75536523
  -OEChem-12032416313D

 52 53  0     1  0  0  0  0  0999 V2000
    1.3143    0.1258    0.0750 O   0  0  0  0  0  0  0  0  0  0  0  0
   -0.3116   -3.0768    0.1459 O   0  0  0  0  0  0  0  0  0  0  0  0
    3.6092    0.7560   -1.8128 O   0  0  0  0  0  0  0  0  0  0  0  0
   -3.8753    1.9915   -1.0342 O   0  0  0  0  0  0  0  0  0  0  0  0
   -2.2486   -0.6052    0.0207 N   0  0  0  0  0  0  0  0  0  0  0  0
    3.6948   -1.2945   -0.7225 N   0  0  0  0  0  0  0  0  0  0  0  0
   -0.8697   -0.7218    0.4666 C   0  0  1  0  0  0  0  0  0  0  0  0
   -0.0673   -1.7569   -0.2998 C   0  0  1  0  0  0  0  0  0  0  0  0
    1.3559   -1.3092    0.0049 C   0  0  1  0  0  0  0  0  0  0  0  0
   -0.0571    0.5372    0.2124 C   0  0  0  0  0  0  0  0  0  0  0  0
    2.3602   -1.7428   -1.0481 C   0  0  0  0  0  0  0  0  0  0  0  0
    5.7635    0.9063    0.6773 C   0  0  0  0  0  0  0  0  0  0  0  0
   -3.0518    0.1358    0.9859 C   0  0  0  0  0  0  0  0  0  0  0  0
    5.6364    0.1552   -0.6695 C   0  0  0  0  0  0  0  0  0  0  0  0
    4.2081   -0.0767   -1.1350 C   0  0  0  0  0  0  0  0  0  0  0  0
    5.0417    0.1580    1.8098 C   0  0  0  0  0  0  0  0  0  0  0  0
    7.2389    1.1082    1.0617 C   0  0  0  0  0  0  0  0  0  0  0  0
    5.1087    2.2920    0.5145 C   0  0  0  0  0  0  0  0  0  0  0  0
   -4.4801    0.2810    0.5326 C   0  0  0  0  0  0  0  0  0  0  0  0
   -4.8240    1.2024   -0.4564 C   0  0  0  0  0  0  0  0  0  0  0  0
   -5.4644   -0.5185    1.1136 C   0  0  0  0  0  0  0  0  0  0  0  0
   -6.1522    1.3244   -0.8645 C   0  0  0  0  0  0  0  0  0  0  0  0
   -6.7928   -0.3964    0.7056 C   0  0  0  0  0  0  0  0  0  0  0  0
   -7.1367    0.5250   -0.2835 C   0  0  0  0  0  0  0  0  0  0  0  0
   -0.8365   -0.9880    1.5327 H   0  0  0  0  0  0  0  0  0  0  0  0
   -0.2779   -1.7023   -1.3752 H   0  0  0  0  0  0  0  0  0  0  0  0
    1.6800   -1.6749    0.9882 H   0  0  0  0  0  0  0  0  0  0  0  0
   -0.3400    1.0341   -0.7228 H   0  0  0  0  0  0  0  0  0  0  0  0
   -0.1371    1.2637    1.0266 H   0  0  0  0  0  0  0  0  0  0  0  0
    2.0927   -1.3295   -2.0273 H   0  0  0  0  0  0  0  0  0  0  0  0
    2.3927   -2.8340   -1.1283 H   0  0  0  0  0  0  0  0  0  0  0  0
   -2.6433   -1.5398   -0.0889 H   0  0  0  0  0  0  0  0  0  0  0  0
    4.2697   -1.9098   -0.1546 H   0  0  0  0  0  0  0  0  0  0  0  0
   -2.6400    1.1392    1.1535 H   0  0  0  0  0  0  0  0  0  0  0  0
   -3.0299   -0.3665    1.9620 H   0  0  0  0  0  0  0  0  0  0  0  0
   -0.1240   -3.1173    1.0989 H   0  0  0  0  0  0  0  0  0  0  0  0
    6.1496   -0.8129   -0.6014 H   0  0  0  0  0  0  0  0  0  0  0  0
    6.1514    0.7098   -1.4649 H   0  0  0  0  0  0  0  0  0  0  0  0
    5.4221   -0.8646    1.9088 H   0  0  0  0  0  0  0  0  0  0  0  0
    5.1943    0.6616    2.7716 H   0  0  0  0  0  0  0  0  0  0  0  0
    3.9606    0.1050    1.6467 H   0  0  0  0  0  0  0  0  0  0  0  0
    7.3362    1.6655    2.0000 H   0  0  0  0  0  0  0  0  0  0  0  0
    7.7760    1.6640    0.2851 H   0  0  0  0  0  0  0  0  0  0  0  0
    7.7435    0.1443    1.1911 H   0  0  0  0  0  0  0  0  0  0  0  0
    5.5457    2.8427   -0.3262 H   0  0  0  0  0  0  0  0  0  0  0  0
    5.2538    2.8996    1.4156 H   0  0  0  0  0  0  0  0  0  0  0  0
    4.0282    2.2225    0.3504 H   0  0  0  0  0  0  0  0  0  0  0  0
   -5.2122   -1.2427    1.8836 H   0  0  0  0  0  0  0  0  0  0  0  0
   -6.4345    2.0381   -1.6340 H   0  0  0  0  0  0  0  0  0  0  0  0
   -7.5592   -1.0192    1.1575 H   0  0  0  0  0  0  0  0  0  0  0  0
   -8.1709    0.6198   -0.6012 H   0  0  0  0  0  0  0  0  0  0  0  0
   -4.2991    2.5651   -1.6955 H   0  0  0  0  0  0  0  0  0  0  0  0
  1  9  1  0  0  0  0
  1 10  1  0  0  0  0
  2  8  1  0  0  0  0
  2 36  1  0  0  0  0
  3 15  2  0  0  0  0
  4 20  1  0  0  0  0
  4 52  1  0  0  0  0
  5  7  1  0  0  0  0
  5 13  1  0  0  0  0
  5 32  1  0  0  0  0
  6 11  1  0  0  0  0
  6 15  1  0  0  0  0
  6 33  1  0  0  0  0
  7  8  1  0  0  0  0
  7 10  1  0  0  0  0
  7 25  1  0  0  0  0
  8  9  1  0  0  0  0
  8 26  1  0  0  0  0
  9 11  1  0  0  0  0
  9 27  1  0  0  0  0
 10 28  1  0  0  0  0
 10 29  1  0  0  0  0
 11 30  1  0  0  0  0
 11 31  1  0  0  0  0
 12 14  1  0  0  0  0
 12 16  1  0  0  0  0
 12 17  1  0  0  0  0
 12 18  1  0  0  0  0
 13 19  1  0  0  0  0
 13 34  1  0  0  0  0
 13 35  1  0  0  0  0
 14 15  1  0  0  0  0
 14 37  1  0  0  0  0
 14 38  1  0  0  0  0
 16 39  1  0  0  0  0
 16 40  1  0  0  0  0
 16 41  1  0  0  0  0
 17 42  1  0  0  0  0
 17 43  1  0  0  0  0
 17 44  1  0  0  0  0
 18 45  1  0  0  0  0
 18 46  1  0  0  0  0
 18 47  1  0  0  0  0
 19 20  1  0  0  0  0
 19 21  2  0  0  0  0
 20 22  2  0  0  0  0
 21 23  1  0  0  0  0
 21 48  1  0  0  0  0
 22 24  1  0  0  0  0
 22 49  1  0  0  0  0
 23 24  2  0  0  0  0
 23 50  1  0  0  0  0
 24 51  1  0  0  0  0
M  END
> <PUBCHEM_COMPOUND_CID>
75536523

> <PUBCHEM_CONFORMER_RMSD>
1.2

> <PUBCHEM_CONFORMER_DIVERSEORDER>
1
88
18
93
55
113
38
98
76
103
69
86
59
105
11
42
24
81
41
112
71
34
100
102
26
56
106
27
48
90
92
77
85
119
104
123
31
12
114
6
83
96
17
50
84
46
117
110
40
75
115
52
32
44
23
20
122
65
49
94
108
13
21
35
33
68
118
72
87
39
109
36
60
10
97
57
120
22
101
19
78
61
89
30
4
111
63
15
28
53
37
80
5
79
43
66
9
70
73
64
95
74
99
116
121
58
82
51
67
7
54
16
25
45
91
107
29
14
2
8
62
47
3

> <PUBCHEM_MMFF94_PARTIAL_CHARGES>
28
1 -0.56
10 0.28
11 0.3
13 0.41
14 0.06
15 0.57
19 -0.14
2 -0.68
20 0.08
21 -0.15
22 -0.15
23 -0.15
24 -0.15
3 -0.57
32 0.36
33 0.37
36 0.4
4 -0.53
48 0.15
49 0.15
5 -0.9
50 0.15
51 0.15
52 0.45
6 -0.73
7 0.27
8 0.28
9 0.28

> <PUBCHEM_EFFECTIVE_ROTOR_COUNT>
9

> <PUBCHEM_PHARMACOPHORE_FEATURES>
11
1 1 acceptor
1 2 acceptor
1 2 donor
1 3 acceptor
1 4 donor
1 5 cation
1 5 donor
1 6 donor
4 12 16 17 18 hydrophobe
5 1 7 8 9 10 rings
6 19 20 21 22 23 24 rings

> <PUBCHEM_HEAVY_ATOM_COUNT>
24

> <PUBCHEM_ATOM_DEF_STEREO_COUNT>
3

> <PUBCHEM_ATOM_UDEF_STEREO_COUNT>
0

> <PUBCHEM_BOND_DEF_STEREO_COUNT>
0

> <PUBCHEM_BOND_UDEF_STEREO_COUNT>
0

> <PUBCHEM_ISOTOPIC_ATOM_COUNT>
0

> <PUBCHEM_COMPONENT_COUNT>
1

> <PUBCHEM_CACTVS_TAUTO_COUNT>
6

> <PUBCHEM_CONFORMER_ID>
0480988B00000001

> <PUBCHEM_MMFF94_ENERGY>
53.6696

> <PUBCHEM_FEATURE_SELFOVERLAP>
55.822

> <PUBCHEM_SHAPE_FINGERPRINT>
10 15 18259987106020715544
10299344 5 14045744815782077781
10638233 991 16559030493475000657
10835480 77 18337386029585486453
11128504 68 16630527314801963983
11646440 116 18343309175258377744
11719270 70 18260547796922118163
12236239 1 16630250225572418699
12596602 18 15357988901117891913
12778500 126 15936404516439256628
13533116 47 18059300851444436734
13673619 4 12252175265393115814
13914758 101 13551463757926206551
14251764 18 16225768532228948740
14347424 109 15285357340999288780
14461889 52 18260555549549136387
14681490 219 16558750109235679144
14767858 380 16917067763030247112
15183329 4 14764347141310771137
15352257 5 10159694707398970281
16079462 125 18408039606876226567
173720 79 17894630353052016658
20157964 124 17918277541700017838
20554085 129 17531240656729619593
20567600 254 18412826885041422546
20715895 44 18341895221138788112
21150785 3 16415476069172065725
21521721 280 18060143137074485035
220451 1 13758359951508840935
22149856 69 18267326282576651219
23016692 55 10807934868686856650
23035841 295 12247680461383721477
23081809 10 16343709785675932379
23424782 7 17703505601677148743
23559900 14 17560513005950340179
249999 5 18263078825761571314
2767999 5 18410856564050996296
2916195 48 18410012139184037955
312425 54 14635156771415531992
3472631 163 18271525403240087196
34797466 226 16773804687907787268
4072396 5 17676206862215091338
4325135 7 14764349336134323080
4340502 62 18410014329765441878
437815 12 8718825388285760607
465052 167 8214141859118778464
5104073 3 18115031775735354377
54039377 194 12324502223080392152
543368 44 17846500323000468185

> <PUBCHEM_SHAPE_MULTIPOLES>
460.47
20.6
2.01
1.3
6.38
0.65
-0.02
-10.18
2.42
-1
-0.22
-0.92
-0.17
1.9

> <PUBCHEM_SHAPE_SELFOVERLAP>
943.72

> <PUBCHEM_SHAPE_VOLUME>
267

> <PUBCHEM_COORDINATE_TYPE>
2
5
10

$$$$
