7144230
  -OEChem-12032416233D

 54 57  0     1  0  0  0  0  0999 V2000
   -2.4092   -3.7447   -0.4427 S   0  0  0  0  0  0  0  0  0  0  0  0
    6.1401    0.0387   -0.5798 S   0  0  0  0  0  0  0  0  0  0  0  0
   -3.2659    2.1128    2.4963 O   0  0  0  0  0  0  0  0  0  0  0  0
   -3.6868   -1.4935   -1.3198 O   0  0  0  0  0  0  0  0  0  0  0  0
    1.0772   -3.9576    0.7298 O   0  0  0  0  0  0  0  0  0  0  0  0
   -0.6648   -3.8738    2.1871 O   0  0  0  0  0  0  0  0  0  0  0  0
   -1.9585   -0.0233   -1.8181 N   0  0  0  0  0  0  0  0  0  0  0  0
   -1.7834    1.9240    0.6929 N   0  0  0  0  0  0  0  0  0  0  0  0
   -2.5314    2.3983   -1.7129 C   0  0  1  0  0  0  0  0  0  0  0  0
   -0.2252    1.6758   -1.2646 C   0  0  2  0  0  0  0  0  0  0  0  0
   -1.0706    2.7517   -1.9440 C   0  0  0  0  0  0  0  0  0  0  0  0
   -2.8604    1.0192   -2.3077 C   0  0  0  0  0  0  0  0  0  0  0  0
   -2.8131    2.4550   -0.2110 C   0  0  0  0  0  0  0  0  0  0  0  0
   -0.5294    0.3045   -1.9037 C   0  0  0  0  0  0  0  0  0  0  0  0
   -0.4815    1.6251    0.2441 C   0  0  0  0  0  0  0  0  0  0  0  0
    0.4806    1.2817    1.1399 C   0  0  0  0  0  0  0  0  0  0  0  0
   -2.1494    1.8501    2.0487 C   0  0  0  0  0  0  0  0  0  0  0  0
   -2.4808   -1.2410   -1.3831 C   0  0  0  0  0  0  0  0  0  0  0  0
    0.1389    1.1916    2.5468 C   0  0  0  0  0  0  0  0  0  0  0  0
   -1.0906    1.4388    2.9980 C   0  0  0  0  0  0  0  0  0  0  0  0
    1.8656    0.9778    0.7182 C   0  0  0  0  0  0  0  0  0  0  0  0
   -1.4848   -2.2917   -0.9617 C   0  0  0  0  0  0  0  0  0  0  0  0
    2.2125   -0.3251    0.3743 C   0  0  0  0  0  0  0  0  0  0  0  0
    2.8122    1.9966    0.6690 C   0  0  0  0  0  0  0  0  0  0  0  0
    3.5187   -0.6119   -0.0227 C   0  0  0  0  0  0  0  0  0  0  0  0
    4.1182    1.7098    0.2719 C   0  0  0  0  0  0  0  0  0  0  0  0
    4.4715    0.4055   -0.0739 C   0  0  0  0  0  0  0  0  0  0  0  0
   -1.0194   -4.8173   -0.0023 C   0  0  0  0  0  0  0  0  0  0  0  0
   -0.2147   -4.1693    1.0875 C   0  0  0  0  0  0  0  0  0  0  0  0
    5.8843   -0.6079   -2.2565 C   0  0  0  0  0  0  0  0  0  0  0  0
   -3.1720    3.1353   -2.2128 H   0  0  0  0  0  0  0  0  0  0  0  0
    0.8224    1.9228   -1.4700 H   0  0  0  0  0  0  0  0  0  0  0  0
   -0.8518    2.7896   -3.0182 H   0  0  0  0  0  0  0  0  0  0  0  0
   -0.8406    3.7434   -1.5345 H   0  0  0  0  0  0  0  0  0  0  0  0
   -2.7464    1.0478   -3.3985 H   0  0  0  0  0  0  0  0  0  0  0  0
   -3.9040    0.7576   -2.1029 H   0  0  0  0  0  0  0  0  0  0  0  0
   -3.7671    1.9622    0.0164 H   0  0  0  0  0  0  0  0  0  0  0  0
   -2.9436    3.5068    0.0793 H   0  0  0  0  0  0  0  0  0  0  0  0
    0.0880   -0.4763   -1.4615 H   0  0  0  0  0  0  0  0  0  0  0  0
   -0.2782    0.3292   -2.9717 H   0  0  0  0  0  0  0  0  0  0  0  0
    0.9161    0.8993    3.2468 H   0  0  0  0  0  0  0  0  0  0  0  0
   -1.3382    1.3634    4.0501 H   0  0  0  0  0  0  0  0  0  0  0  0
   -0.8358   -2.5439   -1.8046 H   0  0  0  0  0  0  0  0  0  0  0  0
   -0.9052   -1.9007   -0.1221 H   0  0  0  0  0  0  0  0  0  0  0  0
    1.4843   -1.1298    0.4198 H   0  0  0  0  0  0  0  0  0  0  0  0
    2.5508    3.0178    0.9352 H   0  0  0  0  0  0  0  0  0  0  0  0
    3.7727   -1.6375   -0.2786 H   0  0  0  0  0  0  0  0  0  0  0  0
    4.8470    2.5159    0.2378 H   0  0  0  0  0  0  0  0  0  0  0  0
   -1.3822   -5.7847    0.3568 H   0  0  0  0  0  0  0  0  0  0  0  0
   -0.4013   -4.9996   -0.8867 H   0  0  0  0  0  0  0  0  0  0  0  0
    6.8567   -0.7883   -2.7225 H   0  0  0  0  0  0  0  0  0  0  0  0
    5.3334   -1.5514   -2.2282 H   0  0  0  0  0  0  0  0  0  0  0  0
    5.3347    0.1165   -2.8637 H   0  0  0  0  0  0  0  0  0  0  0  0
    1.5929   -3.5386    1.4515 H   0  0  0  0  0  0  0  0  0  0  0  0
  1 22  1  0  0  0  0
  1 28  1  0  0  0  0
  2 27  1  0  0  0  0
  2 30  1  0  0  0  0
  3 17  2  0  0  0  0
  4 18  2  0  0  0  0
  5 29  1  0  0  0  0
  5 54  1  0  0  0  0
  6 29  2  0  0  0  0
  7 12  1  0  0  0  0
  7 14  1  0  0  0  0
  7 18  1  0  0  0  0
  8 13  1  0  0  0  0
  8 15  1  0  0  0  0
  8 17  1  0  0  0  0
  9 11  1  0  0  0  0
  9 12  1  0  0  0  0
  9 13  1  0  0  0  0
  9 31  1  0  0  0  0
 10 11  1  0  0  0  0
 10 14  1  0  0  0  0
 10 15  1  0  0  0  0
 10 32  1  0  0  0  0
 11 33  1  0  0  0  0
 11 34  1  0  0  0  0
 12 35  1  0  0  0  0
 12 36  1  0  0  0  0
 13 37  1  0  0  0  0
 13 38  1  0  0  0  0
 14 39  1  0  0  0  0
 14 40  1  0  0  0  0
 15 16  2  0  0  0  0
 16 19  1  0  0  0  0
 16 21  1  0  0  0  0
 17 20  1  0  0  0  0
 18 22  1  0  0  0  0
 19 20  2  0  0  0  0
 19 41  1  0  0  0  0
 20 42  1  0  0  0  0
 21 23  2  0  0  0  0
 21 24  1  0  0  0  0
 22 43  1  0  0  0  0
 22 44  1  0  0  0  0
 23 25  1  0  0  0  0
 23 45  1  0  0  0  0
 24 26  2  0  0  0  0
 24 46  1  0  0  0  0
 25 27  2  0  0  0  0
 25 47  1  0  0  0  0
 26 27  1  0  0  0  0
 26 48  1  0  0  0  0
 28 29  1  0  0  0  0
 28 49  1  0  0  0  0
 28 50  1  0  0  0  0
 30 51  1  0  0  0  0
 30 52  1  0  0  0  0
 30 53  1  0  0  0  0
M  END
> <PUBCHEM_COMPOUND_CID>
7144230

> <PUBCHEM_CONFORMER_RMSD>
1

> <PUBCHEM_CONFORMER_DIVERSEORDER>
1
7
13
6
2
5
10
11
15
12
4
16
9
8
17
3
14

> <PUBCHEM_MMFF94_PARTIAL_CHARGES>
35
1 -0.46
10 0.14
12 0.3
13 0.3
14 0.3
15 -0.03
16 -0.03
17 0.62
18 0.57
19 -0.15
2 -0.33
20 -0.14
21 0.03
22 0.29
23 -0.15
24 -0.15
25 -0.15
26 -0.15
27 0.1
28 0.29
29 0.66
3 -0.57
30 0.23
4 -0.57
41 0.15
42 0.15
45 0.15
46 0.15
47 0.15
48 0.15
5 -0.65
54 0.5
6 -0.57
7 -0.66
8 -0.47

> <PUBCHEM_EFFECTIVE_ROTOR_COUNT>
8

> <PUBCHEM_PHARMACOPHORE_FEATURES>
10
1 3 acceptor
1 30 hydrophobe
1 4 acceptor
1 5 acceptor
1 6 acceptor
3 5 6 29 anion
6 21 23 24 25 26 27 rings
6 7 9 10 11 12 14 rings
6 8 15 16 17 19 20 rings
6 8 9 10 11 13 15 rings

> <PUBCHEM_HEAVY_ATOM_COUNT>
30

> <PUBCHEM_ATOM_DEF_STEREO_COUNT>
2

> <PUBCHEM_ATOM_UDEF_STEREO_COUNT>
0

> <PUBCHEM_BOND_DEF_STEREO_COUNT>
0

> <PUBCHEM_BOND_UDEF_STEREO_COUNT>
0

> <PUBCHEM_ISOTOPIC_ATOM_COUNT>
0

> <PUBCHEM_COMPONENT_COUNT>
1

> <PUBCHEM_CACTVS_TAUTO_COUNT>
1

> <PUBCHEM_CONFORMER_ID>
006D032600000001

> <PUBCHEM_MMFF94_ENERGY>
82.7671

> <PUBCHEM_FEATURE_SELFOVERLAP>
52.369

> <PUBCHEM_SHAPE_FINGERPRINT>
10764073 3 13031388203056252996
107951 10 18339918221226063742
12156800 1 17546222657334778878
12539773 59 16404730322927467975
13111901 51 18263064579929440058
13135754 10 17486525781832589892
14251740 79 18341608231086407270
15463212 79 18042106731321006298
17974551 9 17413035649199187267
20771845 171 17391879624004832173
20775530 9 17905598161817530038
21860390 5 10078725498560736819
22907989 373 14923939080671282780
23419403 2 14256630076606390205
23466295 7 18338240487021002198
3027735 51 18411694387669616274
3493558 16 10872419808216426814
35225 105 17770539487937008427
394222 165 16982665516403565097
4058900 60 17768265521750246385
469060 322 18114198431372673455
484985 159 17988651782903356694
5080951 261 18260265296222976282
57527452 28 18339941380475888867
5895379 119 11420432643072063062
59755656 520 18129394704418525184
70634741 139 18339070610548451480

> <PUBCHEM_SHAPE_MULTIPOLES>
591.65
8.09
5.36
2.75
16.28
8.45
-0.83
-0.08
4.02
-5.11
-1.54
-1.7
-1.32
0.24

> <PUBCHEM_SHAPE_SELFOVERLAP>
1243.536

> <PUBCHEM_SHAPE_VOLUME>
335.1

> <PUBCHEM_COORDINATE_TYPE>
2
5
10

$$$$
