25338308
  -OEChem-12032416233D

 45 48  0     1  0  0  0  0  0999 V2000
   -2.9458    1.7148   -0.7659 S   0  0  0  0  0  0  0  0  0  0  0  0
    2.7240   -2.4730   -0.6987 O   0  0  0  0  0  0  0  0  0  0  0  0
   -3.0382    1.6803   -2.2131 O   0  0  0  0  0  0  0  0  0  0  0  0
   -2.7798    2.9795   -0.0755 O   0  0  0  0  0  0  0  0  0  0  0  0
   -0.3549   -1.7897    0.8754 N   0  0  1  0  0  0  0  0  0  0  0  0
   -1.7302    0.6495   -0.2501 N   0  0  0  0  0  0  0  0  0  0  0  0
    2.3230   -0.3752   -0.0241 N   0  0  0  0  0  0  0  0  0  0  0  0
    3.9761   -1.8576   -0.5753 N   0  0  0  0  0  0  0  0  0  0  0  0
    5.9320    0.0290   -0.0945 N   0  0  0  0  0  0  0  0  0  0  0  0
    5.2043    2.6047    0.7436 N   0  0  0  0  0  0  0  0  0  0  0  0
   -1.7633   -0.7715   -0.6804 C   0  0  1  0  0  0  0  0  0  0  0  0
    0.3539   -1.9543   -0.4081 C   0  0  1  0  0  0  0  0  0  0  0  0
   -0.4693   -1.1223   -1.4105 C   0  0  0  0  0  0  0  0  0  0  0  0
   -1.7776   -1.6829    0.5358 C   0  0  0  0  0  0  0  0  0  0  0  0
    1.8063   -1.5313   -0.3562 C   0  0  0  0  0  0  0  0  0  0  0  0
   -0.1011   -2.8750    1.8153 C   0  0  0  0  0  0  0  0  0  0  0  0
   -4.4005    0.9552   -0.1089 C   0  0  0  0  0  0  0  0  0  0  0  0
    3.6564   -0.6237   -0.1737 C   0  0  0  0  0  0  0  0  0  0  0  0
   -4.8477    1.2930    1.1683 C   0  0  0  0  0  0  0  0  0  0  0  0
   -5.1009    0.0174   -0.8676 C   0  0  0  0  0  0  0  0  0  0  0  0
    4.6441    0.3838    0.0849 C   0  0  0  0  0  0  0  0  0  0  0  0
   -5.9953    0.6931    1.6870 C   0  0  0  0  0  0  0  0  0  0  0  0
   -6.2485   -0.5825   -0.3491 C   0  0  0  0  0  0  0  0  0  0  0  0
   -6.6956   -0.2445    0.9283 C   0  0  0  0  0  0  0  0  0  0  0  0
    4.2868    1.6488    0.4966 C   0  0  0  0  0  0  0  0  0  0  0  0
    6.8496    0.9847    0.1525 C   0  0  0  0  0  0  0  0  0  0  0  0
    6.4922    2.2498    0.5641 C   0  0  0  0  0  0  0  0  0  0  0  0
   -2.6124   -0.9648   -1.3379 H   0  0  0  0  0  0  0  0  0  0  0  0
    0.3046   -3.0045   -0.7303 H   0  0  0  0  0  0  0  0  0  0  0  0
    0.0560   -0.2282   -1.7667 H   0  0  0  0  0  0  0  0  0  0  0  0
   -0.6947   -1.7410   -2.2883 H   0  0  0  0  0  0  0  0  0  0  0  0
   -2.3631   -1.2743    1.3662 H   0  0  0  0  0  0  0  0  0  0  0  0
   -2.1927   -2.6610    0.2599 H   0  0  0  0  0  0  0  0  0  0  0  0
   -1.1218    0.8897    0.5417 H   0  0  0  0  0  0  0  0  0  0  0  0
    0.9613   -2.9201    2.0778 H   0  0  0  0  0  0  0  0  0  0  0  0
   -0.3980   -3.8513    1.4156 H   0  0  0  0  0  0  0  0  0  0  0  0
   -0.6500   -2.7055    2.7482 H   0  0  0  0  0  0  0  0  0  0  0  0
   -4.3137    2.0148    1.7797 H   0  0  0  0  0  0  0  0  0  0  0  0
   -4.7780   -0.2563   -1.8679 H   0  0  0  0  0  0  0  0  0  0  0  0
   -6.3425    0.9547    2.6822 H   0  0  0  0  0  0  0  0  0  0  0  0
   -6.7950   -1.3114   -0.9404 H   0  0  0  0  0  0  0  0  0  0  0  0
   -7.5890   -0.7117    1.3321 H   0  0  0  0  0  0  0  0  0  0  0  0
    3.2584    1.9568    0.6477 H   0  0  0  0  0  0  0  0  0  0  0  0
    7.8846    0.7004    0.0085 H   0  0  0  0  0  0  0  0  0  0  0  0
    7.2302    3.0172    0.7624 H   0  0  0  0  0  0  0  0  0  0  0  0
  1  3  2  0  0  0  0
  1  4  2  0  0  0  0
  1  6  1  0  0  0  0
  1 17  1  0  0  0  0
  2  8  1  0  0  0  0
  2 15  1  0  0  0  0
  5 12  1  0  0  0  0
  5 14  1  0  0  0  0
  5 16  1  0  0  0  0
  6 11  1  0  0  0  0
  6 34  1  0  0  0  0
  7 15  2  0  0  0  0
  7 18  1  0  0  0  0
  8 18  2  0  0  0  0
  9 21  2  0  0  0  0
  9 26  1  0  0  0  0
 10 25  2  0  0  0  0
 10 27  1  0  0  0  0
 11 13  1  0  0  0  0
 11 14  1  0  0  0  0
 11 28  1  0  0  0  0
 12 13  1  0  0  0  0
 12 15  1  0  0  0  0
 12 29  1  0  0  0  0
 13 30  1  0  0  0  0
 13 31  1  0  0  0  0
 14 32  1  0  0  0  0
 14 33  1  0  0  0  0
 16 35  1  0  0  0  0
 16 36  1  0  0  0  0
 16 37  1  0  0  0  0
 17 19  2  0  0  0  0
 17 20  1  0  0  0  0
 18 21  1  0  0  0  0
 19 22  1  0  0  0  0
 19 38  1  0  0  0  0
 20 23  2  0  0  0  0
 20 39  1  0  0  0  0
 21 25  1  0  0  0  0
 22 24  2  0  0  0  0
 22 40  1  0  0  0  0
 23 24  1  0  0  0  0
 23 41  1  0  0  0  0
 24 42  1  0  0  0  0
 25 43  1  0  0  0  0
 26 27  2  0  0  0  0
 26 44  1  0  0  0  0
 27 45  1  0  0  0  0
M  END
> <PUBCHEM_COMPOUND_CID>
25338308

> <PUBCHEM_CONFORMER_RMSD>
0.8

> <PUBCHEM_CONFORMER_DIVERSEORDER>
1
80
177
33
168
188
132
119
150
210
190
94
198
165
146
36
108
196
125
44
32
77
98
208
116
204
199
183
170
52
144
142
187
85
14
129
200
191
206
180
167
120
162
58
48
82
194
205
71
166
5
10
51
65
123
112
211
66
81
54
207
93
140
96
202
181
28
45
214
174
67
130
49
189
57
22
136
156
91
110
182
154
38
152
104
63
135
16
41
139
151
64
95
19
201
99
127
212
160
101
109
169
159
9
59
203
79
141
209
73
62
118
89
134
121
171
42
106
97
92
3
86
24
185
164
68
155
197
105
47
114
148
124
87
128
195
70
88
43
157
147
72
37
175
50
23
192
27
176
13
35
153
178
21
103
26
25
193
213
115
4
84
184
60
111
17
100
161
61
8
113
90
117
40
30
76
158
6
163
186
34
46
107
145
102
173
31
133
39
20
143
55
172
74
138
69
29
2
179
75
53
126
12
137
56
131
149
83
15
7
122
78
11
18

> <PUBCHEM_MMFF94_PARTIAL_CHARGES>
35
1 1.45
10 -0.62
11 0.36
12 0.45
14 0.27
15 0.3
16 0.27
17 -0.01
18 0.46
19 -0.15
2 -0.02
20 -0.15
21 0.36
22 -0.15
23 -0.15
24 -0.15
25 0.16
26 0.16
27 0.16
3 -0.65
34 0.42
38 0.15
39 0.15
4 -0.65
40 0.15
41 0.15
42 0.15
43 0.15
44 0.15
45 0.15
5 -0.81
6 -0.91
7 -0.57
8 -0.41
9 -0.62

> <PUBCHEM_EFFECTIVE_ROTOR_COUNT>
6

> <PUBCHEM_PHARMACOPHORE_FEATURES>
11
1 10 acceptor
1 3 acceptor
1 4 acceptor
1 5 cation
1 6 donor
1 9 acceptor
3 7 8 18 cation
5 2 7 8 15 18 rings
5 5 11 12 13 14 rings
6 17 19 20 22 23 24 rings
6 9 10 21 25 26 27 rings

> <PUBCHEM_HEAVY_ATOM_COUNT>
27

> <PUBCHEM_ATOM_DEF_STEREO_COUNT>
2

> <PUBCHEM_ATOM_UDEF_STEREO_COUNT>
0

> <PUBCHEM_BOND_DEF_STEREO_COUNT>
0

> <PUBCHEM_BOND_UDEF_STEREO_COUNT>
0

> <PUBCHEM_ISOTOPIC_ATOM_COUNT>
0

> <PUBCHEM_COMPONENT_COUNT>
1

> <PUBCHEM_CACTVS_TAUTO_COUNT>
1

> <PUBCHEM_CONFORMER_ID>
0182A1C400000001

> <PUBCHEM_MMFF94_ENERGY>
46.2756

> <PUBCHEM_FEATURE_SELFOVERLAP>
55.844

> <PUBCHEM_SHAPE_FINGERPRINT>
10 15 17894912958006091760
10074138 170 17386572508214550659
10369192 42 17418095425236641053
11135609 201 18341883143547969960
11796584 16 11815885752471328628
12373685 5 15068888777605028483
12403259 415 18261957323610017621
12596602 18 15285645408255173284
12633257 1 17168422774729984590
12730499 353 18411705361659152110
12788726 201 16271655485508285920
12895836 83 17060333054382478030
12977781 61 13986316143777169819
13402501 40 18410290341564935416
13690498 29 16342562046124284207
13782708 43 17751364971474746490
14251752 14 13758361041881894726
14787075 74 18410012126726391035
14856354 85 16559029416044818661
15052358 14 11599726147628185059
15475509 8 11455897957773177547
15728490 51 18271806887229349455
16126227 98 18129662031778224552
16760501 71 18411703213848248544
17349148 13 16154575090096152623
18608769 82 18340484577273224827
20567600 254 18114173133820023727
21033648 29 17749387019070337885
21033650 10 14476972163746905299
21315764 119 13901917708411653764
21315764 268 18261105249686210900
21401589 2 18335695078984600226
22079108 93 18260548922134737343
23198884 109 17132119047810755427
2747138 104 18187945971057017433
2838139 119 18271800216458855796
2916195 48 18335417950251003383
392239 28 18260838098636273177
4098825 35 17131840845699423302
4258327 124 17605010272024112380
4325135 7 18273494577004695207
437815 12 8718830885606528879
5104073 3 17970065539594500569
5207 123 9439401332701388370
53794403 172 18263370359662309580
59682541 35 18260837025084360011
6913067 236 17095242497747633455

> <PUBCHEM_SHAPE_MULTIPOLES>
512
18.03
2.95
1.34
6.95
0.01
-0.03
-10.65
-3.97
1.99
-0.44
-1.61
0.08
1.17

> <PUBCHEM_SHAPE_SELFOVERLAP>
1093.927

> <PUBCHEM_SHAPE_VOLUME>
286

> <PUBCHEM_COORDINATE_TYPE>
2
5
10

$$$$
