45783342
  -OEChem-12032416263D

 52 55  0     1  0  0  0  0  0999 V2000
    3.4601   -5.5004    0.9518 Cl  0  0  0  0  0  0  0  0  0  0  0  0
    0.9624    3.7463    0.5045 O   0  0  0  0  0  0  0  0  0  0  0  0
   -4.0097   -1.0480   -0.0804 O   0  0  0  0  0  0  0  0  0  0  0  0
   -5.2972   -2.8042   -1.8388 O   0  0  0  0  0  0  0  0  0  0  0  0
    3.0819    0.9846   -0.6731 N   0  0  1  0  0  0  0  0  0  0  0  0
    0.2377    1.7351   -0.1639 N   0  0  0  0  0  0  0  0  0  0  0  0
   -0.3818    3.6687    0.8900 N   0  0  0  0  0  0  0  0  0  0  0  0
   -4.6413    0.9112    0.9906 N   0  0  0  0  0  0  0  0  0  0  0  0
    2.6602    2.3988   -0.6250 C   0  0  1  0  0  0  0  0  0  0  0  0
    2.8308    2.9073   -2.0685 C   0  0  0  0  0  0  0  0  0  0  0  0
    3.4095    1.7292   -2.8393 C   0  0  0  0  0  0  0  0  0  0  0  0
    4.0532    0.8797   -1.7621 C   0  0  0  0  0  0  0  0  0  0  0  0
    3.6220    0.5029    0.5916 C   0  0  0  0  0  0  0  0  0  0  0  0
    1.2465    2.5676   -0.1090 C   0  0  0  0  0  0  0  0  0  0  0  0
    3.5824   -0.9995    0.6824 C   0  0  0  0  0  0  0  0  0  0  0  0
    2.4623   -1.6362    1.2169 C   0  0  0  0  0  0  0  0  0  0  0  0
    4.6651   -1.7546    0.2318 C   0  0  0  0  0  0  0  0  0  0  0  0
   -0.7387    2.4543    0.4614 C   0  0  0  0  0  0  0  0  0  0  0  0
    2.4250   -3.0279    1.3011 C   0  0  0  0  0  0  0  0  0  0  0  0
    4.6280   -3.1465    0.3160 C   0  0  0  0  0  0  0  0  0  0  0  0
   -2.0621    1.9309    0.6407 C   0  0  0  0  0  0  0  0  0  0  0  0
    3.5079   -3.7831    0.8507 C   0  0  0  0  0  0  0  0  0  0  0  0
   -2.3798    0.6604    0.1732 C   0  0  0  0  0  0  0  0  0  0  0  0
   -3.0324    2.6921    1.2829 C   0  0  0  0  0  0  0  0  0  0  0  0
   -3.6719    0.2009    0.3713 C   0  0  0  0  0  0  0  0  0  0  0  0
   -4.2954    2.1417    1.4314 C   0  0  0  0  0  0  0  0  0  0  0  0
   -5.3487   -1.4708    0.1488 C   0  0  0  0  0  0  0  0  0  0  0  0
   -5.5373   -2.8565   -0.4377 C   0  0  0  0  0  0  0  0  0  0  0  0
   -5.4387   -4.0840   -2.4394 C   0  0  0  0  0  0  0  0  0  0  0  0
    3.3384    2.9772    0.0184 H   0  0  0  0  0  0  0  0  0  0  0  0
    1.8991    3.2535   -2.5289 H   0  0  0  0  0  0  0  0  0  0  0  0
    3.5434    3.7410   -2.0834 H   0  0  0  0  0  0  0  0  0  0  0  0
    4.1225    2.0467   -3.6058 H   0  0  0  0  0  0  0  0  0  0  0  0
    2.6021    1.1744   -3.3332 H   0  0  0  0  0  0  0  0  0  0  0  0
    5.0303    1.2974   -1.4879 H   0  0  0  0  0  0  0  0  0  0  0  0
    4.1883   -0.1475   -2.1130 H   0  0  0  0  0  0  0  0  0  0  0  0
    3.0276    0.8929    1.4297 H   0  0  0  0  0  0  0  0  0  0  0  0
    4.6404    0.8722    0.7745 H   0  0  0  0  0  0  0  0  0  0  0  0
    1.6106   -1.0597    1.5685 H   0  0  0  0  0  0  0  0  0  0  0  0
    5.5466   -1.2719   -0.1816 H   0  0  0  0  0  0  0  0  0  0  0  0
    1.5451   -3.5105    1.7189 H   0  0  0  0  0  0  0  0  0  0  0  0
    5.4793   -3.7221   -0.0382 H   0  0  0  0  0  0  0  0  0  0  0  0
   -1.6550    0.0305   -0.3333 H   0  0  0  0  0  0  0  0  0  0  0  0
   -2.8430    3.6885    1.6682 H   0  0  0  0  0  0  0  0  0  0  0  0
   -5.0880    2.6942    1.9250 H   0  0  0  0  0  0  0  0  0  0  0  0
   -6.0392   -0.7768   -0.3466 H   0  0  0  0  0  0  0  0  0  0  0  0
   -5.5581   -1.5020    1.2245 H   0  0  0  0  0  0  0  0  0  0  0  0
   -4.8233   -3.5518    0.0190 H   0  0  0  0  0  0  0  0  0  0  0  0
   -6.5577   -3.2075   -0.2485 H   0  0  0  0  0  0  0  0  0  0  0  0
   -4.7124   -4.7872   -2.0203 H   0  0  0  0  0  0  0  0  0  0  0  0
   -6.4554   -4.4635   -2.2993 H   0  0  0  0  0  0  0  0  0  0  0  0
   -5.2483   -3.9840   -3.5113 H   0  0  0  0  0  0  0  0  0  0  0  0
  1 22  1  0  0  0  0
  2  7  1  0  0  0  0
  2 14  1  0  0  0  0
  3 25  1  0  0  0  0
  3 27  1  0  0  0  0
  4 28  1  0  0  0  0
  4 29  1  0  0  0  0
  5  9  1  0  0  0  0
  5 12  1  0  0  0  0
  5 13  1  0  0  0  0
  6 14  2  0  0  0  0
  6 18  1  0  0  0  0
  7 18  2  0  0  0  0
  8 25  2  0  0  0  0
  8 26  1  0  0  0  0
  9 10  1  0  0  0  0
  9 14  1  0  0  0  0
  9 30  1  0  0  0  0
 10 11  1  0  0  0  0
 10 31  1  0  0  0  0
 10 32  1  0  0  0  0
 11 12  1  0  0  0  0
 11 33  1  0  0  0  0
 11 34  1  0  0  0  0
 12 35  1  0  0  0  0
 12 36  1  0  0  0  0
 13 15  1  0  0  0  0
 13 37  1  0  0  0  0
 13 38  1  0  0  0  0
 15 16  2  0  0  0  0
 15 17  1  0  0  0  0
 16 19  1  0  0  0  0
 16 39  1  0  0  0  0
 17 20  2  0  0  0  0
 17 40  1  0  0  0  0
 18 21  1  0  0  0  0
 19 22  2  0  0  0  0
 19 41  1  0  0  0  0
 20 22  1  0  0  0  0
 20 42  1  0  0  0  0
 21 23  2  0  0  0  0
 21 24  1  0  0  0  0
 23 25  1  0  0  0  0
 23 43  1  0  0  0  0
 24 26  2  0  0  0  0
 24 44  1  0  0  0  0
 26 45  1  0  0  0  0
 27 28  1  0  0  0  0
 27 46  1  0  0  0  0
 27 47  1  0  0  0  0
 28 48  1  0  0  0  0
 28 49  1  0  0  0  0
 29 50  1  0  0  0  0
 29 51  1  0  0  0  0
 29 52  1  0  0  0  0
M  END
> <PUBCHEM_COMPOUND_CID>
45783342

> <PUBCHEM_CONFORMER_RMSD>
1

> <PUBCHEM_CONFORMER_DIVERSEORDER>
1
101
38
54
68
78
93
121
117
50
7
22
76
120
70
9
89
26
29
106
115
12
16
27
91
123
114
109
13
65
32
61
85
83
60
110
118
67
81
122
108
104
105
17
100
49
8
21
73
14
39
113
56
111
80
107
88
86
51
46
66
18
24
112
40
31
23
92
28
75
63
72
94
62
98
87
53
71
57
58
6
44
4
59
48
99
3
10
33
96
35
55
25
95
77
64
34
15
19
97
74
5
79
116
84
90
43
2
45
20
119
69
52
41
42
82
36
47
11
102
30
103
37

> <PUBCHEM_MMFF94_PARTIAL_CHARGES>
34
1 -0.18
12 0.27
13 0.41
14 0.3
15 -0.14
16 -0.15
17 -0.15
18 0.46
19 -0.15
2 -0.02
20 -0.15
21 0.05
22 0.18
23 -0.15
24 -0.15
25 0.39
26 0.16
27 0.28
28 0.28
29 0.28
3 -0.36
39 0.15
4 -0.56
40 0.15
41 0.15
42 0.15
43 0.15
44 0.15
45 0.15
5 -0.81
6 -0.57
7 -0.41
8 -0.62
9 0.45

> <PUBCHEM_EFFECTIVE_ROTOR_COUNT>
9

> <PUBCHEM_PHARMACOPHORE_FEATURES>
7
1 4 acceptor
1 5 cation
3 6 7 18 cation
5 2 6 7 14 18 rings
5 5 9 10 11 12 rings
6 15 16 17 19 20 22 rings
6 8 21 23 24 25 26 rings

> <PUBCHEM_HEAVY_ATOM_COUNT>
29

> <PUBCHEM_ATOM_DEF_STEREO_COUNT>
1

> <PUBCHEM_ATOM_UDEF_STEREO_COUNT>
0

> <PUBCHEM_BOND_DEF_STEREO_COUNT>
0

> <PUBCHEM_BOND_UDEF_STEREO_COUNT>
0

> <PUBCHEM_ISOTOPIC_ATOM_COUNT>
0

> <PUBCHEM_COMPONENT_COUNT>
1

> <PUBCHEM_CACTVS_TAUTO_COUNT>
1

> <PUBCHEM_CONFORMER_ID>
02BA992E00000001

> <PUBCHEM_MMFF94_ENERGY>
64.2972

> <PUBCHEM_FEATURE_SELFOVERLAP>
35.523

> <PUBCHEM_SHAPE_FINGERPRINT>
10042902 136 18195253217929496070
10448021 39 18268694169399639639
10622 236 18411409605974217395
10917259 69 10121981992286799999
10928967 22 18269572644465919081
11069576 57 18334012817583264486
11315621 246 17036989019026081806
11513181 2 18341342093301267614
11796584 16 18059587883829467625
12107183 9 18050297964094495585
13692114 37 18124594447933519892
14040221 299 15528550204206233542
14480069 147 18261961842522651075
14863182 85 18261118474428903632
15003188 105 18197494232447252948
15250474 111 18411422808550126409
15320291 9 18338791204976922243
15537594 2 18266200416444575353
16628084 112 18335702724870646187
17138139 8 18268442389425613884
19303781 99 17968378927433765090
19319366 153 18121221149662472884
20028762 73 18410579483770068774
20775438 99 17909009917082776836
20775530 9 17897447194737046720
208703 8 17987518285310176807
21054139 6 18337402646555569980
21703447 108 17914887880359076953
23379529 103 17402333668787554754
24204213 148 18267575978916440162
24893989 43 17196015186359708143
25222932 49 18129095796116903892
3246872 21 18120090585316431146
325973 47 18336272305199265659
4017518 198 16970541115246149628
444735 86 18268997659861153823
46194498 28 16806189673781536356
463206 1 18335431140217097096
56633871 153 18122629344884825011
6201460 15 18411976932310097903
6677587 24 16737470419929831261
7970288 3 18338514114870988578

> <PUBCHEM_SHAPE_MULTIPOLES>
561.14
13.34
7.08
1.94
13.68
6.39
-1.64
14.04
-2.63
-1.98
-0.43
0.25
0.08
-7.78

> <PUBCHEM_SHAPE_SELFOVERLAP>
1192.1

> <PUBCHEM_SHAPE_VOLUME>
316.5

> <PUBCHEM_COORDINATE_TYPE>
2
5
10

$$$$
