71694334
  -OEChem-12032416393D

 76 80  0     1  0  0  0  0  0999 V2000
    5.3396    4.5831   -2.1139 F   0  0  0  0  0  0  0  0  0  0  0  0
   -1.1553   -4.7111   -0.9741 O   0  0  0  0  0  0  0  0  0  0  0  0
    4.0133   -0.3308    2.5277 O   0  0  0  0  0  0  0  0  0  0  0  0
   -0.9316    0.4625    0.1827 O   0  0  0  0  0  0  0  0  0  0  0  0
   -9.2138    1.7116    0.1512 O   0  0  0  0  0  0  0  0  0  0  0  0
    0.7571   -3.4107   -0.8771 N   0  0  0  0  0  0  0  0  0  0  0  0
    5.6110   -0.9316    0.9507 N   0  0  0  0  0  0  0  0  0  0  0  0
   -1.6497   -1.5473   -1.7941 N   0  0  0  0  0  0  0  0  0  0  0  0
   -6.4595    1.1658    0.2741 N   0  0  0  0  0  0  0  0  0  0  0  0
    2.1674   -2.1813    1.3577 C   0  0  1  0  0  0  0  0  0  0  0  0
    1.4713   -1.3632    0.2295 C   0  0  2  0  0  0  0  0  0  0  0  0
    1.4970   -3.5714    1.4631 C   0  0  0  0  0  0  0  0  0  0  0  0
    1.4729   -2.1488   -1.0956 C   0  0  0  0  0  0  0  0  0  0  0  0
    1.3972   -4.2828    0.1111 C   0  0  0  0  0  0  0  0  0  0  0  0
    3.6860   -2.3261    1.1990 C   0  0  0  0  0  0  0  0  0  0  0  0
    2.0254    0.0243    0.0432 C   0  0  0  0  0  0  0  0  0  0  0  0
   -0.5233   -3.7130   -1.3400 C   0  0  0  0  0  0  0  0  0  0  0  0
    4.4249   -1.0878    1.6527 C   0  0  0  0  0  0  0  0  0  0  0  0
    1.3920    1.2051    0.1484 C   0  0  0  0  0  0  0  0  0  0  0  0
   -1.1612   -2.7977   -2.3688 C   0  0  0  0  0  0  0  0  0  0  0  0
   -0.0488    1.5517    0.4248 C   0  0  0  0  0  0  0  0  0  0  0  0
   -2.5511   -1.7000   -0.6541 C   0  0  0  0  0  0  0  0  0  0  0  0
   -3.1145   -0.3650   -0.1972 C   0  0  0  0  0  0  0  0  0  0  0  0
    6.5214    0.1680    1.1742 C   0  0  0  0  0  0  0  0  0  0  0  0
   -2.2832    0.6966    0.2290 C   0  0  0  0  0  0  0  0  0  0  0  0
   -5.0696    1.0085    0.2591 C   0  0  0  0  0  0  0  0  0  0  0  0
   -4.5081   -0.1911   -0.1743 C   0  0  0  0  0  0  0  0  0  0  0  0
   -7.1854    1.0411   -0.9973 C   0  0  0  0  0  0  0  0  0  0  0  0
   -7.0854    2.0457    1.2670 C   0  0  0  0  0  0  0  0  0  0  0  0
   -2.8594    1.8944    0.6685 C   0  0  0  0  0  0  0  0  0  0  0  0
   -4.2466    2.0478    0.6805 C   0  0  0  0  0  0  0  0  0  0  0  0
    6.2062    1.3455    0.2976 C   0  0  0  0  0  0  0  0  0  0  0  0
   -8.6532    0.7331   -0.7240 C   0  0  0  0  0  0  0  0  0  0  0  0
   -8.5589    1.6850    1.4191 C   0  0  0  0  0  0  0  0  0  0  0  0
    6.7967    1.4552   -0.9614 C   0  0  0  0  0  0  0  0  0  0  0  0
    5.3231    2.3295    0.7418 C   0  0  0  0  0  0  0  0  0  0  0  0
    6.5044    2.5489   -1.7761 C   0  0  0  0  0  0  0  0  0  0  0  0
    5.0306    3.4234   -0.0729 C   0  0  0  0  0  0  0  0  0  0  0  0
    5.6213    3.5331   -1.3317 C   0  0  0  0  0  0  0  0  0  0  0  0
    1.9637   -1.6726    2.3104 H   0  0  0  0  0  0  0  0  0  0  0  0
    0.4304   -1.2886    0.5552 H   0  0  0  0  0  0  0  0  0  0  0  0
    0.4813   -3.4338    1.8578 H   0  0  0  0  0  0  0  0  0  0  0  0
    2.0267   -4.2064    2.1824 H   0  0  0  0  0  0  0  0  0  0  0  0
    1.0016   -1.5594   -1.8846 H   0  0  0  0  0  0  0  0  0  0  0  0
    2.4843   -2.3848   -1.4432 H   0  0  0  0  0  0  0  0  0  0  0  0
    2.3928   -4.5411   -0.2670 H   0  0  0  0  0  0  0  0  0  0  0  0
    0.8397   -5.2176    0.2262 H   0  0  0  0  0  0  0  0  0  0  0  0
    3.9579   -2.5869    0.1719 H   0  0  0  0  0  0  0  0  0  0  0  0
    4.0555   -3.1383    1.8382 H   0  0  0  0  0  0  0  0  0  0  0  0
    3.0721    0.0783   -0.2484 H   0  0  0  0  0  0  0  0  0  0  0  0
    2.0135    2.0860   -0.0161 H   0  0  0  0  0  0  0  0  0  0  0  0
   -0.4399   -2.5915   -3.1663 H   0  0  0  0  0  0  0  0  0  0  0  0
   -1.9921   -3.3370   -2.8400 H   0  0  0  0  0  0  0  0  0  0  0  0
    5.8637   -1.6079    0.2362 H   0  0  0  0  0  0  0  0  0  0  0  0
   -0.1297    1.8805    1.4674 H   0  0  0  0  0  0  0  0  0  0  0  0
   -0.3102    2.3837   -0.2413 H   0  0  0  0  0  0  0  0  0  0  0  0
   -2.1178   -1.0159   -2.5285 H   0  0  0  0  0  0  0  0  0  0  0  0
   -2.0338   -2.1474    0.2029 H   0  0  0  0  0  0  0  0  0  0  0  0
   -3.3719   -2.3751   -0.9254 H   0  0  0  0  0  0  0  0  0  0  0  0
    7.5354   -0.1981    0.9772 H   0  0  0  0  0  0  0  0  0  0  0  0
    6.4881    0.4596    2.2307 H   0  0  0  0  0  0  0  0  0  0  0  0
   -5.1533   -1.0107   -0.4846 H   0  0  0  0  0  0  0  0  0  0  0  0
   -6.7730    0.2520   -1.6353 H   0  0  0  0  0  0  0  0  0  0  0  0
   -7.1003    1.9904   -1.5406 H   0  0  0  0  0  0  0  0  0  0  0  0
   -7.0015    3.0865    0.9305 H   0  0  0  0  0  0  0  0  0  0  0  0
   -6.5990    1.9521    2.2452 H   0  0  0  0  0  0  0  0  0  0  0  0
   -2.2554    2.7296    1.0098 H   0  0  0  0  0  0  0  0  0  0  0  0
   -4.6493    2.9999    1.0151 H   0  0  0  0  0  0  0  0  0  0  0  0
   -8.7773   -0.2638   -0.2840 H   0  0  0  0  0  0  0  0  0  0  0  0
   -9.2199    0.7555   -1.6602 H   0  0  0  0  0  0  0  0  0  0  0  0
   -9.0559    2.4111    2.0702 H   0  0  0  0  0  0  0  0  0  0  0  0
   -8.6827    0.6938    1.8721 H   0  0  0  0  0  0  0  0  0  0  0  0
    7.4848    0.6940   -1.3196 H   0  0  0  0  0  0  0  0  0  0  0  0
    4.8567    2.2583    1.7205 H   0  0  0  0  0  0  0  0  0  0  0  0
    6.9634    2.6343   -2.7566 H   0  0  0  0  0  0  0  0  0  0  0  0
    4.3425    4.1893    0.2724 H   0  0  0  0  0  0  0  0  0  0  0  0
  1 39  1  0  0  0  0
  2 17  2  0  0  0  0
  3 18  2  0  0  0  0
  4 21  1  0  0  0  0
  4 25  1  0  0  0  0
  5 33  1  0  0  0  0
  5 34  1  0  0  0  0
  6 13  1  0  0  0  0
  6 14  1  0  0  0  0
  6 17  1  0  0  0  0
  7 18  1  0  0  0  0
  7 24  1  0  0  0  0
  7 54  1  0  0  0  0
  8 20  1  0  0  0  0
  8 22  1  0  0  0  0
  8 57  1  0  0  0  0
  9 26  1  0  0  0  0
  9 28  1  0  0  0  0
  9 29  1  0  0  0  0
 10 11  1  0  0  0  0
 10 12  1  0  0  0  0
 10 15  1  0  0  0  0
 10 40  1  0  0  0  0
 11 13  1  0  0  0  0
 11 16  1  0  0  0  0
 11 41  1  0  0  0  0
 12 14  1  0  0  0  0
 12 42  1  0  0  0  0
 12 43  1  0  0  0  0
 13 44  1  0  0  0  0
 13 45  1  0  0  0  0
 14 46  1  0  0  0  0
 14 47  1  0  0  0  0
 15 18  1  0  0  0  0
 15 48  1  0  0  0  0
 15 49  1  0  0  0  0
 16 19  2  0  0  0  0
 16 50  1  0  0  0  0
 17 20  1  0  0  0  0
 19 21  1  0  0  0  0
 19 51  1  0  0  0  0
 20 52  1  0  0  0  0
 20 53  1  0  0  0  0
 21 55  1  0  0  0  0
 21 56  1  0  0  0  0
 22 23  1  0  0  0  0
 22 58  1  0  0  0  0
 22 59  1  0  0  0  0
 23 25  2  0  0  0  0
 23 27  1  0  0  0  0
 24 32  1  0  0  0  0
 24 60  1  0  0  0  0
 24 61  1  0  0  0  0
 25 30  1  0  0  0  0
 26 27  2  0  0  0  0
 26 31  1  0  0  0  0
 27 62  1  0  0  0  0
 28 33  1  0  0  0  0
 28 63  1  0  0  0  0
 28 64  1  0  0  0  0
 29 34  1  0  0  0  0
 29 65  1  0  0  0  0
 29 66  1  0  0  0  0
 30 31  2  0  0  0  0
 30 67  1  0  0  0  0
 31 68  1  0  0  0  0
 32 35  2  0  0  0  0
 32 36  1  0  0  0  0
 33 69  1  0  0  0  0
 33 70  1  0  0  0  0
 34 71  1  0  0  0  0
 34 72  1  0  0  0  0
 35 37  1  0  0  0  0
 35 73  1  0  0  0  0
 36 38  2  0  0  0  0
 36 74  1  0  0  0  0
 37 39  2  0  0  0  0
 37 75  1  0  0  0  0
 38 39  1  0  0  0  0
 38 76  1  0  0  0  0
M  END
> <PUBCHEM_COMPOUND_CID>
71694334

> <PUBCHEM_CONFORMER_RMSD>
1

> <PUBCHEM_CONFORMER_DIVERSEORDER>
1
14
140
219
54
207
93
208
218
186
97
187
64
233
156
172
53
133
45
141
157
193
184
122
81
57
147
20
178
227
148
73
128
204
95
210
69
214
197
195
118
216
85
235
72
209
222
55
124
135
132
100
84
139
23
41
146
234
165
50
189
198
113
164
67
22
221
202
211
153
171
106
206
217
44
79
200
65
183
176
237
46
92
170
82
115
239
150
223
162
127
143
163
220
175
29
230
201
110
94
213
231
173
19
205
161
109
185
74
142
212
33
18
15
138
13
179
26
158
190
68
111
88
123
224
58
9
104
152
188
76
196
119
203
160
16
177
240
136
37
169
8
43
236
151
117
35
134
129
32
98
77
49
66
215
17
238
90
191
52
145
137
144
108
131
89
159
112
167
149
59
91
11
56
27
25
194
114
47
42
130
30
155
166
48
86
40
61
168
154
126
225
39
102
62
75
116
10
232
174
83
7
182
51
199
120
38
105
192
96
70
180
12
36
226
80
28
99
60
121
87
24
229
2
63
31
5
21
101
107
78
34
4
71
181
3
103
6
228
125

> <PUBCHEM_MMFF94_PARTIAL_CHARGES>
48
1 -0.19
11 0.14
13 0.3
14 0.3
15 0.06
16 -0.29
17 0.57
18 0.57
19 -0.29
2 -0.57
20 0.33
21 0.42
22 0.41
23 -0.14
24 0.44
25 0.08
26 0.1
27 -0.15
28 0.37
29 0.37
3 -0.57
30 -0.15
31 -0.15
32 -0.14
33 0.28
34 0.28
35 -0.15
36 -0.15
37 -0.15
38 -0.15
39 0.19
4 -0.36
5 -0.56
50 0.15
51 0.15
54 0.37
57 0.36
6 -0.66
62 0.15
67 0.15
68 0.15
7 -0.73
73 0.15
74 0.15
75 0.15
76 0.15
8 -0.9
9 -0.84

> <PUBCHEM_EFFECTIVE_ROTOR_COUNT>
9

> <PUBCHEM_PHARMACOPHORE_FEATURES>
12
1 2 acceptor
1 3 acceptor
1 4 acceptor
1 5 acceptor
1 7 donor
1 8 cation
1 8 donor
1 9 cation
6 23 25 26 27 30 31 rings
6 32 35 36 37 38 39 rings
6 5 9 28 29 33 34 rings
6 6 10 11 12 13 14 rings

> <PUBCHEM_HEAVY_ATOM_COUNT>
39

> <PUBCHEM_ATOM_DEF_STEREO_COUNT>
2

> <PUBCHEM_ATOM_UDEF_STEREO_COUNT>
0

> <PUBCHEM_BOND_DEF_STEREO_COUNT>
1

> <PUBCHEM_BOND_UDEF_STEREO_COUNT>
0

> <PUBCHEM_ISOTOPIC_ATOM_COUNT>
0

> <PUBCHEM_COMPONENT_COUNT>
1

> <PUBCHEM_CACTVS_TAUTO_COUNT>
4

> <PUBCHEM_CONFORMER_ID>
0445F7FE00000001

> <PUBCHEM_MMFF94_ENERGY>
116.7686

> <PUBCHEM_FEATURE_SELFOVERLAP>
60.897

> <PUBCHEM_SHAPE_FINGERPRINT>
10258939 38 17968653788187310681
10816530 90 18412268320376023028
10906281 52 18413111645620746003
11765517 15 18114189669713516236
12708847 88 18187641384360282585
12788726 201 17979628263316345986
13150687 139 18270978889989254620
13627175 23 18411693292774066319
14790565 3 18411134753878632194
14840074 17 18187078473304264388
15160629 57 18187650232114907789
15219462 58 15287289135489445836
15392192 104 18411425016901873305
15840311 113 18334576824277774174
15968369 153 17695335263693708994
16992610 120 18342461448653110774
19302320 297 18260543408282595898
27425 322 18186800283899031122
3552219 110 17973713964190103567
3610482 184 18120946259345582236
4112364 45 18187368731177859253
4258327 124 18411985780210473443

> <PUBCHEM_SHAPE_MULTIPOLES>
751.93
22.56
5.51
1.79
32.61
3.5
-0.23
-26.96
1.58
-6.3
-2.09
-1.59
0.36
-5.04

> <PUBCHEM_SHAPE_SELFOVERLAP>
1593.582

> <PUBCHEM_SHAPE_VOLUME>
416.2

> <PUBCHEM_COORDINATE_TYPE>
2
5
10

$$$$
