26743320
  -OEChem-12032416403D

 72 76  0     1  0  0  0  0  0999 V2000
    4.2815    2.5865   -0.9621 O   0  0  0  0  0  0  0  0  0  0  0  0
   -3.4440    1.2331   -1.5898 O   0  0  0  0  0  0  0  0  0  0  0  0
    0.5880    2.0243    2.8119 N   0  0  0  0  0  0  0  0  0  0  0  0
    5.2053    0.4601   -0.7637 N   0  0  0  0  0  0  0  0  0  0  0  0
   -2.0841    1.4915   -1.7125 N   0  0  0  0  0  0  0  0  0  0  0  0
    1.9310    2.0914    0.1854 C   0  0  1  0  0  0  0  0  0  0  0  0
    0.4595    1.6464    0.3611 C   0  0  2  0  0  0  0  0  0  0  0  0
    2.3194    3.0131    1.3537 C   0  0  0  0  0  0  0  0  0  0  0  0
    0.2023    1.0762    1.7661 C   0  0  0  0  0  0  0  0  0  0  0  0
    2.9228    0.9294    0.0544 C   0  0  0  0  0  0  0  0  0  0  0  0
    1.9976    2.3971    2.7145 C   0  0  0  0  0  0  0  0  0  0  0  0
    0.0001    0.6584   -0.7120 C   0  0  0  0  0  0  0  0  0  0  0  0
    4.1922    1.4091   -0.6058 C   0  0  0  0  0  0  0  0  0  0  0  0
   -1.4946    0.6575   -0.8510 C   0  0  0  0  0  0  0  0  0  0  0  0
    6.3986    0.8008   -1.5373 C   0  0  0  0  0  0  0  0  0  0  0  0
    5.0920   -0.9420   -0.3364 C   0  0  0  0  0  0  0  0  0  0  0  0
    7.6605    0.4589   -0.7550 C   0  0  0  0  0  0  0  0  0  0  0  0
    6.4112   -1.6257   -0.0701 C   0  0  0  0  0  0  0  0  0  0  0  0
   -2.4230   -0.1433   -0.1635 C   0  0  0  0  0  0  0  0  0  0  0  0
    7.6364   -0.9697   -0.2813 C   0  0  0  0  0  0  0  0  0  0  0  0
   -3.6331    0.2578   -0.6646 C   0  0  0  0  0  0  0  0  0  0  0  0
    6.4119   -2.9501    0.3912 C   0  0  0  0  0  0  0  0  0  0  0  0
    8.8376   -1.6348   -0.0008 C   0  0  0  0  0  0  0  0  0  0  0  0
   -4.9966   -0.1184   -0.4284 C   0  0  0  0  0  0  0  0  0  0  0  0
   -9.0671   -1.2406    0.2785 C   0  0  0  0  0  0  0  0  0  0  0  0
    7.6130   -3.6087    0.6540 C   0  0  0  0  0  0  0  0  0  0  0  0
    8.8248   -2.9504    0.4610 C   0  0  0  0  0  0  0  0  0  0  0  0
   -7.6492   -0.8493    0.0323 C   0  0  0  0  0  0  0  0  0  0  0  0
   -5.2944   -1.1120    0.5043 C   0  0  0  0  0  0  0  0  0  0  0  0
   -6.0253    0.5098   -1.1306 C   0  0  0  0  0  0  0  0  0  0  0  0
   -6.6206   -1.4775    0.7347 C   0  0  0  0  0  0  0  0  0  0  0  0
   -7.3515    0.1443   -0.9003 C   0  0  0  0  0  0  0  0  0  0  0  0
   -9.4687   -1.0041    1.7674 C   0  0  0  0  0  0  0  0  0  0  0  0
   -9.3005   -2.7506   -0.0375 C   0  0  0  0  0  0  0  0  0  0  0  0
  -10.1332   -0.4687   -0.5679 C   0  0  0  0  0  0  0  0  0  0  0  0
    1.9540    2.6900   -0.7359 H   0  0  0  0  0  0  0  0  0  0  0  0
   -0.1486    2.5602    0.2680 H   0  0  0  0  0  0  0  0  0  0  0  0
    1.7663    3.9571    1.2543 H   0  0  0  0  0  0  0  0  0  0  0  0
    3.3812    3.2800    1.3214 H   0  0  0  0  0  0  0  0  0  0  0  0
   -0.8618    0.8641    1.9041 H   0  0  0  0  0  0  0  0  0  0  0  0
    0.7363    0.1282    1.9068 H   0  0  0  0  0  0  0  0  0  0  0  0
    2.5243    0.1345   -0.5826 H   0  0  0  0  0  0  0  0  0  0  0  0
    3.1485    0.5025    1.0338 H   0  0  0  0  0  0  0  0  0  0  0  0
    2.6358    1.5310    2.9212 H   0  0  0  0  0  0  0  0  0  0  0  0
    2.2153    3.1354    3.4945 H   0  0  0  0  0  0  0  0  0  0  0  0
    0.3366   -0.3608   -0.4854 H   0  0  0  0  0  0  0  0  0  0  0  0
    0.4358    0.9268   -1.6834 H   0  0  0  0  0  0  0  0  0  0  0  0
    0.4114    1.6087    3.7260 H   0  0  0  0  0  0  0  0  0  0  0  0
    6.4035    1.8626   -1.8034 H   0  0  0  0  0  0  0  0  0  0  0  0
    6.3507    0.2302   -2.4733 H   0  0  0  0  0  0  0  0  0  0  0  0
    4.5703   -1.4708   -1.1431 H   0  0  0  0  0  0  0  0  0  0  0  0
    4.4827   -1.0094    0.5679 H   0  0  0  0  0  0  0  0  0  0  0  0
    7.7457    1.1111    0.1228 H   0  0  0  0  0  0  0  0  0  0  0  0
    8.5339    0.6337   -1.3938 H   0  0  0  0  0  0  0  0  0  0  0  0
   -2.2302   -0.9003    0.5827 H   0  0  0  0  0  0  0  0  0  0  0  0
    5.4729   -3.4742    0.5516 H   0  0  0  0  0  0  0  0  0  0  0  0
    9.7903   -1.1308   -0.1428 H   0  0  0  0  0  0  0  0  0  0  0  0
    7.6025   -4.6336    1.0131 H   0  0  0  0  0  0  0  0  0  0  0  0
    9.7600   -3.4610    0.6713 H   0  0  0  0  0  0  0  0  0  0  0  0
   -4.5147   -1.6190    1.0668 H   0  0  0  0  0  0  0  0  0  0  0  0
   -5.8330    1.2881   -1.8648 H   0  0  0  0  0  0  0  0  0  0  0  0
   -6.8242   -2.2541    1.4664 H   0  0  0  0  0  0  0  0  0  0  0  0
   -8.1114    0.6643   -1.4731 H   0  0  0  0  0  0  0  0  0  0  0  0
  -10.5190   -1.2643    1.9433 H   0  0  0  0  0  0  0  0  0  0  0  0
   -8.8668   -1.6086    2.4547 H   0  0  0  0  0  0  0  0  0  0  0  0
   -9.3314    0.0476    2.0452 H   0  0  0  0  0  0  0  0  0  0  0  0
  -10.3487   -3.0327    0.1156 H   0  0  0  0  0  0  0  0  0  0  0  0
   -9.0399   -2.9751   -1.0786 H   0  0  0  0  0  0  0  0  0  0  0  0
   -8.6944   -3.4011    0.6026 H   0  0  0  0  0  0  0  0  0  0  0  0
  -11.1481   -0.8111   -0.3316 H   0  0  0  0  0  0  0  0  0  0  0  0
  -10.1037    0.6083   -0.3657 H   0  0  0  0  0  0  0  0  0  0  0  0
   -9.9842   -0.6267   -1.6425 H   0  0  0  0  0  0  0  0  0  0  0  0
  1 13  2  0  0  0  0
  2  5  1  0  0  0  0
  2 21  1  0  0  0  0
  3  9  1  0  0  0  0
  3 11  1  0  0  0  0
  3 48  1  0  0  0  0
  4 13  1  0  0  0  0
  4 15  1  0  0  0  0
  4 16  1  0  0  0  0
  5 14  2  0  0  0  0
  6  7  1  0  0  0  0
  6  8  1  0  0  0  0
  6 10  1  0  0  0  0
  6 36  1  0  0  0  0
  7  9  1  0  0  0  0
  7 12  1  0  0  0  0
  7 37  1  0  0  0  0
  8 11  1  0  0  0  0
  8 38  1  0  0  0  0
  8 39  1  0  0  0  0
  9 40  1  0  0  0  0
  9 41  1  0  0  0  0
 10 13  1  0  0  0  0
 10 42  1  0  0  0  0
 10 43  1  0  0  0  0
 11 44  1  0  0  0  0
 11 45  1  0  0  0  0
 12 14  1  0  0  0  0
 12 46  1  0  0  0  0
 12 47  1  0  0  0  0
 14 19  1  0  0  0  0
 15 17  1  0  0  0  0
 15 49  1  0  0  0  0
 15 50  1  0  0  0  0
 16 18  1  0  0  0  0
 16 51  1  0  0  0  0
 16 52  1  0  0  0  0
 17 20  1  0  0  0  0
 17 53  1  0  0  0  0
 17 54  1  0  0  0  0
 18 20  1  0  0  0  0
 18 22  2  0  0  0  0
 19 21  2  0  0  0  0
 19 55  1  0  0  0  0
 20 23  2  0  0  0  0
 21 24  1  0  0  0  0
 22 26  1  0  0  0  0
 22 56  1  0  0  0  0
 23 27  1  0  0  0  0
 23 57  1  0  0  0  0
 24 29  2  0  0  0  0
 24 30  1  0  0  0  0
 25 28  1  0  0  0  0
 25 33  1  0  0  0  0
 25 34  1  0  0  0  0
 25 35  1  0  0  0  0
 26 27  2  0  0  0  0
 26 58  1  0  0  0  0
 27 59  1  0  0  0  0
 28 31  2  0  0  0  0
 28 32  1  0  0  0  0
 29 31  1  0  0  0  0
 29 60  1  0  0  0  0
 30 32  2  0  0  0  0
 30 61  1  0  0  0  0
 31 62  1  0  0  0  0
 32 63  1  0  0  0  0
 33 64  1  0  0  0  0
 33 65  1  0  0  0  0
 33 66  1  0  0  0  0
 34 67  1  0  0  0  0
 34 68  1  0  0  0  0
 34 69  1  0  0  0  0
 35 70  1  0  0  0  0
 35 71  1  0  0  0  0
 35 72  1  0  0  0  0
M  END
> <PUBCHEM_COMPOUND_CID>
26743320

> <PUBCHEM_CONFORMER_RMSD>
1.4

> <PUBCHEM_CONFORMER_DIVERSEORDER>
1
57
44
78
55
50
71
54
77
52
75
13
72
49
83
19
29
46
10
91
89
74
80
69
39
20
85
22
60
94
9
86
35
93
48
92
31
64
45
95
32
30
62
90
21
51
18
3
61
17
5
23
59
79
88
70
27
65
87
84
2
4
82
12
28
11
81
7
34
6
58
15
66
67
73
53
8
33
76
37
68
56
41
36
63
24
42
26
25
38
40
16
14
43
47

> <PUBCHEM_MMFF94_PARTIAL_CHARGES>
39
1 -0.57
10 0.06
11 0.27
12 0.18
13 0.57
14 0.11
15 0.3
16 0.44
17 0.14
18 -0.14
19 -0.15
2 -0.02
20 -0.14
21 0.09
22 -0.15
23 -0.15
24 0.05
25 0.14
26 -0.15
27 -0.15
28 -0.14
29 -0.15
3 -0.9
30 -0.15
31 -0.15
32 -0.15
4 -0.66
48 0.36
5 -0.41
55 0.15
56 0.15
57 0.15
58 0.15
59 0.15
60 0.15
61 0.15
62 0.15
63 0.15
9 0.27

> <PUBCHEM_EFFECTIVE_ROTOR_COUNT>
9

> <PUBCHEM_PHARMACOPHORE_FEATURES>
10
1 1 acceptor
1 3 cation
1 3 donor
1 5 acceptor
4 25 33 34 35 hydrophobe
5 2 5 14 19 21 rings
6 18 20 22 23 26 27 rings
6 24 28 29 30 31 32 rings
6 3 6 7 8 9 11 rings
6 4 15 16 17 18 20 rings

> <PUBCHEM_HEAVY_ATOM_COUNT>
35

> <PUBCHEM_ATOM_DEF_STEREO_COUNT>
2

> <PUBCHEM_ATOM_UDEF_STEREO_COUNT>
0

> <PUBCHEM_BOND_DEF_STEREO_COUNT>
0

> <PUBCHEM_BOND_UDEF_STEREO_COUNT>
0

> <PUBCHEM_ISOTOPIC_ATOM_COUNT>
0

> <PUBCHEM_COMPONENT_COUNT>
1

> <PUBCHEM_CACTVS_TAUTO_COUNT>
1

> <PUBCHEM_CONFORMER_ID>
0198121800000001

> <PUBCHEM_MMFF94_ENERGY>
86.1433

> <PUBCHEM_FEATURE_SELFOVERLAP>
50.77

> <PUBCHEM_SHAPE_FINGERPRINT>
10 15 11312055448079408452
10258705 36 18114471131953667571
11297750 10 18130494267850595600
11409948 35 18409446960670539527
11411753 29 18334849524653149957
11456790 92 17274827978222102259
11607047 74 17605849237798117484
12013929 2 18334573530871444333
12133447 93 16081076074994887765
12539745 222 18271810073472681849
12539765 74 9367351443930397532
12838863 1 17968652693951968810
13008946 282 16629952352173898072
13150687 139 13695870282139438600
13383665 225 13335001761241841919
13553643 46 10591778562817726499
13617811 41 13406792216850892150
13673619 4 18412824685554417749
13782708 43 18411975901321514639
14118638 360 14201664348388986605
14395042 70 16701161153784860920
150020 25 17240485814480774203
15183329 4 16805604725453718528
15198563 99 16153702086010165613
15320294 125 17847058887465214188
15419008 145 17274832324966746881
15510794 2 18186518817184408173
16991971 28 16950284044593604269
17134984 74 17894627021054447634
19301679 30 17631744751134491542
20105231 36 17894636985431282987
20156587 128 15213286483595902703
2026 5 18261388889242783130
21344244 181 17822013129096742370
21792938 324 15267057026047518681
21792938 703 17168437064466311587
22899556 105 17604705548421155146
23569917 315 18043537321479942899
23569943 247 18343293752627072543
23576562 1 12830077523857233423
24771293 8 12967120618962642065
3178227 256 17989209265035920894
4149490 64 18334008416011646346
4258327 124 11314033478393901073
437795 160 14189287193492908269
439807 62 18334860519821421318
4403749 210 9583220761035505597
44880168 125 18338786914635870687
4516262 110 8142076577674913934
45270241 37 18115035224779378764
45377200 153 17677057975053246299
5219985 9 17846494825289777320
5372103 7 9151173160062961351
54039377 194 18411418384839644646
5470011 282 17967254217485570748
58083652 198 17131251520130966488
58260988 647 18334579019032708984
6058803 2 16053191523179589213
6201320 215 18058736802665515169
9937071 3 18260267455737256250
9962374 69 17632286921957221533

> <PUBCHEM_SHAPE_MULTIPOLES>
693.6
36.01
3.3
1.68
33.14
1.09
0.97
34.96
-1.1
-6.88
1.4
0.28
-1.31
0.24

> <PUBCHEM_SHAPE_SELFOVERLAP>
1491.051

> <PUBCHEM_SHAPE_VOLUME>
381.1

> <PUBCHEM_COORDINATE_TYPE>
2
5
10

$$$$
