75536962
  -OEChem-12032416343D

 41 44  0     1  0  0  0  0  0999 V2000
    3.0740    1.3140    0.1484 S   0  0  0  0  0  0  0  0  0  0  0  0
   -0.9500    3.4326    0.9228 O   0  0  0  0  0  0  0  0  0  0  0  0
   -1.6158   -0.1021    0.2486 O   0  0  0  0  0  0  0  0  0  0  0  0
    0.6712    1.8518   -0.9190 N   0  0  0  0  0  0  0  0  0  0  0  0
    1.4196   -0.4178   -0.8089 N   0  0  0  0  0  0  0  0  0  0  0  0
   -1.6098    1.2843   -0.0868 C   0  0  2  0  0  0  0  0  0  0  0  0
   -0.7113    1.5346   -1.3049 C   0  0  0  0  0  0  0  0  0  0  0  0
    0.9180    3.2753   -0.6528 C   0  0  0  0  0  0  0  0  0  0  0  0
   -1.2620    2.0670    1.1806 C   0  0  0  0  0  0  0  0  0  0  0  0
    0.4496    3.6647    0.7455 C   0  0  0  0  0  0  0  0  0  0  0  0
    1.5980    0.8640   -0.5896 C   0  0  0  0  0  0  0  0  0  0  0  0
    3.5454   -0.3440    0.1934 C   0  0  0  0  0  0  0  0  0  0  0  0
    2.5282   -1.1238   -0.3651 C   0  0  0  0  0  0  0  0  0  0  0  0
   -2.8175   -0.7504    0.1552 C   0  0  0  0  0  0  0  0  0  0  0  0
    4.7300   -0.9135    0.6876 C   0  0  0  0  0  0  0  0  0  0  0  0
    2.7055   -2.5229   -0.4304 C   0  0  0  0  0  0  0  0  0  0  0  0
   -3.4848   -0.8096   -1.0682 C   0  0  0  0  0  0  0  0  0  0  0  0
   -3.3747   -1.3521    1.2835 C   0  0  0  0  0  0  0  0  0  0  0  0
    4.8800   -2.3004    0.6109 C   0  0  0  0  0  0  0  0  0  0  0  0
    3.8822   -3.0966    0.0596 C   0  0  0  0  0  0  0  0  0  0  0  0
   -4.7095   -1.4704   -1.1634 C   0  0  0  0  0  0  0  0  0  0  0  0
   -4.5994   -2.0128    1.1883 C   0  0  0  0  0  0  0  0  0  0  0  0
   -5.2668   -2.0720   -0.0351 C   0  0  0  0  0  0  0  0  0  0  0  0
   -2.6168    1.6100   -0.3867 H   0  0  0  0  0  0  0  0  0  0  0  0
   -0.7184    0.6681   -1.9775 H   0  0  0  0  0  0  0  0  0  0  0  0
   -1.1241    2.3678   -1.8875 H   0  0  0  0  0  0  0  0  0  0  0  0
    0.3571    3.8712   -1.3847 H   0  0  0  0  0  0  0  0  0  0  0  0
    1.9636    3.5614   -0.8094 H   0  0  0  0  0  0  0  0  0  0  0  0
   -2.1365    2.0551    1.8427 H   0  0  0  0  0  0  0  0  0  0  0  0
   -0.4664    1.5747    1.7549 H   0  0  0  0  0  0  0  0  0  0  0  0
    1.0209    3.1663    1.5363 H   0  0  0  0  0  0  0  0  0  0  0  0
    0.6070    4.7410    0.8755 H   0  0  0  0  0  0  0  0  0  0  0  0
    5.5133   -0.2981    1.1194 H   0  0  0  0  0  0  0  0  0  0  0  0
    1.9322   -3.1542   -0.8589 H   0  0  0  0  0  0  0  0  0  0  0  0
   -3.0600   -0.3549   -1.9587 H   0  0  0  0  0  0  0  0  0  0  0  0
   -2.8594   -1.3086    2.2390 H   0  0  0  0  0  0  0  0  0  0  0  0
    5.7893   -2.7614    0.9877 H   0  0  0  0  0  0  0  0  0  0  0  0
    4.0166   -4.1736    0.0085 H   0  0  0  0  0  0  0  0  0  0  0  0
   -5.2282   -1.5184   -2.1165 H   0  0  0  0  0  0  0  0  0  0  0  0
   -5.0334   -2.4813    2.0668 H   0  0  0  0  0  0  0  0  0  0  0  0
   -6.2201   -2.5870   -0.1093 H   0  0  0  0  0  0  0  0  0  0  0  0
  1 11  1  0  0  0  0
  1 12  1  0  0  0  0
  2  9  1  0  0  0  0
  2 10  1  0  0  0  0
  3  6  1  0  0  0  0
  3 14  1  0  0  0  0
  4  7  1  0  0  0  0
  4  8  1  0  0  0  0
  4 11  1  0  0  0  0
  5 11  2  0  0  0  0
  5 13  1  0  0  0  0
  6  7  1  0  0  0  0
  6  9  1  0  0  0  0
  6 24  1  0  0  0  0
  7 25  1  0  0  0  0
  7 26  1  0  0  0  0
  8 10  1  0  0  0  0
  8 27  1  0  0  0  0
  8 28  1  0  0  0  0
  9 29  1  0  0  0  0
  9 30  1  0  0  0  0
 10 31  1  0  0  0  0
 10 32  1  0  0  0  0
 12 13  1  0  0  0  0
 12 15  2  0  0  0  0
 13 16  2  0  0  0  0
 14 17  2  0  0  0  0
 14 18  1  0  0  0  0
 15 19  1  0  0  0  0
 15 33  1  0  0  0  0
 16 20  1  0  0  0  0
 16 34  1  0  0  0  0
 17 21  1  0  0  0  0
 17 35  1  0  0  0  0
 18 22  2  0  0  0  0
 18 36  1  0  0  0  0
 19 20  2  0  0  0  0
 19 37  1  0  0  0  0
 20 38  1  0  0  0  0
 21 23  2  0  0  0  0
 21 39  1  0  0  0  0
 22 23  1  0  0  0  0
 22 40  1  0  0  0  0
 23 41  1  0  0  0  0
M  END
> <PUBCHEM_COMPOUND_CID>
75536962

> <PUBCHEM_CONFORMER_RMSD>
0.8

> <PUBCHEM_CONFORMER_DIVERSEORDER>
2
18
36
43
12
30
59
47
74
87
16
82
93
4
86
44
60
96
80
9
52
94
5
71
8
84
3
41
51
67
10
64
21
39
38
40
32
20
63
6
85
78
68
98
11
88
61
73
49
50
35
31
27
79
29
72
56
1
34
57
48
89
83
95
7
90
70
53
92
15
23
58
19
65
81
91
14
17
13
55
76
42
97
69
77
26
45
24
62
25
28
33
54
37
66
46
75
22

> <PUBCHEM_MMFF94_PARTIAL_CHARGES>
32
1 -0.08
10 0.28
11 0.46
12 0.04
13 0.23
14 0.08
15 -0.15
16 -0.15
17 -0.15
18 -0.15
19 -0.15
2 -0.56
20 -0.15
21 -0.15
22 -0.15
23 -0.15
3 -0.36
33 0.15
34 0.15
35 0.15
36 0.15
37 0.15
38 0.15
39 0.15
4 -0.82
40 0.15
41 0.15
5 -0.57
6 0.28
7 0.37
8 0.37
9 0.28

> <PUBCHEM_EFFECTIVE_ROTOR_COUNT>
4.4

> <PUBCHEM_PHARMACOPHORE_FEATURES>
7
1 2 acceptor
1 3 acceptor
3 4 5 11 cation
5 1 5 11 12 13 rings
6 12 13 15 16 19 20 rings
6 14 17 18 21 22 23 rings
7 2 4 6 7 8 9 10 rings

> <PUBCHEM_HEAVY_ATOM_COUNT>
23

> <PUBCHEM_ATOM_DEF_STEREO_COUNT>
1

> <PUBCHEM_ATOM_UDEF_STEREO_COUNT>
0

> <PUBCHEM_BOND_DEF_STEREO_COUNT>
0

> <PUBCHEM_BOND_UDEF_STEREO_COUNT>
0

> <PUBCHEM_ISOTOPIC_ATOM_COUNT>
0

> <PUBCHEM_COMPONENT_COUNT>
1

> <PUBCHEM_CACTVS_TAUTO_COUNT>
1

> <PUBCHEM_CONFORMER_ID>
04809A4200000002

> <PUBCHEM_MMFF94_ENERGY>
77.0021

> <PUBCHEM_FEATURE_SELFOVERLAP>
35.594

> <PUBCHEM_SHAPE_FINGERPRINT>
10937287 8 9007050249440702315
11265709 11 18412267228905735701
11552529 35 18055069857469448306
11796584 16 17531234106625021923
12107183 9 18341627984310583921
12363563 72 18333740095454737350
12506688 2 18337113461616157821
12553582 1 18342190984854481863
12633257 1 17914905231652016672
13004483 165 18342165636068023527
13134695 92 18269269222254143013
13140716 1 18268153067369521456
13533116 47 18194690495852337355
13544653 18 18411136952464083293
13631057 29 18335983052816938058
13955234 65 17980202208064038673
14178342 30 18124318203503944970
14251757 17 17822001047612337251
14341114 328 16200151044603922114
1454969 45 18336826494283604484
14790565 3 17615689970040820356
14848160 33 18337394941146649527
14863182 85 18192716867800487540
14866123 147 17905890280017995491
15342168 16 9078847272804256987
15352361 1 18335419053984252046
15927050 60 17404584863042201028
17492 89 18340205172793121178
1813 80 18272664453941320535
18681886 176 15192497124271611657
19141452 34 18122066403252624265
20645477 70 18044370763159300647
20681677 274 18340480050778719008
20775530 9 18336548231114535626
20832881 197 18407479968801676043
21250096 35 18411698807401564007
21421861 104 18197521668988814897
21756936 100 12750935751301530502
23559900 14 17895749742247160487
314194 84 18338796839756950911
3421961 26 18337672035098144281
345986 75 17988372550046962585
392239 28 17701235140230387480
4058900 60 17691138444885362209
4616759 239 17337286599812149602
46194498 28 17387409254201501807
463206 1 18338233881314367259
5104073 3 18197487425763190570
5309563 4 18411138034733265879
56633871 153 18124327012455567275
59682541 52 18124854989223624719
613672 6 18409441479617348499
6433294 58 17904489854350089091
7471813 234 18200868578157096501

> <PUBCHEM_SHAPE_MULTIPOLES>
455.48
10.27
4.37
1.19
4.05
2.78
-0.03
-12.41
-1.18
-1.75
-0.68
0.86
0.14
-0.2

> <PUBCHEM_SHAPE_SELFOVERLAP>
976.269

> <PUBCHEM_SHAPE_VOLUME>
251.2

> <PUBCHEM_COORDINATE_TYPE>
2
5
10

$$$$
