26744513
  -OEChem-12032416213D

 50 53  0     1  0  0  0  0  0999 V2000
    6.8296    0.5061    1.3448 F   0  0  0  0  0  0  0  0  0  0  0  0
    5.3200   -0.4095    0.0570 F   0  0  0  0  0  0  0  0  0  0  0  0
    6.5261    1.2934   -0.6710 F   0  0  0  0  0  0  0  0  0  0  0  0
   -6.5298    2.5325    1.1699 O   0  0  0  0  0  0  0  0  0  0  0  0
   -2.0546    1.3056   -2.1402 O   0  0  0  0  0  0  0  0  0  0  0  0
    2.0395   -3.2530    0.9630 O   0  0  0  0  0  0  0  0  0  0  0  0
    4.9394    1.6687    0.9330 O   0  0  0  0  0  0  0  0  0  0  0  0
    1.7766   -3.9926   -1.1703 O   0  0  0  0  0  0  0  0  0  0  0  0
   -4.0789   -0.0117    0.6304 N   0  0  1  0  0  0  0  0  0  0  0  0
   -1.3675    1.0553   -0.0232 N   0  0  0  0  0  0  0  0  0  0  0  0
   -0.6644    1.4750   -2.1594 N   0  0  0  0  0  0  0  0  0  0  0  0
   -3.8558    0.8406   -0.5551 C   0  0  1  0  0  0  0  0  0  0  0  0
   -4.6064    2.1494   -0.2459 C   0  0  0  0  0  0  0  0  0  0  0  0
   -5.2563    1.9198    1.1129 C   0  0  2  0  0  0  0  0  0  0  0  0
   -5.3535    0.4091    1.2089 C   0  0  0  0  0  0  0  0  0  0  0  0
   -4.0588   -1.4364    0.3255 C   0  0  0  0  0  0  0  0  0  0  0  0
   -2.3863    1.0628   -0.8451 C   0  0  0  0  0  0  0  0  0  0  0  0
   -2.6539   -1.9624    0.1966 C   0  0  0  0  0  0  0  0  0  0  0  0
   -2.2414   -2.5642   -0.9923 C   0  0  0  0  0  0  0  0  0  0  0  0
   -1.7652   -1.8482    1.2656 C   0  0  0  0  0  0  0  0  0  0  0  0
   -0.3331    1.3127   -0.8750 C   0  0  0  0  0  0  0  0  0  0  0  0
   -0.9400   -3.0516   -1.1121 C   0  0  0  0  0  0  0  0  0  0  0  0
   -0.4638   -2.3356    1.1456 C   0  0  0  0  0  0  0  0  0  0  0  0
    1.0210    1.4030   -0.4102 C   0  0  0  0  0  0  0  0  0  0  0  0
   -0.0511   -2.9372   -0.0432 C   0  0  0  0  0  0  0  0  0  0  0  0
    1.3076    1.2261    0.9435 C   0  0  0  0  0  0  0  0  0  0  0  0
    2.0511    1.6690   -1.3121 C   0  0  0  0  0  0  0  0  0  0  0  0
    1.3062   -3.4444   -0.1680 C   0  0  0  0  0  0  0  0  0  0  0  0
    2.6241    1.3155    1.3952 C   0  0  0  0  0  0  0  0  0  0  0  0
    3.3678    1.7585   -0.8606 C   0  0  0  0  0  0  0  0  0  0  0  0
    3.6543    1.5817    0.4930 C   0  0  0  0  0  0  0  0  0  0  0  0
    5.8975    0.7619    0.3989 C   0  0  0  0  0  0  0  0  0  0  0  0
   -4.3216    0.3958   -1.4457 H   0  0  0  0  0  0  0  0  0  0  0  0
   -3.9513    3.0274   -0.2098 H   0  0  0  0  0  0  0  0  0  0  0  0
   -5.3652    2.3423   -1.0146 H   0  0  0  0  0  0  0  0  0  0  0  0
   -4.6273    2.3212    1.9168 H   0  0  0  0  0  0  0  0  0  0  0  0
   -5.4650    0.0835    2.2485 H   0  0  0  0  0  0  0  0  0  0  0  0
   -6.2168    0.0360    0.6420 H   0  0  0  0  0  0  0  0  0  0  0  0
   -4.6603   -1.6707   -0.5626 H   0  0  0  0  0  0  0  0  0  0  0  0
   -4.5190   -2.0004    1.1490 H   0  0  0  0  0  0  0  0  0  0  0  0
   -6.4019    3.4858    1.0266 H   0  0  0  0  0  0  0  0  0  0  0  0
   -2.9225   -2.6580   -1.8338 H   0  0  0  0  0  0  0  0  0  0  0  0
   -2.0736   -1.3857    2.1995 H   0  0  0  0  0  0  0  0  0  0  0  0
   -0.6376   -3.5160   -2.0470 H   0  0  0  0  0  0  0  0  0  0  0  0
    0.1953   -2.2251    2.0021 H   0  0  0  0  0  0  0  0  0  0  0  0
    0.5270    1.0173    1.6708 H   0  0  0  0  0  0  0  0  0  0  0  0
    1.8661    1.8139   -2.3735 H   0  0  0  0  0  0  0  0  0  0  0  0
    2.8417    1.1760    2.4505 H   0  0  0  0  0  0  0  0  0  0  0  0
    4.1600    1.9731   -1.5727 H   0  0  0  0  0  0  0  0  0  0  0  0
    2.9533   -3.5972    0.8680 H   0  0  0  0  0  0  0  0  0  0  0  0
  1 32  1  0  0  0  0
  2 32  1  0  0  0  0
  3 32  1  0  0  0  0
  4 14  1  0  0  0  0
  4 41  1  0  0  0  0
  5 11  1  0  0  0  0
  5 17  1  0  0  0  0
  6 28  1  0  0  0  0
  6 50  1  0  0  0  0
  7 31  1  0  0  0  0
  7 32  1  0  0  0  0
  8 28  2  0  0  0  0
  9 12  1  0  0  0  0
  9 15  1  0  0  0  0
  9 16  1  0  0  0  0
 10 17  2  0  0  0  0
 10 21  1  0  0  0  0
 11 21  2  0  0  0  0
 12 13  1  0  0  0  0
 12 17  1  0  0  0  0
 12 33  1  0  0  0  0
 13 14  1  0  0  0  0
 13 34  1  0  0  0  0
 13 35  1  0  0  0  0
 14 15  1  0  0  0  0
 14 36  1  0  0  0  0
 15 37  1  0  0  0  0
 15 38  1  0  0  0  0
 16 18  1  0  0  0  0
 16 39  1  0  0  0  0
 16 40  1  0  0  0  0
 18 19  2  0  0  0  0
 18 20  1  0  0  0  0
 19 22  1  0  0  0  0
 19 42  1  0  0  0  0
 20 23  2  0  0  0  0
 20 43  1  0  0  0  0
 21 24  1  0  0  0  0
 22 25  2  0  0  0  0
 22 44  1  0  0  0  0
 23 25  1  0  0  0  0
 23 45  1  0  0  0  0
 24 26  2  0  0  0  0
 24 27  1  0  0  0  0
 25 28  1  0  0  0  0
 26 29  1  0  0  0  0
 26 46  1  0  0  0  0
 27 30  2  0  0  0  0
 27 47  1  0  0  0  0
 29 31  2  0  0  0  0
 29 48  1  0  0  0  0
 30 31  1  0  0  0  0
 30 49  1  0  0  0  0
M  END
> <PUBCHEM_COMPOUND_CID>
26744513

> <PUBCHEM_CONFORMER_RMSD>
1

> <PUBCHEM_CONFORMER_DIVERSEORDER>
1
20
5
30
8
27
18
15
21
2
7
25
6
32
22
17
23
9
16
19
26
12
11
3
4
10
28
31
13
14
29
24

> <PUBCHEM_MMFF94_PARTIAL_CHARGES>
41
1 -0.34
10 -0.57
11 -0.41
12 0.45
14 0.28
15 0.27
16 0.41
17 0.3
18 -0.14
19 -0.15
2 -0.34
20 -0.15
21 0.46
22 -0.15
23 -0.15
24 0.05
25 0.09
26 -0.15
27 -0.15
28 0.63
29 -0.15
3 -0.34
30 -0.15
31 0.08
32 1.3
4 -0.68
41 0.4
42 0.15
43 0.15
44 0.15
45 0.15
46 0.15
47 0.15
48 0.15
49 0.15
5 -0.02
50 0.5
6 -0.65
7 -0.36
8 -0.57
9 -0.81

> <PUBCHEM_EFFECTIVE_ROTOR_COUNT>
8

> <PUBCHEM_PHARMACOPHORE_FEATURES>
12
1 4 acceptor
1 4 donor
1 6 acceptor
1 7 acceptor
1 8 acceptor
1 9 cation
3 10 11 21 cation
3 6 8 28 anion
5 5 10 11 17 21 rings
5 9 12 13 14 15 rings
6 18 19 20 22 23 25 rings
6 24 26 27 29 30 31 rings

> <PUBCHEM_HEAVY_ATOM_COUNT>
32

> <PUBCHEM_ATOM_DEF_STEREO_COUNT>
2

> <PUBCHEM_ATOM_UDEF_STEREO_COUNT>
0

> <PUBCHEM_BOND_DEF_STEREO_COUNT>
0

> <PUBCHEM_BOND_UDEF_STEREO_COUNT>
0

> <PUBCHEM_ISOTOPIC_ATOM_COUNT>
0

> <PUBCHEM_COMPONENT_COUNT>
1

> <PUBCHEM_CACTVS_TAUTO_COUNT>
1

> <PUBCHEM_CONFORMER_ID>
019816C100000001

> <PUBCHEM_MMFF94_ENERGY>
80.7445

> <PUBCHEM_FEATURE_SELFOVERLAP>
60.954

> <PUBCHEM_SHAPE_FINGERPRINT>
11014199 57 17254835798850024698
11112241 14 17632282519583886418
11524674 6 18272647969951745126
12156800 1 14711201228727445010
12422481 6 18187642479466173578
12522641 33 17896860099248251669
12788726 201 17762067931644804751
13402501 40 18408887317731075406
14840074 17 17748825258538131068
15064986 96 18336550400568645795
15274700 242 17241865749588433384
15420108 30 18342172267783014887
15927050 60 18343581833020722647
16110190 28 18041562550338226196
20642791 35 18196099849908776767
20691752 17 17603874369265017715
21403212 168 18335419037669422665
22182313 1 17677609749337868861
23516275 137 18191046546687563410
3298306 158 18409729538873206878
338550 245 18261114114662064942
3411729 13 18337959970190991001
4093350 32 17417818270648818414
508706 21 18339929341376953862
5265222 85 18266190615798515892
5385378 56 18340780226042874249
59755656 520 18343578551813102501
7226269 152 17988928880986808441

> <PUBCHEM_SHAPE_MULTIPOLES>
592.43
12.8
4.33
1.54
9.43
4.88
0.3
-10.13
-4.94
-0.71
0.51
-0.22
-0.32
-0.32

> <PUBCHEM_SHAPE_SELFOVERLAP>
1295.604

> <PUBCHEM_SHAPE_VOLUME>
323.3

> <PUBCHEM_COORDINATE_TYPE>
2
5
10

$$$$
