7144121
  -OEChem-12032416233D

 42 45  0     1  0  0  0  0  0999 V2000
   -3.9477    2.2817    0.3207 O   0  0  0  0  0  0  0  0  0  0  0  0
    5.3300   -0.3804   -0.3376 O   0  0  0  0  0  0  0  0  0  0  0  0
   -2.3989    0.5805   -0.1189 N   0  0  0  0  0  0  0  0  0  0  0  0
   -1.9951   -2.1838    1.4245 N   0  0  0  0  0  0  0  0  0  0  0  0
   -3.1440   -1.7894   -0.7626 C   0  0  2  0  0  0  0  0  0  0  0  0
   -0.7601   -1.2738   -0.5528 C   0  0  1  0  0  0  0  0  0  0  0  0
   -1.8155   -1.8411   -1.4995 C   0  0  0  0  0  0  0  0  0  0  0  0
   -3.4948   -0.3232   -0.4977 C   0  0  0  0  0  0  0  0  0  0  0  0
   -1.0480    0.1914   -0.2140 C   0  0  0  0  0  0  0  0  0  0  0  0
   -3.0680   -2.6189    0.5325 C   0  0  0  0  0  0  0  0  0  0  0  0
   -0.7074   -2.1337    0.7300 C   0  0  0  0  0  0  0  0  0  0  0  0
   -0.0643    1.1013    0.0095 C   0  0  0  0  0  0  0  0  0  0  0  0
   -2.7850    1.8856    0.2345 C   0  0  0  0  0  0  0  0  0  0  0  0
   -0.4243    2.4567    0.3802 C   0  0  0  0  0  0  0  0  0  0  0  0
   -1.6925    2.8474    0.5055 C   0  0  0  0  0  0  0  0  0  0  0  0
    1.3422    0.7158   -0.0808 C   0  0  0  0  0  0  0  0  0  0  0  0
    1.9934    0.2117    1.0408 C   0  0  0  0  0  0  0  0  0  0  0  0
    2.0201    0.8545   -1.2879 C   0  0  0  0  0  0  0  0  0  0  0  0
    3.3359   -0.1571    0.9545 C   0  0  0  0  0  0  0  0  0  0  0  0
    3.3624    0.4855   -1.3743 C   0  0  0  0  0  0  0  0  0  0  0  0
    4.0204   -0.0201   -0.2530 C   0  0  0  0  0  0  0  0  0  0  0  0
    5.9411   -0.8906    0.8465 C   0  0  0  0  0  0  0  0  0  0  0  0
   -3.9304   -2.2266   -1.3903 H   0  0  0  0  0  0  0  0  0  0  0  0
    0.2021   -1.3723   -1.0674 H   0  0  0  0  0  0  0  0  0  0  0  0
   -1.8600   -1.2632   -2.4310 H   0  0  0  0  0  0  0  0  0  0  0  0
   -1.5694   -2.8744   -1.7735 H   0  0  0  0  0  0  0  0  0  0  0  0
   -3.9209    0.1024   -1.4170 H   0  0  0  0  0  0  0  0  0  0  0  0
   -4.2861   -0.2499    0.2594 H   0  0  0  0  0  0  0  0  0  0  0  0
   -4.0209   -2.5499    1.0695 H   0  0  0  0  0  0  0  0  0  0  0  0
   -2.9255   -3.6775    0.2806 H   0  0  0  0  0  0  0  0  0  0  0  0
   -0.3935   -3.1536    0.4727 H   0  0  0  0  0  0  0  0  0  0  0  0
    0.0411   -1.7488    1.4276 H   0  0  0  0  0  0  0  0  0  0  0  0
   -1.9316   -2.8182    2.2197 H   0  0  0  0  0  0  0  0  0  0  0  0
    0.3756    3.1660    0.5715 H   0  0  0  0  0  0  0  0  0  0  0  0
   -1.9521    3.8606    0.7881 H   0  0  0  0  0  0  0  0  0  0  0  0
    1.4768    0.1092    1.9919 H   0  0  0  0  0  0  0  0  0  0  0  0
    1.5205    1.2463   -2.1705 H   0  0  0  0  0  0  0  0  0  0  0  0
    3.7859   -0.5404    1.8639 H   0  0  0  0  0  0  0  0  0  0  0  0
    3.8904    0.5939   -2.3178 H   0  0  0  0  0  0  0  0  0  0  0  0
    6.9810   -1.1266    0.5976 H   0  0  0  0  0  0  0  0  0  0  0  0
    5.4704   -1.8246    1.1718 H   0  0  0  0  0  0  0  0  0  0  0  0
    5.9656   -0.1388    1.6426 H   0  0  0  0  0  0  0  0  0  0  0  0
  1 13  2  0  0  0  0
  2 21  1  0  0  0  0
  2 22  1  0  0  0  0
  3  8  1  0  0  0  0
  3  9  1  0  0  0  0
  3 13  1  0  0  0  0
  4 10  1  0  0  0  0
  4 11  1  0  0  0  0
  4 33  1  0  0  0  0
  5  7  1  0  0  0  0
  5  8  1  0  0  0  0
  5 10  1  0  0  0  0
  5 23  1  0  0  0  0
  6  7  1  0  0  0  0
  6  9  1  0  0  0  0
  6 11  1  0  0  0  0
  6 24  1  0  0  0  0
  7 25  1  0  0  0  0
  7 26  1  0  0  0  0
  8 27  1  0  0  0  0
  8 28  1  0  0  0  0
  9 12  2  0  0  0  0
 10 29  1  0  0  0  0
 10 30  1  0  0  0  0
 11 31  1  0  0  0  0
 11 32  1  0  0  0  0
 12 14  1  0  0  0  0
 12 16  1  0  0  0  0
 13 15  1  0  0  0  0
 14 15  2  0  0  0  0
 14 34  1  0  0  0  0
 15 35  1  0  0  0  0
 16 17  2  0  0  0  0
 16 18  1  0  0  0  0
 17 19  1  0  0  0  0
 17 36  1  0  0  0  0
 18 20  2  0  0  0  0
 18 37  1  0  0  0  0
 19 21  2  0  0  0  0
 19 38  1  0  0  0  0
 20 21  1  0  0  0  0
 20 39  1  0  0  0  0
 22 40  1  0  0  0  0
 22 41  1  0  0  0  0
 22 42  1  0  0  0  0
M  END
> <PUBCHEM_COMPOUND_CID>
7144121

> <PUBCHEM_CONFORMER_RMSD>
0.6

> <PUBCHEM_CONFORMER_DIVERSEORDER>
1

> <PUBCHEM_MMFF94_PARTIAL_CHARGES>
27
1 -0.57
10 0.27
11 0.27
12 -0.03
13 0.62
14 -0.15
15 -0.14
16 0.03
17 -0.15
18 -0.15
19 -0.15
2 -0.36
20 -0.15
21 0.08
22 0.28
3 -0.47
33 0.36
34 0.15
35 0.15
36 0.15
37 0.15
38 0.15
39 0.15
4 -0.9
6 0.14
8 0.3
9 -0.03

> <PUBCHEM_EFFECTIVE_ROTOR_COUNT>
3

> <PUBCHEM_PHARMACOPHORE_FEATURES>
8
1 1 acceptor
1 2 acceptor
1 4 cation
1 4 donor
6 16 17 18 19 20 21 rings
6 3 5 6 7 8 9 rings
6 3 9 12 13 14 15 rings
6 4 5 6 7 10 11 rings

> <PUBCHEM_HEAVY_ATOM_COUNT>
22

> <PUBCHEM_ATOM_DEF_STEREO_COUNT>
2

> <PUBCHEM_ATOM_UDEF_STEREO_COUNT>
0

> <PUBCHEM_BOND_DEF_STEREO_COUNT>
0

> <PUBCHEM_BOND_UDEF_STEREO_COUNT>
0

> <PUBCHEM_ISOTOPIC_ATOM_COUNT>
0

> <PUBCHEM_COMPONENT_COUNT>
1

> <PUBCHEM_CACTVS_TAUTO_COUNT>
1

> <PUBCHEM_CONFORMER_ID>
006D02B900000001

> <PUBCHEM_MMFF94_ENERGY>
69.4992

> <PUBCHEM_FEATURE_SELFOVERLAP>
42.142

> <PUBCHEM_SHAPE_FINGERPRINT>
10319926 262 18129079179705756258
104564 63 18411138047612418875
10616163 171 18411982447100028534
1100329 8 18412267229117557569
11315181 36 18259982700301998496
11578080 2 17345746542158421457
12236239 1 18040719138909469684
12363563 72 18198343051086886567
12553582 1 18053670453502299654
12633257 1 16701746076316304394
12714826 92 18058746791603286780
12788726 201 18265632024482174865
13052359 8 18409168775464457333
13140716 1 18342180011434839961
13538477 17 18333453140294805908
13583140 156 13901917712600904979
14844126 61 18342448253590814306
14866123 147 18410015446910749739
15042514 8 18411144623507996897
16752209 62 18410567414068032427
16945 1 18343017839637518351
18927931 339 18344149202600505894
19862831 5 17822004358889541742
20554085 129 17698982012829079409
20645476 183 18041282075930438337
20681677 155 18337110073198399256
20775438 99 16756876899203963335
22182313 1 17916326977443297511
23184049 29 18268707397244555829
23402539 116 18341887463926756812
23419403 2 13971389324310026221
23557571 272 18202284706088962384
23559900 14 18130792197157083756
23598288 3 18339370763282943199
23728640 28 18411982451062563083
2748010 2 18053089916338159533
312423 11 18261684778245114876
5104073 3 18341891914013925416
5364581 5 18056738018931833640
559249 180 18336823083620830334
59755656 215 18341610370054000151
77492 1 18040154015639215204
7970288 3 18194963165381927446
81228 2 18413112774859684113
9709674 26 18271814475834804726

> <PUBCHEM_SHAPE_MULTIPOLES>
431.05
8.74
2.92
1.21
12.47
0.56
-0.14
-2.25
0.46
-3.92
0.62
0.35
-0.38
-0.63

> <PUBCHEM_SHAPE_SELFOVERLAP>
946.848

> <PUBCHEM_SHAPE_VOLUME>
226.1

> <PUBCHEM_COORDINATE_TYPE>
2
5
10

$$$$
