56775669
  -OEChem-12032416323D

 53 55  0     0  0  0  0  0  0999 V2000
    1.0262   -1.2955    2.3556 O   0  0  0  0  0  0  0  0  0  0  0  0
    3.9885   -1.0762   -1.2971 O   0  0  0  0  0  0  0  0  0  0  0  0
   -5.6539    2.6043    0.5052 O   0  0  0  0  0  0  0  0  0  0  0  0
   -1.3675   -1.8035    0.5641 N   0  0  0  0  0  0  0  0  0  0  0  0
   -4.5881    0.7539   -0.4099 N   0  0  0  0  0  0  0  0  0  0  0  0
    2.7221   -1.6483   -1.3013 N   0  0  0  0  0  0  0  0  0  0  0  0
    0.0077   -1.3033    0.4798 C   0  0  0  0  0  0  0  0  0  0  0  0
   -2.2449   -0.9356   -0.2175 C   0  0  0  0  0  0  0  0  0  0  0  0
    0.9195   -2.2391    1.2655 C   0  0  0  0  0  0  0  0  0  0  0  0
    0.2452   -0.3238    1.6235 C   0  0  0  0  0  0  0  0  0  0  0  0
    0.4002   -0.9066   -0.9104 C   0  0  0  0  0  0  0  0  0  0  0  0
   -3.6595   -1.5272   -0.2707 C   0  0  0  0  0  0  0  0  0  0  0  0
   -2.2746    0.4711    0.3939 C   0  0  0  0  0  0  0  0  0  0  0  0
   -4.6188   -0.5889   -1.0030 C   0  0  0  0  0  0  0  0  0  0  0  0
   -3.2603    1.3689   -0.3519 C   0  0  0  0  0  0  0  0  0  0  0  0
    1.8902   -0.6485   -0.9961 C   0  0  0  0  0  0  0  0  0  0  0  0
   -5.7011    1.4614    0.0431 C   0  0  0  0  0  0  0  0  0  0  0  0
    2.5678    0.5657   -0.7905 C   0  0  0  0  0  0  0  0  0  0  0  0
    3.8835    0.2424   -0.9916 C   0  0  0  0  0  0  0  0  0  0  0  0
    5.1364    1.0056   -0.9434 C   0  0  0  0  0  0  0  0  0  0  0  0
   -7.0317    0.7580   -0.0477 C   0  0  0  0  0  0  0  0  0  0  0  0
    5.4143    1.7433    0.4010 C   0  0  0  0  0  0  0  0  0  0  0  0
    6.7064    2.5602    0.3265 C   0  0  0  0  0  0  0  0  0  0  0  0
    5.4925    0.7615    1.5729 C   0  0  0  0  0  0  0  0  0  0  0  0
   -1.9453   -0.8838   -1.2698 H   0  0  0  0  0  0  0  0  0  0  0  0
   -1.7310   -1.9151    1.5103 H   0  0  0  0  0  0  0  0  0  0  0  0
    1.9114   -2.4827    0.8834 H   0  0  0  0  0  0  0  0  0  0  0  0
    0.4726   -3.1805    1.6085 H   0  0  0  0  0  0  0  0  0  0  0  0
   -0.5922   -0.0135    2.2543 H   0  0  0  0  0  0  0  0  0  0  0  0
    0.8462    0.5639    1.4071 H   0  0  0  0  0  0  0  0  0  0  0  0
   -0.0797    0.0154   -1.2579 H   0  0  0  0  0  0  0  0  0  0  0  0
    0.1585   -1.6968   -1.6348 H   0  0  0  0  0  0  0  0  0  0  0  0
   -4.0346   -1.6931    0.7482 H   0  0  0  0  0  0  0  0  0  0  0  0
   -3.6471   -2.5024   -0.7725 H   0  0  0  0  0  0  0  0  0  0  0  0
   -1.3162    0.9907    0.3388 H   0  0  0  0  0  0  0  0  0  0  0  0
   -2.5893    0.4222    1.4444 H   0  0  0  0  0  0  0  0  0  0  0  0
   -4.3239   -0.4848   -2.0541 H   0  0  0  0  0  0  0  0  0  0  0  0
   -5.6220   -1.0183   -0.9922 H   0  0  0  0  0  0  0  0  0  0  0  0
   -3.3066    2.3493    0.1329 H   0  0  0  0  0  0  0  0  0  0  0  0
   -2.9288    1.5298   -1.3848 H   0  0  0  0  0  0  0  0  0  0  0  0
    2.1623    1.5343   -0.5379 H   0  0  0  0  0  0  0  0  0  0  0  0
    5.1172    1.7490   -1.7508 H   0  0  0  0  0  0  0  0  0  0  0  0
    5.9841    0.3432   -1.1633 H   0  0  0  0  0  0  0  0  0  0  0  0
   -7.0185   -0.1551    0.5532 H   0  0  0  0  0  0  0  0  0  0  0  0
   -7.2683    0.5292   -1.0902 H   0  0  0  0  0  0  0  0  0  0  0  0
   -7.8166    1.4123    0.3442 H   0  0  0  0  0  0  0  0  0  0  0  0
    4.5868    2.4377    0.5964 H   0  0  0  0  0  0  0  0  0  0  0  0
    7.5733    1.9158    0.1456 H   0  0  0  0  0  0  0  0  0  0  0  0
    6.6536    3.2931   -0.4853 H   0  0  0  0  0  0  0  0  0  0  0  0
    6.8774    3.1066    1.2600 H   0  0  0  0  0  0  0  0  0  0  0  0
    6.2789    0.0159    1.4129 H   0  0  0  0  0  0  0  0  0  0  0  0
    4.5457    0.2311    1.7161 H   0  0  0  0  0  0  0  0  0  0  0  0
    5.7136    1.2898    2.5067 H   0  0  0  0  0  0  0  0  0  0  0  0
  1  9  1  0  0  0  0
  1 10  1  0  0  0  0
  2  6  1  0  0  0  0
  2 19  1  0  0  0  0
  3 17  2  0  0  0  0
  4  7  1  0  0  0  0
  4  8  1  0  0  0  0
  4 26  1  0  0  0  0
  5 14  1  0  0  0  0
  5 15  1  0  0  0  0
  5 17  1  0  0  0  0
  6 16  2  0  0  0  0
  7  9  1  0  0  0  0
  7 10  1  0  0  0  0
  7 11  1  0  0  0  0
  8 12  1  0  0  0  0
  8 13  1  0  0  0  0
  8 25  1  0  0  0  0
  9 27  1  0  0  0  0
  9 28  1  0  0  0  0
 10 29  1  0  0  0  0
 10 30  1  0  0  0  0
 11 16  1  0  0  0  0
 11 31  1  0  0  0  0
 11 32  1  0  0  0  0
 12 14  1  0  0  0  0
 12 33  1  0  0  0  0
 12 34  1  0  0  0  0
 13 15  1  0  0  0  0
 13 35  1  0  0  0  0
 13 36  1  0  0  0  0
 14 37  1  0  0  0  0
 14 38  1  0  0  0  0
 15 39  1  0  0  0  0
 15 40  1  0  0  0  0
 16 18  1  0  0  0  0
 17 21  1  0  0  0  0
 18 19  2  0  0  0  0
 18 41  1  0  0  0  0
 19 20  1  0  0  0  0
 20 22  1  0  0  0  0
 20 42  1  0  0  0  0
 20 43  1  0  0  0  0
 21 44  1  0  0  0  0
 21 45  1  0  0  0  0
 21 46  1  0  0  0  0
 22 23  1  0  0  0  0
 22 24  1  0  0  0  0
 22 47  1  0  0  0  0
 23 48  1  0  0  0  0
 23 49  1  0  0  0  0
 23 50  1  0  0  0  0
 24 51  1  0  0  0  0
 24 52  1  0  0  0  0
 24 53  1  0  0  0  0
M  END
> <PUBCHEM_COMPOUND_CID>
56775669

> <PUBCHEM_CONFORMER_RMSD>
1

> <PUBCHEM_CONFORMER_DIVERSEORDER>
1
43
39
139
121
48
92
108
25
141
72
47
137
95
128
66
113
28
11
154
99
151
103
27
65
125
84
160
80
49
135
140
132
97
7
20
75
52
76
148
21
102
127
58
86
50
104
101
149
6
145
3
15
36
98
111
12
126
31
42
34
54
2
81
157
100
19
147
134
24
109
112
9
164
136
57
64
155
105
33
61
159
46
110
158
17
41
107
163
79
87
123
124
90
60
53
44
129
38
162
150
8
40
63
133
106
161
82
130
67
62
71
93
74
143
70
5
22
115
153
88
91
85
68
89
122
142
56
144
45
77
4
14
117
119
13
138
37
152
156
35
23
146
118
18
29
10
94
114
16
78
96
26
51
59
55
32
116
30
120
73
131
83
69

> <PUBCHEM_MMFF94_PARTIAL_CHARGES>
21
1 -0.52
10 0.26
11 0.18
14 0.3
15 0.3
16 0.11
17 0.57
18 -0.15
19 -0.04
2 -0.02
20 0.18
21 0.06
26 0.36
3 -0.57
4 -0.84
41 0.15
5 -0.66
6 -0.41
7 0.21
8 0.27
9 0.26

> <PUBCHEM_EFFECTIVE_ROTOR_COUNT>
9

> <PUBCHEM_PHARMACOPHORE_FEATURES>
9
1 1 acceptor
1 3 acceptor
1 4 cation
1 4 donor
1 6 acceptor
3 22 23 24 hydrophobe
4 1 7 9 10 rings
5 2 6 16 18 19 rings
6 5 8 12 13 14 15 rings

> <PUBCHEM_HEAVY_ATOM_COUNT>
24

> <PUBCHEM_ATOM_DEF_STEREO_COUNT>
0

> <PUBCHEM_ATOM_UDEF_STEREO_COUNT>
0

> <PUBCHEM_BOND_DEF_STEREO_COUNT>
0

> <PUBCHEM_BOND_UDEF_STEREO_COUNT>
0

> <PUBCHEM_ISOTOPIC_ATOM_COUNT>
0

> <PUBCHEM_COMPONENT_COUNT>
1

> <PUBCHEM_CACTVS_TAUTO_COUNT>
1

> <PUBCHEM_CONFORMER_ID>
036253F500000001

> <PUBCHEM_MMFF94_ENERGY>
48.6974

> <PUBCHEM_FEATURE_SELFOVERLAP>
45.671

> <PUBCHEM_SHAPE_FINGERPRINT>
10319926 262 13045935764346646615
10692045 39 17604138247702552354
10906281 52 17968954105601903716
11135609 201 18411426111807258715
11961588 58 18343858914292816231
12422481 6 16298927785315178790
12633257 1 14345807062250904425
12895836 83 18202562882820907951
12895837 130 18270683202370266229
13533116 47 18040991805520082362
13690498 29 16343128264731881847
13692114 37 17167870781027802227
13782708 43 10953457440088903633
13911987 19 16486981729826516462
13914758 101 18342175558159895554
13955234 65 17897728656740036035
14251757 52 18339080372883157697
14251764 38 18193559089085582780
14466204 15 17749380486288287812
14739800 52 18336815425277436736
15475509 35 10953731223549463564
17492 54 16128659678074840670
17980427 23 18115306820956307492
1813 80 12751238077943503994
18222031 100 12391511962284766806
18769570 83 18408317813335807072
19377110 9 17675922110558181555
20715895 44 18342458153738214824
21033648 29 18261122910686593070
212916 134 18187920733781869090
21304304 249 8142082061715856817
21403212 168 16153971522045864072
21424621 283 18407761443008110408
21637258 2 10303819769836170096
22950370 63 10375882887307542278
23016692 55 11743840261287223760
23559900 14 17843686560533086286
23569914 2 17694453197354489169
2838139 119 18270958059256002100
2916195 48 18410013260086158165
3459 39 18115006550728390213
3472631 163 18408321120587037008
34797466 226 17561091293200541301
3680242 22 17894910715822407036
4340502 62 16588318150840158019
465052 167 12324242758945292154
474 4 17458639912252583495
5104073 3 17967253091676975739
5385378 56 17822007575978497282
543368 44 18412544306601164189
9981440 41 18187086190917812722

> <PUBCHEM_SHAPE_MULTIPOLES>
461.36
16.33
2.36
1.48
2.65
0.45
-0.49
14.37
0.49
-0.09
-0.46
-1.5
-0.55
0.24

> <PUBCHEM_SHAPE_SELFOVERLAP>
951.444

> <PUBCHEM_SHAPE_VOLUME>
266.3

> <PUBCHEM_COORDINATE_TYPE>
2
5
10

$$$$
