25389141
  -OEChem-12032416283D

 58 60  0     1  0  0  0  0  0999 V2000
   -7.1395    1.8226    0.6532 F   0  0  0  0  0  0  0  0  0  0  0  0
   -7.3332    0.7275   -1.2152 F   0  0  0  0  0  0  0  0  0  0  0  0
   -6.1827    2.5711   -1.1433 F   0  0  0  0  0  0  0  0  0  0  0  0
   -1.7845   -2.8697    0.8040 O   0  0  0  0  0  0  0  0  0  0  0  0
    2.7292   -2.5897    0.2809 N   0  0  2  0  0  0  0  0  0  0  0  0
    4.7072    1.8124   -0.1604 N   0  0  0  0  0  0  0  0  0  0  0  0
   -0.5725   -0.9057    1.0189 N   0  0  0  0  0  0  0  0  0  0  0  0
    3.2603   -0.5386   -1.2283 C   0  0  2  0  0  0  0  0  0  0  0  0
    4.2112   -0.5886   -0.0108 C   0  0  2  0  0  0  0  0  0  0  0  0
    1.4895   -1.8051    0.0329 C   0  0  2  0  0  0  0  0  0  0  0  0
    1.8020   -0.5016   -0.7352 C   0  0  0  0  0  0  0  0  0  0  0  0
    3.7591   -1.7357    0.9206 C   0  0  0  0  0  0  0  0  0  0  0  0
    3.4483   -1.8602   -1.9976 C   0  0  0  0  0  0  0  0  0  0  0  0
    3.2535   -3.0417   -1.0309 C   0  0  0  0  0  0  0  0  0  0  0  0
    4.3039    0.7399    0.7361 C   0  0  0  0  0  0  0  0  0  0  0  0
    0.7041   -1.5331    1.3180 C   0  0  0  0  0  0  0  0  0  0  0  0
    6.1560    1.7903   -0.3767 C   0  0  0  0  0  0  0  0  0  0  0  0
    4.2957    3.1146    0.3706 C   0  0  0  0  0  0  0  0  0  0  0  0
   -1.7169   -1.6434    0.7859 C   0  0  0  0  0  0  0  0  0  0  0  0
    6.5885    2.9069   -1.3120 C   0  0  0  0  0  0  0  0  0  0  0  0
    4.9251    3.3775    1.7282 C   0  0  0  0  0  0  0  0  0  0  0  0
   -2.9345   -0.8540    0.4677 C   0  0  0  0  0  0  0  0  0  0  0  0
   -3.9487   -1.4171   -0.3068 C   0  0  0  0  0  0  0  0  0  0  0  0
   -3.0630    0.4510    0.9433 C   0  0  0  0  0  0  0  0  0  0  0  0
   -5.0913   -0.6752   -0.6060 C   0  0  0  0  0  0  0  0  0  0  0  0
   -4.2056    1.1929    0.6441 C   0  0  0  0  0  0  0  0  0  0  0  0
   -5.2197    0.6298   -0.1305 C   0  0  0  0  0  0  0  0  0  0  0  0
   -6.4417    1.4229   -0.4507 C   0  0  0  0  0  0  0  0  0  0  0  0
    3.4675    0.3062   -1.8925 H   0  0  0  0  0  0  0  0  0  0  0  0
    5.2117   -0.8552   -0.3776 H   0  0  0  0  0  0  0  0  0  0  0  0
    0.8351   -2.4197   -0.6028 H   0  0  0  0  0  0  0  0  0  0  0  0
    1.6335    0.3908   -0.1235 H   0  0  0  0  0  0  0  0  0  0  0  0
    1.1277   -0.4205   -1.5974 H   0  0  0  0  0  0  0  0  0  0  0  0
    4.6280   -2.3568    1.1760 H   0  0  0  0  0  0  0  0  0  0  0  0
    3.3955   -1.3602    1.8837 H   0  0  0  0  0  0  0  0  0  0  0  0
    4.4493   -1.9040   -2.4427 H   0  0  0  0  0  0  0  0  0  0  0  0
    2.7242   -1.9219   -2.8190 H   0  0  0  0  0  0  0  0  0  0  0  0
    2.5702   -3.7771   -1.4734 H   0  0  0  0  0  0  0  0  0  0  0  0
    4.2027   -3.5736   -0.8876 H   0  0  0  0  0  0  0  0  0  0  0  0
    4.9969    0.6247    1.5804 H   0  0  0  0  0  0  0  0  0  0  0  0
    3.3233    0.9551    1.1793 H   0  0  0  0  0  0  0  0  0  0  0  0
    1.2351   -0.8503    1.9886 H   0  0  0  0  0  0  0  0  0  0  0  0
    0.5204   -2.4675    1.8607 H   0  0  0  0  0  0  0  0  0  0  0  0
   -0.5711    0.1037    0.9221 H   0  0  0  0  0  0  0  0  0  0  0  0
    6.7435    1.8206    0.5480 H   0  0  0  0  0  0  0  0  0  0  0  0
    6.4294    0.8529   -0.8746 H   0  0  0  0  0  0  0  0  0  0  0  0
    4.5012    3.9362   -0.3230 H   0  0  0  0  0  0  0  0  0  0  0  0
    3.2030    3.1248    0.4790 H   0  0  0  0  0  0  0  0  0  0  0  0
    6.5984    3.8862   -0.8242 H   0  0  0  0  0  0  0  0  0  0  0  0
    7.6130    2.7197   -1.6536 H   0  0  0  0  0  0  0  0  0  0  0  0
    5.9552    2.9582   -2.2045 H   0  0  0  0  0  0  0  0  0  0  0  0
    4.5468    4.3346    2.1077 H   0  0  0  0  0  0  0  0  0  0  0  0
    4.6639    2.6310    2.4836 H   0  0  0  0  0  0  0  0  0  0  0  0
    6.0131    3.4788    1.6896 H   0  0  0  0  0  0  0  0  0  0  0  0
   -3.8649   -2.4306   -0.6904 H   0  0  0  0  0  0  0  0  0  0  0  0
   -2.3139    0.9169    1.5765 H   0  0  0  0  0  0  0  0  0  0  0  0
   -5.8692   -1.1317   -1.2117 H   0  0  0  0  0  0  0  0  0  0  0  0
   -4.3006    2.2065    1.0248 H   0  0  0  0  0  0  0  0  0  0  0  0
  1 28  1  0  0  0  0
  2 28  1  0  0  0  0
  3 28  1  0  0  0  0
  4 19  2  0  0  0  0
  5 10  1  0  0  0  0
  5 12  1  0  0  0  0
  5 14  1  0  0  0  0
  6 15  1  0  0  0  0
  6 17  1  0  0  0  0
  6 18  1  0  0  0  0
  7 16  1  0  0  0  0
  7 19  1  0  0  0  0
  7 44  1  0  0  0  0
  8  9  1  0  0  0  0
  8 11  1  0  0  0  0
  8 13  1  0  0  0  0
  8 29  1  0  0  0  0
  9 12  1  0  0  0  0
  9 15  1  0  0  0  0
  9 30  1  0  0  0  0
 10 11  1  0  0  0  0
 10 16  1  0  0  0  0
 10 31  1  0  0  0  0
 11 32  1  0  0  0  0
 11 33  1  0  0  0  0
 12 34  1  0  0  0  0
 12 35  1  0  0  0  0
 13 14  1  0  0  0  0
 13 36  1  0  0  0  0
 13 37  1  0  0  0  0
 14 38  1  0  0  0  0
 14 39  1  0  0  0  0
 15 40  1  0  0  0  0
 15 41  1  0  0  0  0
 16 42  1  0  0  0  0
 16 43  1  0  0  0  0
 17 20  1  0  0  0  0
 17 45  1  0  0  0  0
 17 46  1  0  0  0  0
 18 21  1  0  0  0  0
 18 47  1  0  0  0  0
 18 48  1  0  0  0  0
 19 22  1  0  0  0  0
 20 49  1  0  0  0  0
 20 50  1  0  0  0  0
 20 51  1  0  0  0  0
 21 52  1  0  0  0  0
 21 53  1  0  0  0  0
 21 54  1  0  0  0  0
 22 23  2  0  0  0  0
 22 24  1  0  0  0  0
 23 25  1  0  0  0  0
 23 55  1  0  0  0  0
 24 26  2  0  0  0  0
 24 56  1  0  0  0  0
 25 27  2  0  0  0  0
 25 57  1  0  0  0  0
 26 27  1  0  0  0  0
 26 58  1  0  0  0  0
 27 28  1  0  0  0  0
M  END
> <PUBCHEM_COMPOUND_CID>
25389141

> <PUBCHEM_CONFORMER_RMSD>
1

> <PUBCHEM_CONFORMER_DIVERSEORDER>
1
49
14
45
42
17
34
39
18
27
23
25
50
31
46
24
19
37
29
15
8
21
41
13
30
43
22
35
38
12
36
44
48
3
51
47
28
20
6
2
26
10
11
32
9
16
40
52
7
4
5
33

> <PUBCHEM_MMFF94_PARTIAL_CHARGES>
27
1 -0.34
10 0.27
12 0.27
14 0.27
15 0.27
16 0.3
17 0.27
18 0.27
19 0.54
2 -0.34
22 0.09
23 -0.15
24 -0.15
25 -0.15
26 -0.15
27 -0.14
28 1.16
3 -0.34
4 -0.57
44 0.37
5 -0.81
55 0.15
56 0.15
57 0.15
58 0.15
6 -0.81
7 -0.73

> <PUBCHEM_EFFECTIVE_ROTOR_COUNT>
10.2

> <PUBCHEM_PHARMACOPHORE_FEATURES>
6
1 4 acceptor
1 5 cation
1 6 cation
1 7 donor
6 22 23 24 25 26 27 rings
8 5 8 9 10 11 12 13 14 rings

> <PUBCHEM_HEAVY_ATOM_COUNT>
28

> <PUBCHEM_ATOM_DEF_STEREO_COUNT>
3

> <PUBCHEM_ATOM_UDEF_STEREO_COUNT>
0

> <PUBCHEM_BOND_DEF_STEREO_COUNT>
0

> <PUBCHEM_BOND_UDEF_STEREO_COUNT>
0

> <PUBCHEM_ISOTOPIC_ATOM_COUNT>
0

> <PUBCHEM_COMPONENT_COUNT>
1

> <PUBCHEM_CACTVS_TAUTO_COUNT>
2

> <PUBCHEM_CONFORMER_ID>
0183685500000001

> <PUBCHEM_MMFF94_ENERGY>
62.5645

> <PUBCHEM_FEATURE_SELFOVERLAP>
30.446

> <PUBCHEM_SHAPE_FINGERPRINT>
10319926 262 11674864573057704659
10675989 125 18339924809748223442
10835480 77 18411698794537533717
11135609 127 18272639156230545096
12623949 98 8790886311060084186
12633257 1 16154547748207778166
12769317 202 18202005473449158168
13540713 4 18190202198561005122
13551218 46 8862938386365892065
13878862 14 18263346058657422004
14251740 57 10231750098012589267
14251764 30 10592050158445411997
14528608 73 18272652389414985538
14556957 393 16773809090486916257
14931854 50 18130519603946498320
15082195 135 17917713483117481010
15183329 4 17989207023817567561
15961568 22 18335142024726110500
17492 89 9943807776633163850
17899979 129 18341624676262898174
1813 80 12895066315028159523
18222031 100 13470400059275652811
19053607 189 18266452282144023080
1979834 28 13912590655219119816
20058555 10 18408319995385194525
20157964 124 18341613689683852839
20511986 3 18337099133863773391
20567600 247 11671518780881100524
20715895 44 18409727365862264010
21033648 144 18259980483788105711
21033648 29 17749401359987419731
21298829 104 18335143089878103717
21315764 268 18188483558659005781
21403212 168 18341606041554919810
21682296 61 10087639313016897905
21968339 14 18131356298093090318
23522609 53 17131288895779648617
23559900 14 18200880582649354210
25122255 55 11383825005037460365
2748736 6 18260822747785269492
2838139 119 18269833293504809970
3004659 81 17559956519659753798
3472631 163 18410009940155806447
34797466 226 18131073723367674071
376196 1 18267021833699041930
3862424 121 14260496041468543837
439807 62 11311784972566963072
44317340 157 18343026575427269331
465052 167 8718829799385686490
5104073 3 13840566101915816465
54039377 194 9583250448455629568
56633871 153 8430306931903825529
60123966 16 18272937077111870622
6898599 12 18271802480160211951
960060 61 16988840549387207707

> <PUBCHEM_SHAPE_MULTIPOLES>
533.59
19.05
3.91
1.42
20.82
1.16
0.16
18.38
4.94
-5.04
-0.1
-0.96
0.04
1.48

> <PUBCHEM_SHAPE_SELFOVERLAP>
1116.725

> <PUBCHEM_SHAPE_VOLUME>
303.9

> <PUBCHEM_COORDINATE_TYPE>
2
5
10

$$$$
