38026621
  -OEChem-12032416353D

 58 60  0     1  0  0  0  0  0999 V2000
    7.5706   -1.6188   -1.0665 F   0  0  0  0  0  0  0  0  0  0  0  0
    7.2827   -2.2571    0.9920 F   0  0  0  0  0  0  0  0  0  0  0  0
    7.6326   -0.1599    0.5370 F   0  0  0  0  0  0  0  0  0  0  0  0
   -0.3381    2.8543    0.7621 O   0  0  0  0  0  0  0  0  0  0  0  0
   -2.3012    3.8313   -1.2776 O   0  0  0  0  0  0  0  0  0  0  0  0
    0.5843    5.4626    1.2624 O   0  0  0  0  0  0  0  0  0  0  0  0
    0.5128   -1.4216   -0.1365 O   0  0  0  0  0  0  0  0  0  0  0  0
   -3.4498    1.3349   -0.4585 N   0  0  1  0  0  0  0  0  0  0  0  0
    0.8537    0.7875   -0.7591 N   0  0  0  0  0  0  0  0  0  0  0  0
   -5.9397   -2.4040    0.1449 N   0  0  0  0  0  0  0  0  0  0  0  0
   -2.5667    2.0966    0.4072 C   0  0  1  0  0  0  0  0  0  0  0  0
   -1.0926    1.6718    0.4148 C   0  0  1  0  0  0  0  0  0  0  0  0
   -2.4926    3.5863    0.1097 C   0  0  1  0  0  0  0  0  0  0  0  0
   -1.2427    3.9678    0.8938 C   0  0  2  0  0  0  0  0  0  0  0  0
   -0.5264    1.1441   -0.8988 C   0  0  0  0  0  0  0  0  0  0  0  0
   -0.5458    5.2359    0.4356 C   0  0  0  0  0  0  0  0  0  0  0  0
   -3.7755    0.0365    0.1401 C   0  0  0  0  0  0  0  0  0  0  0  0
   -4.6802    2.0824   -0.7368 C   0  0  0  0  0  0  0  0  0  0  0  0
   -4.3131   -0.9328   -0.9130 C   0  0  0  0  0  0  0  0  0  0  0  0
   -4.6728   -2.2656   -0.3062 C   0  0  0  0  0  0  0  0  0  0  0  0
    1.2708   -0.4871   -0.3831 C   0  0  0  0  0  0  0  0  0  0  0  0
    2.7370   -0.6893   -0.2574 C   0  0  0  0  0  0  0  0  0  0  0  0
   -3.7129   -3.2627   -0.2412 C   0  0  0  0  0  0  0  0  0  0  0  0
    3.2357   -1.6625    0.6086 C   0  0  0  0  0  0  0  0  0  0  0  0
    3.6154    0.0948   -1.0053 C   0  0  0  0  0  0  0  0  0  0  0  0
   -4.0769   -4.4804    0.3227 C   0  0  0  0  0  0  0  0  0  0  0  0
   -6.2567   -3.6014    0.6867 C   0  0  0  0  0  0  0  0  0  0  0  0
   -5.3710   -4.6611    0.7979 C   0  0  0  0  0  0  0  0  0  0  0  0
    4.6126   -1.8515    0.7268 C   0  0  0  0  0  0  0  0  0  0  0  0
    4.9923   -0.0940   -0.8871 C   0  0  0  0  0  0  0  0  0  0  0  0
    5.4909   -1.0672   -0.0210 C   0  0  0  0  0  0  0  0  0  0  0  0
    6.9631   -1.2695    0.1058 C   0  0  0  0  0  0  0  0  0  0  0  0
   -2.9291    2.0244    1.4458 H   0  0  0  0  0  0  0  0  0  0  0  0
   -0.9225    0.9311    1.2059 H   0  0  0  0  0  0  0  0  0  0  0  0
   -3.3695    4.1482    0.4487 H   0  0  0  0  0  0  0  0  0  0  0  0
   -1.4737    4.0379    1.9646 H   0  0  0  0  0  0  0  0  0  0  0  0
   -0.5639    1.9086   -1.6810 H   0  0  0  0  0  0  0  0  0  0  0  0
   -1.0816    0.2671   -1.2457 H   0  0  0  0  0  0  0  0  0  0  0  0
   -1.2145    6.0992    0.5052 H   0  0  0  0  0  0  0  0  0  0  0  0
   -0.1769    5.1400   -0.5905 H   0  0  0  0  0  0  0  0  0  0  0  0
   -2.8740   -0.4173    0.5726 H   0  0  0  0  0  0  0  0  0  0  0  0
   -4.4870    0.1480    0.9699 H   0  0  0  0  0  0  0  0  0  0  0  0
   -5.3891    1.5000   -1.3323 H   0  0  0  0  0  0  0  0  0  0  0  0
   -4.5076    2.9742   -1.3448 H   0  0  0  0  0  0  0  0  0  0  0  0
   -5.1967    2.3801    0.1838 H   0  0  0  0  0  0  0  0  0  0  0  0
   -2.3683    4.7909   -1.4189 H   0  0  0  0  0  0  0  0  0  0  0  0
    1.5302    1.5337   -0.8799 H   0  0  0  0  0  0  0  0  0  0  0  0
   -3.5743   -1.0774   -1.7122 H   0  0  0  0  0  0  0  0  0  0  0  0
   -5.2151   -0.5497   -1.4014 H   0  0  0  0  0  0  0  0  0  0  0  0
    1.0083    6.2801    0.9501 H   0  0  0  0  0  0  0  0  0  0  0  0
   -2.7051   -3.1111   -0.6129 H   0  0  0  0  0  0  0  0  0  0  0  0
    2.5677   -2.2801    1.2030 H   0  0  0  0  0  0  0  0  0  0  0  0
    3.2684    0.8417   -1.7131 H   0  0  0  0  0  0  0  0  0  0  0  0
   -3.3532   -5.2869    0.3924 H   0  0  0  0  0  0  0  0  0  0  0  0
   -7.2778   -3.6913    1.0424 H   0  0  0  0  0  0  0  0  0  0  0  0
   -5.6767   -5.6017    1.2415 H   0  0  0  0  0  0  0  0  0  0  0  0
    4.9807   -2.6140    1.4077 H   0  0  0  0  0  0  0  0  0  0  0  0
    5.6692    0.5169   -1.4785 H   0  0  0  0  0  0  0  0  0  0  0  0
  1 32  1  0  0  0  0
  2 32  1  0  0  0  0
  3 32  1  0  0  0  0
  4 12  1  0  0  0  0
  4 14  1  0  0  0  0
  5 13  1  0  0  0  0
  5 46  1  0  0  0  0
  6 16  1  0  0  0  0
  6 50  1  0  0  0  0
  7 21  2  0  0  0  0
  8 11  1  0  0  0  0
  8 17  1  0  0  0  0
  8 18  1  0  0  0  0
  9 15  1  0  0  0  0
  9 21  1  0  0  0  0
  9 47  1  0  0  0  0
 10 20  1  0  0  0  0
 10 27  2  0  0  0  0
 11 12  1  0  0  0  0
 11 13  1  0  0  0  0
 11 33  1  0  0  0  0
 12 15  1  0  0  0  0
 12 34  1  0  0  0  0
 13 14  1  0  0  0  0
 13 35  1  0  0  0  0
 14 16  1  0  0  0  0
 14 36  1  0  0  0  0
 15 37  1  0  0  0  0
 15 38  1  0  0  0  0
 16 39  1  0  0  0  0
 16 40  1  0  0  0  0
 17 19  1  0  0  0  0
 17 41  1  0  0  0  0
 17 42  1  0  0  0  0
 18 43  1  0  0  0  0
 18 44  1  0  0  0  0
 18 45  1  0  0  0  0
 19 20  1  0  0  0  0
 19 48  1  0  0  0  0
 19 49  1  0  0  0  0
 20 23  2  0  0  0  0
 21 22  1  0  0  0  0
 22 24  2  0  0  0  0
 22 25  1  0  0  0  0
 23 26  1  0  0  0  0
 23 51  1  0  0  0  0
 24 29  1  0  0  0  0
 24 52  1  0  0  0  0
 25 30  2  0  0  0  0
 25 53  1  0  0  0  0
 26 28  2  0  0  0  0
 26 54  1  0  0  0  0
 27 28  1  0  0  0  0
 27 55  1  0  0  0  0
 28 56  1  0  0  0  0
 29 31  2  0  0  0  0
 29 57  1  0  0  0  0
 30 31  1  0  0  0  0
 30 58  1  0  0  0  0
 31 32  1  0  0  0  0
M  END
> <PUBCHEM_COMPOUND_CID>
38026621

> <PUBCHEM_CONFORMER_RMSD>
1

> <PUBCHEM_CONFORMER_DIVERSEORDER>
1
14
40
22
18
70
66
34
42
74
6
75
44
48
21
83
25
68
64
76
92
100
3
71
4
62
20
96
37
85
28
72
87
53
58
47
35
54
27
41
33
26
61
36
88
59
78
55
65
79
8
93
51
73
46
45
10
12
17
43
82
29
91
99
24
30
57
98
32
56
60
89
84
63
16
31
67
50
90
97
23
86
38
77
49
19
80
81
69
94
52
5
13
11
95
39
7
9
15
2

> <PUBCHEM_MMFF94_PARTIAL_CHARGES>
43
1 -0.34
10 -0.62
11 0.27
12 0.28
13 0.28
14 0.28
15 0.3
16 0.28
17 0.27
18 0.27
19 0.14
2 -0.34
20 0.17
21 0.54
22 0.09
23 -0.15
24 -0.15
25 -0.15
26 -0.15
27 0.16
28 -0.15
29 -0.15
3 -0.34
30 -0.15
31 -0.14
32 1.16
4 -0.56
46 0.4
47 0.37
5 -0.68
50 0.4
51 0.15
52 0.15
53 0.15
54 0.15
55 0.15
56 0.15
57 0.15
58 0.15
6 -0.68
7 -0.57
8 -0.81
9 -0.73

> <PUBCHEM_EFFECTIVE_ROTOR_COUNT>
11

> <PUBCHEM_PHARMACOPHORE_FEATURES>
12
1 10 acceptor
1 4 acceptor
1 5 acceptor
1 5 donor
1 6 acceptor
1 6 donor
1 7 acceptor
1 8 cation
1 9 donor
5 4 11 12 13 14 rings
6 10 20 23 26 27 28 rings
6 22 24 25 29 30 31 rings

> <PUBCHEM_HEAVY_ATOM_COUNT>
32

> <PUBCHEM_ATOM_DEF_STEREO_COUNT>
4

> <PUBCHEM_ATOM_UDEF_STEREO_COUNT>
0

> <PUBCHEM_BOND_DEF_STEREO_COUNT>
0

> <PUBCHEM_BOND_UDEF_STEREO_COUNT>
0

> <PUBCHEM_ISOTOPIC_ATOM_COUNT>
0

> <PUBCHEM_COMPONENT_COUNT>
1

> <PUBCHEM_CACTVS_TAUTO_COUNT>
4

> <PUBCHEM_CONFORMER_ID>
02443D7D00000001

> <PUBCHEM_MMFF94_ENERGY>
78.9488

> <PUBCHEM_FEATURE_SELFOVERLAP>
60.902

> <PUBCHEM_SHAPE_FINGERPRINT>
10100884 174 18260264170847917978
10319688 45 18410576158832671169
10411042 1 18339363084319520695
10622 236 17895743011432917778
10816530 145 18059018254896031449
11056379 131 18268719302867241044
11297750 10 18263356044973739629
12166972 35 17894914091355368590
12788726 201 18334570226702404642
13631057 29 18408321077241809595
14068700 675 18260551155638739142
14394314 77 18411703145803550739
14725015 67 18337390569550943739
14844126 61 18336551525876308155
14856354 85 18342458084654618372
14863182 85 17327177058377196645
14866123 147 18410299117143093715
15351339 4 18041265604900456683
15400415 2 17617659856627703912
15419008 47 18060135470642219386
15439362 3 9149805368004527587
15968369 26 17251171105082127591
16990366 60 18191865836746788395
16992752 21 18338248153891027958
17686467 74 18340480154295796984
18393751 57 17620769284038030585
19611394 137 18343301461965982242
20775530 9 18262509429404493223
21796203 349 18051722076460124947
22956985 138 18122061176588817225
2747138 104 18413106186922995690
32027 91 18194962075213952263
3418910 222 18340210782611363852
3421961 26 18051697947749924379
3504750 166 18117269256170700738
4015057 19 15502672515193217892
4144715 1 18127697020411614636
437795 163 18335705005234399940
49967989 163 18409736123169342102
6371380 46 18411130322169143853
6673363 416 18341343266919239180
6700243 42 17842874133240665724

> <PUBCHEM_SHAPE_MULTIPOLES>
598.3
17.7
7.46
1.02
26.15
6.68
-0.04
-24.99
0.72
-11.09
2.55
0.22
0.32
0.97

> <PUBCHEM_SHAPE_SELFOVERLAP>
1265.758

> <PUBCHEM_SHAPE_VOLUME>
335.7

> <PUBCHEM_COORDINATE_TYPE>
2
5
10

$$$$
