45361714
  -OEChem-12032416133D

 78 82  0     1  0  0  0  0  0999 V2000
   -0.5607   -3.9941    1.0050 O   0  0  0  0  0  0  0  0  0  0  0  0
    4.2535    0.9924   -1.3805 O   0  0  0  0  0  0  0  0  0  0  0  0
    0.7974    0.0783    1.8423 O   0  0  0  0  0  0  0  0  0  0  0  0
    1.2310    3.6131    0.0598 O   0  0  0  0  0  0  0  0  0  0  0  0
    0.5843   -2.1090    0.2688 N   0  0  0  0  0  0  0  0  0  0  0  0
    3.0744   -0.7122   -0.3277 N   0  0  0  0  0  0  0  0  0  0  0  0
   -3.9973   -4.0429   -0.2534 N   0  0  0  0  0  0  0  0  0  0  0  0
    7.8694    0.4587   -1.0931 N   0  0  0  0  0  0  0  0  0  0  0  0
   -0.3163    1.3478    0.2400 N   0  0  0  0  0  0  0  0  0  0  0  0
   -4.7196    0.8631    1.2444 N   0  0  0  0  0  0  0  0  0  0  0  0
    0.6942    4.1097    2.2374 N   0  0  0  0  0  0  0  0  0  0  0  0
    0.5815   -0.7885   -0.3744 C   0  0  2  0  0  0  0  0  0  0  0  0
    1.8735   -0.5021   -1.1411 C   0  0  0  0  0  0  0  0  0  0  0  0
   -1.8828   -2.1233    0.4144 C   0  0  0  0  0  0  0  0  0  0  0  0
    1.8851   -2.7654    0.4227 C   0  0  0  0  0  0  0  0  0  0  0  0
    5.3884   -0.1903    0.3298 C   0  0  0  0  0  0  0  0  0  0  0  0
    3.0176   -1.7794    0.6761 C   0  0  0  0  0  0  0  0  0  0  0  0
   -0.5691   -2.8307    0.5937 C   0  0  0  0  0  0  0  0  0  0  0  0
    4.1955    0.0926   -0.5394 C   0  0  0  0  0  0  0  0  0  0  0  0
   -2.4093   -2.3043   -1.0109 C   0  0  0  0  0  0  0  0  0  0  0  0
   -2.9075   -2.6085    1.4418 C   0  0  0  0  0  0  0  0  0  0  0  0
    6.1809    1.0902    0.6006 C   0  0  0  0  0  0  0  0  0  0  0  0
    6.2798   -1.2626   -0.3003 C   0  0  0  0  0  0  0  0  0  0  0  0
   -2.9774   -3.7049   -1.2455 C   0  0  0  0  0  0  0  0  0  0  0  0
   -3.4547   -3.9963    1.1039 C   0  0  0  0  0  0  0  0  0  0  0  0
    0.3840    0.2448    0.6977 C   0  0  0  0  0  0  0  0  0  0  0  0
    7.0003    1.5324   -0.6129 C   0  0  0  0  0  0  0  0  0  0  0  0
    7.0950   -0.7213   -1.4760 C   0  0  0  0  0  0  0  0  0  0  0  0
   -0.6568    2.4730    1.0806 C   0  0  2  0  0  0  0  0  0  0  0  0
   -1.9308    3.1838    0.6098 C   0  0  0  0  0  0  0  0  0  0  0  0
   -3.1348    2.2739    0.5923 C   0  0  0  0  0  0  0  0  0  0  0  0
    0.5262    3.4295    1.0495 C   0  0  0  0  0  0  0  0  0  0  0  0
   -3.9684    1.9933   -0.5263 C   0  0  0  0  0  0  0  0  0  0  0  0
   -3.6220    1.5646    1.6659 C   0  0  0  0  0  0  0  0  0  0  0  0
   -4.9546    1.1058   -0.0901 C   0  0  0  0  0  0  0  0  0  0  0  0
   -3.9786    2.4104   -1.8722 C   0  0  0  0  0  0  0  0  0  0  0  0
   -5.9544    0.6127   -0.9361 C   0  0  0  0  0  0  0  0  0  0  0  0
   -4.9727    1.9253   -2.7297 C   0  0  0  0  0  0  0  0  0  0  0  0
   -5.9444    1.0404   -2.2668 C   0  0  0  0  0  0  0  0  0  0  0  0
   -0.2458   -0.7299   -1.0835 H   0  0  0  0  0  0  0  0  0  0  0  0
    1.9590   -1.1858   -1.9949 H   0  0  0  0  0  0  0  0  0  0  0  0
    1.8711    0.5171   -1.5437 H   0  0  0  0  0  0  0  0  0  0  0  0
   -1.7579   -1.0576    0.6106 H   0  0  0  0  0  0  0  0  0  0  0  0
    2.0666   -3.3204   -0.5061 H   0  0  0  0  0  0  0  0  0  0  0  0
    1.8382   -3.4997    1.2342 H   0  0  0  0  0  0  0  0  0  0  0  0
    5.0489   -0.5360    1.3114 H   0  0  0  0  0  0  0  0  0  0  0  0
    3.9581   -2.3342    0.6974 H   0  0  0  0  0  0  0  0  0  0  0  0
    2.8993   -1.3023    1.6548 H   0  0  0  0  0  0  0  0  0  0  0  0
   -3.2000   -1.5649   -1.1932 H   0  0  0  0  0  0  0  0  0  0  0  0
   -1.6341   -2.1272   -1.7627 H   0  0  0  0  0  0  0  0  0  0  0  0
   -2.4722   -2.6221    2.4485 H   0  0  0  0  0  0  0  0  0  0  0  0
   -3.7452   -1.9007    1.4719 H   0  0  0  0  0  0  0  0  0  0  0  0
    5.5117    1.9043    0.9049 H   0  0  0  0  0  0  0  0  0  0  0  0
    6.8637    0.9136    1.4425 H   0  0  0  0  0  0  0  0  0  0  0  0
    6.9691   -1.6446    0.4642 H   0  0  0  0  0  0  0  0  0  0  0  0
    5.6931   -2.1182   -0.6519 H   0  0  0  0  0  0  0  0  0  0  0  0
   -3.4325   -3.7403   -2.2416 H   0  0  0  0  0  0  0  0  0  0  0  0
   -2.1771   -4.4544   -1.2380 H   0  0  0  0  0  0  0  0  0  0  0  0
   -2.7180   -4.7914    1.2472 H   0  0  0  0  0  0  0  0  0  0  0  0
   -4.2700   -4.2201    1.8021 H   0  0  0  0  0  0  0  0  0  0  0  0
    6.3800    1.9139   -1.4286 H   0  0  0  0  0  0  0  0  0  0  0  0
    7.6359    2.3719   -0.3075 H   0  0  0  0  0  0  0  0  0  0  0  0
    7.7870   -1.4998   -1.8157 H   0  0  0  0  0  0  0  0  0  0  0  0
    6.4421   -0.4877   -2.3254 H   0  0  0  0  0  0  0  0  0  0  0  0
   -4.3543   -4.9791   -0.4418 H   0  0  0  0  0  0  0  0  0  0  0  0
    8.4004    0.7896   -1.8982 H   0  0  0  0  0  0  0  0  0  0  0  0
   -0.5469    1.4106   -0.7477 H   0  0  0  0  0  0  0  0  0  0  0  0
   -0.7842    2.1010    2.1050 H   0  0  0  0  0  0  0  0  0  0  0  0
   -2.1473    4.0343    1.2692 H   0  0  0  0  0  0  0  0  0  0  0  0
   -1.7692    3.6083   -0.3890 H   0  0  0  0  0  0  0  0  0  0  0  0
   -3.2888    1.4941    2.6920 H   0  0  0  0  0  0  0  0  0  0  0  0
   -5.2767    0.2542    1.8278 H   0  0  0  0  0  0  0  0  0  0  0  0
    1.4395    4.7894    2.3469 H   0  0  0  0  0  0  0  0  0  0  0  0
    0.0900    3.9641    3.0398 H   0  0  0  0  0  0  0  0  0  0  0  0
   -3.2295    3.0989   -2.2523 H   0  0  0  0  0  0  0  0  0  0  0  0
   -6.7107   -0.0770   -0.5767 H   0  0  0  0  0  0  0  0  0  0  0  0
   -4.9853    2.2432   -3.7689 H   0  0  0  0  0  0  0  0  0  0  0  0
   -6.7069    0.6758   -2.9503 H   0  0  0  0  0  0  0  0  0  0  0  0
  1 18  2  0  0  0  0
  2 19  2  0  0  0  0
  3 26  2  0  0  0  0
  4 32  2  0  0  0  0
  5 12  1  0  0  0  0
  5 15  1  0  0  0  0
  5 18  1  0  0  0  0
  6 13  1  0  0  0  0
  6 17  1  0  0  0  0
  6 19  1  0  0  0  0
  7 24  1  0  0  0  0
  7 25  1  0  0  0  0
  7 65  1  0  0  0  0
  8 27  1  0  0  0  0
  8 28  1  0  0  0  0
  8 66  1  0  0  0  0
  9 26  1  0  0  0  0
  9 29  1  0  0  0  0
  9 67  1  0  0  0  0
 10 34  1  0  0  0  0
 10 35  1  0  0  0  0
 10 72  1  0  0  0  0
 11 32  1  0  0  0  0
 11 73  1  0  0  0  0
 11 74  1  0  0  0  0
 12 13  1  0  0  0  0
 12 26  1  0  0  0  0
 12 40  1  0  0  0  0
 13 41  1  0  0  0  0
 13 42  1  0  0  0  0
 14 18  1  0  0  0  0
 14 20  1  0  0  0  0
 14 21  1  0  0  0  0
 14 43  1  0  0  0  0
 15 17  1  0  0  0  0
 15 44  1  0  0  0  0
 15 45  1  0  0  0  0
 16 19  1  0  0  0  0
 16 22  1  0  0  0  0
 16 23  1  0  0  0  0
 16 46  1  0  0  0  0
 17 47  1  0  0  0  0
 17 48  1  0  0  0  0
 20 24  1  0  0  0  0
 20 49  1  0  0  0  0
 20 50  1  0  0  0  0
 21 25  1  0  0  0  0
 21 51  1  0  0  0  0
 21 52  1  0  0  0  0
 22 27  1  0  0  0  0
 22 53  1  0  0  0  0
 22 54  1  0  0  0  0
 23 28  1  0  0  0  0
 23 55  1  0  0  0  0
 23 56  1  0  0  0  0
 24 57  1  0  0  0  0
 24 58  1  0  0  0  0
 25 59  1  0  0  0  0
 25 60  1  0  0  0  0
 27 61  1  0  0  0  0
 27 62  1  0  0  0  0
 28 63  1  0  0  0  0
 28 64  1  0  0  0  0
 29 30  1  0  0  0  0
 29 32  1  0  0  0  0
 29 68  1  0  0  0  0
 30 31  1  0  0  0  0
 30 69  1  0  0  0  0
 30 70  1  0  0  0  0
 31 33  1  0  0  0  0
 31 34  2  0  0  0  0
 33 35  1  0  0  0  0
 33 36  2  0  0  0  0
 34 71  1  0  0  0  0
 35 37  2  0  0  0  0
 36 38  1  0  0  0  0
 36 75  1  0  0  0  0
 37 39  1  0  0  0  0
 37 76  1  0  0  0  0
 38 39  2  0  0  0  0
 38 77  1  0  0  0  0
 39 78  1  0  0  0  0
M  END
> <PUBCHEM_COMPOUND_CID>
45361714

> <PUBCHEM_CONFORMER_RMSD>
1.2

> <PUBCHEM_CONFORMER_DIVERSEORDER>
1
187
53
34
67
255
208
122
244
151
201
257
136
54
280
38
132
164
161
215
245
25
234
145
271
173
134
112
31
159
185
218
22
196
190
176
212
58
28
57
241
153
131
64
229
279
80
175
270
102
198
168
216
256
182
126
177
93
225
133
124
52
203
213
123
71
195
155
169
105
121
19
167
85
261
104
243
210
281
82
79
189
14
178
239
77
217
266
274
191
95
228
214
63
222
226
48
184
152
267
262
251
107
94
240
84
254
76
183
277
160
269
278
149
143
45
223
61
43
170
268
166
252
248
42
87
69
197
35
157
96
83
165
89
2
62
220
205
150
221
148
17
250
97
117
158
174
70
236
247
65
231
29
156
100
142
27
172
202
162
106
138
30
103
275
154
12
60
55
144
219
242
181
15
186
39
13
49
272
237
101
249
41
204
23
74
37
276
264
32
194
238
36
92
81
227
137
260
111
200
139
179
3
263
113
125
118
188
224
283
108
50
66
232
46
116
259
47
199
90
91
141
233
282
16
73
230
130
171
206
127
120
135
180
72
163
265
147
129
6
44
11
128
146
258
68
98
207
8
40
109
78
21
246
110
253
193
59
209
86
18
119
192
114
20
9
56
7
99
26
235
115
75
140
33
273
24
10
88
51
4
211
5

> <PUBCHEM_MMFF94_PARTIAL_CHARGES>
45
1 -0.57
10 0.03
11 -0.8
12 0.36
13 0.3
14 0.06
15 0.3
16 0.06
17 0.3
18 0.57
19 0.57
2 -0.57
24 0.27
25 0.27
26 0.57
27 0.27
28 0.27
29 0.36
3 -0.57
30 0.18
31 -0.18
32 0.57
34 -0.3
35 -0.15
36 -0.15
37 -0.15
38 -0.15
39 -0.15
4 -0.57
5 -0.66
6 -0.66
65 0.36
66 0.36
67 0.37
7 -0.9
71 0.15
72 0.27
73 0.37
74 0.37
75 0.15
76 0.15
77 0.15
78 0.15
8 -0.9
9 -0.73

> <PUBCHEM_EFFECTIVE_ROTOR_COUNT>
13.6

> <PUBCHEM_PHARMACOPHORE_FEATURES>
17
1 1 acceptor
1 10 cation
1 10 donor
1 11 donor
1 2 acceptor
1 3 acceptor
1 4 acceptor
1 7 cation
1 7 donor
1 8 cation
1 8 donor
1 9 donor
5 10 31 33 34 35 rings
6 33 35 36 37 38 39 rings
6 5 6 12 13 15 17 rings
6 7 14 20 21 24 25 rings
6 8 16 22 23 27 28 rings

> <PUBCHEM_HEAVY_ATOM_COUNT>
39

> <PUBCHEM_ATOM_DEF_STEREO_COUNT>
2

> <PUBCHEM_ATOM_UDEF_STEREO_COUNT>
0

> <PUBCHEM_BOND_DEF_STEREO_COUNT>
0

> <PUBCHEM_BOND_UDEF_STEREO_COUNT>
0

> <PUBCHEM_ISOTOPIC_ATOM_COUNT>
0

> <PUBCHEM_COMPONENT_COUNT>
1

> <PUBCHEM_CACTVS_TAUTO_COUNT>
4

> <PUBCHEM_CONFORMER_ID>
02B42A3200000001

> <PUBCHEM_MMFF94_ENERGY>
73.1388

> <PUBCHEM_FEATURE_SELFOVERLAP>
86.367

> <PUBCHEM_SHAPE_FINGERPRINT>
10119406 146 18056210081135220470
10454371 7 18341895207567999935
10581848 31 18269563899834078480
10675989 125 17253424601393025309
1100329 8 18412271657154622952
11007060 377 18411979131189733409
12608794 3 18051724279467125171
12788726 201 18199181785412152712
13811026 1 18343299302082878216
13911987 19 18336821975456062093
14400156 162 13326859932997903853
14765038 42 18058184838414900121
14767858 380 18341889654476258612
14931854 50 18269539586382373117
15975801 100 17459167643363778357
17627616 140 18263354790231365883
19319366 153 18261946337379839715
19958102 18 18265620879522389086
20511986 3 17749384845864410696
20587220 17 17050526283570213945
20587220 46 14899676325648819741
20764821 26 18339931540246974993
4066623 53 17978218689066522935
4258327 124 17750256814894962284
5171179 24 17984979551236240208
563151 97 18121218671567465677
5776283 40 18336817672009562373
6036956 94 18120091676486037245
6086070 43 18201432602147864722

> <PUBCHEM_SHAPE_MULTIPOLES>
744.26
15.99
5.46
1.86
24.29
2.51
0.46
-4.46
8.71
-5.74
-1.82
-1.97
-0.95
1.23

> <PUBCHEM_SHAPE_SELFOVERLAP>
1588.123

> <PUBCHEM_SHAPE_VOLUME>
406.1

> <PUBCHEM_COORDINATE_TYPE>
2
5
10

$$$$
