45783988
  -OEChem-12032416203D

 68 71  0     1  0  0  0  0  0999 V2000
   -2.3847   -0.6019   -1.0775 O   0  0  0  0  0  0  0  0  0  0  0  0
   -9.0141    1.4236    0.9776 O   0  5  0  0  0  0  0  0  0  0  0  0
   -8.6158   -0.5870    1.7639 O   0  0  0  0  0  0  0  0  0  0  0  0
    5.3260    0.0417   -0.1810 N   0  0  0  0  0  0  0  0  0  0  0  0
    7.8202    1.4954   -0.0257 N   0  0  0  0  0  0  0  0  0  0  0  0
   -1.3106    0.9294   -2.3047 N   0  0  0  0  0  0  0  0  0  0  0  0
   -2.5544    1.4379   -1.9802 N   0  0  0  0  0  0  0  0  0  0  0  0
   -8.2633    0.4276    1.1151 N   0  3  0  0  0  0  0  0  0  0  0  0
    2.5548   -0.1270    0.7585 C   0  0  1  0  0  0  0  0  0  0  0  0
    3.4507   -1.3719    0.5609 C   0  0  2  0  0  0  0  0  0  0  0  0
    1.4960   -0.0449   -0.3501 C   0  0  0  0  0  0  0  0  0  0  0  0
    0.6099   -1.3054   -0.4441 C   0  0  2  0  0  0  0  0  0  0  0  0
    1.9044   -0.1207    2.1486 C   0  0  0  0  0  0  0  0  0  0  0  0
    4.5221   -1.1342   -0.5082 C   0  0  0  0  0  0  0  0  0  0  0  0
    2.6592   -2.6041    0.2040 C   0  0  0  0  0  0  0  0  0  0  0  0
    1.3868   -2.5964   -0.2346 C   0  0  0  0  0  0  0  0  0  0  0  0
   -0.1458   -1.2741   -1.7785 C   0  0  0  0  0  0  0  0  0  0  0  0
    2.9291    0.2562    3.2138 C   0  0  0  0  0  0  0  0  0  0  0  0
    0.7178    0.8373    2.1764 C   0  0  0  0  0  0  0  0  0  0  0  0
    5.9669    0.5866   -1.3840 C   0  0  0  0  0  0  0  0  0  0  0  0
    6.3353   -0.2830    0.8345 C   0  0  0  0  0  0  0  0  0  0  0  0
    0.6617   -3.8912   -0.4794 C   0  0  0  0  0  0  0  0  0  0  0  0
    6.8108    1.8191   -1.0414 C   0  0  0  0  0  0  0  0  0  0  0  0
    7.1804    0.9487    1.1771 C   0  0  0  0  0  0  0  0  0  0  0  0
   -1.2553   -0.2622   -1.7571 C   0  0  0  0  0  0  0  0  0  0  0  0
    8.6224    2.6723    0.3023 C   0  0  0  0  0  0  0  0  0  0  0  0
   -3.1462    0.5107   -1.2640 C   0  0  0  0  0  0  0  0  0  0  0  0
   -4.4463    0.4898   -0.6589 C   0  0  0  0  0  0  0  0  0  0  0  0
   -5.2972    1.5866   -0.7962 C   0  0  0  0  0  0  0  0  0  0  0  0
   -4.8600   -0.6273    0.0669 C   0  0  0  0  0  0  0  0  0  0  0  0
   -6.5616    1.5665   -0.2077 C   0  0  0  0  0  0  0  0  0  0  0  0
   -6.1244   -0.6475    0.6555 C   0  0  0  0  0  0  0  0  0  0  0  0
   -6.9751    0.4494    0.5182 C   0  0  0  0  0  0  0  0  0  0  0  0
    3.1499    0.7919    0.6847 H   0  0  0  0  0  0  0  0  0  0  0  0
    3.9548   -1.6130    1.5020 H   0  0  0  0  0  0  0  0  0  0  0  0
    0.8880    0.8632   -0.2815 H   0  0  0  0  0  0  0  0  0  0  0  0
    2.0313    0.0792   -1.3023 H   0  0  0  0  0  0  0  0  0  0  0  0
   -0.1275   -1.2805    0.3685 H   0  0  0  0  0  0  0  0  0  0  0  0
    1.5213   -1.1178    2.3992 H   0  0  0  0  0  0  0  0  0  0  0  0
    5.1540   -2.0241   -0.6375 H   0  0  0  0  0  0  0  0  0  0  0  0
    4.0223   -0.9878   -1.4753 H   0  0  0  0  0  0  0  0  0  0  0  0
    3.1716   -3.5546    0.3378 H   0  0  0  0  0  0  0  0  0  0  0  0
    0.5306   -1.0601   -2.6149 H   0  0  0  0  0  0  0  0  0  0  0  0
   -0.6162   -2.2370   -2.0047 H   0  0  0  0  0  0  0  0  0  0  0  0
    3.3685    1.2400    3.0156 H   0  0  0  0  0  0  0  0  0  0  0  0
    3.7432   -0.4697    3.2844 H   0  0  0  0  0  0  0  0  0  0  0  0
    2.4573    0.2995    4.2020 H   0  0  0  0  0  0  0  0  0  0  0  0
    0.9940    1.8352    1.8178 H   0  0  0  0  0  0  0  0  0  0  0  0
    0.3637    0.9608    3.2073 H   0  0  0  0  0  0  0  0  0  0  0  0
   -0.1488    0.4823    1.6146 H   0  0  0  0  0  0  0  0  0  0  0  0
    5.2016    0.8899   -2.1090 H   0  0  0  0  0  0  0  0  0  0  0  0
    6.5965   -0.1716   -1.8693 H   0  0  0  0  0  0  0  0  0  0  0  0
    5.8628   -0.6229    1.7617 H   0  0  0  0  0  0  0  0  0  0  0  0
    6.9936   -1.0921    0.4895 H   0  0  0  0  0  0  0  0  0  0  0  0
    0.5449   -4.0769   -1.5512 H   0  0  0  0  0  0  0  0  0  0  0  0
    1.2001   -4.7470   -0.0571 H   0  0  0  0  0  0  0  0  0  0  0  0
   -0.3275   -3.8709   -0.0103 H   0  0  0  0  0  0  0  0  0  0  0  0
    7.3047    2.1644   -1.9578 H   0  0  0  0  0  0  0  0  0  0  0  0
    6.1554    2.6309   -0.6975 H   0  0  0  0  0  0  0  0  0  0  0  0
    6.5490    1.7049    1.6635 H   0  0  0  0  0  0  0  0  0  0  0  0
    7.9481    0.6498    1.9012 H   0  0  0  0  0  0  0  0  0  0  0  0
    9.1338    3.0497   -0.5901 H   0  0  0  0  0  0  0  0  0  0  0  0
    9.4032    2.4153    1.0268 H   0  0  0  0  0  0  0  0  0  0  0  0
    8.0166    3.4837    0.7216 H   0  0  0  0  0  0  0  0  0  0  0  0
   -4.9953    2.4676   -1.3576 H   0  0  0  0  0  0  0  0  0  0  0  0
   -4.2253   -1.5004    0.1958 H   0  0  0  0  0  0  0  0  0  0  0  0
   -7.1978    2.4385   -0.3357 H   0  0  0  0  0  0  0  0  0  0  0  0
   -6.4135   -1.5345    1.2134 H   0  0  0  0  0  0  0  0  0  0  0  0
  1 25  1  0  0  0  0
  1 27  1  0  0  0  0
  2  8  1  0  0  0  0
  3  8  2  0  0  0  0
  4 14  1  0  0  0  0
  4 20  1  0  0  0  0
  4 21  1  0  0  0  0
  5 23  1  0  0  0  0
  5 24  1  0  0  0  0
  5 26  1  0  0  0  0
  6  7  1  0  0  0  0
  6 25  2  0  0  0  0
  7 27  2  0  0  0  0
  8 33  1  0  0  0  0
  9 10  1  0  0  0  0
  9 11  1  0  0  0  0
  9 13  1  0  0  0  0
  9 34  1  0  0  0  0
 10 14  1  0  0  0  0
 10 15  1  0  0  0  0
 10 35  1  0  0  0  0
 11 12  1  0  0  0  0
 11 36  1  0  0  0  0
 11 37  1  0  0  0  0
 12 16  1  0  0  0  0
 12 17  1  0  0  0  0
 12 38  1  0  0  0  0
 13 18  1  0  0  0  0
 13 19  1  0  0  0  0
 13 39  1  0  0  0  0
 14 40  1  0  0  0  0
 14 41  1  0  0  0  0
 15 16  2  0  0  0  0
 15 42  1  0  0  0  0
 16 22  1  0  0  0  0
 17 25  1  0  0  0  0
 17 43  1  0  0  0  0
 17 44  1  0  0  0  0
 18 45  1  0  0  0  0
 18 46  1  0  0  0  0
 18 47  1  0  0  0  0
 19 48  1  0  0  0  0
 19 49  1  0  0  0  0
 19 50  1  0  0  0  0
 20 23  1  0  0  0  0
 20 51  1  0  0  0  0
 20 52  1  0  0  0  0
 21 24  1  0  0  0  0
 21 53  1  0  0  0  0
 21 54  1  0  0  0  0
 22 55  1  0  0  0  0
 22 56  1  0  0  0  0
 22 57  1  0  0  0  0
 23 58  1  0  0  0  0
 23 59  1  0  0  0  0
 24 60  1  0  0  0  0
 24 61  1  0  0  0  0
 26 62  1  0  0  0  0
 26 63  1  0  0  0  0
 26 64  1  0  0  0  0
 27 28  1  0  0  0  0
 28 29  2  0  0  0  0
 28 30  1  0  0  0  0
 29 31  1  0  0  0  0
 29 65  1  0  0  0  0
 30 32  2  0  0  0  0
 30 66  1  0  0  0  0
 31 33  2  0  0  0  0
 31 67  1  0  0  0  0
 32 33  1  0  0  0  0
 32 68  1  0  0  0  0
M  CHG  2   2  -1   8   1
M  END
> <PUBCHEM_COMPOUND_CID>
45783988

> <PUBCHEM_CONFORMER_RMSD>
1

> <PUBCHEM_CONFORMER_DIVERSEORDER>
33
140
259
238
186
220
16
153
240
94
103
63
26
66
173
191
34
123
14
128
20
178
176
99
111
243
86
205
50
109
218
120
175
239
72
221
150
192
13
254
106
199
24
213
133
165
126
83
5
189
80
41
30
130
190
245
185
197
46
10
70
69
212
38
211
151
154
85
162
242
82
148
12
214
22
64
27
200
113
183
135
258
182
172
18
136
101
78
52
217
61
62
89
188
112
42
253
9
110
93
247
91
60
202
132
84
168
97
235
250
49
232
180
179
47
124
40
224
256
149
75
7
249
92
161
105
19
144
96
215
65
116
32
104
142
222
194
160
227
146
45
35
6
252
129
244
44
181
193
137
139
167
246
11
98
203
100
55
68
219
29
152
164
43
226
4
57
234
207
187
155
169
48
102
196
17
241
229
143
53
125
225
204
166
54
170
95
228
236
201
21
198
209
36
88
147
237
257
121
248
184
51
231
108
174
127
8
171
71
262
138
77
25
216
145
56
74
39
158
114
122
117
251
76
263
15
163
79
261
90
260
81
107
177
2
23
223
37
59
118
233
58
131
141
115
210
31
230
195
208
255
28
87
67
119
159
157
73
1
134
3
156
206

> <PUBCHEM_MMFF94_PARTIAL_CHARGES>
33
1 -0.28
10 0.14
12 0.14
14 0.27
15 -0.29
16 -0.28
17 0.18
2 -0.52
20 0.27
21 0.27
22 0.14
23 0.27
24 0.27
25 0.3
26 0.27
27 0.43
28 0.05
29 -0.15
3 -0.52
30 -0.15
31 -0.15
32 -0.15
33 0.13
4 -0.81
42 0.15
5 -0.81
6 -0.34
65 0.15
66 0.15
67 0.15
68 0.15
7 -0.34
8 0.91

> <PUBCHEM_EFFECTIVE_ROTOR_COUNT>
9

> <PUBCHEM_PHARMACOPHORE_FEATURES>
10
1 2 acceptor
1 2 anion
1 3 acceptor
1 4 cation
1 5 cation
3 13 18 19 hydrophobe
5 1 6 7 25 27 rings
6 28 29 30 31 32 33 rings
6 4 5 20 21 23 24 rings
6 9 10 11 12 15 16 rings

> <PUBCHEM_HEAVY_ATOM_COUNT>
33

> <PUBCHEM_ATOM_DEF_STEREO_COUNT>
3

> <PUBCHEM_ATOM_UDEF_STEREO_COUNT>
0

> <PUBCHEM_BOND_DEF_STEREO_COUNT>
0

> <PUBCHEM_BOND_UDEF_STEREO_COUNT>
0

> <PUBCHEM_ISOTOPIC_ATOM_COUNT>
0

> <PUBCHEM_COMPONENT_COUNT>
1

> <PUBCHEM_CACTVS_TAUTO_COUNT>
1

> <PUBCHEM_CONFORMER_ID>
02BA9BB400000021

> <PUBCHEM_MMFF94_ENERGY>
73.9127

> <PUBCHEM_FEATURE_SELFOVERLAP>
50.829

> <PUBCHEM_SHAPE_FINGERPRINT>
10 15 18040997349742391702
10165383 225 18412826897615218126
10483366 6 15698006236572836948
106641 1 18186242844656850477
10670039 82 13830139369448235979
10673678 19 18411421696549476358
10674148 151 16271926021999819672
10816530 90 17203601606453520760
11115154 58 14979962479957181746
11135609 201 18336537283569614420
11146851 88 12468647114342724377
11479125 193 17973451185190213800
11578080 2 18053653957624808880
11621639 179 16630239234398272240
11796584 16 13614223907240789830
12013929 112 14476973267432343085
12596602 18 17386284286244773309
12838863 1 11674876705855051976
13627175 23 16702030798504173115
13692114 37 15574716894064993824
13914758 101 10375876281278472229
13947934 56 15068895319124764517
14114211 68 18271536325490075646
14400156 260 17131551652730142810
14747281 78 17560807654135040292
14849402 71 18339359763851300356
15183329 4 12823298991748260055
15188451 53 12035443935514083846
15276724 80 16559035969880595288
15320295 40 11314305066065479604
15347590 135 17385438813037003752
15475509 8 15769779048314057312
15728490 51 16877946065862491779
16126227 98 18338796823025111070
18393751 57 18113052744620459670
18608769 82 18412261757629558363
19302320 297 17968095378826815260
19315092 285 14635410655591236168
19315958 150 18337958883912781739
19319366 153 18272079449510897086
2026 5 10881396543701556657
21304304 249 10953456319756430872
21315764 119 13470398981127715093
21521721 280 18412543219694707450
22122407 14 17060341795806951539
22149856 69 18115316565947100405
22224240 67 18333449846139448487
22899556 10 18261109729781077002
22956985 138 12181776761535180656
23576562 1 15912745311417059121
25222932 49 16588023489865851475
25269216 80 16987988535223166383
3178227 256 18333453161906935604
3383291 50 16805903844467318683
3633792 109 13326852258387002730
38570 142 17489866055028908118
392239 28 16008750212725310356
4339292 15 8430332251406065192
45266715 3 7997698622530387488
474113 269 9222963560487017360
5104073 3 17751350686249047830
54076057 255 17632574946616445250
563151 248 16370719340679074762
57527295 17 17630588206953315238
5758199 1 18413389843125979175
59682541 35 17530685428679217196
9689198 14 18131355219428538868
9953998 17 18186803595634586355
9962374 69 17822584919169134799

> <PUBCHEM_SHAPE_MULTIPOLES>
636.61
25.29
2.54
2.14
18.74
1.89
0.77
-18.7
6.18
-2.86
-0.34
-0.07
-0.57
0.06

> <PUBCHEM_SHAPE_SELFOVERLAP>
1342.606

> <PUBCHEM_SHAPE_VOLUME>
357.8

> <PUBCHEM_COORDINATE_TYPE>
2
5
10

$$$$
