25314828
  -OEChem-12032416383D

 64 68  0     1  0  0  0  0  0999 V2000
    0.5204   -3.2052    1.7394 O   0  0  0  0  0  0  0  0  0  0  0  0
    1.2178   -5.0333    0.4932 O   0  0  0  0  0  0  0  0  0  0  0  0
   -0.1953   -4.2033   -1.8764 O   0  0  0  0  0  0  0  0  0  0  0  0
   -3.4939   -1.9247   -1.1111 O   0  0  0  0  0  0  0  0  0  0  0  0
    5.7034    1.1628    0.6629 O   0  0  0  0  0  0  0  0  0  0  0  0
    1.5208   -1.4219   -0.2768 N   0  0  0  0  0  0  0  0  0  0  0  0
   -1.7834   -1.9243    0.4435 N   0  0  0  0  0  0  0  0  0  0  0  0
    3.0608    0.9838   -0.2683 N   0  0  0  0  0  0  0  0  0  0  0  0
   -3.2062   -0.1290    0.3732 N   0  0  0  0  0  0  0  0  0  0  0  0
   -5.7434    5.0704    1.5980 N   0  0  0  0  0  0  0  0  0  0  0  0
    1.2597   -2.8408   -0.5270 C   0  0  2  0  0  0  0  0  0  0  0  0
   -0.1822   -3.0324   -1.0491 C   0  0  2  0  0  0  0  0  0  0  0  0
   -1.2254   -3.2081    0.0762 C   0  0  1  0  0  0  0  0  0  0  0  0
    1.4776   -3.6465    0.7669 C   0  0  1  0  0  0  0  0  0  0  0  0
   -0.6565   -3.9076    1.3279 C   0  0  1  0  0  0  0  0  0  0  0  0
   -0.0773   -5.2840    1.0602 C   0  0  0  0  0  0  0  0  0  0  0  0
    1.8143   -0.7228   -1.5337 C   0  0  0  0  0  0  0  0  0  0  0  0
    2.6421   -1.2617    0.6573 C   0  0  0  0  0  0  0  0  0  0  0  0
    2.0340    0.7729   -1.2933 C   0  0  0  0  0  0  0  0  0  0  0  0
    2.8884    0.2158    0.9713 C   0  0  0  0  0  0  0  0  0  0  0  0
   -2.8975   -1.3697   -0.1912 C   0  0  0  0  0  0  0  0  0  0  0  0
    3.7236    2.2139   -0.1926 C   0  0  0  0  0  0  0  0  0  0  0  0
    5.0367    2.2856    0.2724 C   0  0  0  0  0  0  0  0  0  0  0  0
    3.0592    3.3750   -0.5874 C   0  0  0  0  0  0  0  0  0  0  0  0
    5.6853    3.5185    0.3426 C   0  0  0  0  0  0  0  0  0  0  0  0
    3.7078    4.6080   -0.5172 C   0  0  0  0  0  0  0  0  0  0  0  0
   -4.2560    0.7495    0.0173 C   0  0  0  0  0  0  0  0  0  0  0  0
    5.0209    4.6797   -0.0522 C   0  0  0  0  0  0  0  0  0  0  0  0
   -4.4143    1.9587    0.6944 C   0  0  0  0  0  0  0  0  0  0  0  0
   -5.1331    0.4064   -1.0115 C   0  0  0  0  0  0  0  0  0  0  0  0
    6.4486    0.4718   -0.3375 C   0  0  0  0  0  0  0  0  0  0  0  0
   -5.4496    2.8247    0.3426 C   0  0  0  0  0  0  0  0  0  0  0  0
   -6.1685    1.2724   -1.3632 C   0  0  0  0  0  0  0  0  0  0  0  0
   -6.3268    2.4816   -0.6862 C   0  0  0  0  0  0  0  0  0  0  0  0
   -5.6118    4.0639    1.0354 C   0  0  0  0  0  0  0  0  0  0  0  0
    1.9652   -3.2396   -1.2705 H   0  0  0  0  0  0  0  0  0  0  0  0
   -0.4839   -2.2206   -1.7184 H   0  0  0  0  0  0  0  0  0  0  0  0
   -2.0541   -3.8243   -0.2958 H   0  0  0  0  0  0  0  0  0  0  0  0
    2.4931   -3.6193    1.1697 H   0  0  0  0  0  0  0  0  0  0  0  0
   -1.3908   -3.9213    2.1400 H   0  0  0  0  0  0  0  0  0  0  0  0
    0.0831   -5.8300    1.9961 H   0  0  0  0  0  0  0  0  0  0  0  0
   -0.6804   -5.9002    0.3881 H   0  0  0  0  0  0  0  0  0  0  0  0
    0.9951   -0.8216   -2.2530 H   0  0  0  0  0  0  0  0  0  0  0  0
    2.7106   -1.1449   -2.0089 H   0  0  0  0  0  0  0  0  0  0  0  0
    3.5624   -1.7093    0.2581 H   0  0  0  0  0  0  0  0  0  0  0  0
    2.4440   -1.6826    1.6468 H   0  0  0  0  0  0  0  0  0  0  0  0
   -1.2963   -1.3697    1.1408 H   0  0  0  0  0  0  0  0  0  0  0  0
    2.3364    1.2281   -2.2447 H   0  0  0  0  0  0  0  0  0  0  0  0
    1.0895    1.2351   -0.9785 H   0  0  0  0  0  0  0  0  0  0  0  0
    2.0299    0.6261    1.5205 H   0  0  0  0  0  0  0  0  0  0  0  0
    3.7465    0.2861    1.6463 H   0  0  0  0  0  0  0  0  0  0  0  0
   -1.0880   -4.2869   -2.2531 H   0  0  0  0  0  0  0  0  0  0  0  0
    2.0319    3.3615   -0.9401 H   0  0  0  0  0  0  0  0  0  0  0  0
   -2.6088    0.1883    1.1324 H   0  0  0  0  0  0  0  0  0  0  0  0
    6.7079    3.5823    0.7047 H   0  0  0  0  0  0  0  0  0  0  0  0
    3.1896    5.5128   -0.8210 H   0  0  0  0  0  0  0  0  0  0  0  0
    5.5256    5.6398    0.0034 H   0  0  0  0  0  0  0  0  0  0  0  0
   -3.7288    2.2246    1.4967 H   0  0  0  0  0  0  0  0  0  0  0  0
   -5.0759   -0.5101   -1.5814 H   0  0  0  0  0  0  0  0  0  0  0  0
    6.9080   -0.4065    0.1239 H   0  0  0  0  0  0  0  0  0  0  0  0
    7.2412    1.1129   -0.7361 H   0  0  0  0  0  0  0  0  0  0  0  0
    5.7926    0.1374   -1.1475 H   0  0  0  0  0  0  0  0  0  0  0  0
   -6.8522    1.0062   -2.1643 H   0  0  0  0  0  0  0  0  0  0  0  0
   -7.1386    3.1462   -0.9721 H   0  0  0  0  0  0  0  0  0  0  0  0
  1 14  1  0  0  0  0
  1 15  1  0  0  0  0
  2 14  1  0  0  0  0
  2 16  1  0  0  0  0
  3 12  1  0  0  0  0
  3 52  1  0  0  0  0
  4 21  2  0  0  0  0
  5 23  1  0  0  0  0
  5 31  1  0  0  0  0
  6 11  1  0  0  0  0
  6 17  1  0  0  0  0
  6 18  1  0  0  0  0
  7 13  1  0  0  0  0
  7 21  1  0  0  0  0
  7 47  1  0  0  0  0
  8 19  1  0  0  0  0
  8 20  1  0  0  0  0
  8 22  1  0  0  0  0
  9 21  1  0  0  0  0
  9 27  1  0  0  0  0
  9 54  1  0  0  0  0
 10 35  3  0  0  0  0
 11 12  1  0  0  0  0
 11 14  1  0  0  0  0
 11 36  1  0  0  0  0
 12 13  1  0  0  0  0
 12 37  1  0  0  0  0
 13 15  1  0  0  0  0
 13 38  1  0  0  0  0
 14 39  1  0  0  0  0
 15 16  1  0  0  0  0
 15 40  1  0  0  0  0
 16 41  1  0  0  0  0
 16 42  1  0  0  0  0
 17 19  1  0  0  0  0
 17 43  1  0  0  0  0
 17 44  1  0  0  0  0
 18 20  1  0  0  0  0
 18 45  1  0  0  0  0
 18 46  1  0  0  0  0
 19 48  1  0  0  0  0
 19 49  1  0  0  0  0
 20 50  1  0  0  0  0
 20 51  1  0  0  0  0
 22 23  1  0  0  0  0
 22 24  2  0  0  0  0
 23 25  2  0  0  0  0
 24 26  1  0  0  0  0
 24 53  1  0  0  0  0
 25 28  1  0  0  0  0
 25 55  1  0  0  0  0
 26 28  2  0  0  0  0
 26 56  1  0  0  0  0
 27 29  1  0  0  0  0
 27 30  2  0  0  0  0
 28 57  1  0  0  0  0
 29 32  2  0  0  0  0
 29 58  1  0  0  0  0
 30 33  1  0  0  0  0
 30 59  1  0  0  0  0
 31 60  1  0  0  0  0
 31 61  1  0  0  0  0
 31 62  1  0  0  0  0
 32 34  1  0  0  0  0
 32 35  1  0  0  0  0
 33 34  2  0  0  0  0
 33 63  1  0  0  0  0
 34 64  1  0  0  0  0
M  END
> <PUBCHEM_COMPOUND_CID>
25314828

> <PUBCHEM_CONFORMER_RMSD>
1.4

> <PUBCHEM_CONFORMER_DIVERSEORDER>
1
2
20
72
85
34
94
58
19
81
45
90
87
26
95
96
10
47
62
43
33
92
27
60
44
32
59
78
46
36
61
84
76
29
82
40
68
31
88
93
77
64
28
79
35
39
66
25
49
80
70
75
56
86
38
23
6
50
24
17
53
14
91
63
41
89
15
37
12
18
74
73
21
9
48
65
16
67
11
4
8
22
30
52
71
13
51
83
54
3
55
57
69
5
42
7

> <PUBCHEM_MMFF94_PARTIAL_CHARGES>
46
1 -0.56
10 -0.56
11 0.27
12 0.28
13 0.3
14 0.56
15 0.28
16 0.28
17 0.27
18 0.27
19 0.37
2 -0.56
20 0.37
21 0.69
22 0.1
23 0.08
24 -0.15
25 -0.15
26 -0.15
27 0.12
28 -0.15
29 -0.15
3 -0.68
30 -0.15
31 0.28
32 0.07
33 -0.15
34 -0.15
35 0.48
4 -0.57
47 0.37
5 -0.36
52 0.4
53 0.15
54 0.37
55 0.15
56 0.15
57 0.15
58 0.15
59 0.15
6 -0.81
63 0.15
64 0.15
7 -0.73
8 -0.84
9 -0.55

> <PUBCHEM_EFFECTIVE_ROTOR_COUNT>
9.4

> <PUBCHEM_PHARMACOPHORE_FEATURES>
15
1 1 acceptor
1 10 acceptor
1 2 acceptor
1 3 acceptor
1 3 donor
1 4 acceptor
1 5 acceptor
1 6 cation
1 7 donor
1 8 cation
1 9 donor
6 22 23 24 25 26 28 rings
6 27 29 30 32 33 34 rings
6 6 8 17 18 19 20 rings
8 1 2 11 12 13 14 15 16 rings

> <PUBCHEM_HEAVY_ATOM_COUNT>
35

> <PUBCHEM_ATOM_DEF_STEREO_COUNT>
5

> <PUBCHEM_ATOM_UDEF_STEREO_COUNT>
0

> <PUBCHEM_BOND_DEF_STEREO_COUNT>
0

> <PUBCHEM_BOND_UDEF_STEREO_COUNT>
0

> <PUBCHEM_ISOTOPIC_ATOM_COUNT>
0

> <PUBCHEM_COMPONENT_COUNT>
1

> <PUBCHEM_CACTVS_TAUTO_COUNT>
3

> <PUBCHEM_CONFORMER_ID>
0182460C00000001

> <PUBCHEM_MMFF94_ENERGY>
128.6906

> <PUBCHEM_FEATURE_SELFOVERLAP>
76.229

> <PUBCHEM_SHAPE_FINGERPRINT>
10439779 11 18120926476484331104
10675989 125 18268153054632917073
10937287 8 18408885174204654587
11059845 2 18191013703115107744
11477941 20 17048512441485694142
11479125 193 18340218405856451633
12107183 9 18261658373244777544
12788726 201 17905875226126604267
13965767 371 17894622656375930470
14251764 75 18412549799569066673
14849402 71 18264768749025652595
15064981 113 17703234039516275364
15320291 9 17834395996632724853
15326921 28 18054216915793670512
15400415 2 18409448111290031133
15980000 95 17689151206714978642
16067689 134 18409169884077417394
16112460 7 18410006607419388388
16728433 281 18049462606125811700
16992779 147 18123207722820216505
21591340 35 18339929207868827585
21796203 349 16953341674692722554
24204213 92 17413604844146171790
376196 1 18341338846094819887
4058900 60 18409733945525606825
4144715 1 18047197625251205138
44280116 191 18123771780184817700
5951187 136 17985557658577538301
6036956 94 17613439261138266013
6201320 215 17691686002129857336
6201320 77 14998501234002232008
6371380 46 18409173208240011534
9849439 229 18408045134631180957
9981440 41 18261958556614310899

> <PUBCHEM_SHAPE_MULTIPOLES>
666.03
15.39
8.89
1.35
8.1
2.55
-0.1
-28.15
0.05
-0.22
2.51
0.83
0.51
-1.89

> <PUBCHEM_SHAPE_SELFOVERLAP>
1439.322

> <PUBCHEM_SHAPE_VOLUME>
358.7

> <PUBCHEM_COORDINATE_TYPE>
2
5
10

$$$$
