75536677
  -OEChem-12032416403D

 54 56  0     1  0  0  0  0  0999 V2000
    4.9134    1.5807   -0.1163 S   0  0  0  0  0  0  0  0  0  0  0  0
    0.6339    0.6940   -1.4459 O   0  0  0  0  0  0  0  0  0  0  0  0
   -0.1850    0.6677    2.0518 O   0  0  0  0  0  0  0  0  0  0  0  0
   -8.2375    0.7214    1.0478 O   0  0  0  0  0  0  0  0  0  0  0  0
    4.8532    2.1809    1.2028 O   0  0  0  0  0  0  0  0  0  0  0  0
    5.6550    2.2304   -1.1801 O   0  0  0  0  0  0  0  0  0  0  0  0
   -2.3151   -0.6837    0.1777 N   0  0  0  0  0  0  0  0  0  0  0  0
   -6.4751   -0.0690   -0.2433 N   0  0  0  0  0  0  0  0  0  0  0  0
    3.3345    1.2566   -0.6606 N   0  0  0  0  0  0  0  0  0  0  0  0
   -1.2821    0.3013   -0.0982 C   0  0  1  0  0  0  0  0  0  0  0  0
   -3.5915   -0.2727   -0.4018 C   0  0  0  0  0  0  0  0  0  0  0  0
   -0.0362    0.1316    0.7514 C   0  0  1  0  0  0  0  0  0  0  0  0
    0.9859    0.9069   -0.0687 C   0  0  1  0  0  0  0  0  0  0  0  0
   -0.7086    0.1804   -1.5005 C   0  0  0  0  0  0  0  0  0  0  0  0
   -4.4956   -1.4955   -0.6051 C   0  0  0  0  0  0  0  0  0  0  0  0
   -4.2764    0.7550    0.5081 C   0  0  0  0  0  0  0  0  0  0  0  0
   -5.8726   -1.0792   -1.1221 C   0  0  0  0  0  0  0  0  0  0  0  0
   -5.6565    1.1267   -0.0313 C   0  0  0  0  0  0  0  0  0  0  0  0
    2.4155    0.4553    0.1714 C   0  0  0  0  0  0  0  0  0  0  0  0
   -7.7379   -0.1580    0.3414 C   0  0  0  0  0  0  0  0  0  0  0  0
   -8.5171   -1.4217    0.0777 C   0  0  0  0  0  0  0  0  0  0  0  0
    5.5782   -0.0481    0.0560 C   0  0  0  0  0  0  0  0  0  0  0  0
    6.2270   -0.6538   -1.0199 C   0  0  0  0  0  0  0  0  0  0  0  0
    5.4505   -0.7291    1.2665 C   0  0  0  0  0  0  0  0  0  0  0  0
    6.7482   -1.9407   -0.8854 C   0  0  0  0  0  0  0  0  0  0  0  0
    5.9716   -2.0158    1.4013 C   0  0  0  0  0  0  0  0  0  0  0  0
    6.6205   -2.6216    0.3253 C   0  0  0  0  0  0  0  0  0  0  0  0
   -1.6494    1.3224    0.0632 H   0  0  0  0  0  0  0  0  0  0  0  0
   -3.4387    0.1748   -1.3929 H   0  0  0  0  0  0  0  0  0  0  0  0
    0.2437   -0.9260    0.8348 H   0  0  0  0  0  0  0  0  0  0  0  0
    0.9073    1.9846    0.1265 H   0  0  0  0  0  0  0  0  0  0  0  0
   -2.4162   -0.8157    1.1835 H   0  0  0  0  0  0  0  0  0  0  0  0
   -0.6418   -0.8614   -1.8347 H   0  0  0  0  0  0  0  0  0  0  0  0
   -1.2796    0.7448   -2.2438 H   0  0  0  0  0  0  0  0  0  0  0  0
   -4.6188   -2.0312    0.3457 H   0  0  0  0  0  0  0  0  0  0  0  0
   -4.0354   -2.1955   -1.3129 H   0  0  0  0  0  0  0  0  0  0  0  0
   -3.6855    1.6717    0.6042 H   0  0  0  0  0  0  0  0  0  0  0  0
   -4.3932    0.3411    1.5189 H   0  0  0  0  0  0  0  0  0  0  0  0
   -5.7863   -0.6303   -2.1188 H   0  0  0  0  0  0  0  0  0  0  0  0
   -6.5036   -1.9641   -1.2217 H   0  0  0  0  0  0  0  0  0  0  0  0
   -5.5668    1.6381   -0.9971 H   0  0  0  0  0  0  0  0  0  0  0  0
   -6.1484    1.8180    0.6603 H   0  0  0  0  0  0  0  0  0  0  0  0
    2.5355   -0.5949   -0.1173 H   0  0  0  0  0  0  0  0  0  0  0  0
    2.6606    0.5659    1.2319 H   0  0  0  0  0  0  0  0  0  0  0  0
   -0.4353    1.6035    1.9701 H   0  0  0  0  0  0  0  0  0  0  0  0
    3.1635    1.2230   -1.6734 H   0  0  0  0  0  0  0  0  0  0  0  0
   -7.9714   -2.2889    0.4591 H   0  0  0  0  0  0  0  0  0  0  0  0
   -8.7115   -1.5299   -0.9926 H   0  0  0  0  0  0  0  0  0  0  0  0
   -9.4799   -1.3704    0.5955 H   0  0  0  0  0  0  0  0  0  0  0  0
    6.3308   -0.1453   -1.9741 H   0  0  0  0  0  0  0  0  0  0  0  0
    4.9466   -0.2779    2.1165 H   0  0  0  0  0  0  0  0  0  0  0  0
    7.2517   -2.4133   -1.7236 H   0  0  0  0  0  0  0  0  0  0  0  0
    5.8714   -2.5466    2.3435 H   0  0  0  0  0  0  0  0  0  0  0  0
    7.0257   -3.6239    0.4300 H   0  0  0  0  0  0  0  0  0  0  0  0
  1  5  2  0  0  0  0
  1  6  2  0  0  0  0
  1  9  1  0  0  0  0
  1 22  1  0  0  0  0
  2 13  1  0  0  0  0
  2 14  1  0  0  0  0
  3 12  1  0  0  0  0
  3 45  1  0  0  0  0
  4 20  2  0  0  0  0
  7 10  1  0  0  0  0
  7 11  1  0  0  0  0
  7 32  1  0  0  0  0
  8 17  1  0  0  0  0
  8 18  1  0  0  0  0
  8 20  1  0  0  0  0
  9 19  1  0  0  0  0
  9 46  1  0  0  0  0
 10 12  1  0  0  0  0
 10 14  1  0  0  0  0
 10 28  1  0  0  0  0
 11 15  1  0  0  0  0
 11 16  1  0  0  0  0
 11 29  1  0  0  0  0
 12 13  1  0  0  0  0
 12 30  1  0  0  0  0
 13 19  1  0  0  0  0
 13 31  1  0  0  0  0
 14 33  1  0  0  0  0
 14 34  1  0  0  0  0
 15 17  1  0  0  0  0
 15 35  1  0  0  0  0
 15 36  1  0  0  0  0
 16 18  1  0  0  0  0
 16 37  1  0  0  0  0
 16 38  1  0  0  0  0
 17 39  1  0  0  0  0
 17 40  1  0  0  0  0
 18 41  1  0  0  0  0
 18 42  1  0  0  0  0
 19 43  1  0  0  0  0
 19 44  1  0  0  0  0
 20 21  1  0  0  0  0
 21 47  1  0  0  0  0
 21 48  1  0  0  0  0
 21 49  1  0  0  0  0
 22 23  2  0  0  0  0
 22 24  1  0  0  0  0
 23 25  1  0  0  0  0
 23 50  1  0  0  0  0
 24 26  2  0  0  0  0
 24 51  1  0  0  0  0
 25 27  2  0  0  0  0
 25 52  1  0  0  0  0
 26 27  1  0  0  0  0
 26 53  1  0  0  0  0
 27 54  1  0  0  0  0
M  END
> <PUBCHEM_COMPOUND_CID>
75536677

> <PUBCHEM_CONFORMER_RMSD>
1

> <PUBCHEM_CONFORMER_DIVERSEORDER>
1
94
43
74
106
29
113
92
140
90
61
63
59
98
77
135
125
117
120
163
7
64
181
70
123
47
108
97
91
72
82
130
122
116
81
172
157
50
14
20
44
80
109
171
154
27
158
155
45
79
145
139
33
133
118
153
124
152
148
5
40
162
112
161
65
127
58
128
115
159
69
114
105
23
53
156
24
10
42
177
174
147
78
89
100
11
138
176
151
66
39
121
168
149
143
19
30
28
166
51
165
67
146
110
170
150
175
142
55
71
180
57
4
83
54
26
9
37
36
179
129
13
46
99
141
8
68
38
169
167
131
103
160
49
136
17
6
18
102
75
3
34
62
12
111
137
15
84
178
31
173
101
52
93
76
132
88
119
144
96
56
21
126
86
85
25
73
2
22
60
107
164
134
16
48
41
35
95
87
32
104

> <PUBCHEM_MMFF94_PARTIAL_CHARGES>
33
1 1.45
10 0.27
11 0.27
12 0.28
13 0.28
14 0.28
17 0.3
18 0.3
19 0.36
2 -0.56
20 0.57
21 0.06
22 -0.01
23 -0.15
24 -0.15
25 -0.15
26 -0.15
27 -0.15
3 -0.68
32 0.36
4 -0.57
45 0.4
46 0.42
5 -0.65
50 0.15
51 0.15
52 0.15
53 0.15
54 0.15
6 -0.65
7 -0.9
8 -0.66
9 -0.91

> <PUBCHEM_EFFECTIVE_ROTOR_COUNT>
9.2

> <PUBCHEM_PHARMACOPHORE_FEATURES>
12
1 2 acceptor
1 3 acceptor
1 3 donor
1 4 acceptor
1 5 acceptor
1 6 acceptor
1 7 cation
1 7 donor
1 9 donor
5 2 10 12 13 14 rings
6 22 23 24 25 26 27 rings
6 8 11 15 16 17 18 rings

> <PUBCHEM_HEAVY_ATOM_COUNT>
27

> <PUBCHEM_ATOM_DEF_STEREO_COUNT>
3

> <PUBCHEM_ATOM_UDEF_STEREO_COUNT>
0

> <PUBCHEM_BOND_DEF_STEREO_COUNT>
0

> <PUBCHEM_BOND_UDEF_STEREO_COUNT>
0

> <PUBCHEM_ISOTOPIC_ATOM_COUNT>
0

> <PUBCHEM_COMPONENT_COUNT>
1

> <PUBCHEM_CACTVS_TAUTO_COUNT>
1

> <PUBCHEM_CONFORMER_ID>
0480992500000001

> <PUBCHEM_MMFF94_ENERGY>
40.4305

> <PUBCHEM_FEATURE_SELFOVERLAP>
60.916

> <PUBCHEM_SHAPE_FINGERPRINT>
10 15 15554440817053437010
10066227 49 18408885105596428339
10299344 5 18410575085074762951
11719270 70 17418377982402744206
12089408 11 18272370898133891135
12236239 1 18261109690819603293
125118 31 10880000163512053859
13533116 47 18411697695479671200
13782708 43 18412538833942326247
13914758 101 18341897355468366145
14251764 18 18343582962949938407
14347332 77 18115298974156623372
14347424 109 18131064948844329984
15119646 104 18342459222694649734
15183329 4 18333732403310397186
15301273 46 17240199928762288325
1577012 14 18059572537536156053
1754908 1 14764347172040700607
20281389 69 18342457054110841449
20554085 129 15626220200095049759
21130935 74 18341610472938243819
21150785 3 13262683633711868455
21344244 181 17676488328660293466
21344244 78 17774992472350748960
21792934 111 15554452855445704697
2215653 11 17530967969287566474
22956985 138 17199969756370472654
23081809 10 18343302595341768581
23536379 177 18411417323581724125
23559900 14 18200023088286162849
23569943 247 17678449766919795482
23576562 1 13985246448118115551
3004659 81 18413952785206572134
328311 84 17894915122521773203
33532 11 18260546714611328467
34797466 226 15791736312969788478
394071 54 16950850318731011004
4073 2 18116434937192770738
4197921 191 18411425020321952280
5085150 59 17203606008452699239
5372103 7 14708362261032733742
59755656 520 18113616820551502035
60111433 81 8429154656867750626
6441014 3 16620701847565355974
9831232 110 18339080363871223910

> <PUBCHEM_SHAPE_MULTIPOLES>
515.21
26.37
2.05
1.32
24.75
0.34
0.13
9.73
1.6
-4.14
0.04
-0.96
-0.03
-1.22

> <PUBCHEM_SHAPE_SELFOVERLAP>
1053.974

> <PUBCHEM_SHAPE_VOLUME>
297.9

> <PUBCHEM_COORDINATE_TYPE>
2
5
10

$$$$
