40778188
  -OEChem-12032416173D

 64 67  0     1  0  0  0  0  0999 V2000
    8.2460    0.0383   -0.3555 F   0  0  0  0  0  0  0  0  0  0  0  0
   -4.0633    0.8327    0.8731 O   0  0  0  0  0  0  0  0  0  0  0  0
   -5.8006    2.5049   -0.9816 O   0  0  0  0  0  0  0  0  0  0  0  0
   -6.2620   -0.0749   -1.8180 O   0  0  0  0  0  0  0  0  0  0  0  0
   -1.7646    2.6195    1.5649 O   0  0  0  0  0  0  0  0  0  0  0  0
   -2.4090   -1.2882    2.1959 O   0  0  0  0  0  0  0  0  0  0  0  0
    0.0571    1.8496    0.3450 N   0  0  0  0  0  0  0  0  0  0  0  0
    2.8826    1.2736    0.0892 N   0  0  0  0  0  0  0  0  0  0  0  0
   -3.5803   -1.9027    0.2896 N   0  0  0  0  0  0  0  0  0  0  0  0
   -3.6832    1.8295   -0.1031 C   0  0  2  0  0  0  0  0  0  0  0  0
   -4.6631    1.6904   -1.2629 C   0  0  1  0  0  0  0  0  0  0  0  0
   -5.0350    0.2240   -1.1873 C   0  0  1  0  0  0  0  0  0  0  0  0
   -5.0969    0.0026    0.3147 C   0  0  1  0  0  0  0  0  0  0  0  0
   -2.2399    1.5600   -0.5064 C   0  0  0  0  0  0  0  0  0  0  0  0
   -4.8671   -1.4423    0.7203 C   0  0  0  0  0  0  0  0  0  0  0  0
   -1.3043    2.0596    0.5671 C   0  0  0  0  0  0  0  0  0  0  0  0
    0.6021    1.1842   -0.8406 C   0  0  0  0  0  0  0  0  0  0  0  0
    1.0267    2.2988    1.3408 C   0  0  0  0  0  0  0  0  0  0  0  0
    2.0665    1.5394   -1.0981 C   0  0  0  0  0  0  0  0  0  0  0  0
    2.2461    1.3817    1.4050 C   0  0  0  0  0  0  0  0  0  0  0  0
    4.2353    0.9617   -0.0229 C   0  0  0  0  0  0  0  0  0  0  0  0
   -2.4356   -1.7873    1.0739 C   0  0  0  0  0  0  0  0  0  0  0  0
    4.9829    1.4730   -1.0838 C   0  0  0  0  0  0  0  0  0  0  0  0
    4.8428    0.1390    0.9256 C   0  0  0  0  0  0  0  0  0  0  0  0
   -1.1734   -2.2894    0.4728 C   0  0  0  0  0  0  0  0  0  0  0  0
    6.3377    1.1614   -1.1964 C   0  0  0  0  0  0  0  0  0  0  0  0
    6.1977   -0.1727    0.8131 C   0  0  0  0  0  0  0  0  0  0  0  0
    6.9452    0.3385   -0.2479 C   0  0  0  0  0  0  0  0  0  0  0  0
   -0.1407   -2.7419    1.2941 C   0  0  0  0  0  0  0  0  0  0  0  0
   -1.0207   -2.3078   -0.9135 C   0  0  0  0  0  0  0  0  0  0  0  0
    1.0445   -3.2124    0.7293 C   0  0  0  0  0  0  0  0  0  0  0  0
    0.1646   -2.7783   -1.4786 C   0  0  0  0  0  0  0  0  0  0  0  0
    1.1972   -3.2306   -0.6571 C   0  0  0  0  0  0  0  0  0  0  0  0
    2.4649   -3.7339   -1.2608 C   0  0  0  0  0  0  0  0  0  0  0  0
   -3.7961    2.8124    0.3687 H   0  0  0  0  0  0  0  0  0  0  0  0
   -4.2709    1.9897   -2.2390 H   0  0  0  0  0  0  0  0  0  0  0  0
   -4.2464   -0.3723   -1.6591 H   0  0  0  0  0  0  0  0  0  0  0  0
   -6.0595    0.3360    0.7223 H   0  0  0  0  0  0  0  0  0  0  0  0
   -2.0174    2.1167   -1.4232 H   0  0  0  0  0  0  0  0  0  0  0  0
   -2.0619    0.4964   -0.6748 H   0  0  0  0  0  0  0  0  0  0  0  0
   -5.6242   -2.0978    0.2782 H   0  0  0  0  0  0  0  0  0  0  0  0
   -4.9230   -1.5364    1.8105 H   0  0  0  0  0  0  0  0  0  0  0  0
    0.0076    1.4252   -1.7253 H   0  0  0  0  0  0  0  0  0  0  0  0
    0.5111    0.1102   -0.6593 H   0  0  0  0  0  0  0  0  0  0  0  0
    0.5523    2.3621    2.3260 H   0  0  0  0  0  0  0  0  0  0  0  0
    1.3259    3.3150    1.0561 H   0  0  0  0  0  0  0  0  0  0  0  0
    2.4098    0.9440   -1.9531 H   0  0  0  0  0  0  0  0  0  0  0  0
    2.1515    2.5997   -1.3659 H   0  0  0  0  0  0  0  0  0  0  0  0
    2.9434    1.7956    2.1436 H   0  0  0  0  0  0  0  0  0  0  0  0
    1.9415    0.3835    1.7428 H   0  0  0  0  0  0  0  0  0  0  0  0
   -5.5100    3.4323   -1.0169 H   0  0  0  0  0  0  0  0  0  0  0  0
   -6.1900    0.2083   -2.7454 H   0  0  0  0  0  0  0  0  0  0  0  0
   -3.5407   -2.3759   -0.6069 H   0  0  0  0  0  0  0  0  0  0  0  0
    4.5438    2.1288   -1.8306 H   0  0  0  0  0  0  0  0  0  0  0  0
    4.2851   -0.2870    1.7552 H   0  0  0  0  0  0  0  0  0  0  0  0
    6.9211    1.5617   -2.0203 H   0  0  0  0  0  0  0  0  0  0  0  0
    6.6705   -0.8162    1.5492 H   0  0  0  0  0  0  0  0  0  0  0  0
   -0.2427   -2.7386    2.3761 H   0  0  0  0  0  0  0  0  0  0  0  0
   -1.7877   -1.9377   -1.5873 H   0  0  0  0  0  0  0  0  0  0  0  0
    1.8416   -3.5637    1.3793 H   0  0  0  0  0  0  0  0  0  0  0  0
    0.2737   -2.7823   -2.5598 H   0  0  0  0  0  0  0  0  0  0  0  0
    2.4131   -4.8190   -1.3940 H   0  0  0  0  0  0  0  0  0  0  0  0
    2.6521   -3.2700   -2.2352 H   0  0  0  0  0  0  0  0  0  0  0  0
    3.3241   -3.4970   -0.6239 H   0  0  0  0  0  0  0  0  0  0  0  0
  1 28  1  0  0  0  0
  2 10  1  0  0  0  0
  2 13  1  0  0  0  0
  3 11  1  0  0  0  0
  3 51  1  0  0  0  0
  4 12  1  0  0  0  0
  4 52  1  0  0  0  0
  5 16  2  0  0  0  0
  6 22  2  0  0  0  0
  7 16  1  0  0  0  0
  7 17  1  0  0  0  0
  7 18  1  0  0  0  0
  8 19  1  0  0  0  0
  8 20  1  0  0  0  0
  8 21  1  0  0  0  0
  9 15  1  0  0  0  0
  9 22  1  0  0  0  0
  9 53  1  0  0  0  0
 10 11  1  0  0  0  0
 10 14  1  0  0  0  0
 10 35  1  0  0  0  0
 11 12  1  0  0  0  0
 11 36  1  0  0  0  0
 12 13  1  0  0  0  0
 12 37  1  0  0  0  0
 13 15  1  0  0  0  0
 13 38  1  0  0  0  0
 14 16  1  0  0  0  0
 14 39  1  0  0  0  0
 14 40  1  0  0  0  0
 15 41  1  0  0  0  0
 15 42  1  0  0  0  0
 17 19  1  0  0  0  0
 17 43  1  0  0  0  0
 17 44  1  0  0  0  0
 18 20  1  0  0  0  0
 18 45  1  0  0  0  0
 18 46  1  0  0  0  0
 19 47  1  0  0  0  0
 19 48  1  0  0  0  0
 20 49  1  0  0  0  0
 20 50  1  0  0  0  0
 21 23  2  0  0  0  0
 21 24  1  0  0  0  0
 22 25  1  0  0  0  0
 23 26  1  0  0  0  0
 23 54  1  0  0  0  0
 24 27  2  0  0  0  0
 24 55  1  0  0  0  0
 25 29  2  0  0  0  0
 25 30  1  0  0  0  0
 26 28  2  0  0  0  0
 26 56  1  0  0  0  0
 27 28  1  0  0  0  0
 27 57  1  0  0  0  0
 29 31  1  0  0  0  0
 29 58  1  0  0  0  0
 30 32  2  0  0  0  0
 30 59  1  0  0  0  0
 31 33  2  0  0  0  0
 31 60  1  0  0  0  0
 32 33  1  0  0  0  0
 32 61  1  0  0  0  0
 33 34  1  0  0  0  0
 34 62  1  0  0  0  0
 34 63  1  0  0  0  0
 34 64  1  0  0  0  0
M  END
> <PUBCHEM_COMPOUND_CID>
40778188

> <PUBCHEM_CONFORMER_RMSD>
1

> <PUBCHEM_CONFORMER_DIVERSEORDER>
1
123
147
155
29
115
21
27
82
224
130
153
188
143
207
190
12
55
219
223
35
172
182
167
53
213
80
42
113
51
218
100
39
199
24
144
201
75
101
133
121
145
18
86
136
156
177
87
59
33
97
159
203
183
220
187
54
150
135
146
58
217
178
46
205
175
93
215
50
43
212
23
102
204
214
165
124
60
141
71
78
88
208
186
166
77
16
221
95
171
64
193
7
140
222
142
96
48
194
111
134
72
117
108
73
185
149
161
114
99
176
225
202
67
200
210
122
174
79
11
92
14
170
94
69
31
164
209
105
41
74
198
45
56
109
131
163
139
36
90
22
132
112
158
211
26
206
197
25
179
116
181
37
106
138
57
84
38
47
15
226
151
157
173
62
160
118
91
110
81
137
169
30
70
40
107
34
120
68
152
129
49
66
28
119
180
154
98
32
103
126
6
89
61
127
128
148
85
125
104
168
3
20
19
162
76
2
196
4
44
184
195
65
10
63
5
83
191
17
192
13
216
189
8
52
9

> <PUBCHEM_MMFF94_PARTIAL_CHARGES>
45
1 -0.19
10 0.28
11 0.28
12 0.28
13 0.28
14 0.06
15 0.3
16 0.57
17 0.3
18 0.3
19 0.37
2 -0.56
20 0.37
21 0.1
22 0.54
23 -0.15
24 -0.15
25 0.09
26 -0.15
27 -0.15
28 0.19
29 -0.15
3 -0.68
30 -0.15
31 -0.15
32 -0.15
33 -0.14
34 0.14
4 -0.68
5 -0.57
51 0.4
52 0.4
53 0.37
54 0.15
55 0.15
56 0.15
57 0.15
58 0.15
59 0.15
6 -0.57
60 0.15
61 0.15
7 -0.66
8 -0.84
9 -0.73

> <PUBCHEM_EFFECTIVE_ROTOR_COUNT>
10.2

> <PUBCHEM_PHARMACOPHORE_FEATURES>
13
1 2 acceptor
1 3 acceptor
1 3 donor
1 4 acceptor
1 4 donor
1 5 acceptor
1 6 acceptor
1 8 cation
1 9 donor
5 2 10 11 12 13 rings
6 21 23 24 26 27 28 rings
6 25 29 30 31 32 33 rings
6 7 8 17 18 19 20 rings

> <PUBCHEM_HEAVY_ATOM_COUNT>
34

> <PUBCHEM_ATOM_DEF_STEREO_COUNT>
4

> <PUBCHEM_ATOM_UDEF_STEREO_COUNT>
0

> <PUBCHEM_BOND_DEF_STEREO_COUNT>
0

> <PUBCHEM_BOND_UDEF_STEREO_COUNT>
0

> <PUBCHEM_ISOTOPIC_ATOM_COUNT>
0

> <PUBCHEM_COMPONENT_COUNT>
1

> <PUBCHEM_CACTVS_TAUTO_COUNT>
5

> <PUBCHEM_CONFORMER_ID>
026E39CC00000001

> <PUBCHEM_MMFF94_ENERGY>
99.7463

> <PUBCHEM_FEATURE_SELFOVERLAP>
65.986

> <PUBCHEM_SHAPE_FINGERPRINT>
10675989 125 17253421307058300469
107951 10 17676205788235930339
11135926 11 18341894039827732949
11513181 2 17845095052002563775
11524674 6 18273213105742651534
11578080 2 17024848409073606983
11763389 116 18273221872557659302
12422481 6 18260260824803694410
13402501 40 18411421721612326586
14251757 5 18192440881780860104
15183329 4 17749383776217307928
15439362 3 17900537883284603533
15968369 153 18058999598238130306
20511986 3 18041555958032964152
20721686 56 18410859828242498231
21344244 246 18341888563633706479
23559900 14 18266455588830964993
249057 3 18334859450886605556
3298306 158 18411976966383752419
3383291 50 18201998863152020086
373842 8 18338798893384678386
4093350 32 17203060560527418479
4112364 45 14562824214019298463
5085150 59 18411693292964307986
5265222 85 18264496255294855068
57527295 17 18058433332781200333
59755656 215 18342736308198673942
6437827 68 18408325501674971746
7226269 152 18343024414784406200

> <PUBCHEM_SHAPE_MULTIPOLES>
648.14
15.44
4.14
1.6
14.78
3.31
-0.09
-6.53
3.9
-0.89
0.23
-0.59
0.14
0.94

> <PUBCHEM_SHAPE_SELFOVERLAP>
1384.527

> <PUBCHEM_SHAPE_VOLUME>
359.5

> <PUBCHEM_COORDINATE_TYPE>
2
5
10

$$$$
