56774347
  -OEChem-12032416343D

 60 63  0     1  0  0  0  0  0999 V2000
    4.0196    2.0360   -0.2908 O   0  0  0  0  0  0  0  0  0  0  0  0
   -4.8077    1.3852    1.3084 O   0  0  0  0  0  0  0  0  0  0  0  0
    6.0763   -0.1377   -0.5875 O   0  0  0  0  0  0  0  0  0  0  0  0
   -2.8683    0.1240    1.4671 N   0  0  0  0  0  0  0  0  0  0  0  0
    2.7891    2.4937   -0.7462 N   0  0  0  0  0  0  0  0  0  0  0  0
   -4.9161   -0.9017    1.6961 N   0  0  0  0  0  0  0  0  0  0  0  0
   -1.8522    1.7836   -0.1856 C   0  0  0  0  0  0  0  0  0  0  0  0
   -0.3260    1.8923    0.0143 C   0  0  1  0  0  0  0  0  0  0  0  0
   -1.9244    1.2341    1.2542 C   0  0  2  0  0  0  0  0  0  0  0  0
   -0.4624    0.7766    1.0713 C   0  0  0  0  0  0  0  0  0  0  0  0
    0.5529    1.5459   -1.1647 C   0  0  0  0  0  0  0  0  0  0  0  0
   -2.5266    3.1160   -0.4269 C   0  0  0  0  0  0  0  0  0  0  0  0
   -2.3118    0.7744   -1.2219 C   0  0  0  0  0  0  0  0  0  0  0  0
    1.9930    1.4210   -0.7279 C   0  0  0  0  0  0  0  0  0  0  0  0
   -4.2513    0.3007    1.4753 C   0  0  0  0  0  0  0  0  0  0  0  0
    2.6594    0.2695   -0.2746 C   0  0  0  0  0  0  0  0  0  0  0  0
    3.9298    0.7102   -0.0132 C   0  0  0  0  0  0  0  0  0  0  0  0
   -6.3557   -0.9972    1.7517 C   0  0  0  0  0  0  0  0  0  0  0  0
    5.1488    0.0604    0.4830 C   0  0  0  0  0  0  0  0  0  0  0  0
   -6.9535   -1.2656    0.4009 C   0  0  0  0  0  0  0  0  0  0  0  0
   -7.3179   -0.2020   -0.4247 C   0  0  0  0  0  0  0  0  0  0  0  0
   -7.1447   -2.5789   -0.0285 C   0  0  0  0  0  0  0  0  0  0  0  0
    7.2336   -0.7950   -0.2767 C   0  0  0  0  0  0  0  0  0  0  0  0
   -7.8734   -0.4516   -1.6796 C   0  0  0  0  0  0  0  0  0  0  0  0
   -7.7001   -2.8285   -1.2833 C   0  0  0  0  0  0  0  0  0  0  0  0
   -8.0646   -1.7649   -2.1089 C   0  0  0  0  0  0  0  0  0  0  0  0
    7.4582   -1.2327    1.0284 C   0  0  0  0  0  0  0  0  0  0  0  0
    8.1899   -1.0282   -1.2649 C   0  0  0  0  0  0  0  0  0  0  0  0
    8.6393   -1.9037    1.3456 C   0  0  0  0  0  0  0  0  0  0  0  0
    9.3711   -1.6991   -0.9479 C   0  0  0  0  0  0  0  0  0  0  0  0
    9.5958   -2.1369    0.3574 C   0  0  0  0  0  0  0  0  0  0  0  0
   -0.0293    2.8500    0.4698 H   0  0  0  0  0  0  0  0  0  0  0  0
   -2.0314    2.0041    2.0297 H   0  0  0  0  0  0  0  0  0  0  0  0
   -0.3422   -0.2463    0.6940 H   0  0  0  0  0  0  0  0  0  0  0  0
    0.1723    0.8918    1.9553 H   0  0  0  0  0  0  0  0  0  0  0  0
    0.4704    2.3198   -1.9376 H   0  0  0  0  0  0  0  0  0  0  0  0
    0.2670    0.5985   -1.6357 H   0  0  0  0  0  0  0  0  0  0  0  0
   -3.6175    3.0240   -0.4197 H   0  0  0  0  0  0  0  0  0  0  0  0
   -2.2361    3.5344   -1.3971 H   0  0  0  0  0  0  0  0  0  0  0  0
   -2.2571    3.8510    0.3398 H   0  0  0  0  0  0  0  0  0  0  0  0
   -3.4016    0.6572   -1.2145 H   0  0  0  0  0  0  0  0  0  0  0  0
   -1.8778   -0.2217   -1.0835 H   0  0  0  0  0  0  0  0  0  0  0  0
   -2.0464    1.1043   -2.2334 H   0  0  0  0  0  0  0  0  0  0  0  0
   -2.5197   -0.8181    1.6226 H   0  0  0  0  0  0  0  0  0  0  0  0
    2.2754   -0.7328   -0.1552 H   0  0  0  0  0  0  0  0  0  0  0  0
   -4.3706   -1.7518    1.7989 H   0  0  0  0  0  0  0  0  0  0  0  0
   -6.7685   -0.0739    2.1751 H   0  0  0  0  0  0  0  0  0  0  0  0
   -6.6049   -1.8048    2.4493 H   0  0  0  0  0  0  0  0  0  0  0  0
    5.5930    0.7005    1.2560 H   0  0  0  0  0  0  0  0  0  0  0  0
    4.8552   -0.9048    0.9154 H   0  0  0  0  0  0  0  0  0  0  0  0
   -7.1780    0.8262   -0.1027 H   0  0  0  0  0  0  0  0  0  0  0  0
   -6.8633   -3.4161    0.6047 H   0  0  0  0  0  0  0  0  0  0  0  0
   -8.1577    0.3765   -2.3223 H   0  0  0  0  0  0  0  0  0  0  0  0
   -7.8486   -3.8511   -1.6178 H   0  0  0  0  0  0  0  0  0  0  0  0
   -8.4972   -1.9594   -3.0859 H   0  0  0  0  0  0  0  0  0  0  0  0
    6.7662   -1.0830    1.8497 H   0  0  0  0  0  0  0  0  0  0  0  0
    8.0203   -0.6895   -2.2833 H   0  0  0  0  0  0  0  0  0  0  0  0
    8.8162   -2.2438    2.3619 H   0  0  0  0  0  0  0  0  0  0  0  0
   10.1158   -1.8807   -1.7173 H   0  0  0  0  0  0  0  0  0  0  0  0
   10.5156   -2.6589    0.6043 H   0  0  0  0  0  0  0  0  0  0  0  0
  1  5  1  0  0  0  0
  1 17  1  0  0  0  0
  2 15  2  0  0  0  0
  3 19  1  0  0  0  0
  3 23  1  0  0  0  0
  4  9  1  0  0  0  0
  4 15  1  0  0  0  0
  4 44  1  0  0  0  0
  5 14  2  0  0  0  0
  6 15  1  0  0  0  0
  6 18  1  0  0  0  0
  6 46  1  0  0  0  0
  7  8  1  0  0  0  0
  7  9  1  0  0  0  0
  7 12  1  0  0  0  0
  7 13  1  0  0  0  0
  8 10  1  0  0  0  0
  8 11  1  0  0  0  0
  8 32  1  0  0  0  0
  9 10  1  0  0  0  0
  9 33  1  0  0  0  0
 10 34  1  0  0  0  0
 10 35  1  0  0  0  0
 11 14  1  0  0  0  0
 11 36  1  0  0  0  0
 11 37  1  0  0  0  0
 12 38  1  0  0  0  0
 12 39  1  0  0  0  0
 12 40  1  0  0  0  0
 13 41  1  0  0  0  0
 13 42  1  0  0  0  0
 13 43  1  0  0  0  0
 14 16  1  0  0  0  0
 16 17  2  0  0  0  0
 16 45  1  0  0  0  0
 17 19  1  0  0  0  0
 18 20  1  0  0  0  0
 18 47  1  0  0  0  0
 18 48  1  0  0  0  0
 19 49  1  0  0  0  0
 19 50  1  0  0  0  0
 20 21  2  0  0  0  0
 20 22  1  0  0  0  0
 21 24  1  0  0  0  0
 21 51  1  0  0  0  0
 22 25  2  0  0  0  0
 22 52  1  0  0  0  0
 23 27  2  0  0  0  0
 23 28  1  0  0  0  0
 24 26  2  0  0  0  0
 24 53  1  0  0  0  0
 25 26  1  0  0  0  0
 25 54  1  0  0  0  0
 26 55  1  0  0  0  0
 27 29  1  0  0  0  0
 27 56  1  0  0  0  0
 28 30  2  0  0  0  0
 28 57  1  0  0  0  0
 29 31  2  0  0  0  0
 29 58  1  0  0  0  0
 30 31  1  0  0  0  0
 30 59  1  0  0  0  0
 31 60  1  0  0  0  0
M  END
> <PUBCHEM_COMPOUND_CID>
56774347

> <PUBCHEM_CONFORMER_RMSD>
1.4

> <PUBCHEM_CONFORMER_DIVERSEORDER>
1
57
78
63
16
8
10
43
75
34
53
24
72
30
71
70
38
39
62
36
74
66
76
15
73
77
48
64
29
61
7
54
14
50
31
12
55
41
67
11
69
21
9
26
18
46
5
4
45
60
40
59
17
49
33
51
28
20
65
68
42
44
35
27
56
37
3
6
2
25
47
13
58
19
22
52
23
32

> <PUBCHEM_MMFF94_PARTIAL_CHARGES>
39
1 -0.02
11 0.18
14 0.11
15 0.69
16 -0.15
17 -0.04
18 0.44
19 0.46
2 -0.57
20 -0.14
21 -0.15
22 -0.15
23 0.08
24 -0.15
25 -0.15
26 -0.15
27 -0.15
28 -0.15
29 -0.15
3 -0.36
30 -0.15
31 -0.15
4 -0.65
44 0.37
45 0.15
46 0.37
5 -0.41
51 0.15
52 0.15
53 0.15
54 0.15
55 0.15
56 0.15
57 0.15
58 0.15
59 0.15
6 -0.73
60 0.15
9 0.22

> <PUBCHEM_EFFECTIVE_ROTOR_COUNT>
10.8

> <PUBCHEM_PHARMACOPHORE_FEATURES>
10
1 2 acceptor
1 3 acceptor
1 4 donor
1 5 acceptor
1 6 donor
3 7 12 13 hydrophobe
4 7 8 9 10 rings
5 1 5 14 16 17 rings
6 20 21 22 24 25 26 rings
6 23 27 28 29 30 31 rings

> <PUBCHEM_HEAVY_ATOM_COUNT>
31

> <PUBCHEM_ATOM_DEF_STEREO_COUNT>
2

> <PUBCHEM_ATOM_UDEF_STEREO_COUNT>
0

> <PUBCHEM_BOND_DEF_STEREO_COUNT>
0

> <PUBCHEM_BOND_UDEF_STEREO_COUNT>
0

> <PUBCHEM_ISOTOPIC_ATOM_COUNT>
0

> <PUBCHEM_COMPONENT_COUNT>
1

> <PUBCHEM_CACTVS_TAUTO_COUNT>
3

> <PUBCHEM_CONFORMER_ID>
03624ECB00000001

> <PUBCHEM_MMFF94_ENERGY>
72.158

> <PUBCHEM_FEATURE_SELFOVERLAP>
50.797

> <PUBCHEM_SHAPE_FINGERPRINT>
10 15 13758355566146784464
10029044 110 11386376967558057406
10049733 167 14691706871494708909
10049733 35 18040152911922252508
10190206 1 15647042738854488493
10533779 47 14189303600653198598
11181472 205 13407340842729496068
11386260 185 16443352017968619516
11408170 108 18272378542506570671
11408170 132 14779541293069832550
11456790 92 14189576296142262178
11578821 258 8285614504751145134
12013929 27 17970629821653207895
12539765 74 11169903979535027464
13165054 301 7925648695716152719
14918687 75 18201999946227330358
14931854 50 16588024610947171136
15064981 194 7997384153766804216
15183329 4 16660631995733633769
15198563 99 16732976518750338045
15347590 135 14405191663724100479
15392192 104 17418378009237800660
15519825 34 17346597499675917359
15604295 49 10665529438657587470
16126227 98 10447929472996215409
16728433 281 13985204563370147495
1754908 1 15913332385827190054
1768 4 10807934873087539979
2026 5 18337111164347484874
21095123 293 8214147360461039254
21307412 95 17240771717526264355
21585481 104 12973878183705453818
21867018 265 16515402967191278615
21987483 16 17486764449355746475
22002106 203 18410287030567007218
23389318 12 17967542285643119374
23528940 14 18339356359266483474
23576562 1 14563674260771885395
25025965 108 18412818084443268259
25269216 80 13912612692907162665
2747138 104 14548753819194644417
3711267 37 9151174268017701330
406291 66 18411138052018220922
4339292 15 18040431071801206506
4353968 344 18260828146870007110
4403749 210 13254806716370153617
44802255 64 13912324586532589257
4516262 110 17460612544300114364
474113 269 18412257355176829615
504579 68 15357700786211022876
54039377 194 18410573998147383318
5470011 282 16805612482175315446
5718773 13 18335423469605810232
57303763 39 17704072945978070454
5874358 3 17987788731153716847
5937810 71 11169916086730907327
59682541 35 14549018788285007987
6201320 221 16444172133732262714
6691757 9 14045730504941083021
9689198 14 8142094177886507633
9962374 69 18342453777435338540
9980921 221 15864340321178643645

> <PUBCHEM_SHAPE_MULTIPOLES>
605.41
34.07
2.94
1.7
35.79
0.18
0.11
-36.48
-5.05
-1.64
-0.64
-2.5
-0.47
-2.16

> <PUBCHEM_SHAPE_SELFOVERLAP>
1292.652

> <PUBCHEM_SHAPE_VOLUME>
337.1

> <PUBCHEM_COORDINATE_TYPE>
2
5
10

$$$$
