51137078
  -OEChem-12032416243D

 29 31  0     1  0  0  0  0  0999 V2000
    0.8052   -1.8763   -0.2216 S   0  0  0  0  0  0  0  0  0  0  0  0
   -3.8652    0.0779   -0.3381 N   0  0  1  0  0  0  0  0  0  0  0  0
    0.2500    0.6083    0.1916 N   0  0  0  0  0  0  0  0  0  0  0  0
   -1.7647   -0.8676    0.1018 C   0  0  1  0  0  0  0  0  0  0  0  0
   -2.4464   -0.4883    1.4280 C   0  0  0  0  0  0  0  0  0  0  0  0
   -2.5595   -0.1139   -0.9730 C   0  0  0  0  0  0  0  0  0  0  0  0
   -3.5613    0.4732    1.0372 C   0  0  0  0  0  0  0  0  0  0  0  0
   -0.2816   -0.5829    0.0460 C   0  0  0  0  0  0  0  0  0  0  0  0
   -4.6800    1.0649   -1.0311 C   0  0  0  0  0  0  0  0  0  0  0  0
    2.1256   -0.7703   -0.1411 C   0  0  0  0  0  0  0  0  0  0  0  0
    1.6303    0.5171    0.0869 C   0  0  0  0  0  0  0  0  0  0  0  0
    3.5007   -1.0238   -0.2704 C   0  0  0  0  0  0  0  0  0  0  0  0
    2.5458    1.5870    0.1886 C   0  0  0  0  0  0  0  0  0  0  0  0
    4.3851    0.0526   -0.1656 C   0  0  0  0  0  0  0  0  0  0  0  0
    3.9160    1.3420    0.0609 C   0  0  0  0  0  0  0  0  0  0  0  0
   -1.9345   -1.9441   -0.0473 H   0  0  0  0  0  0  0  0  0  0  0  0
   -1.7642   -0.0328    2.1537 H   0  0  0  0  0  0  0  0  0  0  0  0
   -2.8699   -1.3885    1.8908 H   0  0  0  0  0  0  0  0  0  0  0  0
   -2.0880    0.8467   -1.2198 H   0  0  0  0  0  0  0  0  0  0  0  0
   -2.6394   -0.7012   -1.8943 H   0  0  0  0  0  0  0  0  0  0  0  0
   -4.4283    0.3727    1.6975 H   0  0  0  0  0  0  0  0  0  0  0  0
   -3.1962    1.5069    1.0918 H   0  0  0  0  0  0  0  0  0  0  0  0
   -4.8867    0.7368   -2.0556 H   0  0  0  0  0  0  0  0  0  0  0  0
   -4.1993    2.0488   -1.0763 H   0  0  0  0  0  0  0  0  0  0  0  0
   -5.6479    1.1790   -0.5309 H   0  0  0  0  0  0  0  0  0  0  0  0
    3.8741   -2.0278   -0.4474 H   0  0  0  0  0  0  0  0  0  0  0  0
    2.1902    2.5982    0.3654 H   0  0  0  0  0  0  0  0  0  0  0  0
    5.4535   -0.1218   -0.2626 H   0  0  0  0  0  0  0  0  0  0  0  0
    4.6189    2.1668    0.1395 H   0  0  0  0  0  0  0  0  0  0  0  0
  1  8  1  0  0  0  0
  1 10  1  0  0  0  0
  2  6  1  0  0  0  0
  2  7  1  0  0  0  0
  2  9  1  0  0  0  0
  3  8  2  0  0  0  0
  3 11  1  0  0  0  0
  4  5  1  0  0  0  0
  4  6  1  0  0  0  0
  4  8  1  0  0  0  0
  4 16  1  0  0  0  0
  5  7  1  0  0  0  0
  5 17  1  0  0  0  0
  5 18  1  0  0  0  0
  6 19  1  0  0  0  0
  6 20  1  0  0  0  0
  7 21  1  0  0  0  0
  7 22  1  0  0  0  0
  9 23  1  0  0  0  0
  9 24  1  0  0  0  0
  9 25  1  0  0  0  0
 10 11  1  0  0  0  0
 10 12  2  0  0  0  0
 11 13  2  0  0  0  0
 12 14  1  0  0  0  0
 12 26  1  0  0  0  0
 13 15  1  0  0  0  0
 13 27  1  0  0  0  0
 14 15  2  0  0  0  0
 14 28  1  0  0  0  0
 15 29  1  0  0  0  0
M  END
> <PUBCHEM_COMPOUND_CID>
51137078

> <PUBCHEM_CONFORMER_RMSD>
0.6

> <PUBCHEM_CONFORMER_DIVERSEORDER>
1
3
2
4

> <PUBCHEM_MMFF94_PARTIAL_CHARGES>
18
1 -0.08
10 0.04
11 0.23
12 -0.15
13 -0.15
14 -0.15
15 -0.15
2 -0.81
26 0.15
27 0.15
28 0.15
29 0.15
3 -0.57
4 0.18
6 0.27
7 0.27
8 0.2
9 0.27

> <PUBCHEM_EFFECTIVE_ROTOR_COUNT>
2

> <PUBCHEM_PHARMACOPHORE_FEATURES>
5
1 2 cation
1 3 acceptor
5 1 3 8 10 11 rings
5 2 4 5 6 7 rings
6 10 11 12 13 14 15 rings

> <PUBCHEM_HEAVY_ATOM_COUNT>
15

> <PUBCHEM_ATOM_DEF_STEREO_COUNT>
1

> <PUBCHEM_ATOM_UDEF_STEREO_COUNT>
0

> <PUBCHEM_BOND_DEF_STEREO_COUNT>
0

> <PUBCHEM_BOND_UDEF_STEREO_COUNT>
0

> <PUBCHEM_ISOTOPIC_ATOM_COUNT>
0

> <PUBCHEM_COMPONENT_COUNT>
1

> <PUBCHEM_CACTVS_TAUTO_COUNT>
1

> <PUBCHEM_CONFORMER_ID>
030C4A3600000001

> <PUBCHEM_MMFF94_ENERGY>
28.6366

> <PUBCHEM_FEATURE_SELFOVERLAP>
25.443

> <PUBCHEM_SHAPE_FINGERPRINT>
10014705 185 18333728044171695541
10608611 8 18334293188526487309
11401426 45 18130782374097327042
11471102 20 18413107251826711694
11543360 7 15123509254701457632
11578080 2 13191742186048359919
12236239 1 17489871518686036683
12251169 10 12035450527998738843
124424 183 18186802469646312218
12500047 106 17603586339445507843
12730499 353 18261675879336679859
13214271 11 18040998466565822415
13675066 3 18040441009390172034
13705890 14 11671785966200780618
13922767 16 18411980269593346264
14144814 61 18130795567978443162
14251717 144 18273214175332257406
14289901 80 16733272334348197898
14993402 34 17346877857754961102
15219456 202 18259706700538412147
15309172 13 18411705404118000227
15375358 24 18186518791530642167
15653759 3 17386010589026256075
15775835 57 18273496796832835183
16945 1 18413394228767538562
17834072 33 18130500916268934863
18175812 5 18040436615707342982
18186145 218 18342748433186645382
19107657 47 18411139125580391739
19862831 5 17561080319463926503
200 152 17775280556527499757
20279233 1 18040720268343261907
20300324 65 16487256577858677737
20645464 45 17748830722132105411
20645477 56 17967534550153843765
20645477 70 18341331098163604910
22892500 29 18343575270252398868
231179 274 18333446530197387798
23402539 116 17967525791971852310
23402655 69 18273211988914211988
23557571 272 17604161375900954443
23559900 14 17241048708800217162
25 1 18410009922838702766
29717793 49 17060059211599731613
3060560 45 18273215270823348366
3268164 11 15338836431001491265
4028521 119 18261667087327719557
4072396 5 18337373956236985450
474 4 18341333374379791840
5104073 3 18409730681223771051
602551 16 16371020657860912618
633830 44 17916888857743801828
77492 1 17418097598215681763
8272917 22 18200036127395572751
9971528 1 17989207019596128160

> <PUBCHEM_SHAPE_MULTIPOLES>
302.58
8.97
1.52
0.98
2.36
0.1
0.12
-2.96
-1.08
-0.94
-0.07
1.1
-0.03
0.52

> <PUBCHEM_SHAPE_SELFOVERLAP>
640.226

> <PUBCHEM_SHAPE_VOLUME>
172.7

> <PUBCHEM_COORDINATE_TYPE>
2
5
10

$$$$
