45783309
  -OEChem-12032416403D

 60 64  0     1  0  0  0  0  0999 V2000
   -3.2076   -3.1858    0.4618 O   0  0  0  0  0  0  0  0  0  0  0  0
    5.8250    1.7955    1.3861 O   0  0  0  0  0  0  0  0  0  0  0  0
   -4.0271    0.3927   -0.1674 N   0  0  1  0  0  0  0  0  0  0  0  0
    3.1869   -0.6063   -0.2653 N   0  0  0  0  0  0  0  0  0  0  0  0
   -1.7914   -1.4863    0.1110 N   0  0  0  0  0  0  0  0  0  0  0  0
   -1.9208   -3.7378    0.4962 N   0  0  0  0  0  0  0  0  0  0  0  0
    3.0792   -2.9375    0.1341 N   0  0  0  0  0  0  0  0  0  0  0  0
    7.1890    1.7540   -0.4665 N   0  0  0  0  0  0  0  0  0  0  0  0
   -4.3024   -1.0234    0.1477 C   0  0  1  0  0  0  0  0  0  0  0  0
   -5.2546   -1.4943   -0.9672 C   0  0  0  0  0  0  0  0  0  0  0  0
   -5.5049   -0.2611   -1.8235 C   0  0  0  0  0  0  0  0  0  0  0  0
   -5.1988    0.8910   -0.8881 C   0  0  0  0  0  0  0  0  0  0  0  0
    4.7989    1.7542   -0.7741 C   0  0  0  0  0  0  0  0  0  0  0  0
    4.8507    0.5275   -1.6826 C   0  0  0  0  0  0  0  0  0  0  0  0
    3.4738    1.8295   -0.0188 C   0  0  0  0  0  0  0  0  0  0  0  0
   -3.7259    1.1953    1.0110 C   0  0  0  0  0  0  0  0  0  0  0  0
    4.4713   -0.7640   -0.9584 C   0  0  0  0  0  0  0  0  0  0  0  0
    3.0892    0.5181    0.6696 C   0  0  0  0  0  0  0  0  0  0  0  0
   -3.0411   -1.8573    0.2300 C   0  0  0  0  0  0  0  0  0  0  0  0
   -2.9872    2.4582    0.6553 C   0  0  0  0  0  0  0  0  0  0  0  0
    2.4321   -1.7625   -0.0349 C   0  0  0  0  0  0  0  0  0  0  0  0
    5.9684    1.7640    0.1663 C   0  0  0  0  0  0  0  0  0  0  0  0
   -1.1411   -2.6739    0.2817 C   0  0  0  0  0  0  0  0  0  0  0  0
    1.0541   -1.6234    0.0039 C   0  0  0  0  0  0  0  0  0  0  0  0
    0.2909   -2.7635    0.2304 C   0  0  0  0  0  0  0  0  0  0  0  0
   -1.5929    2.4634    0.6167 C   0  0  0  0  0  0  0  0  0  0  0  0
   -3.6974    3.6229    0.3646 C   0  0  0  0  0  0  0  0  0  0  0  0
    0.9202   -3.9904    0.4088 C   0  0  0  0  0  0  0  0  0  0  0  0
    2.3043   -4.0237    0.3520 C   0  0  0  0  0  0  0  0  0  0  0  0
   -0.9087    3.6336    0.2874 C   0  0  0  0  0  0  0  0  0  0  0  0
   -3.0133    4.7930    0.0353 C   0  0  0  0  0  0  0  0  0  0  0  0
   -1.6189    4.7983   -0.0033 C   0  0  0  0  0  0  0  0  0  0  0  0
   -4.8320   -1.1102    1.1069 H   0  0  0  0  0  0  0  0  0  0  0  0
   -6.2001   -1.8316   -0.5252 H   0  0  0  0  0  0  0  0  0  0  0  0
   -4.8579   -2.3128   -1.5774 H   0  0  0  0  0  0  0  0  0  0  0  0
   -4.8162   -0.2544   -2.6776 H   0  0  0  0  0  0  0  0  0  0  0  0
   -6.5275   -0.2272   -2.2108 H   0  0  0  0  0  0  0  0  0  0  0  0
   -4.9917    1.8023   -1.4565 H   0  0  0  0  0  0  0  0  0  0  0  0
   -6.0512    1.0697   -0.2205 H   0  0  0  0  0  0  0  0  0  0  0  0
    4.8924    2.6562   -1.3939 H   0  0  0  0  0  0  0  0  0  0  0  0
    5.8256    0.3957   -2.1632 H   0  0  0  0  0  0  0  0  0  0  0  0
    4.1324    0.6831   -2.4994 H   0  0  0  0  0  0  0  0  0  0  0  0
    2.6841    2.0793   -0.7405 H   0  0  0  0  0  0  0  0  0  0  0  0
    3.4834    2.6412    0.7187 H   0  0  0  0  0  0  0  0  0  0  0  0
   -4.6278    1.4292    1.5932 H   0  0  0  0  0  0  0  0  0  0  0  0
   -3.0857    0.6306    1.7029 H   0  0  0  0  0  0  0  0  0  0  0  0
    4.4124   -1.5629   -1.7085 H   0  0  0  0  0  0  0  0  0  0  0  0
    5.2501   -1.0441   -0.2384 H   0  0  0  0  0  0  0  0  0  0  0  0
    3.7362    0.3243    1.5328 H   0  0  0  0  0  0  0  0  0  0  0  0
    2.0728    0.6322    1.0641 H   0  0  0  0  0  0  0  0  0  0  0  0
    0.5885   -0.6552   -0.1561 H   0  0  0  0  0  0  0  0  0  0  0  0
   -1.0269    1.5624    0.8386 H   0  0  0  0  0  0  0  0  0  0  0  0
   -4.7836    3.6352    0.3966 H   0  0  0  0  0  0  0  0  0  0  0  0
    8.0500    1.7569    0.0703 H   0  0  0  0  0  0  0  0  0  0  0  0
    7.2886    1.7908   -1.4755 H   0  0  0  0  0  0  0  0  0  0  0  0
    0.3775   -4.9125    0.5889 H   0  0  0  0  0  0  0  0  0  0  0  0
    2.8437   -4.9558    0.4847 H   0  0  0  0  0  0  0  0  0  0  0  0
    0.1771    3.6370    0.2565 H   0  0  0  0  0  0  0  0  0  0  0  0
   -3.5661    5.7003   -0.1898 H   0  0  0  0  0  0  0  0  0  0  0  0
   -1.0862    5.7094   -0.2596 H   0  0  0  0  0  0  0  0  0  0  0  0
  1  6  1  0  0  0  0
  1 19  1  0  0  0  0
  2 22  2  0  0  0  0
  3  9  1  0  0  0  0
  3 12  1  0  0  0  0
  3 16  1  0  0  0  0
  4 17  1  0  0  0  0
  4 18  1  0  0  0  0
  4 21  1  0  0  0  0
  5 19  2  0  0  0  0
  5 23  1  0  0  0  0
  6 23  2  0  0  0  0
  7 21  2  0  0  0  0
  7 29  1  0  0  0  0
  8 22  1  0  0  0  0
  8 54  1  0  0  0  0
  8 55  1  0  0  0  0
  9 10  1  0  0  0  0
  9 19  1  0  0  0  0
  9 33  1  0  0  0  0
 10 11  1  0  0  0  0
 10 34  1  0  0  0  0
 10 35  1  0  0  0  0
 11 12  1  0  0  0  0
 11 36  1  0  0  0  0
 11 37  1  0  0  0  0
 12 38  1  0  0  0  0
 12 39  1  0  0  0  0
 13 14  1  0  0  0  0
 13 15  1  0  0  0  0
 13 22  1  0  0  0  0
 13 40  1  0  0  0  0
 14 17  1  0  0  0  0
 14 41  1  0  0  0  0
 14 42  1  0  0  0  0
 15 18  1  0  0  0  0
 15 43  1  0  0  0  0
 15 44  1  0  0  0  0
 16 20  1  0  0  0  0
 16 45  1  0  0  0  0
 16 46  1  0  0  0  0
 17 47  1  0  0  0  0
 17 48  1  0  0  0  0
 18 49  1  0  0  0  0
 18 50  1  0  0  0  0
 20 26  2  0  0  0  0
 20 27  1  0  0  0  0
 21 24  1  0  0  0  0
 23 25  1  0  0  0  0
 24 25  2  0  0  0  0
 24 51  1  0  0  0  0
 25 28  1  0  0  0  0
 26 30  1  0  0  0  0
 26 52  1  0  0  0  0
 27 31  2  0  0  0  0
 27 53  1  0  0  0  0
 28 29  2  0  0  0  0
 28 56  1  0  0  0  0
 29 57  1  0  0  0  0
 30 32  2  0  0  0  0
 30 58  1  0  0  0  0
 31 32  1  0  0  0  0
 31 59  1  0  0  0  0
 32 60  1  0  0  0  0
M  END
> <PUBCHEM_COMPOUND_CID>
45783309

> <PUBCHEM_CONFORMER_RMSD>
1

> <PUBCHEM_CONFORMER_DIVERSEORDER>
1
53
184
29
180
169
95
67
179
34
109
100
147
157
47
56
50
75
123
174
96
178
31
77
110
136
104
78
37
165
117
16
119
186
185
111
92
102
36
108
30
162
116
114
153
176
132
126
84
121
48
171
131
112
63
46
85
44
142
99
98
62
71
151
159
91
182
140
160
60
73
148
107
9
86
154
40
135
4
93
129
61
163
39
120
8
69
25
177
105
32
187
94
54
28
80
59
79
141
101
166
68
125
66
175
65
12
35
103
155
106
41
173
170
51
45
64
137
167
161
143
97
23
14
22
42
88
158
150
27
138
128
10
172
33
55
144
145
146
38
21
52
18
149
113
26
83
124
127
118
43
15
70
57
24
49
164
133
2
72
87
122
3
168
58
20
130
134
181
90
82
156
76
74
6
17
5
19
89
7
11
183
115
139
152
81
13

> <PUBCHEM_MMFF94_PARTIAL_CHARGES>
38
1 -0.02
12 0.27
13 0.06
16 0.41
17 0.37
18 0.37
19 0.3
2 -0.57
20 -0.14
21 0.41
22 0.57
23 0.46
24 -0.15
25 0.05
26 -0.15
27 -0.15
28 -0.15
29 0.16
3 -0.81
30 -0.15
31 -0.15
32 -0.15
4 -0.84
5 -0.57
51 0.15
52 0.15
53 0.15
54 0.37
55 0.37
56 0.15
57 0.15
58 0.15
59 0.15
6 -0.41
60 0.15
7 -0.62
8 -0.8
9 0.45

> <PUBCHEM_EFFECTIVE_ROTOR_COUNT>
8.2

> <PUBCHEM_PHARMACOPHORE_FEATURES>
10
1 2 acceptor
1 3 cation
1 8 donor
3 4 7 21 cation
3 5 6 23 cation
5 1 5 6 19 23 rings
5 3 9 10 11 12 rings
6 20 26 27 30 31 32 rings
6 4 13 14 15 17 18 rings
6 7 21 24 25 28 29 rings

> <PUBCHEM_HEAVY_ATOM_COUNT>
32

> <PUBCHEM_ATOM_DEF_STEREO_COUNT>
1

> <PUBCHEM_ATOM_UDEF_STEREO_COUNT>
0

> <PUBCHEM_BOND_DEF_STEREO_COUNT>
0

> <PUBCHEM_BOND_UDEF_STEREO_COUNT>
0

> <PUBCHEM_ISOTOPIC_ATOM_COUNT>
0

> <PUBCHEM_COMPONENT_COUNT>
1

> <PUBCHEM_CACTVS_TAUTO_COUNT>
2

> <PUBCHEM_CONFORMER_ID>
02BA990D00000001

> <PUBCHEM_MMFF94_ENERGY>
80.9455

> <PUBCHEM_FEATURE_SELFOVERLAP>
50.748

> <PUBCHEM_SHAPE_FINGERPRINT>
100830 39 18410013269472996016
10190206 1 18410582798973384900
10670039 82 18410864252453906636
10871710 139 18340489950978957885
10951579 204 18267326300131788284
11059048 146 18195539103152025196
11136131 41 18189325793873644826
11211813 163 18193020157364040150
11374522 363 17468477014890304852
11513181 2 18200596878294136111
12788726 201 18410567401067112393
13617811 41 18337100246572162765
14251764 38 18194964045933761839
14394314 77 18340495487245245313
14739800 52 18411125953501660394
14932702 115 17986101925233668817
15001296 14 18119246156575958985
15250474 111 18267017246051314757
15289351 153 18412539917529469170
15320467 1 18410577322494677112
15322535 138 18264483997194610200
15347590 135 17823708649242463539
15351339 4 18410566275827697105
16992787 43 18410291377627896045
17627616 140 18265053543990399408
19611394 137 17682127912820318403
20764821 26 18122068868753749717
21734292 116 18411141290396967481
21795232 40 18042673078441105309
21859007 373 18273207630661590656
22393880 68 18198071287484951724
25265897 201 17195464988395276989
325973 47 17977952602419673405
3388396 114 18340471323241656605
3918712 181 18338509846143423240
437795 96 17548972712442276192
4394409 98 18187639219971676917
4487111 67 18338519638299606200
469060 322 18122086422380061067
4756261 7 18054542169825990225
50150288 127 17631171871238488689
5047190 69 18271521026943492848
508180 173 17835823906134267138
508706 21 18341337764163695392
57307002 19 17910654777471224424
6036956 94 18334584555182945301
6371009 1 18192415399139064850
653340 110 18411418440874724840
6608658 132 18271235127501257055
9980921 221 18193869061903058828
9981440 41 18261677081316243418

> <PUBCHEM_SHAPE_MULTIPOLES>
616.92
14.14
6.85
1.07
11.58
1.77
-0.32
7.54
-3.7
-3.12
1.4
-0.1
0.12
-0.81

> <PUBCHEM_SHAPE_SELFOVERLAP>
1338.262

> <PUBCHEM_SHAPE_VOLUME>
335.7

> <PUBCHEM_COORDINATE_TYPE>
2
5
10

$$$$
