71693201
  -OEChem-12032416303D

 64 66  0     1  0  0  0  0  0999 V2000
    3.8858    1.5383    1.0729 O   0  0  0  0  0  0  0  0  0  0  0  0
    2.9406    3.1295   -0.9705 O   0  0  0  0  0  0  0  0  0  0  0  0
   -0.4708    4.1037   -0.4529 O   0  0  0  0  0  0  0  0  0  0  0  0
    1.4513    5.3201   -0.3373 O   0  0  0  0  0  0  0  0  0  0  0  0
    3.7908   -0.2959   -0.3570 N   0  0  0  0  0  0  0  0  0  0  0  0
   -2.8585   -1.4337   -1.3563 N   0  0  0  0  0  0  0  0  0  0  0  0
   -1.8983    0.2148   -0.2160 N   0  0  0  0  0  0  0  0  0  0  0  0
    1.4481   -1.5078    1.0876 C   0  0  1  0  0  0  0  0  0  0  0  0
    2.7271   -2.2546    0.6333 C   0  0  1  0  0  0  0  0  0  0  0  0
    0.1942   -2.3015    0.6905 C   0  0  0  0  0  0  0  0  0  0  0  0
    0.1093   -2.5346   -0.8297 C   0  0  2  0  0  0  0  0  0  0  0  0
    1.4443   -1.2535    2.5982 C   0  0  0  0  0  0  0  0  0  0  0  0
    1.4266   -3.0210   -1.3993 C   0  0  0  0  0  0  0  0  0  0  0  0
    2.5840   -2.8995   -0.7253 C   0  0  0  0  0  0  0  0  0  0  0  0
    3.9418   -1.3194    0.6292 C   0  0  0  0  0  0  0  0  0  0  0  0
   -0.3701   -1.2729   -1.5560 C   0  0  0  0  0  0  0  0  0  0  0  0
    0.5567   -0.0593    2.9346 C   0  0  0  0  0  0  0  0  0  0  0  0
    0.9811   -2.4995    3.3463 C   0  0  0  0  0  0  0  0  0  0  0  0
    1.3763   -3.6924   -2.7435 C   0  0  0  0  0  0  0  0  0  0  0  0
   -1.6928   -0.8020   -1.0229 C   0  0  0  0  0  0  0  0  0  0  0  0
    3.7746    1.0655   -0.0550 C   0  0  0  0  0  0  0  0  0  0  0  0
   -3.8844   -0.7814   -0.7221 C   0  0  0  0  0  0  0  0  0  0  0  0
   -3.2595    0.2435   -0.0170 C   0  0  0  0  0  0  0  0  0  0  0  0
   -4.0412    1.1186    0.7559 C   0  0  0  0  0  0  0  0  0  0  0  0
    3.6025    1.9241   -1.2899 C   0  0  0  0  0  0  0  0  0  0  0  0
   -5.2634   -0.9931   -0.7054 C   0  0  0  0  0  0  0  0  0  0  0  0
   -5.4278    0.9250    0.7876 C   0  0  0  0  0  0  0  0  0  0  0  0
   -6.0260   -0.1128    0.0693 C   0  0  0  0  0  0  0  0  0  0  0  0
   -3.4489    2.2429    1.5413 C   0  0  0  0  0  0  0  0  0  0  0  0
    1.5312    2.9499   -0.8656 C   0  0  0  0  0  0  0  0  0  0  0  0
    0.8751    4.2591   -0.5251 C   0  0  0  0  0  0  0  0  0  0  0  0
    1.4039   -0.5383    0.5768 H   0  0  0  0  0  0  0  0  0  0  0  0
    2.9456   -3.0684    1.3361 H   0  0  0  0  0  0  0  0  0  0  0  0
   -0.7184   -1.8425    1.0799 H   0  0  0  0  0  0  0  0  0  0  0  0
    0.2308   -3.3068    1.1325 H   0  0  0  0  0  0  0  0  0  0  0  0
   -0.6360   -3.3288   -0.9809 H   0  0  0  0  0  0  0  0  0  0  0  0
    2.4521   -1.0045    2.9461 H   0  0  0  0  0  0  0  0  0  0  0  0
    3.4923   -3.3095   -1.1629 H   0  0  0  0  0  0  0  0  0  0  0  0
    4.8478   -1.8782    0.3647 H   0  0  0  0  0  0  0  0  0  0  0  0
    4.1233   -0.8798    1.6137 H   0  0  0  0  0  0  0  0  0  0  0  0
   -0.4799   -1.4636   -2.6309 H   0  0  0  0  0  0  0  0  0  0  0  0
    0.3606   -0.4598   -1.4639 H   0  0  0  0  0  0  0  0  0  0  0  0
    0.9033    0.8435    2.4200 H   0  0  0  0  0  0  0  0  0  0  0  0
   -0.4888   -0.2261    2.6575 H   0  0  0  0  0  0  0  0  0  0  0  0
    0.5830    0.1456    4.0105 H   0  0  0  0  0  0  0  0  0  0  0  0
    1.5338   -3.3975    3.0547 H   0  0  0  0  0  0  0  0  0  0  0  0
    1.1603   -2.3613    4.4198 H   0  0  0  0  0  0  0  0  0  0  0  0
   -0.0930   -2.6878    3.2466 H   0  0  0  0  0  0  0  0  0  0  0  0
    0.6712   -4.5297   -2.7239 H   0  0  0  0  0  0  0  0  0  0  0  0
    2.3518   -4.0912   -3.0416 H   0  0  0  0  0  0  0  0  0  0  0  0
    1.0594   -2.9874   -3.5176 H   0  0  0  0  0  0  0  0  0  0  0  0
    3.7563   -0.5769   -1.3327 H   0  0  0  0  0  0  0  0  0  0  0  0
   -2.9502   -2.2390   -1.9614 H   0  0  0  0  0  0  0  0  0  0  0  0
    4.6053    2.1747   -1.6517 H   0  0  0  0  0  0  0  0  0  0  0  0
    3.0817    1.3889   -2.0919 H   0  0  0  0  0  0  0  0  0  0  0  0
   -5.7254   -1.7993   -1.2638 H   0  0  0  0  0  0  0  0  0  0  0  0
   -6.0573    1.5876    1.3776 H   0  0  0  0  0  0  0  0  0  0  0  0
   -7.1050   -0.2396    0.1123 H   0  0  0  0  0  0  0  0  0  0  0  0
   -3.6923    2.1335    2.6032 H   0  0  0  0  0  0  0  0  0  0  0  0
   -2.3583    2.2692    1.4498 H   0  0  0  0  0  0  0  0  0  0  0  0
   -3.8389    3.2013    1.1836 H   0  0  0  0  0  0  0  0  0  0  0  0
    1.1345    2.6045   -1.8265 H   0  0  0  0  0  0  0  0  0  0  0  0
    1.3004    2.2315   -0.0721 H   0  0  0  0  0  0  0  0  0  0  0  0
   -0.9255    4.9441   -0.2306 H   0  0  0  0  0  0  0  0  0  0  0  0
  1 21  2  0  0  0  0
  2 25  1  0  0  0  0
  2 30  1  0  0  0  0
  3 31  1  0  0  0  0
  3 64  1  0  0  0  0
  4 31  2  0  0  0  0
  5 15  1  0  0  0  0
  5 21  1  0  0  0  0
  5 52  1  0  0  0  0
  6 20  1  0  0  0  0
  6 22  1  0  0  0  0
  6 53  1  0  0  0  0
  7 20  2  0  0  0  0
  7 23  1  0  0  0  0
  8  9  1  0  0  0  0
  8 10  1  0  0  0  0
  8 12  1  0  0  0  0
  8 32  1  0  0  0  0
  9 14  1  0  0  0  0
  9 15  1  0  0  0  0
  9 33  1  0  0  0  0
 10 11  1  0  0  0  0
 10 34  1  0  0  0  0
 10 35  1  0  0  0  0
 11 13  1  0  0  0  0
 11 16  1  0  0  0  0
 11 36  1  0  0  0  0
 12 17  1  0  0  0  0
 12 18  1  0  0  0  0
 12 37  1  0  0  0  0
 13 14  2  0  0  0  0
 13 19  1  0  0  0  0
 14 38  1  0  0  0  0
 15 39  1  0  0  0  0
 15 40  1  0  0  0  0
 16 20  1  0  0  0  0
 16 41  1  0  0  0  0
 16 42  1  0  0  0  0
 17 43  1  0  0  0  0
 17 44  1  0  0  0  0
 17 45  1  0  0  0  0
 18 46  1  0  0  0  0
 18 47  1  0  0  0  0
 18 48  1  0  0  0  0
 19 49  1  0  0  0  0
 19 50  1  0  0  0  0
 19 51  1  0  0  0  0
 21 25  1  0  0  0  0
 22 23  1  0  0  0  0
 22 26  2  0  0  0  0
 23 24  2  0  0  0  0
 24 27  1  0  0  0  0
 24 29  1  0  0  0  0
 25 54  1  0  0  0  0
 25 55  1  0  0  0  0
 26 28  1  0  0  0  0
 26 56  1  0  0  0  0
 27 28  2  0  0  0  0
 27 57  1  0  0  0  0
 28 58  1  0  0  0  0
 29 59  1  0  0  0  0
 29 60  1  0  0  0  0
 29 61  1  0  0  0  0
 30 31  1  0  0  0  0
 30 62  1  0  0  0  0
 30 63  1  0  0  0  0
M  END
> <PUBCHEM_COMPOUND_CID>
71693201

> <PUBCHEM_CONFORMER_RMSD>
1

> <PUBCHEM_CONFORMER_DIVERSEORDER>
1
17
39
37
60
58
55
36
67
18
59
35
19
50
16
34
69
51
68
49
26
11
48
21
45
41
2
47
40
70
56
43
15
27
54
38
13
61
12
52
20
22
7
66
31
42
9
64
53
28
6
29
24
3
10
30
46
32
57
44
63
5
71
33
23
8
25
4
65
62
14

> <PUBCHEM_MMFF94_PARTIAL_CHARGES>
33
1 -0.57
11 0.14
13 -0.28
14 -0.29
15 0.3
16 0.18
19 0.14
2 -0.56
20 0.01
21 0.57
22 -0.15
23 0.23
24 -0.14
25 0.34
26 -0.15
27 -0.15
28 -0.15
29 0.14
3 -0.65
30 0.34
31 0.66
38 0.15
4 -0.57
5 -0.73
52 0.37
53 0.27
56 0.15
57 0.15
58 0.15
6 0.03
64 0.5
7 -0.57
9 0.14

> <PUBCHEM_EFFECTIVE_ROTOR_COUNT>
10.8

> <PUBCHEM_PHARMACOPHORE_FEATURES>
12
1 1 acceptor
1 2 acceptor
1 3 acceptor
1 4 acceptor
1 5 donor
1 6 donor
3 12 17 18 hydrophobe
3 3 4 31 anion
3 6 7 20 cation
5 6 7 20 22 23 rings
6 22 23 24 26 27 28 rings
6 8 9 10 11 13 14 rings

> <PUBCHEM_HEAVY_ATOM_COUNT>
31

> <PUBCHEM_ATOM_DEF_STEREO_COUNT>
3

> <PUBCHEM_ATOM_UDEF_STEREO_COUNT>
0

> <PUBCHEM_BOND_DEF_STEREO_COUNT>
0

> <PUBCHEM_BOND_UDEF_STEREO_COUNT>
0

> <PUBCHEM_ISOTOPIC_ATOM_COUNT>
0

> <PUBCHEM_COMPONENT_COUNT>
1

> <PUBCHEM_CACTVS_TAUTO_COUNT>
6

> <PUBCHEM_CONFORMER_ID>
0445F39100000001

> <PUBCHEM_MMFF94_ENERGY>
52.5109

> <PUBCHEM_FEATURE_SELFOVERLAP>
61.069

> <PUBCHEM_SHAPE_FINGERPRINT>
12422481 6 18053077568333564458
15001296 14 18341329006820441073
17921350 177 16966048519462375472
21033648 29 16370993101361667423
21860390 5 18336274482973712766
23559900 14 17844527696061627247
3493558 16 18271818916525000787
35225 105 16889514250920733645
445580 8 18409719681944718792
474 4 18408605889423914223
6287921 2 18200597990621885351

> <PUBCHEM_SHAPE_MULTIPOLES>
599.55
9.47
5.55
2.44
13.38
7.21
-1.78
0.82
-0.18
-4.97
2.52
-1.36
-2
-1.46

> <PUBCHEM_SHAPE_SELFOVERLAP>
1255.78

> <PUBCHEM_SHAPE_VOLUME>
338.3

> <PUBCHEM_COORDINATE_TYPE>
2
5
10

$$$$
