75536602
  -OEChem-12032416303D

 44 46  0     1  0  0  0  0  0999 V2000
    6.9346   -0.7565    0.7892 S   0  0  0  0  0  0  0  0  0  0  0  0
    0.8699    0.9163    0.0927 O   0  0  0  0  0  0  0  0  0  0  0  0
   -0.2376   -2.4605   -0.4331 O   0  0  0  0  0  0  0  0  0  0  0  0
    4.3552   -1.8807   -0.0966 O   0  0  0  0  0  0  0  0  0  0  0  0
   -4.5758    2.1125   -0.6534 O   0  0  0  0  0  0  0  0  0  0  0  0
   -2.5368   -0.3444   -0.0982 N   0  0  0  0  0  0  0  0  0  0  0  0
    3.4072    0.0559   -0.9531 N   0  0  0  0  0  0  0  0  0  0  0  0
   -1.1442   -0.3221    0.3190 C   0  0  1  0  0  0  0  0  0  0  0  0
   -0.2135   -1.0595   -0.6259 C   0  0  1  0  0  0  0  0  0  0  0  0
    1.1313   -0.4567   -0.2426 C   0  0  1  0  0  0  0  0  0  0  0  0
   -0.5442    1.0742    0.3035 C   0  0  0  0  0  0  0  0  0  0  0  0
    2.1599   -0.5260   -1.3573 C   0  0  0  0  0  0  0  0  0  0  0  0
   -3.4170    0.0710    0.9874 C   0  0  0  0  0  0  0  0  0  0  0  0
   -4.8630    0.0700    0.5682 C   0  0  0  0  0  0  0  0  0  0  0  0
    4.4203   -0.6798   -0.3459 C   0  0  0  0  0  0  0  0  0  0  0  0
   -5.3738    1.0913   -0.2326 C   0  0  0  0  0  0  0  0  0  0  0  0
   -5.6945   -0.9674    0.9902 C   0  0  0  0  0  0  0  0  0  0  0  0
    5.6411    0.0756    0.0365 C   0  0  0  0  0  0  0  0  0  0  0  0
   -6.7160    1.0753   -0.6117 C   0  0  0  0  0  0  0  0  0  0  0  0
   -7.0369   -0.9834    0.6112 C   0  0  0  0  0  0  0  0  0  0  0  0
   -7.5477    0.0379   -0.1897 C   0  0  0  0  0  0  0  0  0  0  0  0
    5.9141    1.4159   -0.1272 C   0  0  0  0  0  0  0  0  0  0  0  0
    7.2025    1.7642    0.3717 C   0  0  0  0  0  0  0  0  0  0  0  0
    7.8649    0.6770    0.8978 C   0  0  0  0  0  0  0  0  0  0  0  0
   -1.0397   -0.7708    1.3171 H   0  0  0  0  0  0  0  0  0  0  0  0
   -0.4605   -0.8423   -1.6726 H   0  0  0  0  0  0  0  0  0  0  0  0
    1.5319   -0.9420    0.6572 H   0  0  0  0  0  0  0  0  0  0  0  0
   -0.9277    1.6833   -0.5233 H   0  0  0  0  0  0  0  0  0  0  0  0
   -0.7125    1.6171    1.2384 H   0  0  0  0  0  0  0  0  0  0  0  0
    1.8222    0.0460   -2.2285 H   0  0  0  0  0  0  0  0  0  0  0  0
    2.3257   -1.5636   -1.6664 H   0  0  0  0  0  0  0  0  0  0  0  0
   -2.7850   -1.2934   -0.3797 H   0  0  0  0  0  0  0  0  0  0  0  0
   -3.1610    1.0787    1.3386 H   0  0  0  0  0  0  0  0  0  0  0  0
   -3.2895   -0.5920    1.8533 H   0  0  0  0  0  0  0  0  0  0  0  0
   -0.0193   -2.6451    0.4960 H   0  0  0  0  0  0  0  0  0  0  0  0
    3.5254    1.0501   -1.1157 H   0  0  0  0  0  0  0  0  0  0  0  0
   -5.3111   -1.7717    1.6124 H   0  0  0  0  0  0  0  0  0  0  0  0
   -7.1275    1.8645   -1.2354 H   0  0  0  0  0  0  0  0  0  0  0  0
   -7.6843   -1.7914    0.9392 H   0  0  0  0  0  0  0  0  0  0  0  0
   -8.5928    0.0252   -0.4848 H   0  0  0  0  0  0  0  0  0  0  0  0
    5.2413    2.1328   -0.5789 H   0  0  0  0  0  0  0  0  0  0  0  0
   -5.1022    2.7236   -1.1968 H   0  0  0  0  0  0  0  0  0  0  0  0
    7.6222    2.7614    0.3461 H   0  0  0  0  0  0  0  0  0  0  0  0
    8.8506    0.6560    1.3408 H   0  0  0  0  0  0  0  0  0  0  0  0
  1 18  1  0  0  0  0
  1 24  1  0  0  0  0
  2 10  1  0  0  0  0
  2 11  1  0  0  0  0
  3  9  1  0  0  0  0
  3 35  1  0  0  0  0
  4 15  2  0  0  0  0
  5 16  1  0  0  0  0
  5 42  1  0  0  0  0
  6  8  1  0  0  0  0
  6 13  1  0  0  0  0
  6 32  1  0  0  0  0
  7 12  1  0  0  0  0
  7 15  1  0  0  0  0
  7 36  1  0  0  0  0
  8  9  1  0  0  0  0
  8 11  1  0  0  0  0
  8 25  1  0  0  0  0
  9 10  1  0  0  0  0
  9 26  1  0  0  0  0
 10 12  1  0  0  0  0
 10 27  1  0  0  0  0
 11 28  1  0  0  0  0
 11 29  1  0  0  0  0
 12 30  1  0  0  0  0
 12 31  1  0  0  0  0
 13 14  1  0  0  0  0
 13 33  1  0  0  0  0
 13 34  1  0  0  0  0
 14 16  1  0  0  0  0
 14 17  2  0  0  0  0
 15 18  1  0  0  0  0
 16 19  2  0  0  0  0
 17 20  1  0  0  0  0
 17 37  1  0  0  0  0
 18 22  2  0  0  0  0
 19 21  1  0  0  0  0
 19 38  1  0  0  0  0
 20 21  2  0  0  0  0
 20 39  1  0  0  0  0
 21 40  1  0  0  0  0
 22 23  1  0  0  0  0
 22 41  1  0  0  0  0
 23 24  2  0  0  0  0
 23 43  1  0  0  0  0
 24 44  1  0  0  0  0
M  END
> <PUBCHEM_COMPOUND_CID>
75536602

> <PUBCHEM_CONFORMER_RMSD>
1

> <PUBCHEM_CONFORMER_DIVERSEORDER>
1
38
223
107
10
74
55
65
221
62
142
21
82
197
43
172
141
219
98
8
208
95
73
169
110
125
143
93
202
195
39
80
165
150
205
66
77
49
61
218
149
104
127
187
162
185
89
188
204
120
178
192
30
111
147
31
135
154
159
194
158
87
14
78
97
24
139
122
175
84
207
51
177
179
164
198
155
92
101
41
48
128
71
91
119
210
35
81
126
34
180
166
7
216
163
131
138
220
20
193
32
88
206
76
19
103
44
190
109
63
133
212
117
167
196
152
69
151
16
121
59
102
123
214
132
199
105
86
124
134
100
96
23
200
47
130
68
58
26
146
83
67
60
15
213
70
94
22
118
145
144
153
114
171
224
85
29
112
57
157
106
33
25
56
50
37
170
183
201
161
79
156
136
45
46
54
4
42
53
99
116
18
222
27
215
189
209
174
140
211
160
75
9
72
173
12
225
181
40
2
184
191
90
36
186
17
182
115
5
137
52
3
6
11
148
64
129
108
13
217
168
28
203
176
113

> <PUBCHEM_MMFF94_PARTIAL_CHARGES>
35
1 -0.08
10 0.28
11 0.28
12 0.3
13 0.41
14 -0.14
15 0.71
16 0.08
17 -0.15
18 -0.05
19 -0.15
2 -0.56
20 -0.15
21 -0.15
22 -0.15
23 -0.15
24 -0.11
3 -0.68
32 0.36
35 0.4
36 0.37
37 0.15
38 0.15
39 0.15
4 -0.57
40 0.15
41 0.15
42 0.45
43 0.15
44 0.15
5 -0.53
6 -0.9
7 -0.73
8 0.27
9 0.28

> <PUBCHEM_EFFECTIVE_ROTOR_COUNT>
8

> <PUBCHEM_PHARMACOPHORE_FEATURES>
11
1 2 acceptor
1 3 acceptor
1 3 donor
1 4 acceptor
1 5 donor
1 6 cation
1 6 donor
1 7 donor
5 1 18 22 23 24 rings
5 2 8 9 10 11 rings
6 14 16 17 19 20 21 rings

> <PUBCHEM_HEAVY_ATOM_COUNT>
24

> <PUBCHEM_ATOM_DEF_STEREO_COUNT>
3

> <PUBCHEM_ATOM_UDEF_STEREO_COUNT>
0

> <PUBCHEM_BOND_DEF_STEREO_COUNT>
0

> <PUBCHEM_BOND_UDEF_STEREO_COUNT>
0

> <PUBCHEM_ISOTOPIC_ATOM_COUNT>
0

> <PUBCHEM_COMPONENT_COUNT>
1

> <PUBCHEM_CACTVS_TAUTO_COUNT>
6

> <PUBCHEM_CONFORMER_ID>
048098DA00000001

> <PUBCHEM_MMFF94_ENERGY>
46.0504

> <PUBCHEM_FEATURE_SELFOVERLAP>
55.822

> <PUBCHEM_SHAPE_FINGERPRINT>
10 15 18408886256646981554
10299344 5 11384116340647055245
106641 1 18342177803536468906
10835480 77 18338795607555128053
11315181 36 18060139835098903929
11638347 137 18259704480726298178
11719270 70 18408888425674576990
125118 31 18334579027575560468
12592606 108 11097861804571492857
13533116 47 16845298185969606414
13673619 4 12757144689079073670
13885169 127 17603864490396923957
13914758 101 16732982003080695333
14123256 10 16702020881108285192
14251764 18 17603587443394196222
14849402 71 17703792569463533065
14856354 85 12391508698901036041
15131766 46 17535199062089209780
15183329 4 15068343405997655330
15419008 47 18411695482765451193
15849732 13 18408323297908369284
16090146 7 13757801489664472942
17093844 174 17894349982657263849
19489759 90 17676492735644378113
20157964 124 18131354086143040462
20281389 69 18410292519239662608
21130935 74 18337395937637403027
21150785 3 17346596387305449717
21315763 28 18261110764339731928
21365058 27 15410897366492204357
21521721 280 17917996083127833171
220451 1 14045743694848263893
22224240 67 17775283876463646038
23035841 295 9583518715821965677
23081809 10 15984830281043599791
23559900 14 18335137623012067561
249057 25 17167875148909009693
28498 318 12396291565306020418
34797466 226 13758355587911856000
4073 2 17822299036733221722
4325135 7 14476961185931439081
4339292 15 18264770034502976747
4340502 62 17822009809541014506
5207 217 16917349242397045855
5470011 282 10519987089374033288
5758199 1 16056884628218036455
59682541 35 18059858406755189675
636775 72 18339079282046328081
6394761 36 13117997799364804461

> <PUBCHEM_SHAPE_MULTIPOLES>
464.32
25.23
1.69
0.98
4.62
0.04
0.01
-5.62
-4.86
0.5
0.16
0.07
0.08
1.1

> <PUBCHEM_SHAPE_SELFOVERLAP>
971.322

> <PUBCHEM_SHAPE_VOLUME>
263.3

> <PUBCHEM_COORDINATE_TYPE>
2
5
10

$$$$
