45783631
  -OEChem-12032416273D

 53 56  0     1  0  0  0  0  0999 V2000
   -2.6357   -0.9794    1.9876 O   0  0  0  0  0  0  0  0  0  0  0  0
   -3.0070    1.9506   -0.9848 O   0  0  0  0  0  0  0  0  0  0  0  0
   -0.0504    2.4458   -1.1865 O   0  0  0  0  0  0  0  0  0  0  0  0
    7.8136   -0.0855   -1.3282 O   0  0  0  0  0  0  0  0  0  0  0  0
    5.2511   -0.5058   -1.5546 O   0  0  0  0  0  0  0  0  0  0  0  0
   -4.3240   -0.6715   -1.0789 N   0  0  1  0  0  0  0  0  0  0  0  0
   -1.4548   -1.1833    0.0953 N   0  0  0  0  0  0  0  0  0  0  0  0
   -1.3043   -0.7086    2.3283 N   0  0  0  0  0  0  0  0  0  0  0  0
    2.8676   -0.1327    2.0538 N   0  0  0  0  0  0  0  0  0  0  0  0
    4.8256   -0.1059    0.7273 N   0  0  0  0  0  0  0  0  0  0  0  0
   -3.9771   -1.5777    0.0342 C   0  0  1  0  0  0  0  0  0  0  0  0
   -4.0171   -2.9880   -0.5826 C   0  0  0  0  0  0  0  0  0  0  0  0
   -4.4541   -2.7788   -2.0255 C   0  0  0  0  0  0  0  0  0  0  0  0
   -5.1679   -1.4426   -1.9919 C   0  0  0  0  0  0  0  0  0  0  0  0
   -4.9723    0.5571   -0.6387 C   0  0  0  0  0  0  0  0  0  0  0  0
   -2.6359   -1.2493    0.6559 C   0  0  0  0  0  0  0  0  0  0  0  0
   -3.9778    1.5602   -0.1177 C   0  0  0  0  0  0  0  0  0  0  0  0
   -3.8280    2.1955    1.0933 C   0  0  0  0  0  0  0  0  0  0  0  0
   -0.6702   -0.8485    1.1603 C   0  0  0  0  0  0  0  0  0  0  0  0
   -2.2290    2.8450   -0.3201 C   0  0  0  0  0  0  0  0  0  0  0  0
   -2.6925    3.0300    0.9616 C   0  0  0  0  0  0  0  0  0  0  0  0
    0.7456   -0.6627    1.0239 C   0  0  0  0  0  0  0  0  0  0  0  0
   -1.0998    3.4099   -1.0726 C   0  0  0  0  0  0  0  0  0  0  0  0
    1.3735   -0.8180   -0.2071 C   0  0  0  0  0  0  0  0  0  0  0  0
    1.5304   -0.3226    2.1138 C   0  0  0  0  0  0  0  0  0  0  0  0
    2.7476   -0.6310   -0.3088 C   0  0  0  0  0  0  0  0  0  0  0  0
    3.4430   -0.2923    0.8408 C   0  0  0  0  0  0  0  0  0  0  0  0
    5.6182   -0.2192   -0.4192 C   0  0  0  0  0  0  0  0  0  0  0  0
    7.0786    0.0522   -0.1298 C   0  0  0  0  0  0  0  0  0  0  0  0
    9.2030    0.1571   -1.1292 C   0  0  0  0  0  0  0  0  0  0  0  0
   -4.7466   -1.5428    0.8185 H   0  0  0  0  0  0  0  0  0  0  0  0
   -3.0612   -3.5210   -0.5387 H   0  0  0  0  0  0  0  0  0  0  0  0
   -4.7642   -3.5974   -0.0593 H   0  0  0  0  0  0  0  0  0  0  0  0
   -5.0957   -3.5886   -2.3851 H   0  0  0  0  0  0  0  0  0  0  0  0
   -3.5734   -2.7260   -2.6776 H   0  0  0  0  0  0  0  0  0  0  0  0
   -6.1858   -1.5646   -1.6003 H   0  0  0  0  0  0  0  0  0  0  0  0
   -5.2206   -0.9899   -2.9869 H   0  0  0  0  0  0  0  0  0  0  0  0
   -5.4680    1.0390   -1.4925 H   0  0  0  0  0  0  0  0  0  0  0  0
   -5.7553    0.3692    0.1065 H   0  0  0  0  0  0  0  0  0  0  0  0
   -4.4565    2.0726    1.9636 H   0  0  0  0  0  0  0  0  0  0  0  0
   -2.2665    3.6828    1.7099 H   0  0  0  0  0  0  0  0  0  0  0  0
   -0.6976    4.2940   -0.5678 H   0  0  0  0  0  0  0  0  0  0  0  0
   -1.4128    3.6991   -2.0809 H   0  0  0  0  0  0  0  0  0  0  0  0
    0.8160   -1.0829   -1.1020 H   0  0  0  0  0  0  0  0  0  0  0  0
    1.1182   -0.1823    3.1087 H   0  0  0  0  0  0  0  0  0  0  0  0
    3.1634   -0.7678   -1.2935 H   0  0  0  0  0  0  0  0  0  0  0  0
    0.6682    2.8671   -1.6883 H   0  0  0  0  0  0  0  0  0  0  0  0
    5.2892    0.1409    1.5984 H   0  0  0  0  0  0  0  0  0  0  0  0
    7.4313   -0.6691    0.6159 H   0  0  0  0  0  0  0  0  0  0  0  0
    7.1779    1.0711    0.2608 H   0  0  0  0  0  0  0  0  0  0  0  0
    9.7137    0.0357   -2.0882 H   0  0  0  0  0  0  0  0  0  0  0  0
    9.6180   -0.5625   -0.4170 H   0  0  0  0  0  0  0  0  0  0  0  0
    9.3649    1.1787   -0.7721 H   0  0  0  0  0  0  0  0  0  0  0  0
  1  8  1  0  0  0  0
  1 16  1  0  0  0  0
  2 17  1  0  0  0  0
  2 20  1  0  0  0  0
  3 23  1  0  0  0  0
  3 47  1  0  0  0  0
  4 29  1  0  0  0  0
  4 30  1  0  0  0  0
  5 28  2  0  0  0  0
  6 11  1  0  0  0  0
  6 14  1  0  0  0  0
  6 15  1  0  0  0  0
  7 16  2  0  0  0  0
  7 19  1  0  0  0  0
  8 19  2  0  0  0  0
  9 25  1  0  0  0  0
  9 27  2  0  0  0  0
 10 27  1  0  0  0  0
 10 28  1  0  0  0  0
 10 48  1  0  0  0  0
 11 12  1  0  0  0  0
 11 16  1  0  0  0  0
 11 31  1  0  0  0  0
 12 13  1  0  0  0  0
 12 32  1  0  0  0  0
 12 33  1  0  0  0  0
 13 14  1  0  0  0  0
 13 34  1  0  0  0  0
 13 35  1  0  0  0  0
 14 36  1  0  0  0  0
 14 37  1  0  0  0  0
 15 17  1  0  0  0  0
 15 38  1  0  0  0  0
 15 39  1  0  0  0  0
 17 18  2  0  0  0  0
 18 21  1  0  0  0  0
 18 40  1  0  0  0  0
 19 22  1  0  0  0  0
 20 21  2  0  0  0  0
 20 23  1  0  0  0  0
 21 41  1  0  0  0  0
 22 24  1  0  0  0  0
 22 25  2  0  0  0  0
 23 42  1  0  0  0  0
 23 43  1  0  0  0  0
 24 26  2  0  0  0  0
 24 44  1  0  0  0  0
 25 45  1  0  0  0  0
 26 27  1  0  0  0  0
 26 46  1  0  0  0  0
 28 29  1  0  0  0  0
 29 49  1  0  0  0  0
 29 50  1  0  0  0  0
 30 51  1  0  0  0  0
 30 52  1  0  0  0  0
 30 53  1  0  0  0  0
M  END
> <PUBCHEM_COMPOUND_CID>
45783631

> <PUBCHEM_CONFORMER_RMSD>
1

> <PUBCHEM_CONFORMER_DIVERSEORDER>
1
29
38
4
32
24
25
20
31
12
27
3
40
33
39
26
11
30
13
45
9
47
17
41
16
34
46
28
35
43
44
15
21
5
2
19
22
37
10
7
23
6
14
36
42
8
18

> <PUBCHEM_MMFF94_PARTIAL_CHARGES>
35
1 -0.02
10 -0.55
11 0.45
14 0.27
15 0.45
16 0.3
17 -0.04
18 -0.15
19 0.46
2 -0.28
20 -0.04
21 -0.15
22 0.05
23 0.46
24 -0.15
25 0.16
26 -0.15
27 0.43
28 0.57
29 0.34
3 -0.68
30 0.28
4 -0.56
40 0.15
41 0.15
44 0.15
45 0.15
46 0.15
47 0.4
48 0.37
5 -0.57
6 -0.81
7 -0.57
8 -0.41
9 -0.62

> <PUBCHEM_EFFECTIVE_ROTOR_COUNT>
10

> <PUBCHEM_PHARMACOPHORE_FEATURES>
12
1 10 donor
1 2 acceptor
1 3 acceptor
1 3 donor
1 4 acceptor
1 5 acceptor
1 6 cation
3 7 8 19 cation
5 1 7 8 16 19 rings
5 2 17 18 20 21 rings
5 6 11 12 13 14 rings
6 9 22 24 25 26 27 rings

> <PUBCHEM_HEAVY_ATOM_COUNT>
30

> <PUBCHEM_ATOM_DEF_STEREO_COUNT>
1

> <PUBCHEM_ATOM_UDEF_STEREO_COUNT>
0

> <PUBCHEM_BOND_DEF_STEREO_COUNT>
0

> <PUBCHEM_BOND_UDEF_STEREO_COUNT>
0

> <PUBCHEM_ISOTOPIC_ATOM_COUNT>
0

> <PUBCHEM_COMPONENT_COUNT>
1

> <PUBCHEM_CACTVS_TAUTO_COUNT>
11

> <PUBCHEM_CONFORMER_ID>
02BA9A4F00000001

> <PUBCHEM_MMFF94_ENERGY>
51.7211

> <PUBCHEM_FEATURE_SELFOVERLAP>
60.909

> <PUBCHEM_SHAPE_FINGERPRINT>
10 15 13406790034907252302
10087517 78 18187087230843034924
10165383 225 17846225398144238089
10454371 7 18411142424796341620
10670039 82 18335137588098070724
10871710 139 18042114368026598989
11101153 10 18266462186290738228
11477941 20 18410849984309214708
11578080 2 17914910746083744406
12788726 201 18114733833416622121
13782708 43 17917710223670333038
13947920 75 18334293158556486526
13994607 96 17676493805049030689
14910302 57 17988066812663079915
15183329 4 18260547793465505066
15876981 60 18335144219242902421
17492 54 18043227095548085941
17686467 74 18267018539506234720
20775438 99 16899302125534565959
21033650 10 18412829057777825962
21236236 1 18334861597826472920
21304303 64 16298660595679185989
21756936 100 17822302253373153753
22393880 68 17917704691156337410
23516275 100 18047175630487949060
23557571 272 18201708575239644859
23559900 14 17131544028815292218
255183 451 17908131437420478615
4098825 35 18338520725859547606
4169191 19 17095818715234476918
484985 159 13038892336204880605
5171179 24 18269551796716633920
531348 171 18270681952693233030
6201320 215 18262233306421594672
6608658 132 18187357714570946348
68570916 9 10231741298669500930
999808 66 14979963571073533462

> <PUBCHEM_SHAPE_MULTIPOLES>
563.13
17.42
3.2
1.97
47.04
2.05
0.49
-3.88
-9.9
-6.92
-1.21
-0.26
-0.4
-1.22

> <PUBCHEM_SHAPE_SELFOVERLAP>
1208.204

> <PUBCHEM_SHAPE_VOLUME>
312.6

> <PUBCHEM_COORDINATE_TYPE>
2
5
10

$$$$
