45783651
  -OEChem-12032416263D

 55 59  0     1  0  0  0  0  0999 V2000
    0.9946    2.5761    1.7654 O   0  0  0  0  0  0  0  0  0  0  0  0
    3.9254   -4.7582   -0.6227 O   0  0  0  0  0  0  0  0  0  0  0  0
    3.3658    1.3632   -0.7668 N   0  0  1  0  0  0  0  0  0  0  0  0
    3.8401   -2.6721    0.3963 N   0  0  0  0  0  0  0  0  0  0  0  0
    0.4552    1.4876   -0.1163 N   0  0  0  0  0  0  0  0  0  0  0  0
   -0.3525    2.2157    1.8966 N   0  0  0  0  0  0  0  0  0  0  0  0
   -4.1723    0.6149    1.0873 N   0  0  0  0  0  0  0  0  0  0  0  0
   -5.6016   -0.5441   -0.3665 N   0  0  0  0  0  0  0  0  0  0  0  0
   -7.7376   -1.0831   -0.0864 N   0  0  0  0  0  0  0  0  0  0  0  0
    3.8974    0.1808   -0.0934 C   0  0  0  0  0  0  0  0  0  0  0  0
    2.8329    2.3749    0.1675 C   0  0  1  0  0  0  0  0  0  0  0  0
    4.3812    2.0401   -1.5739 C   0  0  0  0  0  0  0  0  0  0  0  0
    3.0152    3.7175   -0.5642 C   0  0  0  0  0  0  0  0  0  0  0  0
    2.8100   -0.4632    0.7765 C   0  0  0  0  0  0  0  0  0  0  0  0
    4.4209   -0.8236   -1.1281 C   0  0  0  0  0  0  0  0  0  0  0  0
    3.7123    3.3668   -1.8711 C   0  0  0  0  0  0  0  0  0  0  0  0
    3.3146   -1.7564    1.4166 C   0  0  0  0  0  0  0  0  0  0  0  0
    4.8938   -2.1083   -0.4501 C   0  0  0  0  0  0  0  0  0  0  0  0
    1.3926    2.1100    0.5527 C   0  0  0  0  0  0  0  0  0  0  0  0
    3.4426   -3.9970    0.2196 C   0  0  0  0  0  0  0  0  0  0  0  0
    2.3503   -4.5016    1.1284 C   0  0  0  0  0  0  0  0  0  0  0  0
   -0.5968    1.5777    0.7480 C   0  0  0  0  0  0  0  0  0  0  0  0
   -1.8806    1.0207    0.4328 C   0  0  0  0  0  0  0  0  0  0  0  0
   -2.1010    0.3642   -0.7730 C   0  0  0  0  0  0  0  0  0  0  0  0
   -2.9394    1.1183    1.3210 C   0  0  0  0  0  0  0  0  0  0  0  0
   -3.3559   -0.1670   -1.0498 C   0  0  0  0  0  0  0  0  0  0  0  0
   -4.3489   -0.0162   -0.0952 C   0  0  0  0  0  0  0  0  0  0  0  0
   -5.9707   -1.2121   -1.5000 C   0  0  0  0  0  0  0  0  0  0  0  0
   -6.6950   -0.4913    0.4526 C   0  0  0  0  0  0  0  0  0  0  0  0
   -7.2929   -1.5346   -1.3037 C   0  0  0  0  0  0  0  0  0  0  0  0
    4.7338    0.4666    0.5611 H   0  0  0  0  0  0  0  0  0  0  0  0
    3.4398    2.4142    1.0834 H   0  0  0  0  0  0  0  0  0  0  0  0
    5.3128    2.2019   -1.0168 H   0  0  0  0  0  0  0  0  0  0  0  0
    4.6048    1.5189   -2.5094 H   0  0  0  0  0  0  0  0  0  0  0  0
    3.6601    4.3765    0.0299 H   0  0  0  0  0  0  0  0  0  0  0  0
    2.0764    4.2488   -0.7545 H   0  0  0  0  0  0  0  0  0  0  0  0
    1.9252   -0.7013    0.1730 H   0  0  0  0  0  0  0  0  0  0  0  0
    2.5137    0.1791    1.6096 H   0  0  0  0  0  0  0  0  0  0  0  0
    5.2667   -0.4191   -1.6945 H   0  0  0  0  0  0  0  0  0  0  0  0
    3.6289   -1.0683   -1.8484 H   0  0  0  0  0  0  0  0  0  0  0  0
    4.4255    4.1372   -2.1788 H   0  0  0  0  0  0  0  0  0  0  0  0
    2.9692    3.2512   -2.6700 H   0  0  0  0  0  0  0  0  0  0  0  0
    4.1357   -1.5436    2.1118 H   0  0  0  0  0  0  0  0  0  0  0  0
    2.5105   -2.2102    1.9987 H   0  0  0  0  0  0  0  0  0  0  0  0
    5.2120   -2.8300   -1.2091 H   0  0  0  0  0  0  0  0  0  0  0  0
    5.7584   -1.9075    0.1938 H   0  0  0  0  0  0  0  0  0  0  0  0
    1.4388   -3.9151    0.9856 H   0  0  0  0  0  0  0  0  0  0  0  0
    2.6758   -4.4589    2.1711 H   0  0  0  0  0  0  0  0  0  0  0  0
    2.1261   -5.5444    0.8836 H   0  0  0  0  0  0  0  0  0  0  0  0
   -1.3133    0.2518   -1.5137 H   0  0  0  0  0  0  0  0  0  0  0  0
   -2.8505    1.6142    2.2830 H   0  0  0  0  0  0  0  0  0  0  0  0
   -3.4786   -0.6688   -2.0009 H   0  0  0  0  0  0  0  0  0  0  0  0
   -5.3307   -1.4205   -2.3445 H   0  0  0  0  0  0  0  0  0  0  0  0
   -6.6899   -0.0166    1.4253 H   0  0  0  0  0  0  0  0  0  0  0  0
   -7.9472   -2.0689   -1.9770 H   0  0  0  0  0  0  0  0  0  0  0  0
  1  6  1  0  0  0  0
  1 19  1  0  0  0  0
  2 20  2  0  0  0  0
  3 10  1  0  0  0  0
  3 11  1  0  0  0  0
  3 12  1  0  0  0  0
  4 17  1  0  0  0  0
  4 18  1  0  0  0  0
  4 20  1  0  0  0  0
  5 19  2  0  0  0  0
  5 22  1  0  0  0  0
  6 22  2  0  0  0  0
  7 25  1  0  0  0  0
  7 27  2  0  0  0  0
  8 27  1  0  0  0  0
  8 28  1  0  0  0  0
  8 29  1  0  0  0  0
  9 29  2  0  0  0  0
  9 30  1  0  0  0  0
 10 14  1  0  0  0  0
 10 15  1  0  0  0  0
 10 31  1  0  0  0  0
 11 13  1  0  0  0  0
 11 19  1  0  0  0  0
 11 32  1  0  0  0  0
 12 16  1  0  0  0  0
 12 33  1  0  0  0  0
 12 34  1  0  0  0  0
 13 16  1  0  0  0  0
 13 35  1  0  0  0  0
 13 36  1  0  0  0  0
 14 17  1  0  0  0  0
 14 37  1  0  0  0  0
 14 38  1  0  0  0  0
 15 18  1  0  0  0  0
 15 39  1  0  0  0  0
 15 40  1  0  0  0  0
 16 41  1  0  0  0  0
 16 42  1  0  0  0  0
 17 43  1  0  0  0  0
 17 44  1  0  0  0  0
 18 45  1  0  0  0  0
 18 46  1  0  0  0  0
 20 21  1  0  0  0  0
 21 47  1  0  0  0  0
 21 48  1  0  0  0  0
 21 49  1  0  0  0  0
 22 23  1  0  0  0  0
 23 24  1  0  0  0  0
 23 25  2  0  0  0  0
 24 26  2  0  0  0  0
 24 50  1  0  0  0  0
 25 51  1  0  0  0  0
 26 27  1  0  0  0  0
 26 52  1  0  0  0  0
 28 30  2  0  0  0  0
 28 53  1  0  0  0  0
 29 54  1  0  0  0  0
 30 55  1  0  0  0  0
M  END
> <PUBCHEM_COMPOUND_CID>
45783651

> <PUBCHEM_CONFORMER_RMSD>
1

> <PUBCHEM_CONFORMER_DIVERSEORDER>
1
49
54
46
35
51
30
47
53
37
19
8
43
13
52
27
50
42
33
18
12
10
31
41
26
22
4
5
40
34
15
7
24
3
48
16
23
44
20
39
29
45
21
17
9
6
38
2
25
14
28
32
36
11

> <PUBCHEM_MMFF94_PARTIAL_CHARGES>
32
1 -0.02
10 0.27
11 0.45
12 0.27
17 0.3
18 0.3
19 0.3
2 -0.57
20 0.57
21 0.06
22 0.46
23 0.05
24 -0.15
25 0.16
26 -0.15
27 0.29
28 -0.3
29 0.04
3 -0.81
30 0.08
4 -0.66
5 -0.57
50 0.15
51 0.15
52 0.15
53 0.15
54 0.15
55 0.15
6 -0.41
7 -0.62
8 0.33
9 -0.57

> <PUBCHEM_EFFECTIVE_ROTOR_COUNT>
7.2

> <PUBCHEM_PHARMACOPHORE_FEATURES>
10
1 2 acceptor
1 3 cation
3 5 6 22 cation
3 7 8 27 cation
3 8 9 29 cation
5 1 5 6 19 22 rings
5 3 11 12 13 16 rings
5 8 9 28 29 30 rings
6 4 10 14 15 17 18 rings
6 7 23 24 25 26 27 rings

> <PUBCHEM_HEAVY_ATOM_COUNT>
30

> <PUBCHEM_ATOM_DEF_STEREO_COUNT>
1

> <PUBCHEM_ATOM_UDEF_STEREO_COUNT>
0

> <PUBCHEM_BOND_DEF_STEREO_COUNT>
0

> <PUBCHEM_BOND_UDEF_STEREO_COUNT>
0

> <PUBCHEM_ISOTOPIC_ATOM_COUNT>
0

> <PUBCHEM_COMPONENT_COUNT>
1

> <PUBCHEM_CACTVS_TAUTO_COUNT>
1

> <PUBCHEM_CONFORMER_ID>
02BA9A6300000001

> <PUBCHEM_MMFF94_ENERGY>
55.9402

> <PUBCHEM_FEATURE_SELFOVERLAP>
50.868

> <PUBCHEM_SHAPE_FINGERPRINT>
10319926 262 15482683385911772641
10448021 39 18340764862417549895
10622 236 18269271253552075867
11069576 57 18411139121660120310
11181472 205 18408889521724862965
11227150 75 16808958128059854138
117089 54 17984149166550035086
11801155 225 17913763097033644159
12107183 9 18054237527257646449
12166972 35 18335703793241499255
13150687 139 18117008869942681412
13533116 47 18412825815531158361
1361 2 18409448089624550338
13692114 37 18196929088693899648
14347332 77 18342454834024153993
14400156 96 12175611889346121227
14675020 138 18197485432597944624
14863182 85 18339913905707369712
15183329 4 17846506971895075117
15250474 111 18341895220779922923
15467298 65 18127962204494275783
15475509 35 18130216138398998803
17134984 74 18265615557788727575
17492 89 18196651800656492946
19026451 147 18410855417769806810
19319366 153 18269271429867014964
20587220 46 17846778524511557838
20775438 99 18337100280425661930
20775530 9 18125145057702068950
21133410 171 16955316315519044978
21304303 94 18334855060416796114
21585483 132 17773011238060095951
21599406 157 18042107921386222471
21792934 111 12966866650074924739
21859007 373 13685758065219384057
23522609 53 17985015754381540657
23569914 152 17614244829931067215
255183 451 18197785401624885910
3004659 81 18412826893119758196
3411729 13 16270789233919112768
345986 75 17846778477498168977
3472631 163 14779831632274064228
34797466 226 17023182786359484733
3534868 343 18335712671024114861
397830 11 10951763136627561229
4073 2 17911794992788478409
44280117 145 17694511343771398342
4435113 14 18041856120254605611
46194498 28 17967526887299471332
5223283 242 17533203173110640069
59682541 52 18334004009021948133
6025842 7 18261674878277101124
6058803 2 18126306167656346376
70251023 43 18335420132179331560
7970288 3 18270960116076163191
9831232 110 18334286536313515199

> <PUBCHEM_SHAPE_MULTIPOLES>
570.78
16.52
5.19
1.57
35.46
4.74
0.03
9.14
-6.08
-11.4
0.04
-0.05
-0.6
-2.65

> <PUBCHEM_SHAPE_SELFOVERLAP>
1242.037

> <PUBCHEM_SHAPE_VOLUME>
312.5

> <PUBCHEM_COORDINATE_TYPE>
2
5
10

$$$$
