38026924
  -OEChem-12032416413D

 62 63  0     1  0  0  0  0  0999 V2000
    0.9627   -2.5811   -0.3688 O   0  0  0  0  0  0  0  0  0  0  0  0
   -3.6142    3.2118   -1.2510 O   0  0  0  0  0  0  0  0  0  0  0  0
    6.2447    2.2043    0.1690 O   0  0  0  0  0  0  0  0  0  0  0  0
    2.2984   -0.6846   -0.2519 N   0  0  0  0  0  0  0  0  0  0  0  0
   -3.4426    2.0256    0.7473 N   0  0  0  0  0  0  0  0  0  0  0  0
    4.9348    0.2873    0.1102 N   0  0  0  0  0  0  0  0  0  0  0  0
   -2.8368   -0.5717   -0.6421 C   0  0  1  0  0  0  0  0  0  0  0  0
   -3.8440   -0.3691    0.5175 C   0  0  1  0  0  0  0  0  0  0  0  0
   -1.9418   -1.7900   -0.3684 C   0  0  0  0  0  0  0  0  0  0  0  0
   -1.1509   -1.6483    0.9458 C   0  0  2  0  0  0  0  0  0  0  0  0
   -3.5469   -0.7418   -1.9889 C   0  0  0  0  0  0  0  0  0  0  0  0
   -2.0340   -1.1872    2.0875 C   0  0  0  0  0  0  0  0  0  0  0  0
   -3.2399   -0.6302    1.8774 C   0  0  0  0  0  0  0  0  0  0  0  0
    0.0506   -0.7134    0.7693 C   0  0  0  0  0  0  0  0  0  0  0  0
   -4.4454    1.0406    0.4879 C   0  0  0  0  0  0  0  0  0  0  0  0
   -2.6199   -0.3439   -3.1331 C   0  0  0  0  0  0  0  0  0  0  0  0
   -4.0291   -2.1789   -2.1581 C   0  0  0  0  0  0  0  0  0  0  0  0
   -1.5185   -1.4230    3.4800 C   0  0  0  0  0  0  0  0  0  0  0  0
    1.1387   -1.4164   -0.0023 C   0  0  0  0  0  0  0  0  0  0  0  0
    3.4041   -1.2969   -0.9928 C   0  0  0  0  0  0  0  0  0  0  0  0
    2.5093    0.7246    0.1048 C   0  0  0  0  0  0  0  0  0  0  0  0
    4.7242   -1.1219   -0.2465 C   0  0  0  0  0  0  0  0  0  0  0  0
    3.8292    0.8992    0.8513 C   0  0  0  0  0  0  0  0  0  0  0  0
   -3.1044    3.0388   -0.1471 C   0  0  0  0  0  0  0  0  0  0  0  0
    6.0935    1.0200   -0.1415 C   0  0  0  0  0  0  0  0  0  0  0  0
   -2.0348    3.9539    0.3862 C   0  0  0  0  0  0  0  0  0  0  0  0
    7.2128    0.2921   -0.8418 C   0  0  0  0  0  0  0  0  0  0  0  0
   -2.1933    0.3132   -0.7072 H   0  0  0  0  0  0  0  0  0  0  0  0
   -4.6738   -1.0791    0.4105 H   0  0  0  0  0  0  0  0  0  0  0  0
   -1.2669   -1.9734   -1.2095 H   0  0  0  0  0  0  0  0  0  0  0  0
   -2.5490   -2.6970   -0.2508 H   0  0  0  0  0  0  0  0  0  0  0  0
   -0.8010   -2.6551    1.2149 H   0  0  0  0  0  0  0  0  0  0  0  0
   -4.4193   -0.0828   -2.0466 H   0  0  0  0  0  0  0  0  0  0  0  0
   -3.8513   -0.3611    2.7366 H   0  0  0  0  0  0  0  0  0  0  0  0
    0.4743   -0.4406    1.7422 H   0  0  0  0  0  0  0  0  0  0  0  0
   -0.2334    0.2066    0.2500 H   0  0  0  0  0  0  0  0  0  0  0  0
   -5.2002    1.1461    1.2767 H   0  0  0  0  0  0  0  0  0  0  0  0
   -4.9514    1.2505   -0.4583 H   0  0  0  0  0  0  0  0  0  0  0  0
   -1.7268   -0.9742   -3.1846 H   0  0  0  0  0  0  0  0  0  0  0  0
   -2.2948    0.6970   -3.0296 H   0  0  0  0  0  0  0  0  0  0  0  0
   -3.1394   -0.4311   -4.0937 H   0  0  0  0  0  0  0  0  0  0  0  0
   -4.6906   -2.2355   -3.0315 H   0  0  0  0  0  0  0  0  0  0  0  0
   -4.6152   -2.5318   -1.3044 H   0  0  0  0  0  0  0  0  0  0  0  0
   -3.2161   -2.8855   -2.3557 H   0  0  0  0  0  0  0  0  0  0  0  0
   -0.6218   -0.8274    3.6733 H   0  0  0  0  0  0  0  0  0  0  0  0
   -1.2719   -2.4805    3.6203 H   0  0  0  0  0  0  0  0  0  0  0  0
   -2.2585   -1.1563    4.2424 H   0  0  0  0  0  0  0  0  0  0  0  0
   -2.9957    2.0218    1.6598 H   0  0  0  0  0  0  0  0  0  0  0  0
    3.4492   -0.7983   -1.9686 H   0  0  0  0  0  0  0  0  0  0  0  0
    3.2147   -2.3598   -1.1718 H   0  0  0  0  0  0  0  0  0  0  0  0
    1.6955    1.1270    0.7098 H   0  0  0  0  0  0  0  0  0  0  0  0
    2.5284    1.2881   -0.8359 H   0  0  0  0  0  0  0  0  0  0  0  0
    4.7068   -1.6865    0.6934 H   0  0  0  0  0  0  0  0  0  0  0  0
    5.5400   -1.5186   -0.8531 H   0  0  0  0  0  0  0  0  0  0  0  0
    4.0185    1.9619    1.0320 H   0  0  0  0  0  0  0  0  0  0  0  0
    3.7834    0.3998    1.8265 H   0  0  0  0  0  0  0  0  0  0  0  0
   -1.2270    3.3712    0.8384 H   0  0  0  0  0  0  0  0  0  0  0  0
   -1.6197    4.5502   -0.4309 H   0  0  0  0  0  0  0  0  0  0  0  0
   -2.4682    4.6201    1.1371 H   0  0  0  0  0  0  0  0  0  0  0  0
    7.5229   -0.5791   -0.2587 H   0  0  0  0  0  0  0  0  0  0  0  0
    8.0749    0.9591   -0.9407 H   0  0  0  0  0  0  0  0  0  0  0  0
    6.8969   -0.0091   -1.8441 H   0  0  0  0  0  0  0  0  0  0  0  0
  1 19  2  0  0  0  0
  2 24  2  0  0  0  0
  3 25  2  0  0  0  0
  4 19  1  0  0  0  0
  4 20  1  0  0  0  0
  4 21  1  0  0  0  0
  5 15  1  0  0  0  0
  5 24  1  0  0  0  0
  5 48  1  0  0  0  0
  6 22  1  0  0  0  0
  6 23  1  0  0  0  0
  6 25  1  0  0  0  0
  7  8  1  0  0  0  0
  7  9  1  0  0  0  0
  7 11  1  0  0  0  0
  7 28  1  0  0  0  0
  8 13  1  0  0  0  0
  8 15  1  0  0  0  0
  8 29  1  0  0  0  0
  9 10  1  0  0  0  0
  9 30  1  0  0  0  0
  9 31  1  0  0  0  0
 10 12  1  0  0  0  0
 10 14  1  0  0  0  0
 10 32  1  0  0  0  0
 11 16  1  0  0  0  0
 11 17  1  0  0  0  0
 11 33  1  0  0  0  0
 12 13  2  0  0  0  0
 12 18  1  0  0  0  0
 13 34  1  0  0  0  0
 14 19  1  0  0  0  0
 14 35  1  0  0  0  0
 14 36  1  0  0  0  0
 15 37  1  0  0  0  0
 15 38  1  0  0  0  0
 16 39  1  0  0  0  0
 16 40  1  0  0  0  0
 16 41  1  0  0  0  0
 17 42  1  0  0  0  0
 17 43  1  0  0  0  0
 17 44  1  0  0  0  0
 18 45  1  0  0  0  0
 18 46  1  0  0  0  0
 18 47  1  0  0  0  0
 20 22  1  0  0  0  0
 20 49  1  0  0  0  0
 20 50  1  0  0  0  0
 21 23  1  0  0  0  0
 21 51  1  0  0  0  0
 21 52  1  0  0  0  0
 22 53  1  0  0  0  0
 22 54  1  0  0  0  0
 23 55  1  0  0  0  0
 23 56  1  0  0  0  0
 24 26  1  0  0  0  0
 25 27  1  0  0  0  0
 26 57  1  0  0  0  0
 26 58  1  0  0  0  0
 26 59  1  0  0  0  0
 27 60  1  0  0  0  0
 27 61  1  0  0  0  0
 27 62  1  0  0  0  0
M  END
> <PUBCHEM_COMPOUND_CID>
38026924

> <PUBCHEM_CONFORMER_RMSD>
1

> <PUBCHEM_CONFORMER_DIVERSEORDER>
1
181
55
122
154
68
135
137
69
121
25
36
161
124
111
79
54
71
169
62
51
43
175
99
148
65
173
160
180
22
103
90
143
104
116
84
80
74
60
177
126
131
120
139
102
134
109
9
151
136
182
30
129
97
155
133
176
64
156
114
72
125
15
73
163
167
100
184
37
35
21
149
170
127
81
45
157
88
147
53
32
144
140
66
48
41
38
49
145
40
87
110
115
141
130
92
158
56
70
142
63
105
168
91
17
165
24
11
138
119
44
8
150
94
166
50
178
132
14
76
107
185
101
159
6
59
31
113
34
106
117
83
153
19
42
85
67
16
23
13
164
128
162
28
18
98
123
108
12
26
52
118
77
172
20
78
10
93
57
112
33
4
46
86
2
75
95
171
3
29
174
7
5
58
89
61
27
47
152
82
96
179
183
39
146

> <PUBCHEM_MMFF94_PARTIAL_CHARGES>
24
1 -0.57
10 0.14
12 -0.28
13 -0.29
14 0.06
15 0.3
18 0.14
19 0.57
2 -0.57
20 0.3
21 0.3
22 0.3
23 0.3
24 0.57
25 0.57
26 0.06
27 0.06
3 -0.57
34 0.15
4 -0.66
48 0.37
5 -0.73
6 -0.66
8 0.14

> <PUBCHEM_EFFECTIVE_ROTOR_COUNT>
10

> <PUBCHEM_PHARMACOPHORE_FEATURES>
7
1 1 acceptor
1 2 acceptor
1 3 acceptor
1 5 donor
3 11 16 17 hydrophobe
6 4 6 20 21 22 23 rings
6 7 8 9 10 12 13 rings

> <PUBCHEM_HEAVY_ATOM_COUNT>
27

> <PUBCHEM_ATOM_DEF_STEREO_COUNT>
3

> <PUBCHEM_ATOM_UDEF_STEREO_COUNT>
0

> <PUBCHEM_BOND_DEF_STEREO_COUNT>
0

> <PUBCHEM_BOND_UDEF_STEREO_COUNT>
0

> <PUBCHEM_ISOTOPIC_ATOM_COUNT>
0

> <PUBCHEM_COMPONENT_COUNT>
1

> <PUBCHEM_CACTVS_TAUTO_COUNT>
2

> <PUBCHEM_CONFORMER_ID>
02443EAC00000001

> <PUBCHEM_MMFF94_ENERGY>
55.4541

> <PUBCHEM_FEATURE_SELFOVERLAP>
35.522

> <PUBCHEM_SHAPE_FINGERPRINT>
10291535 26 18334580161066534049
11273773 118 17313387790999944644
12633257 1 16660659465337026863
12895837 130 18343026588185869473
13402501 40 18411423907703734120
13994607 96 18260830371979798509
14142880 1 17386009417381080861
14251764 75 17908147568827317785
14950920 106 13190927288680387821
15183329 4 18411132555219646406
16067690 210 18113890581403407488
19930381 70 17691118662576174065
21033648 144 17986671683274327264
21709351 56 17704074027692273076
22393880 68 17561075926029069186
22956985 138 15730681819053125723
23419403 2 17463972733348966747
23559900 14 15267051571481704618
312425 83 18058167215610248462
497634 4 17203615912430277403
508706 21 18341324591414492256
5171179 24 18058717143513543800
531348 171 18202003179646796398
7288768 16 17822579283391269081
9981440 41 18260275122254055499

> <PUBCHEM_SHAPE_MULTIPOLES>
523.1
13.52
3.29
2.38
28.26
3.75
0.32
5.23
-3.48
-3.37
-0.29
-3.68
-1.43
0.07

> <PUBCHEM_SHAPE_SELFOVERLAP>
1054.927

> <PUBCHEM_SHAPE_VOLUME>
304.1

> <PUBCHEM_COORDINATE_TYPE>
2
5
10

$$$$
