11865919
  -OEChem-12032416413D

 46 49  0     1  0  0  0  0  0999 V2000
   -3.4993   -1.8843    0.4023 S   0  0  0  0  0  0  0  0  0  0  0  0
    1.6234   -0.9271   -1.9496 O   0  0  0  0  0  0  0  0  0  0  0  0
    1.0966    3.5317    1.6010 O   0  0  0  0  0  0  0  0  0  0  0  0
    2.0350   -3.0917    0.1104 O   0  0  0  0  0  0  0  0  0  0  0  0
   -4.3834    1.7249   -0.5800 O   0  0  0  0  0  0  0  0  0  0  0  0
    0.6447    0.8722   -0.8582 N   0  0  0  0  0  0  0  0  0  0  0  0
    3.5147   -1.3142    0.0346 N   0  0  0  0  0  0  0  0  0  0  0  0
    2.7324    2.1041    0.9735 N   0  0  0  0  0  0  0  0  0  0  0  0
   -2.3791    0.5591   -0.6249 N   0  0  0  0  0  0  0  0  0  0  0  0
    2.5157   -0.2587    0.1911 C   0  0  1  0  0  0  0  0  0  0  0  0
    3.3222    1.0431    0.1859 C   0  0  2  0  0  0  0  0  0  0  0  0
    0.3425    1.6022    0.3775 C   0  0  2  0  0  0  0  0  0  0  0  0
   -0.9154    2.4203    0.0233 C   0  0  0  0  0  0  0  0  0  0  0  0
   -1.5641    1.6435   -1.1185 C   0  0  1  0  0  0  0  0  0  0  0  0
   -0.3558    1.1289   -1.8873 C   0  0  0  0  0  0  0  0  0  0  0  0
    4.6939    0.6058    0.6924 C   0  0  0  0  0  0  0  0  0  0  0  0
    1.5555   -0.1719   -0.9813 C   0  0  0  0  0  0  0  0  0  0  0  0
    4.8647   -0.7579    0.0403 C   0  0  0  0  0  0  0  0  0  0  0  0
    1.4209    2.5205    0.9669 C   0  0  0  0  0  0  0  0  0  0  0  0
    3.1892   -2.6596    0.1184 C   0  0  0  0  0  0  0  0  0  0  0  0
   -3.7403    0.6951   -0.3944 C   0  0  0  0  0  0  0  0  0  0  0  0
    4.3546   -3.6113    0.2158 C   0  0  0  0  0  0  0  0  0  0  0  0
   -4.4323   -0.5064    0.1391 C   0  0  0  0  0  0  0  0  0  0  0  0
   -5.7350   -0.6190    0.4392 C   0  0  0  0  0  0  0  0  0  0  0  0
   -6.0141   -1.9290    0.9253 C   0  0  0  0  0  0  0  0  0  0  0  0
   -4.8870   -2.7203    0.9570 C   0  0  0  0  0  0  0  0  0  0  0  0
    1.9734   -0.4491    1.1237 H   0  0  0  0  0  0  0  0  0  0  0  0
    3.4350    1.4401   -0.8327 H   0  0  0  0  0  0  0  0  0  0  0  0
    0.0945    0.8564    1.1433 H   0  0  0  0  0  0  0  0  0  0  0  0
   -1.5719    2.5529    0.8901 H   0  0  0  0  0  0  0  0  0  0  0  0
   -0.6359    3.4185   -0.3387 H   0  0  0  0  0  0  0  0  0  0  0  0
   -2.1870    2.2923   -1.7430 H   0  0  0  0  0  0  0  0  0  0  0  0
   -0.5602    0.2355   -2.4855 H   0  0  0  0  0  0  0  0  0  0  0  0
    0.0550    1.9077   -2.5398 H   0  0  0  0  0  0  0  0  0  0  0  0
    4.6865    0.5061    1.7853 H   0  0  0  0  0  0  0  0  0  0  0  0
    5.4914    1.3044    0.4228 H   0  0  0  0  0  0  0  0  0  0  0  0
    5.1869   -0.6651   -1.0025 H   0  0  0  0  0  0  0  0  0  0  0  0
    5.5770   -1.3828    0.5830 H   0  0  0  0  0  0  0  0  0  0  0  0
    3.3852    2.7335    1.4310 H   0  0  0  0  0  0  0  0  0  0  0  0
   -1.9229   -0.3194   -0.3956 H   0  0  0  0  0  0  0  0  0  0  0  0
    5.0634   -3.4353   -0.5977 H   0  0  0  0  0  0  0  0  0  0  0  0
    3.9910   -4.6401    0.1340 H   0  0  0  0  0  0  0  0  0  0  0  0
    4.8506   -3.4949    1.1829 H   0  0  0  0  0  0  0  0  0  0  0  0
   -6.4760    0.1626    0.3327 H   0  0  0  0  0  0  0  0  0  0  0  0
   -6.9919   -2.2735    1.2360 H   0  0  0  0  0  0  0  0  0  0  0  0
   -4.8120   -3.7492    1.2793 H   0  0  0  0  0  0  0  0  0  0  0  0
  1 23  1  0  0  0  0
  1 26  1  0  0  0  0
  2 17  2  0  0  0  0
  3 19  2  0  0  0  0
  4 20  2  0  0  0  0
  5 21  2  0  0  0  0
  6 12  1  0  0  0  0
  6 15  1  0  0  0  0
  6 17  1  0  0  0  0
  7 10  1  0  0  0  0
  7 18  1  0  0  0  0
  7 20  1  0  0  0  0
  8 11  1  0  0  0  0
  8 19  1  0  0  0  0
  8 39  1  0  0  0  0
  9 14  1  0  0  0  0
  9 21  1  0  0  0  0
  9 40  1  0  0  0  0
 10 11  1  0  0  0  0
 10 17  1  0  0  0  0
 10 27  1  0  0  0  0
 11 16  1  0  0  0  0
 11 28  1  0  0  0  0
 12 13  1  0  0  0  0
 12 19  1  0  0  0  0
 12 29  1  0  0  0  0
 13 14  1  0  0  0  0
 13 30  1  0  0  0  0
 13 31  1  0  0  0  0
 14 15  1  0  0  0  0
 14 32  1  0  0  0  0
 15 33  1  0  0  0  0
 15 34  1  0  0  0  0
 16 18  1  0  0  0  0
 16 35  1  0  0  0  0
 16 36  1  0  0  0  0
 18 37  1  0  0  0  0
 18 38  1  0  0  0  0
 20 22  1  0  0  0  0
 21 23  1  0  0  0  0
 22 41  1  0  0  0  0
 22 42  1  0  0  0  0
 22 43  1  0  0  0  0
 23 24  2  0  0  0  0
 24 25  1  0  0  0  0
 24 44  1  0  0  0  0
 25 26  2  0  0  0  0
 25 45  1  0  0  0  0
 26 46  1  0  0  0  0
M  END
> <PUBCHEM_COMPOUND_CID>
11865919

> <PUBCHEM_CONFORMER_RMSD>
0.8

> <PUBCHEM_CONFORMER_DIVERSEORDER>
1
16
6
3
12
14
7
4
5
2
13
11
8
9
15
10

> <PUBCHEM_MMFF94_PARTIAL_CHARGES>
29
1 -0.08
10 0.36
11 0.3
12 0.36
14 0.3
15 0.3
17 0.57
18 0.3
19 0.57
2 -0.57
20 0.57
21 0.71
22 0.06
23 -0.05
24 -0.15
25 -0.15
26 -0.11
3 -0.57
39 0.37
4 -0.57
40 0.37
44 0.15
45 0.15
46 0.15
5 -0.57
6 -0.66
7 -0.66
8 -0.73
9 -0.73

> <PUBCHEM_EFFECTIVE_ROTOR_COUNT>
5.4

> <PUBCHEM_PHARMACOPHORE_FEATURES>
10
1 2 acceptor
1 3 acceptor
1 4 acceptor
1 5 acceptor
1 8 donor
1 9 donor
5 1 23 24 25 26 rings
5 6 12 13 14 15 rings
5 7 10 11 16 18 rings
7 6 8 10 11 12 17 19 rings

> <PUBCHEM_HEAVY_ATOM_COUNT>
26

> <PUBCHEM_ATOM_DEF_STEREO_COUNT>
4

> <PUBCHEM_ATOM_UDEF_STEREO_COUNT>
0

> <PUBCHEM_BOND_DEF_STEREO_COUNT>
0

> <PUBCHEM_BOND_UDEF_STEREO_COUNT>
0

> <PUBCHEM_ISOTOPIC_ATOM_COUNT>
0

> <PUBCHEM_COMPONENT_COUNT>
1

> <PUBCHEM_CACTVS_TAUTO_COUNT>
4

> <PUBCHEM_CONFORMER_ID>
00B50F3F00000001

> <PUBCHEM_MMFF94_ENERGY>
75.641

> <PUBCHEM_FEATURE_SELFOVERLAP>
50.83

> <PUBCHEM_SHAPE_FINGERPRINT>
108634 29 17894640282943053042
11045977 3 18411976962389718981
11135609 12 17749686185323276321
114674 6 18334856172882267771
11552529 35 18059287794564300767
117089 54 17553773854741129862
11796584 16 17968927574844967777
11963148 33 18261948643856724058
12107183 9 18199200490559372673
12596602 18 16845009142785532651
12633257 1 17561084756576743159
13103583 49 18130240267767932233
13140716 1 17912901058494546424
13402501 40 18334295400471938619
13533116 47 18340770442397562995
13544653 18 18411134740772385845
13583140 156 18342447171549115365
14341114 176 18272092746581458401
14508225 48 11028559509042276168
14790565 3 17400925692160239004
14866123 147 18051133584604894865
14950920 106 17917437579193492435
14955137 171 17775293793738532196
15352361 1 18333734619914740835
15475509 84 17917721184210842345
15927050 60 17622724637093010868
1813 80 17168142360330744693
18785283 64 18194673998345350920
19315092 285 17629762533823919619
20775530 9 18188770544037065795
21033648 29 15625944158430777105
221490 88 18338231553726299366
23559900 14 18334287665562918573
25222932 49 18341609360415166022
2747138 104 18127397970698495370
2838139 119 10087638174238485563
314194 84 18343291578850679863
316301 35 18333730204171461099
3178227 256 18271804687868393232
3421961 26 18411420656729352249
3737641 26 18411139112822557818
4073 2 18408318874235018089
463206 1 18190747620968922331
5104073 3 18129095637039499376
6433294 58 18409728447846518811
8863177 126 18336828593826845102

> <PUBCHEM_SHAPE_MULTIPOLES>
495.52
12.23
3.97
1.26
12.07
1.47
-0.32
9.3
3.18
-2.08
1.18
-0.09
-0.57
1.96

> <PUBCHEM_SHAPE_SELFOVERLAP>
1058.043

> <PUBCHEM_SHAPE_VOLUME>
275.5

> <PUBCHEM_COORDINATE_TYPE>
2
5
10

$$$$
