51136878
  -OEChem-12032416403D

 49 52  0     1  0  0  0  0  0999 V2000
   -4.9376   -1.9856    0.0065 O   0  0  0  0  0  0  0  0  0  0  0  0
    8.8423    0.2297    0.1989 O   0  0  0  0  0  0  0  0  0  0  0  0
    2.7800    1.9025   -0.2106 O   0  0  0  0  0  0  0  0  0  0  0  0
   -6.6888    0.9469    0.8324 N   0  0  1  0  0  0  0  0  0  0  0  0
   -3.8711   -0.0233   -0.1633 N   0  0  0  0  0  0  0  0  0  0  0  0
   -3.5695   -2.2795    0.0660 N   0  0  0  0  0  0  0  0  0  0  0  0
    0.6280   -1.8412    0.1150 N   0  0  0  0  0  0  0  0  0  0  0  0
    2.5173   -0.4221    0.0153 N   0  0  0  0  0  0  0  0  0  0  0  0
   -6.4240   -0.0582   -0.2162 C   0  0  1  0  0  0  0  0  0  0  0  0
   -6.6787    0.6829   -1.5417 C   0  0  0  0  0  0  0  0  0  0  0  0
   -7.1402    2.0755   -1.1364 C   0  0  0  0  0  0  0  0  0  0  0  0
   -7.6648    1.8817    0.2720 C   0  0  0  0  0  0  0  0  0  0  0  0
   -5.0272   -0.6365   -0.1289 C   0  0  0  0  0  0  0  0  0  0  0  0
   -7.1470    0.3622    2.0862 C   0  0  0  0  0  0  0  0  0  0  0  0
   -3.0068   -1.0720   -0.0405 C   0  0  0  0  0  0  0  0  0  0  0  0
   -1.5855   -0.8794   -0.0290 C   0  0  0  0  0  0  0  0  0  0  0  0
   -1.0335    0.3918   -0.1434 C   0  0  0  0  0  0  0  0  0  0  0  0
   -0.7193   -1.9535    0.0968 C   0  0  0  0  0  0  0  0  0  0  0  0
    0.3481    0.5477   -0.1289 C   0  0  0  0  0  0  0  0  0  0  0  0
    1.1279   -0.5903    0.0014 C   0  0  0  0  0  0  0  0  0  0  0  0
    4.7160    0.6283   -0.0112 C   0  0  0  0  0  0  0  0  0  0  0  0
    3.2384    0.7717   -0.0877 C   0  0  0  0  0  0  0  0  0  0  0  0
    5.4962    1.6866    0.4545 C   0  0  0  0  0  0  0  0  0  0  0  0
    5.3225   -0.5642   -0.4060 C   0  0  0  0  0  0  0  0  0  0  0  0
    7.4892    0.3602    0.1300 C   0  0  0  0  0  0  0  0  0  0  0  0
    6.8828    1.5527    0.5251 C   0  0  0  0  0  0  0  0  0  0  0  0
    6.7090   -0.6983   -0.3355 C   0  0  0  0  0  0  0  0  0  0  0  0
    9.3963   -1.0164   -0.2208 C   0  0  0  0  0  0  0  0  0  0  0  0
   -7.1511   -0.8801   -0.1515 H   0  0  0  0  0  0  0  0  0  0  0  0
   -7.4800    0.1792   -2.0964 H   0  0  0  0  0  0  0  0  0  0  0  0
   -5.8028    0.7384   -2.1970 H   0  0  0  0  0  0  0  0  0  0  0  0
   -6.2871    2.7653   -1.1356 H   0  0  0  0  0  0  0  0  0  0  0  0
   -7.8993    2.4740   -1.8160 H   0  0  0  0  0  0  0  0  0  0  0  0
   -7.6950    2.8259    0.8244 H   0  0  0  0  0  0  0  0  0  0  0  0
   -8.6742    1.4519    0.2449 H   0  0  0  0  0  0  0  0  0  0  0  0
   -6.3883   -0.3113    2.4991 H   0  0  0  0  0  0  0  0  0  0  0  0
   -8.0790   -0.2018    1.9666 H   0  0  0  0  0  0  0  0  0  0  0  0
   -7.3145    1.1462    2.8328 H   0  0  0  0  0  0  0  0  0  0  0  0
   -1.6567    1.2768   -0.2450 H   0  0  0  0  0  0  0  0  0  0  0  0
   -1.0690   -2.9773    0.1911 H   0  0  0  0  0  0  0  0  0  0  0  0
    0.6990    1.5620   -0.2220 H   0  0  0  0  0  0  0  0  0  0  0  0
    3.0177   -1.2940    0.1580 H   0  0  0  0  0  0  0  0  0  0  0  0
    5.0435    2.6223    0.7719 H   0  0  0  0  0  0  0  0  0  0  0  0
    4.7593   -1.3999   -0.8102 H   0  0  0  0  0  0  0  0  0  0  0  0
    7.4854    2.3801    0.8896 H   0  0  0  0  0  0  0  0  0  0  0  0
    7.1157   -1.6480   -0.6659 H   0  0  0  0  0  0  0  0  0  0  0  0
    9.0560   -1.8422    0.4131 H   0  0  0  0  0  0  0  0  0  0  0  0
    9.2071   -1.2033   -1.2833 H   0  0  0  0  0  0  0  0  0  0  0  0
   10.4820   -0.9454   -0.0973 H   0  0  0  0  0  0  0  0  0  0  0  0
  1  6  1  0  0  0  0
  1 13  1  0  0  0  0
  2 25  1  0  0  0  0
  2 28  1  0  0  0  0
  3 22  2  0  0  0  0
  4  9  1  0  0  0  0
  4 12  1  0  0  0  0
  4 14  1  0  0  0  0
  5 13  2  0  0  0  0
  5 15  1  0  0  0  0
  6 15  2  0  0  0  0
  7 18  1  0  0  0  0
  7 20  2  0  0  0  0
  8 20  1  0  0  0  0
  8 22  1  0  0  0  0
  8 42  1  0  0  0  0
  9 10  1  0  0  0  0
  9 13  1  0  0  0  0
  9 29  1  0  0  0  0
 10 11  1  0  0  0  0
 10 30  1  0  0  0  0
 10 31  1  0  0  0  0
 11 12  1  0  0  0  0
 11 32  1  0  0  0  0
 11 33  1  0  0  0  0
 12 34  1  0  0  0  0
 12 35  1  0  0  0  0
 14 36  1  0  0  0  0
 14 37  1  0  0  0  0
 14 38  1  0  0  0  0
 15 16  1  0  0  0  0
 16 17  1  0  0  0  0
 16 18  2  0  0  0  0
 17 19  2  0  0  0  0
 17 39  1  0  0  0  0
 18 40  1  0  0  0  0
 19 20  1  0  0  0  0
 19 41  1  0  0  0  0
 21 22  1  0  0  0  0
 21 23  2  0  0  0  0
 21 24  1  0  0  0  0
 23 26  1  0  0  0  0
 23 43  1  0  0  0  0
 24 27  2  0  0  0  0
 24 44  1  0  0  0  0
 25 26  2  0  0  0  0
 25 27  1  0  0  0  0
 26 45  1  0  0  0  0
 27 46  1  0  0  0  0
 28 47  1  0  0  0  0
 28 48  1  0  0  0  0
 28 49  1  0  0  0  0
M  END
> <PUBCHEM_COMPOUND_CID>
51136878

> <PUBCHEM_CONFORMER_RMSD>
0.8

> <PUBCHEM_CONFORMER_DIVERSEORDER>
1
9
12
6
15
11
3
14
5
2
13
7
10
4
8

> <PUBCHEM_MMFF94_PARTIAL_CHARGES>
34
1 -0.02
12 0.27
13 0.3
14 0.27
15 0.46
16 0.05
17 -0.15
18 0.16
19 -0.15
2 -0.36
20 0.43
21 0.09
22 0.54
23 -0.15
24 -0.15
25 0.08
26 -0.15
27 -0.15
28 0.28
3 -0.57
39 0.15
4 -0.81
40 0.15
41 0.15
42 0.37
43 0.15
44 0.15
45 0.15
46 0.15
5 -0.57
6 -0.41
7 -0.62
8 -0.55
9 0.45

> <PUBCHEM_EFFECTIVE_ROTOR_COUNT>
7

> <PUBCHEM_PHARMACOPHORE_FEATURES>
9
1 2 acceptor
1 3 acceptor
1 4 cation
1 8 donor
3 5 6 15 cation
5 1 5 6 13 15 rings
5 4 9 10 11 12 rings
6 21 23 24 25 26 27 rings
6 7 16 17 18 19 20 rings

> <PUBCHEM_HEAVY_ATOM_COUNT>
28

> <PUBCHEM_ATOM_DEF_STEREO_COUNT>
1

> <PUBCHEM_ATOM_UDEF_STEREO_COUNT>
0

> <PUBCHEM_BOND_DEF_STEREO_COUNT>
0

> <PUBCHEM_BOND_UDEF_STEREO_COUNT>
0

> <PUBCHEM_ISOTOPIC_ATOM_COUNT>
0

> <PUBCHEM_COMPONENT_COUNT>
1

> <PUBCHEM_CACTVS_TAUTO_COUNT>
14

> <PUBCHEM_CONFORMER_ID>
030C496E00000001

> <PUBCHEM_MMFF94_ENERGY>
78.7747

> <PUBCHEM_FEATURE_SELFOVERLAP>
45.672

> <PUBCHEM_SHAPE_FINGERPRINT>
10 15 17967813830423391321
10076449 9 11530485519318038246
100830 39 18409448046944227269
10162869 55 13039179317645532648
10209105 3 18269557132057662502
10299344 5 13262397769394671384
10577160 183 17131826543400578279
106641 1 11530486627371906710
10666366 153 18202291278111580052
10674148 151 18186235148328865536
10835480 77 18200589328010751928
10883706 142 18201725059477237683
10917259 128 16557915485331226506
11135926 11 18334288756474023271
11181472 205 17631748097019997256
11315181 36 17704355489831619771
11477941 20 15123508074224022153
12082328 90 16917069962997683325
12089408 11 11815904462008167822
12104220 1 18272089366790804281
125118 31 18336546114244551036
13885169 127 18411981360124824709
13968360 50 16200439052657978862
14294032 229 17750511780595505140
14400156 413 17845926442699223288
14428016 86 18412826872425344553
14671636 106 11097868401383069433
14856354 85 15864073204504793995
14918687 75 13190637065609636777
15183329 4 18411696573649142777
15461852 350 16487253296361401301
1577012 14 18334285470417918418
15778101 99 18409448103247735283
15979999 66 13254790248305531579
16087824 20 18336544911548460229
17093844 174 18410291445703573739
18335252 98 8286202760477008244
21095123 145 15647061473237881195
21150785 3 13614521861326395889
21267235 1 18409733980850488134
21360442 43 17417801907694268919
21774942 28 17417542319016199585
21792934 111 18059847369295939688
21795232 338 13190640372170095064
22288116 15 17059764616547341493
23559900 14 18200588228076871289
23576562 1 16629665392581847705
2838139 119 18202562891543094229
28498 318 18413670202291894510
3004659 81 18187925119360099000
335352 9 18409447007250041702
3633792 109 17989212521423334810
4073 2 18114747161127494282
4169191 19 18343302531513214939
4339292 15 15482095190441286127
437795 83 18269264683086342709
4938544 92 14273723020848951455
5385378 56 17822286851779329034
59682541 35 8718820982218773926
6009941 240 18334016111612313771
6201320 215 16414646938377973849
6328613 192 18341894082866641433
636775 8 11095877207558557285
99344 41 18273214205655978854
999808 66 9511458944747509893

> <PUBCHEM_SHAPE_MULTIPOLES>
533.71
29.64
1.99
0.96
19.04
0.12
-0.18
-9.24
-0.91
-1.53
0.04
-2.13
-0.26
0.95

> <PUBCHEM_SHAPE_SELFOVERLAP>
1158.828

> <PUBCHEM_SHAPE_VOLUME>
292.8

> <PUBCHEM_COORDINATE_TYPE>
2
5
10

$$$$
