75536779
  -OEChem-12032416343D

 45 47  0     1  0  0  0  0  0999 V2000
   -0.5255   -1.2200    0.1788 O   0  0  0  0  0  0  0  0  0  0  0  0
   -1.4991    2.2267    0.4583 O   0  0  0  0  0  0  0  0  0  0  0  0
    3.0682    1.4225    0.4072 O   0  0  0  0  0  0  0  0  0  0  0  0
   -3.8746    0.1981    0.1150 N   0  0  0  0  0  0  0  0  0  0  0  0
    1.9918   -0.4136    1.3125 N   0  0  0  0  0  0  0  0  0  0  0  0
   -6.7805   -1.0758    0.1550 N   0  0  0  0  0  0  0  0  0  0  0  0
   -7.0292    0.7661   -1.0605 N   0  0  0  0  0  0  0  0  0  0  0  0
    4.1498   -0.6566    0.5430 N   0  0  0  0  0  0  0  0  0  0  0  0
   -2.4649    0.0909   -0.2240 C   0  0  1  0  0  0  0  0  0  0  0  0
   -1.5508    0.8393    0.7284 C   0  0  1  0  0  0  0  0  0  0  0  0
   -0.2177    0.1571    0.4523 C   0  0  1  0  0  0  0  0  0  0  0  0
   -1.9326   -1.3274   -0.0995 C   0  0  0  0  0  0  0  0  0  0  0  0
    0.7538    0.2447    1.6158 C   0  0  0  0  0  0  0  0  0  0  0  0
   -4.7159   -0.2396   -0.9925 C   0  0  0  0  0  0  0  0  0  0  0  0
   -6.1800   -0.1510   -0.6533 C   0  0  0  0  0  0  0  0  0  0  0  0
    3.0864    0.2335    0.7169 C   0  0  0  0  0  0  0  0  0  0  0  0
   -8.0964   -0.7260    0.2707 C   0  0  0  0  0  0  0  0  0  0  0  0
   -8.2257    0.4134   -0.4880 C   0  0  0  0  0  0  0  0  0  0  0  0
    5.4206   -0.3916   -0.0189 C   0  0  0  0  0  0  0  0  0  0  0  0
    6.3671   -1.4116   -0.1144 C   0  0  0  0  0  0  0  0  0  0  0  0
    5.7272    0.8895   -0.4772 C   0  0  0  0  0  0  0  0  0  0  0  0
    7.6205   -1.1504   -0.6681 C   0  0  0  0  0  0  0  0  0  0  0  0
    6.9804    1.1508   -1.0310 C   0  0  0  0  0  0  0  0  0  0  0  0
    7.9271    0.1308   -1.1265 C   0  0  0  0  0  0  0  0  0  0  0  0
   -2.2884    0.4766   -1.2382 H   0  0  0  0  0  0  0  0  0  0  0  0
   -1.8616    0.6933    1.7704 H   0  0  0  0  0  0  0  0  0  0  0  0
    0.2515    0.5722   -0.4494 H   0  0  0  0  0  0  0  0  0  0  0  0
   -2.3864   -1.8709    0.7372 H   0  0  0  0  0  0  0  0  0  0  0  0
   -2.0774   -1.9148   -1.0112 H   0  0  0  0  0  0  0  0  0  0  0  0
    0.3454   -0.2613    2.4974 H   0  0  0  0  0  0  0  0  0  0  0  0
    0.9529    1.2898    1.8757 H   0  0  0  0  0  0  0  0  0  0  0  0
   -4.0928    1.1712    0.3310 H   0  0  0  0  0  0  0  0  0  0  0  0
   -4.4908   -1.2773   -1.2670 H   0  0  0  0  0  0  0  0  0  0  0  0
   -4.5341    0.3810   -1.8789 H   0  0  0  0  0  0  0  0  0  0  0  0
   -1.2243    2.3482   -0.4663 H   0  0  0  0  0  0  0  0  0  0  0  0
    2.0742   -1.4022    1.5289 H   0  0  0  0  0  0  0  0  0  0  0  0
   -6.3343   -1.8729    0.5892 H   0  0  0  0  0  0  0  0  0  0  0  0
    4.0000   -1.6127    0.8552 H   0  0  0  0  0  0  0  0  0  0  0  0
   -8.7946   -1.3005    0.8619 H   0  0  0  0  0  0  0  0  0  0  0  0
   -9.1195    0.9977   -0.6511 H   0  0  0  0  0  0  0  0  0  0  0  0
    6.1411   -2.4144    0.2389 H   0  0  0  0  0  0  0  0  0  0  0  0
    5.0486    1.7298   -0.4374 H   0  0  0  0  0  0  0  0  0  0  0  0
    8.3577   -1.9445   -0.7426 H   0  0  0  0  0  0  0  0  0  0  0  0
    7.2205    2.1481   -1.3883 H   0  0  0  0  0  0  0  0  0  0  0  0
    8.9029    0.3343   -1.5577 H   0  0  0  0  0  0  0  0  0  0  0  0
  1 11  1  0  0  0  0
  1 12  1  0  0  0  0
  2 10  1  0  0  0  0
  2 35  1  0  0  0  0
  3 16  2  0  0  0  0
  4  9  1  0  0  0  0
  4 14  1  0  0  0  0
  4 32  1  0  0  0  0
  5 13  1  0  0  0  0
  5 16  1  0  0  0  0
  5 36  1  0  0  0  0
  6 15  1  0  0  0  0
  6 17  1  0  0  0  0
  6 37  1  0  0  0  0
  7 15  2  0  0  0  0
  7 18  1  0  0  0  0
  8 16  1  0  0  0  0
  8 19  1  0  0  0  0
  8 38  1  0  0  0  0
  9 10  1  0  0  0  0
  9 12  1  0  0  0  0
  9 25  1  0  0  0  0
 10 11  1  0  0  0  0
 10 26  1  0  0  0  0
 11 13  1  0  0  0  0
 11 27  1  0  0  0  0
 12 28  1  0  0  0  0
 12 29  1  0  0  0  0
 13 30  1  0  0  0  0
 13 31  1  0  0  0  0
 14 15  1  0  0  0  0
 14 33  1  0  0  0  0
 14 34  1  0  0  0  0
 17 18  2  0  0  0  0
 17 39  1  0  0  0  0
 18 40  1  0  0  0  0
 19 20  2  0  0  0  0
 19 21  1  0  0  0  0
 20 22  1  0  0  0  0
 20 41  1  0  0  0  0
 21 23  2  0  0  0  0
 21 42  1  0  0  0  0
 22 24  2  0  0  0  0
 22 43  1  0  0  0  0
 23 24  1  0  0  0  0
 23 44  1  0  0  0  0
 24 45  1  0  0  0  0
M  END
> <PUBCHEM_COMPOUND_CID>
75536779

> <PUBCHEM_CONFORMER_RMSD>
1

> <PUBCHEM_CONFORMER_DIVERSEORDER>
1
96
41
40
31
14
95
39
21
18
53
77
8
13
93
82
24
71
48
44
65
10
86
46
6
52
80
16
25
62
66
19
78
43
45
56
94
75
4
35
73
61
20
85
7
87
67
36
33
34
79
60
11
58
2
9
49
74
28
83
72
76
37
92
90
29
88
5
89
54
3
59
68
55
91
42
69
84
27
15
70
23
12
47
57
64
22
17
50
38
63
51
32
81
30
26

> <PUBCHEM_MMFF94_PARTIAL_CHARGES>
36
1 -0.56
10 0.28
11 0.28
12 0.28
13 0.3
14 0.45
15 0.01
16 0.69
17 -0.3
18 0.08
19 0.12
2 -0.68
20 -0.15
21 -0.15
22 -0.15
23 -0.15
24 -0.15
3 -0.57
32 0.36
35 0.4
36 0.37
37 0.27
38 0.37
39 0.15
4 -0.9
40 0.15
41 0.15
42 0.15
43 0.15
44 0.15
45 0.15
5 -0.73
6 0.03
7 -0.57
8 -0.55
9 0.27

> <PUBCHEM_EFFECTIVE_ROTOR_COUNT>
9

> <PUBCHEM_PHARMACOPHORE_FEATURES>
13
1 1 acceptor
1 2 acceptor
1 2 donor
1 3 acceptor
1 4 cation
1 4 donor
1 5 donor
1 6 donor
1 8 donor
3 6 7 15 cation
5 1 9 10 11 12 rings
5 6 7 15 17 18 rings
6 19 20 21 22 23 24 rings

> <PUBCHEM_HEAVY_ATOM_COUNT>
24

> <PUBCHEM_ATOM_DEF_STEREO_COUNT>
3

> <PUBCHEM_ATOM_UDEF_STEREO_COUNT>
0

> <PUBCHEM_BOND_DEF_STEREO_COUNT>
0

> <PUBCHEM_BOND_UDEF_STEREO_COUNT>
0

> <PUBCHEM_ISOTOPIC_ATOM_COUNT>
0

> <PUBCHEM_COMPONENT_COUNT>
1

> <PUBCHEM_CACTVS_TAUTO_COUNT>
3

> <PUBCHEM_CONFORMER_ID>
0480998B00000001

> <PUBCHEM_MMFF94_ENERGY>
45.5082

> <PUBCHEM_FEATURE_SELFOVERLAP>
66.025

> <PUBCHEM_SHAPE_FINGERPRINT>
10 15 8862939485698119514
10066227 49 18270964536193649094
10162869 55 12252190705652826267
10299344 5 18060703883392860275
106641 1 11386372534734432829
10670039 82 18343301427701878121
10883706 142 16153703241957675506
11135609 127 18041847346126640460
11315181 36 16949998129074259941
11524674 6 15051729807130342149
11638347 137 10447934975118477124
12592606 108 17275097362802707503
13673619 4 17203888552459255584
13685833 64 15626222416656343858
13885169 127 14261357938277779339
14123256 10 18410855460128168302
14216079 64 15410900643530924012
14251764 18 17561368374256733803
14251764 46 18411136940275643510
14347424 109 13183013038944761722
14856354 85 18410572916891719319
14933364 13 18113615690563159173
15183329 4 18413109446591910282
15690457 1 13183015220413387189
15849732 13 17967253108925247607
16994733 274 15430306998044705645
1754911 235 17530961385055372287
18006028 8 16272208595918504449
18335252 98 17675928698911568963
18643901 69 17561089089829583580
2026 5 16987168128747647038
20554085 129 14056997256768349984
20735858 18 9295290547061943385
21033648 29 14924513073987571932
21095086 128 17988921206903331279
21150785 3 17967252000691530111
21267235 1 18343584049439585817
21403212 168 11671785957605935149
21792934 111 11095883748398246811
221357 26 18409165507274264232
22224240 67 13406793332787871865
22956985 138 16412409368909389334
23035841 295 17704068508664708895
23559900 14 18059001921087353352
23576562 1 18116704309389478877
246663 6 17489871539844400975
24771293 8 12901543512484398103
28498 318 16056882420609925981
3004659 81 18343860031015929440
335352 9 18341889711027771095
4107672 100 18408317775255685853
4325135 7 17846781797280918327
4339292 15 10737585929907116137
444769 64 16988841709724697447
5283156 175 18273216387424719228
5470011 282 18409451393065798150
5758199 1 15574712482938459545
59682541 35 8502366733011202453
59682541 52 18334579019502148630
59755656 215 17060341807932178398
6394761 36 16630526237334871991

> <PUBCHEM_SHAPE_MULTIPOLES>
451.4
27.78
1.35
1.1
9.18
0.19
-0.1
-3.07
10.88
-0.78
-0.02
-0.44
0.12
-0.03

> <PUBCHEM_SHAPE_SELFOVERLAP>
951.447

> <PUBCHEM_SHAPE_VOLUME>
252

> <PUBCHEM_COORDINATE_TYPE>
2
5
10

$$$$
