51138092
  -OEChem-12032416323D

 64 68  0     1  0  0  0  0  0999 V2000
   -2.8480    1.7498   -1.6706 O   0  0  0  0  0  0  0  0  0  0  0  0
   -6.1370    0.8687    1.2786 O   0  0  0  0  0  0  0  0  0  0  0  0
   -1.4579   -0.4752   -0.6065 N   0  0  0  0  0  0  0  0  0  0  0  0
    3.2450    0.8993    0.6173 N   0  0  0  0  0  0  0  0  0  0  0  0
   -3.4903    1.9166    0.5609 N   0  0  0  0  0  0  0  0  0  0  0  0
    6.9242    0.8647   -0.0695 N   0  0  0  0  0  0  0  0  0  0  0  0
    5.2228    0.3451   -1.3988 N   0  0  0  0  0  0  0  0  0  0  0  0
   -0.9304   -1.5619    0.2295 C   0  0  2  0  0  0  0  0  0  0  0  0
    0.5573   -1.4716    0.5842 C   0  0  0  0  0  0  0  0  0  0  0  0
    1.3584   -0.2990    0.4690 C   0  0  0  0  0  0  0  0  0  0  0  0
   -1.4224    0.8414    0.0138 C   0  0  1  0  0  0  0  0  0  0  0  0
    1.0997    1.0515    0.0480 C   0  0  0  0  0  0  0  0  0  0  0  0
   -1.2763   -2.8488   -0.5409 C   0  0  0  0  0  0  0  0  0  0  0  0
   -0.1913    1.6337   -0.4216 C   0  0  0  0  0  0  0  0  0  0  0  0
    2.7071   -0.3461    0.8408 C   0  0  0  0  0  0  0  0  0  0  0  0
   -2.7511   -3.2433   -0.4153 C   0  0  0  0  0  0  0  0  0  0  0  0
    2.2872    1.7481    0.1467 C   0  0  0  0  0  0  0  0  0  0  0  0
    1.1913   -2.6094    1.1453 C   0  0  0  0  0  0  0  0  0  0  0  0
   -2.6540    1.5398   -0.4761 C   0  0  0  0  0  0  0  0  0  0  0  0
    3.3252   -1.4902    1.3479 C   0  0  0  0  0  0  0  0  0  0  0  0
    4.6204    1.2789    0.8597 C   0  0  0  0  0  0  0  0  0  0  0  0
    2.5371   -2.6228    1.5068 C   0  0  0  0  0  0  0  0  0  0  0  0
   -3.6965   -2.1670   -0.9506 C   0  0  0  0  0  0  0  0  0  0  0  0
   -2.9874   -4.5576   -1.1631 C   0  0  0  0  0  0  0  0  0  0  0  0
    5.5663    0.8218   -0.2228 C   0  0  0  0  0  0  0  0  0  0  0  0
   -4.7328    2.6257    0.3566 C   0  0  0  0  0  0  0  0  0  0  0  0
    7.4819    0.3849   -1.2210 C   0  0  0  0  0  0  0  0  0  0  0  0
   -5.8986    1.6891    0.2217 C   0  0  0  0  0  0  0  0  0  0  0  0
    7.6522    1.3282    1.0881 C   0  0  0  0  0  0  0  0  0  0  0  0
    6.4123    0.0709   -2.0259 C   0  0  0  0  0  0  0  0  0  0  0  0
   -6.8177    1.4693   -0.7778 C   0  0  0  0  0  0  0  0  0  0  0  0
   -7.6762    0.4483   -0.3046 C   0  0  0  0  0  0  0  0  0  0  0  0
   -7.2202    0.1168    0.9502 C   0  0  0  0  0  0  0  0  0  0  0  0
   -1.4722   -1.5729    1.1854 H   0  0  0  0  0  0  0  0  0  0  0  0
   -1.4480    0.7618    1.1081 H   0  0  0  0  0  0  0  0  0  0  0  0
   -0.9947   -2.7503   -1.5999 H   0  0  0  0  0  0  0  0  0  0  0  0
   -0.6973   -3.7065   -0.1866 H   0  0  0  0  0  0  0  0  0  0  0  0
   -0.2776    2.6603   -0.0394 H   0  0  0  0  0  0  0  0  0  0  0  0
   -0.1526    1.7253   -1.5161 H   0  0  0  0  0  0  0  0  0  0  0  0
   -1.0039   -0.4649   -1.5191 H   0  0  0  0  0  0  0  0  0  0  0  0
   -2.9887   -3.4155    0.6422 H   0  0  0  0  0  0  0  0  0  0  0  0
    2.5155    2.7812   -0.0811 H   0  0  0  0  0  0  0  0  0  0  0  0
    0.6248   -3.5160    1.3452 H   0  0  0  0  0  0  0  0  0  0  0  0
    4.3719   -1.5034    1.6318 H   0  0  0  0  0  0  0  0  0  0  0  0
    4.6607    2.3718    0.9387 H   0  0  0  0  0  0  0  0  0  0  0  0
    4.9085    0.8696    1.8343 H   0  0  0  0  0  0  0  0  0  0  0  0
    2.9721   -3.5257    1.9271 H   0  0  0  0  0  0  0  0  0  0  0  0
   -3.4000   -1.8159   -1.9444 H   0  0  0  0  0  0  0  0  0  0  0  0
   -3.7790   -1.3196   -0.2646 H   0  0  0  0  0  0  0  0  0  0  0  0
   -4.7131   -2.5682   -1.0426 H   0  0  0  0  0  0  0  0  0  0  0  0
   -2.7812   -4.4495   -2.2335 H   0  0  0  0  0  0  0  0  0  0  0  0
   -4.0254   -4.8886   -1.0506 H   0  0  0  0  0  0  0  0  0  0  0  0
   -2.3437   -5.3525   -0.7714 H   0  0  0  0  0  0  0  0  0  0  0  0
   -3.2462    1.6790    1.5176 H   0  0  0  0  0  0  0  0  0  0  0  0
   -4.8851    3.2792    1.2216 H   0  0  0  0  0  0  0  0  0  0  0  0
   -4.6494    3.2532   -0.5373 H   0  0  0  0  0  0  0  0  0  0  0  0
    8.5505    0.3091   -1.3667 H   0  0  0  0  0  0  0  0  0  0  0  0
    8.7230    1.3288    0.8690 H   0  0  0  0  0  0  0  0  0  0  0  0
    7.4441    0.6510    1.9202 H   0  0  0  0  0  0  0  0  0  0  0  0
    7.3248    2.3441    1.3231 H   0  0  0  0  0  0  0  0  0  0  0  0
    6.4382   -0.3390   -3.0250 H   0  0  0  0  0  0  0  0  0  0  0  0
   -6.8647    1.9795   -1.7292 H   0  0  0  0  0  0  0  0  0  0  0  0
   -8.5211    0.0086   -0.8144 H   0  0  0  0  0  0  0  0  0  0  0  0
   -7.5390   -0.5949    1.6977 H   0  0  0  0  0  0  0  0  0  0  0  0
  1 19  2  0  0  0  0
  2 28  1  0  0  0  0
  2 33  1  0  0  0  0
  3  8  1  0  0  0  0
  3 11  1  0  0  0  0
  3 40  1  0  0  0  0
  4 15  1  0  0  0  0
  4 17  1  0  0  0  0
  4 21  1  0  0  0  0
  5 19  1  0  0  0  0
  5 26  1  0  0  0  0
  5 54  1  0  0  0  0
  6 25  1  0  0  0  0
  6 27  1  0  0  0  0
  6 29  1  0  0  0  0
  7 25  2  0  0  0  0
  7 30  1  0  0  0  0
  8  9  1  0  0  0  0
  8 13  1  0  0  0  0
  8 34  1  0  0  0  0
  9 10  2  0  0  0  0
  9 18  1  0  0  0  0
 10 12  1  0  0  0  0
 10 15  1  0  0  0  0
 11 14  1  0  0  0  0
 11 19  1  0  0  0  0
 11 35  1  0  0  0  0
 12 14  1  0  0  0  0
 12 17  2  0  0  0  0
 13 16  1  0  0  0  0
 13 36  1  0  0  0  0
 13 37  1  0  0  0  0
 14 38  1  0  0  0  0
 14 39  1  0  0  0  0
 15 20  2  0  0  0  0
 16 23  1  0  0  0  0
 16 24  1  0  0  0  0
 16 41  1  0  0  0  0
 17 42  1  0  0  0  0
 18 22  2  0  0  0  0
 18 43  1  0  0  0  0
 20 22  1  0  0  0  0
 20 44  1  0  0  0  0
 21 25  1  0  0  0  0
 21 45  1  0  0  0  0
 21 46  1  0  0  0  0
 22 47  1  0  0  0  0
 23 48  1  0  0  0  0
 23 49  1  0  0  0  0
 23 50  1  0  0  0  0
 24 51  1  0  0  0  0
 24 52  1  0  0  0  0
 24 53  1  0  0  0  0
 26 28  1  0  0  0  0
 26 55  1  0  0  0  0
 26 56  1  0  0  0  0
 27 30  2  0  0  0  0
 27 57  1  0  0  0  0
 28 31  2  0  0  0  0
 29 58  1  0  0  0  0
 29 59  1  0  0  0  0
 29 60  1  0  0  0  0
 30 61  1  0  0  0  0
 31 32  1  0  0  0  0
 31 62  1  0  0  0  0
 32 33  2  0  0  0  0
 32 63  1  0  0  0  0
 33 64  1  0  0  0  0
M  END
> <PUBCHEM_COMPOUND_CID>
51138092

> <PUBCHEM_CONFORMER_RMSD>
1.4

> <PUBCHEM_CONFORMER_DIVERSEORDER>
1
45
44
7
48
51
29
6
35
21
53
17
25
22
27
37
34
55
52
12
20
54
42
11
2
9
10
26
18
40
50
41
33
39
47
31
4
24
46
32
30
19
43
36
23
15
49
38
8
3
56
16
5
28
14
57
13

> <PUBCHEM_MMFF94_PARTIAL_CHARGES>
39
1 -0.57
11 0.33
12 -0.18
14 0.18
15 -0.15
17 -0.3
18 -0.15
19 0.57
2 -0.28
20 -0.15
21 0.44
22 -0.15
25 0.01
26 0.48
27 -0.3
28 -0.04
29 0.26
3 -0.9
30 0.08
31 -0.15
32 -0.15
33 -0.01
4 0.05
40 0.36
42 0.15
43 0.15
44 0.15
47 0.15
5 -0.73
54 0.37
57 0.15
6 0.05
61 0.15
62 0.15
63 0.15
64 0.15
7 -0.57
8 0.41
9 -0.14

> <PUBCHEM_EFFECTIVE_ROTOR_COUNT>
8.8

> <PUBCHEM_PHARMACOPHORE_FEATURES>
13
1 1 acceptor
1 2 acceptor
1 3 cation
1 3 donor
1 4 cation
1 5 donor
3 16 23 24 hydrophobe
3 6 7 25 cation
5 2 28 31 32 33 rings
5 4 10 12 15 17 rings
5 6 7 25 27 30 rings
6 9 10 15 18 20 22 rings
7 3 8 9 10 11 12 14 rings

> <PUBCHEM_HEAVY_ATOM_COUNT>
33

> <PUBCHEM_ATOM_DEF_STEREO_COUNT>
2

> <PUBCHEM_ATOM_UDEF_STEREO_COUNT>
0

> <PUBCHEM_BOND_DEF_STEREO_COUNT>
0

> <PUBCHEM_BOND_UDEF_STEREO_COUNT>
0

> <PUBCHEM_ISOTOPIC_ATOM_COUNT>
0

> <PUBCHEM_COMPONENT_COUNT>
1

> <PUBCHEM_CACTVS_TAUTO_COUNT>
2

> <PUBCHEM_CONFORMER_ID>
030C4E2C00000001

> <PUBCHEM_MMFF94_ENERGY>
56.923

> <PUBCHEM_FEATURE_SELFOVERLAP>
66.104

> <PUBCHEM_SHAPE_FINGERPRINT>
10050765 1 18124875909202610328
10165383 225 18408041797109672144
11007060 377 18201727236556379745
11135926 11 18187914084597806670
11136131 41 18188767232992145875
12166972 35 12535338000266720667
13383665 225 18048883189013991444
13540713 5 18189032271134101018
14294032 229 18187359904830577652
1454969 45 18040721359349656581
14790565 3 18052260596581492120
14840074 17 18260264127907481717
15131766 46 15215300943917641422
15183329 4 11743836946105572225
15629462 23 16558485101342630129
15849732 13 18113060436785450989
15927050 60 18341891879232739071
18608769 82 18408604790244407457
19319366 153 17967811596555685722
21033648 29 17488727000375593296
21344244 181 18059022687934926062
22224240 67 18259702302798239744
25147074 1 18187632605748148194
3009799 131 11024105430234405400
350125 39 18408600366417439051
397830 11 12324239482180898054
4073 2 18272931665785269668
4098825 35 16487251084163340108
45377200 153 17203036491995085095
563151 40 18335425676876706786
59755656 215 18272094880900188052
59755656 520 18413387631491946509
6669772 16 18200599098845124975

> <PUBCHEM_SHAPE_MULTIPOLES>
642.48
20.07
3.74
1.39
2.67
4.37
0.22
-12.18
2.14
-4.56
0.41
1.28
0.33
-1.27

> <PUBCHEM_SHAPE_SELFOVERLAP>
1395.166

> <PUBCHEM_SHAPE_VOLUME>
351.9

> <PUBCHEM_COORDINATE_TYPE>
2
5
10

$$$$
