45783780
  -OEChem-12032416273D

 45 48  0     1  0  0  0  0  0999 V2000
   -1.0367   -0.4024    2.0099 O   0  0  0  0  0  0  0  0  0  0  0  0
   -3.3368   -0.7923   -0.6180 N   0  0  1  0  0  0  0  0  0  0  0  0
   -0.2840   -1.1463    0.0358 N   0  0  0  0  0  0  0  0  0  0  0  0
    0.3367   -0.1280    1.9882 N   0  0  0  0  0  0  0  0  0  0  0  0
   -1.6520    3.3474    0.8384 N   0  0  0  0  0  0  0  0  0  0  0  0
    4.3556    0.1273    0.7250 N   0  0  0  0  0  0  0  0  0  0  0  0
    6.0028   -0.2957   -0.9433 N   0  0  0  0  0  0  0  0  0  0  0  0
   -2.7619   -1.4031    0.5973 C   0  0  1  0  0  0  0  0  0  0  0  0
   -2.9319   -2.9195    0.3908 C   0  0  0  0  0  0  0  0  0  0  0  0
   -3.6650   -3.0606   -0.9356 C   0  0  0  0  0  0  0  0  0  0  0  0
   -4.3553   -1.7224   -1.1059 C   0  0  0  0  0  0  0  0  0  0  0  0
   -3.8769    0.5418   -0.3900 C   0  0  0  0  0  0  0  0  0  0  0  0
   -1.3194   -1.0020    0.8237 C   0  0  0  0  0  0  0  0  0  0  0  0
   -2.7944    1.5879   -0.3633 C   0  0  0  0  0  0  0  0  0  0  0  0
    0.7087   -0.5955    0.7928 C   0  0  0  0  0  0  0  0  0  0  0  0
   -1.9541    1.7778   -1.4549 C   0  0  0  0  0  0  0  0  0  0  0  0
   -2.6037    2.3913    0.7494 C   0  0  0  0  0  0  0  0  0  0  0  0
    2.0634   -0.5291    0.3259 C   0  0  0  0  0  0  0  0  0  0  0  0
   -0.9630    2.7516   -1.4011 C   0  0  0  0  0  0  0  0  0  0  0  0
   -0.8544    3.5030   -0.2421 C   0  0  0  0  0  0  0  0  0  0  0  0
    2.4159   -1.0271   -0.9237 C   0  0  0  0  0  0  0  0  0  0  0  0
    3.0616    0.0332    1.1049 C   0  0  0  0  0  0  0  0  0  0  0  0
    3.7372   -0.9486   -1.3497 C   0  0  0  0  0  0  0  0  0  0  0  0
    4.6606   -0.3674   -0.4956 C   0  0  0  0  0  0  0  0  0  0  0  0
    7.0470    0.2786   -0.1587 C   0  0  0  0  0  0  0  0  0  0  0  0
   -3.3475   -1.1273    1.4857 H   0  0  0  0  0  0  0  0  0  0  0  0
   -1.9885   -3.4758    0.3753 H   0  0  0  0  0  0  0  0  0  0  0  0
   -3.5511   -3.3333    1.1963 H   0  0  0  0  0  0  0  0  0  0  0  0
   -4.3684   -3.8985   -0.9327 H   0  0  0  0  0  0  0  0  0  0  0  0
   -2.9426   -3.2243   -1.7450 H   0  0  0  0  0  0  0  0  0  0  0  0
   -4.6176   -1.5355   -2.1518 H   0  0  0  0  0  0  0  0  0  0  0  0
   -5.2671   -1.6843   -0.4962 H   0  0  0  0  0  0  0  0  0  0  0  0
   -4.5462    0.8198   -1.2163 H   0  0  0  0  0  0  0  0  0  0  0  0
   -4.4948    0.5821    0.5166 H   0  0  0  0  0  0  0  0  0  0  0  0
   -2.0626    1.1775   -2.3540 H   0  0  0  0  0  0  0  0  0  0  0  0
   -3.2254    2.2903    1.6335 H   0  0  0  0  0  0  0  0  0  0  0  0
   -0.2966    2.9170   -2.2398 H   0  0  0  0  0  0  0  0  0  0  0  0
   -0.0973    4.2747   -0.1496 H   0  0  0  0  0  0  0  0  0  0  0  0
    1.6827   -1.4806   -1.5857 H   0  0  0  0  0  0  0  0  0  0  0  0
    2.8697    0.4447    2.0914 H   0  0  0  0  0  0  0  0  0  0  0  0
    4.0186   -1.3349   -2.3240 H   0  0  0  0  0  0  0  0  0  0  0  0
    6.2545   -0.8647   -1.7443 H   0  0  0  0  0  0  0  0  0  0  0  0
    7.1785   -0.2623    0.7840 H   0  0  0  0  0  0  0  0  0  0  0  0
    7.9939    0.2306   -0.7055 H   0  0  0  0  0  0  0  0  0  0  0  0
    6.8443    1.3318    0.0614 H   0  0  0  0  0  0  0  0  0  0  0  0
  1  4  1  0  0  0  0
  1 13  1  0  0  0  0
  2  8  1  0  0  0  0
  2 11  1  0  0  0  0
  2 12  1  0  0  0  0
  3 13  2  0  0  0  0
  3 15  1  0  0  0  0
  4 15  2  0  0  0  0
  5 17  1  0  0  0  0
  5 20  2  0  0  0  0
  6 22  1  0  0  0  0
  6 24  2  0  0  0  0
  7 24  1  0  0  0  0
  7 25  1  0  0  0  0
  7 42  1  0  0  0  0
  8  9  1  0  0  0  0
  8 13  1  0  0  0  0
  8 26  1  0  0  0  0
  9 10  1  0  0  0  0
  9 27  1  0  0  0  0
  9 28  1  0  0  0  0
 10 11  1  0  0  0  0
 10 29  1  0  0  0  0
 10 30  1  0  0  0  0
 11 31  1  0  0  0  0
 11 32  1  0  0  0  0
 12 14  1  0  0  0  0
 12 33  1  0  0  0  0
 12 34  1  0  0  0  0
 14 16  1  0  0  0  0
 14 17  2  0  0  0  0
 15 18  1  0  0  0  0
 16 19  2  0  0  0  0
 16 35  1  0  0  0  0
 17 36  1  0  0  0  0
 18 21  1  0  0  0  0
 18 22  2  0  0  0  0
 19 20  1  0  0  0  0
 19 37  1  0  0  0  0
 20 38  1  0  0  0  0
 21 23  2  0  0  0  0
 21 39  1  0  0  0  0
 22 40  1  0  0  0  0
 23 24  1  0  0  0  0
 23 41  1  0  0  0  0
 25 43  1  0  0  0  0
 25 44  1  0  0  0  0
 25 45  1  0  0  0  0
M  END
> <PUBCHEM_COMPOUND_CID>
45783780

> <PUBCHEM_CONFORMER_RMSD>
0.8

> <PUBCHEM_CONFORMER_DIVERSEORDER>
1
23
63
91
18
117
54
68
3
30
49
127
26
104
120
28
103
102
128
113
34
42
57
21
109
77
130
16
86
126
39
122
69
106
118
13
93
123
25
115
36
32
108
74
111
7
105
82
76
45
75
80
58
37
72
17
35
52
66
97
38
73
125
114
89
22
100
2
83
92
29
96
84
5
90
24
70
50
79
107
95
85
101
110
129
9
71
78
99
47
119
14
55
64
81
11
124
15
116
46
112
61
8
6
33
94
65
12
43
56
60
59
98
27
4
51
62
88
41
121
67
31
10
87
44
53
48
20
40
19

> <PUBCHEM_MMFF94_PARTIAL_CHARGES>
31
1 -0.02
11 0.27
12 0.41
13 0.3
14 -0.14
15 0.46
16 -0.15
17 0.16
18 0.05
19 -0.15
2 -0.81
20 0.16
21 -0.15
22 0.16
23 -0.15
24 0.41
25 0.37
3 -0.57
35 0.15
36 0.15
37 0.15
38 0.15
39 0.15
4 -0.41
40 0.15
41 0.15
42 0.4
5 -0.62
6 -0.62
7 -0.87
8 0.45

> <PUBCHEM_EFFECTIVE_ROTOR_COUNT>
6

> <PUBCHEM_PHARMACOPHORE_FEATURES>
9
1 2 cation
1 5 acceptor
1 7 donor
3 3 4 15 cation
3 6 7 24 cation
5 1 3 4 13 15 rings
5 2 8 9 10 11 rings
6 5 14 16 17 19 20 rings
6 6 18 21 22 23 24 rings

> <PUBCHEM_HEAVY_ATOM_COUNT>
25

> <PUBCHEM_ATOM_DEF_STEREO_COUNT>
1

> <PUBCHEM_ATOM_UDEF_STEREO_COUNT>
0

> <PUBCHEM_BOND_DEF_STEREO_COUNT>
0

> <PUBCHEM_BOND_UDEF_STEREO_COUNT>
0

> <PUBCHEM_ISOTOPIC_ATOM_COUNT>
0

> <PUBCHEM_COMPONENT_COUNT>
1

> <PUBCHEM_CACTVS_TAUTO_COUNT>
8

> <PUBCHEM_CONFORMER_ID>
02BA9AE400000001

> <PUBCHEM_MMFF94_ENERGY>
59.2309

> <PUBCHEM_FEATURE_SELFOVERLAP>
45.672

> <PUBCHEM_SHAPE_FINGERPRINT>
10291535 26 18333740108682102168
10498660 4 18262508196189567141
10871710 139 17822849776099888541
10937287 8 17618220611515239853
11101153 10 18264498463193076788
11477941 20 18410572933602512900
11488393 25 17038112178073760043
12156800 1 15435323033961157037
12166972 35 16805889618449028182
12173636 292 17980474560477711533
12788726 201 18261664913799896307
13761468 95 17536040956892726956
13994607 96 17168726149349428137
14713325 29 18341336599821369614
14790565 3 18051408471076113849
14910302 57 18200872872882020342
14955137 171 18338249249513571371
15183329 4 17822294527713944442
15463212 79 18188772721463724115
15849732 13 18342750615831794531
15876981 60 18261961837594304868
15961568 22 18191860344085028912
17349148 13 17385439917138556306
17357779 13 18270383006073684519
17492 54 17969200280347857973
17818456 19 17901927670234479490
19489759 90 18260829311080691194
20775438 99 16970243723575503071
20905425 154 17903071480423756917
21033650 10 18117298981791947646
21623110 236 18261404398248337452
22393880 68 18198914621725902086
23402539 116 18260548948252674846
23557571 272 18413107268563560206
23559900 14 18272080634536014696
3268164 11 18408039606654869014
469060 322 17532398429372819257
484985 159 12967118402844258309
497634 4 17703520951562723504
531348 171 18267309742442011030
57527585 103 17098630264475897345
7399639 24 18058714936110446962

> <PUBCHEM_SHAPE_MULTIPOLES>
478.73
11.07
3.53
1.49
21.12
2.27
0.22
-3.68
-3.21
-5.59
-0.54
-0.07
0.04
-0.06

> <PUBCHEM_SHAPE_SELFOVERLAP>
1038.067

> <PUBCHEM_SHAPE_VOLUME>
262.4

> <PUBCHEM_COORDINATE_TYPE>
2
5
10

$$$$
