44716888
  -OEChem-12032416173D

 73 75  0     1  0  0  0  0  0999 V2000
   -3.9880   -0.0750   -0.0556 O   0  0  0  0  0  0  0  0  0  0  0  0
    2.1243    3.7957    0.2841 O   0  0  0  0  0  0  0  0  0  0  0  0
   -4.2639    2.4088   -1.1922 O   0  0  0  0  0  0  0  0  0  0  0  0
    4.7089    1.3480    1.4148 O   0  0  0  0  0  0  0  0  0  0  0  0
   -3.7458   -2.3537    0.0977 O   0  0  0  0  0  0  0  0  0  0  0  0
    3.6274   -0.6644    1.8407 N   0  0  0  0  0  0  0  0  0  0  0  0
   -5.8354   -1.3458    0.1135 N   0  0  0  0  0  0  0  0  0  0  0  0
   -0.0096    1.5165    0.6360 C   0  0  2  0  0  0  0  0  0  0  0  0
   -0.5972    1.5246   -0.8281 C   0  0  1  0  0  0  0  0  0  0  0  0
   -2.1533    1.3121   -0.9673 C   0  0  1  0  0  0  0  0  0  0  0  0
    1.5669    1.4220    0.5013 C   0  0  1  0  0  0  0  0  0  0  0  0
   -0.5356    0.2534    1.3696 C   0  0  0  0  0  0  0  0  0  0  0  0
   -0.0334    2.7103   -1.6419 C   0  0  0  0  0  0  0  0  0  0  0  0
   -2.5695    0.0678   -0.1258 C   0  0  1  0  0  0  0  0  0  0  0  0
    2.1770    2.5369   -0.3796 C   0  0  1  0  0  0  0  0  0  0  0  0
   -2.0502    0.0921    1.3075 C   0  0  0  0  0  0  0  0  0  0  0  0
    1.4912    2.6416   -1.7388 C   0  0  0  0  0  0  0  0  0  0  0  0
   -0.4102    2.7568    1.4714 C   0  0  0  0  0  0  0  0  0  0  0  0
   -2.9940    2.5503   -0.5943 C   0  0  0  0  0  0  0  0  0  0  0  0
   -2.4938    1.0034   -2.4542 C   0  0  0  0  0  0  0  0  0  0  0  0
    2.3261    1.3370    1.8353 C   0  0  0  0  0  0  0  0  0  0  0  0
    3.6906    0.7107    1.6692 C   0  0  0  0  0  0  0  0  0  0  0  0
   -4.4577   -1.3556    0.0561 C   0  0  0  0  0  0  0  0  0  0  0  0
    4.7825   -1.5264    1.7368 C   0  0  0  0  0  0  0  0  0  0  0  0
   -6.6417   -2.5385    0.2332 C   0  0  0  0  0  0  0  0  0  0  0  0
    4.9907   -2.0203    0.3344 C   0  0  0  0  0  0  0  0  0  0  0  0
   -6.8435   -2.9027    1.6989 C   0  0  0  0  0  0  0  0  0  0  0  0
   -7.9757   -2.3493   -0.4772 C   0  0  0  0  0  0  0  0  0  0  0  0
    4.3922   -3.2094   -0.0821 C   0  0  0  0  0  0  0  0  0  0  0  0
    5.7825   -1.2903   -0.5520 C   0  0  0  0  0  0  0  0  0  0  0  0
    4.5854   -3.6686   -1.3851 C   0  0  0  0  0  0  0  0  0  0  0  0
    5.9758   -1.7494   -1.8549 C   0  0  0  0  0  0  0  0  0  0  0  0
    5.3772   -2.9386   -2.2714 C   0  0  0  0  0  0  0  0  0  0  0  0
   -0.1683    0.6261   -1.3035 H   0  0  0  0  0  0  0  0  0  0  0  0
    1.7653    0.4811   -0.0358 H   0  0  0  0  0  0  0  0  0  0  0  0
   -0.0741   -0.6435    0.9355 H   0  0  0  0  0  0  0  0  0  0  0  0
   -0.2503    0.2676    2.4273 H   0  0  0  0  0  0  0  0  0  0  0  0
   -0.4253    2.7005   -2.6638 H   0  0  0  0  0  0  0  0  0  0  0  0
   -0.3308    3.6701   -1.2092 H   0  0  0  0  0  0  0  0  0  0  0  0
   -2.1331   -0.8086   -0.6271 H   0  0  0  0  0  0  0  0  0  0  0  0
    3.2374    2.3242   -0.5567 H   0  0  0  0  0  0  0  0  0  0  0  0
   -2.5556    0.8730    1.8863 H   0  0  0  0  0  0  0  0  0  0  0  0
   -2.3202   -0.8419    1.8166 H   0  0  0  0  0  0  0  0  0  0  0  0
    1.8478    3.5291   -2.2750 H   0  0  0  0  0  0  0  0  0  0  0  0
    1.7651    1.7684   -2.3444 H   0  0  0  0  0  0  0  0  0  0  0  0
   -0.2132    3.7001    0.9593 H   0  0  0  0  0  0  0  0  0  0  0  0
    0.1306    2.7833    2.4235 H   0  0  0  0  0  0  0  0  0  0  0  0
   -1.4677    2.7640    1.7358 H   0  0  0  0  0  0  0  0  0  0  0  0
   -3.1387    2.6549    0.4817 H   0  0  0  0  0  0  0  0  0  0  0  0
   -2.5529    3.4737   -0.9781 H   0  0  0  0  0  0  0  0  0  0  0  0
   -3.5016    0.5899   -2.5779 H   0  0  0  0  0  0  0  0  0  0  0  0
   -1.8060    0.2535   -2.8627 H   0  0  0  0  0  0  0  0  0  0  0  0
   -2.4220    1.8937   -3.0882 H   0  0  0  0  0  0  0  0  0  0  0  0
    2.4685    2.3255    2.2870 H   0  0  0  0  0  0  0  0  0  0  0  0
    1.7787    0.7543    2.5814 H   0  0  0  0  0  0  0  0  0  0  0  0
    2.5478    4.4530   -0.2937 H   0  0  0  0  0  0  0  0  0  0  0  0
   -4.7845    3.1953   -0.9559 H   0  0  0  0  0  0  0  0  0  0  0  0
    2.7296   -1.1064    2.0160 H   0  0  0  0  0  0  0  0  0  0  0  0
   -6.3015   -0.4432    0.1161 H   0  0  0  0  0  0  0  0  0  0  0  0
    4.6285   -2.3676    2.4222 H   0  0  0  0  0  0  0  0  0  0  0  0
    5.6713   -0.9887    2.0876 H   0  0  0  0  0  0  0  0  0  0  0  0
   -6.1032   -3.3608   -0.2533 H   0  0  0  0  0  0  0  0  0  0  0  0
   -7.3596   -2.1013    2.2393 H   0  0  0  0  0  0  0  0  0  0  0  0
   -5.8821   -3.0685    2.1972 H   0  0  0  0  0  0  0  0  0  0  0  0
   -7.4366   -3.8179    1.7970 H   0  0  0  0  0  0  0  0  0  0  0  0
   -8.5519   -1.5306   -0.0317 H   0  0  0  0  0  0  0  0  0  0  0  0
   -7.8213   -2.1062   -1.5342 H   0  0  0  0  0  0  0  0  0  0  0  0
   -8.5806   -3.2604   -0.4240 H   0  0  0  0  0  0  0  0  0  0  0  0
    3.7715   -3.7861    0.5985 H   0  0  0  0  0  0  0  0  0  0  0  0
    6.2571   -0.3638   -0.2409 H   0  0  0  0  0  0  0  0  0  0  0  0
    4.1189   -4.5942   -1.7096 H   0  0  0  0  0  0  0  0  0  0  0  0
    6.5927   -1.1813   -2.5450 H   0  0  0  0  0  0  0  0  0  0  0  0
    5.5277   -3.2959   -3.2859 H   0  0  0  0  0  0  0  0  0  0  0  0
  1 14  1  0  0  0  0
  1 23  1  0  0  0  0
  2 15  1  0  0  0  0
  2 56  1  0  0  0  0
  3 19  1  0  0  0  0
  3 57  1  0  0  0  0
  4 22  2  0  0  0  0
  5 23  2  0  0  0  0
  6 22  1  0  0  0  0
  6 24  1  0  0  0  0
  6 58  1  0  0  0  0
  7 23  1  0  0  0  0
  7 25  1  0  0  0  0
  7 59  1  0  0  0  0
  8  9  1  0  0  0  0
  8 11  1  0  0  0  0
  8 12  1  0  0  0  0
  8 18  1  0  0  0  0
  9 10  1  0  0  0  0
  9 13  1  0  0  0  0
  9 34  1  0  0  0  0
 10 14  1  0  0  0  0
 10 19  1  0  0  0  0
 10 20  1  0  0  0  0
 11 15  1  0  0  0  0
 11 21  1  0  0  0  0
 11 35  1  0  0  0  0
 12 16  1  0  0  0  0
 12 36  1  0  0  0  0
 12 37  1  0  0  0  0
 13 17  1  0  0  0  0
 13 38  1  0  0  0  0
 13 39  1  0  0  0  0
 14 16  1  0  0  0  0
 14 40  1  0  0  0  0
 15 17  1  0  0  0  0
 15 41  1  0  0  0  0
 16 42  1  0  0  0  0
 16 43  1  0  0  0  0
 17 44  1  0  0  0  0
 17 45  1  0  0  0  0
 18 46  1  0  0  0  0
 18 47  1  0  0  0  0
 18 48  1  0  0  0  0
 19 49  1  0  0  0  0
 19 50  1  0  0  0  0
 20 51  1  0  0  0  0
 20 52  1  0  0  0  0
 20 53  1  0  0  0  0
 21 22  1  0  0  0  0
 21 54  1  0  0  0  0
 21 55  1  0  0  0  0
 24 26  1  0  0  0  0
 24 60  1  0  0  0  0
 24 61  1  0  0  0  0
 25 27  1  0  0  0  0
 25 28  1  0  0  0  0
 25 62  1  0  0  0  0
 26 29  2  0  0  0  0
 26 30  1  0  0  0  0
 27 63  1  0  0  0  0
 27 64  1  0  0  0  0
 27 65  1  0  0  0  0
 28 66  1  0  0  0  0
 28 67  1  0  0  0  0
 28 68  1  0  0  0  0
 29 31  1  0  0  0  0
 29 69  1  0  0  0  0
 30 32  2  0  0  0  0
 30 70  1  0  0  0  0
 31 33  2  0  0  0  0
 31 71  1  0  0  0  0
 32 33  1  0  0  0  0
 32 72  1  0  0  0  0
 33 73  1  0  0  0  0
M  END
> <PUBCHEM_COMPOUND_CID>
44716888

> <PUBCHEM_CONFORMER_RMSD>
1

> <PUBCHEM_CONFORMER_DIVERSEORDER>
1
106
48
116
62
21
58
85
99
77
86
104
78
51
13
75
113
117
52
111
84
115
35
109
107
60
119
45
101
49
103
76
26
97
110
118
41
90
67
93
9
81
70
55
25
43
112
8
89
46
82
69
88
96
87
65
27
71
32
95
74
66
80
72
83
120
47
36
98
73
56
6
22
94
29
68
64
105
92
11
91
10
114
102
33
30
17
18
39
54
24
14
61
44
31
37
28
34
23
79
40
42
4
63
38
53
59
57
50
2
100
19
12
7
108
20
16
15
3
5

> <PUBCHEM_MMFF94_PARTIAL_CHARGES>
30
1 -0.43
14 0.28
15 0.28
19 0.28
2 -0.68
21 0.06
22 0.57
23 0.78
24 0.44
25 0.3
26 -0.14
29 -0.15
3 -0.68
30 -0.15
31 -0.15
32 -0.15
33 -0.15
4 -0.57
5 -0.57
56 0.4
57 0.4
58 0.37
59 0.37
6 -0.73
69 0.15
7 -0.73
70 0.15
71 0.15
72 0.15
73 0.15

> <PUBCHEM_EFFECTIVE_ROTOR_COUNT>
11.6

> <PUBCHEM_PHARMACOPHORE_FEATURES>
12
1 2 acceptor
1 2 donor
1 3 acceptor
1 3 donor
1 4 acceptor
1 5 acceptor
1 6 donor
1 7 donor
3 25 27 28 hydrophobe
6 26 29 30 31 32 33 rings
6 8 9 10 12 14 16 rings
6 8 9 11 13 15 17 rings

> <PUBCHEM_HEAVY_ATOM_COUNT>
33

> <PUBCHEM_ATOM_DEF_STEREO_COUNT>
5

> <PUBCHEM_ATOM_UDEF_STEREO_COUNT>
1

> <PUBCHEM_BOND_DEF_STEREO_COUNT>
0

> <PUBCHEM_BOND_UDEF_STEREO_COUNT>
0

> <PUBCHEM_ISOTOPIC_ATOM_COUNT>
0

> <PUBCHEM_COMPONENT_COUNT>
1

> <PUBCHEM_CACTVS_TAUTO_COUNT>
4

> <PUBCHEM_CONFORMER_ID>
02AA535800000001

> <PUBCHEM_MMFF94_ENERGY>
98.0603

> <PUBCHEM_FEATURE_SELFOVERLAP>
60.911

> <PUBCHEM_SHAPE_FINGERPRINT>
10981352 41 18272363217836450807
11607047 141 18270697466768429107
117089 54 17629776565387494534
11954058 11 18272376381952657302
12047536 79 16773802471752077545
12422481 6 14620514459283325736
12623949 98 18337389451877413972
13383661 66 18341902865669444218
13782708 43 18411697712559326527
14251740 57 18343303669442379530
14556957 393 15357969036967969343
14904525 67 11026330846977323287
15082195 135 12541234664310597331
15475509 35 18060142076206668786
15484559 13 16166957055492961458
15510800 12 18270388404922078006
15669420 48 18335430097368212526
16989378 47 17386012805683425383
20587220 46 17830467437660277659
20715895 44 11386369257790683790
20775530 9 18341041965202144102
21307412 95 18122057607232994429
21796203 349 16127518269801526770
23559900 14 18341043017801577320
23569914 2 8285352695791308007
24893989 43 17755016733127277763
25269216 80 17821736030523030495
2838139 119 8285935557529111563
3886686 26 16983523173758462859
4394409 98 15882919537984702382
46194498 28 18041835228942125284
474113 269 17846210086834234695
5372103 7 14924804453064078430
57816373 69 18201718513620239047
86090 222 18413385441222935874
9831232 110 18407757049795279807
9980921 177 17773618069820376699

> <PUBCHEM_SHAPE_MULTIPOLES>
639.82
16.99
4.9
2.16
15.03
0.75
-0.26
24.39
-1
-0.8
-1.24
-1.9
-0.13
3.8

> <PUBCHEM_SHAPE_SELFOVERLAP>
1323.062

> <PUBCHEM_SHAPE_VOLUME>
361.8

> <PUBCHEM_COORDINATE_TYPE>
2
5
10

$$$$
