45783899
  -OEChem-12032416403D

 65 68  0     1  0  0  0  0  0999 V2000
   -5.4903   -0.1383    1.1204 O   0  0  0  0  0  0  0  0  0  0  0  0
    1.7058   -0.0542    0.3418 N   0  0  0  0  0  0  0  0  0  0  0  0
    4.5609   -0.1023    0.2697 N   0  0  0  0  0  0  0  0  0  0  0  0
   -6.3864    1.3839   -0.2525 N   0  0  0  0  0  0  0  0  0  0  0  0
    6.5424    1.1646    0.5387 N   0  0  0  0  0  0  0  0  0  0  0  0
   -7.3662    0.4595    0.0583 N   0  0  0  0  0  0  0  0  0  0  0  0
   -1.9976   -0.8650   -0.2346 C   0  0  1  0  0  0  0  0  0  0  0  0
   -0.6071   -0.2316   -0.4898 C   0  0  2  0  0  0  0  0  0  0  0  0
   -3.0617   -0.1964   -1.1183 C   0  0  0  0  0  0  0  0  0  0  0  0
   -3.1618    1.3194   -0.8637 C   0  0  2  0  0  0  0  0  0  0  0  0
   -1.9891   -2.3760   -0.4864 C   0  0  0  0  0  0  0  0  0  0  0  0
    0.3693   -0.5652    0.6440 C   0  0  0  0  0  0  0  0  0  0  0  0
   -0.6655    1.2661   -0.6791 C   0  0  0  0  0  0  0  0  0  0  0  0
   -1.7968    1.9767   -0.8337 C   0  0  0  0  0  0  0  0  0  0  0  0
   -3.9407    1.6131    0.4232 C   0  0  0  0  0  0  0  0  0  0  0  0
   -2.1308   -2.6678   -1.9768 C   0  0  0  0  0  0  0  0  0  0  0  0
   -3.1025   -3.0539    0.3059 C   0  0  0  0  0  0  0  0  0  0  0  0
    2.4110   -0.9635   -0.5694 C   0  0  0  0  0  0  0  0  0  0  0  0
    2.4824    0.1176    1.5759 C   0  0  0  0  0  0  0  0  0  0  0  0
   -1.7583    3.4666   -1.0312 C   0  0  0  0  0  0  0  0  0  0  0  0
    3.7905   -0.4122   -0.9385 C   0  0  0  0  0  0  0  0  0  0  0  0
    3.8635    0.7058    1.2780 C   0  0  0  0  0  0  0  0  0  0  0  0
   -5.3093    0.9954    0.3894 C   0  0  0  0  0  0  0  0  0  0  0  0
    5.9549   -0.0043    0.1979 C   0  0  0  0  0  0  0  0  0  0  0  0
    6.6486   -1.1271   -0.2239 C   0  0  0  0  0  0  0  0  0  0  0  0
   -6.7987   -0.4099    0.8614 C   0  0  0  0  0  0  0  0  0  0  0  0
    8.0345   -1.0450   -0.3005 C   0  0  0  0  0  0  0  0  0  0  0  0
   -7.3669   -1.6035    1.5003 C   0  0  0  0  0  0  0  0  0  0  0  0
    7.8908    1.2068    0.4516 C   0  0  0  0  0  0  0  0  0  0  0  0
    8.6752    0.1406    0.0420 C   0  0  0  0  0  0  0  0  0  0  0  0
   -2.2570   -0.6893    0.8182 H   0  0  0  0  0  0  0  0  0  0  0  0
   -0.2210   -0.6334   -1.4332 H   0  0  0  0  0  0  0  0  0  0  0  0
   -2.7836   -0.2909   -2.1770 H   0  0  0  0  0  0  0  0  0  0  0  0
   -4.0349   -0.6856   -1.0256 H   0  0  0  0  0  0  0  0  0  0  0  0
   -3.7231    1.7401   -1.7106 H   0  0  0  0  0  0  0  0  0  0  0  0
   -1.0461   -2.8159   -0.1461 H   0  0  0  0  0  0  0  0  0  0  0  0
    0.4061   -1.6381    0.8631 H   0  0  0  0  0  0  0  0  0  0  0  0
   -0.0131   -0.0882    1.5582 H   0  0  0  0  0  0  0  0  0  0  0  0
    0.2798    1.8019   -0.7289 H   0  0  0  0  0  0  0  0  0  0  0  0
   -4.0712    2.6943    0.5527 H   0  0  0  0  0  0  0  0  0  0  0  0
   -3.3990    1.2595    1.3087 H   0  0  0  0  0  0  0  0  0  0  0  0
   -1.4062   -2.1207   -2.5869 H   0  0  0  0  0  0  0  0  0  0  0  0
   -1.9402   -3.7337   -2.1537 H   0  0  0  0  0  0  0  0  0  0  0  0
   -3.1398   -2.4801   -2.3589 H   0  0  0  0  0  0  0  0  0  0  0  0
   -3.0711   -4.1389    0.1576 H   0  0  0  0  0  0  0  0  0  0  0  0
   -2.9906   -2.8657    1.3790 H   0  0  0  0  0  0  0  0  0  0  0  0
   -4.0967   -2.7104    0.0036 H   0  0  0  0  0  0  0  0  0  0  0  0
    2.5290   -1.9558   -0.1129 H   0  0  0  0  0  0  0  0  0  0  0  0
    1.8558   -1.1024   -1.5027 H   0  0  0  0  0  0  0  0  0  0  0  0
    1.9642    0.8034    2.2572 H   0  0  0  0  0  0  0  0  0  0  0  0
    2.5947   -0.8418    2.0989 H   0  0  0  0  0  0  0  0  0  0  0  0
   -2.2598    3.9802   -0.2057 H   0  0  0  0  0  0  0  0  0  0  0  0
   -0.7337    3.8502   -1.0826 H   0  0  0  0  0  0  0  0  0  0  0  0
   -2.2579    3.7387   -1.9666 H   0  0  0  0  0  0  0  0  0  0  0  0
    4.2987   -1.1538   -1.5652 H   0  0  0  0  0  0  0  0  0  0  0  0
    3.6835    0.4993   -1.5409 H   0  0  0  0  0  0  0  0  0  0  0  0
    3.7652    1.7383    0.9187 H   0  0  0  0  0  0  0  0  0  0  0  0
    4.4346    0.7305    2.2146 H   0  0  0  0  0  0  0  0  0  0  0  0
    6.1516   -2.0581   -0.4764 H   0  0  0  0  0  0  0  0  0  0  0  0
    8.6147   -1.9044   -0.6229 H   0  0  0  0  0  0  0  0  0  0  0  0
   -6.8141   -2.4993    1.2021 H   0  0  0  0  0  0  0  0  0  0  0  0
   -7.3217   -1.5150    2.5898 H   0  0  0  0  0  0  0  0  0  0  0  0
   -8.4138   -1.7370    1.2119 H   0  0  0  0  0  0  0  0  0  0  0  0
    8.3419    2.1535    0.7299 H   0  0  0  0  0  0  0  0  0  0  0  0
    9.7545    0.2270   -0.0093 H   0  0  0  0  0  0  0  0  0  0  0  0
  1 23  1  0  0  0  0
  1 26  1  0  0  0  0
  2 12  1  0  0  0  0
  2 18  1  0  0  0  0
  2 19  1  0  0  0  0
  3 21  1  0  0  0  0
  3 22  1  0  0  0  0
  3 24  1  0  0  0  0
  4  6  1  0  0  0  0
  4 23  2  0  0  0  0
  5 24  1  0  0  0  0
  5 29  2  0  0  0  0
  6 26  2  0  0  0  0
  7  8  1  0  0  0  0
  7  9  1  0  0  0  0
  7 11  1  0  0  0  0
  7 31  1  0  0  0  0
  8 12  1  0  0  0  0
  8 13  1  0  0  0  0
  8 32  1  0  0  0  0
  9 10  1  0  0  0  0
  9 33  1  0  0  0  0
  9 34  1  0  0  0  0
 10 14  1  0  0  0  0
 10 15  1  0  0  0  0
 10 35  1  0  0  0  0
 11 16  1  0  0  0  0
 11 17  1  0  0  0  0
 11 36  1  0  0  0  0
 12 37  1  0  0  0  0
 12 38  1  0  0  0  0
 13 14  2  0  0  0  0
 13 39  1  0  0  0  0
 14 20  1  0  0  0  0
 15 23  1  0  0  0  0
 15 40  1  0  0  0  0
 15 41  1  0  0  0  0
 16 42  1  0  0  0  0
 16 43  1  0  0  0  0
 16 44  1  0  0  0  0
 17 45  1  0  0  0  0
 17 46  1  0  0  0  0
 17 47  1  0  0  0  0
 18 21  1  0  0  0  0
 18 48  1  0  0  0  0
 18 49  1  0  0  0  0
 19 22  1  0  0  0  0
 19 50  1  0  0  0  0
 19 51  1  0  0  0  0
 20 52  1  0  0  0  0
 20 53  1  0  0  0  0
 20 54  1  0  0  0  0
 21 55  1  0  0  0  0
 21 56  1  0  0  0  0
 22 57  1  0  0  0  0
 22 58  1  0  0  0  0
 24 25  2  0  0  0  0
 25 27  1  0  0  0  0
 25 59  1  0  0  0  0
 26 28  1  0  0  0  0
 27 30  2  0  0  0  0
 27 60  1  0  0  0  0
 28 61  1  0  0  0  0
 28 62  1  0  0  0  0
 28 63  1  0  0  0  0
 29 30  1  0  0  0  0
 29 64  1  0  0  0  0
 30 65  1  0  0  0  0
M  END
> <PUBCHEM_COMPOUND_CID>
45783899

> <PUBCHEM_CONFORMER_RMSD>
1

> <PUBCHEM_CONFORMER_DIVERSEORDER>
1
8
119
52
113
105
125
126
127
98
37
185
176
40
142
165
151
33
137
192
116
143
26
75
195
43
87
38
94
174
5
60
175
106
177
88
61
100
160
31
191
39
80
131
82
107
12
54
68
169
3
15
67
170
136
93
108
51
147
6
65
145
44
104
84
13
150
117
118
101
32
72
123
114
83
168
162
115
190
58
134
78
199
21
95
163
10
122
171
132
146
25
69
36
124
63
48
167
20
57
66
110
62
16
4
149
64
14
148
154
188
180
183
138
55
112
198
86
41
59
50
133
17
70
74
111
18
140
91
182
47
90
193
186
22
2
172
99
196
24
178
30
34
161
76
187
96
103
89
194
144
166
179
164
189
29
53
45
7
135
197
73
181
27
92
141
152
130
19
35
23
81
77
158
97
46
109
139
85
184
156
155
71
159
129
28
121
153
157
102
11
128
49
120
9
56
79
173
42

> <PUBCHEM_MMFF94_PARTIAL_CHARGES>
30
1 -0.28
10 0.14
12 0.27
13 -0.29
14 -0.28
15 0.18
18 0.27
19 0.27
2 -0.81
20 0.14
21 0.37
22 0.37
23 0.3
24 0.41
25 -0.15
26 0.3
27 -0.15
28 0.18
29 0.16
3 -0.84
30 -0.15
39 0.15
4 -0.34
5 -0.62
59 0.15
6 -0.34
60 0.15
64 0.15
65 0.15
8 0.14

> <PUBCHEM_EFFECTIVE_ROTOR_COUNT>
8

> <PUBCHEM_PHARMACOPHORE_FEATURES>
8
1 2 cation
1 3 cation
1 5 acceptor
3 11 16 17 hydrophobe
5 1 4 6 23 26 rings
6 2 3 18 19 21 22 rings
6 5 24 25 27 29 30 rings
6 7 8 9 10 13 14 rings

> <PUBCHEM_HEAVY_ATOM_COUNT>
30

> <PUBCHEM_ATOM_DEF_STEREO_COUNT>
3

> <PUBCHEM_ATOM_UDEF_STEREO_COUNT>
0

> <PUBCHEM_BOND_DEF_STEREO_COUNT>
0

> <PUBCHEM_BOND_UDEF_STEREO_COUNT>
0

> <PUBCHEM_ISOTOPIC_ATOM_COUNT>
0

> <PUBCHEM_COMPONENT_COUNT>
1

> <PUBCHEM_CACTVS_TAUTO_COUNT>
1

> <PUBCHEM_CONFORMER_ID>
02BA9B5B00000001

> <PUBCHEM_MMFF94_ENERGY>
73.9457

> <PUBCHEM_FEATURE_SELFOVERLAP>
40.6

> <PUBCHEM_SHAPE_FINGERPRINT>
10 15 18410012134810066434
10165383 225 18060137622420586931
106641 1 18409452501225408529
11135609 99 17096664278352704043
11315181 36 11167934792911156758
11524674 6 17275099535460352966
12539745 222 15410608264302844631
13383668 251 14780123029336820510
13914758 101 12895076210437272746
14251764 18 16630525120094885176
14279260 333 16701461148596857106
14444916 359 18272378542137429302
14933364 13 18411980257146456560
15183329 4 17060334102776445824
15361156 5 18201994482179604076
15849732 13 18408041819090404341
18335252 98 18334581230592745819
18608769 82 18410573993741398738
19611394 137 18187938321282647513
20105231 36 18334863809687580258
21792961 116 17989209205850669426
21795232 338 18270679908357060330
22224240 67 15791733005934667256
23198884 109 17846495920184437560
23559900 14 18201707484397177112
249057 3 18272651268581554052
25019877 29 17989211434448158287
2747138 104 18260831513877136225
2838139 119 15339119044402647851
3383291 50 18260837024789649491
3633792 109 10880003449119174528
4073 2 18408885179248948690
4098825 35 18343300396882866106
4325135 7 15430037655843618875
44317340 157 18200872981163538272
59682541 35 18335422386920870704
59755656 520 18060693988194639487
9896288 288 18191304884227270961

> <PUBCHEM_SHAPE_MULTIPOLES>
586.61
23.75
2.6
1.28
28.19
0.05
0.03
0.1
-6.28
-3.52
0.9
-0.93
0.26
1.29

> <PUBCHEM_SHAPE_SELFOVERLAP>
1229.888

> <PUBCHEM_SHAPE_VOLUME>
330.2

> <PUBCHEM_COORDINATE_TYPE>
2
5
10

$$$$
