11912117
  -OEChem-12032416393D

 64 68  0     1  0  0  0  0  0999 V2000
    7.2596   -1.8129   -2.4321 F   0  0  0  0  0  0  0  0  0  0  0  0
   -2.9887   -0.7648   -2.2612 O   0  0  0  0  0  0  0  0  0  0  0  0
    0.1761    1.1977    2.5021 O   0  0  0  0  0  0  0  0  0  0  0  0
    3.3490    0.3565   -1.0387 O   0  0  0  0  0  0  0  0  0  0  0  0
   -3.6282    0.9376   -0.8172 N   0  0  0  0  0  0  0  0  0  0  0  0
   -1.1025    2.1400    0.7882 N   0  0  0  0  0  0  0  0  0  0  0  0
   -3.8838   -1.3390   -0.2284 N   0  0  0  0  0  0  0  0  0  0  0  0
    2.4500    1.1099    0.9616 N   0  0  0  0  0  0  0  0  0  0  0  0
    4.5029    0.0843    0.9869 N   0  0  0  0  0  0  0  0  0  0  0  0
   -3.6000    2.6363    1.0347 C   0  0  1  0  0  0  0  0  0  0  0  0
   -2.4650    3.1311   -1.0841 C   0  0  2  0  0  0  0  0  0  0  0  0
   -3.3489    3.7293    0.0059 C   0  0  0  0  0  0  0  0  0  0  0  0
   -4.3040    1.4237    0.3957 C   0  0  0  0  0  0  0  0  0  0  0  0
   -3.2159    1.9768   -1.7688 C   0  0  0  0  0  0  0  0  0  0  0  0
   -2.2639    2.2477    1.6798 C   0  0  0  0  0  0  0  0  0  0  0  0
   -1.1493    2.6297   -0.5203 C   0  0  0  0  0  0  0  0  0  0  0  0
   -3.4650   -0.4131   -1.1770 C   0  0  0  0  0  0  0  0  0  0  0  0
   -3.7887   -2.7649   -0.4496 C   0  0  0  0  0  0  0  0  0  0  0  0
   -0.0417    2.6305   -1.2812 C   0  0  0  0  0  0  0  0  0  0  0  0
    0.0822    1.6222    1.3496 C   0  0  0  0  0  0  0  0  0  0  0  0
   -5.0389   -3.2970   -1.1585 C   0  0  0  0  0  0  0  0  0  0  0  0
   -3.5359   -3.5106    0.8650 C   0  0  0  0  0  0  0  0  0  0  0  0
   -6.2656   -3.3142   -0.2464 C   0  0  0  0  0  0  0  0  0  0  0  0
   -4.7651   -3.5276    1.7736 C   0  0  0  0  0  0  0  0  0  0  0  0
   -5.9930   -4.0712    1.0496 C   0  0  0  0  0  0  0  0  0  0  0  0
    1.2872    1.6171    0.4607 C   0  0  0  0  0  0  0  0  0  0  0  0
    1.1990    2.1115   -0.7785 C   0  0  0  0  0  0  0  0  0  0  0  0
    3.4373    0.4963    0.1792 C   0  0  0  0  0  0  0  0  0  0  0  0
    5.6912   -0.5719    0.5894 C   0  0  0  0  0  0  0  0  0  0  0  0
    5.8855   -0.8708   -0.7494 C   0  0  0  0  0  0  0  0  0  0  0  0
    6.6370   -0.9011    1.5466 C   0  0  0  0  0  0  0  0  0  0  0  0
    7.0578   -1.5168   -1.1417 C   0  0  0  0  0  0  0  0  0  0  0  0
    7.8093   -1.5471    1.1542 C   0  0  0  0  0  0  0  0  0  0  0  0
    8.0197   -1.8550   -0.1898 C   0  0  0  0  0  0  0  0  0  0  0  0
   -4.2590    3.0208    1.8233 H   0  0  0  0  0  0  0  0  0  0  0  0
   -2.2717    3.9104   -1.8329 H   0  0  0  0  0  0  0  0  0  0  0  0
   -2.8612    4.5949    0.4716 H   0  0  0  0  0  0  0  0  0  0  0  0
   -4.2968    4.0834   -0.4171 H   0  0  0  0  0  0  0  0  0  0  0  0
   -5.3164    1.7100    0.0850 H   0  0  0  0  0  0  0  0  0  0  0  0
   -4.4137    0.6540    1.1589 H   0  0  0  0  0  0  0  0  0  0  0  0
   -4.1329    2.3525   -2.2400 H   0  0  0  0  0  0  0  0  0  0  0  0
   -2.6043    1.5463   -2.5695 H   0  0  0  0  0  0  0  0  0  0  0  0
   -1.9964    3.0122    2.4222 H   0  0  0  0  0  0  0  0  0  0  0  0
   -2.3650    1.3087    2.2385 H   0  0  0  0  0  0  0  0  0  0  0  0
   -2.9265   -2.9399   -1.1052 H   0  0  0  0  0  0  0  0  0  0  0  0
   -0.0542    2.9994   -2.3016 H   0  0  0  0  0  0  0  0  0  0  0  0
   -4.8433   -4.3206   -1.5030 H   0  0  0  0  0  0  0  0  0  0  0  0
   -5.2598   -2.7003   -2.0515 H   0  0  0  0  0  0  0  0  0  0  0  0
   -2.6932   -3.0593    1.4024 H   0  0  0  0  0  0  0  0  0  0  0  0
   -3.2511   -4.5460    0.6386 H   0  0  0  0  0  0  0  0  0  0  0  0
   -4.4046   -1.0472    0.5851 H   0  0  0  0  0  0  0  0  0  0  0  0
   -7.1066   -3.7796   -0.7729 H   0  0  0  0  0  0  0  0  0  0  0  0
   -6.5683   -2.2860   -0.0134 H   0  0  0  0  0  0  0  0  0  0  0  0
   -4.9741   -2.5174    2.1445 H   0  0  0  0  0  0  0  0  0  0  0  0
   -4.5575   -4.1465    2.6541 H   0  0  0  0  0  0  0  0  0  0  0  0
   -5.8420   -5.1344    0.8251 H   0  0  0  0  0  0  0  0  0  0  0  0
   -6.8677   -4.0056    1.7065 H   0  0  0  0  0  0  0  0  0  0  0  0
    2.0376    2.1968   -1.4589 H   0  0  0  0  0  0  0  0  0  0  0  0
    2.4886    0.9515    1.9647 H   0  0  0  0  0  0  0  0  0  0  0  0
    4.4214    0.2795    1.9816 H   0  0  0  0  0  0  0  0  0  0  0  0
    5.1913   -0.6429   -1.5443 H   0  0  0  0  0  0  0  0  0  0  0  0
    6.4832   -0.6658    2.5960 H   0  0  0  0  0  0  0  0  0  0  0  0
    8.5584   -1.8106    1.8952 H   0  0  0  0  0  0  0  0  0  0  0  0
    8.9323   -2.3580   -0.4956 H   0  0  0  0  0  0  0  0  0  0  0  0
  1 32  1  0  0  0  0
  2 17  2  0  0  0  0
  3 20  2  0  0  0  0
  4 28  2  0  0  0  0
  5 13  1  0  0  0  0
  5 14  1  0  0  0  0
  5 17  1  0  0  0  0
  6 15  1  0  0  0  0
  6 16  1  0  0  0  0
  6 20  1  0  0  0  0
  7 17  1  0  0  0  0
  7 18  1  0  0  0  0
  7 51  1  0  0  0  0
  8 26  1  0  0  0  0
  8 28  1  0  0  0  0
  8 59  1  0  0  0  0
  9 28  1  0  0  0  0
  9 29  1  0  0  0  0
  9 60  1  0  0  0  0
 10 12  1  0  0  0  0
 10 13  1  0  0  0  0
 10 15  1  0  0  0  0
 10 35  1  0  0  0  0
 11 12  1  0  0  0  0
 11 14  1  0  0  0  0
 11 16  1  0  0  0  0
 11 36  1  0  0  0  0
 12 37  1  0  0  0  0
 12 38  1  0  0  0  0
 13 39  1  0  0  0  0
 13 40  1  0  0  0  0
 14 41  1  0  0  0  0
 14 42  1  0  0  0  0
 15 43  1  0  0  0  0
 15 44  1  0  0  0  0
 16 19  2  0  0  0  0
 18 21  1  0  0  0  0
 18 22  1  0  0  0  0
 18 45  1  0  0  0  0
 19 27  1  0  0  0  0
 19 46  1  0  0  0  0
 20 26  1  0  0  0  0
 21 23  1  0  0  0  0
 21 47  1  0  0  0  0
 21 48  1  0  0  0  0
 22 24  1  0  0  0  0
 22 49  1  0  0  0  0
 22 50  1  0  0  0  0
 23 25  1  0  0  0  0
 23 52  1  0  0  0  0
 23 53  1  0  0  0  0
 24 25  1  0  0  0  0
 24 54  1  0  0  0  0
 24 55  1  0  0  0  0
 25 56  1  0  0  0  0
 25 57  1  0  0  0  0
 26 27  2  0  0  0  0
 27 58  1  0  0  0  0
 29 30  2  0  0  0  0
 29 31  1  0  0  0  0
 30 32  1  0  0  0  0
 30 61  1  0  0  0  0
 31 33  2  0  0  0  0
 31 62  1  0  0  0  0
 32 34  2  0  0  0  0
 33 34  1  0  0  0  0
 33 63  1  0  0  0  0
 34 64  1  0  0  0  0
M  END
> <PUBCHEM_COMPOUND_CID>
11912117

> <PUBCHEM_CONFORMER_RMSD>
1

> <PUBCHEM_CONFORMER_DIVERSEORDER>
1
65
59
15
17
41
57
43
56
58
12
49
31
27
63
42
18
40
46
45
48
67
52
6
47
64
24
22
32
25
51
14
62
16
68
61
37
38
60
8
54
50
23
9
26
19
35
53
29
10
34
7
33
2
39
11
3
20
66
36
21
44
30
5
13
28
55
4

> <PUBCHEM_MMFF94_PARTIAL_CHARGES>
36
1 -0.19
11 0.14
13 0.3
14 0.3
15 0.3
16 -0.03
17 0.69
18 0.3
19 -0.15
2 -0.57
20 0.62
26 0.12
27 -0.15
28 0.69
29 0.12
3 -0.57
30 -0.15
31 -0.15
32 0.19
33 -0.15
34 -0.15
4 -0.57
46 0.15
5 -0.66
51 0.37
58 0.15
59 0.37
6 -0.47
60 0.37
61 0.15
62 0.15
63 0.15
64 0.15
7 -0.73
8 -0.54
9 -0.55

> <PUBCHEM_EFFECTIVE_ROTOR_COUNT>
9.2

> <PUBCHEM_PHARMACOPHORE_FEATURES>
11
1 2 acceptor
1 3 acceptor
1 4 acceptor
1 7 donor
1 8 donor
1 9 donor
6 18 21 22 23 24 25 rings
6 29 30 31 32 33 34 rings
6 5 10 11 12 13 14 rings
6 6 10 11 12 15 16 rings
6 6 16 19 20 26 27 rings

> <PUBCHEM_HEAVY_ATOM_COUNT>
34

> <PUBCHEM_ATOM_DEF_STEREO_COUNT>
2

> <PUBCHEM_ATOM_UDEF_STEREO_COUNT>
0

> <PUBCHEM_BOND_DEF_STEREO_COUNT>
0

> <PUBCHEM_BOND_UDEF_STEREO_COUNT>
0

> <PUBCHEM_ISOTOPIC_ATOM_COUNT>
0

> <PUBCHEM_COMPONENT_COUNT>
1

> <PUBCHEM_CACTVS_TAUTO_COUNT>
6

> <PUBCHEM_CONFORMER_ID>
00B5C3B500000001

> <PUBCHEM_MMFF94_ENERGY>
81.6856

> <PUBCHEM_FEATURE_SELFOVERLAP>
57.422

> <PUBCHEM_SHAPE_FINGERPRINT>
11211813 15 10735888219022574619
11315621 246 18261952956008293524
11387372 6 18413109455361225369
11607047 191 17486506897627086825
117089 54 18118407473938792779
12522641 68 17103103812291717564
12633257 1 15983707860693237117
12717326 25 17487075365636867635
13008946 335 17913504433112993409
1361 4 18338517551424690652
1361 87 17532373273876304931
13782708 43 18343297064241270128
14114211 68 15575532762011327779
14211702 104 18412541042251536730
14856354 85 18270399382795307132
15183329 4 15141253062372810736
15510800 12 18272930535417840422
16120349 21 18409171022275483713
17686467 74 18336254744105971024
18603816 31 18188769436267170434
20775530 9 18264191677746905923
23466295 7 18409166645271474457
249057 3 18267580221627730444
3383291 50 17917702497029105207
397830 11 18201143422232128728
4073 2 18059571335715420088
4144715 1 18201715112170275512
42626532 9 18060692909820524705
437795 139 18187366553893340110
4435113 14 18058180431836977046
44802255 64 17898281702794375965
484985 159 18334571335573255343
513202 73 18342738563394341519
57527585 21 13768743743901355423
58260988 114 18412268328718187121
6086070 43 13551469306929215092
6201320 77 17489597748786209970
9896288 288 18266184929420409657

> <PUBCHEM_SHAPE_MULTIPOLES>
649.92
20.21
5.55
1.92
43.65
2.27
0.06
25.51
1.31
-12.18
-0.47
0.28
0.1
1.26

> <PUBCHEM_SHAPE_SELFOVERLAP>
1402.881

> <PUBCHEM_SHAPE_VOLUME>
352.7

> <PUBCHEM_COORDINATE_TYPE>
2
5
10

$$$$
