28959937
  -OEChem-12032416133D

 65 68  0     1  0  0  0  0  0999 V2000
    9.1208   -0.5561   -0.7029 F   0  0  0  0  0  0  0  0  0  0  0  0
   -4.1040    2.3068   -2.2019 O   0  0  0  0  0  0  0  0  0  0  0  0
   -3.6758   -5.6387    0.0940 O   0  0  0  0  0  0  0  0  0  0  0  0
   -5.4776   -4.2504    0.1744 O   0  0  0  0  0  0  0  0  0  0  0  0
   -4.0489    0.8474   -0.3740 N   0  0  0  0  0  0  0  0  0  0  0  0
    0.8396   -0.2091    0.5129 N   0  0  0  0  0  0  0  0  0  0  0  0
    3.6770   -0.4067    0.2494 N   0  0  0  0  0  0  0  0  0  0  0  0
   -2.8759   -0.9012    0.9459 C   0  0  2  0  0  0  0  0  0  0  0  0
   -3.8328   -1.9532    0.3293 C   0  0  1  0  0  0  0  0  0  0  0  0
   -3.5550    0.4806    0.9608 C   0  0  0  0  0  0  0  0  0  0  0  0
   -4.3592   -1.5030   -1.0440 C   0  0  0  0  0  0  0  0  0  0  0  0
   -1.5117   -0.8166    0.2496 C   0  0  0  0  0  0  0  0  0  0  0  0
   -4.9790   -0.1104   -0.9690 C   0  0  0  0  0  0  0  0  0  0  0  0
   -0.4462   -0.2971    1.2042 C   0  0  0  0  0  0  0  0  0  0  0  0
   -3.2142   -3.3479    0.2384 C   0  0  0  0  0  0  0  0  0  0  0  0
    1.4924   -1.5232    0.4704 C   0  0  0  0  0  0  0  0  0  0  0  0
    1.7163    0.7627    1.1782 C   0  0  0  0  0  0  0  0  0  0  0  0
    2.8136   -1.4568   -0.2997 C   0  0  0  0  0  0  0  0  0  0  0  0
    3.0441    0.9058    0.4309 C   0  0  0  0  0  0  0  0  0  0  0  0
   -3.6975    1.9988   -1.0826 C   0  0  0  0  0  0  0  0  0  0  0  0
   -4.2675   -4.4189    0.1681 C   0  0  0  0  0  0  0  0  0  0  0  0
   -2.7612    2.9370   -0.4537 C   0  0  0  0  0  0  0  0  0  0  0  0
    5.0549   -0.4445    0.0083 C   0  0  0  0  0  0  0  0  0  0  0  0
   -1.3884    2.7926   -0.6542 C   0  0  0  0  0  0  0  0  0  0  0  0
   -3.2443    3.9743    0.3437 C   0  0  0  0  0  0  0  0  0  0  0  0
    5.5418   -1.0153   -1.1677 C   0  0  0  0  0  0  0  0  0  0  0  0
    5.9415    0.0886    0.9439 C   0  0  0  0  0  0  0  0  0  0  0  0
   -0.4985    3.6857   -0.0572 C   0  0  0  0  0  0  0  0  0  0  0  0
   -2.3546    4.8675    0.9407 C   0  0  0  0  0  0  0  0  0  0  0  0
    6.9152   -1.0530   -1.4080 C   0  0  0  0  0  0  0  0  0  0  0  0
    7.3149    0.0510    0.7037 C   0  0  0  0  0  0  0  0  0  0  0  0
    7.8018   -0.5199   -0.4722 C   0  0  0  0  0  0  0  0  0  0  0  0
   -0.9817    4.7231    0.7402 C   0  0  0  0  0  0  0  0  0  0  0  0
   -2.7104   -1.2001    1.9903 H   0  0  0  0  0  0  0  0  0  0  0  0
   -4.6998   -2.0035    1.0048 H   0  0  0  0  0  0  0  0  0  0  0  0
   -4.4329    0.4505    1.6188 H   0  0  0  0  0  0  0  0  0  0  0  0
   -2.8923    1.2421    1.3741 H   0  0  0  0  0  0  0  0  0  0  0  0
   -1.5645   -0.2013   -0.6544 H   0  0  0  0  0  0  0  0  0  0  0  0
   -1.2137   -1.8107   -0.0906 H   0  0  0  0  0  0  0  0  0  0  0  0
   -5.1080   -2.2041   -1.4280 H   0  0  0  0  0  0  0  0  0  0  0  0
   -3.5354   -1.4897   -1.7691 H   0  0  0  0  0  0  0  0  0  0  0  0
   -5.2825    0.2129   -1.9699 H   0  0  0  0  0  0  0  0  0  0  0  0
   -5.8793   -0.1251   -0.3434 H   0  0  0  0  0  0  0  0  0  0  0  0
   -0.3772   -0.9206    2.1051 H   0  0  0  0  0  0  0  0  0  0  0  0
   -0.7489    0.6997    1.5443 H   0  0  0  0  0  0  0  0  0  0  0  0
   -2.5771   -3.4429   -0.6479 H   0  0  0  0  0  0  0  0  0  0  0  0
   -2.6147   -3.5470    1.1346 H   0  0  0  0  0  0  0  0  0  0  0  0
    0.8624   -2.2665   -0.0288 H   0  0  0  0  0  0  0  0  0  0  0  0
    1.6850   -1.8931    1.4869 H   0  0  0  0  0  0  0  0  0  0  0  0
    1.9113    0.4564    2.2152 H   0  0  0  0  0  0  0  0  0  0  0  0
    1.2407    1.7473    1.2190 H   0  0  0  0  0  0  0  0  0  0  0  0
    3.3000   -2.4374   -0.2244 H   0  0  0  0  0  0  0  0  0  0  0  0
    2.6108   -1.2577   -1.3599 H   0  0  0  0  0  0  0  0  0  0  0  0
    2.8758    1.3641   -0.5523 H   0  0  0  0  0  0  0  0  0  0  0  0
    3.6829    1.5904    1.0007 H   0  0  0  0  0  0  0  0  0  0  0  0
   -4.3357   -6.3630    0.0464 H   0  0  0  0  0  0  0  0  0  0  0  0
   -0.9991    1.9991   -1.2857 H   0  0  0  0  0  0  0  0  0  0  0  0
   -4.3120    4.0957    0.5066 H   0  0  0  0  0  0  0  0  0  0  0  0
    4.8804   -1.4268   -1.9247 H   0  0  0  0  0  0  0  0  0  0  0  0
    5.5830    0.5248    1.8727 H   0  0  0  0  0  0  0  0  0  0  0  0
    0.5695    3.5819   -0.2235 H   0  0  0  0  0  0  0  0  0  0  0  0
   -2.7306    5.6756    1.5612 H   0  0  0  0  0  0  0  0  0  0  0  0
    7.2950   -1.4945   -2.3247 H   0  0  0  0  0  0  0  0  0  0  0  0
    8.0058    0.4630    1.4332 H   0  0  0  0  0  0  0  0  0  0  0  0
   -0.2890    5.4201    1.2028 H   0  0  0  0  0  0  0  0  0  0  0  0
  1 32  1  0  0  0  0
  2 20  2  0  0  0  0
  3 21  1  0  0  0  0
  3 56  1  0  0  0  0
  4 21  2  0  0  0  0
  5 10  1  0  0  0  0
  5 13  1  0  0  0  0
  5 20  1  0  0  0  0
  6 14  1  0  0  0  0
  6 16  1  0  0  0  0
  6 17  1  0  0  0  0
  7 18  1  0  0  0  0
  7 19  1  0  0  0  0
  7 23  1  0  0  0  0
  8  9  1  0  0  0  0
  8 10  1  0  0  0  0
  8 12  1  0  0  0  0
  8 34  1  0  0  0  0
  9 11  1  0  0  0  0
  9 15  1  0  0  0  0
  9 35  1  0  0  0  0
 10 36  1  0  0  0  0
 10 37  1  0  0  0  0
 11 13  1  0  0  0  0
 11 40  1  0  0  0  0
 11 41  1  0  0  0  0
 12 14  1  0  0  0  0
 12 38  1  0  0  0  0
 12 39  1  0  0  0  0
 13 42  1  0  0  0  0
 13 43  1  0  0  0  0
 14 44  1  0  0  0  0
 14 45  1  0  0  0  0
 15 21  1  0  0  0  0
 15 46  1  0  0  0  0
 15 47  1  0  0  0  0
 16 18  1  0  0  0  0
 16 48  1  0  0  0  0
 16 49  1  0  0  0  0
 17 19  1  0  0  0  0
 17 50  1  0  0  0  0
 17 51  1  0  0  0  0
 18 52  1  0  0  0  0
 18 53  1  0  0  0  0
 19 54  1  0  0  0  0
 19 55  1  0  0  0  0
 20 22  1  0  0  0  0
 22 24  2  0  0  0  0
 22 25  1  0  0  0  0
 23 26  2  0  0  0  0
 23 27  1  0  0  0  0
 24 28  1  0  0  0  0
 24 57  1  0  0  0  0
 25 29  2  0  0  0  0
 25 58  1  0  0  0  0
 26 30  1  0  0  0  0
 26 59  1  0  0  0  0
 27 31  2  0  0  0  0
 27 60  1  0  0  0  0
 28 33  2  0  0  0  0
 28 61  1  0  0  0  0
 29 33  1  0  0  0  0
 29 62  1  0  0  0  0
 30 32  2  0  0  0  0
 30 63  1  0  0  0  0
 31 32  1  0  0  0  0
 31 64  1  0  0  0  0
 33 65  1  0  0  0  0
M  END
> <PUBCHEM_COMPOUND_CID>
28959937

> <PUBCHEM_CONFORMER_RMSD>
1

> <PUBCHEM_CONFORMER_DIVERSEORDER>
1
35
71
75
50
47
68
117
33
57
92
116
85
87
91
38
32
93
26
101
102
81
107
58
73
30
98
24
25
94
21
23
104
67
83
8
37
114
61
6
66
62
7
64
109
72
28
14
111
5
22
40
65
46
18
90
43
63
84
76
78
82
42
36
44
52
51
70
49
53
89
31
80
99
113
16
77
17
88
34
29
56
60
48
10
19
118
54
45
4
12
74
11
106
86
69
15
79
105
97
100
103
115
9
2
112
108
95
39
41
55
20
3
96
59
110
13
27

> <PUBCHEM_MMFF94_PARTIAL_CHARGES>
39
1 -0.19
10 0.3
13 0.3
14 0.27
15 0.06
16 0.27
17 0.27
18 0.37
19 0.37
2 -0.57
20 0.54
21 0.66
22 0.09
23 0.1
24 -0.15
25 -0.15
26 -0.15
27 -0.15
28 -0.15
29 -0.15
3 -0.65
30 -0.15
31 -0.15
32 0.19
33 -0.15
4 -0.57
5 -0.66
56 0.5
57 0.15
58 0.15
59 0.15
6 -0.81
60 0.15
61 0.15
62 0.15
63 0.15
64 0.15
65 0.15
7 -0.84

> <PUBCHEM_EFFECTIVE_ROTOR_COUNT>
10.4

> <PUBCHEM_PHARMACOPHORE_FEATURES>
10
1 2 acceptor
1 3 acceptor
1 4 acceptor
1 6 cation
1 7 cation
3 3 4 21 anion
6 22 24 25 28 29 33 rings
6 23 26 27 30 31 32 rings
6 5 8 9 10 11 13 rings
6 6 7 16 17 18 19 rings

> <PUBCHEM_HEAVY_ATOM_COUNT>
33

> <PUBCHEM_ATOM_DEF_STEREO_COUNT>
2

> <PUBCHEM_ATOM_UDEF_STEREO_COUNT>
0

> <PUBCHEM_BOND_DEF_STEREO_COUNT>
0

> <PUBCHEM_BOND_UDEF_STEREO_COUNT>
0

> <PUBCHEM_ISOTOPIC_ATOM_COUNT>
0

> <PUBCHEM_COMPONENT_COUNT>
1

> <PUBCHEM_CACTVS_TAUTO_COUNT>
1

> <PUBCHEM_CONFORMER_ID>
01B9E4C100000001

> <PUBCHEM_MMFF94_ENERGY>
93.1237

> <PUBCHEM_FEATURE_SELFOVERLAP>
50.806

> <PUBCHEM_SHAPE_FINGERPRINT>
100830 39 18410292498049675830
10290309 65 18046051680610711775
10411042 1 18266461104038010067
10454371 7 18410578341008574916
10462674 296 17769923907618704526
11049842 53 17689978056264149563
11434127 23 18271239417819716486
11445158 3 16629961161315110936
11756154 67 18337394941726885195
12788726 201 18261385620671613355
13690498 29 18410293656931801115
13782708 43 18060419102188383786
13911987 19 18118387472750342541
14068700 675 18187365484198245284
14856354 85 18413109459107638590
15064981 194 18335712624021742621
15183329 4 17894349961124236028
15324884 4 17913178100911676281
15400415 2 17834394515021832424
15419008 47 18130784594548090104
15876981 60 18334019423110876413
16114785 44 18056773027030856497
17686467 74 18269551805886089896
19958102 18 18120935006225116294
20101258 96 18264494047871504163
20771845 65 17983865755576171883
20775438 99 17475182198564609871
255183 451 18050283975538914759
354706 132 18194125110642455460
395649 100 18410012101452537492
57527306 92 15502651535069644805
57527452 28 15912748576003668317
6376802 90 18269564836226470326
6700243 42 17841189728603059358

> <PUBCHEM_SHAPE_MULTIPOLES>
639.3
18.22
6.49
1.24
47.29
0.2
-0.3
-9.95
-4.74
-15.67
0.88
-0.09
0.39
1.41

> <PUBCHEM_SHAPE_SELFOVERLAP>
1353.377

> <PUBCHEM_SHAPE_VOLUME>
356.7

> <PUBCHEM_COORDINATE_TYPE>
2
5
10

$$$$
