75367163
  -OEChem-12032416393D

 46 49  0     1  0  0  0  0  0999 V2000
   -2.2839    3.0467   -0.5151 O   0  0  0  0  0  0  0  0  0  0  0  0
   -1.9293    0.3249    0.3641 N   0  0  1  0  0  0  0  0  0  0  0  0
   -4.5116   -3.0550    0.2664 N   0  0  0  0  0  0  0  0  0  0  0  0
    1.2080    0.1019   -0.4329 N   0  0  0  0  0  0  0  0  0  0  0  0
    0.8149    2.2507   -0.0329 N   0  0  0  0  0  0  0  0  0  0  0  0
    4.9584   -1.9864   -0.7259 N   0  0  0  0  0  0  0  0  0  0  0  0
   -3.0227   -0.5509   -0.0509 C   0  0  0  0  0  0  0  0  0  0  0  0
   -1.1759    0.8590   -0.7927 C   0  0  1  0  0  0  0  0  0  0  0  0
   -4.0159   -0.7706    1.0960 C   0  0  0  0  0  0  0  0  0  0  0  0
   -2.4707   -1.8954   -0.5356 C   0  0  0  0  0  0  0  0  0  0  0  0
   -2.3961    1.3991    1.2510 C   0  0  0  0  0  0  0  0  0  0  0  0
   -5.0925   -1.7809    0.6975 C   0  0  0  0  0  0  0  0  0  0  0  0
   -3.6078   -2.8620   -0.8704 C   0  0  0  0  0  0  0  0  0  0  0  0
   -1.9028    2.0459   -1.4596 C   0  0  0  0  0  0  0  0  0  0  0  0
   -3.1235    2.5098    0.5032 C   0  0  0  0  0  0  0  0  0  0  0  0
    0.2837    1.1091   -0.4107 C   0  0  0  0  0  0  0  0  0  0  0  0
    2.4047    0.6353   -0.0447 C   0  0  0  0  0  0  0  0  0  0  0  0
    2.1369    1.9621    0.1969 C   0  0  0  0  0  0  0  0  0  0  0  0
    3.6188   -0.1311    0.0541 C   0  0  0  0  0  0  0  0  0  0  0  0
    4.6042    0.2022    0.9768 C   0  0  0  0  0  0  0  0  0  0  0  0
    3.8423   -1.2247   -0.7670 C   0  0  0  0  0  0  0  0  0  0  0  0
    5.7666   -0.5575    1.0490 C   0  0  0  0  0  0  0  0  0  0  0  0
    5.8940   -1.6321    0.1834 C   0  0  0  0  0  0  0  0  0  0  0  0
   -3.5889   -0.0967   -0.8753 H   0  0  0  0  0  0  0  0  0  0  0  0
   -1.0983    0.1018   -1.5824 H   0  0  0  0  0  0  0  0  0  0  0  0
   -4.5604    0.1431    1.3579 H   0  0  0  0  0  0  0  0  0  0  0  0
   -3.5016   -1.1383    1.9943 H   0  0  0  0  0  0  0  0  0  0  0  0
   -1.8349   -2.3428    0.2407 H   0  0  0  0  0  0  0  0  0  0  0  0
   -1.8493   -1.7916   -1.4303 H   0  0  0  0  0  0  0  0  0  0  0  0
   -1.4908    1.8485    1.6841 H   0  0  0  0  0  0  0  0  0  0  0  0
   -2.9395    1.0712    2.1410 H   0  0  0  0  0  0  0  0  0  0  0  0
   -5.7453   -1.9667    1.5577 H   0  0  0  0  0  0  0  0  0  0  0  0
   -5.7244   -1.3686   -0.0990 H   0  0  0  0  0  0  0  0  0  0  0  0
   -3.1815   -3.8326   -1.1473 H   0  0  0  0  0  0  0  0  0  0  0  0
   -4.1694   -2.5000   -1.7404 H   0  0  0  0  0  0  0  0  0  0  0  0
   -1.2484    2.5262   -2.1955 H   0  0  0  0  0  0  0  0  0  0  0  0
   -2.7995    1.7147   -1.9967 H   0  0  0  0  0  0  0  0  0  0  0  0
   -4.0669    2.1701    0.0613 H   0  0  0  0  0  0  0  0  0  0  0  0
   -3.3608    3.3251    1.1943 H   0  0  0  0  0  0  0  0  0  0  0  0
   -5.2607   -3.6917   -0.0040 H   0  0  0  0  0  0  0  0  0  0  0  0
    1.0271   -0.8621   -0.6811 H   0  0  0  0  0  0  0  0  0  0  0  0
    2.8225    2.7319    0.5223 H   0  0  0  0  0  0  0  0  0  0  0  0
    4.4872    1.0453    1.6527 H   0  0  0  0  0  0  0  0  0  0  0  0
    3.1249   -1.5414   -1.5183 H   0  0  0  0  0  0  0  0  0  0  0  0
    6.5477   -0.3172    1.7611 H   0  0  0  0  0  0  0  0  0  0  0  0
    6.7813   -2.2563    0.2001 H   0  0  0  0  0  0  0  0  0  0  0  0
  1 14  1  0  0  0  0
  1 15  1  0  0  0  0
  2  7  1  0  0  0  0
  2  8  1  0  0  0  0
  2 11  1  0  0  0  0
  3 12  1  0  0  0  0
  3 13  1  0  0  0  0
  3 40  1  0  0  0  0
  4 16  1  0  0  0  0
  4 17  1  0  0  0  0
  4 41  1  0  0  0  0
  5 16  2  0  0  0  0
  5 18  1  0  0  0  0
  6 21  1  0  0  0  0
  6 23  2  0  0  0  0
  7  9  1  0  0  0  0
  7 10  1  0  0  0  0
  7 24  1  0  0  0  0
  8 14  1  0  0  0  0
  8 16  1  0  0  0  0
  8 25  1  0  0  0  0
  9 12  1  0  0  0  0
  9 26  1  0  0  0  0
  9 27  1  0  0  0  0
 10 13  1  0  0  0  0
 10 28  1  0  0  0  0
 10 29  1  0  0  0  0
 11 15  1  0  0  0  0
 11 30  1  0  0  0  0
 11 31  1  0  0  0  0
 12 32  1  0  0  0  0
 12 33  1  0  0  0  0
 13 34  1  0  0  0  0
 13 35  1  0  0  0  0
 14 36  1  0  0  0  0
 14 37  1  0  0  0  0
 15 38  1  0  0  0  0
 15 39  1  0  0  0  0
 17 18  2  0  0  0  0
 17 19  1  0  0  0  0
 18 42  1  0  0  0  0
 19 20  1  0  0  0  0
 19 21  2  0  0  0  0
 20 22  2  0  0  0  0
 20 43  1  0  0  0  0
 21 44  1  0  0  0  0
 22 23  1  0  0  0  0
 22 45  1  0  0  0  0
 23 46  1  0  0  0  0
M  END
> <PUBCHEM_COMPOUND_CID>
75367163

> <PUBCHEM_CONFORMER_RMSD>
0.8

> <PUBCHEM_CONFORMER_DIVERSEORDER>
6
32
25
24
10
58
13
60
47
37
8
23
43
3
31
16
14
40
52
21
62
63
35
51
54
36
61
49
64
59
12
1
11
20
22
46
41
53
19
48
34
29
17
33
4
39
15
30
5
65
26
45
7
9
27
55
18
56
28
42
57
38
44
50
2

> <PUBCHEM_MMFF94_PARTIAL_CHARGES>
28
1 -0.56
11 0.27
12 0.27
13 0.27
14 0.28
15 0.28
16 0.01
17 -0.2
18 0.08
19 0.05
2 -0.81
20 -0.15
21 0.16
22 -0.15
23 0.16
3 -0.9
4 0.03
40 0.36
41 0.27
42 0.15
43 0.15
44 0.15
45 0.15
46 0.15
5 -0.57
6 -0.62
7 0.27
8 0.45

> <PUBCHEM_EFFECTIVE_ROTOR_COUNT>
5.4

> <PUBCHEM_PHARMACOPHORE_FEATURES>
11
1 1 acceptor
1 2 cation
1 3 cation
1 3 donor
1 4 donor
1 6 acceptor
3 4 5 16 cation
5 4 5 16 17 18 rings
6 1 2 8 11 14 15 rings
6 3 7 9 10 12 13 rings
6 6 19 20 21 22 23 rings

> <PUBCHEM_HEAVY_ATOM_COUNT>
23

> <PUBCHEM_ATOM_DEF_STEREO_COUNT>
1

> <PUBCHEM_ATOM_UDEF_STEREO_COUNT>
0

> <PUBCHEM_BOND_DEF_STEREO_COUNT>
0

> <PUBCHEM_BOND_UDEF_STEREO_COUNT>
0

> <PUBCHEM_ISOTOPIC_ATOM_COUNT>
0

> <PUBCHEM_COMPONENT_COUNT>
1

> <PUBCHEM_CACTVS_TAUTO_COUNT>
2

> <PUBCHEM_CONFORMER_ID>
047E02FB00000006

> <PUBCHEM_MMFF94_ENERGY>
41.7486

> <PUBCHEM_FEATURE_SELFOVERLAP>
55.824

> <PUBCHEM_SHAPE_FINGERPRINT>
10622 236 17483661674671584207
11036077 4 18200318714942451457
11545043 162 18271518711601815322
11552529 35 18202560670395863626
11809386 21 17968367962281719354
12107183 9 18342190929594803353
12422481 6 18129402469983393899
12633257 1 17845674632448669233
12643181 29 18122626046888570294
12760667 363 18341889719174860311
12892183 10 17775566429714304072
12916754 54 18334859441230975772
13004483 165 18268708484451199149
13583140 156 17346307194367518888
13675066 3 17988638563289249368
14114206 34 16225762986841386781
14178342 30 18200887170717040900
1420 369 18336829783369060898
14251751 18 18412262852376395770
14251751 93 18337107878111466762
14420673 8 18198351645717762142
14739800 52 9078548128310959910
14866123 147 18410015399681628339
14950920 106 16916786339625325530
15042514 8 18410015416698135701
15352361 1 18410574023975416606
16120349 21 18341626871471143611
17492 89 18339081608815276418
17780758 139 18202281364593740184
17857418 61 18412262873751109110
17959699 21 8718556007994730718
1813 80 17895479227415235173
19141452 34 18339082579499114189
193927 3 18187937208595960570
20028762 73 18271806894770063270
20281475 54 18409172116922698596
20403669 9 18408605885361341094
20681677 274 18199747101750350169
23559900 14 18339632434435042161
23622692 118 18336262426768469068
3027735 51 18259980444943658403
312423 11 18114191860152052884
4073 2 18341608158530658770
44062 13 18262235512952655124
474 4 11383840380339735474
484985 159 18261664896868050887
5104073 3 18271515421883720176
5486654 36 18409454665197985233
559249 180 18261954033818133809
56633871 153 18342747355414338711
5924683 9 18412822482256650587
59755656 520 18192987120149239709
6371380 46 17122849928634149788
76465 3 18335700589079429219
7970288 3 18190743222669424571

> <PUBCHEM_SHAPE_MULTIPOLES>
442.55
12.71
3.37
1.11
12.71
0.08
-0.02
10.12
-2.99
-4.04
0.53
-0.29
-0.1
0.38

> <PUBCHEM_SHAPE_SELFOVERLAP>
949.343

> <PUBCHEM_SHAPE_VOLUME>
239.7

> <PUBCHEM_COORDINATE_TYPE>
2
5
10

$$$$
