45361323
  -OEChem-12032416123D

 73 77  0     1  0  0  0  0  0999 V2000
   -2.3277   -0.6992    1.8089 S   0  0  0  0  0  0  0  0  0  0  0  0
    3.1871    1.6365   -1.3990 O   0  0  0  0  0  0  0  0  0  0  0  0
    6.9804   -1.8702   -0.4802 O   0  0  0  0  0  0  0  0  0  0  0  0
   -5.1295   -0.4628    0.0980 O   0  0  0  0  0  0  0  0  0  0  0  0
  -10.5926    0.1664   -0.3700 O   0  0  0  0  0  0  0  0  0  0  0  0
   -2.0839    0.8213   -0.2684 N   0  0  0  0  0  0  0  0  0  0  0  0
    7.3714    0.3269    0.1174 N   0  0  0  0  0  0  0  0  0  0  0  0
    1.5496   -1.2298    0.5431 C   0  0  1  0  0  0  0  0  0  0  0  0
    1.7117    0.2071   -0.0925 C   0  0  1  0  0  0  0  0  0  0  0  0
    2.9616    0.2809   -1.0148 C   0  0  2  0  0  0  0  0  0  0  0  0
    4.2473   -0.2176   -0.3197 C   0  0  1  0  0  0  0  0  0  0  0  0
    2.8688   -1.6445    1.2362 C   0  0  0  0  0  0  0  0  0  0  0  0
    0.3799    0.6974   -0.7947 C   0  0  1  0  0  0  0  0  0  0  0  0
    4.0734   -1.6014    0.3061 C   0  0  0  0  0  0  0  0  0  0  0  0
    0.4366   -1.2010    1.6367 C   0  0  0  0  0  0  0  0  0  0  0  0
    1.1818   -2.2981   -0.5195 C   0  0  0  0  0  0  0  0  0  0  0  0
    5.4436   -0.2354   -1.2792 C   0  0  2  0  0  0  0  0  0  0  0  0
   -0.8241    0.3418    0.0442 C   0  0  0  0  0  0  0  0  0  0  0  0
   -0.7802   -0.5167    1.1231 C   0  0  0  0  0  0  0  0  0  0  0  0
    0.3761    2.2017   -1.1043 C   0  0  0  0  0  0  0  0  0  0  0  0
    5.1925   -1.1675   -2.4505 C   0  0  0  0  0  0  0  0  0  0  0  0
    6.6662   -0.6795   -0.5169 C   0  0  0  0  0  0  0  0  0  0  0  0
   -2.9510    0.3487    0.6004 C   0  0  0  0  0  0  0  0  0  0  0  0
    8.5702    0.0618    0.8993 C   0  0  0  0  0  0  0  0  0  0  0  0
    7.0557    1.7520    0.1099 C   0  0  0  0  0  0  0  0  0  0  0  0
    9.1866    1.4333    1.1276 C   0  0  0  0  0  0  0  0  0  0  0  0
    7.9694    2.3485    1.1711 C   0  0  0  0  0  0  0  0  0  0  0  0
   -4.3975    0.6573    0.5921 C   0  0  0  0  0  0  0  0  0  0  0  0
   -6.4840   -0.3068   -0.0180 C   0  0  0  0  0  0  0  0  0  0  0  0
   -7.0799    0.9027    0.3396 C   0  0  0  0  0  0  0  0  0  0  0  0
   -7.2687   -1.3573   -0.4939 C   0  0  0  0  0  0  0  0  0  0  0  0
   -8.4605    1.0616    0.2213 C   0  0  0  0  0  0  0  0  0  0  0  0
   -8.6494   -1.1983   -0.6120 C   0  0  0  0  0  0  0  0  0  0  0  0
   -9.2453    0.0112   -0.2546 C   0  0  0  0  0  0  0  0  0  0  0  0
  -11.1357    1.4290    0.0133 C   0  0  0  0  0  0  0  0  0  0  0  0
    1.8908    0.9053    0.7412 H   0  0  0  0  0  0  0  0  0  0  0  0
    2.7438   -0.2808   -1.9257 H   0  0  0  0  0  0  0  0  0  0  0  0
    4.4667    0.4764    0.5017 H   0  0  0  0  0  0  0  0  0  0  0  0
    3.0635   -0.9767    2.0863 H   0  0  0  0  0  0  0  0  0  0  0  0
    2.7744   -2.6540    1.6569 H   0  0  0  0  0  0  0  0  0  0  0  0
    0.2727    0.1628   -1.7479 H   0  0  0  0  0  0  0  0  0  0  0  0
    4.9420   -1.8693    0.9172 H   0  0  0  0  0  0  0  0  0  0  0  0
    3.9592   -2.3923   -0.4383 H   0  0  0  0  0  0  0  0  0  0  0  0
    0.2031   -2.2210    1.9667 H   0  0  0  0  0  0  0  0  0  0  0  0
    0.7899   -0.6496    2.5180 H   0  0  0  0  0  0  0  0  0  0  0  0
    1.9007   -2.3314   -1.3429 H   0  0  0  0  0  0  0  0  0  0  0  0
    0.1975   -2.1254   -0.9650 H   0  0  0  0  0  0  0  0  0  0  0  0
    1.1556   -3.2974   -0.0692 H   0  0  0  0  0  0  0  0  0  0  0  0
    5.6106    0.7608   -1.7011 H   0  0  0  0  0  0  0  0  0  0  0  0
    0.6455    2.7902   -0.2205 H   0  0  0  0  0  0  0  0  0  0  0  0
   -0.6108    2.5431   -1.4369 H   0  0  0  0  0  0  0  0  0  0  0  0
    1.0642    2.4504   -1.9153 H   0  0  0  0  0  0  0  0  0  0  0  0
    3.3479    2.1554   -0.5925 H   0  0  0  0  0  0  0  0  0  0  0  0
    5.0084   -2.2086   -2.1748 H   0  0  0  0  0  0  0  0  0  0  0  0
    6.0831   -1.1886   -3.0925 H   0  0  0  0  0  0  0  0  0  0  0  0
    4.3748   -0.8279   -3.0913 H   0  0  0  0  0  0  0  0  0  0  0  0
    8.2566   -0.4007    1.8417 H   0  0  0  0  0  0  0  0  0  0  0  0
    9.2361   -0.6273    0.3717 H   0  0  0  0  0  0  0  0  0  0  0  0
    7.3025    2.1428   -0.8834 H   0  0  0  0  0  0  0  0  0  0  0  0
    6.0037    1.9496    0.3193 H   0  0  0  0  0  0  0  0  0  0  0  0
    9.8241    1.7054    0.2777 H   0  0  0  0  0  0  0  0  0  0  0  0
    9.7897    1.4786    2.0383 H   0  0  0  0  0  0  0  0  0  0  0  0
    7.4929    2.2831    2.1567 H   0  0  0  0  0  0  0  0  0  0  0  0
    8.2141    3.3962    0.9765 H   0  0  0  0  0  0  0  0  0  0  0  0
   -4.5413    1.5235   -0.0673 H   0  0  0  0  0  0  0  0  0  0  0  0
   -4.7170    0.9108    1.6114 H   0  0  0  0  0  0  0  0  0  0  0  0
   -6.5350    1.7599    0.7194 H   0  0  0  0  0  0  0  0  0  0  0  0
   -6.8099   -2.3016   -0.7738 H   0  0  0  0  0  0  0  0  0  0  0  0
   -8.8591    2.0262    0.5170 H   0  0  0  0  0  0  0  0  0  0  0  0
   -9.2556   -2.0201   -0.9833 H   0  0  0  0  0  0  0  0  0  0  0  0
  -10.9763    1.6290    1.0784 H   0  0  0  0  0  0  0  0  0  0  0  0
  -10.7602    2.2383   -0.6220 H   0  0  0  0  0  0  0  0  0  0  0  0
  -12.2181    1.3760   -0.1432 H   0  0  0  0  0  0  0  0  0  0  0  0
  1 19  1  0  0  0  0
  1 23  1  0  0  0  0
  2 10  1  0  0  0  0
  2 53  1  0  0  0  0
  3 22  2  0  0  0  0
  4 28  1  0  0  0  0
  4 29  1  0  0  0  0
  5 34  1  0  0  0  0
  5 35  1  0  0  0  0
  6 18  1  0  0  0  0
  6 23  2  0  0  0  0
  7 22  1  0  0  0  0
  7 24  1  0  0  0  0
  7 25  1  0  0  0  0
  8  9  1  0  0  0  0
  8 12  1  0  0  0  0
  8 15  1  0  0  0  0
  8 16  1  0  0  0  0
  9 10  1  0  0  0  0
  9 13  1  0  0  0  0
  9 36  1  0  0  0  0
 10 11  1  0  0  0  0
 10 37  1  0  0  0  0
 11 14  1  0  0  0  0
 11 17  1  0  0  0  0
 11 38  1  0  0  0  0
 12 14  1  0  0  0  0
 12 39  1  0  0  0  0
 12 40  1  0  0  0  0
 13 18  1  0  0  0  0
 13 20  1  0  0  0  0
 13 41  1  0  0  0  0
 14 42  1  0  0  0  0
 14 43  1  0  0  0  0
 15 19  1  0  0  0  0
 15 44  1  0  0  0  0
 15 45  1  0  0  0  0
 16 46  1  0  0  0  0
 16 47  1  0  0  0  0
 16 48  1  0  0  0  0
 17 21  1  0  0  0  0
 17 22  1  0  0  0  0
 17 49  1  0  0  0  0
 18 19  2  0  0  0  0
 20 50  1  0  0  0  0
 20 51  1  0  0  0  0
 20 52  1  0  0  0  0
 21 54  1  0  0  0  0
 21 55  1  0  0  0  0
 21 56  1  0  0  0  0
 23 28  1  0  0  0  0
 24 26  1  0  0  0  0
 24 57  1  0  0  0  0
 24 58  1  0  0  0  0
 25 27  1  0  0  0  0
 25 59  1  0  0  0  0
 25 60  1  0  0  0  0
 26 27  1  0  0  0  0
 26 61  1  0  0  0  0
 26 62  1  0  0  0  0
 27 63  1  0  0  0  0
 27 64  1  0  0  0  0
 28 65  1  0  0  0  0
 28 66  1  0  0  0  0
 29 30  2  0  0  0  0
 29 31  1  0  0  0  0
 30 32  1  0  0  0  0
 30 67  1  0  0  0  0
 31 33  2  0  0  0  0
 31 68  1  0  0  0  0
 32 34  2  0  0  0  0
 32 69  1  0  0  0  0
 33 34  1  0  0  0  0
 33 70  1  0  0  0  0
 35 71  1  0  0  0  0
 35 72  1  0  0  0  0
 35 73  1  0  0  0  0
M  END
> <PUBCHEM_COMPOUND_CID>
45361323

> <PUBCHEM_CONFORMER_RMSD>
1

> <PUBCHEM_CONFORMER_DIVERSEORDER>
1
83
149
144
231
138
119
243
172
190
230
62
46
225
193
54
199
239
242
3
232
117
244
66
187
125
95
184
178
227
57
162
183
174
175
99
200
114
215
106
132
80
56
233
185
120
237
116
196
234
222
145
152
220
135
108
32
201
221
198
235
216
209
113
217
226
146
79
191
103
76
85
176
69
140
158
166
171
71
229
63
130
224
219
182
238
82
165
157
26
164
186
131
133
214
139
48
59
118
12
123
207
173
100
195
203
218
136
111
55
101
143
240
241
134
5
204
70
37
124
27
205
168
8
110
179
50
160
92
89
142
53
156
169
29
67
223
87
52
81
236
19
34
38
180
161
65
72
9
197
210
93
107
228
122
163
212
18
84
96
181
102
112
188
10
159
104
13
60
17
40
148
177
45
22
68
154
109
206
105
74
98
64
14
208
129
36
28
77
115
150
75
41
73
141
97
155
20
211
153
33
78
90
94
31
39
58
30
213
147
43
86
167
47
137
24
88
16
15
170
192
127
126
49
2
44
194
4
202
7
25
51
151
6
11
128
61
35
91
23
189
42
121
21

> <PUBCHEM_MMFF94_PARTIAL_CHARGES>
30
1 -0.08
10 0.28
13 0.18
15 0.18
17 0.06
18 0.05
19 -0.14
2 -0.68
22 0.57
23 0.2
24 0.3
25 0.3
28 0.46
29 0.08
3 -0.57
30 -0.15
31 -0.15
32 -0.15
33 -0.15
34 0.08
35 0.28
4 -0.36
5 -0.36
53 0.4
6 -0.57
67 0.15
68 0.15
69 0.15
7 -0.66
70 0.15

> <PUBCHEM_EFFECTIVE_ROTOR_COUNT>
9.2

> <PUBCHEM_PHARMACOPHORE_FEATURES>
12
1 2 acceptor
1 2 donor
1 21 hydrophobe
1 3 acceptor
1 4 acceptor
1 5 acceptor
1 6 acceptor
5 1 6 18 19 23 rings
5 7 24 25 26 27 rings
6 29 30 31 32 33 34 rings
6 8 9 10 11 12 14 rings
6 8 9 13 15 18 19 rings

> <PUBCHEM_HEAVY_ATOM_COUNT>
35

> <PUBCHEM_ATOM_DEF_STEREO_COUNT>
5

> <PUBCHEM_ATOM_UDEF_STEREO_COUNT>
1

> <PUBCHEM_BOND_DEF_STEREO_COUNT>
0

> <PUBCHEM_BOND_UDEF_STEREO_COUNT>
0

> <PUBCHEM_ISOTOPIC_ATOM_COUNT>
0

> <PUBCHEM_COMPONENT_COUNT>
1

> <PUBCHEM_CACTVS_TAUTO_COUNT>
1

> <PUBCHEM_CONFORMER_ID>
02B428AB00000001

> <PUBCHEM_MMFF94_ENERGY>
114.3104

> <PUBCHEM_FEATURE_SELFOVERLAP>
60.98

> <PUBCHEM_SHAPE_FINGERPRINT>
10299344 5 18408323268809143815
10533779 47 12324237239459292433
10674148 151 18342459232576496041
10883706 142 13912324582511609473
11135926 11 17530959198827912859
11315181 36 17775570836930907763
11443803 9 18260826011892051226
12089408 11 17775006761300376763
12522641 33 18131073736268816326
12664476 115 15864068772699431327
12838862 33 17821720654761481587
13165053 68 17487326290500574503
13617811 41 13326861050327333832
13811026 1 18261677064051035739
13947947 74 17894632535866042289
14040221 8 16917073235831809529
14344974 52 18410572921144274147
14400156 350 18262528117461664444
15065858 18 18201719548981313183
15183329 4 18260833683758143203
15289351 153 12035716640025515119
15347591 1 13900812630358036424
15840311 113 18342459249418936932
16728433 110 18342457067581104545
17686467 74 17846498154021275201
20105231 36 11095891466644173552
21150785 3 17989207053133180867
21792934 111 18040714771344487076
21792938 131 16661202535274453258
22164985 6 18334571331162789391
22224240 67 18410856564383481178
24771293 8 18408891719482021929
24893992 56 16226054418363990929
249057 3 18408044031331007399
335352 9 17822301175726856254
3633792 109 18410296904263907857
395649 100 18336825399041349819
4325135 7 18259987059435627159
5470011 282 17561084687371820286
6081469 158 14707205509299350646
6126387 218 18411981356631937993
6201320 215 13551733121180214719
67123 10 18060137648132355369

> <PUBCHEM_SHAPE_MULTIPOLES>
690.69
34.96
1.96
1.43
55.59
0.17
0.13
10.81
0.14
-2.33
0.02
-1.98
-0.23
1

> <PUBCHEM_SHAPE_SELFOVERLAP>
1464.777

> <PUBCHEM_SHAPE_VOLUME>
391.3

> <PUBCHEM_COORDINATE_TYPE>
2
5
10

$$$$
