11883007
  -OEChem-12032416123D

 69 72  0     1  0  0  0  0  0999 V2000
    0.5001    2.9442    0.1676 S   0  0  0  0  0  0  0  0  0  0  0  0
   -6.5970   -0.2990   -0.6913 O   0  0  0  0  0  0  0  0  0  0  0  0
   -6.4896    1.5532    0.8260 O   0  0  0  0  0  0  0  0  0  0  0  0
    1.2150   -2.1428   -1.4108 O   0  0  0  0  0  0  0  0  0  0  0  0
    4.2177    0.1848   -0.1559 O   0  0  0  0  0  0  0  0  0  0  0  0
    1.2945    0.4916   -0.0476 N   0  0  0  0  0  0  0  0  0  0  0  0
    1.5885   -3.6037    0.3543 N   0  0  0  0  0  0  0  0  0  0  0  0
    3.0069    2.1857    0.0384 N   0  0  0  0  0  0  0  0  0  0  0  0
   -2.3799   -0.5990    0.3738 C   0  0  2  0  0  0  0  0  0  0  0  0
   -2.9342    0.7245   -0.3167 C   0  0  1  0  0  0  0  0  0  0  0  0
   -4.4991    0.9214   -0.3340 C   0  0  1  0  0  0  0  0  0  0  0  0
   -0.8680   -0.8063   -0.1002 C   0  0  1  0  0  0  0  0  0  0  0  0
   -3.2129   -1.8171   -0.1031 C   0  0  0  0  0  0  0  0  0  0  0  0
   -5.1769   -0.4022   -0.7885 C   0  0  1  0  0  0  0  0  0  0  0  0
   -2.1490    1.9833    0.1544 C   0  0  0  0  0  0  0  0  0  0  0  0
   -4.7177   -1.6174    0.0096 C   0  0  0  0  0  0  0  0  0  0  0  0
   -2.4308   -0.5370    1.9203 C   0  0  0  0  0  0  0  0  0  0  0  0
   -0.0873    0.4789    0.0010 C   0  0  0  0  0  0  0  0  0  0  0  0
   -5.0973    1.4163    1.0014 C   0  0  0  0  0  0  0  0  0  0  0  0
   -4.8614    2.0104   -1.3832 C   0  0  0  0  0  0  0  0  0  0  0  0
   -0.6821    1.7206    0.0961 C   0  0  0  0  0  0  0  0  0  0  0  0
   -0.1358   -1.9643    0.5912 C   0  0  0  0  0  0  0  0  0  0  0  0
    0.9470   -2.5515   -0.2840 C   0  0  0  0  0  0  0  0  0  0  0  0
    1.7133    1.7354    0.0396 C   0  0  0  0  0  0  0  0  0  0  0  0
    2.6586   -4.3389   -0.2565 C   0  0  0  0  0  0  0  0  0  0  0  0
    3.6705   -5.0705    0.5758 C   0  0  0  0  0  0  0  0  0  0  0  0
    4.0747   -3.8468   -0.1930 C   0  0  0  0  0  0  0  0  0  0  0  0
    4.1784    1.4095   -0.0571 C   0  0  0  0  0  0  0  0  0  0  0  0
    5.4848    2.2430   -0.0262 C   0  0  0  0  0  0  0  0  0  0  0  0
    5.5616    3.0271    1.2977 C   0  0  0  0  0  0  0  0  0  0  0  0
    5.4994    3.2501   -1.1870 C   0  0  0  0  0  0  0  0  0  0  0  0
    6.7079    1.3166   -0.1120 C   0  0  0  0  0  0  0  0  0  0  0  0
   -2.6695    0.5982   -1.3810 H   0  0  0  0  0  0  0  0  0  0  0  0
   -0.9231   -1.0213   -1.1780 H   0  0  0  0  0  0  0  0  0  0  0  0
   -2.9477   -2.7169    0.4632 H   0  0  0  0  0  0  0  0  0  0  0  0
   -2.9758   -2.0358   -1.1528 H   0  0  0  0  0  0  0  0  0  0  0  0
   -4.9458   -0.5749   -1.8481 H   0  0  0  0  0  0  0  0  0  0  0  0
   -2.3871    2.8378   -0.4877 H   0  0  0  0  0  0  0  0  0  0  0  0
   -2.4228    2.2547    1.1794 H   0  0  0  0  0  0  0  0  0  0  0  0
   -5.0317   -1.5357    1.0561 H   0  0  0  0  0  0  0  0  0  0  0  0
   -5.2278   -2.5125   -0.3691 H   0  0  0  0  0  0  0  0  0  0  0  0
   -1.8598    0.3027    2.3260 H   0  0  0  0  0  0  0  0  0  0  0  0
   -3.4441   -0.4672    2.3102 H   0  0  0  0  0  0  0  0  0  0  0  0
   -2.0150   -1.4466    2.3676 H   0  0  0  0  0  0  0  0  0  0  0  0
   -4.9449    0.7187    1.8210 H   0  0  0  0  0  0  0  0  0  0  0  0
   -4.6915    2.3896    1.2934 H   0  0  0  0  0  0  0  0  0  0  0  0
   -5.9402    2.0731   -1.5649 H   0  0  0  0  0  0  0  0  0  0  0  0
   -4.5310    3.0057   -1.0683 H   0  0  0  0  0  0  0  0  0  0  0  0
   -4.3913    1.7953   -2.3499 H   0  0  0  0  0  0  0  0  0  0  0  0
    0.3134   -1.6432    1.5394 H   0  0  0  0  0  0  0  0  0  0  0  0
   -0.8214   -2.7884    0.8128 H   0  0  0  0  0  0  0  0  0  0  0  0
   -6.9766   -1.1283   -1.0283 H   0  0  0  0  0  0  0  0  0  0  0  0
   -6.8575    1.8741    1.6670 H   0  0  0  0  0  0  0  0  0  0  0  0
    2.3490   -4.8309   -1.1735 H   0  0  0  0  0  0  0  0  0  0  0  0
    1.2979   -3.8812    1.2881 H   0  0  0  0  0  0  0  0  0  0  0  0
    4.0208   -6.0304    0.2168 H   0  0  0  0  0  0  0  0  0  0  0  0
    3.6102   -4.9893    1.6541 H   0  0  0  0  0  0  0  0  0  0  0  0
    4.2839   -2.9454    0.3700 H   0  0  0  0  0  0  0  0  0  0  0  0
    4.6956   -3.9826   -1.0698 H   0  0  0  0  0  0  0  0  0  0  0  0
    3.0971    3.1942    0.1160 H   0  0  0  0  0  0  0  0  0  0  0  0
    6.5172    3.5559    1.3889 H   0  0  0  0  0  0  0  0  0  0  0  0
    5.4672    2.3523    2.1565 H   0  0  0  0  0  0  0  0  0  0  0  0
    4.7666    3.7753    1.3851 H   0  0  0  0  0  0  0  0  0  0  0  0
    6.4512    3.7920   -1.2269 H   0  0  0  0  0  0  0  0  0  0  0  0
    4.7024    3.9963   -1.1036 H   0  0  0  0  0  0  0  0  0  0  0  0
    5.3653    2.7371   -2.1462 H   0  0  0  0  0  0  0  0  0  0  0  0
    7.6431    1.8865   -0.0806 H   0  0  0  0  0  0  0  0  0  0  0  0
    6.7006    0.7403   -1.0443 H   0  0  0  0  0  0  0  0  0  0  0  0
    6.7242    0.6001    0.7173 H   0  0  0  0  0  0  0  0  0  0  0  0
  1 21  1  0  0  0  0
  1 24  1  0  0  0  0
  2 14  1  0  0  0  0
  2 52  1  0  0  0  0
  3 19  1  0  0  0  0
  3 53  1  0  0  0  0
  4 23  2  0  0  0  0
  5 28  2  0  0  0  0
  6 18  1  0  0  0  0
  6 24  2  0  0  0  0
  7 23  1  0  0  0  0
  7 25  1  0  0  0  0
  7 55  1  0  0  0  0
  8 24  1  0  0  0  0
  8 28  1  0  0  0  0
  8 60  1  0  0  0  0
  9 10  1  0  0  0  0
  9 12  1  0  0  0  0
  9 13  1  0  0  0  0
  9 17  1  0  0  0  0
 10 11  1  0  0  0  0
 10 15  1  0  0  0  0
 10 33  1  0  0  0  0
 11 14  1  0  0  0  0
 11 19  1  0  0  0  0
 11 20  1  0  0  0  0
 12 18  1  0  0  0  0
 12 22  1  0  0  0  0
 12 34  1  0  0  0  0
 13 16  1  0  0  0  0
 13 35  1  0  0  0  0
 13 36  1  0  0  0  0
 14 16  1  0  0  0  0
 14 37  1  0  0  0  0
 15 21  1  0  0  0  0
 15 38  1  0  0  0  0
 15 39  1  0  0  0  0
 16 40  1  0  0  0  0
 16 41  1  0  0  0  0
 17 42  1  0  0  0  0
 17 43  1  0  0  0  0
 17 44  1  0  0  0  0
 18 21  2  0  0  0  0
 19 45  1  0  0  0  0
 19 46  1  0  0  0  0
 20 47  1  0  0  0  0
 20 48  1  0  0  0  0
 20 49  1  0  0  0  0
 22 23  1  0  0  0  0
 22 50  1  0  0  0  0
 22 51  1  0  0  0  0
 25 26  1  0  0  0  0
 25 27  1  0  0  0  0
 25 54  1  0  0  0  0
 26 27  1  0  0  0  0
 26 56  1  0  0  0  0
 26 57  1  0  0  0  0
 27 58  1  0  0  0  0
 27 59  1  0  0  0  0
 28 29  1  0  0  0  0
 29 30  1  0  0  0  0
 29 31  1  0  0  0  0
 29 32  1  0  0  0  0
 30 61  1  0  0  0  0
 30 62  1  0  0  0  0
 30 63  1  0  0  0  0
 31 64  1  0  0  0  0
 31 65  1  0  0  0  0
 31 66  1  0  0  0  0
 32 67  1  0  0  0  0
 32 68  1  0  0  0  0
 32 69  1  0  0  0  0
M  END
> <PUBCHEM_COMPOUND_CID>
11883007

> <PUBCHEM_CONFORMER_RMSD>
1

> <PUBCHEM_CONFORMER_DIVERSEORDER>
1
12
4
10
11
13
9
3
7
8
6
2
5

> <PUBCHEM_MMFF94_PARTIAL_CHARGES>
31
1 -0.08
12 0.18
14 0.28
15 0.18
18 0.05
19 0.28
2 -0.68
21 -0.14
22 0.06
23 0.57
24 0.44
25 0.05
26 -0.2
27 -0.2
28 0.57
29 0.06
3 -0.68
4 -0.57
5 -0.57
52 0.4
53 0.4
54 0.1
55 0.37
56 0.1
57 0.1
58 0.1
59 0.1
6 -0.57
60 0.37
7 -0.58
8 -0.49

> <PUBCHEM_EFFECTIVE_ROTOR_COUNT>
9.8

> <PUBCHEM_PHARMACOPHORE_FEATURES>
12
1 2 acceptor
1 2 donor
1 3 acceptor
1 3 donor
1 4 acceptor
1 5 acceptor
1 7 donor
1 8 donor
4 29 30 31 32 hydrophobe
5 1 6 18 21 24 rings
6 9 10 11 13 14 16 rings
6 9 10 12 15 18 21 rings

> <PUBCHEM_HEAVY_ATOM_COUNT>
32

> <PUBCHEM_ATOM_DEF_STEREO_COUNT>
5

> <PUBCHEM_ATOM_UDEF_STEREO_COUNT>
0

> <PUBCHEM_BOND_DEF_STEREO_COUNT>
0

> <PUBCHEM_BOND_UDEF_STEREO_COUNT>
0

> <PUBCHEM_ISOTOPIC_ATOM_COUNT>
0

> <PUBCHEM_COMPONENT_COUNT>
1

> <PUBCHEM_CACTVS_TAUTO_COUNT>
6

> <PUBCHEM_CONFORMER_ID>
00B551FF00000001

> <PUBCHEM_MMFF94_ENERGY>
100.9297

> <PUBCHEM_FEATURE_SELFOVERLAP>
61.042

> <PUBCHEM_SHAPE_FINGERPRINT>
10050765 1 18338233757424142013
10190108 129 17979917443496560423
10411042 1 17834114148331066386
10906281 52 18335153015362641969
10940486 97 17613157782051106956
11135926 11 18411414007993643933
11578080 2 17315051308926903781
11719270 70 18410284840165081176
11763715 3 17402073097147739606
11963148 33 18267293421693432615
12166972 35 17534640213001354478
12977781 61 17895494581876476218
13140716 1 17691414422741108259
13540713 4 18114467760878008387
13540713 5 18129945564524168665
138480 1 18122344576275119058
14028597 1 17774181087849560203
14466204 15 18337667615519365689
14790565 3 18338238296693403596
15183329 4 18187924027431545340
15400415 2 18266177430302112540
15439362 3 18336543832909385473
15815584 197 18266763396304388670
15927050 60 18341330106263926182
16719943 64 18193554691544895794
167882 2 18410011005360449874
17980427 23 17677617625711998789
20028762 73 17839745107642548623
20642791 35 18341059510433757190
20721686 56 18336831875667240634
21033648 29 18127964420253794936
21133665 82 18338520859250992388
21344244 246 18410285922217583383
21360443 120 18408326601397602710
22311459 1 18338515356802319669
23559900 14 18194673774705981307
244849 19 17896061891717185187
3004659 81 18259982717498497468
3298306 158 18412265073248858798
3411729 13 18407758127631299258
38695281 34 18341612658907812046
4017518 198 18270970158880398158
4058900 60 18335712684351153278
4073 2 18337679706131268107
5265222 85 18120381110168899548
532947 4 18410860953903432606
5385378 56 18411424994330063577
59755656 215 18410856585414881439
6138700 20 18411702101815494956
6371380 46 18270681004428347616
6376802 90 17967524654770909055
6669772 16 18410855469240693470
67856867 119 18339078185774145710
6898599 12 17685506738138619788
9961470 85 18341322410394279138
9981440 41 18263648518544024458

> <PUBCHEM_SHAPE_MULTIPOLES>
623.97
14.96
5.62
1.06
0.26
7.25
0.13
-8.88
-0.87
-10.34
0.07
0.41
-0.24
0

> <PUBCHEM_SHAPE_SELFOVERLAP>
1294.983

> <PUBCHEM_SHAPE_VOLUME>
360.9

> <PUBCHEM_COORDINATE_TYPE>
2
5
10

$$$$
