7128122
  -OEChem-12032416123D

 62 64  0     1  0  0  0  0  0999 V2000
    5.3841   -2.6767    0.2925 F   0  0  0  0  0  0  0  0  0  0  0  0
    8.4367    0.7936    1.3022 F   0  0  0  0  0  0  0  0  0  0  0  0
   -2.9724    0.7832   -1.4914 O   0  0  0  0  0  0  0  0  0  0  0  0
   -2.6601   -1.0968    1.5930 O   0  0  0  0  0  0  0  0  0  0  0  0
    2.3484    1.2052   -0.8905 O   0  0  0  0  0  0  0  0  0  0  0  0
   -4.3140    4.5266    0.4958 O   0  0  0  0  0  0  0  0  0  0  0  0
   -3.6220    2.6172    1.5724 O   0  0  0  0  0  0  0  0  0  0  0  0
   -1.7255   -1.3625   -0.5243 N   0  0  0  0  0  0  0  0  0  0  0  0
    1.2739   -0.8140   -1.2267 N   0  0  0  0  0  0  0  0  0  0  0  0
   -1.6046    2.1802   -0.2269 N   0  0  0  0  0  0  0  0  0  0  0  0
    3.4343   -0.8290   -0.4503 N   0  0  0  0  0  0  0  0  0  0  0  0
   -2.0580   -4.1407    0.4674 N   0  0  0  0  0  0  0  0  0  0  0  0
   -4.8070   -4.6550    0.6781 N   0  0  0  0  0  0  0  0  0  0  0  0
    0.0223   -0.2629   -1.6898 C   0  0  2  0  0  0  0  0  0  0  0  0
   -0.9739   -0.1121   -0.5402 C   0  0  1  0  0  0  0  0  0  0  0  0
   -0.6808   -1.2288   -2.6457 C   0  0  0  0  0  0  0  0  0  0  0  0
   -1.4527   -2.1598   -1.7196 C   0  0  0  0  0  0  0  0  0  0  0  0
   -1.9696    0.9763   -0.8091 C   0  0  0  0  0  0  0  0  0  0  0  0
   -2.4375   -1.7768    0.5938 C   0  0  0  0  0  0  0  0  0  0  0  0
   -2.3812    3.3884   -0.3552 C   0  0  2  0  0  0  0  0  0  0  0  0
   -1.5056    4.6597   -0.3165 C   0  0  0  0  0  0  0  0  0  0  0  0
    2.3661   -0.0228   -0.8537 C   0  0  0  0  0  0  0  0  0  0  0  0
   -2.9628   -3.1484    0.5836 C   0  0  0  0  0  0  0  0  0  0  0  0
   -3.4967    3.4523    0.6824 C   0  0  0  0  0  0  0  0  0  0  0  0
   -0.9072    4.8793    1.0762 C   0  0  0  0  0  0  0  0  0  0  0  0
   -0.3923    4.6605   -1.3697 C   0  0  0  0  0  0  0  0  0  0  0  0
   -4.3130   -3.4010    0.6870 C   0  0  0  0  0  0  0  0  0  0  0  0
    4.7111   -0.4179   -0.0017 C   0  0  0  0  0  0  0  0  0  0  0  0
   -2.5521   -5.3946    0.4588 C   0  0  0  0  0  0  0  0  0  0  0  0
   -3.9023   -5.6472    0.5622 C   0  0  0  0  0  0  0  0  0  0  0  0
   -5.3912    4.6589    1.4291 C   0  0  0  0  0  0  0  0  0  0  0  0
    5.6654   -1.3678    0.3622 C   0  0  0  0  0  0  0  0  0  0  0  0
    5.0150    0.9413    0.0751 C   0  0  0  0  0  0  0  0  0  0  0  0
    6.9238   -0.9586    0.8031 C   0  0  0  0  0  0  0  0  0  0  0  0
    6.2736    1.3504    0.5162 C   0  0  0  0  0  0  0  0  0  0  0  0
    7.2279    0.4005    0.8802 C   0  0  0  0  0  0  0  0  0  0  0  0
    0.2302    0.6912   -2.1872 H   0  0  0  0  0  0  0  0  0  0  0  0
   -0.4978    0.0372    0.4360 H   0  0  0  0  0  0  0  0  0  0  0  0
    0.0001   -1.7734   -3.3072 H   0  0  0  0  0  0  0  0  0  0  0  0
   -1.3881   -0.6745   -3.2746 H   0  0  0  0  0  0  0  0  0  0  0  0
   -0.8266   -3.0117   -1.4368 H   0  0  0  0  0  0  0  0  0  0  0  0
   -2.3843   -2.5267   -2.1599 H   0  0  0  0  0  0  0  0  0  0  0  0
    1.3452   -1.8195   -1.1035 H   0  0  0  0  0  0  0  0  0  0  0  0
   -0.7791    2.2029    0.3637 H   0  0  0  0  0  0  0  0  0  0  0  0
   -2.8829    3.3390   -1.3310 H   0  0  0  0  0  0  0  0  0  0  0  0
   -2.1485    5.5243   -0.5293 H   0  0  0  0  0  0  0  0  0  0  0  0
   -0.3230    5.8064    1.0955 H   0  0  0  0  0  0  0  0  0  0  0  0
   -1.6820    4.9756    1.8431 H   0  0  0  0  0  0  0  0  0  0  0  0
   -0.2361    4.0656    1.3684 H   0  0  0  0  0  0  0  0  0  0  0  0
    0.1369    5.6194   -1.3714 H   0  0  0  0  0  0  0  0  0  0  0  0
   -0.8089    4.5064   -2.3705 H   0  0  0  0  0  0  0  0  0  0  0  0
    0.3447    3.8726   -1.1818 H   0  0  0  0  0  0  0  0  0  0  0  0
    3.2868   -1.8348   -0.4803 H   0  0  0  0  0  0  0  0  0  0  0  0
   -5.0475   -2.6094    0.7786 H   0  0  0  0  0  0  0  0  0  0  0  0
   -1.8257   -6.1923    0.3651 H   0  0  0  0  0  0  0  0  0  0  0  0
   -4.2985   -6.6551    0.5548 H   0  0  0  0  0  0  0  0  0  0  0  0
   -6.0524    3.7891    1.3702 H   0  0  0  0  0  0  0  0  0  0  0  0
   -4.9997    4.7800    2.4437 H   0  0  0  0  0  0  0  0  0  0  0  0
   -5.9623    5.5526    1.1644 H   0  0  0  0  0  0  0  0  0  0  0  0
    4.3315    1.7358   -0.1881 H   0  0  0  0  0  0  0  0  0  0  0  0
    7.6669   -1.6980    1.0863 H   0  0  0  0  0  0  0  0  0  0  0  0
    6.5121    2.4083    0.5766 H   0  0  0  0  0  0  0  0  0  0  0  0
  1 32  1  0  0  0  0
  2 36  1  0  0  0  0
  3 18  2  0  0  0  0
  4 19  2  0  0  0  0
  5 22  2  0  0  0  0
  6 24  1  0  0  0  0
  6 31  1  0  0  0  0
  7 24  2  0  0  0  0
  8 15  1  0  0  0  0
  8 17  1  0  0  0  0
  8 19  1  0  0  0  0
  9 14  1  0  0  0  0
  9 22  1  0  0  0  0
  9 43  1  0  0  0  0
 10 18  1  0  0  0  0
 10 20  1  0  0  0  0
 10 44  1  0  0  0  0
 11 22  1  0  0  0  0
 11 28  1  0  0  0  0
 11 53  1  0  0  0  0
 12 23  2  0  0  0  0
 12 29  1  0  0  0  0
 13 27  2  0  0  0  0
 13 30  1  0  0  0  0
 14 15  1  0  0  0  0
 14 16  1  0  0  0  0
 14 37  1  0  0  0  0
 15 18  1  0  0  0  0
 15 38  1  0  0  0  0
 16 17  1  0  0  0  0
 16 39  1  0  0  0  0
 16 40  1  0  0  0  0
 17 41  1  0  0  0  0
 17 42  1  0  0  0  0
 19 23  1  0  0  0  0
 20 21  1  0  0  0  0
 20 24  1  0  0  0  0
 20 45  1  0  0  0  0
 21 25  1  0  0  0  0
 21 26  1  0  0  0  0
 21 46  1  0  0  0  0
 23 27  1  0  0  0  0
 25 47  1  0  0  0  0
 25 48  1  0  0  0  0
 25 49  1  0  0  0  0
 26 50  1  0  0  0  0
 26 51  1  0  0  0  0
 26 52  1  0  0  0  0
 27 54  1  0  0  0  0
 28 32  2  0  0  0  0
 28 33  1  0  0  0  0
 29 30  2  0  0  0  0
 29 55  1  0  0  0  0
 30 56  1  0  0  0  0
 31 57  1  0  0  0  0
 31 58  1  0  0  0  0
 31 59  1  0  0  0  0
 32 34  1  0  0  0  0
 33 35  2  0  0  0  0
 33 60  1  0  0  0  0
 34 36  2  0  0  0  0
 34 61  1  0  0  0  0
 35 36  1  0  0  0  0
 35 62  1  0  0  0  0
M  END
> <PUBCHEM_COMPOUND_CID>
7128122

> <PUBCHEM_CONFORMER_RMSD>
1.2

> <PUBCHEM_CONFORMER_DIVERSEORDER>
1
13
35
42
7
32
45
49
3
24
5
65
27
22
36
34
61
37
6
56
39
31
26
54
28
11
18
25
69
62
46
63
14
68
29
41
33
64
53
51
9
40
52
67
60
44
38
15
21
59
2
48
47
30
66
20
17
16
50
23
4
55
57
8
10
43
12
19
58

> <PUBCHEM_MMFF94_PARTIAL_CHARGES>
41
1 -0.19
10 -0.73
11 -0.55
12 -0.62
13 -0.62
14 0.3
15 0.36
17 0.3
18 0.57
19 0.54
2 -0.19
20 0.36
22 0.69
23 0.4
24 0.66
27 0.16
28 0.12
29 0.16
3 -0.57
30 0.16
31 0.28
32 0.19
33 -0.15
34 -0.15
35 -0.15
36 0.19
4 -0.57
43 0.37
44 0.37
5 -0.57
53 0.37
54 0.15
55 0.15
56 0.15
6 -0.43
60 0.15
61 0.15
62 0.15
7 -0.57
8 -0.66
9 -0.73

> <PUBCHEM_EFFECTIVE_ROTOR_COUNT>
13

> <PUBCHEM_PHARMACOPHORE_FEATURES>
13
1 10 donor
1 11 donor
1 12 acceptor
1 13 acceptor
1 3 acceptor
1 4 acceptor
1 5 acceptor
1 7 acceptor
1 9 donor
3 21 25 26 hydrophobe
5 8 14 15 16 17 rings
6 12 13 23 27 29 30 rings
6 28 32 33 34 35 36 rings

> <PUBCHEM_HEAVY_ATOM_COUNT>
36

> <PUBCHEM_ATOM_DEF_STEREO_COUNT>
3

> <PUBCHEM_ATOM_UDEF_STEREO_COUNT>
0

> <PUBCHEM_BOND_DEF_STEREO_COUNT>
0

> <PUBCHEM_BOND_UDEF_STEREO_COUNT>
0

> <PUBCHEM_ISOTOPIC_ATOM_COUNT>
0

> <PUBCHEM_COMPONENT_COUNT>
1

> <PUBCHEM_CACTVS_TAUTO_COUNT>
6

> <PUBCHEM_CONFORMER_ID>
006CC43A00000001

> <PUBCHEM_MMFF94_ENERGY>
93.131

> <PUBCHEM_FEATURE_SELFOVERLAP>
66.03

> <PUBCHEM_SHAPE_FINGERPRINT>
10074138 170 18411135810187457537
12107183 9 17837761241654053306
14068700 675 17896595287858431614
14394314 77 18263646324006133899
14844126 61 18333454261439435339
15264996 151 17832157387495925339
15513586 35 18129380582830326832
15775530 1 17914079528331516343
15878777 1 10702830649781248375
15950262 2 15264282847074188059
16114785 44 18341891853773521667
18393751 57 18122353380504915209
19246450 95 17109568911172118944
19319366 153 17837487458610582189
22956985 138 17614279296183754127
255183 313 18266760016782013409
3418910 222 18190460661888836292
3886686 26 18192995916152467590
4073 2 18409444770648486778
4144715 1 18340487756467019006
4616759 239 18264183925647208096
5104073 3 18336249173554357450
6376802 137 18043815505276717874
6697151 62 17765147659562657039
79837 15 18266181630109702087
9896288 288 18411700993661717686
9981440 41 18059569127226719039

> <PUBCHEM_SHAPE_MULTIPOLES>
667.08
15.24
9.01
1.6
39.39
1.19
-0.65
-3.05
8.73
-20.63
2.99
-0.69
0.23
-0.28

> <PUBCHEM_SHAPE_SELFOVERLAP>
1411.675

> <PUBCHEM_SHAPE_VOLUME>
373.2

> <PUBCHEM_COORDINATE_TYPE>
2
5
10

$$$$
