38027853
  -OEChem-12032416243D

 66 68  0     1  0  0  0  0  0999 V2000
   -1.1274    2.8870    1.9931 O   0  0  0  0  0  0  0  0  0  0  0  0
    1.7234   -2.4310   -2.0489 O   0  0  0  0  0  0  0  0  0  0  0  0
    3.3098   -2.3683    1.1211 O   0  0  0  0  0  0  0  0  0  0  0  0
   -5.4838   -1.0831   -1.6094 O   0  0  0  0  0  0  0  0  0  0  0  0
    3.1133   -0.8158   -1.1295 N   0  0  0  0  0  0  0  0  0  0  0  0
   -0.9886    0.6267    2.5149 N   0  0  0  0  0  0  0  0  0  0  0  0
    1.0202    1.3293   -1.3768 C   0  0  1  0  0  0  0  0  0  0  0  0
    2.5077    1.4522   -1.7916 C   0  0  1  0  0  0  0  0  0  0  0  0
    0.5896    2.5543   -0.5557 C   0  0  0  0  0  0  0  0  0  0  0  0
    1.4385    2.7300    0.7175 C   0  0  2  0  0  0  0  0  0  0  0  0
    0.1018    1.1709   -2.5926 C   0  0  0  0  0  0  0  0  0  0  0  0
    2.9200    2.5951    0.4296 C   0  0  0  0  0  0  0  0  0  0  0  0
    3.3790    2.0335   -0.7029 C   0  0  0  0  0  0  0  0  0  0  0  0
    3.0737    0.0964   -2.2292 C   0  0  0  0  0  0  0  0  0  0  0  0
    1.0010    1.7508    1.8125 C   0  0  0  0  0  0  0  0  0  0  0  0
   -1.1944    0.4732   -2.1930 C   0  0  0  0  0  0  0  0  0  0  0  0
   -0.1870    2.5301   -3.2217 C   0  0  0  0  0  0  0  0  0  0  0  0
    3.8632    3.1624    1.4537 C   0  0  0  0  0  0  0  0  0  0  0  0
   -0.4790    1.8504    2.1060 C   0  0  0  0  0  0  0  0  0  0  0  0
    2.4242   -2.0281   -1.1243 C   0  0  0  0  0  0  0  0  0  0  0  0
   -2.3764    0.4268    2.8638 C   0  0  0  0  0  0  0  0  0  0  0  0
    2.5470   -2.8520    0.1058 C   0  0  0  0  0  0  0  0  0  0  0  0
   -3.2023    0.0258    1.6758 C   0  0  0  0  0  0  0  0  0  0  0  0
    2.0123   -4.0738    0.4427 C   0  0  0  0  0  0  0  0  0  0  0  0
   -4.2797    0.8165    1.2758 C   0  0  0  0  0  0  0  0  0  0  0  0
   -2.8918   -1.1376    0.9717 C   0  0  0  0  0  0  0  0  0  0  0  0
    2.4763   -4.3591    1.7490 C   0  0  0  0  0  0  0  0  0  0  0  0
    3.2616   -3.2914    2.1172 C   0  0  0  0  0  0  0  0  0  0  0  0
   -5.0465    0.4437    0.1721 C   0  0  0  0  0  0  0  0  0  0  0  0
   -3.6587   -1.5106   -0.1320 C   0  0  0  0  0  0  0  0  0  0  0  0
   -4.7360   -0.7198   -0.5318 C   0  0  0  0  0  0  0  0  0  0  0  0
   -5.1110   -2.2845   -2.2831 C   0  0  0  0  0  0  0  0  0  0  0  0
    0.9017    0.4446   -0.7391 H   0  0  0  0  0  0  0  0  0  0  0  0
    2.5946    2.1327   -2.6480 H   0  0  0  0  0  0  0  0  0  0  0  0
   -0.4792    2.5231   -0.3322 H   0  0  0  0  0  0  0  0  0  0  0  0
    0.7477    3.4733   -1.1363 H   0  0  0  0  0  0  0  0  0  0  0  0
    1.2529    3.7523    1.0763 H   0  0  0  0  0  0  0  0  0  0  0  0
    0.5775    0.5408   -3.3510 H   0  0  0  0  0  0  0  0  0  0  0  0
    4.4528    2.0061   -0.8780 H   0  0  0  0  0  0  0  0  0  0  0  0
    4.1080    0.2137   -2.5749 H   0  0  0  0  0  0  0  0  0  0  0  0
    2.5132   -0.3297   -3.0656 H   0  0  0  0  0  0  0  0  0  0  0  0
    1.5225    1.9668    2.7530 H   0  0  0  0  0  0  0  0  0  0  0  0
    1.2648    0.7235    1.5330 H   0  0  0  0  0  0  0  0  0  0  0  0
   -1.8376    0.3284   -3.0681 H   0  0  0  0  0  0  0  0  0  0  0  0
   -1.7658    1.0474   -1.4575 H   0  0  0  0  0  0  0  0  0  0  0  0
   -0.9897   -0.5158   -1.7694 H   0  0  0  0  0  0  0  0  0  0  0  0
   -0.8710    3.1441   -2.6265 H   0  0  0  0  0  0  0  0  0  0  0  0
   -0.6861    2.3802   -4.1872 H   0  0  0  0  0  0  0  0  0  0  0  0
    0.7224    3.1012   -3.4304 H   0  0  0  0  0  0  0  0  0  0  0  0
    3.6398    4.2193    1.6318 H   0  0  0  0  0  0  0  0  0  0  0  0
    4.9084    3.0965    1.1331 H   0  0  0  0  0  0  0  0  0  0  0  0
    3.7754    2.6226    2.4013 H   0  0  0  0  0  0  0  0  0  0  0  0
    3.7003   -0.5892   -0.3316 H   0  0  0  0  0  0  0  0  0  0  0  0
   -0.3717   -0.1781    2.5751 H   0  0  0  0  0  0  0  0  0  0  0  0
   -2.7605    1.3457    3.3212 H   0  0  0  0  0  0  0  0  0  0  0  0
   -2.4192   -0.3614    3.6238 H   0  0  0  0  0  0  0  0  0  0  0  0
    1.3677   -4.6857   -0.1723 H   0  0  0  0  0  0  0  0  0  0  0  0
   -4.5327    1.7263    1.8137 H   0  0  0  0  0  0  0  0  0  0  0  0
   -2.0566   -1.7639    1.2744 H   0  0  0  0  0  0  0  0  0  0  0  0
    2.2646   -5.2333    2.3475 H   0  0  0  0  0  0  0  0  0  0  0  0
    3.8257   -3.0495    3.0060 H   0  0  0  0  0  0  0  0  0  0  0  0
   -5.8841    1.0639   -0.1353 H   0  0  0  0  0  0  0  0  0  0  0  0
   -3.3618   -2.4254   -0.6333 H   0  0  0  0  0  0  0  0  0  0  0  0
   -5.8118   -2.4204   -3.1133 H   0  0  0  0  0  0  0  0  0  0  0  0
   -5.2130   -3.1592   -1.6320 H   0  0  0  0  0  0  0  0  0  0  0  0
   -4.1095   -2.2063   -2.7196 H   0  0  0  0  0  0  0  0  0  0  0  0
  1 19  2  0  0  0  0
  2 20  2  0  0  0  0
  3 22  1  0  0  0  0
  3 28  1  0  0  0  0
  4 31  1  0  0  0  0
  4 32  1  0  0  0  0
  5 14  1  0  0  0  0
  5 20  1  0  0  0  0
  5 53  1  0  0  0  0
  6 19  1  0  0  0  0
  6 21  1  0  0  0  0
  6 54  1  0  0  0  0
  7  8  1  0  0  0  0
  7  9  1  0  0  0  0
  7 11  1  0  0  0  0
  7 33  1  0  0  0  0
  8 13  1  0  0  0  0
  8 14  1  0  0  0  0
  8 34  1  0  0  0  0
  9 10  1  0  0  0  0
  9 35  1  0  0  0  0
  9 36  1  0  0  0  0
 10 12  1  0  0  0  0
 10 15  1  0  0  0  0
 10 37  1  0  0  0  0
 11 16  1  0  0  0  0
 11 17  1  0  0  0  0
 11 38  1  0  0  0  0
 12 13  2  0  0  0  0
 12 18  1  0  0  0  0
 13 39  1  0  0  0  0
 14 40  1  0  0  0  0
 14 41  1  0  0  0  0
 15 19  1  0  0  0  0
 15 42  1  0  0  0  0
 15 43  1  0  0  0  0
 16 44  1  0  0  0  0
 16 45  1  0  0  0  0
 16 46  1  0  0  0  0
 17 47  1  0  0  0  0
 17 48  1  0  0  0  0
 17 49  1  0  0  0  0
 18 50  1  0  0  0  0
 18 51  1  0  0  0  0
 18 52  1  0  0  0  0
 20 22  1  0  0  0  0
 21 23  1  0  0  0  0
 21 55  1  0  0  0  0
 21 56  1  0  0  0  0
 22 24  2  0  0  0  0
 23 25  2  0  0  0  0
 23 26  1  0  0  0  0
 24 27  1  0  0  0  0
 24 57  1  0  0  0  0
 25 29  1  0  0  0  0
 25 58  1  0  0  0  0
 26 30  2  0  0  0  0
 26 59  1  0  0  0  0
 27 28  2  0  0  0  0
 27 60  1  0  0  0  0
 28 61  1  0  0  0  0
 29 31  2  0  0  0  0
 29 62  1  0  0  0  0
 30 31  1  0  0  0  0
 30 63  1  0  0  0  0
 32 64  1  0  0  0  0
 32 65  1  0  0  0  0
 32 66  1  0  0  0  0
M  END
> <PUBCHEM_COMPOUND_CID>
38027853

> <PUBCHEM_CONFORMER_RMSD>
1.2

> <PUBCHEM_CONFORMER_DIVERSEORDER>
1
22
42
37
12
20
26
45
17
35
31
36
21
32
30
53
5
50
10
43
2
49
55
13
39
8
52
47
34
28
40
48
7
54
6
25
46
24
38
33
11
27
14
23
41
19
29
3
44
4
18
15
16
51
9

> <PUBCHEM_MMFF94_PARTIAL_CHARGES>
37
1 -0.57
10 0.14
12 -0.28
13 -0.29
14 0.3
15 0.06
18 0.14
19 0.57
2 -0.57
20 0.71
21 0.44
22 0.05
23 -0.14
24 -0.15
25 -0.15
26 -0.15
27 -0.15
28 -0.01
29 -0.15
3 -0.28
30 -0.15
31 0.08
32 0.28
39 0.15
4 -0.36
5 -0.73
53 0.37
54 0.37
57 0.15
58 0.15
59 0.15
6 -0.73
60 0.15
61 0.15
62 0.15
63 0.15
8 0.14

> <PUBCHEM_EFFECTIVE_ROTOR_COUNT>
11.8

> <PUBCHEM_PHARMACOPHORE_FEATURES>
10
1 1 acceptor
1 2 acceptor
1 3 acceptor
1 4 acceptor
1 5 donor
1 6 donor
3 11 16 17 hydrophobe
5 3 22 24 27 28 rings
6 23 25 26 29 30 31 rings
6 7 8 9 10 12 13 rings

> <PUBCHEM_HEAVY_ATOM_COUNT>
32

> <PUBCHEM_ATOM_DEF_STEREO_COUNT>
3

> <PUBCHEM_ATOM_UDEF_STEREO_COUNT>
0

> <PUBCHEM_BOND_DEF_STEREO_COUNT>
0

> <PUBCHEM_BOND_UDEF_STEREO_COUNT>
0

> <PUBCHEM_ISOTOPIC_ATOM_COUNT>
0

> <PUBCHEM_COMPONENT_COUNT>
1

> <PUBCHEM_CACTVS_TAUTO_COUNT>
4

> <PUBCHEM_CONFORMER_ID>
0244424D00000001

> <PUBCHEM_MMFF94_ENERGY>
65.7748

> <PUBCHEM_FEATURE_SELFOVERLAP>
50.747

> <PUBCHEM_SHAPE_FINGERPRINT>
12156800 1 16810913059305685971
13383668 262 17978768428144237395
14114207 22 18118373324784983602
14251757 17 15575297392822704011
14674994 50 17324074837309849230
19315092 285 18198602476139570551
20775530 9 17899139312994128466
25222932 49 17701826711872249063
3027735 51 16738616811468968979
35225 105 16974512014438152462
469060 322 15907361934477367234
474144 1 18201145637797111831
5081480 168 17604144805959090929
513532 50 17604692457196987419

> <PUBCHEM_SHAPE_MULTIPOLES>
625.11
9.17
5.15
3.42
12.62
4.86
-0.48
3.43
-1.2
-7.13
1.55
0.8
-1.1
-1.81

> <PUBCHEM_SHAPE_SELFOVERLAP>
1308.261

> <PUBCHEM_SHAPE_VOLUME>
353.1

> <PUBCHEM_COORDINATE_TYPE>
2
5
10

$$$$
