44716549
  -OEChem-12032416373D

 65 67  0     1  0  0  0  0  0999 V2000
   -7.4931   -0.0645   -1.0898 F   0  0  0  0  0  0  0  0  0  0  0  0
   -5.3812   -0.5717   -1.3312 F   0  0  0  0  0  0  0  0  0  0  0  0
   -6.4531   -1.1039    0.5270 F   0  0  0  0  0  0  0  0  0  0  0  0
    3.3843    0.3582   -0.5763 O   0  0  0  0  0  0  0  0  0  0  0  0
    5.7088    1.6068   -2.0915 O   0  0  0  0  0  0  0  0  0  0  0  0
    5.7416    2.9118    0.3302 O   0  0  0  0  0  0  0  0  0  0  0  0
    1.2561    3.5374    0.5622 O   0  0  0  0  0  0  0  0  0  0  0  0
    2.4329   -1.7092    1.2912 O   0  0  0  0  0  0  0  0  0  0  0  0
   -0.1617   -1.1182   -1.0482 O   0  0  0  0  0  0  0  0  0  0  0  0
   -1.9256   -2.5971   -1.2090 O   0  0  0  0  0  0  0  0  0  0  0  0
   -5.9783    1.0956    0.1161 O   0  0  0  0  0  0  0  0  0  0  0  0
    3.7878   -2.4457   -0.4398 N   0  0  0  0  0  0  0  0  0  0  0  0
    0.3586    1.5248    0.9626 N   0  0  0  0  0  0  0  0  0  0  0  0
   -0.1171    3.6680    0.3190 N   0  0  0  0  0  0  0  0  0  0  0  0
    4.6034   -0.2468   -1.0648 C   0  0  1  0  0  0  0  0  0  0  0  0
    5.6964    0.8050   -0.9110 C   0  0  2  0  0  0  0  0  0  0  0  0
    5.1935    1.6124    0.2676 C   0  0  2  0  0  0  0  0  0  0  0  0
    3.6975    1.6367    0.0039 C   0  0  2  0  0  0  0  0  0  0  0  0
    4.8631   -1.5012   -0.2418 C   0  0  0  0  0  0  0  0  0  0  0  0
    2.8680    1.8461    1.2581 C   0  0  0  0  0  0  0  0  0  0  0  0
    0.4151   -3.7979    0.7598 C   0  0  0  0  0  0  0  0  0  0  0  0
    1.6968   -3.5792   -0.0836 C   0  0  0  0  0  0  0  0  0  0  0  0
    1.4509    2.2456    0.9358 C   0  0  0  0  0  0  0  0  0  0  0  0
    2.6479   -2.4707    0.3539 C   0  0  0  0  0  0  0  0  0  0  0  0
   -0.5325   -2.5750    0.7683 C   0  0  0  0  0  0  0  0  0  0  0  0
    0.7816   -4.1490    2.2172 C   0  0  0  0  0  0  0  0  0  0  0  0
   -0.3278   -5.0206    0.1723 C   0  0  0  0  0  0  0  0  0  0  0  0
   -0.9766   -2.1168   -0.6029 C   0  0  0  0  0  0  0  0  0  0  0  0
   -0.5770    2.4400    0.5767 C   0  0  0  0  0  0  0  0  0  0  0  0
   -1.9641    2.0947    0.4571 C   0  0  0  0  0  0  0  0  0  0  0  0
   -2.8162    2.8848   -0.3146 C   0  0  0  0  0  0  0  0  0  0  0  0
   -2.4612    0.9690    1.1141 C   0  0  0  0  0  0  0  0  0  0  0  0
   -0.4690   -0.6042   -2.3476 C   0  0  0  0  0  0  0  0  0  0  0  0
   -4.1652    2.5493   -0.4292 C   0  0  0  0  0  0  0  0  0  0  0  0
   -3.8102    0.6335    0.9995 C   0  0  0  0  0  0  0  0  0  0  0  0
   -4.6622    1.4237    0.2279 C   0  0  0  0  0  0  0  0  0  0  0  0
   -6.3123   -0.1716   -0.4392 C   0  0  0  0  0  0  0  0  0  0  0  0
    4.4346   -0.5116   -2.1153 H   0  0  0  0  0  0  0  0  0  0  0  0
    6.7034    0.4035   -0.7663 H   0  0  0  0  0  0  0  0  0  0  0  0
    5.4123    1.0890    1.2062 H   0  0  0  0  0  0  0  0  0  0  0  0
    3.4583    2.4085   -0.7400 H   0  0  0  0  0  0  0  0  0  0  0  0
    4.9282   -1.2732    0.8274 H   0  0  0  0  0  0  0  0  0  0  0  0
    5.7911   -1.9889   -0.5561 H   0  0  0  0  0  0  0  0  0  0  0  0
    2.8408    0.9340    1.8646 H   0  0  0  0  0  0  0  0  0  0  0  0
    3.3043    2.6409    1.8751 H   0  0  0  0  0  0  0  0  0  0  0  0
    3.8773   -3.1107   -1.2026 H   0  0  0  0  0  0  0  0  0  0  0  0
    6.0014    1.0394   -2.8251 H   0  0  0  0  0  0  0  0  0  0  0  0
    2.2810   -4.5106   -0.0855 H   0  0  0  0  0  0  0  0  0  0  0  0
    1.4287   -3.3855   -1.1303 H   0  0  0  0  0  0  0  0  0  0  0  0
    6.7079    2.8180    0.3831 H   0  0  0  0  0  0  0  0  0  0  0  0
   -1.4444   -2.8002    1.3377 H   0  0  0  0  0  0  0  0  0  0  0  0
   -0.0832   -1.7220    1.2903 H   0  0  0  0  0  0  0  0  0  0  0  0
    1.4897   -4.9844    2.2571 H   0  0  0  0  0  0  0  0  0  0  0  0
   -0.1091   -4.4441    2.7844 H   0  0  0  0  0  0  0  0  0  0  0  0
    1.2311   -3.3045    2.7474 H   0  0  0  0  0  0  0  0  0  0  0  0
   -1.2733   -5.2008    0.6964 H   0  0  0  0  0  0  0  0  0  0  0  0
    0.2778   -5.9300    0.2615 H   0  0  0  0  0  0  0  0  0  0  0  0
   -0.5534   -4.8854   -0.8908 H   0  0  0  0  0  0  0  0  0  0  0  0
   -2.4594    3.7645   -0.8446 H   0  0  0  0  0  0  0  0  0  0  0  0
   -1.8213    0.3397    1.7277 H   0  0  0  0  0  0  0  0  0  0  0  0
   -0.3673   -1.3924   -3.0995 H   0  0  0  0  0  0  0  0  0  0  0  0
   -1.4792   -0.1840   -2.3600 H   0  0  0  0  0  0  0  0  0  0  0  0
    0.2447    0.1924   -2.5741 H   0  0  0  0  0  0  0  0  0  0  0  0
   -4.8241    3.1672   -1.0332 H   0  0  0  0  0  0  0  0  0  0  0  0
   -4.1854   -0.2418    1.5224 H   0  0  0  0  0  0  0  0  0  0  0  0
  1 37  1  0  0  0  0
  2 37  1  0  0  0  0
  3 37  1  0  0  0  0
  4 15  1  0  0  0  0
  4 18  1  0  0  0  0
  5 16  1  0  0  0  0
  5 47  1  0  0  0  0
  6 17  1  0  0  0  0
  6 50  1  0  0  0  0
  7 14  1  0  0  0  0
  7 23  1  0  0  0  0
  8 24  2  0  0  0  0
  9 28  1  0  0  0  0
  9 33  1  0  0  0  0
 10 28  2  0  0  0  0
 11 36  1  0  0  0  0
 11 37  1  0  0  0  0
 12 19  1  0  0  0  0
 12 24  1  0  0  0  0
 12 46  1  0  0  0  0
 13 23  2  0  0  0  0
 13 29  1  0  0  0  0
 14 29  2  0  0  0  0
 15 16  1  0  0  0  0
 15 19  1  0  0  0  0
 15 38  1  0  0  0  0
 16 17  1  0  0  0  0
 16 39  1  0  0  0  0
 17 18  1  0  0  0  0
 17 40  1  0  0  0  0
 18 20  1  0  0  0  0
 18 41  1  0  0  0  0
 19 42  1  0  0  0  0
 19 43  1  0  0  0  0
 20 23  1  0  0  0  0
 20 44  1  0  0  0  0
 20 45  1  0  0  0  0
 21 22  1  0  0  0  0
 21 25  1  0  0  0  0
 21 26  1  0  0  0  0
 21 27  1  0  0  0  0
 22 24  1  0  0  0  0
 22 48  1  0  0  0  0
 22 49  1  0  0  0  0
 25 28  1  0  0  0  0
 25 51  1  0  0  0  0
 25 52  1  0  0  0  0
 26 53  1  0  0  0  0
 26 54  1  0  0  0  0
 26 55  1  0  0  0  0
 27 56  1  0  0  0  0
 27 57  1  0  0  0  0
 27 58  1  0  0  0  0
 29 30  1  0  0  0  0
 30 31  2  0  0  0  0
 30 32  1  0  0  0  0
 31 34  1  0  0  0  0
 31 59  1  0  0  0  0
 32 35  2  0  0  0  0
 32 60  1  0  0  0  0
 33 61  1  0  0  0  0
 33 62  1  0  0  0  0
 33 63  1  0  0  0  0
 34 36  2  0  0  0  0
 34 64  1  0  0  0  0
 35 36  1  0  0  0  0
 35 65  1  0  0  0  0
M  END
> <PUBCHEM_COMPOUND_CID>
44716549

> <PUBCHEM_CONFORMER_RMSD>
1.4

> <PUBCHEM_CONFORMER_DIVERSEORDER>
1
45
56
82
112
22
95
114
72
12
59
86
125
42
79
55
66
100
47
133
43
102
119
129
30
116
29
44
107
34
126
117
96
24
93
106
97
135
17
3
52
58
98
61
41
54
108
134
36
88
76
71
103
26
49
85
111
123
6
33
35
128
122
9
105
77
132
99
101
81
65
131
69
16
13
74
89
104
62
14
63
124
109
78
23
120
32
57
64
92
7
87
18
2
53
90
91
38
83
37
127
10
40
60
39
113
4
94
48
70
121
115
73
25
46
75
68
11
67
19
8
21
5
130
20
27
15
80
110
51
118
84
31
50
28

> <PUBCHEM_MMFF94_PARTIAL_CHARGES>
41
1 -0.34
10 -0.57
11 -0.36
12 -0.73
13 -0.57
14 -0.41
15 0.28
16 0.28
17 0.28
18 0.28
19 0.3
2 -0.34
20 0.18
22 0.06
23 0.3
24 0.57
25 0.06
28 0.66
29 0.46
3 -0.34
30 0.05
31 -0.15
32 -0.15
33 0.28
34 -0.15
35 -0.15
36 0.08
37 1.3
4 -0.56
46 0.37
47 0.4
5 -0.68
50 0.4
59 0.15
6 -0.68
60 0.15
64 0.15
65 0.15
7 -0.02
8 -0.57
9 -0.43

> <PUBCHEM_EFFECTIVE_ROTOR_COUNT>
14

> <PUBCHEM_PHARMACOPHORE_FEATURES>
14
1 10 acceptor
1 11 acceptor
1 12 donor
1 4 acceptor
1 5 acceptor
1 5 donor
1 6 acceptor
1 6 donor
1 8 acceptor
3 13 14 29 cation
3 21 26 27 hydrophobe
5 4 15 16 17 18 rings
5 7 13 14 23 29 rings
6 30 31 32 34 35 36 rings

> <PUBCHEM_HEAVY_ATOM_COUNT>
37

> <PUBCHEM_ATOM_DEF_STEREO_COUNT>
4

> <PUBCHEM_ATOM_UDEF_STEREO_COUNT>
0

> <PUBCHEM_BOND_DEF_STEREO_COUNT>
0

> <PUBCHEM_BOND_UDEF_STEREO_COUNT>
0

> <PUBCHEM_ISOTOPIC_ATOM_COUNT>
0

> <PUBCHEM_COMPONENT_COUNT>
1

> <PUBCHEM_CACTVS_TAUTO_COUNT>
6

> <PUBCHEM_CONFORMER_ID>
02AA520500000001

> <PUBCHEM_MMFF94_ENERGY>
85.1926

> <PUBCHEM_FEATURE_SELFOVERLAP>
71.061

> <PUBCHEM_SHAPE_FINGERPRINT>
11135609 187 18411698794480271969
11136131 41 18189045418076441098
11204353 107 18337951303348985955
11578080 2 17752193999664106197
13165054 146 17752503211998901676
1361 2 18410011039651688361
13617811 41 18334293197322930093
13692114 37 18342168986949947746
14787075 74 18337395928962662751
14790565 3 18411420579045342362
14931854 50 18340778052731419804
15001296 14 18409724101333768728
15351339 4 18339628057910749627
15790856 291 18125166180109067134
15968369 153 18131060580176774906
16067689 302 18342181111695703199
17627616 140 18337389340298324955
19319366 153 18334853896776486094
20028762 73 18198905804110531334
20764821 26 18338780261489026562
21133410 52 17901656082547856258
21133410 62 18261095371514943615
23516275 137 17130456594661699287
23559900 14 17760921849206791713
27425 322 17023473078977893856
3298306 158 18337951182023550960
392239 28 18195535796185313579
437795 70 18130796718834571662
463206 1 18412545409611011937
484989 97 18337684035406022810
5312544 6 18264489494631131014
5776283 40 18267873972359139316
6669772 16 18270672194411336336
86090 222 18271802449773642400
9896288 288 17120006558091251826

> <PUBCHEM_SHAPE_MULTIPOLES>
677.72
13.75
5.9
1.48
11.38
4.89
-0.28
-6.41
-4.35
-2.54
1.83
-0.38
0.5
-0.67

> <PUBCHEM_SHAPE_SELFOVERLAP>
1427.19

> <PUBCHEM_SHAPE_VOLUME>
383.9

> <PUBCHEM_COORDINATE_TYPE>
2
5
10

$$$$
