45784377
  -OEChem-12032416333D

 80 83  0     1  0  0  0  0  0999 V2000
   -0.8567    2.8791   -1.3492 O   0  0  0  0  0  0  0  0  0  0  0  0
   -5.7144    2.6588    0.8700 O   0  0  0  0  0  0  0  0  0  0  0  0
    4.5550   -1.3812   -1.3341 O   0  0  0  0  0  0  0  0  0  0  0  0
    7.1153   -0.6021   -1.0429 O   0  0  0  0  0  0  0  0  0  0  0  0
   -6.9653   -4.1162    0.6743 O   0  0  0  0  0  0  0  0  0  0  0  0
    3.7714    0.3860   -0.0421 N   0  0  0  0  0  0  0  0  0  0  0  0
   -5.2071    1.6837   -1.1724 N   0  0  0  0  0  0  0  0  0  0  0  0
   -0.3543    0.0235    1.1347 C   0  0  1  0  0  0  0  0  0  0  0  0
   -0.0408    0.9686   -0.0728 C   0  0  2  0  0  0  0  0  0  0  0  0
    1.4820    1.3534   -0.1006 C   0  0  1  0  0  0  0  0  0  0  0  0
   -1.0336    2.1652   -0.1247 C   0  0  2  0  0  0  0  0  0  0  0  0
   -1.8330   -0.4260    1.0675 C   0  0  0  0  0  0  0  0  0  0  0  0
    0.5276   -1.2419    1.0269 C   0  0  0  0  0  0  0  0  0  0  0  0
   -2.5122    1.7132   -0.0865 C   0  0  1  0  0  0  0  0  0  0  0  0
    2.3609    0.0715   -0.1331 C   0  0  2  0  0  0  0  0  0  0  0  0
   -2.8096    0.7426    1.0563 C   0  0  0  0  0  0  0  0  0  0  0  0
    2.0162   -0.9297    0.9691 C   0  0  0  0  0  0  0  0  0  0  0  0
   -0.1030    0.7055    2.5035 C   0  0  0  0  0  0  0  0  0  0  0  0
   -3.4706    2.9079   -0.0065 C   0  0  2  0  0  0  0  0  0  0  0  0
    1.8665    2.2603   -1.2819 C   0  0  0  0  0  0  0  0  0  0  0  0
   -3.1838    3.7277    1.2466 C   0  0  0  0  0  0  0  0  0  0  0  0
   -4.9152    2.4182   -0.0323 C   0  0  0  0  0  0  0  0  0  0  0  0
    4.7505   -0.3758   -0.6566 C   0  0  0  0  0  0  0  0  0  0  0  0
    6.1340    0.1810   -0.3973 C   0  0  0  0  0  0  0  0  0  0  0  0
   -6.5105    1.1132   -1.4217 C   0  0  0  0  0  0  0  0  0  0  0  0
   -6.6314   -0.2762   -0.8655 C   0  0  0  0  0  0  0  0  0  0  0  0
    8.3573   -0.6610   -0.4559 C   0  0  0  0  0  0  0  0  0  0  0  0
   -6.0164   -1.3450   -1.5175 C   0  0  0  0  0  0  0  0  0  0  0  0
   -7.3587   -0.4979    0.3040 C   0  0  0  0  0  0  0  0  0  0  0  0
    8.8289    0.4200    0.2890 C   0  0  0  0  0  0  0  0  0  0  0  0
    9.1460   -1.8017   -0.6054 C   0  0  0  0  0  0  0  0  0  0  0  0
   -6.1289   -2.6355   -1.0002 C   0  0  0  0  0  0  0  0  0  0  0  0
   -7.4713   -1.7883    0.8213 C   0  0  0  0  0  0  0  0  0  0  0  0
   -6.8564   -2.8571    0.1692 C   0  0  0  0  0  0  0  0  0  0  0  0
   10.0889    0.3603    0.8842 C   0  0  0  0  0  0  0  0  0  0  0  0
   10.4060   -1.8615   -0.0099 C   0  0  0  0  0  0  0  0  0  0  0  0
   10.8775   -0.7804    0.7347 C   0  0  0  0  0  0  0  0  0  0  0  0
   -6.3108   -5.1621   -0.0425 C   0  0  0  0  0  0  0  0  0  0  0  0
   -0.2128    0.3915   -0.9956 H   0  0  0  0  0  0  0  0  0  0  0  0
    1.7214    1.9190    0.8088 H   0  0  0  0  0  0  0  0  0  0  0  0
   -0.7779    2.8461    0.6888 H   0  0  0  0  0  0  0  0  0  0  0  0
   -1.9965   -1.0255    0.1616 H   0  0  0  0  0  0  0  0  0  0  0  0
   -2.0694   -1.0829    1.9145 H   0  0  0  0  0  0  0  0  0  0  0  0
    0.2566   -1.8042    0.1232 H   0  0  0  0  0  0  0  0  0  0  0  0
    0.3353   -1.9126    1.8740 H   0  0  0  0  0  0  0  0  0  0  0  0
   -2.6941    1.1730   -1.0252 H   0  0  0  0  0  0  0  0  0  0  0  0
    2.1953   -0.4270   -1.0983 H   0  0  0  0  0  0  0  0  0  0  0  0
   -3.8174    0.3227    0.9591 H   0  0  0  0  0  0  0  0  0  0  0  0
   -2.7785    1.2225    2.0367 H   0  0  0  0  0  0  0  0  0  0  0  0
    2.5670   -1.8652    0.8065 H   0  0  0  0  0  0  0  0  0  0  0  0
    2.3608   -0.5559    1.9410 H   0  0  0  0  0  0  0  0  0  0  0  0
    0.9439    0.9807    2.6547 H   0  0  0  0  0  0  0  0  0  0  0  0
   -0.3772    0.0329    3.3248 H   0  0  0  0  0  0  0  0  0  0  0  0
   -0.6848    1.6230    2.6276 H   0  0  0  0  0  0  0  0  0  0  0  0
   -3.3398    3.5559   -0.8827 H   0  0  0  0  0  0  0  0  0  0  0  0
    1.5113    1.8477   -2.2318 H   0  0  0  0  0  0  0  0  0  0  0  0
    2.9506    2.3903   -1.3620 H   0  0  0  0  0  0  0  0  0  0  0  0
    1.4613    3.2680   -1.1541 H   0  0  0  0  0  0  0  0  0  0  0  0
    4.0495    1.1637    0.5498 H   0  0  0  0  0  0  0  0  0  0  0  0
   -1.0270    2.2657   -2.0843 H   0  0  0  0  0  0  0  0  0  0  0  0
   -3.3149    3.1787    2.1819 H   0  0  0  0  0  0  0  0  0  0  0  0
   -3.8944    4.5633    1.2979 H   0  0  0  0  0  0  0  0  0  0  0  0
   -2.1950    4.1913    1.2403 H   0  0  0  0  0  0  0  0  0  0  0  0
   -4.5059    1.5736   -1.8976 H   0  0  0  0  0  0  0  0  0  0  0  0
    6.2626    0.1836    0.6935 H   0  0  0  0  0  0  0  0  0  0  0  0
    6.1742    1.2069   -0.7812 H   0  0  0  0  0  0  0  0  0  0  0  0
   -6.6637    1.0959   -2.5069 H   0  0  0  0  0  0  0  0  0  0  0  0
   -7.2796    1.7717   -1.0015 H   0  0  0  0  0  0  0  0  0  0  0  0
   -5.4465   -1.1829   -2.4287 H   0  0  0  0  0  0  0  0  0  0  0  0
   -7.8413    0.3257    0.8234 H   0  0  0  0  0  0  0  0  0  0  0  0
    8.2570    1.3357    0.4067 H   0  0  0  0  0  0  0  0  0  0  0  0
    8.7837   -2.6468   -1.1844 H   0  0  0  0  0  0  0  0  0  0  0  0
   -5.6260   -3.4191   -1.5566 H   0  0  0  0  0  0  0  0  0  0  0  0
   -8.0385   -1.9548    1.7329 H   0  0  0  0  0  0  0  0  0  0  0  0
   10.4591    1.2042    1.4591 H   0  0  0  0  0  0  0  0  0  0  0  0
   11.0201   -2.7497   -0.1265 H   0  0  0  0  0  0  0  0  0  0  0  0
   11.8592   -0.8264    1.1970 H   0  0  0  0  0  0  0  0  0  0  0  0
   -6.5017   -6.0940    0.4998 H   0  0  0  0  0  0  0  0  0  0  0  0
   -5.2250   -5.0194   -0.0603 H   0  0  0  0  0  0  0  0  0  0  0  0
   -6.7301   -5.2851   -1.0469 H   0  0  0  0  0  0  0  0  0  0  0  0
  1 11  1  0  0  0  0
  1 60  1  0  0  0  0
  2 22  2  0  0  0  0
  3 23  2  0  0  0  0
  4 24  1  0  0  0  0
  4 27  1  0  0  0  0
  5 34  1  0  0  0  0
  5 38  1  0  0  0  0
  6 15  1  0  0  0  0
  6 23  1  0  0  0  0
  6 59  1  0  0  0  0
  7 22  1  0  0  0  0
  7 25  1  0  0  0  0
  7 64  1  0  0  0  0
  8  9  1  0  0  0  0
  8 12  1  0  0  0  0
  8 13  1  0  0  0  0
  8 18  1  0  0  0  0
  9 10  1  0  0  0  0
  9 11  1  0  0  0  0
  9 39  1  0  0  0  0
 10 15  1  0  0  0  0
 10 20  1  0  0  0  0
 10 40  1  0  0  0  0
 11 14  1  0  0  0  0
 11 41  1  0  0  0  0
 12 16  1  0  0  0  0
 12 42  1  0  0  0  0
 12 43  1  0  0  0  0
 13 17  1  0  0  0  0
 13 44  1  0  0  0  0
 13 45  1  0  0  0  0
 14 16  1  0  0  0  0
 14 19  1  0  0  0  0
 14 46  1  0  0  0  0
 15 17  1  0  0  0  0
 15 47  1  0  0  0  0
 16 48  1  0  0  0  0
 16 49  1  0  0  0  0
 17 50  1  0  0  0  0
 17 51  1  0  0  0  0
 18 52  1  0  0  0  0
 18 53  1  0  0  0  0
 18 54  1  0  0  0  0
 19 21  1  0  0  0  0
 19 22  1  0  0  0  0
 19 55  1  0  0  0  0
 20 56  1  0  0  0  0
 20 57  1  0  0  0  0
 20 58  1  0  0  0  0
 21 61  1  0  0  0  0
 21 62  1  0  0  0  0
 21 63  1  0  0  0  0
 23 24  1  0  0  0  0
 24 65  1  0  0  0  0
 24 66  1  0  0  0  0
 25 26  1  0  0  0  0
 25 67  1  0  0  0  0
 25 68  1  0  0  0  0
 26 28  2  0  0  0  0
 26 29  1  0  0  0  0
 27 30  2  0  0  0  0
 27 31  1  0  0  0  0
 28 32  1  0  0  0  0
 28 69  1  0  0  0  0
 29 33  2  0  0  0  0
 29 70  1  0  0  0  0
 30 35  1  0  0  0  0
 30 71  1  0  0  0  0
 31 36  2  0  0  0  0
 31 72  1  0  0  0  0
 32 34  2  0  0  0  0
 32 73  1  0  0  0  0
 33 34  1  0  0  0  0
 33 74  1  0  0  0  0
 35 37  2  0  0  0  0
 35 75  1  0  0  0  0
 36 37  1  0  0  0  0
 36 76  1  0  0  0  0
 37 77  1  0  0  0  0
 38 78  1  0  0  0  0
 38 79  1  0  0  0  0
 38 80  1  0  0  0  0
M  END
> <PUBCHEM_COMPOUND_CID>
45784377

> <PUBCHEM_CONFORMER_RMSD>
1.2

> <PUBCHEM_CONFORMER_DIVERSEORDER>
1
76
129
30
84
172
161
42
133
120
187
100
186
74
31
2
71
116
94
177
33
139
149
205
102
157
27
111
185
79
105
200
213
121
207
125
199
40
95
4
21
190
166
28
38
103
154
151
39
78
98
181
126
134
162
206
5
68
130
169
9
18
23
210
60
97
43
212
50
198
81
32
17
188
141
140
184
6
99
107
80
193
91
124
29
189
182
72
65
208
123
209
96
122
15
159
73
87
48
204
20
59
136
160
3
85
49
37
180
174
147
89
69
150
191
83
143
153
24
163
70
8
119
22
53
179
203
56
113
52
66
152
176
110
82
92
196
90
54
197
155
44
148
86
12
64
170
35
128
192
109
101
46
142
112
135
183
88
118
14
106
168
211
47
34
115
144
117
202
7
93
201
164
62
26
36
114
171
137
11
173
63
41
127
167
77
195
58
108
194
158
51
57
25
132
175
131
178
156
55
104
146
13
67
45
19
10
75
61
16
138
165
145

> <PUBCHEM_MMFF94_PARTIAL_CHARGES>
39
1 -0.68
11 0.28
15 0.3
19 0.06
2 -0.57
22 0.57
23 0.57
24 0.34
25 0.44
26 -0.14
27 0.08
28 -0.15
29 -0.15
3 -0.57
30 -0.15
31 -0.15
32 -0.15
33 -0.15
34 0.08
35 -0.15
36 -0.15
37 -0.15
38 0.28
4 -0.36
5 -0.36
59 0.37
6 -0.73
60 0.4
64 0.37
69 0.15
7 -0.73
70 0.15
71 0.15
72 0.15
73 0.15
74 0.15
75 0.15
76 0.15
77 0.15

> <PUBCHEM_EFFECTIVE_ROTOR_COUNT>
12.6

> <PUBCHEM_PHARMACOPHORE_FEATURES>
13
1 1 acceptor
1 1 donor
1 2 acceptor
1 21 hydrophobe
1 3 acceptor
1 4 acceptor
1 5 acceptor
1 6 donor
1 7 donor
6 26 28 29 32 33 34 rings
6 27 30 31 35 36 37 rings
6 8 9 10 13 15 17 rings
6 8 9 11 12 14 16 rings

> <PUBCHEM_HEAVY_ATOM_COUNT>
38

> <PUBCHEM_ATOM_DEF_STEREO_COUNT>
6

> <PUBCHEM_ATOM_UDEF_STEREO_COUNT>
1

> <PUBCHEM_BOND_DEF_STEREO_COUNT>
0

> <PUBCHEM_BOND_UDEF_STEREO_COUNT>
0

> <PUBCHEM_ISOTOPIC_ATOM_COUNT>
0

> <PUBCHEM_COMPONENT_COUNT>
1

> <PUBCHEM_CACTVS_TAUTO_COUNT>
4

> <PUBCHEM_CONFORMER_ID>
02BA9D3900000001

> <PUBCHEM_MMFF94_ENERGY>
121.4099

> <PUBCHEM_FEATURE_SELFOVERLAP>
65.994

> <PUBCHEM_SHAPE_FINGERPRINT>
10076449 9 16343978100883339096
11135609 99 18411701027746597957
11135926 11 16805328755965621008
11477941 20 16877937223184330109
117089 54 18120660386692430239
12013929 27 17968940937084669655
12082328 90 18130504137552624020
13782708 43 18060700602470375963
13811026 1 18411700993972382440
13947947 19 17822015324468718876
14040221 310 17821999892435349789
14040222 383 18342452639358818906
14202775 3 18200596892329511894
14279260 333 18334856113275087987
15274700 256 18410290355161617066
15392192 29 18412544315628468077
15461852 350 18334577932484798828
17686467 74 18201432576294178024
20737093 207 17822279194317072090
20982279 24 16701480982851205622
21362267 20 18410854344092124426
22149856 69 9871753465305231788
354706 132 16660355992740748863
3711267 37 11887665196206621346
395649 100 18409165510962375279
4339292 15 17561070424386888965
4353968 344 18114460076801915956
437795 160 18411411818187732746
44280117 145 18411704291784748196
44802255 64 12324242772099934769
484989 97 18339644546120939041
54039377 194 18334580175001364507
54583773 228 18336270149937501180
6691757 9 17313116224027814400
999808 66 17846500327116107253

> <PUBCHEM_SHAPE_MULTIPOLES>
742.71
33.81
4.23
1.42
82.99
2.57
-0.23
25.63
2.41
-12.6
-0.1
-0.77
-0.27
0.4

> <PUBCHEM_SHAPE_SELFOVERLAP>
1562.409

> <PUBCHEM_SHAPE_VOLUME>
414.5

> <PUBCHEM_COORDINATE_TYPE>
2
5
10

$$$$
