28961385
  -OEChem-12032416203D

 61 64  0     1  0  0  0  0  0999 V2000
   -8.2166    3.9516    0.7324 Cl  0  0  0  0  0  0  0  0  0  0  0  0
   -1.1704   -2.2138    0.7304 O   0  0  0  0  0  0  0  0  0  0  0  0
    0.8857   -3.0134   -1.2948 O   0  0  0  0  0  0  0  0  0  0  0  0
   -2.4610   -4.7047    0.5433 O   0  0  0  0  0  0  0  0  0  0  0  0
   -3.3546   -0.7982   -0.8872 O   0  0  0  0  0  0  0  0  0  0  0  0
    2.2280   -0.9437    0.1669 N   0  0  0  0  0  0  0  0  0  0  0  0
    4.7100    0.4696    0.1296 N   0  0  0  0  0  0  0  0  0  0  0  0
   -1.6766    0.6341   -0.1920 N   0  0  0  0  0  0  0  0  0  0  0  0
   -3.8695    1.3331   -0.0488 N   0  0  0  0  0  0  0  0  0  0  0  0
    1.1609   -1.7336    0.7558 C   0  0  1  0  0  0  0  0  0  0  0  0
   -0.2398   -1.1084    0.7283 C   0  0  1  0  0  0  0  0  0  0  0  0
    0.9394   -3.0989    0.1233 C   0  0  1  0  0  0  0  0  0  0  0  0
   -0.4325   -3.4504    0.6865 C   0  0  2  0  0  0  0  0  0  0  0  0
    2.3601    0.3429    0.8617 C   0  0  0  0  0  0  0  0  0  0  0  0
    3.5002   -1.6740    0.2225 C   0  0  0  0  0  0  0  0  0  0  0  0
   -0.5760   -0.2370   -0.4767 C   0  0  0  0  0  0  0  0  0  0  0  0
    3.4436    1.2080    0.2139 C   0  0  0  0  0  0  0  0  0  0  0  0
    4.6226   -0.8761   -0.4457 C   0  0  0  0  0  0  0  0  0  0  0  0
   -1.2211   -4.4762   -0.1069 C   0  0  0  0  0  0  0  0  0  0  0  0
    5.8927    1.2058   -0.0033 C   0  0  0  0  0  0  0  0  0  0  0  0
   -3.0194    0.2880   -0.4209 C   0  0  0  0  0  0  0  0  0  0  0  0
    6.2561    2.1253    0.9806 C   0  0  0  0  0  0  0  0  0  0  0  0
    6.7079    1.0200   -1.1196 C   0  0  0  0  0  0  0  0  0  0  0  0
    7.4349    2.8593    0.8480 C   0  0  0  0  0  0  0  0  0  0  0  0
    7.8867    1.7538   -1.2523 C   0  0  0  0  0  0  0  0  0  0  0  0
    8.2502    2.6735   -0.2684 C   0  0  0  0  0  0  0  0  0  0  0  0
   -5.2814    1.3725   -0.1246 C   0  0  0  0  0  0  0  0  0  0  0  0
   -5.9719    2.5101    0.2931 C   0  0  0  0  0  0  0  0  0  0  0  0
   -5.9831    0.2728   -0.6189 C   0  0  0  0  0  0  0  0  0  0  0  0
   -7.3641    2.5482    0.2167 C   0  0  0  0  0  0  0  0  0  0  0  0
   -7.3752    0.3110   -0.6954 C   0  0  0  0  0  0  0  0  0  0  0  0
   -8.0658    1.4487   -0.2775 C   0  0  0  0  0  0  0  0  0  0  0  0
    1.3957   -1.9206    1.8165 H   0  0  0  0  0  0  0  0  0  0  0  0
   -0.4017   -0.5391    1.6526 H   0  0  0  0  0  0  0  0  0  0  0  0
    1.6927   -3.8425    0.4031 H   0  0  0  0  0  0  0  0  0  0  0  0
   -0.3410   -3.7790    1.7298 H   0  0  0  0  0  0  0  0  0  0  0  0
    1.4361    0.9271    0.8662 H   0  0  0  0  0  0  0  0  0  0  0  0
    2.6224    0.1769    1.9164 H   0  0  0  0  0  0  0  0  0  0  0  0
    3.7773   -1.8958    1.2621 H   0  0  0  0  0  0  0  0  0  0  0  0
    3.4387   -2.6287   -0.3104 H   0  0  0  0  0  0  0  0  0  0  0  0
   -0.8451   -0.8589   -1.3384 H   0  0  0  0  0  0  0  0  0  0  0  0
    0.2372    0.4174   -0.7933 H   0  0  0  0  0  0  0  0  0  0  0  0
    3.1329    1.5094   -0.7948 H   0  0  0  0  0  0  0  0  0  0  0  0
    3.5475    2.1238    0.8070 H   0  0  0  0  0  0  0  0  0  0  0  0
    5.5625   -1.4228   -0.2980 H   0  0  0  0  0  0  0  0  0  0  0  0
    4.4335   -0.8095   -1.5249 H   0  0  0  0  0  0  0  0  0  0  0  0
   -0.6773   -5.4231   -0.1757 H   0  0  0  0  0  0  0  0  0  0  0  0
   -1.4507   -4.1115   -1.1131 H   0  0  0  0  0  0  0  0  0  0  0  0
    0.8508   -3.9204   -1.6431 H   0  0  0  0  0  0  0  0  0  0  0  0
   -1.4751    1.5454    0.2079 H   0  0  0  0  0  0  0  0  0  0  0  0
   -2.9427   -5.3658    0.0175 H   0  0  0  0  0  0  0  0  0  0  0  0
    5.6417    2.2743    1.8647 H   0  0  0  0  0  0  0  0  0  0  0  0
    6.4492    0.3233   -1.9118 H   0  0  0  0  0  0  0  0  0  0  0  0
    7.7196    3.5731    1.6155 H   0  0  0  0  0  0  0  0  0  0  0  0
    8.5203    1.6118   -2.1229 H   0  0  0  0  0  0  0  0  0  0  0  0
   -3.4274    2.1706    0.3218 H   0  0  0  0  0  0  0  0  0  0  0  0
    9.1680    3.2449   -0.3717 H   0  0  0  0  0  0  0  0  0  0  0  0
   -5.4235    3.3672    0.6782 H   0  0  0  0  0  0  0  0  0  0  0  0
   -5.5207   -0.6423   -0.9607 H   0  0  0  0  0  0  0  0  0  0  0  0
   -7.9229   -0.5446   -1.0800 H   0  0  0  0  0  0  0  0  0  0  0  0
   -9.1508    1.4641   -0.3429 H   0  0  0  0  0  0  0  0  0  0  0  0
  1 30  1  0  0  0  0
  2 11  1  0  0  0  0
  2 13  1  0  0  0  0
  3 12  1  0  0  0  0
  3 49  1  0  0  0  0
  4 19  1  0  0  0  0
  4 51  1  0  0  0  0
  5 21  2  0  0  0  0
  6 10  1  0  0  0  0
  6 14  1  0  0  0  0
  6 15  1  0  0  0  0
  7 17  1  0  0  0  0
  7 18  1  0  0  0  0
  7 20  1  0  0  0  0
  8 16  1  0  0  0  0
  8 21  1  0  0  0  0
  8 50  1  0  0  0  0
  9 21  1  0  0  0  0
  9 27  1  0  0  0  0
  9 56  1  0  0  0  0
 10 11  1  0  0  0  0
 10 12  1  0  0  0  0
 10 33  1  0  0  0  0
 11 16  1  0  0  0  0
 11 34  1  0  0  0  0
 12 13  1  0  0  0  0
 12 35  1  0  0  0  0
 13 19  1  0  0  0  0
 13 36  1  0  0  0  0
 14 17  1  0  0  0  0
 14 37  1  0  0  0  0
 14 38  1  0  0  0  0
 15 18  1  0  0  0  0
 15 39  1  0  0  0  0
 15 40  1  0  0  0  0
 16 41  1  0  0  0  0
 16 42  1  0  0  0  0
 17 43  1  0  0  0  0
 17 44  1  0  0  0  0
 18 45  1  0  0  0  0
 18 46  1  0  0  0  0
 19 47  1  0  0  0  0
 19 48  1  0  0  0  0
 20 22  2  0  0  0  0
 20 23  1  0  0  0  0
 22 24  1  0  0  0  0
 22 52  1  0  0  0  0
 23 25  2  0  0  0  0
 23 53  1  0  0  0  0
 24 26  2  0  0  0  0
 24 54  1  0  0  0  0
 25 26  1  0  0  0  0
 25 55  1  0  0  0  0
 26 57  1  0  0  0  0
 27 28  2  0  0  0  0
 27 29  1  0  0  0  0
 28 30  1  0  0  0  0
 28 58  1  0  0  0  0
 29 31  2  0  0  0  0
 29 59  1  0  0  0  0
 30 32  2  0  0  0  0
 31 32  1  0  0  0  0
 31 60  1  0  0  0  0
 32 61  1  0  0  0  0
M  END
> <PUBCHEM_COMPOUND_CID>
28961385

> <PUBCHEM_CONFORMER_RMSD>
1

> <PUBCHEM_CONFORMER_DIVERSEORDER>
1
81
50
46
66
74
24
28
34
31
57
44
22
36
40
69
5
42
80
78
8
65
7
41
45
49
14
30
53
72
27
56
75
71
76
29
54
48
67
52
60
58
20
59
23
13
61
9
62
4
12
79
18
77
35
6
39
38
33
3
55
21
17
25
32
70
2
26
43
19
64
51
63
11
10
73
68
15
37
47
16

> <PUBCHEM_MMFF94_PARTIAL_CHARGES>
45
1 -0.18
10 0.27
11 0.28
12 0.28
13 0.28
14 0.27
15 0.27
16 0.3
17 0.37
18 0.37
19 0.28
2 -0.56
20 0.1
21 0.69
22 -0.15
23 -0.15
24 -0.15
25 -0.15
26 -0.15
27 0.12
28 -0.15
29 -0.15
3 -0.68
30 0.18
31 -0.15
32 -0.15
4 -0.68
49 0.4
5 -0.57
50 0.37
51 0.4
52 0.15
53 0.15
54 0.15
55 0.15
56 0.37
57 0.15
58 0.15
59 0.15
6 -0.81
60 0.15
61 0.15
7 -0.84
8 -0.73
9 -0.55

> <PUBCHEM_EFFECTIVE_ROTOR_COUNT>
10.2

> <PUBCHEM_PHARMACOPHORE_FEATURES>
14
1 2 acceptor
1 3 acceptor
1 3 donor
1 4 acceptor
1 4 donor
1 5 acceptor
1 6 cation
1 7 cation
1 8 donor
1 9 donor
5 2 10 11 12 13 rings
6 20 22 23 24 25 26 rings
6 27 28 29 30 31 32 rings
6 6 7 14 15 17 18 rings

> <PUBCHEM_HEAVY_ATOM_COUNT>
32

> <PUBCHEM_ATOM_DEF_STEREO_COUNT>
4

> <PUBCHEM_ATOM_UDEF_STEREO_COUNT>
0

> <PUBCHEM_BOND_DEF_STEREO_COUNT>
0

> <PUBCHEM_BOND_UDEF_STEREO_COUNT>
0

> <PUBCHEM_ISOTOPIC_ATOM_COUNT>
0

> <PUBCHEM_COMPONENT_COUNT>
1

> <PUBCHEM_CACTVS_TAUTO_COUNT>
3

> <PUBCHEM_CONFORMER_ID>
01B9EA6900000001

> <PUBCHEM_MMFF94_ENERGY>
98.6

> <PUBCHEM_FEATURE_SELFOVERLAP>
71.104

> <PUBCHEM_SHAPE_FINGERPRINT>
10 15 17749107794372010569
10050765 1 18409165541655569538
10165383 225 18335137596714762476
10190206 1 18266726056360176415
10369192 42 18408037412274890405
10838868 160 18340759369255293809
10904742 90 18410572881360959789
11135609 187 18342455937012864145
11297010 23 18130514063860206174
1200032 147 18259984864559419000
12013929 94 18410576232949596811
12522641 68 18273494589352320023
12539765 74 18201723903392518511
12677640 9 18193840573105538693
12760667 363 10879996873534820110
12925494 130 18268142253011635792
13248334 5 18121779417970828587
13540713 4 18338535104962362922
14040222 383 18338230574310115649
14068700 686 18117554033824619613
14294032 229 18186794816040951956
14394314 77 18411703150004864793
14565420 104 18187925032390251810
14931854 50 17775006773584574456
15064981 194 18191037896069423612
15183329 4 16917072143892016801
15198563 99 17698146697699078383
15347591 1 18409449232993628034
15439362 3 18339925905165668358
15685185 35 18410013277414383037
1577012 14 18342452617562442989
15803439 3 17060618914626761718
16114785 44 18188214320023952115
16126227 98 18409166632101599421
16992610 120 18334587854160154500
16994733 274 18335135380279795937
2026 5 9799698090563895197
20691028 202 18410011048336762988
21033648 29 17895203202979077594
21298829 104 18409450288732435684
21360443 126 18336546114164793180
21424621 283 18411700971848757873
21521721 280 18410013200373360755
21585482 111 18336825269913165469
21781055 127 18129940075482235482
23522609 53 17487341431479222257
23569914 152 17629782071672133542
23729398 52 18049446946305511946
24771293 8 18333450937330316829
25269216 80 17274527837502263541
32027 91 10015279365823485549
4073 2 18335424526901189619
4403749 210 18261112994013587611
4516262 110 18337946776558288893
45377200 153 16271349934100325479
5758199 1 18408885127123674533
5776283 40 18343016731330786873
5937810 71 17775012254548744561
59682541 52 16988568987996649020
6057620 51 18342451510088673577
6327066 14 18409449202205247790
6712543 237 14779547876770011713
9689198 14 18344149189272804005
9980921 177 18189318136278876128

> <PUBCHEM_SHAPE_MULTIPOLES>
617.01
26.06
5.23
0.99
6.72
4.92
-0.07
-39.31
-2.71
2.88
1.03
-0.71
-0.07
-0.63

> <PUBCHEM_SHAPE_SELFOVERLAP>
1301.021

> <PUBCHEM_SHAPE_VOLUME>
345

> <PUBCHEM_COORDINATE_TYPE>
2
5
10

$$$$
