45783352
  -OEChem-12032416263D

 56 59  0     1  0  0  0  0  0999 V2000
   -2.8100    2.2244   -0.6954 O   0  0  0  0  0  0  0  0  0  0  0  0
    1.0349   -2.5126   -0.5323 O   0  0  0  0  0  0  0  0  0  0  0  0
    3.7035    0.4546    0.8827 O   0  0  0  0  0  0  0  0  0  0  0  0
    5.4562   -1.6647    1.3012 O   0  0  0  0  0  0  0  0  0  0  0  0
   -3.5812   -0.8001    1.2443 N   0  0  1  0  0  0  0  0  0  0  0  0
   -1.3278    0.9825    0.4349 N   0  0  0  0  0  0  0  0  0  0  0  0
   -1.5436    2.6590   -1.1069 N   0  0  0  0  0  0  0  0  0  0  0  0
    3.4884    2.1540   -0.6824 N   0  0  0  0  0  0  0  0  0  0  0  0
   -3.8225    0.5923    0.8159 C   0  0  1  0  0  0  0  0  0  0  0  0
   -4.3091    1.3137    2.0862 C   0  0  0  0  0  0  0  0  0  0  0  0
   -4.3675    0.2351    3.1586 C   0  0  0  0  0  0  0  0  0  0  0  0
   -4.4875   -1.0505    2.3653 C   0  0  0  0  0  0  0  0  0  0  0  0
   -3.7560   -1.7699    0.1709 C   0  0  0  0  0  0  0  0  0  0  0  0
   -2.5924    1.2370    0.2123 C   0  0  0  0  0  0  0  0  0  0  0  0
   -2.5535   -1.8284   -0.7332 C   0  0  0  0  0  0  0  0  0  0  0  0
   -1.3013   -2.1480   -0.2082 C   0  0  0  0  0  0  0  0  0  0  0  0
   -2.6912   -1.5622   -2.0956 C   0  0  0  0  0  0  0  0  0  0  0  0
   -0.7227    1.8795   -0.3967 C   0  0  0  0  0  0  0  0  0  0  0  0
   -0.1869   -2.2017   -1.0454 C   0  0  0  0  0  0  0  0  0  0  0  0
   -1.5768   -1.6155   -2.9327 C   0  0  0  0  0  0  0  0  0  0  0  0
    0.7054    1.9725   -0.4934 C   0  0  0  0  0  0  0  0  0  0  0  0
   -0.3245   -1.9354   -2.4078 C   0  0  0  0  0  0  0  0  0  0  0  0
    1.5129    1.1370    0.2704 C   0  0  0  0  0  0  0  0  0  0  0  0
    1.2878    2.8986   -1.3516 C   0  0  0  0  0  0  0  0  0  0  0  0
    2.8864    1.2665    0.1407 C   0  0  0  0  0  0  0  0  0  0  0  0
    2.6713    2.9491   -1.4091 C   0  0  0  0  0  0  0  0  0  0  0  0
    2.1318   -2.5487   -1.4442 C   0  0  0  0  0  0  0  0  0  0  0  0
    5.1051    0.6287    0.7114 C   0  0  0  0  0  0  0  0  0  0  0  0
    5.8388   -0.3336    1.6255 C   0  0  0  0  0  0  0  0  0  0  0  0
    6.1321   -2.6135    2.1146 C   0  0  0  0  0  0  0  0  0  0  0  0
   -4.6351    0.6368    0.0770 H   0  0  0  0  0  0  0  0  0  0  0  0
   -3.6630    2.1404    2.4007 H   0  0  0  0  0  0  0  0  0  0  0  0
   -5.3148    1.7181    1.9180 H   0  0  0  0  0  0  0  0  0  0  0  0
   -5.2036    0.3823    3.8484 H   0  0  0  0  0  0  0  0  0  0  0  0
   -3.4386    0.2393    3.7423 H   0  0  0  0  0  0  0  0  0  0  0  0
   -5.5219   -1.1945    2.0283 H   0  0  0  0  0  0  0  0  0  0  0  0
   -4.1812   -1.9183    2.9574 H   0  0  0  0  0  0  0  0  0  0  0  0
   -3.8663   -2.7785    0.5939 H   0  0  0  0  0  0  0  0  0  0  0  0
   -4.6782   -1.5871   -0.3962 H   0  0  0  0  0  0  0  0  0  0  0  0
   -1.1848   -2.3613    0.8517 H   0  0  0  0  0  0  0  0  0  0  0  0
   -3.6600   -1.3095   -2.5179 H   0  0  0  0  0  0  0  0  0  0  0  0
   -1.6848   -1.4066   -3.9931 H   0  0  0  0  0  0  0  0  0  0  0  0
    0.4985   -1.9584   -3.1138 H   0  0  0  0  0  0  0  0  0  0  0  0
    1.1030    0.3993    0.9534 H   0  0  0  0  0  0  0  0  0  0  0  0
    0.7093    3.5756   -1.9715 H   0  0  0  0  0  0  0  0  0  0  0  0
    3.1751    3.6536   -2.0627 H   0  0  0  0  0  0  0  0  0  0  0  0
    2.0016   -3.3310   -2.1995 H   0  0  0  0  0  0  0  0  0  0  0  0
    2.3158   -1.5659   -1.8915 H   0  0  0  0  0  0  0  0  0  0  0  0
    3.0246   -2.8071   -0.8652 H   0  0  0  0  0  0  0  0  0  0  0  0
    5.3710    0.4070   -0.3296 H   0  0  0  0  0  0  0  0  0  0  0  0
    5.3977    1.6555    0.9609 H   0  0  0  0  0  0  0  0  0  0  0  0
    6.9209   -0.2141    1.5031 H   0  0  0  0  0  0  0  0  0  0  0  0
    5.5671   -0.1335    2.6685 H   0  0  0  0  0  0  0  0  0  0  0  0
    5.7996   -3.6139    1.8248 H   0  0  0  0  0  0  0  0  0  0  0  0
    5.8888   -2.4570    3.1699 H   0  0  0  0  0  0  0  0  0  0  0  0
    7.2138   -2.5477    1.9628 H   0  0  0  0  0  0  0  0  0  0  0  0
  1  7  1  0  0  0  0
  1 14  1  0  0  0  0
  2 19  1  0  0  0  0
  2 27  1  0  0  0  0
  3 25  1  0  0  0  0
  3 28  1  0  0  0  0
  4 29  1  0  0  0  0
  4 30  1  0  0  0  0
  5  9  1  0  0  0  0
  5 12  1  0  0  0  0
  5 13  1  0  0  0  0
  6 14  2  0  0  0  0
  6 18  1  0  0  0  0
  7 18  2  0  0  0  0
  8 25  2  0  0  0  0
  8 26  1  0  0  0  0
  9 10  1  0  0  0  0
  9 14  1  0  0  0  0
  9 31  1  0  0  0  0
 10 11  1  0  0  0  0
 10 32  1  0  0  0  0
 10 33  1  0  0  0  0
 11 12  1  0  0  0  0
 11 34  1  0  0  0  0
 11 35  1  0  0  0  0
 12 36  1  0  0  0  0
 12 37  1  0  0  0  0
 13 15  1  0  0  0  0
 13 38  1  0  0  0  0
 13 39  1  0  0  0  0
 15 16  2  0  0  0  0
 15 17  1  0  0  0  0
 16 19  1  0  0  0  0
 16 40  1  0  0  0  0
 17 20  2  0  0  0  0
 17 41  1  0  0  0  0
 18 21  1  0  0  0  0
 19 22  2  0  0  0  0
 20 22  1  0  0  0  0
 20 42  1  0  0  0  0
 21 23  2  0  0  0  0
 21 24  1  0  0  0  0
 22 43  1  0  0  0  0
 23 25  1  0  0  0  0
 23 44  1  0  0  0  0
 24 26  2  0  0  0  0
 24 45  1  0  0  0  0
 26 46  1  0  0  0  0
 27 47  1  0  0  0  0
 27 48  1  0  0  0  0
 27 49  1  0  0  0  0
 28 29  1  0  0  0  0
 28 50  1  0  0  0  0
 28 51  1  0  0  0  0
 29 52  1  0  0  0  0
 29 53  1  0  0  0  0
 30 54  1  0  0  0  0
 30 55  1  0  0  0  0
 30 56  1  0  0  0  0
M  END
> <PUBCHEM_COMPOUND_CID>
45783352

> <PUBCHEM_CONFORMER_RMSD>
1

> <PUBCHEM_CONFORMER_DIVERSEORDER>
1
146
140
33
76
80
59
163
54
137
89
48
155
58
158
153
138
61
106
135
87
97
41
126
154
62
44
129
22
151
148
115
134
104
34
38
55
64
142
100
24
43
5
130
30
25
157
26
123
109
124
77
111
46
103
51
17
166
122
23
119
120
75
95
47
131
91
67
84
147
143
78
127
20
63
81
85
162
9
79
114
96
29
164
45
160
170
31
12
161
117
83
92
86
118
56
141
167
156
36
66
49
60
125
149
98
40
90
72
116
88
132
112
68
32
3
57
105
121
165
21
2
4
70
93
35
108
73
136
113
133
159
69
19
65
128
7
169
71
101
99
110
27
42
152
82
37
139
14
50
6
144
39
13
52
28
10
15
74
53
168
8
94
145
102
11
150
18
107
16

> <PUBCHEM_MMFF94_PARTIAL_CHARGES>
35
1 -0.02
12 0.27
13 0.41
14 0.3
15 -0.14
16 -0.15
17 -0.15
18 0.46
19 0.08
2 -0.36
20 -0.15
21 0.05
22 -0.15
23 -0.15
24 -0.15
25 0.39
26 0.16
27 0.28
28 0.28
29 0.28
3 -0.36
30 0.28
4 -0.56
40 0.15
41 0.15
42 0.15
43 0.15
44 0.15
45 0.15
46 0.15
5 -0.81
6 -0.57
7 -0.41
8 -0.62
9 0.45

> <PUBCHEM_EFFECTIVE_ROTOR_COUNT>
10

> <PUBCHEM_PHARMACOPHORE_FEATURES>
8
1 2 acceptor
1 4 acceptor
1 5 cation
3 6 7 18 cation
5 1 6 7 14 18 rings
5 5 9 10 11 12 rings
6 15 16 17 19 20 22 rings
6 8 21 23 24 25 26 rings

> <PUBCHEM_HEAVY_ATOM_COUNT>
30

> <PUBCHEM_ATOM_DEF_STEREO_COUNT>
1

> <PUBCHEM_ATOM_UDEF_STEREO_COUNT>
0

> <PUBCHEM_BOND_DEF_STEREO_COUNT>
0

> <PUBCHEM_BOND_UDEF_STEREO_COUNT>
0

> <PUBCHEM_ISOTOPIC_ATOM_COUNT>
0

> <PUBCHEM_COMPONENT_COUNT>
1

> <PUBCHEM_CACTVS_TAUTO_COUNT>
1

> <PUBCHEM_CONFORMER_ID>
02BA993800000001

> <PUBCHEM_MMFF94_ENERGY>
75.5714

> <PUBCHEM_FEATURE_SELFOVERLAP>
40.598

> <PUBCHEM_SHAPE_FINGERPRINT>
11135926 11 17896598582842094268
12422481 6 18270964544661744482
12633257 1 18188218709395495403
12788726 201 17123971877434921821
13004483 165 16196482116715910655
14068700 675 17273113925451527757
15219462 58 16445633529849697101
16110190 28 18410854374361441664
19319366 153 16822218693255781701
20554085 129 17203053985185748353
20691752 17 18191332518289037671
21796203 349 18192176926029218888
23559900 14 16628591126666524900
3411729 13 17840065976860346065
392239 28 18260559952012051107
581034 39 17703502277135377382
6287921 2 17271754701383266663
7064713 232 18060427927449157696
9862522 239 18272657857182887365

> <PUBCHEM_SHAPE_MULTIPOLES>
573.98
11.12
3.86
2.74
12.88
0
-0.64
2.66
-11.31
1.73
1.92
-1.5
1.06
-2.99

> <PUBCHEM_SHAPE_SELFOVERLAP>
1227.858

> <PUBCHEM_SHAPE_VOLUME>
319.8

> <PUBCHEM_COORDINATE_TYPE>
2
5
10

$$$$
