11912771
  -OEChem-12032416343D

 62 67  0     1  0  0  0  0  0999 V2000
    1.0668   -1.2789    1.2965 O   0  0  0  0  0  0  0  0  0  0  0  0
   -0.7720    1.1590    0.9993 O   0  0  0  0  0  0  0  0  0  0  0  0
    2.7374    0.7506    0.4069 O   0  0  0  0  0  0  0  0  0  0  0  0
    3.2571    0.5163   -1.8077 O   0  0  0  0  0  0  0  0  0  0  0  0
   -6.3371    3.1474   -0.8478 O   0  0  0  0  0  0  0  0  0  0  0  0
   -8.4256    2.8142    0.3076 O   0  0  0  0  0  0  0  0  0  0  0  0
    8.5408   -0.1631    1.6960 O   0  0  0  0  0  0  0  0  0  0  0  0
    6.6537    1.1367    1.9149 O   0  0  0  0  0  0  0  0  0  0  0  0
   -1.7587   -2.3414    0.5523 N   0  0  0  0  0  0  0  0  0  0  0  0
   -3.8547   -1.4126    0.1822 N   0  0  0  0  0  0  0  0  0  0  0  0
   -3.2879   -3.5966   -0.6638 N   0  0  0  0  0  0  0  0  0  0  0  0
    4.9131    0.5526   -0.1535 N   0  0  0  0  0  0  0  0  0  0  0  0
   -0.7786   -0.1296    0.3495 C   0  0  1  0  0  0  0  0  0  0  0  0
    0.6702   -0.5231    0.1406 C   0  0  1  0  0  0  0  0  0  0  0  0
   -1.3106   -1.1821    1.2937 C   0  0  2  0  0  0  0  0  0  0  0  0
    1.3674    0.8148    0.0812 C   0  0  1  0  0  0  0  0  0  0  0  0
   -0.0833   -1.5268    2.1195 C   0  0  0  0  0  0  0  0  0  0  0  0
    0.5814    1.6285    1.0844 C   0  0  0  0  0  0  0  0  0  0  0  0
   -3.0221   -2.4551   -0.0006 C   0  0  0  0  0  0  0  0  0  0  0  0
    3.6213    0.5961   -0.6410 C   0  0  0  0  0  0  0  0  0  0  0  0
   -5.0774   -1.5571   -0.3694 C   0  0  0  0  0  0  0  0  0  0  0  0
   -4.5281   -3.6741   -1.1895 C   0  0  0  0  0  0  0  0  0  0  0  0
   -5.4738   -2.6760   -1.0732 C   0  0  0  0  0  0  0  0  0  0  0  0
    6.1144    0.4055   -0.8837 C   0  0  0  0  0  0  0  0  0  0  0  0
   -5.9725   -0.4414   -0.1765 C   0  0  0  0  0  0  0  0  0  0  0  0
    7.3501    0.3818   -0.2368 C   0  0  0  0  0  0  0  0  0  0  0  0
   -5.6211    0.8211   -0.6605 C   0  0  0  0  0  0  0  0  0  0  0  0
    6.0515    0.2845   -2.2719 C   0  0  0  0  0  0  0  0  0  0  0  0
   -7.1910   -0.6356    0.4977 C   0  0  0  0  0  0  0  0  0  0  0  0
   -6.5086    1.8567   -0.4516 C   0  0  0  0  0  0  0  0  0  0  0  0
   -7.7012    1.6665    0.2081 C   0  0  0  0  0  0  0  0  0  0  0  0
   -8.0720    0.4303    0.6956 C   0  0  0  0  0  0  0  0  0  0  0  0
    8.5226    0.2369   -0.9784 C   0  0  0  0  0  0  0  0  0  0  0  0
    7.2241    0.1396   -3.0134 C   0  0  0  0  0  0  0  0  0  0  0  0
    7.4518    0.5064    1.2120 C   0  0  0  0  0  0  0  0  0  0  0  0
    8.4596    0.1158   -2.3666 C   0  0  0  0  0  0  0  0  0  0  0  0
   -7.5558    3.7481   -0.3638 C   0  0  0  0  0  0  0  0  0  0  0  0
    8.7490   -0.1162    3.1117 C   0  0  0  0  0  0  0  0  0  0  0  0
   -1.3335   -0.0217   -0.5878 H   0  0  0  0  0  0  0  0  0  0  0  0
    0.8418   -1.1482   -0.7404 H   0  0  0  0  0  0  0  0  0  0  0  0
   -2.0994   -0.8178    1.9619 H   0  0  0  0  0  0  0  0  0  0  0  0
    1.2028    1.2684   -0.9060 H   0  0  0  0  0  0  0  0  0  0  0  0
   -0.0022   -0.8687    2.9919 H   0  0  0  0  0  0  0  0  0  0  0  0
   -0.0603   -2.5632    2.4703 H   0  0  0  0  0  0  0  0  0  0  0  0
    0.9416    1.4862    2.1094 H   0  0  0  0  0  0  0  0  0  0  0  0
    0.6126    2.7004    0.8671 H   0  0  0  0  0  0  0  0  0  0  0  0
   -1.1101   -3.0997    0.3740 H   0  0  0  0  0  0  0  0  0  0  0  0
    5.0031    0.6350    0.8551 H   0  0  0  0  0  0  0  0  0  0  0  0
   -4.7474   -4.5910   -1.7261 H   0  0  0  0  0  0  0  0  0  0  0  0
   -6.4561   -2.7811   -1.5169 H   0  0  0  0  0  0  0  0  0  0  0  0
   -4.6869    0.9939   -1.1857 H   0  0  0  0  0  0  0  0  0  0  0  0
    5.1376    0.2933   -2.8482 H   0  0  0  0  0  0  0  0  0  0  0  0
   -7.4653   -1.6162    0.8812 H   0  0  0  0  0  0  0  0  0  0  0  0
   -9.0117    0.2851    1.2163 H   0  0  0  0  0  0  0  0  0  0  0  0
    9.5026    0.2294   -0.5083 H   0  0  0  0  0  0  0  0  0  0  0  0
    7.1767    0.0460   -4.0945 H   0  0  0  0  0  0  0  0  0  0  0  0
    9.3726    0.0064   -2.9445 H   0  0  0  0  0  0  0  0  0  0  0  0
   -7.2972    4.5518    0.3351 H   0  0  0  0  0  0  0  0  0  0  0  0
   -8.0952    4.1812   -1.2141 H   0  0  0  0  0  0  0  0  0  0  0  0
    8.8996    0.9176    3.4364 H   0  0  0  0  0  0  0  0  0  0  0  0
    7.8983   -0.5651    3.6329 H   0  0  0  0  0  0  0  0  0  0  0  0
    9.6484   -0.6929    3.3429 H   0  0  0  0  0  0  0  0  0  0  0  0
  1 14  1  0  0  0  0
  1 17  1  0  0  0  0
  2 13  1  0  0  0  0
  2 18  1  0  0  0  0
  3 16  1  0  0  0  0
  3 20  1  0  0  0  0
  4 20  2  0  0  0  0
  5 30  1  0  0  0  0
  5 37  1  0  0  0  0
  6 31  1  0  0  0  0
  6 37  1  0  0  0  0
  7 35  1  0  0  0  0
  7 38  1  0  0  0  0
  8 35  2  0  0  0  0
  9 15  1  0  0  0  0
  9 19  1  0  0  0  0
  9 47  1  0  0  0  0
 10 19  1  0  0  0  0
 10 21  2  0  0  0  0
 11 19  2  0  0  0  0
 11 22  1  0  0  0  0
 12 20  1  0  0  0  0
 12 24  1  0  0  0  0
 12 48  1  0  0  0  0
 13 14  1  0  0  0  0
 13 15  1  0  0  0  0
 13 39  1  0  0  0  0
 14 16  1  0  0  0  0
 14 40  1  0  0  0  0
 15 17  1  0  0  0  0
 15 41  1  0  0  0  0
 16 18  1  0  0  0  0
 16 42  1  0  0  0  0
 17 43  1  0  0  0  0
 17 44  1  0  0  0  0
 18 45  1  0  0  0  0
 18 46  1  0  0  0  0
 21 23  1  0  0  0  0
 21 25  1  0  0  0  0
 22 23  2  0  0  0  0
 22 49  1  0  0  0  0
 23 50  1  0  0  0  0
 24 26  1  0  0  0  0
 24 28  2  0  0  0  0
 25 27  2  0  0  0  0
 25 29  1  0  0  0  0
 26 33  2  0  0  0  0
 26 35  1  0  0  0  0
 27 30  1  0  0  0  0
 27 51  1  0  0  0  0
 28 34  1  0  0  0  0
 28 52  1  0  0  0  0
 29 32  2  0  0  0  0
 29 53  1  0  0  0  0
 30 31  2  0  0  0  0
 31 32  1  0  0  0  0
 32 54  1  0  0  0  0
 33 36  1  0  0  0  0
 33 55  1  0  0  0  0
 34 36  2  0  0  0  0
 34 56  1  0  0  0  0
 36 57  1  0  0  0  0
 37 58  1  0  0  0  0
 37 59  1  0  0  0  0
 38 60  1  0  0  0  0
 38 61  1  0  0  0  0
 38 62  1  0  0  0  0
M  END
> <PUBCHEM_COMPOUND_CID>
11912771

> <PUBCHEM_CONFORMER_RMSD>
1.2

> <PUBCHEM_CONFORMER_DIVERSEORDER>
1
40
105
43
86
47
103
20
91
81
50
68
53
16
73
79
131
74
108
31
7
25
17
94
59
89
77
121
58
110
134
87
56
122
36
102
126
57
83
15
120
46
12
93
54
70
44
38
63
111
45
8
24
34
123
52
119
132
85
76
41
98
6
71
23
55
106
75
21
5
39
13
129
130
19
133
78
99
49
100
65
51
97
80
92
112
69
104
115
3
127
11
14
118
22
37
62
90
125
48
30
10
28
72
96
82
18
95
88
128
113
124
101
42
60
67
107
4
116
64
117
114
33
109
2
32
29
66
26
135
35
61
9
27
84

> <PUBCHEM_MMFF94_PARTIAL_CHARGES>
48
1 -0.56
10 -0.62
11 -0.62
12 -0.55
13 0.28
14 0.28
15 0.37
16 0.28
17 0.28
18 0.28
19 0.72
2 -0.56
20 0.78
21 0.31
22 0.16
23 -0.15
24 0.12
26 0.09
27 -0.15
28 -0.15
29 -0.15
3 -0.43
30 0.08
31 0.08
32 -0.15
33 -0.15
34 -0.15
35 0.63
36 -0.15
37 0.56
38 0.28
4 -0.57
47 0.4
48 0.37
49 0.15
5 -0.36
50 0.15
51 0.15
52 0.15
53 0.15
54 0.15
55 0.15
56 0.15
57 0.15
6 -0.36
7 -0.43
8 -0.57
9 -0.87

> <PUBCHEM_EFFECTIVE_ROTOR_COUNT>
10.8

> <PUBCHEM_PHARMACOPHORE_FEATURES>
16
1 1 acceptor
1 10 acceptor
1 12 donor
1 2 acceptor
1 4 acceptor
1 5 acceptor
1 6 acceptor
1 8 acceptor
1 9 donor
4 9 10 11 19 cation
5 1 13 14 15 17 rings
5 2 13 14 16 18 rings
5 5 6 30 31 37 rings
6 10 11 19 21 22 23 rings
6 24 26 28 33 34 36 rings
6 25 27 29 30 31 32 rings

> <PUBCHEM_HEAVY_ATOM_COUNT>
38

> <PUBCHEM_ATOM_DEF_STEREO_COUNT>
4

> <PUBCHEM_ATOM_UDEF_STEREO_COUNT>
0

> <PUBCHEM_BOND_DEF_STEREO_COUNT>
0

> <PUBCHEM_BOND_UDEF_STEREO_COUNT>
0

> <PUBCHEM_ISOTOPIC_ATOM_COUNT>
0

> <PUBCHEM_COMPONENT_COUNT>
1

> <PUBCHEM_CACTVS_TAUTO_COUNT>
9

> <PUBCHEM_CONFORMER_ID>
00B5C64300000001

> <PUBCHEM_MMFF94_ENERGY>
127.8156

> <PUBCHEM_FEATURE_SELFOVERLAP>
82.074

> <PUBCHEM_SHAPE_FINGERPRINT>
10165383 225 18272939307186113219
10190206 1 18129676205392140145
10391435 84 17418091048622728870
10670039 82 18410569614035351879
10674148 151 18334579062024482216
11103572 95 18343294839538764978
11135926 11 18188195542595114663
11181472 205 18040442084102661220
11200772 48 18411144653694418523
12082328 90 17967820491475081707
12120059 9 17275096241774526126
12144603 126 17895197740614029468
12539745 222 16154291527897115033
12539747 91 17131827664872365480
12559415 135 18408884062166964036
12655387 17 18262499430794897592
12758862 11 17775286071196865337
12857493 111 17704071806741671064
13811026 1 17632580478793025414
13914758 101 18408041836201883514
14294032 229 18041842800827758493
14856354 85 17095811027074783107
150020 25 17775570836350749812
15183329 4 17168136893069764438
15419008 91 17845924230262778008
15444296 121 18041287655636086509
1577012 14 17676490575138561454
16992727 255 18408611348723155253
21133410 127 17828205394809112477
21223535 225 18411974780625239797
23389318 12 13182734862339072584
4149490 64 11098120199085680948
4173938 306 17847057783695918150
44802255 64 18272374162183261151
44880568 143 18341896354625201260
4516262 110 17822284653452145503
508180 173 18340772632314193009
5911458 16 17822018605370143389
5969126 39 15051742953909203499
6009941 240 18060143154306972079
6698420 124 17241053196639725576
6703917 75 17603881034980616603
9831232 110 18060429040826921606

> <PUBCHEM_SHAPE_MULTIPOLES>
715.14
32.83
3.22
2.17
26.31
0.62
-0.1
-15.12
3.32
-11.9
0.74
7.65
0.21
-0.55

> <PUBCHEM_SHAPE_SELFOVERLAP>
1587.83

> <PUBCHEM_SHAPE_VOLUME>
380.7

> <PUBCHEM_COORDINATE_TYPE>
2
5
10

$$$$
