75536698
  -OEChem-12032416303D

 50 52  0     1  0  0  0  0  0999 V2000
    3.1947    1.9762   -0.0396 S   0  0  0  0  0  0  0  0  0  0  0  0
   -1.0436    0.8701   -1.3363 O   0  0  0  0  0  0  0  0  0  0  0  0
   -1.7559    0.5087    2.1662 O   0  0  0  0  0  0  0  0  0  0  0  0
    3.1283    2.4654    1.3243 O   0  0  0  0  0  0  0  0  0  0  0  0
    3.8544    2.7617   -1.0649 O   0  0  0  0  0  0  0  0  0  0  0  0
   -3.8330   -0.8521    0.2400 N   0  0  0  0  0  0  0  0  0  0  0  0
    1.6292    1.5753   -0.5712 N   0  0  0  0  0  0  0  0  0  0  0  0
   -5.1460   -0.5077   -0.2750 C   0  0  0  0  0  0  0  0  0  0  0  0
   -2.8849    0.2279    0.0199 C   0  0  1  0  0  0  0  0  0  0  0  0
   -1.6056    0.0885    0.8241 C   0  0  1  0  0  0  0  0  0  0  0  0
   -5.9811    0.2861    0.7226 C   0  0  0  0  0  0  0  0  0  0  0  0
   -6.0186   -1.7308   -0.5301 C   0  0  0  0  0  0  0  0  0  0  0  0
   -0.6685    1.0014    0.0450 C   0  0  1  0  0  0  0  0  0  0  0  0
   -7.4056    0.1452    0.1929 C   0  0  0  0  0  0  0  0  0  0  0  0
   -7.4296   -1.1549   -0.6157 C   0  0  0  0  0  0  0  0  0  0  0  0
   -2.3450    0.2608   -1.4006 C   0  0  0  0  0  0  0  0  0  0  0  0
    0.7972    0.6435    0.2151 C   0  0  0  0  0  0  0  0  0  0  0  0
    3.9839    0.3947   -0.0133 C   0  0  0  0  0  0  0  0  0  0  0  0
    4.6444   -0.0736   -1.1491 C   0  0  0  0  0  0  0  0  0  0  0  0
    3.9436   -0.3860    1.1419 C   0  0  0  0  0  0  0  0  0  0  0  0
    5.2648   -1.3226   -1.1296 C   0  0  0  0  0  0  0  0  0  0  0  0
    4.5639   -1.6352    1.1613 C   0  0  0  0  0  0  0  0  0  0  0  0
    5.2248   -2.1035    0.0256 C   0  0  0  0  0  0  0  0  0  0  0  0
    5.8881   -3.4391    0.0463 C   0  0  0  0  0  0  0  0  0  0  0  0
   -5.0734    0.0462   -1.2209 H   0  0  0  0  0  0  0  0  0  0  0  0
   -3.3378    1.1958    0.2753 H   0  0  0  0  0  0  0  0  0  0  0  0
   -1.2452   -0.9478    0.8163 H   0  0  0  0  0  0  0  0  0  0  0  0
   -5.9241   -0.1507    1.7280 H   0  0  0  0  0  0  0  0  0  0  0  0
   -5.6779    1.3350    0.7963 H   0  0  0  0  0  0  0  0  0  0  0  0
   -5.9624   -2.4373    0.3082 H   0  0  0  0  0  0  0  0  0  0  0  0
   -5.7360   -2.2688   -1.4405 H   0  0  0  0  0  0  0  0  0  0  0  0
   -3.8920   -1.0713    1.2337 H   0  0  0  0  0  0  0  0  0  0  0  0
   -0.8217    2.0515    0.3274 H   0  0  0  0  0  0  0  0  0  0  0  0
   -7.6566    0.9908   -0.4579 H   0  0  0  0  0  0  0  0  0  0  0  0
   -8.1348    0.1308    1.0091 H   0  0  0  0  0  0  0  0  0  0  0  0
   -8.1722   -1.8609   -0.2304 H   0  0  0  0  0  0  0  0  0  0  0  0
   -7.6911   -0.9384   -1.6580 H   0  0  0  0  0  0  0  0  0  0  0  0
   -2.2106   -0.7435   -1.8186 H   0  0  0  0  0  0  0  0  0  0  0  0
   -2.9782    0.8360   -2.0827 H   0  0  0  0  0  0  0  0  0  0  0  0
    0.9868   -0.3687   -0.1592 H   0  0  0  0  0  0  0  0  0  0  0  0
    1.0642    0.6896    1.2752 H   0  0  0  0  0  0  0  0  0  0  0  0
   -2.0777    1.4261    2.1652 H   0  0  0  0  0  0  0  0  0  0  0  0
    1.4317    1.6076   -1.5793 H   0  0  0  0  0  0  0  0  0  0  0  0
    4.6818    0.5143   -2.0617 H   0  0  0  0  0  0  0  0  0  0  0  0
    3.4328   -0.0422    2.0368 H   0  0  0  0  0  0  0  0  0  0  0  0
    5.7765   -1.6767   -2.0207 H   0  0  0  0  0  0  0  0  0  0  0  0
    4.5266   -2.2339    2.0676 H   0  0  0  0  0  0  0  0  0  0  0  0
    6.9263   -3.3377    0.3775 H   0  0  0  0  0  0  0  0  0  0  0  0
    5.3695   -4.1274    0.7223 H   0  0  0  0  0  0  0  0  0  0  0  0
    5.8800   -3.8998   -0.9474 H   0  0  0  0  0  0  0  0  0  0  0  0
  1  4  2  0  0  0  0
  1  5  2  0  0  0  0
  1  7  1  0  0  0  0
  1 18  1  0  0  0  0
  2 13  1  0  0  0  0
  2 16  1  0  0  0  0
  3 10  1  0  0  0  0
  3 42  1  0  0  0  0
  6  8  1  0  0  0  0
  6  9  1  0  0  0  0
  6 32  1  0  0  0  0
  7 17  1  0  0  0  0
  7 43  1  0  0  0  0
  8 11  1  0  0  0  0
  8 12  1  0  0  0  0
  8 25  1  0  0  0  0
  9 10  1  0  0  0  0
  9 16  1  0  0  0  0
  9 26  1  0  0  0  0
 10 13  1  0  0  0  0
 10 27  1  0  0  0  0
 11 14  1  0  0  0  0
 11 28  1  0  0  0  0
 11 29  1  0  0  0  0
 12 15  1  0  0  0  0
 12 30  1  0  0  0  0
 12 31  1  0  0  0  0
 13 17  1  0  0  0  0
 13 33  1  0  0  0  0
 14 15  1  0  0  0  0
 14 34  1  0  0  0  0
 14 35  1  0  0  0  0
 15 36  1  0  0  0  0
 15 37  1  0  0  0  0
 16 38  1  0  0  0  0
 16 39  1  0  0  0  0
 17 40  1  0  0  0  0
 17 41  1  0  0  0  0
 18 19  2  0  0  0  0
 18 20  1  0  0  0  0
 19 21  1  0  0  0  0
 19 44  1  0  0  0  0
 20 22  2  0  0  0  0
 20 45  1  0  0  0  0
 21 23  2  0  0  0  0
 21 46  1  0  0  0  0
 22 23  1  0  0  0  0
 22 47  1  0  0  0  0
 23 24  1  0  0  0  0
 24 48  1  0  0  0  0
 24 49  1  0  0  0  0
 24 50  1  0  0  0  0
M  END
> <PUBCHEM_COMPOUND_CID>
75536698

> <PUBCHEM_CONFORMER_RMSD>
0.8

> <PUBCHEM_CONFORMER_DIVERSEORDER>
1
110
147
80
265
263
84
175
251
145
203
243
149
104
182
40
81
64
25
171
227
62
173
229
172
101
219
139
255
214
96
206
199
266
6
224
82
166
9
60
192
209
109
32
205
239
133
258
184
92
247
160
157
111
144
220
200
93
50
124
26
168
259
241
138
169
260
48
125
236
238
63
33
83
186
5
87
95
34
179
28
120
51
70
262
204
244
107
208
268
202
213
76
29
152
135
232
163
143
215
42
114
57
4
126
159
54
221
122
31
228
253
256
35
2
68
211
131
15
47
191
261
153
142
201
20
99
167
146
183
71
154
180
30
55
46
240
226
115
207
254
148
89
196
72
103
250
235
216
21
137
246
223
58
22
134
218
217
230
119
164
17
8
242
156
178
18
245
24
197
36
88
90
108
94
49
66
252
222
150
248
128
65
267
264
102
195
91
43
27
23
130
231
176
189
237
53
212
79
190
13
165
69
77
45
181
257
162
118
75
198
10
158
170
39
11
67
127
161
136
117
140
56
234
151
14
52
37
233
112
174
105
185
44
249
61
141
12
194
129
100
132
187
106
121
78
7
97
188
74
38
85
177
86
116
155
98
41
59
123
210
3
19
193
16
225
113
73

> <PUBCHEM_MMFF94_PARTIAL_CHARGES>
27
1 1.45
10 0.28
13 0.28
16 0.28
17 0.36
18 -0.01
19 -0.15
2 -0.56
20 -0.15
21 -0.15
22 -0.15
23 -0.14
24 0.14
3 -0.68
32 0.36
4 -0.65
42 0.4
43 0.42
44 0.15
45 0.15
46 0.15
47 0.15
5 -0.65
6 -0.9
7 -0.91
8 0.27
9 0.27

> <PUBCHEM_EFFECTIVE_ROTOR_COUNT>
8

> <PUBCHEM_PHARMACOPHORE_FEATURES>
11
1 2 acceptor
1 3 acceptor
1 3 donor
1 4 acceptor
1 5 acceptor
1 6 cation
1 6 donor
1 7 donor
5 2 9 10 13 16 rings
5 8 11 12 14 15 rings
6 18 19 20 21 22 23 rings

> <PUBCHEM_HEAVY_ATOM_COUNT>
24

> <PUBCHEM_ATOM_DEF_STEREO_COUNT>
3

> <PUBCHEM_ATOM_UDEF_STEREO_COUNT>
0

> <PUBCHEM_BOND_DEF_STEREO_COUNT>
0

> <PUBCHEM_BOND_UDEF_STEREO_COUNT>
0

> <PUBCHEM_ISOTOPIC_ATOM_COUNT>
0

> <PUBCHEM_COMPONENT_COUNT>
1

> <PUBCHEM_CACTVS_TAUTO_COUNT>
1

> <PUBCHEM_CONFORMER_ID>
0480993A00000001

> <PUBCHEM_MMFF94_ENERGY>
35.0156

> <PUBCHEM_FEATURE_SELFOVERLAP>
55.84

> <PUBCHEM_SHAPE_FINGERPRINT>
10 15 15410887479087182379
10670039 82 14779540137323086654
10906281 52 13118555192295404221
11719270 70 17489873735058246639
12166972 35 18343302548371337608
12236239 1 18202567298063144689
125118 31 9799425420876250431
12616971 3 17703500065063111677
13533116 47 18412825810877592616
1361 4 18266739271948204335
13617811 41 15574710305231889151
13685833 64 18410290290220090930
13782708 43 18412541046615400623
13914758 101 18342460301659706561
13955234 65 18268989955212765584
14211702 104 18263930015602544435
14251764 75 10230882583982612546
14347332 77 18261669281829108885
14347424 109 18130784568372357209
15183329 4 18334858320892870747
15188451 53 17774719775279615482
15419008 42 17700416875962120397
15475509 8 17240484672262119037
1979834 28 16702024136967978326
20028762 73 18201719531237909670
20505436 4 17415836053913051724
20645477 70 18261109686614267908
21130935 74 18340769342838676859
21150785 3 12901553442527381171
21344244 181 18040999566056969123
21344244 78 17274815844902782560
21521721 280 9367349262872397597
21641784 216 14924213903228501479
21792934 111 15195296283517618691
220451 1 18270687592459403445
22061861 79 18259979384123230615
221357 26 17968096396005296900
2215653 11 17748829622266965323
22849339 104 15792310274770944835
2303208 19 17894627067839697077
23081809 10 18201722894771515901
23522609 53 18122096197504677397
23536379 177 18412545440409090313
23559900 14 16950855789780152508
23569943 247 18115585933859871547
29717793 49 18410013251580697573
3004659 81 18343587360289535212
3014965 18 18409728465453058333
3472631 163 11025811881260876458
34797466 226 16370730360889409599
3886686 26 16336976200052110646
394071 54 17096091423160485541
397830 11 11239707635133847869
4072396 5 16773800303136633213
4073 2 18191870247556063243
46194498 28 17458347459671897516
465052 167 18342177752439979622
531348 171 18412542103514718791
5372103 7 15141831543028144150
54039377 194 18265899060913947910
59682541 52 18260826012266064207
59755656 215 17385719180291564227
6025842 7 18262240036260470100
7970288 3 18267584611848899070
960060 61 17749396966351686638

> <PUBCHEM_SHAPE_MULTIPOLES>
464.32
19.9
2.58
1.32
24
0.48
0.19
12.34
-1.35
-5.62
-0.1
-0.48
-0.21
-0.8

> <PUBCHEM_SHAPE_SELFOVERLAP>
953.084

> <PUBCHEM_SHAPE_VOLUME>
269

> <PUBCHEM_COORDINATE_TYPE>
2
5
10

$$$$
