51136964
  -OEChem-12032416223D

 53 57  0     1  0  0  0  0  0999 V2000
   -2.1733   -0.5084    1.9425 O   0  0  0  0  0  0  0  0  0  0  0  0
   -4.1584   -1.0006   -0.9150 N   0  0  1  0  0  0  0  0  0  0  0  0
   -1.1837   -1.2352    0.0692 N   0  0  0  0  0  0  0  0  0  0  0  0
   -0.8168   -0.1826    2.0670 N   0  0  0  0  0  0  0  0  0  0  0  0
    3.3038    0.2164    1.2434 N   0  0  0  0  0  0  0  0  0  0  0  0
    7.9170    0.2092   -0.5882 N   0  0  0  0  0  0  0  0  0  0  0  0
   -3.6969   -1.5819    0.3614 C   0  0  1  0  0  0  0  0  0  0  0  0
   -3.7874   -3.1049    0.1531 C   0  0  0  0  0  0  0  0  0  0  0  0
   -4.3664   -3.2815   -1.2435 C   0  0  0  0  0  0  0  0  0  0  0  0
   -5.0829   -1.9714   -1.5010 C   0  0  0  0  0  0  0  0  0  0  0  0
   -4.7689    0.3136   -0.7603 C   0  0  0  0  0  0  0  0  0  0  0  0
   -2.3032   -1.1254    0.7388 C   0  0  0  0  0  0  0  0  0  0  0  0
   -3.7349    1.3999   -0.6270 C   0  0  0  0  0  0  0  0  0  0  0  0
   -3.6978    2.2211    0.4998 C   0  0  0  0  0  0  0  0  0  0  0  0
   -2.8054    1.5789   -1.6515 C   0  0  0  0  0  0  0  0  0  0  0  0
   -0.3001   -0.6428    0.9237 C   0  0  0  0  0  0  0  0  0  0  0  0
   -2.7311    3.2213    0.6023 C   0  0  0  0  0  0  0  0  0  0  0  0
   -4.6825    2.0485    1.6093 C   0  0  0  0  0  0  0  0  0  0  0  0
   -1.8384    2.5792   -1.5491 C   0  0  0  0  0  0  0  0  0  0  0  0
   -1.8013    3.4003   -0.4221 C   0  0  0  0  0  0  0  0  0  0  0  0
    1.0939   -0.5282    0.6057 C   0  0  0  0  0  0  0  0  0  0  0  0
    1.5977   -1.0202   -0.5934 C   0  0  0  0  0  0  0  0  0  0  0  0
    1.9805    0.0760    1.4822 C   0  0  0  0  0  0  0  0  0  0  0  0
    2.9535   -0.8946   -0.8750 C   0  0  0  0  0  0  0  0  0  0  0  0
    3.7570   -0.2741    0.0678 C   0  0  0  0  0  0  0  0  0  0  0  0
    5.1736   -0.1092   -0.1561 C   0  0  0  0  0  0  0  0  0  0  0  0
    5.6281    0.6177   -1.2509 C   0  0  0  0  0  0  0  0  0  0  0  0
    6.0894   -0.6771    0.7229 C   0  0  0  0  0  0  0  0  0  0  0  0
    6.9971    0.7464   -1.4207 C   0  0  0  0  0  0  0  0  0  0  0  0
    7.4378   -0.4905    0.4647 C   0  0  0  0  0  0  0  0  0  0  0  0
   -4.3860   -1.3250    1.1780 H   0  0  0  0  0  0  0  0  0  0  0  0
   -4.4747   -3.5370    0.8908 H   0  0  0  0  0  0  0  0  0  0  0  0
   -2.8280   -3.6252    0.2454 H   0  0  0  0  0  0  0  0  0  0  0  0
   -5.0345   -4.1453   -1.3084 H   0  0  0  0  0  0  0  0  0  0  0  0
   -3.5548   -3.4226   -1.9681 H   0  0  0  0  0  0  0  0  0  0  0  0
   -5.2367   -1.8009   -2.5710 H   0  0  0  0  0  0  0  0  0  0  0  0
   -6.0564   -1.9645   -0.9944 H   0  0  0  0  0  0  0  0  0  0  0  0
   -5.3355    0.5598   -1.6704 H   0  0  0  0  0  0  0  0  0  0  0  0
   -5.5188    0.3082    0.0369 H   0  0  0  0  0  0  0  0  0  0  0  0
   -2.8231    0.9514   -2.5387 H   0  0  0  0  0  0  0  0  0  0  0  0
   -2.6873    3.8697    1.4734 H   0  0  0  0  0  0  0  0  0  0  0  0
   -4.4942    2.7548    2.4258 H   0  0  0  0  0  0  0  0  0  0  0  0
   -4.6182    1.0452    2.0412 H   0  0  0  0  0  0  0  0  0  0  0  0
   -5.7013    2.2370    1.2553 H   0  0  0  0  0  0  0  0  0  0  0  0
   -1.1146    2.7186   -2.3466 H   0  0  0  0  0  0  0  0  0  0  0  0
   -1.0480    4.1786   -0.3422 H   0  0  0  0  0  0  0  0  0  0  0  0
    0.9579   -1.5060   -1.3257 H   0  0  0  0  0  0  0  0  0  0  0  0
    1.6679    0.4860    2.4380 H   0  0  0  0  0  0  0  0  0  0  0  0
    3.3509   -1.2820   -1.8078 H   0  0  0  0  0  0  0  0  0  0  0  0
    4.9484    1.0817   -1.9585 H   0  0  0  0  0  0  0  0  0  0  0  0
    5.7763   -1.2543    1.5871 H   0  0  0  0  0  0  0  0  0  0  0  0
    7.4029    1.3047   -2.2580 H   0  0  0  0  0  0  0  0  0  0  0  0
    8.1924   -0.9136    1.1195 H   0  0  0  0  0  0  0  0  0  0  0  0
  1  4  1  0  0  0  0
  1 12  1  0  0  0  0
  2  7  1  0  0  0  0
  2 10  1  0  0  0  0
  2 11  1  0  0  0  0
  3 12  2  0  0  0  0
  3 16  1  0  0  0  0
  4 16  2  0  0  0  0
  5 23  1  0  0  0  0
  5 25  2  0  0  0  0
  6 29  2  0  0  0  0
  6 30  1  0  0  0  0
  7  8  1  0  0  0  0
  7 12  1  0  0  0  0
  7 31  1  0  0  0  0
  8  9  1  0  0  0  0
  8 32  1  0  0  0  0
  8 33  1  0  0  0  0
  9 10  1  0  0  0  0
  9 34  1  0  0  0  0
  9 35  1  0  0  0  0
 10 36  1  0  0  0  0
 10 37  1  0  0  0  0
 11 13  1  0  0  0  0
 11 38  1  0  0  0  0
 11 39  1  0  0  0  0
 13 14  1  0  0  0  0
 13 15  2  0  0  0  0
 14 17  2  0  0  0  0
 14 18  1  0  0  0  0
 15 19  1  0  0  0  0
 15 40  1  0  0  0  0
 16 21  1  0  0  0  0
 17 20  1  0  0  0  0
 17 41  1  0  0  0  0
 18 42  1  0  0  0  0
 18 43  1  0  0  0  0
 18 44  1  0  0  0  0
 19 20  2  0  0  0  0
 19 45  1  0  0  0  0
 20 46  1  0  0  0  0
 21 22  1  0  0  0  0
 21 23  2  0  0  0  0
 22 24  2  0  0  0  0
 22 47  1  0  0  0  0
 23 48  1  0  0  0  0
 24 25  1  0  0  0  0
 24 49  1  0  0  0  0
 25 26  1  0  0  0  0
 26 27  2  0  0  0  0
 26 28  1  0  0  0  0
 27 29  1  0  0  0  0
 27 50  1  0  0  0  0
 28 30  2  0  0  0  0
 28 51  1  0  0  0  0
 29 52  1  0  0  0  0
 30 53  1  0  0  0  0
M  END
> <PUBCHEM_COMPOUND_CID>
51136964

> <PUBCHEM_CONFORMER_RMSD>
0.8

> <PUBCHEM_CONFORMER_DIVERSEORDER>
9
67
33
99
19
88
53
12
105
30
58
98
51
14
17
70
95
62
93
22
109
111
65
16
21
25
55
100
79
106
28
73
71
64
31
87
74
96
32
97
41
107
92
23
44
36
59
108
37
7
57
82
77
10
102
80
2
103
113
38
60
27
50
56
78
76
75
3
90
72
1
52
84
4
66
8
89
61
112
54
85
15
83
48
68
42
81
6
45
49
104
91
94
35
34
46
69
13
86
47
43
24
110
40
5
20
39
101
18
11
29
26
63

> <PUBCHEM_MMFF94_PARTIAL_CHARGES>
38
1 -0.02
10 0.27
11 0.41
12 0.3
13 -0.14
14 -0.14
15 -0.15
16 0.46
17 -0.15
18 0.14
19 -0.15
2 -0.81
20 -0.15
21 0.05
22 -0.15
23 0.16
24 -0.15
25 0.31
27 -0.15
28 -0.15
29 0.16
3 -0.57
30 0.16
4 -0.41
40 0.15
41 0.15
45 0.15
46 0.15
47 0.15
48 0.15
49 0.15
5 -0.62
50 0.15
51 0.15
52 0.15
53 0.15
6 -0.62
7 0.45

> <PUBCHEM_EFFECTIVE_ROTOR_COUNT>
6

> <PUBCHEM_PHARMACOPHORE_FEATURES>
9
1 2 cation
1 5 acceptor
1 6 acceptor
3 3 4 16 cation
5 1 3 4 12 16 rings
5 2 7 8 9 10 rings
6 13 14 15 17 19 20 rings
6 5 21 22 23 24 25 rings
6 6 26 27 28 29 30 rings

> <PUBCHEM_HEAVY_ATOM_COUNT>
30

> <PUBCHEM_ATOM_DEF_STEREO_COUNT>
1

> <PUBCHEM_ATOM_UDEF_STEREO_COUNT>
0

> <PUBCHEM_BOND_DEF_STEREO_COUNT>
0

> <PUBCHEM_BOND_UDEF_STEREO_COUNT>
0

> <PUBCHEM_ISOTOPIC_ATOM_COUNT>
0

> <PUBCHEM_COMPONENT_COUNT>
1

> <PUBCHEM_CACTVS_TAUTO_COUNT>
1

> <PUBCHEM_CONFORMER_ID>
030C49C400000009

> <PUBCHEM_MMFF94_ENERGY>
74.1074

> <PUBCHEM_FEATURE_SELFOVERLAP>
45.674

> <PUBCHEM_SHAPE_FINGERPRINT>
10087517 78 18259985955354907468
10165383 225 18129947767974436169
10291535 26 18260274035827386393
10454371 7 18409735062639331028
10670039 82 18333445452561477552
11101153 10 18263931114797427412
11477941 20 18337945787776911692
11578080 2 18057622970186445671
12082328 90 18202282494692352468
12107698 1 18335418010802746892
13673619 4 17774439516063719995
13782708 43 17917430973396991358
13947920 75 18259697900192542651
14713325 29 18341613694443147651
14856354 85 18341896302837232751
15183329 4 17894910712096827186
15324884 4 17769343323040585963
15461852 350 18342460353436314166
15604295 49 18267868454107100372
15876981 60 18261397788371939813
16992828 155 17605267376866457965
17492 54 17897417568749114309
17686467 74 18265329706688670520
17913733 40 14057001594822222784
17980427 23 17894642456496581038
20771845 65 17699850924301487635
21236236 1 18260548913850452652
21756936 100 17531251621527905489
21927370 108 18115037406617093451
23081809 10 18114180839935715370
249057 25 17967252014557731228
255183 451 17834389408711821615
2838139 119 17894352172821851964
328310 630 17385736824185729222
3610482 184 18261406507097703308
397830 11 11386666156205828150
4169191 19 16661502847623737340
469060 322 17531543018411917273
4938544 92 10737284649427123387
497634 4 17846226565452221563
5171179 24 18269550705536458440
531348 171 18339923714748307858
57527585 103 17025720553664405065
6700243 42 17695671619514615470
7237137 82 18410573989720855048

> <PUBCHEM_SHAPE_MULTIPOLES>
586.61
17.32
3.29
1.68
37.13
0.88
0.16
-1.69
-4.2
-7.66
-0.72
-0.68
0.22
-1.55

> <PUBCHEM_SHAPE_SELFOVERLAP>
1294.973

> <PUBCHEM_SHAPE_VOLUME>
315.4

> <PUBCHEM_COORDINATE_TYPE>
2
5
10

$$$$
