11887626
  -OEChem-12032416133D

 69 73  0     1  0  0  0  0  0999 V2000
    1.1181    2.0232    1.5998 S   0  0  0  0  0  0  0  0  0  0  0  0
   -6.9820   -2.0982    1.6758 F   0  0  0  0  0  0  0  0  0  0  0  0
    2.2746    1.1786    1.3880 O   0  0  0  0  0  0  0  0  0  0  0  0
    0.8162    2.5577    2.9108 O   0  0  0  0  0  0  0  0  0  0  0  0
   -0.5802   -1.3592    1.3857 O   0  0  0  0  0  0  0  0  0  0  0  0
   -3.4850   -0.8647   -2.3187 O   0  0  0  0  0  0  0  0  0  0  0  0
   -0.2945   -3.8408   -1.7164 O   0  0  0  0  0  0  0  0  0  0  0  0
   -0.2695    1.2351    0.9874 N   0  0  2  0  0  0  0  0  0  0  0  0
   -2.5396    0.3889   -0.5853 N   0  0  0  0  0  0  0  0  0  0  0  0
    0.9333   -1.8141   -0.3234 N   0  0  0  0  0  0  0  0  0  0  0  0
    5.2871   -1.9548    1.5799 N   0  0  0  0  0  0  0  0  0  0  0  0
   -0.1006   -5.1840    0.1367 N   0  0  0  0  0  0  0  0  0  0  0  0
   -0.0734    0.3517   -0.1953 C   0  0  2  0  0  0  0  0  0  0  0  0
   -1.2146    0.4339   -1.2047 C   0  0  0  0  0  0  0  0  0  0  0  0
   -1.5241    2.0313    0.9753 C   0  0  0  0  0  0  0  0  0  0  0  0
   -2.6988    1.1084    0.6833 C   0  0  0  0  0  0  0  0  0  0  0  0
    0.0447   -1.0223    0.3834 C   0  0  0  0  0  0  0  0  0  0  0  0
   -3.5860   -0.2540   -1.2557 C   0  0  0  0  0  0  0  0  0  0  0  0
    1.2430   -3.1769    0.0445 C   0  0  2  0  0  0  0  0  0  0  0  0
    1.2267    3.3782    0.4730 C   0  0  0  0  0  0  0  0  0  0  0  0
    2.6533   -3.5909   -0.3946 C   0  0  0  0  0  0  0  0  0  0  0  0
    3.7316   -2.7302    0.1993 C   0  0  0  0  0  0  0  0  0  0  0  0
   -4.9263   -0.2024   -0.6513 C   0  0  0  0  0  0  0  0  0  0  0  0
    0.5713    4.5762    0.7574 C   0  0  0  0  0  0  0  0  0  0  0  0
    1.9673    3.2504   -0.7020 C   0  0  0  0  0  0  0  0  0  0  0  0
    0.1984   -4.0664   -0.6137 C   0  0  0  0  0  0  0  0  0  0  0  0
    4.2687   -1.5373   -0.3606 C   0  0  0  0  0  0  0  0  0  0  0  0
    4.3778   -2.9608    1.3919 C   0  0  0  0  0  0  0  0  0  0  0  0
    5.2425   -1.0711    0.5252 C   0  0  0  0  0  0  0  0  0  0  0  0
   -5.3267   -1.1949    0.2435 C   0  0  0  0  0  0  0  0  0  0  0  0
   -5.7967    0.8389   -0.9731 C   0  0  0  0  0  0  0  0  0  0  0  0
    0.6566    5.6463   -0.1331 C   0  0  0  0  0  0  0  0  0  0  0  0
    2.0526    4.3206   -1.5925 C   0  0  0  0  0  0  0  0  0  0  0  0
    4.0190   -0.8072   -1.5395 C   0  0  0  0  0  0  0  0  0  0  0  0
    1.3973    5.5186   -1.3080 C   0  0  0  0  0  0  0  0  0  0  0  0
    5.9821    0.0934    0.2899 C   0  0  0  0  0  0  0  0  0  0  0  0
   -6.5975   -1.1457    0.8165 C   0  0  0  0  0  0  0  0  0  0  0  0
   -7.0674    0.8882   -0.4002 C   0  0  0  0  0  0  0  0  0  0  0  0
    4.7512    0.3595   -1.7880 C   0  0  0  0  0  0  0  0  0  0  0  0
    5.7171    0.8010   -0.8860 C   0  0  0  0  0  0  0  0  0  0  0  0
   -7.4678   -0.1042    0.4947 C   0  0  0  0  0  0  0  0  0  0  0  0
    0.8521    0.6080   -0.7199 H   0  0  0  0  0  0  0  0  0  0  0  0
   -1.1631    1.3861   -1.7479 H   0  0  0  0  0  0  0  0  0  0  0  0
   -1.1262   -0.3616   -1.9532 H   0  0  0  0  0  0  0  0  0  0  0  0
   -1.6802    2.5020    1.9511 H   0  0  0  0  0  0  0  0  0  0  0  0
   -1.4800    2.8112    0.2089 H   0  0  0  0  0  0  0  0  0  0  0  0
   -2.8035    0.3530    1.4707 H   0  0  0  0  0  0  0  0  0  0  0  0
   -3.6233    1.6928    0.6605 H   0  0  0  0  0  0  0  0  0  0  0  0
    1.3006   -1.4684   -1.2044 H   0  0  0  0  0  0  0  0  0  0  0  0
    1.1517   -3.2596    1.1350 H   0  0  0  0  0  0  0  0  0  0  0  0
    2.8328   -4.6373   -0.1144 H   0  0  0  0  0  0  0  0  0  0  0  0
    2.7304   -3.5608   -1.4898 H   0  0  0  0  0  0  0  0  0  0  0  0
   -0.0128    4.6980    1.6652 H   0  0  0  0  0  0  0  0  0  0  0  0
    2.4871    2.3292   -0.9447 H   0  0  0  0  0  0  0  0  0  0  0  0
    4.2725   -3.7489    2.1244 H   0  0  0  0  0  0  0  0  0  0  0  0
   -4.6561   -2.0103    0.5016 H   0  0  0  0  0  0  0  0  0  0  0  0
   -5.4945    1.6174   -1.6688 H   0  0  0  0  0  0  0  0  0  0  0  0
    5.9024   -1.8719    2.3774 H   0  0  0  0  0  0  0  0  0  0  0  0
    0.1457    6.5789    0.0878 H   0  0  0  0  0  0  0  0  0  0  0  0
    2.6296    4.2211   -2.5073 H   0  0  0  0  0  0  0  0  0  0  0  0
    3.2772   -1.1384   -2.2602 H   0  0  0  0  0  0  0  0  0  0  0  0
    1.4637    6.3518   -2.0015 H   0  0  0  0  0  0  0  0  0  0  0  0
    0.3318   -5.3689    1.0361 H   0  0  0  0  0  0  0  0  0  0  0  0
   -0.7726   -5.8684   -0.1940 H   0  0  0  0  0  0  0  0  0  0  0  0
    6.7339    0.4383    0.9918 H   0  0  0  0  0  0  0  0  0  0  0  0
   -7.7450    1.6992   -0.6505 H   0  0  0  0  0  0  0  0  0  0  0  0
    4.5631    0.9265   -2.6959 H   0  0  0  0  0  0  0  0  0  0  0  0
    6.2733    1.7104   -1.0986 H   0  0  0  0  0  0  0  0  0  0  0  0
   -8.4570   -0.0661    0.9411 H   0  0  0  0  0  0  0  0  0  0  0  0
  1  3  2  0  0  0  0
  1  4  2  0  0  0  0
  1  8  1  0  0  0  0
  1 20  1  0  0  0  0
  2 37  1  0  0  0  0
  5 17  2  0  0  0  0
  6 18  2  0  0  0  0
  7 26  2  0  0  0  0
  8 13  1  0  0  0  0
  8 15  1  0  0  0  0
  9 14  1  0  0  0  0
  9 16  1  0  0  0  0
  9 18  1  0  0  0  0
 10 17  1  0  0  0  0
 10 19  1  0  0  0  0
 10 49  1  0  0  0  0
 11 28  1  0  0  0  0
 11 29  1  0  0  0  0
 11 58  1  0  0  0  0
 12 26  1  0  0  0  0
 12 63  1  0  0  0  0
 12 64  1  0  0  0  0
 13 14  1  0  0  0  0
 13 17  1  0  0  0  0
 13 42  1  0  0  0  0
 14 43  1  0  0  0  0
 14 44  1  0  0  0  0
 15 16  1  0  0  0  0
 15 45  1  0  0  0  0
 15 46  1  0  0  0  0
 16 47  1  0  0  0  0
 16 48  1  0  0  0  0
 18 23  1  0  0  0  0
 19 21  1  0  0  0  0
 19 26  1  0  0  0  0
 19 50  1  0  0  0  0
 20 24  2  0  0  0  0
 20 25  1  0  0  0  0
 21 22  1  0  0  0  0
 21 51  1  0  0  0  0
 21 52  1  0  0  0  0
 22 27  1  0  0  0  0
 22 28  2  0  0  0  0
 23 30  2  0  0  0  0
 23 31  1  0  0  0  0
 24 32  1  0  0  0  0
 24 53  1  0  0  0  0
 25 33  2  0  0  0  0
 25 54  1  0  0  0  0
 27 29  1  0  0  0  0
 27 34  2  0  0  0  0
 28 55  1  0  0  0  0
 29 36  2  0  0  0  0
 30 37  1  0  0  0  0
 30 56  1  0  0  0  0
 31 38  2  0  0  0  0
 31 57  1  0  0  0  0
 32 35  2  0  0  0  0
 32 59  1  0  0  0  0
 33 35  1  0  0  0  0
 33 60  1  0  0  0  0
 34 39  1  0  0  0  0
 34 61  1  0  0  0  0
 35 62  1  0  0  0  0
 36 40  1  0  0  0  0
 36 65  1  0  0  0  0
 37 41  2  0  0  0  0
 38 41  1  0  0  0  0
 38 66  1  0  0  0  0
 39 40  2  0  0  0  0
 39 67  1  0  0  0  0
 40 68  1  0  0  0  0
 41 69  1  0  0  0  0
M  END
> <PUBCHEM_COMPOUND_CID>
11887626

> <PUBCHEM_CONFORMER_RMSD>
1.4

> <PUBCHEM_CONFORMER_DIVERSEORDER>
1
136
73
194
46
105
160
187
174
150
104
135
95
28
102
59
12
169
183
114
106
81
118
178
56
110
168
67
191
96
151
117
103
196
115
71
50
78
193
108
128
122
47
38
131
23
176
70
41
18
53
156
154
97
98
15
34
25
75
111
90
93
76
164
167
51
130
119
83
116
144
188
63
10
64
127
89
82
57
74
43
88
133
132
192
52
147
148
79
138
139
186
146
120
200
173
22
190
80
85
177
14
35
185
49
48
179
189
181
69
30
42
163
137
161
134
141
126
152
149
112
100
24
87
36
145
155
92
121
175
162
66
72
13
171
99
32
62
68
197
140
55
65
94
123
91
172
61
125
153
101
19
109
26
86
182
77
20
199
27
142
60
157
11
33
170
124
180
195
40
143
198
5
107
158
39
166
54
129
84
184
6
45
159
9
8
165
58
31
37
3
16
29
113
21
44
4
7
17
2

> <PUBCHEM_MMFF94_PARTIAL_CHARGES>
58
1 1.45
10 -0.73
11 0.03
12 -0.8
13 0.42
14 0.3
15 0.36
16 0.3
17 0.57
18 0.54
19 0.36
2 -0.19
20 -0.01
21 0.18
22 -0.18
23 0.09
24 -0.15
25 -0.15
26 0.57
28 -0.3
29 -0.15
3 -0.65
30 -0.15
31 -0.15
32 -0.15
33 -0.15
34 -0.15
35 -0.15
36 -0.15
37 0.19
38 -0.15
39 -0.15
4 -0.65
40 -0.15
41 -0.15
49 0.37
5 -0.57
53 0.15
54 0.15
55 0.15
56 0.15
57 0.15
58 0.27
59 0.15
6 -0.57
60 0.15
61 0.15
62 0.15
63 0.37
64 0.37
65 0.15
66 0.15
67 0.15
68 0.15
69 0.15
7 -0.57
8 -0.85
9 -0.66

> <PUBCHEM_EFFECTIVE_ROTOR_COUNT>
11.2

> <PUBCHEM_PHARMACOPHORE_FEATURES>
14
1 10 donor
1 11 cation
1 11 donor
1 12 donor
1 3 acceptor
1 4 acceptor
1 5 acceptor
1 6 acceptor
1 7 acceptor
5 11 22 27 28 29 rings
6 20 24 25 32 33 35 rings
6 23 30 31 37 38 41 rings
6 27 29 34 36 39 40 rings
6 8 9 13 14 15 16 rings

> <PUBCHEM_HEAVY_ATOM_COUNT>
41

> <PUBCHEM_ATOM_DEF_STEREO_COUNT>
2

> <PUBCHEM_ATOM_UDEF_STEREO_COUNT>
0

> <PUBCHEM_BOND_DEF_STEREO_COUNT>
0

> <PUBCHEM_BOND_UDEF_STEREO_COUNT>
0

> <PUBCHEM_ISOTOPIC_ATOM_COUNT>
0

> <PUBCHEM_COMPONENT_COUNT>
1

> <PUBCHEM_CACTVS_TAUTO_COUNT>
4

> <PUBCHEM_CONFORMER_ID>
00B5640A00000001

> <PUBCHEM_MMFF94_ENERGY>
91.6234

> <PUBCHEM_FEATURE_SELFOVERLAP>
71.159

> <PUBCHEM_SHAPE_FINGERPRINT>
102385 1 17836077149815882134
10930396 42 18196063687344370552
11049842 53 17836066146199607216
11062273 29 18270952557355832941
11135609 187 18337673117652072560
12522641 24 18267036123123547313
1361 2 18410575097964712298
14725015 67 18266445513501963426
14840074 17 17775280526663806287
14849402 71 18410578422586092409
15328829 1 17632030684408633505
15439362 3 18267300030983326316
15927050 60 17908706472677679774
19315092 285 17097477718808429610
20642791 239 18265629851956833916
20764821 26 18123742313003919598
23559900 14 18409441501941010849
24771293 8 18058429050286725936
24771750 20 18118979223947283805
3178227 256 18411991282000536027
3493558 16 17756698633856245348
469060 322 18266470797736979872
9962374 69 18341039801683352047

> <PUBCHEM_SHAPE_MULTIPOLES>
786.08
14.71
7.09
1.76
21.98
5.6
-0.2
-7.72
-0.39
-5.96
0.8
-0.4
0.5
-0.59

> <PUBCHEM_SHAPE_SELFOVERLAP>
1700.073

> <PUBCHEM_SHAPE_VOLUME>
434.1

> <PUBCHEM_COORDINATE_TYPE>
2
5
10

$$$$
