45361616
  -OEChem-12032416203D

 70 73  0     1  0  0  0  0  0999 V2000
    0.4146   -2.3033   -1.4383 O   0  0  0  0  0  0  0  0  0  0  0  0
    5.3003   -2.2486    0.7291 O   0  0  0  0  0  0  0  0  0  0  0  0
   -4.9129    2.0174   -1.1478 O   0  0  0  0  0  0  0  0  0  0  0  0
   -4.1673    0.1754    0.0465 N   0  0  0  0  0  0  0  0  0  0  0  0
    4.7809   -1.1683   -1.2566 N   0  0  0  0  0  0  0  0  0  0  0  0
   -6.7060   -0.5821    0.4044 N   0  0  0  0  0  0  0  0  0  0  0  0
    7.0009    0.7696    0.2922 N   0  0  0  0  0  0  0  0  0  0  0  0
   -0.0240    0.4318    1.1889 C   0  0  1  0  0  0  0  0  0  0  0  0
   -0.3631   -0.4488   -0.0595 C   0  0  2  0  0  0  0  0  0  0  0  0
   -1.8907   -0.8143   -0.0875 C   0  0  1  0  0  0  0  0  0  0  0  0
    0.6146   -1.6528   -0.1825 C   0  0  2  0  0  0  0  0  0  0  0  0
    1.4591    0.8672    1.1258 C   0  0  0  0  0  0  0  0  0  0  0  0
   -0.8918    1.7111    1.1543 C   0  0  0  0  0  0  0  0  0  0  0  0
    2.0988   -1.2203   -0.1403 C   0  0  1  0  0  0  0  0  0  0  0  0
   -2.7544    0.4776   -0.0461 C   0  0  2  0  0  0  0  0  0  0  0  0
    2.4213   -0.3106    1.0451 C   0  0  0  0  0  0  0  0  0  0  0  0
   -2.3846    1.4193    1.0996 C   0  0  0  0  0  0  0  0  0  0  0  0
   -0.2675   -0.3137    2.5256 C   0  0  0  0  0  0  0  0  0  0  0  0
    3.0435   -2.4284   -0.1309 C   0  0  2  0  0  0  0  0  0  0  0  0
   -2.3000   -1.6573   -1.3071 C   0  0  0  0  0  0  0  0  0  0  0  0
    2.7616   -3.3056    1.0839 C   0  0  0  0  0  0  0  0  0  0  0  0
    4.4935   -1.9547   -0.1504 C   0  0  0  0  0  0  0  0  0  0  0  0
   -5.1363    0.9848   -0.5213 C   0  0  0  0  0  0  0  0  0  0  0  0
   -6.5420    0.5509   -0.3147 C   0  0  0  0  0  0  0  0  0  0  0  0
    6.0881   -0.6012   -1.4937 C   0  0  0  0  0  0  0  0  0  0  0  0
   -7.5863    1.2925   -0.8431 C   0  0  0  0  0  0  0  0  0  0  0  0
    6.2489    0.7363   -0.8308 C   0  0  0  0  0  0  0  0  0  0  0  0
   -8.8826    0.8425   -0.6187 C   0  0  0  0  0  0  0  0  0  0  0  0
   -7.9802   -0.9887    0.6018 C   0  0  0  0  0  0  0  0  0  0  0  0
    5.6355    1.8473   -1.3869 C   0  0  0  0  0  0  0  0  0  0  0  0
   -9.0919   -0.3190    0.1166 C   0  0  0  0  0  0  0  0  0  0  0  0
    5.8051    3.0714   -0.7495 C   0  0  0  0  0  0  0  0  0  0  0  0
    7.1432    1.9767    0.8840 C   0  0  0  0  0  0  0  0  0  0  0  0
    6.5719    3.1458    0.4081 C   0  0  0  0  0  0  0  0  0  0  0  0
   -0.1950    0.1711   -0.9550 H   0  0  0  0  0  0  0  0  0  0  0  0
   -2.1263   -1.4212    0.7959 H   0  0  0  0  0  0  0  0  0  0  0  0
    0.3601   -2.3699    0.5996 H   0  0  0  0  0  0  0  0  0  0  0  0
    1.7133    1.4786    2.0012 H   0  0  0  0  0  0  0  0  0  0  0  0
    1.6192    1.5087    0.2486 H   0  0  0  0  0  0  0  0  0  0  0  0
   -0.6815    2.3370    2.0309 H   0  0  0  0  0  0  0  0  0  0  0  0
   -0.6247    2.3142    0.2760 H   0  0  0  0  0  0  0  0  0  0  0  0
    2.2762   -0.6366   -1.0535 H   0  0  0  0  0  0  0  0  0  0  0  0
   -2.5919    1.0205   -0.9877 H   0  0  0  0  0  0  0  0  0  0  0  0
    3.4330    0.1019    0.9563 H   0  0  0  0  0  0  0  0  0  0  0  0
    2.3958   -0.8379    2.0010 H   0  0  0  0  0  0  0  0  0  0  0  0
   -2.7222    1.0019    2.0561 H   0  0  0  0  0  0  0  0  0  0  0  0
   -2.9257    2.3681    0.9902 H   0  0  0  0  0  0  0  0  0  0  0  0
   -1.3157   -0.5841    2.6760 H   0  0  0  0  0  0  0  0  0  0  0  0
    0.0245    0.3144    3.3754 H   0  0  0  0  0  0  0  0  0  0  0  0
    0.3046   -1.2429    2.5973 H   0  0  0  0  0  0  0  0  0  0  0  0
    2.8946   -3.0309   -1.0361 H   0  0  0  0  0  0  0  0  0  0  0  0
   -1.9054   -2.6747   -1.2342 H   0  0  0  0  0  0  0  0  0  0  0  0
   -3.3864   -1.7709   -1.3801 H   0  0  0  0  0  0  0  0  0  0  0  0
   -1.9512   -1.2024   -2.2399 H   0  0  0  0  0  0  0  0  0  0  0  0
   -4.4534   -0.6293    0.5973 H   0  0  0  0  0  0  0  0  0  0  0  0
    0.5836   -1.6566   -2.1444 H   0  0  0  0  0  0  0  0  0  0  0  0
    1.7672   -3.7568    1.0670 H   0  0  0  0  0  0  0  0  0  0  0  0
    3.4625   -4.1508    1.0853 H   0  0  0  0  0  0  0  0  0  0  0  0
    2.9103   -2.8049    2.0433 H   0  0  0  0  0  0  0  0  0  0  0  0
    4.0727   -1.0153   -1.9673 H   0  0  0  0  0  0  0  0  0  0  0  0
    6.2232   -0.5074   -2.5769 H   0  0  0  0  0  0  0  0  0  0  0  0
    6.8514   -1.2974   -1.1274 H   0  0  0  0  0  0  0  0  0  0  0  0
   -7.4241    2.1986   -1.4168 H   0  0  0  0  0  0  0  0  0  0  0  0
   -9.7283    1.3956   -1.0160 H   0  0  0  0  0  0  0  0  0  0  0  0
   -8.0893   -1.8996    1.1811 H   0  0  0  0  0  0  0  0  0  0  0  0
    5.0387    1.7783   -2.2901 H   0  0  0  0  0  0  0  0  0  0  0  0
  -10.0936   -0.6884    0.3038 H   0  0  0  0  0  0  0  0  0  0  0  0
    5.3402    3.9655   -1.1537 H   0  0  0  0  0  0  0  0  0  0  0  0
    7.7499    1.9811    1.7834 H   0  0  0  0  0  0  0  0  0  0  0  0
    6.7173    4.0892    0.9218 H   0  0  0  0  0  0  0  0  0  0  0  0
  1 11  1  0  0  0  0
  1 56  1  0  0  0  0
  2 22  2  0  0  0  0
  3 23  2  0  0  0  0
  4 15  1  0  0  0  0
  4 23  1  0  0  0  0
  4 55  1  0  0  0  0
  5 22  1  0  0  0  0
  5 25  1  0  0  0  0
  5 60  1  0  0  0  0
  6 24  1  0  0  0  0
  6 29  2  0  0  0  0
  7 27  1  0  0  0  0
  7 33  2  0  0  0  0
  8  9  1  0  0  0  0
  8 12  1  0  0  0  0
  8 13  1  0  0  0  0
  8 18  1  0  0  0  0
  9 10  1  0  0  0  0
  9 11  1  0  0  0  0
  9 35  1  0  0  0  0
 10 15  1  0  0  0  0
 10 20  1  0  0  0  0
 10 36  1  0  0  0  0
 11 14  1  0  0  0  0
 11 37  1  0  0  0  0
 12 16  1  0  0  0  0
 12 38  1  0  0  0  0
 12 39  1  0  0  0  0
 13 17  1  0  0  0  0
 13 40  1  0  0  0  0
 13 41  1  0  0  0  0
 14 16  1  0  0  0  0
 14 19  1  0  0  0  0
 14 42  1  0  0  0  0
 15 17  1  0  0  0  0
 15 43  1  0  0  0  0
 16 44  1  0  0  0  0
 16 45  1  0  0  0  0
 17 46  1  0  0  0  0
 17 47  1  0  0  0  0
 18 48  1  0  0  0  0
 18 49  1  0  0  0  0
 18 50  1  0  0  0  0
 19 21  1  0  0  0  0
 19 22  1  0  0  0  0
 19 51  1  0  0  0  0
 20 52  1  0  0  0  0
 20 53  1  0  0  0  0
 20 54  1  0  0  0  0
 21 57  1  0  0  0  0
 21 58  1  0  0  0  0
 21 59  1  0  0  0  0
 23 24  1  0  0  0  0
 24 26  2  0  0  0  0
 25 27  1  0  0  0  0
 25 61  1  0  0  0  0
 25 62  1  0  0  0  0
 26 28  1  0  0  0  0
 26 63  1  0  0  0  0
 27 30  2  0  0  0  0
 28 31  2  0  0  0  0
 28 64  1  0  0  0  0
 29 31  1  0  0  0  0
 29 65  1  0  0  0  0
 30 32  1  0  0  0  0
 30 66  1  0  0  0  0
 31 67  1  0  0  0  0
 32 34  2  0  0  0  0
 32 68  1  0  0  0  0
 33 34  1  0  0  0  0
 33 69  1  0  0  0  0
 34 70  1  0  0  0  0
M  END
> <PUBCHEM_COMPOUND_CID>
45361616

> <PUBCHEM_CONFORMER_RMSD>
1.2

> <PUBCHEM_CONFORMER_DIVERSEORDER>
1
13
73
51
65
104
21
41
46
45
92
61
90
69
70
82
95
59
30
96
57
93
85
44
77
24
10
43
25
84
16
37
26
81
99
50
75
63
87
2
97
29
31
11
91
58
100
35
42
36
83
88
9
39
49
76
56
72
68
6
67
79
55
89
28
5
71
52
15
98
103
33
27
60
20
66
22
17
62
34
78
101
32
38
4
64
48
18
23
3
102
40
80
54
12
53
19
74
8
47
14
94
7
86

> <PUBCHEM_MMFF94_PARTIAL_CHARGES>
34
1 -0.68
11 0.28
15 0.3
19 0.06
2 -0.57
22 0.57
23 0.54
24 0.4
25 0.44
26 -0.15
27 0.17
28 -0.15
29 0.16
3 -0.57
30 -0.15
31 -0.15
32 -0.15
33 0.16
34 -0.15
4 -0.73
5 -0.73
55 0.37
56 0.4
6 -0.62
60 0.37
63 0.15
64 0.15
65 0.15
66 0.15
67 0.15
68 0.15
69 0.15
7 -0.62
70 0.15

> <PUBCHEM_EFFECTIVE_ROTOR_COUNT>
9.6

> <PUBCHEM_PHARMACOPHORE_FEATURES>
13
1 1 acceptor
1 1 donor
1 2 acceptor
1 21 hydrophobe
1 3 acceptor
1 4 donor
1 5 donor
1 6 acceptor
1 7 acceptor
6 6 24 26 28 29 31 rings
6 7 27 30 32 33 34 rings
6 8 9 10 13 15 17 rings
6 8 9 11 12 14 16 rings

> <PUBCHEM_HEAVY_ATOM_COUNT>
34

> <PUBCHEM_ATOM_DEF_STEREO_COUNT>
6

> <PUBCHEM_ATOM_UDEF_STEREO_COUNT>
1

> <PUBCHEM_BOND_DEF_STEREO_COUNT>
0

> <PUBCHEM_BOND_UDEF_STEREO_COUNT>
0

> <PUBCHEM_ISOTOPIC_ATOM_COUNT>
0

> <PUBCHEM_COMPONENT_COUNT>
1

> <PUBCHEM_CACTVS_TAUTO_COUNT>
4

> <PUBCHEM_CONFORMER_ID>
02B429D000000001

> <PUBCHEM_MMFF94_ENERGY>
95.8364

> <PUBCHEM_FEATURE_SELFOVERLAP>
65.988

> <PUBCHEM_SHAPE_FINGERPRINT>
10391435 84 17676773154323196811
10533779 47 10015587250913036149
10673678 19 18411985758482650526
10677351 14 18342167874916993157
10816530 90 18131061671684063184
10906281 52 17846511292083548683
11007060 377 18334585624924369825
11135609 187 18197498635496126240
11211813 74 18410290303026469261
13150687 139 18059586797908916278
13165053 68 18117845627970950903
13617811 41 16343706526043583792
13947947 19 17703500078580990455
14040222 383 14620790540166742317
14117953 113 18410019858354054220
14251757 52 18407758140257510869
14675020 138 15357696370868559794
150020 25 18336273391693381735
15183329 4 17203608181758221989
15361156 5 18341610443759423479
15840311 113 18409451384296509246
15890870 6 18336269042110478812
16120349 18 18335698347301757725
16992787 43 18130790087685069889
16994733 274 17676487207874197573
17686467 74 18113339726778725037
18608769 82 18339361972070768539
19319366 153 18411976932399450494
20554085 129 16515402971391190000
20715895 44 18410011079282144844
21049683 118 17895467133768732834
21049683 271 18272088310160128545
21150785 3 18408042901416848965
21267235 1 17774721957291904043
21521721 280 18411423899488007963
21781055 127 15266798680266046899
22149856 69 17345761772033454867
23522609 53 17631192826009282873
23569914 2 17099697727031993452
3044373 193 17385444315427472268
34797466 226 17988649575458633998
3552219 110 17846510218716453889
4073 2 18260550039681049971
4098825 35 18334856134649099951
4149490 64 18260265240030569114
44317340 157 18342458153859424126
4625314 4 18336549326489672575
5109719 28 18188219791906751240
5265222 85 18411699903124997095
9831232 110 11887676160841513172

> <PUBCHEM_SHAPE_MULTIPOLES>
662.17
25.46
3.06
1.47
33.68
0.2
0.31
-11.97
-5.5
-6.24
-0.08
-0.82
0.01
0.39

> <PUBCHEM_SHAPE_SELFOVERLAP>
1402.417

> <PUBCHEM_SHAPE_VOLUME>
364.5

> <PUBCHEM_COORDINATE_TYPE>
2
5
10

$$$$
