75537012
  -OEChem-12032416313D

 49 52  0     1  0  0  0  0  0999 V2000
   -5.4299   -3.5314   -0.2494 F   0  0  0  0  0  0  0  0  0  0  0  0
    3.1932    2.6258   -0.3498 O   0  0  0  0  0  0  0  0  0  0  0  0
   -3.7821    2.4815    0.0207 O   0  0  0  0  0  0  0  0  0  0  0  0
    2.7207    0.3238   -0.1554 N   0  0  0  0  0  0  0  0  0  0  0  0
    1.0065    1.7669   -0.3220 N   0  0  0  0  0  0  0  0  0  0  0  0
   -1.6662    1.5714    0.4148 N   0  0  0  0  0  0  0  0  0  0  0  0
    0.3835    0.4541   -0.3391 C   0  0  1  0  0  0  0  0  0  0  0  0
    4.0485   -0.2278   -0.0341 C   0  0  0  0  0  0  0  0  0  0  0  0
    1.5311   -0.4971   -0.0111 C   0  0  0  0  0  0  0  0  0  0  0  0
    4.2145   -0.9517    1.3047 C   0  0  0  0  0  0  0  0  0  0  0  0
    4.3530   -1.1573   -1.2114 C   0  0  0  0  0  0  0  0  0  0  0  0
   -0.7826    0.4115    0.6433 C   0  0  0  0  0  0  0  0  0  0  0  0
    2.4058    1.6907   -0.2876 C   0  0  0  0  0  0  0  0  0  0  0  0
    0.1847    2.9587   -0.4428 C   0  0  0  0  0  0  0  0  0  0  0  0
    5.5954   -1.5898    1.4312 C   0  0  0  0  0  0  0  0  0  0  0  0
    5.7331   -1.7966   -1.0813 C   0  0  0  0  0  0  0  0  0  0  0  0
    5.8976   -2.5145    0.2554 C   0  0  0  0  0  0  0  0  0  0  0  0
   -1.0001    2.8773    0.5180 C   0  0  0  0  0  0  0  0  0  0  0  0
   -3.0387    1.5125    0.1677 C   0  0  0  0  0  0  0  0  0  0  0  0
   -3.6655    0.1890    0.0583 C   0  0  0  0  0  0  0  0  0  0  0  0
   -4.1772   -0.4362    1.1954 C   0  0  0  0  0  0  0  0  0  0  0  0
   -3.7497   -0.4428   -1.1824 C   0  0  0  0  0  0  0  0  0  0  0  0
   -4.7731   -1.6932    1.0918 C   0  0  0  0  0  0  0  0  0  0  0  0
   -4.3455   -1.6997   -1.2861 C   0  0  0  0  0  0  0  0  0  0  0  0
   -4.8571   -2.3249   -0.1490 C   0  0  0  0  0  0  0  0  0  0  0  0
    0.0272    0.2878   -1.3638 H   0  0  0  0  0  0  0  0  0  0  0  0
    4.7610    0.6066   -0.0653 H   0  0  0  0  0  0  0  0  0  0  0  0
    1.4685   -0.8593    1.0195 H   0  0  0  0  0  0  0  0  0  0  0  0
    1.5509   -1.3473   -0.6973 H   0  0  0  0  0  0  0  0  0  0  0  0
    3.4661   -1.7459    1.4152 H   0  0  0  0  0  0  0  0  0  0  0  0
    4.0541   -0.2522    2.1341 H   0  0  0  0  0  0  0  0  0  0  0  0
    3.6074   -1.9586   -1.2784 H   0  0  0  0  0  0  0  0  0  0  0  0
    4.2942   -0.6000   -2.1543 H   0  0  0  0  0  0  0  0  0  0  0  0
   -1.3144   -0.5377    0.5517 H   0  0  0  0  0  0  0  0  0  0  0  0
   -0.4299    0.4906    1.6792 H   0  0  0  0  0  0  0  0  0  0  0  0
   -0.1681    2.9973   -1.4797 H   0  0  0  0  0  0  0  0  0  0  0  0
    0.7914    3.8497   -0.2546 H   0  0  0  0  0  0  0  0  0  0  0  0
    5.6570   -2.1537    2.3689 H   0  0  0  0  0  0  0  0  0  0  0  0
    6.3574   -0.8023    1.4815 H   0  0  0  0  0  0  0  0  0  0  0  0
    6.5038   -1.0218   -1.1764 H   0  0  0  0  0  0  0  0  0  0  0  0
    5.8904   -2.5053   -1.9022 H   0  0  0  0  0  0  0  0  0  0  0  0
    6.9192   -2.9008    0.3432 H   0  0  0  0  0  0  0  0  0  0  0  0
    5.2243   -3.3799    0.2897 H   0  0  0  0  0  0  0  0  0  0  0  0
   -0.6564    2.9770    1.5546 H   0  0  0  0  0  0  0  0  0  0  0  0
   -1.7014    3.6939    0.3204 H   0  0  0  0  0  0  0  0  0  0  0  0
   -4.1165    0.0471    2.1671 H   0  0  0  0  0  0  0  0  0  0  0  0
   -3.3533    0.0352   -2.0745 H   0  0  0  0  0  0  0  0  0  0  0  0
   -5.1715   -2.1803    1.9769 H   0  0  0  0  0  0  0  0  0  0  0  0
   -4.4110   -2.1919   -2.2519 H   0  0  0  0  0  0  0  0  0  0  0  0
  1 25  1  0  0  0  0
  2 13  2  0  0  0  0
  3 19  2  0  0  0  0
  4  8  1  0  0  0  0
  4  9  1  0  0  0  0
  4 13  1  0  0  0  0
  5  7  1  0  0  0  0
  5 13  1  0  0  0  0
  5 14  1  0  0  0  0
  6 12  1  0  0  0  0
  6 18  1  0  0  0  0
  6 19  1  0  0  0  0
  7  9  1  0  0  0  0
  7 12  1  0  0  0  0
  7 26  1  0  0  0  0
  8 10  1  0  0  0  0
  8 11  1  0  0  0  0
  8 27  1  0  0  0  0
  9 28  1  0  0  0  0
  9 29  1  0  0  0  0
 10 15  1  0  0  0  0
 10 30  1  0  0  0  0
 10 31  1  0  0  0  0
 11 16  1  0  0  0  0
 11 32  1  0  0  0  0
 11 33  1  0  0  0  0
 12 34  1  0  0  0  0
 12 35  1  0  0  0  0
 14 18  1  0  0  0  0
 14 36  1  0  0  0  0
 14 37  1  0  0  0  0
 15 17  1  0  0  0  0
 15 38  1  0  0  0  0
 15 39  1  0  0  0  0
 16 17  1  0  0  0  0
 16 40  1  0  0  0  0
 16 41  1  0  0  0  0
 17 42  1  0  0  0  0
 17 43  1  0  0  0  0
 18 44  1  0  0  0  0
 18 45  1  0  0  0  0
 19 20  1  0  0  0  0
 20 21  2  0  0  0  0
 20 22  1  0  0  0  0
 21 23  1  0  0  0  0
 21 46  1  0  0  0  0
 22 24  2  0  0  0  0
 22 47  1  0  0  0  0
 23 25  2  0  0  0  0
 23 48  1  0  0  0  0
 24 25  1  0  0  0  0
 24 49  1  0  0  0  0
M  END
> <PUBCHEM_COMPOUND_CID>
75537012

> <PUBCHEM_CONFORMER_RMSD>
0.8

> <PUBCHEM_CONFORMER_DIVERSEORDER>
1
31
15
26
9
19
12
35
14
13
29
20
16
18
8
2
28
21
30
32
33
7
10
27
6
34
22
5
17
24
25
23
11
4
3

> <PUBCHEM_MMFF94_PARTIAL_CHARGES>
24
1 -0.19
12 0.3
13 0.69
14 0.3
18 0.3
19 0.54
2 -0.57
20 0.09
21 -0.15
22 -0.15
23 -0.15
24 -0.15
25 0.19
3 -0.57
4 -0.66
46 0.15
47 0.15
48 0.15
49 0.15
5 -0.66
6 -0.66
7 0.3
8 0.3
9 0.3

> <PUBCHEM_EFFECTIVE_ROTOR_COUNT>
5.4

> <PUBCHEM_PHARMACOPHORE_FEATURES>
6
1 2 acceptor
1 3 acceptor
5 4 5 7 9 13 rings
6 20 21 22 23 24 25 rings
6 5 6 7 12 14 18 rings
6 8 10 11 15 16 17 rings

> <PUBCHEM_HEAVY_ATOM_COUNT>
25

> <PUBCHEM_ATOM_DEF_STEREO_COUNT>
1

> <PUBCHEM_ATOM_UDEF_STEREO_COUNT>
0

> <PUBCHEM_BOND_DEF_STEREO_COUNT>
0

> <PUBCHEM_BOND_UDEF_STEREO_COUNT>
0

> <PUBCHEM_ISOTOPIC_ATOM_COUNT>
0

> <PUBCHEM_COMPONENT_COUNT>
1

> <PUBCHEM_CACTVS_TAUTO_COUNT>
1

> <PUBCHEM_CONFORMER_ID>
04809A7400000001

> <PUBCHEM_MMFF94_ENERGY>
55.467

> <PUBCHEM_FEATURE_SELFOVERLAP>
30.546

> <PUBCHEM_SHAPE_FINGERPRINT>
10074138 170 17201373862214142953
11405975 8 18412829053778790009
11545043 162 18059568049485151386
11796584 16 18339641114589827448
11809386 21 18260545598294137771
11963148 33 17978503458067254446
12166972 35 17894633694610640887
12403259 226 18410290319879433584
12422481 6 17418380164240836310
13009979 54 18271536324741190696
13540713 5 18338255819769996857
13583140 156 15553887663609045314
13944108 23 7995488600005754887
14211702 104 18409165541164277170
14251740 57 18341893043294742714
14251751 18 18272086085065914530
14347332 77 18408604777491478143
14848178 5 18411692192877576066
14848178 96 8862951558339511846
14950920 106 16200425883893077267
15513586 35 12965405449627652763
17138139 8 17967530169034482330
17349148 13 18187092728089794338
17492 89 18411701031993936013
17780758 139 17703515411107672355
17857418 61 18334010579847306674
18222031 100 18409728435604519394
18927931 339 18341615871711751791
193927 3 18411141341746709870
19841028 212 18267301126959512195
20028762 73 18343020012480578910
20691028 202 8790621320342935263
20843269 155 18409442583719251802
21968339 14 15502665944637001598
22393880 68 17895181199940416381
23402539 116 18334857160824439488
23522609 53 18048355268270601540
23559900 14 18410004438218687721
249057 3 18263642875410950661
25122255 55 18412263926028789087
2748736 6 9655579569487409314
2838139 119 10953744434515067666
312423 11 18337402611647075261
312425 54 17703230602999430938
4015057 19 16733281100772490700
44062 13 18334574599427069237
484985 159 18410853249233192271
5104073 3 18272934929259133041
559249 180 18337387124701744565
59682541 52 13912593936668923378
6431902 208 18409727352756484706
76465 3 18409164424166655977
7970288 3 18410853291365798107
9709674 26 18261964058155998577

> <PUBCHEM_SHAPE_MULTIPOLES>
480.53
14.58
3.6
1.18
6.63
0.67
0.06
-14.77
0.47
-2.09
-0.22
0.31
-0.53
-0.71

> <PUBCHEM_SHAPE_SELFOVERLAP>
1025.907

> <PUBCHEM_SHAPE_VOLUME>
268

> <PUBCHEM_COORDINATE_TYPE>
2
5
10

$$$$
