11941516
  -OEChem-12032416363D

 60 63  0     1  0  0  0  0  0999 V2000
   -3.5257   -3.8645    1.1302 O   0  0  0  0  0  0  0  0  0  0  0  0
    0.2045   -2.4689   -2.3190 O   0  0  0  0  0  0  0  0  0  0  0  0
   -5.2623    0.2712    0.9787 O   0  0  0  0  0  0  0  0  0  0  0  0
   -5.5377    2.8144    0.1402 O   0  0  0  0  0  0  0  0  0  0  0  0
   -6.3432    6.3078    0.0830 O   0  0  0  0  0  0  0  0  0  0  0  0
   -6.6744    4.7370    1.6988 O   0  0  0  0  0  0  0  0  0  0  0  0
    8.9354    2.8167   -0.4812 O   0  0  0  0  0  0  0  0  0  0  0  0
   -1.8260   -2.3416   -1.2466 N   0  0  0  0  0  0  0  0  0  0  0  0
   -4.2612   -0.3810   -1.0169 N   0  0  0  0  0  0  0  0  0  0  0  0
   -1.3332   -3.3513    1.4725 N   0  0  0  0  0  0  0  0  0  0  0  0
   -4.0504   -1.7708   -0.6816 C   0  0  2  0  0  0  0  0  0  0  0  0
   -2.6457   -1.9885   -0.1025 C   0  0  1  0  0  0  0  0  0  0  0  0
   -4.0598   -2.6497   -1.9340 C   0  0  0  0  0  0  0  0  0  0  0  0
   -2.6297   -2.5529   -2.4418 C   0  0  0  0  0  0  0  0  0  0  0  0
   -2.5492   -3.1675    0.8480 C   0  0  0  0  0  0  0  0  0  0  0  0
   -0.4483   -2.3217   -1.2859 C   0  0  0  0  0  0  0  0  0  0  0  0
    0.2858   -2.1367   -0.0070 C   0  0  0  0  0  0  0  0  0  0  0  0
   -0.1070   -2.6987    1.2197 C   0  0  0  0  0  0  0  0  0  0  0  0
   -4.8531    0.5250   -0.1509 C   0  0  0  0  0  0  0  0  0  0  0  0
    1.5333   -1.4938   -0.1051 C   0  0  0  0  0  0  0  0  0  0  0  0
    0.7907   -2.6600    2.3011 C   0  0  0  0  0  0  0  0  0  0  0  0
   -4.9445    1.9064   -0.7634 C   0  0  0  0  0  0  0  0  0  0  0  0
    2.3903   -1.4240    0.9922 C   0  0  0  0  0  0  0  0  0  0  0  0
    2.0243   -2.0186    2.1928 C   0  0  0  0  0  0  0  0  0  0  0  0
    3.6754   -0.7535    0.8738 C   0  0  0  0  0  0  0  0  0  0  0  0
    3.9911    0.1679   -0.0669 C   0  0  0  0  0  0  0  0  0  0  0  0
   -5.6364    4.1244   -0.4109 C   0  0  0  0  0  0  0  0  0  0  0  0
    5.2865    0.8619   -0.1755 C   0  0  0  0  0  0  0  0  0  0  0  0
   -6.2729    5.0504    0.5881 C   0  0  0  0  0  0  0  0  0  0  0  0
    6.4201    0.3221    0.4322 C   0  0  0  0  0  0  0  0  0  0  0  0
    5.3793    2.0587   -0.8861 C   0  0  0  0  0  0  0  0  0  0  0  0
    7.6462    0.9790    0.3295 C   0  0  0  0  0  0  0  0  0  0  0  0
    6.6054    2.7156   -0.9888 C   0  0  0  0  0  0  0  0  0  0  0  0
    7.7389    2.1757   -0.3810 C   0  0  0  0  0  0  0  0  0  0  0  0
   10.0535    2.2094    0.1642 C   0  0  0  0  0  0  0  0  0  0  0  0
   -4.8446   -2.0697    0.0108 H   0  0  0  0  0  0  0  0  0  0  0  0
   -2.2570   -1.0915    0.3941 H   0  0  0  0  0  0  0  0  0  0  0  0
   -4.7903   -2.3419   -2.6882 H   0  0  0  0  0  0  0  0  0  0  0  0
   -4.2764   -3.6877   -1.6535 H   0  0  0  0  0  0  0  0  0  0  0  0
   -2.2997   -3.4515   -2.9717 H   0  0  0  0  0  0  0  0  0  0  0  0
   -2.4902   -1.6878   -3.0996 H   0  0  0  0  0  0  0  0  0  0  0  0
   -3.9132   -0.0464   -1.9111 H   0  0  0  0  0  0  0  0  0  0  0  0
   -1.3444   -3.9808    2.2715 H   0  0  0  0  0  0  0  0  0  0  0  0
    1.8299   -1.0844   -1.0679 H   0  0  0  0  0  0  0  0  0  0  0  0
    0.5232   -3.1099    3.2556 H   0  0  0  0  0  0  0  0  0  0  0  0
   -5.5468    1.8408   -1.6770 H   0  0  0  0  0  0  0  0  0  0  0  0
   -3.9318    2.2407   -1.0176 H   0  0  0  0  0  0  0  0  0  0  0  0
    2.6812   -1.9918    3.0587 H   0  0  0  0  0  0  0  0  0  0  0  0
    4.3958   -1.0238    1.6410 H   0  0  0  0  0  0  0  0  0  0  0  0
    3.2575    0.4839   -0.8036 H   0  0  0  0  0  0  0  0  0  0  0  0
   -6.2611    4.0972   -1.3099 H   0  0  0  0  0  0  0  0  0  0  0  0
   -4.6338    4.4977   -0.6450 H   0  0  0  0  0  0  0  0  0  0  0  0
    6.3992   -0.6173    0.9767 H   0  0  0  0  0  0  0  0  0  0  0  0
    4.5063    2.4953   -1.3653 H   0  0  0  0  0  0  0  0  0  0  0  0
    8.4875    0.5025    0.8213 H   0  0  0  0  0  0  0  0  0  0  0  0
    6.6716    3.6477   -1.5433 H   0  0  0  0  0  0  0  0  0  0  0  0
   -6.7549    6.9340    0.7160 H   0  0  0  0  0  0  0  0  0  0  0  0
    9.9137    2.1597    1.2495 H   0  0  0  0  0  0  0  0  0  0  0  0
   10.2860    1.2311   -0.2698 H   0  0  0  0  0  0  0  0  0  0  0  0
   10.9203    2.8534   -0.0170 H   0  0  0  0  0  0  0  0  0  0  0  0
  1 15  2  0  0  0  0
  2 16  2  0  0  0  0
  3 19  2  0  0  0  0
  4 22  1  0  0  0  0
  4 27  1  0  0  0  0
  5 29  1  0  0  0  0
  5 57  1  0  0  0  0
  6 29  2  0  0  0  0
  7 34  1  0  0  0  0
  7 35  1  0  0  0  0
  8 12  1  0  0  0  0
  8 14  1  0  0  0  0
  8 16  1  0  0  0  0
  9 11  1  0  0  0  0
  9 19  1  0  0  0  0
  9 42  1  0  0  0  0
 10 15  1  0  0  0  0
 10 18  1  0  0  0  0
 10 43  1  0  0  0  0
 11 12  1  0  0  0  0
 11 13  1  0  0  0  0
 11 36  1  0  0  0  0
 12 15  1  0  0  0  0
 12 37  1  0  0  0  0
 13 14  1  0  0  0  0
 13 38  1  0  0  0  0
 13 39  1  0  0  0  0
 14 40  1  0  0  0  0
 14 41  1  0  0  0  0
 16 17  1  0  0  0  0
 17 18  2  0  0  0  0
 17 20  1  0  0  0  0
 18 21  1  0  0  0  0
 19 22  1  0  0  0  0
 20 23  2  0  0  0  0
 20 44  1  0  0  0  0
 21 24  2  0  0  0  0
 21 45  1  0  0  0  0
 22 46  1  0  0  0  0
 22 47  1  0  0  0  0
 23 24  1  0  0  0  0
 23 25  1  0  0  0  0
 24 48  1  0  0  0  0
 25 26  2  0  0  0  0
 25 49  1  0  0  0  0
 26 28  1  0  0  0  0
 26 50  1  0  0  0  0
 27 29  1  0  0  0  0
 27 51  1  0  0  0  0
 27 52  1  0  0  0  0
 28 30  2  0  0  0  0
 28 31  1  0  0  0  0
 30 32  1  0  0  0  0
 30 53  1  0  0  0  0
 31 33  2  0  0  0  0
 31 54  1  0  0  0  0
 32 34  2  0  0  0  0
 32 55  1  0  0  0  0
 33 34  1  0  0  0  0
 33 56  1  0  0  0  0
 35 58  1  0  0  0  0
 35 59  1  0  0  0  0
 35 60  1  0  0  0  0
M  END
> <PUBCHEM_COMPOUND_CID>
11941516

> <PUBCHEM_CONFORMER_RMSD>
1

> <PUBCHEM_CONFORMER_DIVERSEORDER>
1
12
6
4
3
9
5
10
7
2
8
13
11

> <PUBCHEM_MMFF94_PARTIAL_CHARGES>
46
1 -0.57
10 -0.55
11 0.3
12 0.36
14 0.3
15 0.57
16 0.54
17 0.09
18 0.12
19 0.57
2 -0.57
20 -0.15
21 -0.15
22 0.34
23 0.03
24 -0.15
25 -0.18
26 -0.18
27 0.34
28 0.03
29 0.66
3 -0.57
30 -0.15
31 -0.15
32 -0.15
33 -0.15
34 0.08
35 0.28
4 -0.56
42 0.37
43 0.37
44 0.15
45 0.15
48 0.15
49 0.15
5 -0.65
50 0.15
53 0.15
54 0.15
55 0.15
56 0.15
57 0.5
6 -0.57
7 -0.36
8 -0.66
9 -0.73

> <PUBCHEM_EFFECTIVE_ROTOR_COUNT>
9.8

> <PUBCHEM_PHARMACOPHORE_FEATURES>
14
1 1 acceptor
1 10 donor
1 2 acceptor
1 3 acceptor
1 4 acceptor
1 5 acceptor
1 6 acceptor
1 7 acceptor
1 9 donor
3 5 6 29 anion
5 8 11 12 13 14 rings
6 17 18 20 21 23 24 rings
6 28 30 31 32 33 34 rings
7 8 10 12 15 16 17 18 rings

> <PUBCHEM_HEAVY_ATOM_COUNT>
35

> <PUBCHEM_ATOM_DEF_STEREO_COUNT>
2

> <PUBCHEM_ATOM_UDEF_STEREO_COUNT>
0

> <PUBCHEM_BOND_DEF_STEREO_COUNT>
1

> <PUBCHEM_BOND_UDEF_STEREO_COUNT>
0

> <PUBCHEM_ISOTOPIC_ATOM_COUNT>
0

> <PUBCHEM_COMPONENT_COUNT>
1

> <PUBCHEM_CACTVS_TAUTO_COUNT>
6

> <PUBCHEM_CONFORMER_ID>
00B6368C00000001

> <PUBCHEM_MMFF94_ENERGY>
115.9825

> <PUBCHEM_FEATURE_SELFOVERLAP>
71.178

> <PUBCHEM_SHAPE_FINGERPRINT>
10 15 15647875142182090966
10917259 128 18338781391619645432
10917259 69 18336829685555270032
11181472 205 18186803622206626988
11505856 67 18411408511295471559
12013929 29 18334016121072998164
12390115 104 17676765491611423666
12975358 362 17839185113423511457
13726171 33 18341900628529079129
13782708 43 10807673181511104894
13947947 140 8502370062007164377
14026016 13 18339928091953317217
14251764 75 18194120716732116617
14664723 55 18128258883195588985
15183329 4 16987727956048787806
15198563 99 17843660379314309799
155225 6 18195246603733419625
16067689 134 18335426716728654620
16992727 255 18412827980321952056
18603816 31 9583248266395757975
19053607 189 18127679453521023449
19309040 13 18129374913330233589
20775438 99 11237415101612937255
21223535 225 18340204202436110308
21756936 100 18335419131388881738
21774942 28 18410291437556744028
21796203 349 15213314027548435038
23569914 152 17483974687882513654
2838139 119 18267301109594181990
445580 204 18336542824383316196
44802255 64 17775004652192555526
4756326 101 16589695762176117517
5104073 3 17095510838651485210
6058803 2 18120627216259245723
636775 72 18337669840924348112
6673363 416 18268145547251032215
6698420 124 18040999544951170274

> <PUBCHEM_SHAPE_MULTIPOLES>
664.26
24.16
7.3
1.84
45.58
11.3
-0.12
41.58
-1.17
-18.45
1.69
-1.4
-1.81
-4.44

> <PUBCHEM_SHAPE_SELFOVERLAP>
1432.132

> <PUBCHEM_SHAPE_VOLUME>
361.1

> <PUBCHEM_COORDINATE_TYPE>
2
5
10

$$$$
