71694388
  -OEChem-12032416233D

 40 41  0     0  0  0  0  0  0999 V2000
   -1.6746   -3.0722   -0.5067 O   0  0  0  0  0  0  0  0  0  0  0  0
    2.2778    1.4003    0.6117 O   0  0  0  0  0  0  0  0  0  0  0  0
    4.5225    0.5406   -1.1955 O   0  0  0  0  0  0  0  0  0  0  0  0
   -1.7503    0.1058   -0.5193 N   0  0  0  0  0  0  0  0  0  0  0  0
    0.9479    1.1728    0.9442 N   0  0  0  0  0  0  0  0  0  0  0  0
   -1.2777   -1.0899    0.1855 C   0  0  0  0  0  0  0  0  0  0  0  0
   -2.4306   -2.0999    0.2626 C   0  0  0  0  0  0  0  0  0  0  0  0
   -0.6906   -2.0604   -0.8480 C   0  0  0  0  0  0  0  0  0  0  0  0
   -0.4858   -0.7744    1.4278 C   0  0  0  0  0  0  0  0  0  0  0  0
   -2.7423    0.7904    0.3031 C   0  0  0  0  0  0  0  0  0  0  0  0
   -3.6778    1.6853   -0.5279 C   0  0  0  0  0  0  0  0  0  0  0  0
    0.8438   -0.1537    1.0648 C   0  0  0  0  0  0  0  0  0  0  0  0
   -4.6822    2.4495    0.3384 C   0  0  0  0  0  0  0  0  0  0  0  0
   -4.4280    0.8343   -1.5561 C   0  0  0  0  0  0  0  0  0  0  0  0
    2.0634   -0.8091    0.8222 C   0  0  0  0  0  0  0  0  0  0  0  0
    2.9318    0.2126    0.5420 C   0  0  0  0  0  0  0  0  0  0  0  0
    4.3579    0.2690    0.1992 C   0  0  0  0  0  0  0  0  0  0  0  0
    5.8947    0.5992   -1.5479 C   0  0  0  0  0  0  0  0  0  0  0  0
   -2.6562   -2.4813    1.2635 H   0  0  0  0  0  0  0  0  0  0  0  0
   -3.3700   -1.8727   -0.2525 H   0  0  0  0  0  0  0  0  0  0  0  0
   -0.7714   -1.7842   -1.9055 H   0  0  0  0  0  0  0  0  0  0  0  0
    0.3174   -2.4379   -0.6608 H   0  0  0  0  0  0  0  0  0  0  0  0
   -0.2791   -1.7002    1.9820 H   0  0  0  0  0  0  0  0  0  0  0  0
   -1.0270   -0.1321    2.1317 H   0  0  0  0  0  0  0  0  0  0  0  0
   -1.0244    0.7582   -0.8113 H   0  0  0  0  0  0  0  0  0  0  0  0
   -2.2253    1.4280    1.0313 H   0  0  0  0  0  0  0  0  0  0  0  0
   -3.3685    0.1072    0.8894 H   0  0  0  0  0  0  0  0  0  0  0  0
   -3.0723    2.4242   -1.0690 H   0  0  0  0  0  0  0  0  0  0  0  0
   -4.1610    3.0808    1.0656 H   0  0  0  0  0  0  0  0  0  0  0  0
   -5.3150    3.0978   -0.2767 H   0  0  0  0  0  0  0  0  0  0  0  0
   -5.3328    1.7631    0.8908 H   0  0  0  0  0  0  0  0  0  0  0  0
   -5.1141    1.4556   -2.1424 H   0  0  0  0  0  0  0  0  0  0  0  0
   -3.7436    0.3557   -2.2639 H   0  0  0  0  0  0  0  0  0  0  0  0
   -5.0197    0.0511   -1.0698 H   0  0  0  0  0  0  0  0  0  0  0  0
    2.2832   -1.8661    0.8500 H   0  0  0  0  0  0  0  0  0  0  0  0
    4.8494    1.0561    0.7833 H   0  0  0  0  0  0  0  0  0  0  0  0
    4.8388   -0.6867    0.4395 H   0  0  0  0  0  0  0  0  0  0  0  0
    5.9671    0.8088   -2.6186 H   0  0  0  0  0  0  0  0  0  0  0  0
    6.3854   -0.3582   -1.3474 H   0  0  0  0  0  0  0  0  0  0  0  0
    6.3989    1.4024   -1.0018 H   0  0  0  0  0  0  0  0  0  0  0  0
  1  7  1  0  0  0  0
  1  8  1  0  0  0  0
  2  5  1  0  0  0  0
  2 16  1  0  0  0  0
  3 17  1  0  0  0  0
  3 18  1  0  0  0  0
  4  6  1  0  0  0  0
  4 10  1  0  0  0  0
  4 25  1  0  0  0  0
  5 12  2  0  0  0  0
  6  7  1  0  0  0  0
  6  8  1  0  0  0  0
  6  9  1  0  0  0  0
  7 19  1  0  0  0  0
  7 20  1  0  0  0  0
  8 21  1  0  0  0  0
  8 22  1  0  0  0  0
  9 12  1  0  0  0  0
  9 23  1  0  0  0  0
  9 24  1  0  0  0  0
 10 11  1  0  0  0  0
 10 26  1  0  0  0  0
 10 27  1  0  0  0  0
 11 13  1  0  0  0  0
 11 14  1  0  0  0  0
 11 28  1  0  0  0  0
 12 15  1  0  0  0  0
 13 29  1  0  0  0  0
 13 30  1  0  0  0  0
 13 31  1  0  0  0  0
 14 32  1  0  0  0  0
 14 33  1  0  0  0  0
 14 34  1  0  0  0  0
 15 16  2  0  0  0  0
 15 35  1  0  0  0  0
 16 17  1  0  0  0  0
 17 36  1  0  0  0  0
 17 37  1  0  0  0  0
 18 38  1  0  0  0  0
 18 39  1  0  0  0  0
 18 40  1  0  0  0  0
M  END
> <PUBCHEM_COMPOUND_CID>
71694388

> <PUBCHEM_CONFORMER_RMSD>
0.8

> <PUBCHEM_CONFORMER_DIVERSEORDER>
1
19
86
31
74
53
106
51
57
81
43
108
93
41
58
75
69
63
95
52
34
85
101
72
84
59
9
8
82
83
90
91
49
5
55
65
56
28
25
61
18
88
35
3
24
60
30
98
103
68
62
94
14
99
7
27
23
107
80
54
76
29
11
66
104
78
79
4
37
100
87
20
36
16
92
38
73
40
26
12
105
42
39
17
46
32
47
2
89
70
96
77
6
22
102
67
21
64
50
44
33
71
48
10
13
97
15
45

> <PUBCHEM_MMFF94_PARTIAL_CHARGES>
17
1 -0.52
10 0.27
12 0.11
15 -0.15
16 -0.04
17 0.46
18 0.28
2 -0.02
25 0.36
3 -0.56
35 0.15
4 -0.84
5 -0.41
6 0.21
7 0.26
8 0.26
9 0.18

> <PUBCHEM_EFFECTIVE_ROTOR_COUNT>
7.8

> <PUBCHEM_PHARMACOPHORE_FEATURES>
8
1 1 acceptor
1 3 acceptor
1 4 cation
1 4 donor
1 5 acceptor
3 11 13 14 hydrophobe
4 1 6 7 8 rings
5 2 5 12 15 16 rings

> <PUBCHEM_HEAVY_ATOM_COUNT>
18

> <PUBCHEM_ATOM_DEF_STEREO_COUNT>
0

> <PUBCHEM_ATOM_UDEF_STEREO_COUNT>
0

> <PUBCHEM_BOND_DEF_STEREO_COUNT>
0

> <PUBCHEM_BOND_UDEF_STEREO_COUNT>
0

> <PUBCHEM_ISOTOPIC_ATOM_COUNT>
0

> <PUBCHEM_COMPONENT_COUNT>
1

> <PUBCHEM_CACTVS_TAUTO_COUNT>
1

> <PUBCHEM_CONFORMER_ID>
0445F83400000001

> <PUBCHEM_MMFF94_ENERGY>
31.5766

> <PUBCHEM_FEATURE_SELFOVERLAP>
40.596

> <PUBCHEM_SHAPE_FINGERPRINT>
105312 117 18411704261767138421
10610426 29 11527650978283473123
10681291 71 18340488859709241705
10726558 24 18272367521456244147
107951 10 18410865351565270526
10803635 8 18342747334171130470
10922049 32 18412258403275554203
12186901 62 18411138082146379859
12788726 201 17702107967462938208
12892183 10 14635151149540737697
12954195 1 18272369793699912511
14251752 14 18335424556775893918
14251757 5 18411989044085724060
14251764 30 14763198242671639445
15163728 17 18120661232098893853
15342168 16 16443071599221358302
15534591 1 17967529086280437763
15842332 3 17750773571752447954
167882 2 18196375818806219718
18186145 218 17560788936340581849
18785283 64 17973159526618749635
19433438 15 18040992960639217098
19784866 240 14333412250596858332
200 152 13254793542581687424
20602899 9 17417807374828764015
20645476 183 18408039615345075731
20645477 70 16415479376703124004
20871999 31 18410857711023548742
21069387 34 14907898305722939006
21524375 3 18265313050768573219
21756936 100 17385730231173793016
22620623 9 18059003016573201495
23402539 116 17988630861943558377
23402655 69 18261112976480088792
23419403 2 17761535450174187363
23559900 14 18060136562154554424
25 1 18200021838249953139
2637199 183 18341325605111111457
298252 57 18338507556693096987
458136 41 18196932172248445875
56616090 163 18340776952666066111
57210444 14 18273497844916021503
59755656 520 17703525319887621331
76465 3 12823293481611186872
7832392 63 18335974354737939472
81228 2 17977919592076068003

> <PUBCHEM_SHAPE_MULTIPOLES>
342.86
10.28
2.46
1.35
8.34
1.24
0.24
-7.49
4.87
-3.13
0.29
0.54
-0.1
-0.46

> <PUBCHEM_SHAPE_SELFOVERLAP>
691.672

> <PUBCHEM_SHAPE_VOLUME>
204.8

> <PUBCHEM_COORDINATE_TYPE>
2
5
10

$$$$
