7164727
  -OEChem-12032416113D

 60 64  0     1  0  0  0  0  0999 V2000
    0.4193    2.3635    1.9211 O   0  0  0  0  0  0  0  0  0  0  0  0
   -3.5312   -1.0521    1.7652 O   0  0  0  0  0  0  0  0  0  0  0  0
    2.8293    0.2215   -1.6991 O   0  0  0  0  0  0  0  0  0  0  0  0
    0.5422   -5.7649   -0.0557 O   0  0  0  0  0  0  0  0  0  0  0  0
   -3.9187    0.5734    0.1648 N   0  0  0  0  0  0  0  0  0  0  0  0
   -1.3324    2.4298    0.3760 N   0  0  0  0  0  0  0  0  0  0  0  0
   -3.0404   -1.5287   -0.4500 N   0  0  0  0  0  0  0  0  0  0  0  0
    2.2793    1.6995    0.0108 N   0  0  0  0  0  0  0  0  0  0  0  0
   -3.7553    2.9060    1.0486 C   0  0  1  0  0  0  0  0  0  0  0  0
   -3.2101    2.4549   -1.3047 C   0  0  2  0  0  0  0  0  0  0  0  0
   -3.8983    3.4450   -0.3691 C   0  0  0  0  0  0  0  0  0  0  0  0
   -4.4173    1.5227    1.1643 C   0  0  0  0  0  0  0  0  0  0  0  0
   -2.2686    2.8673    1.4199 C   0  0  0  0  0  0  0  0  0  0  0  0
   -3.9086    1.0812   -1.2192 C   0  0  0  0  0  0  0  0  0  0  0  0
   -1.7408    2.3028   -0.9554 C   0  0  0  0  0  0  0  0  0  0  0  0
   -0.8432    2.0146   -1.9129 C   0  0  0  0  0  0  0  0  0  0  0  0
    0.0099    2.2466    0.7653 C   0  0  0  0  0  0  0  0  0  0  0  0
   -3.4888   -0.7056    0.5819 C   0  0  0  0  0  0  0  0  0  0  0  0
    0.9736    1.9008   -0.3273 C   0  0  0  0  0  0  0  0  0  0  0  0
    0.5403    1.8088   -1.5891 C   0  0  0  0  0  0  0  0  0  0  0  0
   -2.1283   -2.6080   -0.3494 C   0  0  0  0  0  0  0  0  0  0  0  0
    3.1340    0.8672   -0.6992 C   0  0  0  0  0  0  0  0  0  0  0  0
   -1.8592   -3.3930   -1.4672 C   0  0  0  0  0  0  0  0  0  0  0  0
   -1.5063   -2.8774    0.8667 C   0  0  0  0  0  0  0  0  0  0  0  0
    4.5288    0.7922   -0.1920 C   0  0  0  0  0  0  0  0  0  0  0  0
   -0.9611   -4.4556   -1.3681 C   0  0  0  0  0  0  0  0  0  0  0  0
   -0.6080   -3.9400    0.9655 C   0  0  0  0  0  0  0  0  0  0  0  0
   -0.3354   -4.7292   -0.1518 C   0  0  0  0  0  0  0  0  0  0  0  0
    5.5430    0.4884   -1.0759 C   0  0  0  0  0  0  0  0  0  0  0  0
    4.7638    1.0286    1.1462 C   0  0  0  0  0  0  0  0  0  0  0  0
    6.8523    0.4177   -0.5998 C   0  0  0  0  0  0  0  0  0  0  0  0
    6.0730    0.9580    1.6224 C   0  0  0  0  0  0  0  0  0  0  0  0
    7.1172    0.6525    0.7495 C   0  0  0  0  0  0  0  0  0  0  0  0
    1.1459   -5.9885    1.2177 C   0  0  0  0  0  0  0  0  0  0  0  0
   -4.2671    3.5771    1.7495 H   0  0  0  0  0  0  0  0  0  0  0  0
   -3.3094    2.8298   -2.3318 H   0  0  0  0  0  0  0  0  0  0  0  0
   -4.9572    3.5513   -0.6343 H   0  0  0  0  0  0  0  0  0  0  0  0
   -3.4442    4.4405   -0.4521 H   0  0  0  0  0  0  0  0  0  0  0  0
   -4.2877    1.1301    2.1781 H   0  0  0  0  0  0  0  0  0  0  0  0
   -5.4973    1.6147    0.9949 H   0  0  0  0  0  0  0  0  0  0  0  0
   -1.9493    3.8818    1.6956 H   0  0  0  0  0  0  0  0  0  0  0  0
   -2.1110    2.2492    2.3129 H   0  0  0  0  0  0  0  0  0  0  0  0
   -4.9566    1.1714   -1.5299 H   0  0  0  0  0  0  0  0  0  0  0  0
   -3.4259    0.3941   -1.9156 H   0  0  0  0  0  0  0  0  0  0  0  0
   -1.1371    1.9025   -2.9514 H   0  0  0  0  0  0  0  0  0  0  0  0
    1.1819    1.6227   -2.4416 H   0  0  0  0  0  0  0  0  0  0  0  0
   -3.4204   -1.3852   -1.3790 H   0  0  0  0  0  0  0  0  0  0  0  0
    2.5558    2.0827    0.9081 H   0  0  0  0  0  0  0  0  0  0  0  0
   -2.3398   -3.1898   -2.4205 H   0  0  0  0  0  0  0  0  0  0  0  0
   -1.6485   -2.2799    1.7584 H   0  0  0  0  0  0  0  0  0  0  0  0
   -0.7523   -5.0666   -2.2421 H   0  0  0  0  0  0  0  0  0  0  0  0
   -0.1508   -4.0922    1.9374 H   0  0  0  0  0  0  0  0  0  0  0  0
    5.3544    0.3081   -2.1300 H   0  0  0  0  0  0  0  0  0  0  0  0
    3.9838    1.2254    1.8729 H   0  0  0  0  0  0  0  0  0  0  0  0
    7.6655    0.1806   -1.2794 H   0  0  0  0  0  0  0  0  0  0  0  0
    6.2790    1.1306    2.6748 H   0  0  0  0  0  0  0  0  0  0  0  0
    8.1362    0.5953    1.1207 H   0  0  0  0  0  0  0  0  0  0  0  0
    1.8120   -6.8511    1.1126 H   0  0  0  0  0  0  0  0  0  0  0  0
    1.7677   -5.1399    1.5226 H   0  0  0  0  0  0  0  0  0  0  0  0
    0.4004   -6.2509    1.9761 H   0  0  0  0  0  0  0  0  0  0  0  0
  1 17  2  0  0  0  0
  2 18  2  0  0  0  0
  3 22  2  0  0  0  0
  4 28  1  0  0  0  0
  4 34  1  0  0  0  0
  5 12  1  0  0  0  0
  5 14  1  0  0  0  0
  5 18  1  0  0  0  0
  6 13  1  0  0  0  0
  6 15  1  0  0  0  0
  6 17  1  0  0  0  0
  7 18  1  0  0  0  0
  7 21  1  0  0  0  0
  7 47  1  0  0  0  0
  8 19  1  0  0  0  0
  8 22  1  0  0  0  0
  8 48  1  0  0  0  0
  9 11  1  0  0  0  0
  9 12  1  0  0  0  0
  9 13  1  0  0  0  0
  9 35  1  0  0  0  0
 10 11  1  0  0  0  0
 10 14  1  0  0  0  0
 10 15  1  0  0  0  0
 10 36  1  0  0  0  0
 11 37  1  0  0  0  0
 11 38  1  0  0  0  0
 12 39  1  0  0  0  0
 12 40  1  0  0  0  0
 13 41  1  0  0  0  0
 13 42  1  0  0  0  0
 14 43  1  0  0  0  0
 14 44  1  0  0  0  0
 15 16  2  0  0  0  0
 16 20  1  0  0  0  0
 16 45  1  0  0  0  0
 17 19  1  0  0  0  0
 19 20  2  0  0  0  0
 20 46  1  0  0  0  0
 21 23  2  0  0  0  0
 21 24  1  0  0  0  0
 22 25  1  0  0  0  0
 23 26  1  0  0  0  0
 23 49  1  0  0  0  0
 24 27  2  0  0  0  0
 24 50  1  0  0  0  0
 25 29  2  0  0  0  0
 25 30  1  0  0  0  0
 26 28  2  0  0  0  0
 26 51  1  0  0  0  0
 27 28  1  0  0  0  0
 27 52  1  0  0  0  0
 29 31  1  0  0  0  0
 29 53  1  0  0  0  0
 30 32  2  0  0  0  0
 30 54  1  0  0  0  0
 31 33  2  0  0  0  0
 31 55  1  0  0  0  0
 32 33  1  0  0  0  0
 32 56  1  0  0  0  0
 33 57  1  0  0  0  0
 34 58  1  0  0  0  0
 34 59  1  0  0  0  0
 34 60  1  0  0  0  0
M  END
> <PUBCHEM_COMPOUND_CID>
7164727

> <PUBCHEM_CONFORMER_RMSD>
1

> <PUBCHEM_CONFORMER_DIVERSEORDER>
1
17
21
19
16
20
8
22
14
4
5
3
11
13
9
10
12
15
18
23
7
2
6

> <PUBCHEM_MMFF94_PARTIAL_CHARGES>
45
1 -0.57
10 0.14
12 0.3
13 0.3
14 0.3
15 -0.03
16 -0.15
17 0.62
18 0.69
19 0.12
2 -0.57
20 -0.15
21 0.12
22 0.54
23 -0.15
24 -0.15
25 0.09
26 -0.15
27 -0.15
28 0.08
29 -0.15
3 -0.57
30 -0.15
31 -0.15
32 -0.15
33 -0.15
34 0.28
4 -0.36
45 0.15
46 0.15
47 0.37
48 0.37
49 0.15
5 -0.66
50 0.15
51 0.15
52 0.15
53 0.15
54 0.15
55 0.15
56 0.15
57 0.15
6 -0.47
7 -0.55
8 -0.54

> <PUBCHEM_EFFECTIVE_ROTOR_COUNT>
8

> <PUBCHEM_PHARMACOPHORE_FEATURES>
11
1 1 acceptor
1 2 acceptor
1 3 acceptor
1 4 acceptor
1 7 donor
1 8 donor
6 21 23 24 26 27 28 rings
6 25 29 30 31 32 33 rings
6 5 9 10 11 12 14 rings
6 6 15 16 17 19 20 rings
6 6 9 10 11 13 15 rings

> <PUBCHEM_HEAVY_ATOM_COUNT>
34

> <PUBCHEM_ATOM_DEF_STEREO_COUNT>
2

> <PUBCHEM_ATOM_UDEF_STEREO_COUNT>
0

> <PUBCHEM_BOND_DEF_STEREO_COUNT>
0

> <PUBCHEM_BOND_UDEF_STEREO_COUNT>
0

> <PUBCHEM_ISOTOPIC_ATOM_COUNT>
0

> <PUBCHEM_COMPONENT_COUNT>
1

> <PUBCHEM_CACTVS_TAUTO_COUNT>
4

> <PUBCHEM_CONFORMER_ID>
006D533700000001

> <PUBCHEM_MMFF94_ENERGY>
116.4802

> <PUBCHEM_FEATURE_SELFOVERLAP>
57.392

> <PUBCHEM_SHAPE_FINGERPRINT>
10483366 6 18195224815654166375
10838868 158 17544188737602322584
11014199 57 17688873455263579194
11513181 2 18272368624999953294
11524674 6 18412542089754448349
12608794 3 18126028145816653825
12712778 12 18339356491528591928
14020679 6 17846508010523144921
14114207 22 18189886544392275983
14251757 5 18337111288716270434
14659021 117 18122894597896607090
14674994 50 18341055232429461426
14725015 67 18268709592484637931
14844126 61 18338233893950550755
14856354 85 17167871880391131848
15320294 125 18040992964713073462
15484559 13 14719526396482791532
15927050 60 18269835316439746503
15961568 22 17114939990144615670
16120349 306 18338798905588468315
16719943 64 18410014346855620674
16993438 75 18130498747511014718
17627616 140 18266734693064530951
19311894 1 18047187733678798586
19611394 137 18129655448469417616
19958102 18 18409164386155301470
20578428 11 16306221787062685949
20609170 109 16464948771448150386
20764821 26 18267287747708694782
20771845 165 17536588505104701853
20775438 99 16541826727542313887
20775530 9 17547021083328441175
21796203 349 16684892418161368714
229767 44 18335704961715261434
23516275 137 17974310737141895226
3383291 50 18340768260201261779
3882209 13 17407095026054596494
4073 2 18272928337581448916
4403749 210 18334848438147489508
49967989 163 18192726759669145102
5080951 261 18042380552856393236
5085150 59 18336817637406821373
5265222 85 18336275603733966925
581034 39 18265873866155417258
6201320 77 15760844460145591686

> <PUBCHEM_SHAPE_MULTIPOLES>
656.3
12.1
7.54
1.76
25.45
16.45
0.02
-9.13
-1.99
-4.87
-0.72
-0.13
-0.36
-0.32

> <PUBCHEM_SHAPE_SELFOVERLAP>
1440.012

> <PUBCHEM_SHAPE_VOLUME>
346.3

> <PUBCHEM_COORDINATE_TYPE>
2
5
10

$$$$
