11883368
  -OEChem-12032416373D

 59 62  0     1  0  0  0  0  0999 V2000
   -0.7169    1.7178    0.9239 O   0  0  0  0  0  0  0  0  0  0  0  0
   -1.2939    3.6318   -1.4015 O   0  0  0  0  0  0  0  0  0  0  0  0
    1.7488    2.1003   -0.2929 O   0  0  0  0  0  0  0  0  0  0  0  0
   -5.4838    2.1336    1.0054 O   0  0  0  0  0  0  0  0  0  0  0  0
    2.3642    0.2960   -1.5562 O   0  0  0  0  0  0  0  0  0  0  0  0
   -7.6762   -3.7495    0.2198 O   0  0  0  0  0  0  0  0  0  0  0  0
    5.9999   -2.7391   -1.6294 O   0  0  0  0  0  0  0  0  0  0  0  0
    7.8661   -0.4197    2.1017 O   0  0  0  0  0  0  0  0  0  0  0  0
   -3.6449    1.1736   -0.0318 N   0  0  0  0  0  0  0  0  0  0  0  0
    3.6803    1.0566    0.2241 N   0  0  0  0  0  0  0  0  0  0  0  0
   -1.7750    2.3017   -1.1164 C   0  0  1  0  0  0  0  0  0  0  0  0
   -0.6197    1.5396   -0.4991 C   0  0  1  0  0  0  0  0  0  0  0  0
   -2.8080    2.3486   -0.0147 C   0  0  2  0  0  0  0  0  0  0  0  0
    0.5831    2.2507   -1.0712 C   0  0  1  0  0  0  0  0  0  0  0  0
   -1.9449    2.3942    1.2344 C   0  0  0  0  0  0  0  0  0  0  0  0
    0.1120    3.6867   -1.1189 C   0  0  0  0  0  0  0  0  0  0  0  0
   -4.9317    1.1663    0.4878 C   0  0  0  0  0  0  0  0  0  0  0  0
    2.5941    1.0632   -0.6294 C   0  0  0  0  0  0  0  0  0  0  0  0
   -5.6542   -0.1299    0.4177 C   0  0  0  0  0  0  0  0  0  0  0  0
   -5.3380   -1.0520   -0.5801 C   0  0  0  0  0  0  0  0  0  0  0  0
   -6.6497   -0.4246    1.3494 C   0  0  0  0  0  0  0  0  0  0  0  0
    4.7778    0.1659    0.2292 C   0  0  0  0  0  0  0  0  0  0  0  0
   -6.0170   -2.2686   -0.6462 C   0  0  0  0  0  0  0  0  0  0  0  0
   -7.3287   -1.6412    1.2835 C   0  0  0  0  0  0  0  0  0  0  0  0
   -7.0122   -2.5632    0.2856 C   0  0  0  0  0  0  0  0  0  0  0  0
    5.7919    0.3138    1.1754 C   0  0  0  0  0  0  0  0  0  0  0  0
    4.8474   -0.8603   -0.7129 C   0  0  0  0  0  0  0  0  0  0  0  0
    5.9310   -1.7386   -0.7090 C   0  0  0  0  0  0  0  0  0  0  0  0
    6.8756   -0.5645    1.1795 C   0  0  0  0  0  0  0  0  0  0  0  0
    6.9451   -1.5906    0.2372 C   0  0  0  0  0  0  0  0  0  0  0  0
   -7.3023   -4.6458   -0.8255 C   0  0  0  0  0  0  0  0  0  0  0  0
    7.1355   -3.6007   -1.5681 C   0  0  0  0  0  0  0  0  0  0  0  0
    8.9443   -1.3526    2.0484 C   0  0  0  0  0  0  0  0  0  0  0  0
   -2.1295    1.8675   -2.0566 H   0  0  0  0  0  0  0  0  0  0  0  0
   -0.6323    0.4647   -0.7012 H   0  0  0  0  0  0  0  0  0  0  0  0
   -3.4466    3.2370   -0.0673 H   0  0  0  0  0  0  0  0  0  0  0  0
    0.7398    1.9251   -2.1089 H   0  0  0  0  0  0  0  0  0  0  0  0
   -2.4045    1.9248    2.1095 H   0  0  0  0  0  0  0  0  0  0  0  0
   -1.6872    3.4270    1.4937 H   0  0  0  0  0  0  0  0  0  0  0  0
    0.2613    4.2057   -0.1654 H   0  0  0  0  0  0  0  0  0  0  0  0
    0.6203    4.2661   -1.8956 H   0  0  0  0  0  0  0  0  0  0  0  0
   -3.2181    0.3082   -0.3457 H   0  0  0  0  0  0  0  0  0  0  0  0
    3.6951    1.7805    0.9384 H   0  0  0  0  0  0  0  0  0  0  0  0
   -4.5918   -0.8480   -1.3425 H   0  0  0  0  0  0  0  0  0  0  0  0
   -6.9076    0.2787    2.1368 H   0  0  0  0  0  0  0  0  0  0  0  0
   -5.7265   -2.9358   -1.4504 H   0  0  0  0  0  0  0  0  0  0  0  0
   -8.1026   -1.8657    2.0123 H   0  0  0  0  0  0  0  0  0  0  0  0
    5.7447    1.1119    1.9127 H   0  0  0  0  0  0  0  0  0  0  0  0
    4.0973   -1.0309   -1.4730 H   0  0  0  0  0  0  0  0  0  0  0  0
    7.7841   -2.2703    0.2399 H   0  0  0  0  0  0  0  0  0  0  0  0
   -7.5078   -4.2198   -1.8134 H   0  0  0  0  0  0  0  0  0  0  0  0
   -6.2621   -4.9728   -0.7225 H   0  0  0  0  0  0  0  0  0  0  0  0
   -7.9291   -5.5381   -0.7257 H   0  0  0  0  0  0  0  0  0  0  0  0
    8.0663   -3.0576   -1.7641 H   0  0  0  0  0  0  0  0  0  0  0  0
    7.1666   -4.1627   -0.6284 H   0  0  0  0  0  0  0  0  0  0  0  0
    7.0239   -4.3360   -2.3719 H   0  0  0  0  0  0  0  0  0  0  0  0
    8.6051   -2.3749    2.2476 H   0  0  0  0  0  0  0  0  0  0  0  0
    9.5041   -1.2707    1.1103 H   0  0  0  0  0  0  0  0  0  0  0  0
    9.6377   -1.0877    2.8537 H   0  0  0  0  0  0  0  0  0  0  0  0
  1 12  1  0  0  0  0
  1 15  1  0  0  0  0
  2 11  1  0  0  0  0
  2 16  1  0  0  0  0
  3 14  1  0  0  0  0
  3 18  1  0  0  0  0
  4 17  2  0  0  0  0
  5 18  2  0  0  0  0
  6 25  1  0  0  0  0
  6 31  1  0  0  0  0
  7 28  1  0  0  0  0
  7 32  1  0  0  0  0
  8 29  1  0  0  0  0
  8 33  1  0  0  0  0
  9 13  1  0  0  0  0
  9 17  1  0  0  0  0
  9 42  1  0  0  0  0
 10 18  1  0  0  0  0
 10 22  1  0  0  0  0
 10 43  1  0  0  0  0
 11 12  1  0  0  0  0
 11 13  1  0  0  0  0
 11 34  1  0  0  0  0
 12 14  1  0  0  0  0
 12 35  1  0  0  0  0
 13 15  1  0  0  0  0
 13 36  1  0  0  0  0
 14 16  1  0  0  0  0
 14 37  1  0  0  0  0
 15 38  1  0  0  0  0
 15 39  1  0  0  0  0
 16 40  1  0  0  0  0
 16 41  1  0  0  0  0
 17 19  1  0  0  0  0
 19 20  2  0  0  0  0
 19 21  1  0  0  0  0
 20 23  1  0  0  0  0
 20 44  1  0  0  0  0
 21 24  2  0  0  0  0
 21 45  1  0  0  0  0
 22 26  2  0  0  0  0
 22 27  1  0  0  0  0
 23 25  2  0  0  0  0
 23 46  1  0  0  0  0
 24 25  1  0  0  0  0
 24 47  1  0  0  0  0
 26 29  1  0  0  0  0
 26 48  1  0  0  0  0
 27 28  2  0  0  0  0
 27 49  1  0  0  0  0
 28 30  1  0  0  0  0
 29 30  2  0  0  0  0
 30 50  1  0  0  0  0
 31 51  1  0  0  0  0
 31 52  1  0  0  0  0
 31 53  1  0  0  0  0
 32 54  1  0  0  0  0
 32 55  1  0  0  0  0
 32 56  1  0  0  0  0
 33 57  1  0  0  0  0
 33 58  1  0  0  0  0
 33 59  1  0  0  0  0
M  END
> <PUBCHEM_COMPOUND_CID>
11883368

> <PUBCHEM_CONFORMER_RMSD>
1

> <PUBCHEM_CONFORMER_DIVERSEORDER>
1
44
14
64
77
6
55
49
58
69
73
84
52
48
59
33
34
65
29
19
79
18
83
87
27
2
41
5
40
62
46
71
15
38
16
36
23
85
66
11
17
50
25
54
42
67
13
51
31
68
82
20
28
75
53
8
22
78
76
37
70
3
61
72
10
43
57
30
88
81
26
63
4
60
32
86
35
24
45
74
12
47
21
80
7
56
9
39

> <PUBCHEM_MMFF94_PARTIAL_CHARGES>
42
1 -0.56
10 -0.55
11 0.28
12 0.28
13 0.3
14 0.28
15 0.28
16 0.28
17 0.54
18 0.78
19 0.09
2 -0.56
20 -0.15
21 -0.15
22 0.12
23 -0.15
24 -0.15
25 0.08
26 -0.15
27 -0.15
28 0.08
29 0.08
3 -0.43
30 -0.15
31 0.28
32 0.28
33 0.28
4 -0.57
42 0.37
43 0.37
44 0.15
45 0.15
46 0.15
47 0.15
48 0.15
49 0.15
5 -0.57
50 0.15
6 -0.36
7 -0.36
8 -0.36
9 -0.73

> <PUBCHEM_EFFECTIVE_ROTOR_COUNT>
11.2

> <PUBCHEM_PHARMACOPHORE_FEATURES>
13
1 1 acceptor
1 10 donor
1 2 acceptor
1 4 acceptor
1 5 acceptor
1 6 acceptor
1 7 acceptor
1 8 acceptor
1 9 donor
5 1 11 12 13 15 rings
5 2 11 12 14 16 rings
6 19 20 21 23 24 25 rings
6 22 26 27 28 29 30 rings

> <PUBCHEM_HEAVY_ATOM_COUNT>
33

> <PUBCHEM_ATOM_DEF_STEREO_COUNT>
4

> <PUBCHEM_ATOM_UDEF_STEREO_COUNT>
0

> <PUBCHEM_BOND_DEF_STEREO_COUNT>
0

> <PUBCHEM_BOND_UDEF_STEREO_COUNT>
0

> <PUBCHEM_ISOTOPIC_ATOM_COUNT>
0

> <PUBCHEM_COMPONENT_COUNT>
1

> <PUBCHEM_CACTVS_TAUTO_COUNT>
4

> <PUBCHEM_CONFORMER_ID>
00B5536800000001

> <PUBCHEM_MMFF94_ENERGY>
124.7167

> <PUBCHEM_FEATURE_SELFOVERLAP>
66.694

> <PUBCHEM_SHAPE_FINGERPRINT>
10100884 174 18335134340808435986
10190206 1 12107777476288972039
10258705 36 18128264385582075918
10391435 84 18340197514633765245
10669705 251 18342744013681837118
11103572 95 18129951070435118531
11475781 23 8214134145721596358
11497681 19 18408613560900487916
117089 54 18263936604124626611
11963148 33 18189052010603423890
12120059 9 18339625759738931007
12522641 68 17248072221654627573
1361 4 18265339597866516599
13782708 43 18410855443207281920
14344974 204 18409729560311717559
14556957 393 15285932294869253996
15145343 39 18190178086503679802
15183329 4 13334734605021405004
15510800 12 18261406554300366603
15519825 34 18412257346481465234
16992779 147 16772652490850310984
19303781 99 18188772872579058243
19841028 212 18262236754715220459
20028762 73 18408042901211568882
2026 5 18113894983850192467
20691028 202 10303808783040853650
208703 8 18336541724840462127
21130935 74 18343868805454870944
21424621 283 10087638195581895045
21585481 151 18342468001644673950
21585483 132 18188760782114654675
21987483 16 18190174766778121136
22864921 47 17895462632331828378
229767 44 18131068268527425039
23389318 12 17676492770236387844
23522609 53 17972635183805242148
23569914 152 11892704185024680936
23569943 247 18264211495465125299
24983565 74 18117268169312744178
25025965 108 17677879150987632898
25242607 90 18409162242449701729
2747138 104 18202002071946166796
2835820 40 9654206310426387147
3383291 50 18334577962223451843
3504750 166 18341057350708778889
3711267 37 12750942378536393194
393628 194 11023822899117811883
397830 11 18201997712259085848
3986486 107 8070030000101682322
406291 66 18261671566846785995
44802255 64 12396306945737681673
4516262 110 10879727451307513313
474113 269 18200870812442547975
50009960 94 18198057178897595783
50742298 180 18336547247488682963
5718773 13 18334011713655343193
57303763 176 8357721589938934260
57634706 229 11887671822935282589
5874358 3 18040704896470843098
636775 72 9366475090571810726
6712543 237 16988851579406459159
96874 4 18336826506841562571
9831232 110 18339367340863979918
9962374 69 18113338618345008924
9980921 52 16010973313952497306

> <PUBCHEM_SHAPE_MULTIPOLES>
622.21
28.6
5.03
1.63
12.91
2.22
-0.27
36.99
-10.08
-6.98
2.34
2.42
0.24
0.39

> <PUBCHEM_SHAPE_SELFOVERLAP>
1339.098

> <PUBCHEM_SHAPE_VOLUME>
343.2

> <PUBCHEM_COORDINATE_TYPE>
2
5
10

$$$$
