45783657
  -OEChem-12032416263D

 49 53  0     1  0  0  0  0  0999 V2000
   -2.1855   -1.5401    2.0138 O   0  0  0  0  0  0  0  0  0  0  0  0
   -4.1885   -0.5276   -0.8962 N   0  0  1  0  0  0  0  0  0  0  0  0
   -1.3913   -1.1194   -0.0378 N   0  0  0  0  0  0  0  0  0  0  0  0
   -0.7929   -1.4642    2.1432 N   0  0  0  0  0  0  0  0  0  0  0  0
    3.3008   -1.0087    1.2253 N   0  0  0  0  0  0  0  0  0  0  0  0
    4.9729   -0.6078   -0.3692 N   0  0  0  0  0  0  0  0  0  0  0  0
    7.1728   -0.4995   -0.0862 N   0  0  0  0  0  0  0  0  0  0  0  0
    1.4072    4.3323    0.5400 N   0  0  0  0  0  0  0  0  0  0  0  0
   -3.9122   -1.3569    0.2939 C   0  0  1  0  0  0  0  0  0  0  0  0
   -4.3920   -2.7681   -0.0928 C   0  0  0  0  0  0  0  0  0  0  0  0
   -4.9767   -2.6204   -1.4904 C   0  0  0  0  0  0  0  0  0  0  0  0
   -5.3247   -1.1481   -1.5777 C   0  0  0  0  0  0  0  0  0  0  0  0
   -4.4390    0.8717   -0.5756 C   0  0  0  0  0  0  0  0  0  0  0  0
   -2.4534   -1.3261    0.6990 C   0  0  0  0  0  0  0  0  0  0  0  0
   -3.1606    1.6286   -0.3316 C   0  0  0  0  0  0  0  0  0  0  0  0
   -2.9489    2.2640    0.8920 C   0  0  0  0  0  0  0  0  0  0  0  0
   -2.1879    1.6944   -1.3293 C   0  0  0  0  0  0  0  0  0  0  0  0
   -0.3969   -1.2136    0.8918 C   0  0  0  0  0  0  0  0  0  0  0  0
   -1.7644    2.9651    1.1179 C   0  0  0  0  0  0  0  0  0  0  0  0
   -1.0034    2.3956   -1.1032 C   0  0  0  0  0  0  0  0  0  0  0  0
    0.9838   -1.0537    0.5367 C   0  0  0  0  0  0  0  0  0  0  0  0
   -0.7916    3.0308    0.1204 C   0  0  0  0  0  0  0  0  0  0  0  0
    1.3612   -0.7951   -0.7763 C   0  0  0  0  0  0  0  0  0  0  0  0
    1.9828   -1.1504    1.4918 C   0  0  0  0  0  0  0  0  0  0  0  0
    2.7074   -0.6434   -1.0896 C   0  0  0  0  0  0  0  0  0  0  0  0
    3.6296   -0.7583   -0.0619 C   0  0  0  0  0  0  0  0  0  0  0  0
    0.4217    3.7490    0.3520 C   0  0  0  0  0  0  0  0  0  0  0  0
    5.4971   -0.3525   -1.6051 C   0  0  0  0  0  0  0  0  0  0  0  0
    6.0166   -0.6876    0.5102 C   0  0  0  0  0  0  0  0  0  0  0  0
    6.8560   -0.2900   -1.4051 C   0  0  0  0  0  0  0  0  0  0  0  0
   -4.5166   -1.0237    1.1493 H   0  0  0  0  0  0  0  0  0  0  0  0
   -3.5993   -3.5240   -0.0807 H   0  0  0  0  0  0  0  0  0  0  0  0
   -5.1774   -3.0931    0.6005 H   0  0  0  0  0  0  0  0  0  0  0  0
   -5.8451   -3.2671   -1.6461 H   0  0  0  0  0  0  0  0  0  0  0  0
   -4.2192   -2.8797   -2.2405 H   0  0  0  0  0  0  0  0  0  0  0  0
   -6.2701   -0.9491   -1.0570 H   0  0  0  0  0  0  0  0  0  0  0  0
   -5.4135   -0.8169   -2.6170 H   0  0  0  0  0  0  0  0  0  0  0  0
   -4.9270    1.3676   -1.4267 H   0  0  0  0  0  0  0  0  0  0  0  0
   -5.1370    0.9776    0.2652 H   0  0  0  0  0  0  0  0  0  0  0  0
   -3.6971    2.2192    1.6788 H   0  0  0  0  0  0  0  0  0  0  0  0
   -2.3401    1.2083   -2.2893 H   0  0  0  0  0  0  0  0  0  0  0  0
   -1.6134    3.4542    2.0773 H   0  0  0  0  0  0  0  0  0  0  0  0
   -0.2543    2.4373   -1.8904 H   0  0  0  0  0  0  0  0  0  0  0  0
    0.6280   -0.7066   -1.5739 H   0  0  0  0  0  0  0  0  0  0  0  0
    1.7725   -1.3494    2.5384 H   0  0  0  0  0  0  0  0  0  0  0  0
    2.9517   -0.4429   -2.1248 H   0  0  0  0  0  0  0  0  0  0  0  0
    4.9306   -0.2326   -2.5167 H   0  0  0  0  0  0  0  0  0  0  0  0
    5.8928   -0.8827    1.5676 H   0  0  0  0  0  0  0  0  0  0  0  0
    7.6223   -0.1048   -2.1435 H   0  0  0  0  0  0  0  0  0  0  0  0
  1  4  1  0  0  0  0
  1 14  1  0  0  0  0
  2  9  1  0  0  0  0
  2 12  1  0  0  0  0
  2 13  1  0  0  0  0
  3 14  2  0  0  0  0
  3 18  1  0  0  0  0
  4 18  2  0  0  0  0
  5 24  1  0  0  0  0
  5 26  2  0  0  0  0
  6 26  1  0  0  0  0
  6 28  1  0  0  0  0
  6 29  1  0  0  0  0
  7 29  2  0  0  0  0
  7 30  1  0  0  0  0
  8 27  3  0  0  0  0
  9 10  1  0  0  0  0
  9 14  1  0  0  0  0
  9 31  1  0  0  0  0
 10 11  1  0  0  0  0
 10 32  1  0  0  0  0
 10 33  1  0  0  0  0
 11 12  1  0  0  0  0
 11 34  1  0  0  0  0
 11 35  1  0  0  0  0
 12 36  1  0  0  0  0
 12 37  1  0  0  0  0
 13 15  1  0  0  0  0
 13 38  1  0  0  0  0
 13 39  1  0  0  0  0
 15 16  2  0  0  0  0
 15 17  1  0  0  0  0
 16 19  1  0  0  0  0
 16 40  1  0  0  0  0
 17 20  2  0  0  0  0
 17 41  1  0  0  0  0
 18 21  1  0  0  0  0
 19 22  2  0  0  0  0
 19 42  1  0  0  0  0
 20 22  1  0  0  0  0
 20 43  1  0  0  0  0
 21 23  1  0  0  0  0
 21 24  2  0  0  0  0
 22 27  1  0  0  0  0
 23 25  2  0  0  0  0
 23 44  1  0  0  0  0
 24 45  1  0  0  0  0
 25 26  1  0  0  0  0
 25 46  1  0  0  0  0
 28 30  2  0  0  0  0
 28 47  1  0  0  0  0
 29 48  1  0  0  0  0
 30 49  1  0  0  0  0
M  END
> <PUBCHEM_COMPOUND_CID>
45783657

> <PUBCHEM_CONFORMER_RMSD>
0.8

> <PUBCHEM_CONFORMER_DIVERSEORDER>
1
50
13
101
42
69
100
10
93
80
61
86
16
33
98
89
105
15
39
28
41
26
63
37
14
17
103
54
97
64
109
79
106
47
3
77
83
25
104
102
19
92
27
56
8
73
46
74
51
2
78
43
20
38
95
107
90
24
70
68
59
5
60
55
84
7
91
36
4
72
49
45
110
67
88
76
87
23
108
66
52
85
96
57
34
31
21
12
40
58
62
53
71
82
48
6
44
18
32
65
94
29
9
35
99
22
81
30
11
75

> <PUBCHEM_MMFF94_PARTIAL_CHARGES>
38
1 -0.02
12 0.27
13 0.41
14 0.3
15 -0.14
16 -0.15
17 -0.15
18 0.46
19 -0.15
2 -0.81
20 -0.15
21 0.05
22 0.07
23 -0.15
24 0.16
25 -0.15
26 0.29
27 0.48
28 -0.3
29 0.04
3 -0.57
30 0.08
4 -0.41
40 0.15
41 0.15
42 0.15
43 0.15
44 0.15
45 0.15
46 0.15
47 0.15
48 0.15
49 0.15
5 -0.62
6 0.33
7 -0.57
8 -0.56
9 0.45

> <PUBCHEM_EFFECTIVE_ROTOR_COUNT>
6

> <PUBCHEM_PHARMACOPHORE_FEATURES>
10
1 2 cation
1 8 acceptor
3 3 4 18 cation
3 5 6 26 cation
3 6 7 29 cation
5 1 3 4 14 18 rings
5 2 9 10 11 12 rings
5 6 7 28 29 30 rings
6 15 16 17 19 20 22 rings
6 5 21 23 24 25 26 rings

> <PUBCHEM_HEAVY_ATOM_COUNT>
30

> <PUBCHEM_ATOM_DEF_STEREO_COUNT>
1

> <PUBCHEM_ATOM_UDEF_STEREO_COUNT>
0

> <PUBCHEM_BOND_DEF_STEREO_COUNT>
0

> <PUBCHEM_BOND_UDEF_STEREO_COUNT>
0

> <PUBCHEM_ISOTOPIC_ATOM_COUNT>
0

> <PUBCHEM_COMPONENT_COUNT>
1

> <PUBCHEM_CACTVS_TAUTO_COUNT>
1

> <PUBCHEM_CONFORMER_ID>
02BA9A6900000001

> <PUBCHEM_MMFF94_ENERGY>
57.8327

> <PUBCHEM_FEATURE_SELFOVERLAP>
50.868

> <PUBCHEM_SHAPE_FINGERPRINT>
10032420 55 17968078812114197325
10670039 82 18334577911268593966
1100329 8 18411416186249217473
11477941 20 18342168986316958516
12107698 1 18411980286746900364
12166972 35 17677055757868445486
12645989 146 18343024393900530814
12788726 201 18261105232195099154
13782708 43 17632021854130569830
13947920 75 18410571760796456223
14068700 675 18343017830599385701
14931854 50 18113890542510733543
15183329 4 17967818194374570562
15876981 60 18409454682483356445
17492 54 18041829624589942341
19319366 153 17679581130757663481
20642791 35 18335966633230688445
20721686 56 18338796840469295832
20775438 99 17259599969674696967
21236236 1 18334581209407831982
21304303 64 16878224165575111517
21344244 246 17908976957176127239
23559900 14 17896317102689117085
255183 451 18053377992854327471
392239 28 18410299077744790936
4280585 95 18411690002549769621
484989 97 17532940622277215715
497634 4 17346608460400730498
5171179 24 18269832167575324665
531348 171 18127979615774221710
57527585 103 17388292058785739523

> <PUBCHEM_SHAPE_MULTIPOLES>
576.65
13.75
3.98
1.64
21.5
4.93
0.16
-8.24
-6.04
-3.93
0.57
-0.16
-0.53
-0.58

> <PUBCHEM_SHAPE_SELFOVERLAP>
1276.537

> <PUBCHEM_SHAPE_VOLUME>
309.7

> <PUBCHEM_COORDINATE_TYPE>
2
5
10

$$$$
