51136975
  -OEChem-12032416233D

 59 62  0     1  0  0  0  0  0999 V2000
   -2.0416   -2.3039    0.5607 O   0  0  0  0  0  0  0  0  0  0  0  0
    0.1072   -3.2430   -1.3018 O   0  0  0  0  0  0  0  0  0  0  0  0
   -3.3625   -4.7830    0.4387 O   0  0  0  0  0  0  0  0  0  0  0  0
   -2.1697    2.1395    0.3284 O   0  0  0  0  0  0  0  0  0  0  0  0
    1.4036   -1.1149    0.1169 N   0  0  0  0  0  0  0  0  0  0  0  0
    3.9078    0.2592    0.1394 N   0  0  0  0  0  0  0  0  0  0  0  0
   -2.6753    0.1351   -0.7257 N   0  0  0  0  0  0  0  0  0  0  0  0
   -6.3366    2.7330    0.1714 N   0  0  0  0  0  0  0  0  0  0  0  0
   -6.5938    1.9783   -0.9106 N   0  0  0  0  0  0  0  0  0  0  0  0
    0.2928   -1.8558    0.6882 C   0  0  1  0  0  0  0  0  0  0  0  0
   -1.0935   -1.2136    0.5497 C   0  0  1  0  0  0  0  0  0  0  0  0
    0.0826   -3.2508    0.1197 C   0  0  1  0  0  0  0  0  0  0  0  0
   -1.3236   -3.5513    0.6248 C   0  0  2  0  0  0  0  0  0  0  0  0
    2.6582   -1.8588    0.2820 C   0  0  0  0  0  0  0  0  0  0  0  0
    1.5197    0.2062    0.7469 C   0  0  0  0  0  0  0  0  0  0  0  0
   -1.3490   -0.4054   -0.7175 C   0  0  0  0  0  0  0  0  0  0  0  0
    3.8287   -1.1148   -0.3658 C   0  0  0  0  0  0  0  0  0  0  0  0
    2.6514    1.0189    0.1138 C   0  0  0  0  0  0  0  0  0  0  0  0
   -2.0855   -4.6081   -0.1538 C   0  0  0  0  0  0  0  0  0  0  0  0
    5.1082    0.9702    0.0321 C   0  0  0  0  0  0  0  0  0  0  0  0
   -2.9857    1.3844   -0.1937 C   0  0  0  0  0  0  0  0  0  0  0  0
    5.4335    1.9375    0.9829 C   0  0  0  0  0  0  0  0  0  0  0  0
    5.9794    0.7117   -1.0261 C   0  0  0  0  0  0  0  0  0  0  0  0
   -4.4135    1.7899   -0.2561 C   0  0  0  0  0  0  0  0  0  0  0  0
    6.6301    2.6464    0.8757 C   0  0  0  0  0  0  0  0  0  0  0  0
    7.1760    1.4204   -1.1333 C   0  0  0  0  0  0  0  0  0  0  0  0
    7.5013    2.3878   -0.1825 C   0  0  0  0  0  0  0  0  0  0  0  0
   -5.0451    2.6555    0.6031 C   0  0  0  0  0  0  0  0  0  0  0  0
   -5.4152    1.4046   -1.1671 C   0  0  0  0  0  0  0  0  0  0  0  0
   -7.3901    3.5251    0.7596 C   0  0  0  0  0  0  0  0  0  0  0  0
    0.4662   -1.9869    1.7689 H   0  0  0  0  0  0  0  0  0  0  0  0
   -1.3048   -0.5891    1.4268 H   0  0  0  0  0  0  0  0  0  0  0  0
    0.8068   -3.9883    0.4804 H   0  0  0  0  0  0  0  0  0  0  0  0
   -1.2944   -3.8231    1.6879 H   0  0  0  0  0  0  0  0  0  0  0  0
    2.8748   -2.0269    1.3458 H   0  0  0  0  0  0  0  0  0  0  0  0
    2.6095   -2.8405   -0.2009 H   0  0  0  0  0  0  0  0  0  0  0  0
    0.6093    0.8054    0.6801 H   0  0  0  0  0  0  0  0  0  0  0  0
    1.7267    0.0919    1.8207 H   0  0  0  0  0  0  0  0  0  0  0  0
   -1.2916   -1.0509   -1.6005 H   0  0  0  0  0  0  0  0  0  0  0  0
   -0.6485    0.4165   -0.8691 H   0  0  0  0  0  0  0  0  0  0  0  0
    3.6994   -1.1052   -1.4558 H   0  0  0  0  0  0  0  0  0  0  0  0
    4.7497   -1.6656   -0.1372 H   0  0  0  0  0  0  0  0  0  0  0  0
    2.7390    1.9643    0.6614 H   0  0  0  0  0  0  0  0  0  0  0  0
    2.4008    1.2689   -0.9253 H   0  0  0  0  0  0  0  0  0  0  0  0
   -2.2539   -4.2966   -1.1896 H   0  0  0  0  0  0  0  0  0  0  0  0
   -1.5550   -5.5649   -0.1409 H   0  0  0  0  0  0  0  0  0  0  0  0
    0.0758   -4.1673   -1.6016 H   0  0  0  0  0  0  0  0  0  0  0  0
   -3.4162   -0.4379   -1.1184 H   0  0  0  0  0  0  0  0  0  0  0  0
   -3.8259   -5.4656   -0.0758 H   0  0  0  0  0  0  0  0  0  0  0  0
    4.7747    2.1437    1.8225 H   0  0  0  0  0  0  0  0  0  0  0  0
    5.7522   -0.0240   -1.7922 H   0  0  0  0  0  0  0  0  0  0  0  0
    6.8850    3.3974    1.6177 H   0  0  0  0  0  0  0  0  0  0  0  0
    7.8533    1.2216   -1.9588 H   0  0  0  0  0  0  0  0  0  0  0  0
    8.4330    2.9396   -0.2661 H   0  0  0  0  0  0  0  0  0  0  0  0
   -4.6929    3.2082    1.4637 H   0  0  0  0  0  0  0  0  0  0  0  0
   -5.3416    0.7327   -2.0105 H   0  0  0  0  0  0  0  0  0  0  0  0
   -6.9997    4.0684    1.6236 H   0  0  0  0  0  0  0  0  0  0  0  0
   -8.1922    2.8521    1.0729 H   0  0  0  0  0  0  0  0  0  0  0  0
   -7.7512    4.2303    0.0069 H   0  0  0  0  0  0  0  0  0  0  0  0
  1 11  1  0  0  0  0
  1 13  1  0  0  0  0
  2 12  1  0  0  0  0
  2 47  1  0  0  0  0
  3 19  1  0  0  0  0
  3 49  1  0  0  0  0
  4 21  2  0  0  0  0
  5 10  1  0  0  0  0
  5 14  1  0  0  0  0
  5 15  1  0  0  0  0
  6 17  1  0  0  0  0
  6 18  1  0  0  0  0
  6 20  1  0  0  0  0
  7 16  1  0  0  0  0
  7 21  1  0  0  0  0
  7 48  1  0  0  0  0
  8  9  1  0  0  0  0
  8 28  1  0  0  0  0
  8 30  1  0  0  0  0
  9 29  2  0  0  0  0
 10 11  1  0  0  0  0
 10 12  1  0  0  0  0
 10 31  1  0  0  0  0
 11 16  1  0  0  0  0
 11 32  1  0  0  0  0
 12 13  1  0  0  0  0
 12 33  1  0  0  0  0
 13 19  1  0  0  0  0
 13 34  1  0  0  0  0
 14 17  1  0  0  0  0
 14 35  1  0  0  0  0
 14 36  1  0  0  0  0
 15 18  1  0  0  0  0
 15 37  1  0  0  0  0
 15 38  1  0  0  0  0
 16 39  1  0  0  0  0
 16 40  1  0  0  0  0
 17 41  1  0  0  0  0
 17 42  1  0  0  0  0
 18 43  1  0  0  0  0
 18 44  1  0  0  0  0
 19 45  1  0  0  0  0
 19 46  1  0  0  0  0
 20 22  2  0  0  0  0
 20 23  1  0  0  0  0
 21 24  1  0  0  0  0
 22 25  1  0  0  0  0
 22 50  1  0  0  0  0
 23 26  2  0  0  0  0
 23 51  1  0  0  0  0
 24 28  2  0  0  0  0
 24 29  1  0  0  0  0
 25 27  2  0  0  0  0
 25 52  1  0  0  0  0
 26 27  1  0  0  0  0
 26 53  1  0  0  0  0
 27 54  1  0  0  0  0
 28 55  1  0  0  0  0
 29 56  1  0  0  0  0
 30 57  1  0  0  0  0
 30 58  1  0  0  0  0
 30 59  1  0  0  0  0
M  END
> <PUBCHEM_COMPOUND_CID>
51136975

> <PUBCHEM_CONFORMER_RMSD>
1

> <PUBCHEM_CONFORMER_DIVERSEORDER>
1
14
12
8
27
24
17
36
29
21
18
5
39
11
32
31
2
15
3
38
13
26
40
30
7
33
16
19
28
25
34
23
4
37
35
22
10
20
9
6

> <PUBCHEM_MMFF94_PARTIAL_CHARGES>
40
1 -0.56
10 0.27
11 0.28
12 0.28
13 0.28
14 0.27
15 0.27
16 0.3
17 0.37
18 0.37
19 0.28
2 -0.68
20 0.1
21 0.72
22 -0.15
23 -0.15
24 -0.09
25 -0.15
26 -0.15
27 -0.15
28 -0.3
29 0.14
3 -0.68
30 0.26
4 -0.57
47 0.4
48 0.37
49 0.4
5 -0.81
50 0.15
51 0.15
52 0.15
53 0.15
54 0.15
55 0.15
56 0.15
6 -0.84
7 -0.73
8 0.31
9 -0.71

> <PUBCHEM_EFFECTIVE_ROTOR_COUNT>
9.2

> <PUBCHEM_PHARMACOPHORE_FEATURES>
14
1 1 acceptor
1 2 acceptor
1 2 donor
1 3 acceptor
1 3 donor
1 4 acceptor
1 5 cation
1 6 cation
1 7 donor
1 9 acceptor
5 1 10 11 12 13 rings
5 8 9 24 28 29 rings
6 20 22 23 25 26 27 rings
6 5 6 14 15 17 18 rings

> <PUBCHEM_HEAVY_ATOM_COUNT>
30

> <PUBCHEM_ATOM_DEF_STEREO_COUNT>
4

> <PUBCHEM_ATOM_UDEF_STEREO_COUNT>
0

> <PUBCHEM_BOND_DEF_STEREO_COUNT>
0

> <PUBCHEM_BOND_UDEF_STEREO_COUNT>
0

> <PUBCHEM_ISOTOPIC_ATOM_COUNT>
0

> <PUBCHEM_COMPONENT_COUNT>
1

> <PUBCHEM_CACTVS_TAUTO_COUNT>
2

> <PUBCHEM_CONFORMER_ID>
030C49CF00000001

> <PUBCHEM_MMFF94_ENERGY>
80.3176

> <PUBCHEM_FEATURE_SELFOVERLAP>
71.055

> <PUBCHEM_SHAPE_FINGERPRINT>
10050765 1 18409446999315182946
10190206 1 18339911732158597047
10411042 1 17688591984730016259
10981352 41 11386374738021605128
11007060 377 18272649073943196881
11135609 187 18340485569643532681
11823591 26 18333723602769576277
1200032 147 18261676987100626312
12107183 9 18189600671885928090
12293681 160 17989205919362282600
12390115 104 18411426119600757067
12539765 74 18130230337508378957
12677640 9 18266741471087478637
12788726 201 18045488961716048395
13383665 225 18117015444804050894
13540713 4 18339662086995086518
13540713 5 18116130282188744162
14068700 686 18044935671576696301
14190465 44 18339624716499773794
14251764 75 18408603638987450272
14294032 229 18338526342859041275
14565420 104 18188772726069687603
14790565 3 18267584602699360097
14849402 71 17977946787192418330
14931854 50 17988639653589145697
14937079 2 18048876295802536210
15064981 194 18267040503547714108
15183329 4 16917351398566060908
15198563 99 18055343906559254175
15347591 1 18338799044193096208
15439362 3 18267868289763472398
15513586 35 16808717639892095484
15778101 99 18408604790587285636
15803439 3 17060335227720502318
16087824 20 18337670945306332839
16114785 44 18260555566934935563
16126227 98 18410295826280357417
16992610 120 18335435560371662060
20691028 202 18410012122099958900
21033648 144 18114737153832140893
21360443 126 18335979856838978444
21424621 283 18412826850228471209
21772528 278 18412824664775277437
21781055 127 17916021262187918730
23516275 137 16988019205964532543
23522609 53 17415564204327277857
23559900 14 18342173312124952802
23729398 52 17906463125350174590
283562 15 18116989090558317691
3246875 12 18409449185494708313
3627633 1 17905609152934369551
38570 142 18272371932229681069
437815 12 10375861970869818353
4403749 210 18333452050137770025
4516262 110 18267299838717158925
5104073 3 17968087643162927618
5758199 1 18411138005174916449
5969126 39 18053658359080525239
59755656 520 18335133189613781590
6327066 14 18408321077289243597
6712543 237 14851606561703525361
6898599 12 18338801242493750068
7288768 16 18113617884758951075
7808743 9 18335415794504591944
9896288 288 18115874168730198442

> <PUBCHEM_SHAPE_MULTIPOLES>
569
19.28
5.73
1.01
7.8
6.28
0.12
-29.33
1.69
-8.3
-0.83
0.21
-0.17
0.27

> <PUBCHEM_SHAPE_SELFOVERLAP>
1207.921

> <PUBCHEM_SHAPE_VOLUME>
317.9

> <PUBCHEM_COORDINATE_TYPE>
2
5
10

$$$$
