51136654
  -OEChem-12032416143D

 65 68  0     1  0  0  0  0  0999 V2000
    0.6608    3.4163    1.6826 O   0  0  0  0  0  0  0  0  0  0  0  0
    6.1684   -2.7028    0.7544 O   0  0  0  0  0  0  0  0  0  0  0  0
    6.4010   -0.4984    0.2371 O   0  0  0  0  0  0  0  0  0  0  0  0
   -5.1560   -2.0808    1.2967 O   0  0  0  0  0  0  0  0  0  0  0  0
    1.6987    1.9999    0.1614 N   0  0  0  0  0  0  0  0  0  0  0  0
    0.3234   -1.7700   -2.0031 N   0  0  0  0  0  0  0  0  0  0  0  0
    2.2037   -0.2688   -0.7170 C   0  0  2  0  0  0  0  0  0  0  0  0
    3.6074   -0.1672   -0.0675 C   0  0  1  0  0  0  0  0  0  0  0  0
    1.6690    1.1408   -1.0291 C   0  0  0  0  0  0  0  0  0  0  0  0
    3.6030    0.7810    1.1435 C   0  0  0  0  0  0  0  0  0  0  0  0
    3.0167    2.1426    0.7796 C   0  0  0  0  0  0  0  0  0  0  0  0
    1.1848   -1.0515    0.1206 C   0  0  0  0  0  0  0  0  0  0  0  0
   -0.7112    2.4784    0.0068 C   0  0  0  0  0  0  0  0  0  0  0  0
    4.1922   -1.5268    0.3146 C   0  0  0  0  0  0  0  0  0  0  0  0
    0.6038    2.6787    0.6953 C   0  0  0  0  0  0  0  0  0  0  0  0
   -0.8578    3.5122   -1.1111 C   0  0  0  0  0  0  0  0  0  0  0  0
   -1.8510    2.5838    1.0210 C   0  0  0  0  0  0  0  0  0  0  0  0
   -2.2239    3.4187   -1.7859 C   0  0  0  0  0  0  0  0  0  0  0  0
   -3.2149    2.4884    0.3422 C   0  0  0  0  0  0  0  0  0  0  0  0
   -3.3608    3.5202   -0.7728 C   0  0  0  0  0  0  0  0  0  0  0  0
    0.0574   -1.5319   -0.7611 C   0  0  0  0  0  0  0  0  0  0  0  0
    5.6916   -1.4763    0.4192 C   0  0  0  0  0  0  0  0  0  0  0  0
   -1.2935   -1.6999   -0.1671 C   0  0  0  0  0  0  0  0  0  0  0  0
   -2.3716   -1.7637   -1.0590 C   0  0  0  0  0  0  0  0  0  0  0  0
   -0.7572   -2.2944   -2.8451 C   0  0  0  0  0  0  0  0  0  0  0  0
   -2.0983   -1.6455   -2.5290 C   0  0  0  0  0  0  0  0  0  0  0  0
   -1.5083   -1.7785    1.2102 C   0  0  0  0  0  0  0  0  0  0  0  0
   -3.6725   -1.8808   -0.5618 C   0  0  0  0  0  0  0  0  0  0  0  0
   -2.8095   -1.9111    1.6966 C   0  0  0  0  0  0  0  0  0  0  0  0
   -3.8890   -1.9592    0.8140 C   0  0  0  0  0  0  0  0  0  0  0  0
   -5.3063   -2.1534    2.7137 C   0  0  0  0  0  0  0  0  0  0  0  0
    2.3742   -0.7708   -1.6777 H   0  0  0  0  0  0  0  0  0  0  0  0
    4.2599    0.2880   -0.8277 H   0  0  0  0  0  0  0  0  0  0  0  0
    2.3339    1.6200   -1.7603 H   0  0  0  0  0  0  0  0  0  0  0  0
    0.6998    1.0910   -1.5217 H   0  0  0  0  0  0  0  0  0  0  0  0
    3.0095    0.3411    1.9551 H   0  0  0  0  0  0  0  0  0  0  0  0
    4.6160    0.9247    1.5344 H   0  0  0  0  0  0  0  0  0  0  0  0
    3.6628    2.6578    0.0589 H   0  0  0  0  0  0  0  0  0  0  0  0
    2.9620    2.7704    1.6745 H   0  0  0  0  0  0  0  0  0  0  0  0
   -0.7952    1.4681   -0.3985 H   0  0  0  0  0  0  0  0  0  0  0  0
    1.6295   -1.9535    0.5529 H   0  0  0  0  0  0  0  0  0  0  0  0
    0.8115   -0.4365    0.9440 H   0  0  0  0  0  0  0  0  0  0  0  0
    3.9515   -2.2640   -0.4605 H   0  0  0  0  0  0  0  0  0  0  0  0
    3.7923   -1.8735    1.2738 H   0  0  0  0  0  0  0  0  0  0  0  0
   -0.7247    4.5240   -0.7054 H   0  0  0  0  0  0  0  0  0  0  0  0
   -0.0729    3.3811   -1.8651 H   0  0  0  0  0  0  0  0  0  0  0  0
   -1.8026    3.5364    1.5645 H   0  0  0  0  0  0  0  0  0  0  0  0
   -1.7602    1.7915    1.7745 H   0  0  0  0  0  0  0  0  0  0  0  0
   -2.3224    4.2155   -2.5317 H   0  0  0  0  0  0  0  0  0  0  0  0
   -2.2990    2.4656   -2.3241 H   0  0  0  0  0  0  0  0  0  0  0  0
   -3.3465    1.4817   -0.0730 H   0  0  0  0  0  0  0  0  0  0  0  0
   -4.0077    2.6326    1.0848 H   0  0  0  0  0  0  0  0  0  0  0  0
   -3.3730    4.5273   -0.3382 H   0  0  0  0  0  0  0  0  0  0  0  0
   -4.3212    3.3799   -1.2813 H   0  0  0  0  0  0  0  0  0  0  0  0
   -0.5056   -2.1047   -3.8943 H   0  0  0  0  0  0  0  0  0  0  0  0
   -0.8092   -3.3833   -2.7207 H   0  0  0  0  0  0  0  0  0  0  0  0
   -2.8855   -2.1343   -3.1138 H   0  0  0  0  0  0  0  0  0  0  0  0
   -2.0832   -0.5827   -2.7992 H   0  0  0  0  0  0  0  0  0  0  0  0
   -0.6887   -1.7538    1.9213 H   0  0  0  0  0  0  0  0  0  0  0  0
   -4.5178   -1.9120   -1.2446 H   0  0  0  0  0  0  0  0  0  0  0  0
    7.1464   -2.7061    0.8317 H   0  0  0  0  0  0  0  0  0  0  0  0
   -2.9099   -1.9702    2.7752 H   0  0  0  0  0  0  0  0  0  0  0  0
   -4.8232   -3.0464    3.1246 H   0  0  0  0  0  0  0  0  0  0  0  0
   -4.9654   -1.2342    3.2023 H   0  0  0  0  0  0  0  0  0  0  0  0
   -6.3775   -2.2462    2.9205 H   0  0  0  0  0  0  0  0  0  0  0  0
  1 15  2  0  0  0  0
  2 22  1  0  0  0  0
  2 61  1  0  0  0  0
  3 22  2  0  0  0  0
  4 30  1  0  0  0  0
  4 31  1  0  0  0  0
  5  9  1  0  0  0  0
  5 11  1  0  0  0  0
  5 15  1  0  0  0  0
  6 21  2  0  0  0  0
  6 25  1  0  0  0  0
  7  8  1  0  0  0  0
  7  9  1  0  0  0  0
  7 12  1  0  0  0  0
  7 32  1  0  0  0  0
  8 10  1  0  0  0  0
  8 14  1  0  0  0  0
  8 33  1  0  0  0  0
  9 34  1  0  0  0  0
  9 35  1  0  0  0  0
 10 11  1  0  0  0  0
 10 36  1  0  0  0  0
 10 37  1  0  0  0  0
 11 38  1  0  0  0  0
 11 39  1  0  0  0  0
 12 21  1  0  0  0  0
 12 41  1  0  0  0  0
 12 42  1  0  0  0  0
 13 15  1  0  0  0  0
 13 16  1  0  0  0  0
 13 17  1  0  0  0  0
 13 40  1  0  0  0  0
 14 22  1  0  0  0  0
 14 43  1  0  0  0  0
 14 44  1  0  0  0  0
 16 18  1  0  0  0  0
 16 45  1  0  0  0  0
 16 46  1  0  0  0  0
 17 19  1  0  0  0  0
 17 47  1  0  0  0  0
 17 48  1  0  0  0  0
 18 20  1  0  0  0  0
 18 49  1  0  0  0  0
 18 50  1  0  0  0  0
 19 20  1  0  0  0  0
 19 51  1  0  0  0  0
 19 52  1  0  0  0  0
 20 53  1  0  0  0  0
 20 54  1  0  0  0  0
 21 23  1  0  0  0  0
 23 24  2  0  0  0  0
 23 27  1  0  0  0  0
 24 26  1  0  0  0  0
 24 28  1  0  0  0  0
 25 26  1  0  0  0  0
 25 55  1  0  0  0  0
 25 56  1  0  0  0  0
 26 57  1  0  0  0  0
 26 58  1  0  0  0  0
 27 29  2  0  0  0  0
 27 59  1  0  0  0  0
 28 30  2  0  0  0  0
 28 60  1  0  0  0  0
 29 30  1  0  0  0  0
 29 62  1  0  0  0  0
 31 63  1  0  0  0  0
 31 64  1  0  0  0  0
 31 65  1  0  0  0  0
M  END
> <PUBCHEM_COMPOUND_CID>
51136654

> <PUBCHEM_CONFORMER_RMSD>
1

> <PUBCHEM_CONFORMER_DIVERSEORDER>
1
124
201
16
56
170
51
147
204
199
42
167
85
120
58
104
77
196
177
72
148
176
110
97
163
187
165
7
109
8
131
80
79
121
57
27
35
60
90
182
45
15
141
22
89
183
189
24
103
122
161
32
112
166
132
129
105
168
149
88
21
114
193
142
82
39
174
20
178
119
59
86
62
181
5
33
65
143
95
108
78
190
38
157
37
11
2
154
100
158
102
41
195
44
107
101
135
81
4
115
153
75
84
194
6
50
94
116
127
185
186
152
43
87
96
91
47
68
138
92
99
61
126
34
160
179
134
111
93
25
175
155
192
125
30
118
202
10
113
117
133
54
74
200
31
151
184
123
76
130
137
106
52
53
162
69
73
180
18
49
19
3
197
188
128
98
172
145
28
64
23
169
156
40
70
29
173
12
36
198
17
67
171
13
159
139
164
14
140
83
66
150
144
48
63
46
71
9
203
191
136
146
55
26

> <PUBCHEM_MMFF94_PARTIAL_CHARGES>
27
1 -0.57
11 0.3
12 0.06
13 0.06
14 0.06
15 0.57
2 -0.65
21 0.3
22 0.66
23 0.09
24 -0.14
25 0.25
26 0.14
27 -0.15
28 -0.15
29 -0.15
3 -0.57
30 0.08
31 0.28
4 -0.36
5 -0.66
59 0.15
6 -0.7
60 0.15
61 0.5
62 0.15
9 0.3

> <PUBCHEM_EFFECTIVE_ROTOR_COUNT>
9.8

> <PUBCHEM_PHARMACOPHORE_FEATURES>
10
1 1 acceptor
1 2 acceptor
1 3 acceptor
1 4 acceptor
1 6 acceptor
3 2 3 22 anion
6 13 16 17 18 19 20 rings
6 23 24 27 28 29 30 rings
6 5 7 8 9 10 11 rings
6 6 21 23 24 25 26 rings

> <PUBCHEM_HEAVY_ATOM_COUNT>
31

> <PUBCHEM_ATOM_DEF_STEREO_COUNT>
2

> <PUBCHEM_ATOM_UDEF_STEREO_COUNT>
0

> <PUBCHEM_BOND_DEF_STEREO_COUNT>
0

> <PUBCHEM_BOND_UDEF_STEREO_COUNT>
0

> <PUBCHEM_ISOTOPIC_ATOM_COUNT>
0

> <PUBCHEM_COMPONENT_COUNT>
1

> <PUBCHEM_CACTVS_TAUTO_COUNT>
1

> <PUBCHEM_CONFORMER_ID>
030C488E00000001

> <PUBCHEM_MMFF94_ENERGY>
79.5949

> <PUBCHEM_FEATURE_SELFOVERLAP>
50.831

> <PUBCHEM_SHAPE_FINGERPRINT>
10119406 146 17694782918468514638
10190108 129 18120386599279482920
10688039 33 18188213212164131017
1100329 8 17541646223947447554
11135609 12 18334292102185027072
12156800 1 18121534343115427389
12293681 25 17558560106207239710
12422481 6 18271823310671930771
12608794 3 17917987321589936135
13140716 1 18341896260178157872
13383668 90 16012424595616770834
13402501 40 18340767036251438589
13965767 371 17701831091989544714
14840074 17 17982182419636328733
14866123 147 17972871467567879170
15420108 30 17199952477489621116
15484559 13 17618194240674356525
17492 54 17979325618076549397
17980427 23 16558185046337500162
21133410 90 17561356301863820993
22182313 1 17844823485847610366
23559900 14 16660916802624440831
24893992 56 18040704893647512111
3380486 145 17988923331883325846
469060 322 16805323262570586774
484985 159 17604703361676321434
513202 73 18410294679508414594
5171179 24 17914871318854069272
70251023 43 18125696101621121726

> <PUBCHEM_SHAPE_MULTIPOLES>
604.53
10.22
5.1
2.17
11.27
4.69
-0.65
-8.19
5.39
-3.83
-0.23
-2.48
-1.2
1.71

> <PUBCHEM_SHAPE_SELFOVERLAP>
1277.233

> <PUBCHEM_SHAPE_VOLUME>
335.5

> <PUBCHEM_COORDINATE_TYPE>
2
5
10

$$$$
