7143734
  -OEChem-12032416113D

 47 51  0     1  0  0  0  0  0999 V2000
   -7.3520    1.7188    0.5308 Cl  0  0  0  0  0  0  0  0  0  0  0  0
   -1.6974   -1.5189    1.5686 O   0  0  0  0  0  0  0  0  0  0  0  0
    2.2238    0.8710    2.1913 O   0  0  0  0  0  0  0  0  0  0  0  0
    4.1883    1.9098   -0.4513 O   0  0  0  0  0  0  0  0  0  0  0  0
    3.0416   -0.4937    0.4759 N   0  0  0  0  0  0  0  0  0  0  0  0
    0.1441   -1.7067    0.1498 N   0  0  0  0  0  0  0  0  0  0  0  0
    2.3262   -2.8424    0.8676 C   0  0  1  0  0  0  0  0  0  0  0  0
    2.1349   -1.8653   -1.3843 C   0  0  2  0  0  0  0  0  0  0  0  0
    2.4975   -3.1369   -0.6188 C   0  0  0  0  0  0  0  0  0  0  0  0
    3.2499   -1.6871    1.2954 C   0  0  0  0  0  0  0  0  0  0  0  0
    0.8488   -2.5326    1.1416 C   0  0  0  0  0  0  0  0  0  0  0  0
    3.0915   -0.7259   -0.9771 C   0  0  0  0  0  0  0  0  0  0  0  0
    0.7035   -1.4490   -1.1043 C   0  0  0  0  0  0  0  0  0  0  0  0
   -0.0069   -0.7980   -2.0392 C   0  0  0  0  0  0  0  0  0  0  0  0
   -1.1560   -1.2827    0.4872 C   0  0  0  0  0  0  0  0  0  0  0  0
    2.7660    0.7271    1.0967 C   0  0  0  0  0  0  0  0  0  0  0  0
   -1.9092   -0.5142   -0.5647 C   0  0  0  0  0  0  0  0  0  0  0  0
   -1.3310   -0.3205   -1.7593 C   0  0  0  0  0  0  0  0  0  0  0  0
    3.1253    1.9587    0.3856 C   0  0  0  0  0  0  0  0  0  0  0  0
   -3.2486    0.0348   -0.2949 C   0  0  0  0  0  0  0  0  0  0  0  0
    2.5660    3.2076    0.4062 C   0  0  0  0  0  0  0  0  0  0  0  0
   -4.3848   -0.7253   -0.5744 C   0  0  0  0  0  0  0  0  0  0  0  0
   -3.3828    1.3165    0.2407 C   0  0  0  0  0  0  0  0  0  0  0  0
    3.3394    3.9907   -0.4837 C   0  0  0  0  0  0  0  0  0  0  0  0
    4.3134    3.1556   -0.9795 C   0  0  0  0  0  0  0  0  0  0  0  0
   -5.6533   -0.2047   -0.3189 C   0  0  0  0  0  0  0  0  0  0  0  0
   -4.6515    1.8371    0.4964 C   0  0  0  0  0  0  0  0  0  0  0  0
   -5.7868    1.0764    0.2166 C   0  0  0  0  0  0  0  0  0  0  0  0
    2.6080   -3.7264    1.4528 H   0  0  0  0  0  0  0  0  0  0  0  0
    2.2628   -2.0606   -2.4569 H   0  0  0  0  0  0  0  0  0  0  0  0
    1.8549   -3.9721   -0.9241 H   0  0  0  0  0  0  0  0  0  0  0  0
    3.5319   -3.4315   -0.8338 H   0  0  0  0  0  0  0  0  0  0  0  0
    3.1078   -1.4520    2.3559 H   0  0  0  0  0  0  0  0  0  0  0  0
    4.2989   -1.9812    1.1680 H   0  0  0  0  0  0  0  0  0  0  0  0
    0.2937   -3.4799    1.1834 H   0  0  0  0  0  0  0  0  0  0  0  0
    0.7310   -2.0705    2.1298 H   0  0  0  0  0  0  0  0  0  0  0  0
    4.1266   -0.9815   -1.2326 H   0  0  0  0  0  0  0  0  0  0  0  0
    2.8240    0.1841   -1.5225 H   0  0  0  0  0  0  0  0  0  0  0  0
    0.4099   -0.5730   -3.0154 H   0  0  0  0  0  0  0  0  0  0  0  0
   -1.8303    0.2302   -2.5511 H   0  0  0  0  0  0  0  0  0  0  0  0
    1.7094    3.5246    0.9838 H   0  0  0  0  0  0  0  0  0  0  0  0
   -4.2970   -1.7259   -0.9910 H   0  0  0  0  0  0  0  0  0  0  0  0
   -2.5073    1.9211    0.4650 H   0  0  0  0  0  0  0  0  0  0  0  0
    3.2035    5.0331   -0.7329 H   0  0  0  0  0  0  0  0  0  0  0  0
    5.1265    3.2872   -1.6783 H   0  0  0  0  0  0  0  0  0  0  0  0
   -6.5291   -0.8088   -0.5419 H   0  0  0  0  0  0  0  0  0  0  0  0
   -4.7402    2.8368    0.9138 H   0  0  0  0  0  0  0  0  0  0  0  0
  1 28  1  0  0  0  0
  2 15  2  0  0  0  0
  3 16  2  0  0  0  0
  4 19  1  0  0  0  0
  4 25  1  0  0  0  0
  5 10  1  0  0  0  0
  5 12  1  0  0  0  0
  5 16  1  0  0  0  0
  6 11  1  0  0  0  0
  6 13  1  0  0  0  0
  6 15  1  0  0  0  0
  7  9  1  0  0  0  0
  7 10  1  0  0  0  0
  7 11  1  0  0  0  0
  7 29  1  0  0  0  0
  8  9  1  0  0  0  0
  8 12  1  0  0  0  0
  8 13  1  0  0  0  0
  8 30  1  0  0  0  0
  9 31  1  0  0  0  0
  9 32  1  0  0  0  0
 10 33  1  0  0  0  0
 10 34  1  0  0  0  0
 11 35  1  0  0  0  0
 11 36  1  0  0  0  0
 12 37  1  0  0  0  0
 12 38  1  0  0  0  0
 13 14  2  0  0  0  0
 14 18  1  0  0  0  0
 14 39  1  0  0  0  0
 15 17  1  0  0  0  0
 16 19  1  0  0  0  0
 17 18  2  0  0  0  0
 17 20  1  0  0  0  0
 18 40  1  0  0  0  0
 19 21  2  0  0  0  0
 20 22  2  0  0  0  0
 20 23  1  0  0  0  0
 21 24  1  0  0  0  0
 21 41  1  0  0  0  0
 22 26  1  0  0  0  0
 22 42  1  0  0  0  0
 23 27  2  0  0  0  0
 23 43  1  0  0  0  0
 24 25  2  0  0  0  0
 24 44  1  0  0  0  0
 25 45  1  0  0  0  0
 26 28  2  0  0  0  0
 26 46  1  0  0  0  0
 27 28  1  0  0  0  0
 27 47  1  0  0  0  0
M  END
> <PUBCHEM_COMPOUND_CID>
7143734

> <PUBCHEM_CONFORMER_RMSD>
0.8

> <PUBCHEM_CONFORMER_DIVERSEORDER>
1
6
3
5
7
4
2

> <PUBCHEM_MMFF94_PARTIAL_CHARGES>
35
1 -0.18
10 0.3
11 0.3
12 0.3
13 -0.03
14 -0.15
15 0.62
16 0.71
17 -0.01
18 -0.15
19 0.05
2 -0.57
20 0.03
21 -0.15
22 -0.15
23 -0.15
24 -0.15
25 -0.01
26 -0.15
27 -0.15
28 0.18
3 -0.57
39 0.15
4 -0.28
40 0.15
41 0.15
42 0.15
43 0.15
44 0.15
45 0.15
46 0.15
47 0.15
5 -0.66
6 -0.47
8 0.14

> <PUBCHEM_EFFECTIVE_ROTOR_COUNT>
4

> <PUBCHEM_PHARMACOPHORE_FEATURES>
8
1 2 acceptor
1 3 acceptor
1 4 acceptor
5 4 19 21 24 25 rings
6 20 22 23 26 27 28 rings
6 5 7 8 9 10 12 rings
6 6 13 14 15 17 18 rings
6 6 7 8 9 11 13 rings

> <PUBCHEM_HEAVY_ATOM_COUNT>
28

> <PUBCHEM_ATOM_DEF_STEREO_COUNT>
2

> <PUBCHEM_ATOM_UDEF_STEREO_COUNT>
0

> <PUBCHEM_BOND_DEF_STEREO_COUNT>
0

> <PUBCHEM_BOND_UDEF_STEREO_COUNT>
0

> <PUBCHEM_ISOTOPIC_ATOM_COUNT>
0

> <PUBCHEM_COMPONENT_COUNT>
1

> <PUBCHEM_CACTVS_TAUTO_COUNT>
1

> <PUBCHEM_CONFORMER_ID>
006D013600000001

> <PUBCHEM_MMFF94_ENERGY>
72.1209

> <PUBCHEM_FEATURE_SELFOVERLAP>
42.192

> <PUBCHEM_SHAPE_FINGERPRINT>
10165383 225 17895205398176767046
10305334 12 16523870555519225588
10483366 6 18339377301325831460
10937287 8 18049721016773804780
11578080 2 18263382411371619179
11720765 8 17560536036293643972
12422481 6 17767926928472387330
12633257 1 17895735379602300730
13878862 14 18191002557400467461
13944108 23 18411424981525153196
14251764 38 18340491063080556441
14251764 75 18118690047920728908
14849402 71 18334295358028082834
15142526 21 18191302878202749928
15163728 17 18191034588886323380
151778 21 18336822082598259092
15238133 3 18337111142850925558
15475509 84 16675835702444481865
15849732 13 17632007543173016598
17899979 19 17559699265110778774
20465049 17 18342188786337648060
20567600 9 18342184370715855996
21285901 2 12607395564530216235
21315764 268 18263642862805253485
21475661 188 18409732893316628476
21641784 216 15913336745825157889
21756936 100 17979069711282692348
21860390 5 18342174419392195070
23559900 14 17489028141665239271
23569914 152 10588986765492383817
245318 6 17752216242556323437
3298306 158 18271524320481639057
3411729 13 18411984671708406789
34797466 226 18201165378041388687
38570 142 18337965596503528404
397830 11 18261125088873225273
474 4 18410569621591331021
484985 159 9622358409927809780
5104073 3 18261683606219995363
513532 50 15841546371182421920
5895379 119 17344360938268925249
6086070 43 17827611700814069223
633830 44 18411976987953788223
7288768 16 17899126389426712464
9849439 229 18055901332709913736

> <PUBCHEM_SHAPE_MULTIPOLES>
550.53
12.2
4.1
1.55
23.59
2.59
0.06
9.1
-1.15
-6.53
-0.04
-0.87
-0.49
-1.02

> <PUBCHEM_SHAPE_SELFOVERLAP>
1215.009

> <PUBCHEM_SHAPE_VOLUME>
293.8

> <PUBCHEM_COORDINATE_TYPE>
2
5
10

$$$$
