11884160
  -OEChem-12032416373D

 63 66  0     1  0  0  0  0  0999 V2000
    0.5662    1.7692    1.3293 O   0  0  0  0  0  0  0  0  0  0  0  0
   -0.3400    3.3664   -1.1266 O   0  0  0  0  0  0  0  0  0  0  0  0
    2.8419    1.9755   -0.2470 O   0  0  0  0  0  0  0  0  0  0  0  0
   -4.3349    1.8664   -0.2692 O   0  0  0  0  0  0  0  0  0  0  0  0
    3.3042    0.0183   -1.3359 O   0  0  0  0  0  0  0  0  0  0  0  0
    9.0839   -3.7774   -0.1802 O   0  0  0  0  0  0  0  0  0  0  0  0
   -2.4567    1.1215    0.8547 N   0  0  0  0  0  0  0  0  0  0  0  0
   -4.3113   -0.2326    0.7817 N   0  0  0  0  0  0  0  0  0  0  0  0
    4.8376    0.9973    0.1373 N   0  0  0  0  0  0  0  0  0  0  0  0
   -0.7626    2.0876   -0.6087 C   0  0  1  0  0  0  0  0  0  0  0  0
    0.4740    1.4061   -0.0584 C   0  0  1  0  0  0  0  0  0  0  0  0
   -1.6392    2.2838    0.6061 C   0  0  2  0  0  0  0  0  0  0  0  0
    1.5808    2.0296   -0.8745 C   0  0  1  0  0  0  0  0  0  0  0  0
   -0.6172    2.4873    1.7113 C   0  0  0  0  0  0  0  0  0  0  0  0
    1.0904    3.4498   -1.0449 C   0  0  0  0  0  0  0  0  0  0  0  0
   -3.7715    0.9954    0.3891 C   0  0  0  0  0  0  0  0  0  0  0  0
    3.6468    0.8986   -0.5561 C   0  0  0  0  0  0  0  0  0  0  0  0
   -5.6047   -0.7379    0.5130 C   0  0  0  0  0  0  0  0  0  0  0  0
    5.9365    0.1087    0.1107 C   0  0  0  0  0  0  0  0  0  0  0  0
   -6.5102    0.0211   -0.2287 C   0  0  0  0  0  0  0  0  0  0  0  0
   -5.9748   -1.9955    0.9896 C   0  0  0  0  0  0  0  0  0  0  0  0
   -8.1556   -1.7352   -0.0169 C   0  0  0  0  0  0  0  0  0  0  0  0
   -9.5193   -2.2688   -0.2991 C   0  0  0  0  0  0  0  0  0  0  0  0
   -7.7855   -0.4776   -0.4937 C   0  0  0  0  0  0  0  0  0  0  0  0
   -7.2502   -2.4941    0.7247 C   0  0  0  0  0  0  0  0  0  0  0  0
    7.0663    0.3735    0.8849 C   0  0  0  0  0  0  0  0  0  0  0  0
    5.8916   -1.0322   -0.6904 C   0  0  0  0  0  0  0  0  0  0  0  0
  -10.6314   -1.3993    0.3176 C   0  0  0  0  0  0  0  0  0  0  0  0
   -9.7782   -2.4562   -1.8060 C   0  0  0  0  0  0  0  0  0  0  0  0
    8.1511   -0.5028    0.8579 C   0  0  0  0  0  0  0  0  0  0  0  0
    6.9766   -1.9085   -0.7175 C   0  0  0  0  0  0  0  0  0  0  0  0
    8.1063   -1.6439    0.0567 C   0  0  0  0  0  0  0  0  0  0  0  0
    9.2374   -2.5574    0.0294 C   0  0  0  0  0  0  0  0  0  0  0  0
   10.6519   -2.0366    0.2598 C   0  0  0  0  0  0  0  0  0  0  0  0
   -1.2330    1.5361   -1.4290 H   0  0  0  0  0  0  0  0  0  0  0  0
    0.4466    0.3141   -0.1152 H   0  0  0  0  0  0  0  0  0  0  0  0
   -2.2907    3.1602    0.5212 H   0  0  0  0  0  0  0  0  0  0  0  0
    1.6009    1.5705   -1.8726 H   0  0  0  0  0  0  0  0  0  0  0  0
   -0.9520    2.1389    2.6932 H   0  0  0  0  0  0  0  0  0  0  0  0
   -0.3394    3.5436    1.7972 H   0  0  0  0  0  0  0  0  0  0  0  0
    1.4831    3.9199   -1.9516 H   0  0  0  0  0  0  0  0  0  0  0  0
    1.3598    4.0879   -0.1959 H   0  0  0  0  0  0  0  0  0  0  0  0
   -2.0385    0.3301    1.3345 H   0  0  0  0  0  0  0  0  0  0  0  0
   -3.7083   -0.8424    1.3282 H   0  0  0  0  0  0  0  0  0  0  0  0
    4.9394    1.8081    0.7428 H   0  0  0  0  0  0  0  0  0  0  0  0
   -6.2975    1.0014   -0.6310 H   0  0  0  0  0  0  0  0  0  0  0  0
   -5.2787   -2.5971    1.5687 H   0  0  0  0  0  0  0  0  0  0  0  0
   -9.6128   -3.2633    0.1583 H   0  0  0  0  0  0  0  0  0  0  0  0
   -8.4757    0.1295   -1.0732 H   0  0  0  0  0  0  0  0  0  0  0  0
   -7.5221   -3.4757    1.1036 H   0  0  0  0  0  0  0  0  0  0  0  0
    7.1127    1.2578    1.5155 H   0  0  0  0  0  0  0  0  0  0  0  0
    5.0524   -1.3016   -1.3166 H   0  0  0  0  0  0  0  0  0  0  0  0
  -11.6103   -1.8690    0.1732 H   0  0  0  0  0  0  0  0  0  0  0  0
  -10.4744   -1.2734    1.3947 H   0  0  0  0  0  0  0  0  0  0  0  0
  -10.6701   -0.4024   -0.1344 H   0  0  0  0  0  0  0  0  0  0  0  0
   -9.0074   -3.0909   -2.2571 H   0  0  0  0  0  0  0  0  0  0  0  0
  -10.7487   -2.9365   -1.9718 H   0  0  0  0  0  0  0  0  0  0  0  0
   -9.7829   -1.5014   -2.3427 H   0  0  0  0  0  0  0  0  0  0  0  0
    9.0128   -0.2788    1.4805 H   0  0  0  0  0  0  0  0  0  0  0  0
    6.9264   -2.7908   -1.3506 H   0  0  0  0  0  0  0  0  0  0  0  0
   11.3587   -2.6716   -0.2829 H   0  0  0  0  0  0  0  0  0  0  0  0
   10.7594   -1.0199   -0.1278 H   0  0  0  0  0  0  0  0  0  0  0  0
   10.8821   -2.0631    1.3276 H   0  0  0  0  0  0  0  0  0  0  0  0
  1 11  1  0  0  0  0
  1 14  1  0  0  0  0
  2 10  1  0  0  0  0
  2 15  1  0  0  0  0
  3 13  1  0  0  0  0
  3 17  1  0  0  0  0
  4 16  2  0  0  0  0
  5 17  2  0  0  0  0
  6 33  2  0  0  0  0
  7 12  1  0  0  0  0
  7 16  1  0  0  0  0
  7 43  1  0  0  0  0
  8 16  1  0  0  0  0
  8 18  1  0  0  0  0
  8 44  1  0  0  0  0
  9 17  1  0  0  0  0
  9 19  1  0  0  0  0
  9 45  1  0  0  0  0
 10 11  1  0  0  0  0
 10 12  1  0  0  0  0
 10 35  1  0  0  0  0
 11 13  1  0  0  0  0
 11 36  1  0  0  0  0
 12 14  1  0  0  0  0
 12 37  1  0  0  0  0
 13 15  1  0  0  0  0
 13 38  1  0  0  0  0
 14 39  1  0  0  0  0
 14 40  1  0  0  0  0
 15 41  1  0  0  0  0
 15 42  1  0  0  0  0
 18 20  2  0  0  0  0
 18 21  1  0  0  0  0
 19 26  2  0  0  0  0
 19 27  1  0  0  0  0
 20 24  1  0  0  0  0
 20 46  1  0  0  0  0
 21 25  2  0  0  0  0
 21 47  1  0  0  0  0
 22 23  1  0  0  0  0
 22 24  2  0  0  0  0
 22 25  1  0  0  0  0
 23 28  1  0  0  0  0
 23 29  1  0  0  0  0
 23 48  1  0  0  0  0
 24 49  1  0  0  0  0
 25 50  1  0  0  0  0
 26 30  1  0  0  0  0
 26 51  1  0  0  0  0
 27 31  2  0  0  0  0
 27 52  1  0  0  0  0
 28 53  1  0  0  0  0
 28 54  1  0  0  0  0
 28 55  1  0  0  0  0
 29 56  1  0  0  0  0
 29 57  1  0  0  0  0
 29 58  1  0  0  0  0
 30 32  2  0  0  0  0
 30 59  1  0  0  0  0
 31 32  1  0  0  0  0
 31 60  1  0  0  0  0
 32 33  1  0  0  0  0
 33 34  1  0  0  0  0
 34 61  1  0  0  0  0
 34 62  1  0  0  0  0
 34 63  1  0  0  0  0
M  END
> <PUBCHEM_COMPOUND_CID>
11884160

> <PUBCHEM_CONFORMER_RMSD>
1.2

> <PUBCHEM_CONFORMER_DIVERSEORDER>
1
22
2
30
28
12
33
8
19
31
16
34
13
18
20
29
3
23
21
5
24
32
26
15
27
6
7
17
4
10
11
14
9
25

> <PUBCHEM_MMFF94_PARTIAL_CHARGES>
43
1 -0.56
10 0.28
11 0.28
12 0.3
13 0.28
14 0.28
15 0.28
16 0.69
17 0.78
18 0.12
19 0.12
2 -0.56
20 -0.15
21 -0.15
22 -0.14
23 0.14
24 -0.15
25 -0.15
26 -0.15
27 -0.15
3 -0.43
30 -0.15
31 -0.15
32 0.09
33 0.42
34 0.06
4 -0.57
43 0.37
44 0.37
45 0.37
46 0.15
47 0.15
49 0.15
5 -0.57
50 0.15
51 0.15
52 0.15
59 0.15
6 -0.57
60 0.15
7 -0.73
8 -0.55
9 -0.55

> <PUBCHEM_EFFECTIVE_ROTOR_COUNT>
11.2

> <PUBCHEM_PHARMACOPHORE_FEATURES>
13
1 1 acceptor
1 2 acceptor
1 4 acceptor
1 5 acceptor
1 6 acceptor
1 7 donor
1 8 donor
1 9 donor
3 23 28 29 hydrophobe
5 1 10 11 12 14 rings
5 2 10 11 13 15 rings
6 18 20 21 22 24 25 rings
6 19 26 27 30 31 32 rings

> <PUBCHEM_HEAVY_ATOM_COUNT>
34

> <PUBCHEM_ATOM_DEF_STEREO_COUNT>
4

> <PUBCHEM_ATOM_UDEF_STEREO_COUNT>
0

> <PUBCHEM_BOND_DEF_STEREO_COUNT>
0

> <PUBCHEM_BOND_UDEF_STEREO_COUNT>
0

> <PUBCHEM_ISOTOPIC_ATOM_COUNT>
0

> <PUBCHEM_COMPONENT_COUNT>
1

> <PUBCHEM_CACTVS_TAUTO_COUNT>
27

> <PUBCHEM_CONFORMER_ID>
00B5568000000001

> <PUBCHEM_MMFF94_ENERGY>
101.672

> <PUBCHEM_FEATURE_SELFOVERLAP>
66.741

> <PUBCHEM_SHAPE_FINGERPRINT>
10 15 11815906656525492077
10055352 69 8070021156795453701
10100884 174 18411418419273840194
10952577 141 11169913883728825707
11103572 95 17844821286950642951
11135609 99 18412265060205785918
11146346 178 18336265648958954789
11273773 46 18187087287073287867
11421887 21 10881676880823150582
11421887 45 8790592651368078262
11607047 74 18189620626452373260
11828042 58 17967817125412666281
12013929 112 16660633065154467727
12013929 94 18412548696389660178
12498461 61 18413110533751568385
12539745 222 18130509643516607625
12539765 74 7925639903274331544
12838863 1 18411699889359146526
13383665 225 14852145310565532543
14359421 15 17894345557992305962
14747281 78 8718554939202677768
15152005 77 18343581811182097566
15183329 4 13840268074684273316
15198563 99 15936683787828662013
15320295 40 18411136935110153705
15347590 135 16702028543440996938
15455200 90 17023733508952160327
15510800 12 18343028774023017087
15706992 2 10591765423868228457
16126227 98 10375867472232210128
16991971 28 18260267455863694408
16993427 108 18202562882319995001
1768 4 9799698112829073999
18603816 31 17774717684712120375
19302320 297 11959726075799896986
19841028 212 18334857255429764896
2026 5 18410572864534927679
20721686 146 8214148460425516659
20771845 65 18342458174660066665
21130935 74 18197779909030665586
21130991 4 18342735256860568959
212700 22 18335416897953173306
21307412 95 17313394456330401801
21344244 78 15123244272869085297
21360443 89 18410570662012822250
21792965 96 17531525383640762541
22002106 203 18201994474022595519
23523787 8 15068341232845262928
23528940 14 18337388233384114730
23576562 1 15141540184766889399
25025965 108 18202274845483218799
25242607 90 18413101775395210906
2835820 83 18410575067853137486
2851757 41 18408611369924087891
3711267 37 8718545059923308903
3918712 181 9655577392519174110
3986486 107 14273455881360062567
406291 66 18411420609279204338
44389302 135 17989491814377701295
474113 269 18335138695698668175
4760202 70 18188223057141862140
5372103 7 12107788493444212016
54039377 194 18410573994068544119
5470011 282 17604438521302717869
5718773 13 18408606967560964556
5719381 82 18335423478491423331
57303763 176 18342176632682869969
5758199 1 11095887059960254989
6126387 218 17918277554922477993
6438161 24 18340487859145177481

> <PUBCHEM_SHAPE_MULTIPOLES>
649.55
40.06
4.03
1.18
2.53
0.49
0.03
-54.11
1.38
-2.09
0.58
0.81
0.25
-0.6

> <PUBCHEM_SHAPE_SELFOVERLAP>
1390.458

> <PUBCHEM_SHAPE_VOLUME>
359.8

> <PUBCHEM_COORDINATE_TYPE>
2
5
10

$$$$
