38030802
  -OEChem-12032416263D

 64 66  0     1  0  0  0  0  0999 V2000
   -0.9837    1.0864    0.7480 O   0  0  0  0  0  0  0  0  0  0  0  0
   -6.4768   -1.8784   -0.1051 O   0  0  0  0  0  0  0  0  0  0  0  0
    3.7113   -1.7303    0.8226 N   0  0  0  0  0  0  0  0  0  0  0  0
   -0.8483    3.3191    0.7205 N   0  0  0  0  0  0  0  0  0  0  0  0
   -2.1685    2.9686    0.5081 N   0  0  0  0  0  0  0  0  0  0  0  0
    2.0689   -0.1828   -1.1625 C   0  0  1  0  0  0  0  0  0  0  0  0
    3.6165   -0.2448   -1.1312 C   0  0  1  0  0  0  0  0  0  0  0  0
    1.5935    1.2702   -1.3141 C   0  0  0  0  0  0  0  0  0  0  0  0
    2.0950    2.1699   -0.1688 C   0  0  2  0  0  0  0  0  0  0  0  0
    1.4880   -1.0391   -2.2920 C   0  0  0  0  0  0  0  0  0  0  0  0
    3.5718    1.9659    0.1020 C   0  0  0  0  0  0  0  0  0  0  0  0
    4.2378    0.8875   -0.3474 C   0  0  0  0  0  0  0  0  0  0  0  0
    4.1052   -1.5842   -0.5680 C   0  0  0  0  0  0  0  0  0  0  0  0
    1.2689    1.9554    1.1043 C   0  0  0  0  0  0  0  0  0  0  0  0
    0.0565   -1.4517   -1.9648 C   0  0  0  0  0  0  0  0  0  0  0  0
    1.5440   -0.2830   -3.6156 C   0  0  0  0  0  0  0  0  0  0  0  0
    4.2771    3.0537    0.8634 C   0  0  0  0  0  0  0  0  0  0  0  0
   -0.1936    2.1895    0.8553 C   0  0  0  0  0  0  0  0  0  0  0  0
    4.1631   -3.0062    1.3646 C   0  0  0  0  0  0  0  0  0  0  0  0
    3.2289   -4.1292    0.9227 C   0  0  0  0  0  0  0  0  0  0  0  0
    4.2307   -2.9163    2.8858 C   0  0  0  0  0  0  0  0  0  0  0  0
   -2.2005    1.6566    0.5321 C   0  0  0  0  0  0  0  0  0  0  0  0
   -3.2989    0.7489    0.3695 C   0  0  0  0  0  0  0  0  0  0  0  0
   -4.5840    1.2423    0.1445 C   0  0  0  0  0  0  0  0  0  0  0  0
   -3.0819   -0.6274    0.4357 C   0  0  0  0  0  0  0  0  0  0  0  0
   -5.6522    0.3594   -0.0140 C   0  0  0  0  0  0  0  0  0  0  0  0
   -4.1500   -1.5103    0.2773 C   0  0  0  0  0  0  0  0  0  0  0  0
   -5.4351   -1.0169    0.0524 C   0  0  0  0  0  0  0  0  0  0  0  0
   -6.1837   -3.2728   -0.0254 C   0  0  0  0  0  0  0  0  0  0  0  0
    1.6787   -0.5633   -0.2103 H   0  0  0  0  0  0  0  0  0  0  0  0
    4.0083   -0.1572   -2.1526 H   0  0  0  0  0  0  0  0  0  0  0  0
    0.5084    1.3344   -1.4314 H   0  0  0  0  0  0  0  0  0  0  0  0
    2.0156    1.7094   -2.2286 H   0  0  0  0  0  0  0  0  0  0  0  0
    1.9508    3.2075   -0.5032 H   0  0  0  0  0  0  0  0  0  0  0  0
    2.0620   -1.9639   -2.4070 H   0  0  0  0  0  0  0  0  0  0  0  0
    5.3084    0.8173   -0.1642 H   0  0  0  0  0  0  0  0  0  0  0  0
    5.2001   -1.6238   -0.6500 H   0  0  0  0  0  0  0  0  0  0  0  0
    3.7234   -2.4045   -1.1811 H   0  0  0  0  0  0  0  0  0  0  0  0
    1.5851    2.6550    1.8874 H   0  0  0  0  0  0  0  0  0  0  0  0
    1.4162    0.9482    1.5125 H   0  0  0  0  0  0  0  0  0  0  0  0
   -0.6134   -0.5912   -1.8748 H   0  0  0  0  0  0  0  0  0  0  0  0
    0.0152   -2.0145   -1.0260 H   0  0  0  0  0  0  0  0  0  0  0  0
   -0.3447   -2.0984   -2.7528 H   0  0  0  0  0  0  0  0  0  0  0  0
    0.8108    0.5277   -3.6805 H   0  0  0  0  0  0  0  0  0  0  0  0
    1.2986   -0.9717   -4.4335 H   0  0  0  0  0  0  0  0  0  0  0  0
    2.5402    0.1128   -3.8344 H   0  0  0  0  0  0  0  0  0  0  0  0
    4.1426    4.0174    0.3616 H   0  0  0  0  0  0  0  0  0  0  0  0
    5.3542    2.8708    0.9406 H   0  0  0  0  0  0  0  0  0  0  0  0
    3.8837    3.1323    1.8812 H   0  0  0  0  0  0  0  0  0  0  0  0
    4.1108   -0.9694    1.3708 H   0  0  0  0  0  0  0  0  0  0  0  0
    5.1802   -3.2329    1.0189 H   0  0  0  0  0  0  0  0  0  0  0  0
    3.5219   -5.0764    1.3891 H   0  0  0  0  0  0  0  0  0  0  0  0
    3.2518   -4.2852   -0.1600 H   0  0  0  0  0  0  0  0  0  0  0  0
    2.1921   -3.9247    1.2139 H   0  0  0  0  0  0  0  0  0  0  0  0
    4.5752   -3.8637    3.3146 H   0  0  0  0  0  0  0  0  0  0  0  0
    4.9305   -2.1361    3.2058 H   0  0  0  0  0  0  0  0  0  0  0  0
    3.2498   -2.6900    3.3190 H   0  0  0  0  0  0  0  0  0  0  0  0
   -4.7764    2.3110    0.0887 H   0  0  0  0  0  0  0  0  0  0  0  0
   -2.0948   -1.0486    0.6097 H   0  0  0  0  0  0  0  0  0  0  0  0
   -6.6511    0.7494   -0.1896 H   0  0  0  0  0  0  0  0  0  0  0  0
   -3.9110   -2.5665    0.3398 H   0  0  0  0  0  0  0  0  0  0  0  0
   -7.1265   -3.8100   -0.1719 H   0  0  0  0  0  0  0  0  0  0  0  0
   -5.8091   -3.5492    0.9660 H   0  0  0  0  0  0  0  0  0  0  0  0
   -5.5080   -3.5884   -0.8277 H   0  0  0  0  0  0  0  0  0  0  0  0
  1 18  1  0  0  0  0
  1 22  1  0  0  0  0
  2 28  1  0  0  0  0
  2 29  1  0  0  0  0
  3 13  1  0  0  0  0
  3 19  1  0  0  0  0
  3 50  1  0  0  0  0
  4  5  1  0  0  0  0
  4 18  2  0  0  0  0
  5 22  2  0  0  0  0
  6  7  1  0  0  0  0
  6  8  1  0  0  0  0
  6 10  1  0  0  0  0
  6 30  1  0  0  0  0
  7 12  1  0  0  0  0
  7 13  1  0  0  0  0
  7 31  1  0  0  0  0
  8  9  1  0  0  0  0
  8 32  1  0  0  0  0
  8 33  1  0  0  0  0
  9 11  1  0  0  0  0
  9 14  1  0  0  0  0
  9 34  1  0  0  0  0
 10 15  1  0  0  0  0
 10 16  1  0  0  0  0
 10 35  1  0  0  0  0
 11 12  2  0  0  0  0
 11 17  1  0  0  0  0
 12 36  1  0  0  0  0
 13 37  1  0  0  0  0
 13 38  1  0  0  0  0
 14 18  1  0  0  0  0
 14 39  1  0  0  0  0
 14 40  1  0  0  0  0
 15 41  1  0  0  0  0
 15 42  1  0  0  0  0
 15 43  1  0  0  0  0
 16 44  1  0  0  0  0
 16 45  1  0  0  0  0
 16 46  1  0  0  0  0
 17 47  1  0  0  0  0
 17 48  1  0  0  0  0
 17 49  1  0  0  0  0
 19 20  1  0  0  0  0
 19 21  1  0  0  0  0
 19 51  1  0  0  0  0
 20 52  1  0  0  0  0
 20 53  1  0  0  0  0
 20 54  1  0  0  0  0
 21 55  1  0  0  0  0
 21 56  1  0  0  0  0
 21 57  1  0  0  0  0
 22 23  1  0  0  0  0
 23 24  2  0  0  0  0
 23 25  1  0  0  0  0
 24 26  1  0  0  0  0
 24 58  1  0  0  0  0
 25 27  2  0  0  0  0
 25 59  1  0  0  0  0
 26 28  2  0  0  0  0
 26 60  1  0  0  0  0
 27 28  1  0  0  0  0
 27 61  1  0  0  0  0
 29 62  1  0  0  0  0
 29 63  1  0  0  0  0
 29 64  1  0  0  0  0
M  END
> <PUBCHEM_COMPOUND_CID>
38030802

> <PUBCHEM_CONFORMER_RMSD>
1

> <PUBCHEM_CONFORMER_DIVERSEORDER>
1
53
80
58
32
97
74
14
18
46
7
66
10
17
49
48
29
13
63
70
27
51
81
41
16
37
26
90
55
89
88
91
47
35
82
60
75
25
98
44
43
71
45
15
22
59
2
33
54
12
21
52
92
8
87
36
6
93
69
19
11
38
23
20
95
42
85
62
77
78
56
57
86
65
64
67
39
4
28
76
31
5
34
83
84
30
61
9
40
50
68
79
72
24
73
3
96
94

> <PUBCHEM_MMFF94_PARTIAL_CHARGES>
28
1 -0.28
11 -0.28
12 -0.29
13 0.27
14 0.18
17 0.14
18 0.3
19 0.27
2 -0.36
22 0.43
23 0.05
24 -0.15
25 -0.15
26 -0.15
27 -0.15
28 0.08
29 0.28
3 -0.9
36 0.15
4 -0.34
5 -0.34
50 0.36
58 0.15
59 0.15
60 0.15
61 0.15
7 0.14
9 0.14

> <PUBCHEM_EFFECTIVE_ROTOR_COUNT>
8.8

> <PUBCHEM_PHARMACOPHORE_FEATURES>
8
1 2 acceptor
1 3 cation
1 3 donor
3 10 15 16 hydrophobe
3 19 20 21 hydrophobe
5 1 4 5 18 22 rings
6 23 24 25 26 27 28 rings
6 6 7 8 9 11 12 rings

> <PUBCHEM_HEAVY_ATOM_COUNT>
29

> <PUBCHEM_ATOM_DEF_STEREO_COUNT>
3

> <PUBCHEM_ATOM_UDEF_STEREO_COUNT>
0

> <PUBCHEM_BOND_DEF_STEREO_COUNT>
0

> <PUBCHEM_BOND_UDEF_STEREO_COUNT>
0

> <PUBCHEM_ISOTOPIC_ATOM_COUNT>
0

> <PUBCHEM_COMPONENT_COUNT>
1

> <PUBCHEM_CACTVS_TAUTO_COUNT>
1

> <PUBCHEM_CONFORMER_ID>
02444DD200000001

> <PUBCHEM_MMFF94_ENERGY>
59.5702

> <PUBCHEM_FEATURE_SELFOVERLAP>
40.596

> <PUBCHEM_SHAPE_FINGERPRINT>
11796584 16 18269561550333700477
11963148 33 18124024887281891495
12166972 35 17895199874474505015
12422481 6 17346589738675054751
12633257 1 18127423258410548097
131258 38 18269264819844405046
13165053 137 13137930442091383275
13402501 40 18129670823792336581
13533116 47 18260267438626205523
14068700 675 18262228903109120834
14178342 30 17342669851031568664
15003188 105 18409452505183051358
15297060 5 15984550047570706412
17492 89 18270687463230855814
18681886 176 17632303363440579612
19315092 285 18040704836694826122
19319366 153 18194396925820258388
1979834 28 16988852678559007119
20626108 58 18339364033480991032
21197605 99 17629487668295098871
21315764 119 17458621221140746415
21623969 137 17774170131488233597
21703447 108 18411975862973374848
23559900 14 17771639952931194165
25222932 49 18268991075682011895
3004659 81 18411989039626719741
3680242 22 18268159673366625323
4073 2 18264776630733479905
439807 62 18334580170579946187
484985 159 16528053656418837938
5104073 3 18131638872244326089
59025328 239 17168147780674489270
66674814 147 17313671417239014474
6679774 75 17693355047774451616
6823239 73 17559135184868801420
9709674 26 17843982359299588453

> <PUBCHEM_SHAPE_MULTIPOLES>
570.12
13.25
4.55
2.15
19.18
1.84
-1.44
9.07
2.94
-2.95
2.71
-3.08
1.28
-2.02

> <PUBCHEM_SHAPE_SELFOVERLAP>
1186.903

> <PUBCHEM_SHAPE_VOLUME>
326

> <PUBCHEM_COORDINATE_TYPE>
2
5
10

$$$$
