7144075
  -OEChem-12032416283D

 56 60  0     1  0  0  0  0  0999 V2000
    9.1445   -1.3794    0.7065 Cl  0  0  0  0  0  0  0  0  0  0  0  0
    1.0326    2.4263    1.5339 O   0  0  0  0  0  0  0  0  0  0  0  0
   -6.2084   -2.3980    0.1654 O   0  0  0  0  0  0  0  0  0  0  0  0
   -3.5633    0.6574    0.6331 N   0  0  2  0  0  0  0  0  0  0  0  0
   -0.8013    2.1709    0.1184 N   0  0  0  0  0  0  0  0  0  0  0  0
   -3.1160    3.1238    0.6713 C   0  0  1  0  0  0  0  0  0  0  0  0
   -2.7823    1.8719   -1.4062 C   0  0  2  0  0  0  0  0  0  0  0  0
   -3.2831    3.1981   -0.8405 C   0  0  0  0  0  0  0  0  0  0  0  0
   -3.9341    1.9433    1.2365 C   0  0  0  0  0  0  0  0  0  0  0  0
   -3.6311    0.7132   -0.8349 C   0  0  0  0  0  0  0  0  0  0  0  0
   -1.6208    3.0152    0.9998 C   0  0  0  0  0  0  0  0  0  0  0  0
   -1.3149    1.6669   -1.0788 C   0  0  0  0  0  0  0  0  0  0  0  0
   -4.3940   -0.4252    1.1546 C   0  0  0  0  0  0  0  0  0  0  0  0
   -0.5179    0.9910   -1.9212 C   0  0  0  0  0  0  0  0  0  0  0  0
    0.5439    1.9806    0.4939 C   0  0  0  0  0  0  0  0  0  0  0  0
    1.4065    1.1956   -0.4582 C   0  0  0  0  0  0  0  0  0  0  0  0
    0.8608    0.7539   -1.5999 C   0  0  0  0  0  0  0  0  0  0  0  0
   -3.9440   -1.7579    0.6211 C   0  0  0  0  0  0  0  0  0  0  0  0
   -4.8748   -2.6768    0.1533 C   0  0  0  0  0  0  0  0  0  0  0  0
    2.7889    0.9451   -0.1368 C   0  0  0  0  0  0  0  0  0  0  0  0
   -2.5858   -2.0500    0.6054 C   0  0  0  0  0  0  0  0  0  0  0  0
   -4.4406   -3.9079   -0.3381 C   0  0  0  0  0  0  0  0  0  0  0  0
   -2.1516   -3.2812    0.1138 C   0  0  0  0  0  0  0  0  0  0  0  0
    3.4444   -0.1474   -0.5479 C   0  0  0  0  0  0  0  0  0  0  0  0
   -3.0789   -4.2102   -0.3578 C   0  0  0  0  0  0  0  0  0  0  0  0
    4.8522   -0.4517   -0.2376 C   0  0  0  0  0  0  0  0  0  0  0  0
    5.6975    0.5734    0.1552 C   0  0  0  0  0  0  0  0  0  0  0  0
    5.3040   -1.7571   -0.3452 C   0  0  0  0  0  0  0  0  0  0  0  0
    7.0305    0.2854    0.4483 C   0  0  0  0  0  0  0  0  0  0  0  0
    6.6370   -2.0452   -0.0520 C   0  0  0  0  0  0  0  0  0  0  0  0
    7.5002   -1.0239    0.3447 C   0  0  0  0  0  0  0  0  0  0  0  0
   -3.5034    4.0428    1.1285 H   0  0  0  0  0  0  0  0  0  0  0  0
   -2.9181    1.8948   -2.4957 H   0  0  0  0  0  0  0  0  0  0  0  0
   -2.7177    4.0421   -1.2550 H   0  0  0  0  0  0  0  0  0  0  0  0
   -4.3361    3.3553   -1.1036 H   0  0  0  0  0  0  0  0  0  0  0  0
   -3.7792    1.8967    2.3217 H   0  0  0  0  0  0  0  0  0  0  0  0
   -5.0016    2.1466    1.0745 H   0  0  0  0  0  0  0  0  0  0  0  0
   -4.6723    0.8453   -1.1615 H   0  0  0  0  0  0  0  0  0  0  0  0
   -3.2737   -0.2120   -1.3006 H   0  0  0  0  0  0  0  0  0  0  0  0
   -1.1773    4.0187    0.9421 H   0  0  0  0  0  0  0  0  0  0  0  0
   -1.4768    2.6819    2.0353 H   0  0  0  0  0  0  0  0  0  0  0  0
   -5.4486   -0.2325    0.9227 H   0  0  0  0  0  0  0  0  0  0  0  0
   -4.3126   -0.4690    2.2486 H   0  0  0  0  0  0  0  0  0  0  0  0
   -0.8926    0.5841   -2.8546 H   0  0  0  0  0  0  0  0  0  0  0  0
    1.4226    0.2053   -2.3496 H   0  0  0  0  0  0  0  0  0  0  0  0
    3.2642    1.6969    0.4847 H   0  0  0  0  0  0  0  0  0  0  0  0
   -1.8452   -1.3495    0.9816 H   0  0  0  0  0  0  0  0  0  0  0  0
   -5.1519   -4.6412   -0.7087 H   0  0  0  0  0  0  0  0  0  0  0  0
   -1.0916   -3.5176    0.1013 H   0  0  0  0  0  0  0  0  0  0  0  0
    2.9391   -0.9149   -1.1300 H   0  0  0  0  0  0  0  0  0  0  0  0
   -2.7407   -5.1689   -0.7398 H   0  0  0  0  0  0  0  0  0  0  0  0
   -6.6948   -3.1572   -0.1991 H   0  0  0  0  0  0  0  0  0  0  0  0
    5.3830    1.6096    0.2275 H   0  0  0  0  0  0  0  0  0  0  0  0
    4.6439   -2.5642   -0.6516 H   0  0  0  0  0  0  0  0  0  0  0  0
    7.6936    1.0917    0.7514 H   0  0  0  0  0  0  0  0  0  0  0  0
    6.9891   -3.0701   -0.1367 H   0  0  0  0  0  0  0  0  0  0  0  0
  1 31  1  0  0  0  0
  2 15  2  0  0  0  0
  3 19  1  0  0  0  0
  3 52  1  0  0  0  0
  4  9  1  0  0  0  0
  4 10  1  0  0  0  0
  4 13  1  0  0  0  0
  5 11  1  0  0  0  0
  5 12  1  0  0  0  0
  5 15  1  0  0  0  0
  6  8  1  0  0  0  0
  6  9  1  0  0  0  0
  6 11  1  0  0  0  0
  6 32  1  0  0  0  0
  7  8  1  0  0  0  0
  7 10  1  0  0  0  0
  7 12  1  0  0  0  0
  7 33  1  0  0  0  0
  8 34  1  0  0  0  0
  8 35  1  0  0  0  0
  9 36  1  0  0  0  0
  9 37  1  0  0  0  0
 10 38  1  0  0  0  0
 10 39  1  0  0  0  0
 11 40  1  0  0  0  0
 11 41  1  0  0  0  0
 12 14  2  0  0  0  0
 13 18  1  0  0  0  0
 13 42  1  0  0  0  0
 13 43  1  0  0  0  0
 14 17  1  0  0  0  0
 14 44  1  0  0  0  0
 15 16  1  0  0  0  0
 16 17  2  0  0  0  0
 16 20  1  0  0  0  0
 17 45  1  0  0  0  0
 18 19  1  0  0  0  0
 18 21  2  0  0  0  0
 19 22  2  0  0  0  0
 20 24  2  0  0  0  0
 20 46  1  0  0  0  0
 21 23  1  0  0  0  0
 21 47  1  0  0  0  0
 22 25  1  0  0  0  0
 22 48  1  0  0  0  0
 23 25  2  0  0  0  0
 23 49  1  0  0  0  0
 24 26  1  0  0  0  0
 24 50  1  0  0  0  0
 25 51  1  0  0  0  0
 26 27  2  0  0  0  0
 26 28  1  0  0  0  0
 27 29  1  0  0  0  0
 27 53  1  0  0  0  0
 28 30  2  0  0  0  0
 28 54  1  0  0  0  0
 29 31  2  0  0  0  0
 29 55  1  0  0  0  0
 30 31  1  0  0  0  0
 30 56  1  0  0  0  0
M  END
> <PUBCHEM_COMPOUND_CID>
7144075

> <PUBCHEM_CONFORMER_RMSD>
0.8

> <PUBCHEM_CONFORMER_DIVERSEORDER>
1
7
9
11
14
16
10
15
13
4
12
8
3
5
6
2

> <PUBCHEM_MMFF94_PARTIAL_CHARGES>
42
1 -0.18
10 0.27
11 0.3
12 -0.03
13 0.41
14 -0.15
15 0.62
16 0.01
17 -0.15
18 -0.14
19 0.08
2 -0.57
20 -0.15
21 -0.15
22 -0.15
23 -0.15
24 -0.18
25 -0.15
26 0.03
27 -0.15
28 -0.15
29 -0.15
3 -0.53
30 -0.15
31 0.18
4 -0.81
44 0.15
45 0.15
46 0.15
47 0.15
48 0.15
49 0.15
5 -0.47
50 0.15
51 0.15
52 0.45
53 0.15
54 0.15
55 0.15
56 0.15
7 0.14
9 0.27

> <PUBCHEM_EFFECTIVE_ROTOR_COUNT>
5

> <PUBCHEM_PHARMACOPHORE_FEATURES>
8
1 2 acceptor
1 3 donor
1 4 cation
6 18 19 21 22 23 25 rings
6 26 27 28 29 30 31 rings
6 4 6 7 8 9 10 rings
6 5 12 14 15 16 17 rings
6 5 6 7 8 11 12 rings

> <PUBCHEM_HEAVY_ATOM_COUNT>
31

> <PUBCHEM_ATOM_DEF_STEREO_COUNT>
2

> <PUBCHEM_ATOM_UDEF_STEREO_COUNT>
0

> <PUBCHEM_BOND_DEF_STEREO_COUNT>
1

> <PUBCHEM_BOND_UDEF_STEREO_COUNT>
0

> <PUBCHEM_ISOTOPIC_ATOM_COUNT>
0

> <PUBCHEM_COMPONENT_COUNT>
1

> <PUBCHEM_CACTVS_TAUTO_COUNT>
3

> <PUBCHEM_CONFORMER_ID>
006D028B00000001

> <PUBCHEM_MMFF94_ENERGY>
89.4447

> <PUBCHEM_FEATURE_SELFOVERLAP>
42.148

> <PUBCHEM_SHAPE_FINGERPRINT>
10462674 296 17697302272916788398
10483366 6 18337095823414575415
10939801 23 18268995465918972270
11756154 5 18343576339799138280
12202916 173 17988921133704141405
12522641 33 17972304128880685381
12633257 1 17915488136397807569
12643181 29 18336259067998308055
12838863 1 18200589337102269031
13631057 29 18335417976332147426
13782708 43 17458345196556558184
14068700 675 18335139855629852143
14251751 18 18407762551663567180
14344974 204 18342177799949306102
14659021 117 18262797483537690322
14705955 166 17202782427262033811
14844126 61 18409455782432606481
14856354 85 18343022164532890604
14866123 147 18412553115721285979
14950920 106 17774730851994952241
15021287 119 17023194807882957500
15348495 7 18343017783951052384
15361156 5 17822589230936264828
15803439 3 17609181630250842573
17324776 126 17840011176693531622
17627616 140 18042679503343375779
17780758 139 18412827953934540689
18608769 82 18412260645723255842
19304152 47 13829866711243104195
19611394 137 18201720652998820488
20775530 9 18189607410193775395
22122407 14 12031206469478125738
22956985 138 18124312971807147489
23523787 8 17683198605601842127
23559900 14 18337945787856298537
244849 19 17773575257158745024
24983565 74 18044644314534651474
2838139 119 9295294928329388470
3383291 50 18412548695936590267
397830 11 18342448284409810280
4073 2 18341331081785160070
4616759 239 17916576545519092002
484985 159 18335695040551694127
5080951 261 18116129144253732870
5104073 3 18341039762827738376
6009941 240 18270396079933599444
6609424 69 10990341082077203007
68570916 9 18261116284079894556

> <PUBCHEM_SHAPE_MULTIPOLES>
618.13
18.8
4.9
1.27
47.72
3.05
0.22
14.17
-4.12
-9.33
-0.23
-0.71
-0.75
-0.08

> <PUBCHEM_SHAPE_SELFOVERLAP>
1350.838

> <PUBCHEM_SHAPE_VOLUME>
333.1

> <PUBCHEM_COORDINATE_TYPE>
2
5
10

$$$$
