51137748
  -OEChem-12032416223D

 40 43  0     1  0  0  0  0  0999 V2000
   -1.3251    0.7145   -0.2940 O   0  0  0  0  0  0  0  0  0  0  0  0
    2.5293    0.0518    2.4465 O   0  0  0  0  0  0  0  0  0  0  0  0
    1.6449    1.3510    0.7366 N   0  0  0  0  0  0  0  0  0  0  0  0
   -2.3138    2.5019   -1.2064 N   0  0  0  0  0  0  0  0  0  0  0  0
   -3.2699    1.5148   -1.0566 N   0  0  0  0  0  0  0  0  0  0  0  0
   -2.9267   -1.5686    0.8090 N   0  0  0  0  0  0  0  0  0  0  0  0
   -4.6664   -2.5337   -0.1778 N   0  0  0  0  0  0  0  0  0  0  0  0
    4.3311   -2.2828   -1.5347 N   0  0  0  0  0  0  0  0  0  0  0  0
    0.1882    2.6129   -0.6595 C   0  0  1  0  0  0  0  0  0  0  0  0
    0.3938    3.3503    0.6728 C   0  0  0  0  0  0  0  0  0  0  0  0
    1.3786    1.6434   -0.6728 C   0  0  0  0  0  0  0  0  0  0  0  0
    0.9345    2.2756    1.6061 C   0  0  0  0  0  0  0  0  0  0  0  0
   -1.1948    1.9910   -0.7482 C   0  0  0  0  0  0  0  0  0  0  0  0
    2.3921    0.3027    1.2508 C   0  0  0  0  0  0  0  0  0  0  0  0
    3.0620   -0.5891    0.2915 C   0  0  0  0  0  0  0  0  0  0  0  0
   -2.6482    0.4905   -0.5209 C   0  0  0  0  0  0  0  0  0  0  0  0
   -3.2909   -0.7325   -0.2087 C   0  0  0  0  0  0  0  0  0  0  0  0
    4.0001   -0.0783   -0.5988 C   0  0  0  0  0  0  0  0  0  0  0  0
    2.7578   -1.9457    0.2698 C   0  0  0  0  0  0  0  0  0  0  0  0
   -4.3665   -1.3493   -0.8030 C   0  0  0  0  0  0  0  0  0  0  0  0
   -3.7807   -2.6360    0.7883 C   0  0  0  0  0  0  0  0  0  0  0  0
    4.6009   -0.9590   -1.4838 C   0  0  0  0  0  0  0  0  0  0  0  0
    3.4142   -2.7428   -0.6541 C   0  0  0  0  0  0  0  0  0  0  0  0
   -1.8445   -1.3829    1.7479 C   0  0  0  0  0  0  0  0  0  0  0  0
    0.2690    3.3117   -1.5010 H   0  0  0  0  0  0  0  0  0  0  0  0
    1.1554    4.1293    0.5399 H   0  0  0  0  0  0  0  0  0  0  0  0
   -0.5097    3.8254    1.0674 H   0  0  0  0  0  0  0  0  0  0  0  0
    1.1935    0.7276   -1.2417 H   0  0  0  0  0  0  0  0  0  0  0  0
    2.2646    2.1470   -1.0745 H   0  0  0  0  0  0  0  0  0  0  0  0
    0.1271    1.7225    2.0988 H   0  0  0  0  0  0  0  0  0  0  0  0
    1.6052    2.6729    2.3739 H   0  0  0  0  0  0  0  0  0  0  0  0
    4.2809    0.9693   -0.6006 H   0  0  0  0  0  0  0  0  0  0  0  0
    2.0287   -2.3767    0.9477 H   0  0  0  0  0  0  0  0  0  0  0  0
   -4.9442   -1.0061   -1.6498 H   0  0  0  0  0  0  0  0  0  0  0  0
   -3.7122   -3.4528    1.4939 H   0  0  0  0  0  0  0  0  0  0  0  0
   -1.9105   -2.1431    2.5309 H   0  0  0  0  0  0  0  0  0  0  0  0
   -1.9323   -0.3912    2.1986 H   0  0  0  0  0  0  0  0  0  0  0  0
   -0.8979   -1.4889    1.2120 H   0  0  0  0  0  0  0  0  0  0  0  0
    5.3430   -0.6116   -2.1951 H   0  0  0  0  0  0  0  0  0  0  0  0
    3.2118   -3.8072   -0.7123 H   0  0  0  0  0  0  0  0  0  0  0  0
  1 13  1  0  0  0  0
  1 16  1  0  0  0  0
  2 14  2  0  0  0  0
  3 11  1  0  0  0  0
  3 12  1  0  0  0  0
  3 14  1  0  0  0  0
  4  5  1  0  0  0  0
  4 13  2  0  0  0  0
  5 16  2  0  0  0  0
  6 17  1  0  0  0  0
  6 21  1  0  0  0  0
  6 24  1  0  0  0  0
  7 20  1  0  0  0  0
  7 21  2  0  0  0  0
  8 22  2  0  0  0  0
  8 23  1  0  0  0  0
  9 10  1  0  0  0  0
  9 11  1  0  0  0  0
  9 13  1  0  0  0  0
  9 25  1  0  0  0  0
 10 12  1  0  0  0  0
 10 26  1  0  0  0  0
 10 27  1  0  0  0  0
 11 28  1  0  0  0  0
 11 29  1  0  0  0  0
 12 30  1  0  0  0  0
 12 31  1  0  0  0  0
 14 15  1  0  0  0  0
 15 18  2  0  0  0  0
 15 19  1  0  0  0  0
 16 17  1  0  0  0  0
 17 20  2  0  0  0  0
 18 22  1  0  0  0  0
 18 32  1  0  0  0  0
 19 23  2  0  0  0  0
 19 33  1  0  0  0  0
 20 34  1  0  0  0  0
 21 35  1  0  0  0  0
 22 39  1  0  0  0  0
 23 40  1  0  0  0  0
 24 36  1  0  0  0  0
 24 37  1  0  0  0  0
 24 38  1  0  0  0  0
M  END
> <PUBCHEM_COMPOUND_CID>
51137748

> <PUBCHEM_CONFORMER_RMSD>
0.8

> <PUBCHEM_CONFORMER_DIVERSEORDER>
1
24
77
99
93
29
4
98
83
75
30
66
78
42
97
87
111
8
70
95
40
60
102
63
113
91
110
112
51
65
43
67
41
28
68
62
55
92
33
107
90
36
23
72
80
3
53
32
13
16
18
44
17
39
21
71
15
74
45
26
6
76
54
57
100
89
48
105
104
106
38
52
69
81
7
49
14
19
108
64
2
31
85
50
101
34
11
25
37
88
35
27
20
103
96
109
61
94
84
56
46
5
9
58
12
73
22
10
47
82
86
59
79

> <PUBCHEM_MMFF94_PARTIAL_CHARGES>
29
1 -0.28
11 0.3
12 0.3
13 0.3
14 0.54
15 0.09
16 0.48
17 -0.15
18 -0.15
19 -0.15
2 -0.57
20 0.08
21 0.04
22 0.16
23 0.16
24 0.26
3 -0.66
32 0.15
33 0.15
34 0.15
35 0.15
39 0.15
4 -0.34
40 0.15
5 -0.34
6 0.05
7 -0.57
8 -0.62
9 0.18

> <PUBCHEM_EFFECTIVE_ROTOR_COUNT>
5

> <PUBCHEM_PHARMACOPHORE_FEATURES>
7
1 2 acceptor
1 8 acceptor
3 6 7 21 cation
5 1 4 5 13 16 rings
5 3 9 10 11 12 rings
5 6 7 17 20 21 rings
6 8 15 18 19 22 23 rings

> <PUBCHEM_HEAVY_ATOM_COUNT>
24

> <PUBCHEM_ATOM_DEF_STEREO_COUNT>
1

> <PUBCHEM_ATOM_UDEF_STEREO_COUNT>
0

> <PUBCHEM_BOND_DEF_STEREO_COUNT>
0

> <PUBCHEM_BOND_UDEF_STEREO_COUNT>
0

> <PUBCHEM_ISOTOPIC_ATOM_COUNT>
0

> <PUBCHEM_COMPONENT_COUNT>
1

> <PUBCHEM_CACTVS_TAUTO_COUNT>
1

> <PUBCHEM_CONFORMER_ID>
030C4CD400000001

> <PUBCHEM_MMFF94_ENERGY>
48.3205

> <PUBCHEM_FEATURE_SELFOVERLAP>
35.523

> <PUBCHEM_SHAPE_FINGERPRINT>
10577160 103 18189919629310769060
10764073 3 10662448508634961740
114674 6 18264481973990525747
12363563 72 18411703187909432022
12506688 2 18412825798045515904
12553582 1 18186239541494775153
13103583 49 17131571460765759963
13135754 10 16771574784227676176
13533116 47 18056482979373035075
13583140 156 16773506772181448513
13631057 29 18339651049308145374
13911882 115 18343578573408874874
14251740 57 18051981608533491499
14251740 79 17975146340024992946
14251757 5 18264494974988386389
14251764 30 17346057588375342238
14363568 33 18049463704944926186
14790565 3 17688591563712295629
14863182 85 17902793299112455988
14866123 147 18125444099411252153
14932701 244 14492477588406223843
15475509 8 18410007703374241543
15635459 17 18262796414095939147
15664445 248 17024590238162319829
17357779 13 18409166631743046170
20645477 70 17973717266960709917
20775530 9 18412266133684294195
21279426 13 18189318196371306191
21591331 117 18194714563999491155
23379529 103 18198916807711314078
23559900 14 18261948673915538341
238078 22 18339370647672526676
329604 57 18335708252045111422
3737641 26 18059030379957725758
4280585 95 18114738236332782148
46194498 28 18043818795062988351
484985 159 17771079197748693706
5309563 4 18341898519146456327
6823239 73 18411130351226002154
7987 15 18271254849669216079
9709674 26 18189889997571802883
9862886 166 18194681467757409774

> <PUBCHEM_SHAPE_MULTIPOLES>
452.28
9.13
3.91
1.62
1.12
0.87
-0.62
-8.92
2.77
0.73
0.19
-0.8
0.07
2.09

> <PUBCHEM_SHAPE_SELFOVERLAP>
993.076

> <PUBCHEM_SHAPE_VOLUME>
246.6

> <PUBCHEM_COORDINATE_TYPE>
2
5
10

$$$$
