51137148
  -OEChem-12032416343D

 43 46  0     1  0  0  0  0  0999 V2000
    7.3767    1.1904   -0.9588 F   0  0  0  0  0  0  0  0  0  0  0  0
    2.8677   -1.2964    0.7343 O   0  0  0  0  0  0  0  0  0  0  0  0
   -4.1769   -1.7941   -0.6882 O   0  0  0  0  0  0  0  0  0  0  0  0
   -1.6078    0.0419    0.0357 N   0  0  1  0  0  0  0  0  0  0  0  0
    2.5842    0.7912   -0.1011 N   0  0  0  0  0  0  0  0  0  0  0  0
    0.5613   -0.5092    0.7359 C   0  0  1  0  0  0  0  0  0  0  0  0
   -0.0598    0.4925    1.7249 C   0  0  0  0  0  0  0  0  0  0  0  0
   -0.3336   -0.4325   -0.5083 C   0  0  0  0  0  0  0  0  0  0  0  0
   -1.2445    1.0966    0.9821 C   0  0  0  0  0  0  0  0  0  0  0  0
   -2.5125    0.5156   -1.0014 C   0  0  0  0  0  0  0  0  0  0  0  0
    2.0218   -0.2736    0.4267 C   0  0  0  0  0  0  0  0  0  0  0  0
   -3.9357    0.5847   -0.5152 C   0  0  0  0  0  0  0  0  0  0  0  0
    3.9151    0.4542   -0.1511 C   0  0  0  0  0  0  0  0  0  0  0  0
    4.0925   -0.8233    0.3595 C   0  0  0  0  0  0  0  0  0  0  0  0
   -4.7005   -0.5741   -0.3816 C   0  0  0  0  0  0  0  0  0  0  0  0
   -4.4881    1.8254   -0.1974 C   0  0  0  0  0  0  0  0  0  0  0  0
    5.0352    1.1622   -0.6096 C   0  0  0  0  0  0  0  0  0  0  0  0
    5.3162   -1.4742    0.4566 C   0  0  0  0  0  0  0  0  0  0  0  0
   -6.0176   -0.4922    0.0699 C   0  0  0  0  0  0  0  0  0  0  0  0
   -5.8055    1.9074    0.2542 C   0  0  0  0  0  0  0  0  0  0  0  0
   -6.5703    0.7485    0.3878 C   0  0  0  0  0  0  0  0  0  0  0  0
    6.2883    0.5380   -0.5278 C   0  0  0  0  0  0  0  0  0  0  0  0
    6.4233   -0.7541   -0.0050 C   0  0  0  0  0  0  0  0  0  0  0  0
   -5.0296   -2.9251   -0.5220 C   0  0  0  0  0  0  0  0  0  0  0  0
    0.4632   -1.5122    1.1753 H   0  0  0  0  0  0  0  0  0  0  0  0
   -0.4082   -0.0448    2.6159 H   0  0  0  0  0  0  0  0  0  0  0  0
    0.6400    1.2670    2.0562 H   0  0  0  0  0  0  0  0  0  0  0  0
   -0.4360   -1.4134   -0.9851 H   0  0  0  0  0  0  0  0  0  0  0  0
    0.0718    0.2694   -1.2494 H   0  0  0  0  0  0  0  0  0  0  0  0
   -2.0569    1.3413    1.6734 H   0  0  0  0  0  0  0  0  0  0  0  0
   -0.9284    2.0155    0.4716 H   0  0  0  0  0  0  0  0  0  0  0  0
   -2.1922    1.4818   -1.4149 H   0  0  0  0  0  0  0  0  0  0  0  0
   -2.4963   -0.1732   -1.8579 H   0  0  0  0  0  0  0  0  0  0  0  0
   -3.9038    2.7366   -0.2950 H   0  0  0  0  0  0  0  0  0  0  0  0
    4.9425    2.1636   -1.0166 H   0  0  0  0  0  0  0  0  0  0  0  0
    5.4099   -2.4736    0.8625 H   0  0  0  0  0  0  0  0  0  0  0  0
   -6.6714   -1.3478    0.1986 H   0  0  0  0  0  0  0  0  0  0  0  0
   -6.2355    2.8734    0.5021 H   0  0  0  0  0  0  0  0  0  0  0  0
   -7.5959    0.8136    0.7396 H   0  0  0  0  0  0  0  0  0  0  0  0
    7.4103   -1.2078    0.0433 H   0  0  0  0  0  0  0  0  0  0  0  0
   -5.3178   -3.0634    0.5257 H   0  0  0  0  0  0  0  0  0  0  0  0
   -5.8955   -2.8802   -1.1914 H   0  0  0  0  0  0  0  0  0  0  0  0
   -4.4513   -3.8090   -0.8108 H   0  0  0  0  0  0  0  0  0  0  0  0
  1 22  1  0  0  0  0
  2 11  1  0  0  0  0
  2 14  1  0  0  0  0
  3 15  1  0  0  0  0
  3 24  1  0  0  0  0
  4  8  1  0  0  0  0
  4  9  1  0  0  0  0
  4 10  1  0  0  0  0
  5 11  2  0  0  0  0
  5 13  1  0  0  0  0
  6  7  1  0  0  0  0
  6  8  1  0  0  0  0
  6 11  1  0  0  0  0
  6 25  1  0  0  0  0
  7  9  1  0  0  0  0
  7 26  1  0  0  0  0
  7 27  1  0  0  0  0
  8 28  1  0  0  0  0
  8 29  1  0  0  0  0
  9 30  1  0  0  0  0
  9 31  1  0  0  0  0
 10 12  1  0  0  0  0
 10 32  1  0  0  0  0
 10 33  1  0  0  0  0
 12 15  1  0  0  0  0
 12 16  2  0  0  0  0
 13 14  2  0  0  0  0
 13 17  1  0  0  0  0
 14 18  1  0  0  0  0
 15 19  2  0  0  0  0
 16 20  1  0  0  0  0
 16 34  1  0  0  0  0
 17 22  2  0  0  0  0
 17 35  1  0  0  0  0
 18 23  2  0  0  0  0
 18 36  1  0  0  0  0
 19 21  1  0  0  0  0
 19 37  1  0  0  0  0
 20 21  2  0  0  0  0
 20 38  1  0  0  0  0
 21 39  1  0  0  0  0
 22 23  1  0  0  0  0
 23 40  1  0  0  0  0
 24 41  1  0  0  0  0
 24 42  1  0  0  0  0
 24 43  1  0  0  0  0
M  END
> <PUBCHEM_COMPOUND_CID>
51137148

> <PUBCHEM_CONFORMER_RMSD>
0.8

> <PUBCHEM_CONFORMER_DIVERSEORDER>
1
83
68
79
65
43
62
61
15
72
64
31
93
29
71
82
46
77
52
18
84
41
92
88
94
6
91
67
45
75
78
69
38
24
86
76
85
44
97
70
30
8
21
81
89
49
32
66
80
59
47
4
3
74
90
28
17
37
2
98
7
50
63
9
55
23
96
51
56
95
35
53
42
22
27
54
20
39
40
99
5
25
57
34
48
16
26
12
58
19
10
13
36
11
60
87
33
14
73

> <PUBCHEM_MMFF94_PARTIAL_CHARGES>
30
1 -0.19
10 0.41
11 0.3
12 -0.14
13 0.23
14 0.14
15 0.08
16 -0.15
17 -0.15
18 -0.15
19 -0.15
2 -0.28
20 -0.15
21 -0.15
22 0.19
23 -0.15
24 0.28
3 -0.36
34 0.15
35 0.15
36 0.15
37 0.15
38 0.15
39 0.15
4 -0.81
40 0.15
5 -0.57
6 0.18
8 0.27
9 0.27

> <PUBCHEM_EFFECTIVE_ROTOR_COUNT>
5

> <PUBCHEM_PHARMACOPHORE_FEATURES>
6
1 3 acceptor
1 4 cation
5 2 5 11 13 14 rings
5 4 6 7 8 9 rings
6 12 15 16 19 20 21 rings
6 13 14 17 18 22 23 rings

> <PUBCHEM_HEAVY_ATOM_COUNT>
24

> <PUBCHEM_ATOM_DEF_STEREO_COUNT>
1

> <PUBCHEM_ATOM_UDEF_STEREO_COUNT>
0

> <PUBCHEM_BOND_DEF_STEREO_COUNT>
0

> <PUBCHEM_BOND_UDEF_STEREO_COUNT>
0

> <PUBCHEM_ISOTOPIC_ATOM_COUNT>
0

> <PUBCHEM_COMPONENT_COUNT>
1

> <PUBCHEM_CACTVS_TAUTO_COUNT>
1

> <PUBCHEM_CONFORMER_ID>
030C4A7C00000001

> <PUBCHEM_MMFF94_ENERGY>
59.417

> <PUBCHEM_FEATURE_SELFOVERLAP>
30.566

> <PUBCHEM_SHAPE_FINGERPRINT>
10299344 5 18410575085196056267
10595046 47 18334010575309427810
11315181 36 18334013896337389133
11524674 6 16702018699708303727
11646440 116 15719398317322492540
12166972 35 18260832605199729860
12236239 1 18411418397655591172
12730499 353 17312824836472189162
12788726 201 17417247598992759995
12821665 9 18116438226615356583
12916748 109 15936410009897360164
13533116 47 18337669720744008706
13631057 29 18337106882449525115
13690498 29 18270673290466604575
14251752 14 18273213071261736328
14849402 71 18041851721775519212
14856354 85 18272937137610281359
14933364 13 18410013225668585956
15183329 4 18409444778140909151
15250474 111 18263344972010506475
15537594 2 16558746806490029246
1577012 14 18335136492949982206
16993438 75 17969512682662355651
17093844 174 17203600493772166763
17844677 252 18272089422245116361
20157964 124 18040437681687212474
21150785 3 18411141355517815740
21236236 1 18409729591025120787
21795232 338 18267875050606544611
220451 1 18408884022926585562
23035841 295 18341892983191528707
23081809 10 18187077356401796514
23198884 109 18187366515132963657
23402539 116 18411133628069796909
23516275 137 18196110870943331723
23522609 53 18263949698699255236
23536379 177 18408603634586974856
23559900 14 18201710777956650369
23569943 247 16735221601161338786
29717793 49 18201442437823159510
3004659 81 18412544280646568618
314173 85 15339117939804813657
335352 9 18342733019519808573
34797466 226 16487255491854742928
4073 2 17968101944950595754
4325135 7 18261111881020601557
5265222 85 18200594816525197543
542803 24 18410289194533905988
5758199 1 17894915135438297528
59755656 215 15913333459848310236
59755656 520 16588025714410881475
7495541 125 18201996676607101440
9996256 80 18261108569368714148
999808 66 18114191860959142403

> <PUBCHEM_SHAPE_MULTIPOLES>
464.93
19.87
1.9
1
9.05
0.88
-0.18
-1.1
3.25
-2.55
0.21
0.14
-0.11
-1.43

> <PUBCHEM_SHAPE_SELFOVERLAP>
1019.456

> <PUBCHEM_SHAPE_VOLUME>
255.6

> <PUBCHEM_COORDINATE_TYPE>
2
5
10

$$$$
