11912213
  -OEChem-12032416113D

 51 54  0     1  0  0  0  0  0999 V2000
   -0.8353    2.3374   -0.3625 S   0  0  0  0  0  0  0  0  0  0  0  0
    0.3572   -2.5102   -1.2723 O   0  0  0  0  0  0  0  0  0  0  0  0
   -3.0475    1.3695   -2.6700 O   0  0  0  0  0  0  0  0  0  0  0  0
    1.2324    4.6565    1.9748 O   0  0  0  0  0  0  0  0  0  0  0  0
    1.8849    3.2787    0.2892 O   0  0  0  0  0  0  0  0  0  0  0  0
   -3.6574    0.4366   -0.6312 N   0  0  0  0  0  0  0  0  0  0  0  0
   -1.3934   -1.7112    0.0455 N   0  0  0  0  0  0  0  0  0  0  0  0
    5.5988    1.3931   -1.9719 N   0  0  0  0  0  0  0  0  0  0  0  0
   -3.8531   -2.0528   -0.5781 C   0  0  1  0  0  0  0  0  0  0  0  0
   -3.2716   -0.8306    1.4747 C   0  0  2  0  0  0  0  0  0  0  0  0
   -4.0985   -1.9906    0.9246 C   0  0  0  0  0  0  0  0  0  0  0  0
   -4.2798   -0.7357   -1.2495 C   0  0  0  0  0  0  0  0  0  0  0  0
   -2.3743   -2.3732   -0.8256 C   0  0  0  0  0  0  0  0  0  0  0  0
   -3.7450    0.4898    0.8358 C   0  0  0  0  0  0  0  0  0  0  0  0
   -1.7935   -1.0336    1.1995 C   0  0  0  0  0  0  0  0  0  0  0  0
   -0.8736   -0.5406    2.0439 C   0  0  0  0  0  0  0  0  0  0  0  0
   -0.0349   -1.8894   -0.2826 C   0  0  0  0  0  0  0  0  0  0  0  0
   -3.1114    1.4337   -1.4397 C   0  0  0  0  0  0  0  0  0  0  0  0
    0.9721   -1.2934    0.6639 C   0  0  0  0  0  0  0  0  0  0  0  0
    0.5284   -0.6699    1.7656 C   0  0  0  0  0  0  0  0  0  0  0  0
   -2.5665    2.6508   -0.7360 C   0  0  0  0  0  0  0  0  0  0  0  0
    2.4178   -1.3796    0.3937 C   0  0  0  0  0  0  0  0  0  0  0  0
    3.0523   -0.3796   -0.3444 C   0  0  0  0  0  0  0  0  0  0  0  0
    3.1542   -2.4621    0.8761 C   0  0  0  0  0  0  0  0  0  0  0  0
   -0.4373    3.9034    0.4529 C   0  0  0  0  0  0  0  0  0  0  0  0
    4.4212   -0.4623   -0.5996 C   0  0  0  0  0  0  0  0  0  0  0  0
    4.5231   -2.5448    0.6209 C   0  0  0  0  0  0  0  0  0  0  0  0
    5.1566   -1.5448   -0.1170 C   0  0  0  0  0  0  0  0  0  0  0  0
    1.0036    3.8939    0.8757 C   0  0  0  0  0  0  0  0  0  0  0  0
    5.0707    0.5611   -1.3565 C   0  0  0  0  0  0  0  0  0  0  0  0
   -4.4566   -2.8576   -1.0159 H   0  0  0  0  0  0  0  0  0  0  0  0
   -3.4424   -0.7725    2.5576 H   0  0  0  0  0  0  0  0  0  0  0  0
   -3.8113   -2.9354    1.4030 H   0  0  0  0  0  0  0  0  0  0  0  0
   -5.1641   -1.8354    1.1330 H   0  0  0  0  0  0  0  0  0  0  0  0
   -4.0610   -0.7703   -2.3220 H   0  0  0  0  0  0  0  0  0  0  0  0
   -5.3642   -0.6034   -1.1494 H   0  0  0  0  0  0  0  0  0  0  0  0
   -2.2197   -3.4509   -0.6783 H   0  0  0  0  0  0  0  0  0  0  0  0
   -2.1070   -2.1708   -1.8704 H   0  0  0  0  0  0  0  0  0  0  0  0
   -4.7985    0.6710    1.0823 H   0  0  0  0  0  0  0  0  0  0  0  0
   -3.1743    1.3129    1.2657 H   0  0  0  0  0  0  0  0  0  0  0  0
   -1.1573   -0.0011    2.9415 H   0  0  0  0  0  0  0  0  0  0  0  0
    1.2124   -0.2207    2.4797 H   0  0  0  0  0  0  0  0  0  0  0  0
   -3.1530    2.9403    0.1371 H   0  0  0  0  0  0  0  0  0  0  0  0
   -2.6272    3.4905   -1.4382 H   0  0  0  0  0  0  0  0  0  0  0  0
    2.4780    0.4643   -0.7227 H   0  0  0  0  0  0  0  0  0  0  0  0
    2.6747   -3.2500    1.4520 H   0  0  0  0  0  0  0  0  0  0  0  0
   -1.0718    4.0060    1.3382 H   0  0  0  0  0  0  0  0  0  0  0  0
   -0.5989    4.7458   -0.2249 H   0  0  0  0  0  0  0  0  0  0  0  0
    5.0955   -3.3878    0.9964 H   0  0  0  0  0  0  0  0  0  0  0  0
    6.2242   -1.6236   -0.3079 H   0  0  0  0  0  0  0  0  0  0  0  0
    2.1778    4.6470    2.2363 H   0  0  0  0  0  0  0  0  0  0  0  0
  1 21  1  0  0  0  0
  1 25  1  0  0  0  0
  2 17  2  0  0  0  0
  3 18  2  0  0  0  0
  4 29  1  0  0  0  0
  4 51  1  0  0  0  0
  5 29  2  0  0  0  0
  6 12  1  0  0  0  0
  6 14  1  0  0  0  0
  6 18  1  0  0  0  0
  7 13  1  0  0  0  0
  7 15  1  0  0  0  0
  7 17  1  0  0  0  0
  8 30  3  0  0  0  0
  9 11  1  0  0  0  0
  9 12  1  0  0  0  0
  9 13  1  0  0  0  0
  9 31  1  0  0  0  0
 10 11  1  0  0  0  0
 10 14  1  0  0  0  0
 10 15  1  0  0  0  0
 10 32  1  0  0  0  0
 11 33  1  0  0  0  0
 11 34  1  0  0  0  0
 12 35  1  0  0  0  0
 12 36  1  0  0  0  0
 13 37  1  0  0  0  0
 13 38  1  0  0  0  0
 14 39  1  0  0  0  0
 14 40  1  0  0  0  0
 15 16  2  0  0  0  0
 16 20  1  0  0  0  0
 16 41  1  0  0  0  0
 17 19  1  0  0  0  0
 18 21  1  0  0  0  0
 19 20  2  0  0  0  0
 19 22  1  0  0  0  0
 20 42  1  0  0  0  0
 21 43  1  0  0  0  0
 21 44  1  0  0  0  0
 22 23  1  0  0  0  0
 22 24  2  0  0  0  0
 23 26  2  0  0  0  0
 23 45  1  0  0  0  0
 24 27  1  0  0  0  0
 24 46  1  0  0  0  0
 25 29  1  0  0  0  0
 25 47  1  0  0  0  0
 25 48  1  0  0  0  0
 26 28  1  0  0  0  0
 26 30  1  0  0  0  0
 27 28  2  0  0  0  0
 27 49  1  0  0  0  0
 28 50  1  0  0  0  0
M  END
> <PUBCHEM_COMPOUND_CID>
11912213

> <PUBCHEM_CONFORMER_RMSD>
0.8

> <PUBCHEM_CONFORMER_DIVERSEORDER>
1
41
118
30
64
134
114
24
85
103
3
48
45
56
139
53
132
77
74
29
12
138
87
40
88
38
81
60
49
110
127
89
23
94
119
42
46
62
68
39
19
55
18
27
158
95
8
130
107
136
150
144
72
63
90
61
86
16
117
116
99
10
98
153
6
76
20
96
91
84
9
4
54
70
104
156
2
36
80
97
93
31
133
37
57
113
148
121
78
35
67
11
140
128
44
50
69
5
129
92
52
65
146
141
131
82
15
126
22
101
152
115
47
120
32
145
123
14
135
105
137
13
26
157
143
109
43
155
7
17
122
58
147
51
112
34
124
66
21
108
33
83
149
71
73
154
100
28
142
125
25
111
106
102
79
59
151
75

> <PUBCHEM_MMFF94_PARTIAL_CHARGES>
35
1 -0.46
10 0.14
12 0.3
13 0.3
14 0.3
15 -0.03
16 -0.15
17 0.62
18 0.57
19 -0.01
2 -0.57
20 -0.15
21 0.29
22 0.03
23 -0.15
24 -0.15
25 0.29
26 0.07
27 -0.15
28 -0.15
29 0.66
3 -0.57
30 0.48
4 -0.65
41 0.15
42 0.15
45 0.15
46 0.15
49 0.15
5 -0.57
50 0.15
51 0.5
6 -0.66
7 -0.47
8 -0.56

> <PUBCHEM_EFFECTIVE_ROTOR_COUNT>
7

> <PUBCHEM_PHARMACOPHORE_FEATURES>
10
1 2 acceptor
1 3 acceptor
1 4 acceptor
1 5 acceptor
1 8 acceptor
3 4 5 29 anion
6 22 23 24 26 27 28 rings
6 6 9 10 11 12 14 rings
6 7 15 16 17 19 20 rings
6 7 9 10 11 13 15 rings

> <PUBCHEM_HEAVY_ATOM_COUNT>
30

> <PUBCHEM_ATOM_DEF_STEREO_COUNT>
2

> <PUBCHEM_ATOM_UDEF_STEREO_COUNT>
0

> <PUBCHEM_BOND_DEF_STEREO_COUNT>
0

> <PUBCHEM_BOND_UDEF_STEREO_COUNT>
0

> <PUBCHEM_ISOTOPIC_ATOM_COUNT>
0

> <PUBCHEM_COMPONENT_COUNT>
1

> <PUBCHEM_CACTVS_TAUTO_COUNT>
1

> <PUBCHEM_CONFORMER_ID>
00B5C41500000001

> <PUBCHEM_MMFF94_ENERGY>
73.1679

> <PUBCHEM_FEATURE_SELFOVERLAP>
52.371

> <PUBCHEM_SHAPE_FINGERPRINT>
12156800 1 16156477296387680253
12788726 201 17836069092546990161
13383661 66 16469505280086978503
13761468 95 17539692396174172756
14251764 38 18188494545427877430
14363568 33 18193850459508175025
14790565 3 17762340215144751137
15484559 13 15390578726445058990
16994733 274 13768467732530026551
17818456 19 17760065342766226194
17844677 252 18041285378882141062
19930381 70 17978501259096051205
20764821 26 18410859867361408352
20775438 99 17548649357429236903
22907989 373 18269561537601487328
23352939 185 18341056297813569915
3493558 16 18043534915289467230
469060 322 17488156275750586453
5171179 24 18270951457706820625

> <PUBCHEM_SHAPE_MULTIPOLES>
582.82
10.03
4.78
1.84
9.35
6.35
-0.13
-3.66
-4
0.71
1.38
-0.54
0.63
0.02

> <PUBCHEM_SHAPE_SELFOVERLAP>
1246.85

> <PUBCHEM_SHAPE_VOLUME>
322.4

> <PUBCHEM_COORDINATE_TYPE>
2
5
10

$$$$
