28959666
  -OEChem-12032416143D

 61 63  0     1  0  0  0  0  0999 V2000
   -0.2780    3.3635   -2.0321 O   0  0  0  0  0  0  0  0  0  0  0  0
   -6.4970   -1.5387    0.3923 O   0  0  0  0  0  0  0  0  0  0  0  0
    3.1931   -2.1353   -1.0199 O   0  0  0  0  0  0  0  0  0  0  0  0
   -6.2396    0.6912    0.7692 O   0  0  0  0  0  0  0  0  0  0  0  0
    5.0146    1.2648    0.5644 O   0  0  0  0  0  0  0  0  0  0  0  0
    0.4826   -2.4893   -0.2233 N   0  0  1  0  0  0  0  0  0  0  0  0
   -1.2534    2.2795   -0.2025 N   0  0  0  0  0  0  0  0  0  0  0  0
    3.5373   -2.0972    1.2548 N   0  0  0  0  0  0  0  0  0  0  0  0
   -1.9621    0.1816    0.9256 C   0  0  1  0  0  0  0  0  0  0  0  0
   -3.4254    0.5126    0.5357 C   0  0  1  0  0  0  0  0  0  0  0  0
   -1.2755   -0.8125   -0.0195 C   0  0  0  0  0  0  0  0  0  0  0  0
   -1.1395    1.4796    1.0252 C   0  0  0  0  0  0  0  0  0  0  0  0
   -3.4901    1.3896   -0.7263 C   0  0  0  0  0  0  0  0  0  0  0  0
   -0.1644   -1.5652    0.6983 C   0  0  0  0  0  0  0  0  0  0  0  0
   -2.6202    2.6348   -0.5792 C   0  0  0  0  0  0  0  0  0  0  0  0
    1.5986   -3.2220    0.3840 C   0  0  1  0  0  0  0  0  0  0  0  0
   -4.2996   -0.7307    0.3734 C   0  0  0  0  0  0  0  0  0  0  0  0
   -0.4455   -3.4966   -0.7381 C   0  0  0  0  0  0  0  0  0  0  0  0
    1.6370   -4.5760   -0.3248 C   0  0  0  0  0  0  0  0  0  0  0  0
    0.5014   -4.5187   -1.3359 C   0  0  0  0  0  0  0  0  0  0  0  0
   -0.1869    2.6988   -1.0013 C   0  0  0  0  0  0  0  0  0  0  0  0
    2.8394   -2.4322    0.1186 C   0  0  0  0  0  0  0  0  0  0  0  0
   -5.7591   -0.4083    0.5386 C   0  0  0  0  0  0  0  0  0  0  0  0
    1.1709    2.3231   -0.5918 C   0  0  0  0  0  0  0  0  0  0  0  0
    1.6658    2.7365    0.6451 C   0  0  0  0  0  0  0  0  0  0  0  0
    1.9677    1.5540   -1.4400 C   0  0  0  0  0  0  0  0  0  0  0  0
    2.9574    2.3812    1.0337 C   0  0  0  0  0  0  0  0  0  0  0  0
    3.2593    1.1987   -1.0515 C   0  0  0  0  0  0  0  0  0  0  0  0
    3.7541    1.6123    0.1853 C   0  0  0  0  0  0  0  0  0  0  0  0
    5.4569    1.7208    1.8419 C   0  0  0  0  0  0  0  0  0  0  0  0
   -1.9972   -0.2661    1.9286 H   0  0  0  0  0  0  0  0  0  0  0  0
   -3.8290    1.1127    1.3649 H   0  0  0  0  0  0  0  0  0  0  0  0
   -0.8869   -0.3093   -0.9129 H   0  0  0  0  0  0  0  0  0  0  0  0
   -2.0176   -1.5314   -0.3717 H   0  0  0  0  0  0  0  0  0  0  0  0
   -1.5256    2.1020    1.8422 H   0  0  0  0  0  0  0  0  0  0  0  0
   -0.1144    1.2278    1.2823 H   0  0  0  0  0  0  0  0  0  0  0  0
   -4.5192    1.6989   -0.9386 H   0  0  0  0  0  0  0  0  0  0  0  0
   -3.1462    0.8131   -1.5946 H   0  0  0  0  0  0  0  0  0  0  0  0
   -0.5691   -2.0977    1.5689 H   0  0  0  0  0  0  0  0  0  0  0  0
    0.5812   -0.8552    1.0719 H   0  0  0  0  0  0  0  0  0  0  0  0
   -2.6302    3.2046   -1.5139 H   0  0  0  0  0  0  0  0  0  0  0  0
   -3.0172    3.2886    0.2064 H   0  0  0  0  0  0  0  0  0  0  0  0
    1.4489   -3.3892    1.4582 H   0  0  0  0  0  0  0  0  0  0  0  0
   -4.1653   -1.1848   -0.6145 H   0  0  0  0  0  0  0  0  0  0  0  0
   -4.0452   -1.4668    1.1451 H   0  0  0  0  0  0  0  0  0  0  0  0
   -1.1113   -3.1116   -1.5162 H   0  0  0  0  0  0  0  0  0  0  0  0
   -1.0437   -3.9555    0.0593 H   0  0  0  0  0  0  0  0  0  0  0  0
    1.4331   -5.3743    0.3995 H   0  0  0  0  0  0  0  0  0  0  0  0
    2.5905   -4.8044   -0.8124 H   0  0  0  0  0  0  0  0  0  0  0  0
    0.8804   -4.1715   -2.3051 H   0  0  0  0  0  0  0  0  0  0  0  0
    0.0284   -5.4941   -1.4833 H   0  0  0  0  0  0  0  0  0  0  0  0
    3.2276   -2.3561    2.1859 H   0  0  0  0  0  0  0  0  0  0  0  0
    4.3983   -1.5633    1.1968 H   0  0  0  0  0  0  0  0  0  0  0  0
   -7.4570   -1.3644    0.4941 H   0  0  0  0  0  0  0  0  0  0  0  0
    1.0670    3.3550    1.3093 H   0  0  0  0  0  0  0  0  0  0  0  0
    1.5924    1.2227   -2.4048 H   0  0  0  0  0  0  0  0  0  0  0  0
    3.2803    2.7394    2.0052 H   0  0  0  0  0  0  0  0  0  0  0  0
    3.8762    0.6017   -1.7173 H   0  0  0  0  0  0  0  0  0  0  0  0
    6.4787    1.3526    1.9804 H   0  0  0  0  0  0  0  0  0  0  0  0
    4.8523    1.2973    2.6512 H   0  0  0  0  0  0  0  0  0  0  0  0
    5.5022    2.8143    1.8856 H   0  0  0  0  0  0  0  0  0  0  0  0
  1 21  2  0  0  0  0
  2 23  1  0  0  0  0
  2 54  1  0  0  0  0
  3 22  2  0  0  0  0
  4 23  2  0  0  0  0
  5 29  1  0  0  0  0
  5 30  1  0  0  0  0
  6 14  1  0  0  0  0
  6 16  1  0  0  0  0
  6 18  1  0  0  0  0
  7 12  1  0  0  0  0
  7 15  1  0  0  0  0
  7 21  1  0  0  0  0
  8 22  1  0  0  0  0
  8 52  1  0  0  0  0
  8 53  1  0  0  0  0
  9 10  1  0  0  0  0
  9 11  1  0  0  0  0
  9 12  1  0  0  0  0
  9 31  1  0  0  0  0
 10 13  1  0  0  0  0
 10 17  1  0  0  0  0
 10 32  1  0  0  0  0
 11 14  1  0  0  0  0
 11 33  1  0  0  0  0
 11 34  1  0  0  0  0
 12 35  1  0  0  0  0
 12 36  1  0  0  0  0
 13 15  1  0  0  0  0
 13 37  1  0  0  0  0
 13 38  1  0  0  0  0
 14 39  1  0  0  0  0
 14 40  1  0  0  0  0
 15 41  1  0  0  0  0
 15 42  1  0  0  0  0
 16 19  1  0  0  0  0
 16 22  1  0  0  0  0
 16 43  1  0  0  0  0
 17 23  1  0  0  0  0
 17 44  1  0  0  0  0
 17 45  1  0  0  0  0
 18 20  1  0  0  0  0
 18 46  1  0  0  0  0
 18 47  1  0  0  0  0
 19 20  1  0  0  0  0
 19 48  1  0  0  0  0
 19 49  1  0  0  0  0
 20 50  1  0  0  0  0
 20 51  1  0  0  0  0
 21 24  1  0  0  0  0
 24 25  2  0  0  0  0
 24 26  1  0  0  0  0
 25 27  1  0  0  0  0
 25 55  1  0  0  0  0
 26 28  2  0  0  0  0
 26 56  1  0  0  0  0
 27 29  2  0  0  0  0
 27 57  1  0  0  0  0
 28 29  1  0  0  0  0
 28 58  1  0  0  0  0
 30 59  1  0  0  0  0
 30 60  1  0  0  0  0
 30 61  1  0  0  0  0
M  END
> <PUBCHEM_COMPOUND_CID>
28959666

> <PUBCHEM_CONFORMER_RMSD>
1

> <PUBCHEM_CONFORMER_DIVERSEORDER>
1
45
14
66
51
48
64
42
22
25
26
8
31
29
21
5
33
11
58
2
40
59
7
43
47
41
69
10
70
53
19
52
37
63
4
15
23
3
18
67
50
24
60
39
65
35
71
32
27
17
9
57
36
30
20
72
46
28
13
12
61
34
6
38
54
68
56
49
55
16
62
44

> <PUBCHEM_MMFF94_PARTIAL_CHARGES>
31
1 -0.57
12 0.3
14 0.27
15 0.3
16 0.33
17 0.06
18 0.27
2 -0.65
21 0.54
22 0.57
23 0.66
24 0.09
25 -0.15
26 -0.15
27 -0.15
28 -0.15
29 0.08
3 -0.57
30 0.28
4 -0.57
5 -0.36
52 0.37
53 0.37
54 0.5
55 0.15
56 0.15
57 0.15
58 0.15
6 -0.81
7 -0.66
8 -0.8

> <PUBCHEM_EFFECTIVE_ROTOR_COUNT>
11.2

> <PUBCHEM_PHARMACOPHORE_FEATURES>
11
1 1 acceptor
1 2 acceptor
1 3 acceptor
1 4 acceptor
1 5 acceptor
1 6 cation
1 8 donor
3 2 4 23 anion
5 6 16 18 19 20 rings
6 24 25 26 27 28 29 rings
6 7 9 10 12 13 15 rings

> <PUBCHEM_HEAVY_ATOM_COUNT>
30

> <PUBCHEM_ATOM_DEF_STEREO_COUNT>
3

> <PUBCHEM_ATOM_UDEF_STEREO_COUNT>
0

> <PUBCHEM_BOND_DEF_STEREO_COUNT>
0

> <PUBCHEM_BOND_UDEF_STEREO_COUNT>
0

> <PUBCHEM_ISOTOPIC_ATOM_COUNT>
0

> <PUBCHEM_COMPONENT_COUNT>
1

> <PUBCHEM_CACTVS_TAUTO_COUNT>
2

> <PUBCHEM_CONFORMER_ID>
01B9E3B200000001

> <PUBCHEM_MMFF94_ENERGY>
78.509

> <PUBCHEM_FEATURE_SELFOVERLAP>
55.879

> <PUBCHEM_SHAPE_FINGERPRINT>
10675989 125 16610534139498491335
11513181 2 17917714646780104886
11963148 33 18116994601760923075
12156800 1 15982249843512654886
13402501 40 18408603635119809288
1361 2 18410859880114311443
14028597 1 17631752538063265137
14725015 67 18116146662935008914
14863182 85 18335710450720246292
15420108 30 18342167907979609742
16728300 4 17751332072145689242
19301679 30 18187939357034819697
19591789 44 17834402594070963819
1979834 28 18409456894586653393
19930381 70 18339080376164638371
20028762 73 18198063775697856111
20691752 17 16878516613402394177
20775438 99 17685456929370661733
20905425 154 18264214608107762060
21285901 2 17822013081957850189
22113638 7 18191868048717553964
22182313 1 18115018615977177621
23559900 14 18051125887754604739
238918 7 18412260662333393182
338550 245 18049164659489441087
38695281 34 18341894143028065739
4017518 198 18200041762904297006
463206 1 18339924930218258183
465052 167 17386856182826276993
513532 50 18060150833929919966
5265222 85 18264778847142806948
5309563 4 18337677403670049365
59755656 215 18334858329176941157
6287921 2 18198346160632685307
653340 110 17406262712974008528
66674814 147 17906987910402766535

> <PUBCHEM_SHAPE_MULTIPOLES>
573.1
10.23
5.86
1.37
10.81
6.34
-0.16
-2.45
4.36
-4.03
-1.92
-0.87
-0.58
0.96

> <PUBCHEM_SHAPE_SELFOVERLAP>
1199.667

> <PUBCHEM_SHAPE_VOLUME>
323.6

> <PUBCHEM_COORDINATE_TYPE>
2
5
10

$$$$
