51137452
  -OEChem-12032416223D

 47 50  0     1  0  0  0  0  0999 V2000
    2.4332   -0.7453    0.0797 O   0  0  0  0  0  0  0  0  0  0  0  0
    5.7604    1.7650   -0.3941 O   0  0  0  0  0  0  0  0  0  0  0  0
   -2.2818   -0.2724   -0.5731 N   0  0  1  0  0  0  0  0  0  0  0  0
    1.6756    1.2305   -0.6463 N   0  0  0  0  0  0  0  0  0  0  0  0
    3.0505    1.3165   -0.5307 N   0  0  0  0  0  0  0  0  0  0  0  0
   -8.1724    1.5572    2.1586 N   0  0  0  0  0  0  0  0  0  0  0  0
    0.0030   -0.6513   -0.2052 C   0  0  1  0  0  0  0  0  0  0  0  0
   -0.7173   -0.4979    1.1457 C   0  0  0  0  0  0  0  0  0  0  0  0
   -0.9888   -0.1013   -1.2390 C   0  0  0  0  0  0  0  0  0  0  0  0
   -2.0534    0.1511    0.8083 C   0  0  0  0  0  0  0  0  0  0  0  0
   -3.3430    0.4872   -1.2174 C   0  0  0  0  0  0  0  0  0  0  0  0
    1.3597    0.0103   -0.2802 C   0  0  0  0  0  0  0  0  0  0  0  0
   -4.7079   -0.0140   -0.8266 C   0  0  0  0  0  0  0  0  0  0  0  0
    3.4497    0.1411   -0.1041 C   0  0  0  0  0  0  0  0  0  0  0  0
   -5.4774    0.6990    0.0928 C   0  0  0  0  0  0  0  0  0  0  0  0
   -5.2035   -1.1918   -1.3861 C   0  0  0  0  0  0  0  0  0  0  0  0
    4.7663   -0.3440    0.1923 C   0  0  0  0  0  0  0  0  0  0  0  0
   -6.7423    0.2343    0.4529 C   0  0  0  0  0  0  0  0  0  0  0  0
   -6.4687   -1.6563   -1.0263 C   0  0  0  0  0  0  0  0  0  0  0  0
   -7.2380   -0.9435   -0.1066 C   0  0  0  0  0  0  0  0  0  0  0  0
    5.8831    0.4781    0.0404 C   0  0  0  0  0  0  0  0  0  0  0  0
    4.9220   -1.6564    0.6385 C   0  0  0  0  0  0  0  0  0  0  0  0
    7.1554   -0.0122    0.3346 C   0  0  0  0  0  0  0  0  0  0  0  0
    6.1943   -2.1467    0.9329 C   0  0  0  0  0  0  0  0  0  0  0  0
   -7.5315    0.9643    1.3942 C   0  0  0  0  0  0  0  0  0  0  0  0
    7.3111   -1.3247    0.7809 C   0  0  0  0  0  0  0  0  0  0  0  0
    6.9616    2.5232   -0.5162 C   0  0  0  0  0  0  0  0  0  0  0  0
    0.1444   -1.7252   -0.3928 H   0  0  0  0  0  0  0  0  0  0  0  0
   -0.8796   -1.4894    1.5864 H   0  0  0  0  0  0  0  0  0  0  0  0
   -0.1547    0.1013    1.8695 H   0  0  0  0  0  0  0  0  0  0  0  0
   -0.9379   -0.6653   -2.1768 H   0  0  0  0  0  0  0  0  0  0  0  0
   -0.7970    0.9561   -1.4637 H   0  0  0  0  0  0  0  0  0  0  0  0
   -2.8385   -0.1911    1.4898 H   0  0  0  0  0  0  0  0  0  0  0  0
   -1.9647    1.2418    0.8940 H   0  0  0  0  0  0  0  0  0  0  0  0
   -3.2518    1.5658   -1.0306 H   0  0  0  0  0  0  0  0  0  0  0  0
   -3.2677    0.3792   -2.3088 H   0  0  0  0  0  0  0  0  0  0  0  0
   -5.0884    1.6169    0.5290 H   0  0  0  0  0  0  0  0  0  0  0  0
   -4.6140   -1.7562   -2.1037 H   0  0  0  0  0  0  0  0  0  0  0  0
   -6.8545   -2.5733   -1.4621 H   0  0  0  0  0  0  0  0  0  0  0  0
   -8.2222   -1.3186    0.1638 H   0  0  0  0  0  0  0  0  0  0  0  0
    4.0791   -2.3300    0.7707 H   0  0  0  0  0  0  0  0  0  0  0  0
    8.0696    0.5636    0.2420 H   0  0  0  0  0  0  0  0  0  0  0  0
    6.3161   -3.1684    1.2806 H   0  0  0  0  0  0  0  0  0  0  0  0
    8.3012   -1.7079    1.0104 H   0  0  0  0  0  0  0  0  0  0  0  0
    7.4526    2.6634    0.4530 H   0  0  0  0  0  0  0  0  0  0  0  0
    7.6337    2.0991   -1.2700 H   0  0  0  0  0  0  0  0  0  0  0  0
    6.6773    3.5191   -0.8722 H   0  0  0  0  0  0  0  0  0  0  0  0
  1 12  1  0  0  0  0
  1 14  1  0  0  0  0
  2 21  1  0  0  0  0
  2 27  1  0  0  0  0
  3  9  1  0  0  0  0
  3 10  1  0  0  0  0
  3 11  1  0  0  0  0
  4  5  1  0  0  0  0
  4 12  2  0  0  0  0
  5 14  2  0  0  0  0
  6 25  3  0  0  0  0
  7  8  1  0  0  0  0
  7  9  1  0  0  0  0
  7 12  1  0  0  0  0
  7 28  1  0  0  0  0
  8 10  1  0  0  0  0
  8 29  1  0  0  0  0
  8 30  1  0  0  0  0
  9 31  1  0  0  0  0
  9 32  1  0  0  0  0
 10 33  1  0  0  0  0
 10 34  1  0  0  0  0
 11 13  1  0  0  0  0
 11 35  1  0  0  0  0
 11 36  1  0  0  0  0
 13 15  2  0  0  0  0
 13 16  1  0  0  0  0
 14 17  1  0  0  0  0
 15 18  1  0  0  0  0
 15 37  1  0  0  0  0
 16 19  2  0  0  0  0
 16 38  1  0  0  0  0
 17 21  1  0  0  0  0
 17 22  2  0  0  0  0
 18 20  2  0  0  0  0
 18 25  1  0  0  0  0
 19 20  1  0  0  0  0
 19 39  1  0  0  0  0
 20 40  1  0  0  0  0
 21 23  2  0  0  0  0
 22 24  1  0  0  0  0
 22 41  1  0  0  0  0
 23 26  1  0  0  0  0
 23 42  1  0  0  0  0
 24 26  2  0  0  0  0
 24 43  1  0  0  0  0
 26 44  1  0  0  0  0
 27 45  1  0  0  0  0
 27 46  1  0  0  0  0
 27 47  1  0  0  0  0
M  END
> <PUBCHEM_COMPOUND_CID>
51137452

> <PUBCHEM_CONFORMER_RMSD>
1.4

> <PUBCHEM_CONFORMER_DIVERSEORDER>
5
22
29
41
18
50
17
38
47
43
19
16
21
46
11
30
40
13
28
51
14
27
48
7
36
24
44
20
33
9
23
15
34
31
45
25
37
4
49
12
26
32
39
8
35
6
42
3
2
10
1

> <PUBCHEM_MMFF94_PARTIAL_CHARGES>
34
1 -0.28
10 0.27
11 0.41
12 0.3
13 -0.14
14 0.43
15 -0.15
16 -0.15
17 0.05
18 0.07
19 -0.15
2 -0.36
20 -0.15
21 0.08
22 -0.15
23 -0.15
24 -0.15
25 0.48
26 -0.15
27 0.28
3 -0.81
37 0.15
38 0.15
39 0.15
4 -0.34
40 0.15
41 0.15
42 0.15
43 0.15
44 0.15
5 -0.34
6 -0.56
7 0.18
9 0.27

> <PUBCHEM_EFFECTIVE_ROTOR_COUNT>
6

> <PUBCHEM_PHARMACOPHORE_FEATURES>
7
1 2 acceptor
1 3 cation
1 6 acceptor
5 1 4 5 12 14 rings
5 3 7 8 9 10 rings
6 13 15 16 18 19 20 rings
6 17 21 22 23 24 26 rings

> <PUBCHEM_HEAVY_ATOM_COUNT>
27

> <PUBCHEM_ATOM_DEF_STEREO_COUNT>
1

> <PUBCHEM_ATOM_UDEF_STEREO_COUNT>
0

> <PUBCHEM_BOND_DEF_STEREO_COUNT>
0

> <PUBCHEM_BOND_UDEF_STEREO_COUNT>
0

> <PUBCHEM_ISOTOPIC_ATOM_COUNT>
0

> <PUBCHEM_COMPONENT_COUNT>
1

> <PUBCHEM_CACTVS_TAUTO_COUNT>
1

> <PUBCHEM_CONFORMER_ID>
030C4BAC00000005

> <PUBCHEM_MMFF94_ENERGY>
67.6471

> <PUBCHEM_FEATURE_SELFOVERLAP>
35.523

> <PUBCHEM_SHAPE_FINGERPRINT>
10299344 5 18341891904975603727
11181472 205 18130519539136756640
11315181 36 18342174501893313991
11719270 70 17489588952745948862
12166972 35 18410007754049465128
12236239 1 18343861125789504086
125118 31 16558745728537556136
12539765 74 17846506941323584462
13533116 47 18410005529820239346
13685833 64 17967248685277620414
13782708 43 16951114067749780466
14170010 4 17822008731503892012
14251764 18 18412543236278283029
14294032 229 17202505311192423161
14849402 71 18338238283534604397
14856354 85 18060418058585067655
15021287 119 18260828211669154325
15183329 4 17894621552474396234
15419008 47 16298097696737923341
15510794 2 17313101952442196195
15716309 27 18408600366639199607
1577012 14 18343584057539065901
17093844 174 16056874737646799471
20157964 124 18261108591687556282
21130935 74 18410853278301359987
21267235 1 17168147810375048748
21521721 280 18333450967194114370
21781051 124 15647634296936150411
23081809 10 18201431506298026071
23522609 53 18269011902068536157
23559900 14 17968373575698427725
23569943 247 17751064821821880890
23576562 1 14332824012662170721
2747138 104 16660368073708195285
3178227 256 17822016393187399787
328311 84 17095243600936848506
335352 9 18187364330002379798
3383291 50 16225771826390016929
3663271 9 18413670227592271195
397830 11 16443922698225037704
4073 2 17822575031410757778
4339292 15 14635157880518901739
5758199 1 18409731781041333539
59755656 215 16443058379022189458
636775 8 13840280173728089433
68570916 9 18338797934983907767
999808 66 17313107445510189091

> <PUBCHEM_SHAPE_MULTIPOLES>
523.98
26.95
1.78
1.29
8.1
0.24
-0.27
1.33
-6.74
-2.66
-0.06
2.5
0.12
-3.45

> <PUBCHEM_SHAPE_SELFOVERLAP>
1140.931

> <PUBCHEM_SHAPE_VOLUME>
285.6

> <PUBCHEM_COORDINATE_TYPE>
2
5
10

$$$$
