75536775
  -OEChem-12032416343D

 51 53  0     1  0  0  0  0  0999 V2000
    4.1130    0.7249    0.5299 O   0  0  0  0  0  0  0  0  0  0  0  0
    5.0666   -2.3129    0.1681 O   0  0  0  0  0  0  0  0  0  0  0  0
    2.1599    2.6229   -0.6455 O   0  0  0  0  0  0  0  0  0  0  0  0
   -5.3119   -1.2854    0.6592 O   0  0  0  0  0  0  0  0  0  0  0  0
   -5.1345   -1.8927   -1.5240 O   0  0  0  0  0  0  0  0  0  0  0  0
    1.6867   -1.1377    0.8253 N   0  0  0  0  0  0  0  0  0  0  0  0
    2.1527    0.4706   -1.4924 N   0  0  0  0  0  0  0  0  0  0  0  0
    0.1679    1.3866   -0.7647 N   0  0  0  0  0  0  0  0  0  0  0  0
    3.1065   -1.3388    1.1068 C   0  0  1  0  0  0  0  0  0  0  0  0
    3.9056   -1.5492   -0.1673 C   0  0  1  0  0  0  0  0  0  0  0  0
    4.3370   -0.1467   -0.5940 C   0  0  1  0  0  0  0  0  0  0  0  0
    3.7308   -0.0681    1.6600 C   0  0  0  0  0  0  0  0  0  0  0  0
    3.5558    0.3946   -1.7816 C   0  0  0  0  0  0  0  0  0  0  0  0
    0.9825   -2.4117    0.7421 C   0  0  0  0  0  0  0  0  0  0  0  0
   -0.4799   -2.2251    0.4365 C   0  0  0  0  0  0  0  0  0  0  0  0
    1.5385    1.6025   -0.9328 C   0  0  0  0  0  0  0  0  0  0  0  0
   -0.9607   -2.4756   -0.8487 C   0  0  0  0  0  0  0  0  0  0  0  0
   -1.3537   -1.8018    1.4380 C   0  0  0  0  0  0  0  0  0  0  0  0
   -2.3154   -2.3027   -1.1323 C   0  0  0  0  0  0  0  0  0  0  0  0
   -2.7084   -1.6291    1.1543 C   0  0  0  0  0  0  0  0  0  0  0  0
   -3.1893   -1.8797   -0.1308 C   0  0  0  0  0  0  0  0  0  0  0  0
   -0.7929    2.2794   -0.2354 C   0  0  0  0  0  0  0  0  0  0  0  0
   -4.6020   -1.7002   -0.4259 C   0  0  0  0  0  0  0  0  0  0  0  0
   -2.1289    1.8895   -0.1410 C   0  0  0  0  0  0  0  0  0  0  0  0
   -0.4054    3.5493    0.1922 C   0  0  0  0  0  0  0  0  0  0  0  0
   -3.0772    2.7693    0.3809 C   0  0  0  0  0  0  0  0  0  0  0  0
   -1.3536    4.4291    0.7143 C   0  0  0  0  0  0  0  0  0  0  0  0
   -2.6896    4.0390    0.8084 C   0  0  0  0  0  0  0  0  0  0  0  0
    3.2413   -2.1397    1.8443 H   0  0  0  0  0  0  0  0  0  0  0  0
    3.3817   -2.1082   -0.9488 H   0  0  0  0  0  0  0  0  0  0  0  0
    5.4073   -0.1122   -0.8280 H   0  0  0  0  0  0  0  0  0  0  0  0
    3.0702    0.5132    2.3110 H   0  0  0  0  0  0  0  0  0  0  0  0
    4.6411   -0.2970    2.2266 H   0  0  0  0  0  0  0  0  0  0  0  0
    3.6833   -0.2487   -2.6580 H   0  0  0  0  0  0  0  0  0  0  0  0
    3.9117    1.3992   -2.0352 H   0  0  0  0  0  0  0  0  0  0  0  0
    1.2697   -0.5841    1.5740 H   0  0  0  0  0  0  0  0  0  0  0  0
    1.0679   -2.9641    1.6874 H   0  0  0  0  0  0  0  0  0  0  0  0
    1.4316   -3.0510   -0.0278 H   0  0  0  0  0  0  0  0  0  0  0  0
    5.5908   -2.4157   -0.6445 H   0  0  0  0  0  0  0  0  0  0  0  0
    1.5768   -0.3410   -1.6944 H   0  0  0  0  0  0  0  0  0  0  0  0
   -0.2905   -2.8020   -1.6395 H   0  0  0  0  0  0  0  0  0  0  0  0
   -0.9904   -1.6035    2.4430 H   0  0  0  0  0  0  0  0  0  0  0  0
   -0.1901    0.4807   -1.0561 H   0  0  0  0  0  0  0  0  0  0  0  0
   -2.6701   -2.5018   -2.1402 H   0  0  0  0  0  0  0  0  0  0  0  0
   -3.3531   -1.2971    1.9632 H   0  0  0  0  0  0  0  0  0  0  0  0
   -2.4468    0.9126   -0.4883 H   0  0  0  0  0  0  0  0  0  0  0  0
    0.6079    3.9229    0.1513 H   0  0  0  0  0  0  0  0  0  0  0  0
   -4.1180    2.4666    0.4502 H   0  0  0  0  0  0  0  0  0  0  0  0
   -1.0532    5.4183    1.0475 H   0  0  0  0  0  0  0  0  0  0  0  0
   -3.4281    4.7244    1.2139 H   0  0  0  0  0  0  0  0  0  0  0  0
   -6.2629   -1.1669    0.4496 H   0  0  0  0  0  0  0  0  0  0  0  0
  1 11  1  0  0  0  0
  1 12  1  0  0  0  0
  2 10  1  0  0  0  0
  2 39  1  0  0  0  0
  3 16  2  0  0  0  0
  4 23  1  0  0  0  0
  4 51  1  0  0  0  0
  5 23  2  0  0  0  0
  6  9  1  0  0  0  0
  6 14  1  0  0  0  0
  6 36  1  0  0  0  0
  7 13  1  0  0  0  0
  7 16  1  0  0  0  0
  7 40  1  0  0  0  0
  8 16  1  0  0  0  0
  8 22  1  0  0  0  0
  8 43  1  0  0  0  0
  9 10  1  0  0  0  0
  9 12  1  0  0  0  0
  9 29  1  0  0  0  0
 10 11  1  0  0  0  0
 10 30  1  0  0  0  0
 11 13  1  0  0  0  0
 11 31  1  0  0  0  0
 12 32  1  0  0  0  0
 12 33  1  0  0  0  0
 13 34  1  0  0  0  0
 13 35  1  0  0  0  0
 14 15  1  0  0  0  0
 14 37  1  0  0  0  0
 14 38  1  0  0  0  0
 15 17  2  0  0  0  0
 15 18  1  0  0  0  0
 17 19  1  0  0  0  0
 17 41  1  0  0  0  0
 18 20  2  0  0  0  0
 18 42  1  0  0  0  0
 19 21  2  0  0  0  0
 19 44  1  0  0  0  0
 20 21  1  0  0  0  0
 20 45  1  0  0  0  0
 21 23  1  0  0  0  0
 22 24  2  0  0  0  0
 22 25  1  0  0  0  0
 24 26  1  0  0  0  0
 24 46  1  0  0  0  0
 25 27  2  0  0  0  0
 25 47  1  0  0  0  0
 26 28  2  0  0  0  0
 26 48  1  0  0  0  0
 27 28  1  0  0  0  0
 27 49  1  0  0  0  0
 28 50  1  0  0  0  0
M  END
> <PUBCHEM_COMPOUND_CID>
75536775

> <PUBCHEM_CONFORMER_RMSD>
1

> <PUBCHEM_CONFORMER_DIVERSEORDER>
3
52
22
1
31
26
24
28
50
73
29
42
13
25
84
63
19
51
55
30
65
78
35
70
76
27
39
36
8
68
60
7
12
11
43
32
53
80
83
15
21
59
48
40
38
44
56
81
41
64
57
69
5
16
74
75
66
45
62
82
23
77
20
14
37
71
17
9
54
10
72
58
6
79
18
47
2
33
46
61
67
49
34
4

> <PUBCHEM_MMFF94_PARTIAL_CHARGES>
42
1 -0.56
10 0.28
11 0.28
12 0.28
13 0.3
14 0.41
15 -0.14
16 0.69
17 -0.15
18 -0.15
19 -0.15
2 -0.68
20 -0.15
21 0.09
22 0.12
23 0.63
24 -0.15
25 -0.15
26 -0.15
27 -0.15
28 -0.15
3 -0.57
36 0.36
39 0.4
4 -0.65
40 0.37
41 0.15
42 0.15
43 0.37
44 0.15
45 0.15
46 0.15
47 0.15
48 0.15
49 0.15
5 -0.57
50 0.15
51 0.5
6 -0.9
7 -0.73
8 -0.55
9 0.27

> <PUBCHEM_EFFECTIVE_ROTOR_COUNT>
10

> <PUBCHEM_PHARMACOPHORE_FEATURES>
14
1 1 acceptor
1 2 acceptor
1 2 donor
1 3 acceptor
1 4 acceptor
1 5 acceptor
1 6 cation
1 6 donor
1 7 donor
1 8 donor
3 4 5 23 anion
5 1 9 10 11 12 rings
6 15 17 18 19 20 21 rings
6 22 24 25 26 27 28 rings

> <PUBCHEM_HEAVY_ATOM_COUNT>
28

> <PUBCHEM_ATOM_DEF_STEREO_COUNT>
3

> <PUBCHEM_ATOM_UDEF_STEREO_COUNT>
0

> <PUBCHEM_BOND_DEF_STEREO_COUNT>
0

> <PUBCHEM_BOND_UDEF_STEREO_COUNT>
0

> <PUBCHEM_ISOTOPIC_ATOM_COUNT>
0

> <PUBCHEM_COMPONENT_COUNT>
1

> <PUBCHEM_CACTVS_TAUTO_COUNT>
3

> <PUBCHEM_CONFORMER_ID>
0480998700000003

> <PUBCHEM_MMFF94_ENERGY>
71.6819

> <PUBCHEM_FEATURE_SELFOVERLAP>
71.159

> <PUBCHEM_SHAPE_FINGERPRINT>
10064457 181 17907854012317709968
104564 63 18408892832004606362
10670039 82 18335711516030449774
10871710 139 18410581673512332243
1100329 8 18336266721662132745
11513181 2 18270410382074631622
11578080 2 17986934303371243066
11646440 116 18264491852478467163
12156800 1 18051162231287517542
12422481 6 18195555639466809315
12553582 1 18194137414741582349
12788726 201 18337685199173108148
14081887 123 18341321254351614248
14394314 77 18339651126523247689
14464042 87 18408322194312984767
14866123 147 18120373151304271578
16752209 62 18408893944469740454
19930381 70 17184473659973119083
20775438 99 17260718155846637023
244849 19 17487880247726635282
25147074 1 18041004999728050838
3014063 31 18337109068001809481
3052486 1 18335697204872105352
338550 245 18261120625553313381
345986 75 18188753011885267627
35225 105 18057876957551926776
463206 1 18120935263696722503
469060 322 16878224160446810878
5895379 119 18339088094832747252
6004065 56 17908969247514879343
6287921 2 17260750642756781793
6438718 38 18341898446004969798
653340 110 18341608192120647416
7064713 232 18049996693460003848
7164475 11 18411700963491029302
7226269 152 17469620954424486668

> <PUBCHEM_SHAPE_MULTIPOLES>
531.94
9.22
5.3
1.41
1.85
5.44
-0.09
-4.84
-0.49
-5.33
0.69
0.47
-0.34
-1.65

> <PUBCHEM_SHAPE_SELFOVERLAP>
1131.968

> <PUBCHEM_SHAPE_VOLUME>
295

> <PUBCHEM_COORDINATE_TYPE>
2
5
10

$$$$
