40777056
  -OEChem-12032416393D

 56 59  0     1  0  0  0  0  0999 V2000
    6.6511   -1.3221   -0.5258 S   0  0  0  0  0  0  0  0  0  0  0  0
   -6.1152   -0.2829   -1.6700 S   0  0  0  0  0  0  0  0  0  0  0  0
   -4.3495    2.2714   -1.8392 O   0  0  0  0  0  0  0  0  0  0  0  0
   -5.6989   -2.0055    1.7889 O   0  0  0  0  0  0  0  0  0  0  0  0
   -7.4644   -1.9463    0.3590 O   0  0  0  0  0  0  0  0  0  0  0  0
   -0.7049    2.4640    0.9700 N   0  0  2  0  0  0  0  0  0  0  0  0
   -2.5562    0.7899   -1.8408 N   0  0  0  0  0  0  0  0  0  0  0  0
    1.6102   -1.4540    0.6375 N   0  0  0  0  0  0  0  0  0  0  0  0
    3.7687   -1.8267   -0.3671 N   0  0  0  0  0  0  0  0  0  0  0  0
   -0.3968    0.0862    1.9869 C   0  0  2  0  0  0  0  0  0  0  0  0
    0.9805    0.6998    1.6114 C   0  0  2  0  0  0  0  0  0  0  0  0
   -1.6125    1.5003    0.2934 C   0  0  2  0  0  0  0  0  0  0  0  0
   -1.2993    0.0547    0.7354 C   0  0  0  0  0  0  0  0  0  0  0  0
   -1.0542    1.0519    2.9960 C   0  0  0  0  0  0  0  0  0  0  0  0
    0.7040    2.0177    0.8330 C   0  0  0  0  0  0  0  0  0  0  0  0
   -1.0484    2.4756    2.4123 C   0  0  0  0  0  0  0  0  0  0  0  0
   -1.5894    1.6487   -1.2294 C   0  0  0  0  0  0  0  0  0  0  0  0
    1.9934   -0.1879    0.9024 C   0  0  0  0  0  0  0  0  0  0  0  0
    3.2305    0.3246    0.5686 C   0  0  0  0  0  0  0  0  0  0  0  0
    4.0859   -0.5492   -0.0711 C   0  0  0  0  0  0  0  0  0  0  0  0
   -3.8716    1.1689   -2.1009 C   0  0  0  0  0  0  0  0  0  0  0  0
    2.5333   -2.2076    0.0103 C   0  0  0  0  0  0  0  0  0  0  0  0
    5.4070   -0.1465   -0.4742 C   0  0  0  0  0  0  0  0  0  0  0  0
   -4.6983    0.0755   -2.7357 C   0  0  0  0  0  0  0  0  0  0  0  0
    2.1458   -3.6136   -0.3014 C   0  0  0  0  0  0  0  0  0  0  0  0
    5.8585    1.1007   -0.8461 C   0  0  0  0  0  0  0  0  0  0  0  0
    7.2442    1.0910   -1.1779 C   0  0  0  0  0  0  0  0  0  0  0  0
    7.7988   -0.1630   -1.0469 C   0  0  0  0  0  0  0  0  0  0  0  0
   -5.2810   -1.3329   -0.4570 C   0  0  0  0  0  0  0  0  0  0  0  0
   -6.2711   -1.7827    0.5786 C   0  0  0  0  0  0  0  0  0  0  0  0
   -0.2965   -0.9130    2.4238 H   0  0  0  0  0  0  0  0  0  0  0  0
    1.4685    0.9675    2.5615 H   0  0  0  0  0  0  0  0  0  0  0  0
   -2.6403    1.7341    0.6091 H   0  0  0  0  0  0  0  0  0  0  0  0
   -0.8103   -0.5166   -0.0614 H   0  0  0  0  0  0  0  0  0  0  0  0
   -2.2348   -0.4655    0.9739 H   0  0  0  0  0  0  0  0  0  0  0  0
   -0.5117    1.0380    3.9485 H   0  0  0  0  0  0  0  0  0  0  0  0
   -2.0826    0.7315    3.2030 H   0  0  0  0  0  0  0  0  0  0  0  0
    1.3634    2.8075    1.2172 H   0  0  0  0  0  0  0  0  0  0  0  0
    0.9637    1.9273   -0.2280 H   0  0  0  0  0  0  0  0  0  0  0  0
   -2.0298    2.9429    2.5601 H   0  0  0  0  0  0  0  0  0  0  0  0
   -0.3370    3.1079    2.9587 H   0  0  0  0  0  0  0  0  0  0  0  0
   -0.6169    1.3800   -1.6538 H   0  0  0  0  0  0  0  0  0  0  0  0
   -1.8042    2.6856   -1.5127 H   0  0  0  0  0  0  0  0  0  0  0  0
   -2.2579   -0.1492   -2.0874 H   0  0  0  0  0  0  0  0  0  0  0  0
    3.5077    1.3436    0.8100 H   0  0  0  0  0  0  0  0  0  0  0  0
   -4.1204   -0.8327   -2.9279 H   0  0  0  0  0  0  0  0  0  0  0  0
   -5.0608    0.4482   -3.6991 H   0  0  0  0  0  0  0  0  0  0  0  0
    2.5346   -4.2836    0.4710 H   0  0  0  0  0  0  0  0  0  0  0  0
    1.0573   -3.7205   -0.3419 H   0  0  0  0  0  0  0  0  0  0  0  0
    2.5532   -3.9192   -1.2701 H   0  0  0  0  0  0  0  0  0  0  0  0
    5.2370    1.9866   -0.8890 H   0  0  0  0  0  0  0  0  0  0  0  0
    7.8053    1.9594   -1.4977 H   0  0  0  0  0  0  0  0  0  0  0  0
    8.8230   -0.4542   -1.2325 H   0  0  0  0  0  0  0  0  0  0  0  0
   -4.4972   -0.7499    0.0335 H   0  0  0  0  0  0  0  0  0  0  0  0
   -4.8493   -2.2161   -0.9354 H   0  0  0  0  0  0  0  0  0  0  0  0
   -6.3547   -2.3051    2.4542 H   0  0  0  0  0  0  0  0  0  0  0  0
  1 23  1  0  0  0  0
  1 28  1  0  0  0  0
  2 24  1  0  0  0  0
  2 29  1  0  0  0  0
  3 21  2  0  0  0  0
  4 30  1  0  0  0  0
  4 56  1  0  0  0  0
  5 30  2  0  0  0  0
  6 12  1  0  0  0  0
  6 15  1  0  0  0  0
  6 16  1  0  0  0  0
  7 17  1  0  0  0  0
  7 21  1  0  0  0  0
  7 44  1  0  0  0  0
  8 18  2  0  0  0  0
  8 22  1  0  0  0  0
  9 20  1  0  0  0  0
  9 22  2  0  0  0  0
 10 11  1  0  0  0  0
 10 13  1  0  0  0  0
 10 14  1  0  0  0  0
 10 31  1  0  0  0  0
 11 15  1  0  0  0  0
 11 18  1  0  0  0  0
 11 32  1  0  0  0  0
 12 13  1  0  0  0  0
 12 17  1  0  0  0  0
 12 33  1  0  0  0  0
 13 34  1  0  0  0  0
 13 35  1  0  0  0  0
 14 16  1  0  0  0  0
 14 36  1  0  0  0  0
 14 37  1  0  0  0  0
 15 38  1  0  0  0  0
 15 39  1  0  0  0  0
 16 40  1  0  0  0  0
 16 41  1  0  0  0  0
 17 42  1  0  0  0  0
 17 43  1  0  0  0  0
 18 19  1  0  0  0  0
 19 20  2  0  0  0  0
 19 45  1  0  0  0  0
 20 23  1  0  0  0  0
 21 24  1  0  0  0  0
 22 25  1  0  0  0  0
 23 26  2  0  0  0  0
 24 46  1  0  0  0  0
 24 47  1  0  0  0  0
 25 48  1  0  0  0  0
 25 49  1  0  0  0  0
 25 50  1  0  0  0  0
 26 27  1  0  0  0  0
 26 51  1  0  0  0  0
 27 28  2  0  0  0  0
 27 52  1  0  0  0  0
 28 53  1  0  0  0  0
 29 30  1  0  0  0  0
 29 54  1  0  0  0  0
 29 55  1  0  0  0  0
M  END
> <PUBCHEM_COMPOUND_CID>
40777056

> <PUBCHEM_CONFORMER_RMSD>
1

> <PUBCHEM_CONFORMER_DIVERSEORDER>
1
11
16
67
33
55
65
64
60
50
35
48
56
7
31
42
28
8
41
27
10
38
59
40
68
49
43
52
62
15
53
47
14
17
63
21
58
4
57
69
22
32
51
34
23
66
24
19
30
9
3
25
18
5
45
36
61
44
54
12
20
13
46
6
37
26
39
29
2

> <PUBCHEM_MMFF94_PARTIAL_CHARGES>
33
1 -0.08
11 0.14
12 0.27
15 0.27
16 0.27
17 0.3
18 0.17
19 -0.15
2 -0.46
20 0.36
21 0.57
22 0.48
23 -0.01
24 0.29
25 0.14
26 -0.15
27 -0.15
28 -0.11
29 0.29
3 -0.57
30 0.66
4 -0.65
44 0.37
45 0.15
5 -0.57
51 0.15
52 0.15
53 0.15
56 0.5
6 -0.81
7 -0.73
8 -0.62
9 -0.62

> <PUBCHEM_EFFECTIVE_ROTOR_COUNT>
10.2

> <PUBCHEM_PHARMACOPHORE_FEATURES>
11
1 3 acceptor
1 4 acceptor
1 5 acceptor
1 6 cation
1 7 donor
1 8 acceptor
3 4 5 30 anion
3 8 9 22 cation
5 1 23 26 27 28 rings
6 8 9 18 19 20 22 rings
8 6 10 11 12 13 14 15 16 rings

> <PUBCHEM_HEAVY_ATOM_COUNT>
30

> <PUBCHEM_ATOM_DEF_STEREO_COUNT>
3

> <PUBCHEM_ATOM_UDEF_STEREO_COUNT>
0

> <PUBCHEM_BOND_DEF_STEREO_COUNT>
0

> <PUBCHEM_BOND_UDEF_STEREO_COUNT>
0

> <PUBCHEM_ISOTOPIC_ATOM_COUNT>
0

> <PUBCHEM_COMPONENT_COUNT>
1

> <PUBCHEM_CACTVS_TAUTO_COUNT>
2

> <PUBCHEM_CONFORMER_ID>
026E356000000001

> <PUBCHEM_MMFF94_ENERGY>
66.8993

> <PUBCHEM_FEATURE_SELFOVERLAP>
55.879

> <PUBCHEM_SHAPE_FINGERPRINT>
10076449 9 18340211881051430955
10190108 129 16773809090592241894
10577160 103 17023760059448654596
10794284 68 17274283693790998001
10928967 22 17273671244286515351
11135609 12 12535627168331912386
11374522 165 8573896527172285903
11374522 81 9438865871092867808
11961588 58 16877656855781848272
12373685 5 16370718232824906024
12633257 1 8646186144603013928
12788726 201 17417238823725766015
13103583 49 16056590002531299053
13673619 4 14620786103343711208
13726171 33 17386556957008123653
13947920 24 18113900468101052475
14040221 97 17833551580898903152
14767858 380 18272087193515311638
150020 25 18113051649181753455
15142383 8 10303815380780663358
15361156 5 18335969914685787461
15537594 2 17846486033074894031
21403212 168 7925642080937885024
21591331 117 17203328931057670781
22440779 20 17988639667223004473
22849341 161 16845287289526676825
23569917 315 18340774737640289350
25269216 80 17676199192168210279
2838139 119 15213017124700972044
3737641 26 16845297081408520807
4098825 35 18041277668977462074
437795 51 18269832176117428944
46194498 28 18114739460219080925
504843 32 17342955741483041529
57366028 249 18128546053969230376
5912855 24 17844252826132038625
6371009 1 12973602214112283495
6691757 9 14345802634430188368

> <PUBCHEM_SHAPE_MULTIPOLES>
587.55
18.98
2.88
2.45
5.43
0.56
0.31
9.99
9.14
-0.75
-1.18
-3.84
-0.98
0.57

> <PUBCHEM_SHAPE_SELFOVERLAP>
1223.716

> <PUBCHEM_SHAPE_VOLUME>
335.3

> <PUBCHEM_COORDINATE_TYPE>
2
5
10

$$$$
