7687036
  -OEChem-12032416293D

 52 56  0     1  0  0  0  0  0999 V2000
   -0.9987   -3.5529    2.3994 O   0  0  0  0  0  0  0  0  0  0  0  0
    3.1874   -1.6348    0.2672 O   0  0  0  0  0  0  0  0  0  0  0  0
    3.8317    1.3766   -1.1045 O   0  0  0  0  0  0  0  0  0  0  0  0
    1.4221   -1.1297   -1.1803 N   0  0  0  0  0  0  0  0  0  0  0  0
   -1.0370   -2.2421    0.4588 N   0  0  0  0  0  0  0  0  0  0  0  0
   -2.0512    3.4783   -0.6111 N   0  0  0  0  0  0  0  0  0  0  0  0
   -4.1676    2.4835   -1.1929 N   0  0  0  0  0  0  0  0  0  0  0  0
   -0.0141   -3.0742   -1.7423 C   0  0  1  0  0  0  0  0  0  0  0  0
   -1.0062   -0.8262   -1.6176 C   0  0  2  0  0  0  0  0  0  0  0  0
   -1.0245   -2.1422   -2.3944 C   0  0  0  0  0  0  0  0  0  0  0  0
    1.3955   -2.4601   -1.7849 C   0  0  0  0  0  0  0  0  0  0  0  0
   -0.4716   -3.3603   -0.3107 C   0  0  0  0  0  0  0  0  0  0  0  0
    0.4039   -0.2015   -1.6937 C   0  0  0  0  0  0  0  0  0  0  0  0
   -1.4097   -1.0295   -0.1551 C   0  0  0  0  0  0  0  0  0  0  0  0
   -2.0713   -0.0831    0.5608 C   0  0  0  0  0  0  0  0  0  0  0  0
   -1.2901   -2.5083    1.8160 C   0  0  0  0  0  0  0  0  0  0  0  0
    2.3366   -0.8559   -0.1603 C   0  0  0  0  0  0  0  0  0  0  0  0
   -2.3457   -0.3211    1.9649 C   0  0  0  0  0  0  0  0  0  0  0  0
   -1.9765   -1.4433    2.5820 C   0  0  0  0  0  0  0  0  0  0  0  0
   -2.5038    1.1937   -0.0488 C   0  0  0  0  0  0  0  0  0  0  0  0
    2.2845    0.4617    0.4840 C   0  0  0  0  0  0  0  0  0  0  0  0
   -1.6893    2.2991   -0.0643 C   0  0  0  0  0  0  0  0  0  0  0  0
   -3.7408    1.3348   -0.6282 C   0  0  0  0  0  0  0  0  0  0  0  0
    3.0328    1.5280   -0.0107 C   0  0  0  0  0  0  0  0  0  0  0  0
    1.4727    0.6352    1.6036 C   0  0  0  0  0  0  0  0  0  0  0  0
    2.9694    2.7723    0.6163 C   0  0  0  0  0  0  0  0  0  0  0  0
    1.4092    1.8795    2.2305 C   0  0  0  0  0  0  0  0  0  0  0  0
    2.1576    2.9481    1.7369 C   0  0  0  0  0  0  0  0  0  0  0  0
   -3.2852    3.4998   -1.1498 C   0  0  0  0  0  0  0  0  0  0  0  0
    5.1798    0.9745   -0.8711 C   0  0  0  0  0  0  0  0  0  0  0  0
    0.0207   -4.0227   -2.2922 H   0  0  0  0  0  0  0  0  0  0  0  0
   -1.7065   -0.1520   -2.1229 H   0  0  0  0  0  0  0  0  0  0  0  0
   -2.0276   -2.5867   -2.3826 H   0  0  0  0  0  0  0  0  0  0  0  0
   -0.7621   -1.9697   -3.4454 H   0  0  0  0  0  0  0  0  0  0  0  0
    2.1133   -3.1251   -1.2933 H   0  0  0  0  0  0  0  0  0  0  0  0
    1.7226   -2.3447   -2.8254 H   0  0  0  0  0  0  0  0  0  0  0  0
   -1.2629   -4.1222   -0.3439 H   0  0  0  0  0  0  0  0  0  0  0  0
    0.3475   -3.8057    0.2685 H   0  0  0  0  0  0  0  0  0  0  0  0
    0.6638    0.0020   -2.7401 H   0  0  0  0  0  0  0  0  0  0  0  0
    0.4388    0.7561   -1.1739 H   0  0  0  0  0  0  0  0  0  0  0  0
   -2.8574    0.4544    2.5273 H   0  0  0  0  0  0  0  0  0  0  0  0
   -2.1796   -1.6097    3.6332 H   0  0  0  0  0  0  0  0  0  0  0  0
   -0.6977    2.2935    0.3679 H   0  0  0  0  0  0  0  0  0  0  0  0
   -4.4545    0.5178   -0.6658 H   0  0  0  0  0  0  0  0  0  0  0  0
    0.8975   -0.1931    2.0054 H   0  0  0  0  0  0  0  0  0  0  0  0
    3.5486    3.6098    0.2368 H   0  0  0  0  0  0  0  0  0  0  0  0
    0.7784    2.0155    3.1040 H   0  0  0  0  0  0  0  0  0  0  0  0
    2.1078    3.9170    2.2250 H   0  0  0  0  0  0  0  0  0  0  0  0
   -3.6019    4.4345   -1.5962 H   0  0  0  0  0  0  0  0  0  0  0  0
    5.2236    0.0421   -0.3011 H   0  0  0  0  0  0  0  0  0  0  0  0
    5.7223    1.7623   -0.3388 H   0  0  0  0  0  0  0  0  0  0  0  0
    5.6609    0.8137   -1.8397 H   0  0  0  0  0  0  0  0  0  0  0  0
  1 16  2  0  0  0  0
  2 17  2  0  0  0  0
  3 24  1  0  0  0  0
  3 30  1  0  0  0  0
  4 11  1  0  0  0  0
  4 13  1  0  0  0  0
  4 17  1  0  0  0  0
  5 12  1  0  0  0  0
  5 14  1  0  0  0  0
  5 16  1  0  0  0  0
  6 22  2  0  0  0  0
  6 29  1  0  0  0  0
  7 23  1  0  0  0  0
  7 29  2  0  0  0  0
  8 10  1  0  0  0  0
  8 11  1  0  0  0  0
  8 12  1  0  0  0  0
  8 31  1  0  0  0  0
  9 10  1  0  0  0  0
  9 13  1  0  0  0  0
  9 14  1  0  0  0  0
  9 32  1  0  0  0  0
 10 33  1  0  0  0  0
 10 34  1  0  0  0  0
 11 35  1  0  0  0  0
 11 36  1  0  0  0  0
 12 37  1  0  0  0  0
 12 38  1  0  0  0  0
 13 39  1  0  0  0  0
 13 40  1  0  0  0  0
 14 15  2  0  0  0  0
 15 18  1  0  0  0  0
 15 20  1  0  0  0  0
 16 19  1  0  0  0  0
 17 21  1  0  0  0  0
 18 19  2  0  0  0  0
 18 41  1  0  0  0  0
 19 42  1  0  0  0  0
 20 22  1  0  0  0  0
 20 23  2  0  0  0  0
 21 24  1  0  0  0  0
 21 25  2  0  0  0  0
 22 43  1  0  0  0  0
 23 44  1  0  0  0  0
 24 26  2  0  0  0  0
 25 27  1  0  0  0  0
 25 45  1  0  0  0  0
 26 28  1  0  0  0  0
 26 46  1  0  0  0  0
 27 28  2  0  0  0  0
 27 47  1  0  0  0  0
 28 48  1  0  0  0  0
 29 49  1  0  0  0  0
 30 50  1  0  0  0  0
 30 51  1  0  0  0  0
 30 52  1  0  0  0  0
M  END
> <PUBCHEM_COMPOUND_CID>
7687036

> <PUBCHEM_CONFORMER_RMSD>
0.8

> <PUBCHEM_CONFORMER_DIVERSEORDER>
1
6
4
5
7
3
2

> <PUBCHEM_MMFF94_PARTIAL_CHARGES>
37
1 -0.57
11 0.3
12 0.3
13 0.3
14 -0.03
15 -0.03
16 0.62
17 0.54
18 -0.15
19 -0.14
2 -0.57
20 0.03
21 0.09
22 0.16
23 0.16
24 0.08
25 -0.15
26 -0.15
27 -0.15
28 -0.15
29 0.47
3 -0.36
30 0.28
4 -0.66
41 0.15
42 0.15
43 0.15
44 0.15
45 0.15
46 0.15
47 0.15
48 0.15
49 0.15
5 -0.47
6 -0.62
7 -0.62
9 0.14

> <PUBCHEM_EFFECTIVE_ROTOR_COUNT>
5

> <PUBCHEM_PHARMACOPHORE_FEATURES>
10
1 1 acceptor
1 2 acceptor
1 3 acceptor
1 6 acceptor
3 6 7 29 cation
6 21 24 25 26 27 28 rings
6 4 8 9 10 11 13 rings
6 5 14 15 16 18 19 rings
6 5 8 9 10 12 14 rings
6 6 7 20 22 23 29 rings

> <PUBCHEM_HEAVY_ATOM_COUNT>
30

> <PUBCHEM_ATOM_DEF_STEREO_COUNT>
2

> <PUBCHEM_ATOM_UDEF_STEREO_COUNT>
0

> <PUBCHEM_BOND_DEF_STEREO_COUNT>
0

> <PUBCHEM_BOND_UDEF_STEREO_COUNT>
0

> <PUBCHEM_ISOTOPIC_ATOM_COUNT>
0

> <PUBCHEM_COMPONENT_COUNT>
1

> <PUBCHEM_CACTVS_TAUTO_COUNT>
1

> <PUBCHEM_CONFORMER_ID>
00754B7C00000001

> <PUBCHEM_MMFF94_ENERGY>
103.5109

> <PUBCHEM_FEATURE_SELFOVERLAP>
52.332

> <PUBCHEM_SHAPE_FINGERPRINT>
10165383 225 18056788586937603400
107951 10 18187650184547662728
10871710 139 17618776302920949869
11135926 11 17129890407500909540
11582403 64 18190445074903230455
11725454 13 18189887626765673735
12156800 1 14825342626144980976
12788726 201 18042674190948150539
128993 33 17842566416087771576
1361 2 18199450221332980573
14840074 17 15746101434746493305
17974551 9 17677053434570966922
18219364 16 17988095485653426784
18603816 31 13612031386756277956
18981168 100 16556783225084076794
19930381 70 18058435526966111005
21860390 5 17543883747431817189
21927370 108 16536786600689113584
23419403 2 17836124132610462155
23559900 14 17481684392192694349
238 59 18129934585976025173
35225 105 17822555205514301121
460360 51 18127684045310197392
469060 322 17188114138550851466
5895379 119 16185776755859255969
70251023 43 17200507722230133286
9981440 41 18410854326283182431

> <PUBCHEM_SHAPE_MULTIPOLES>
579.85
6.18
4.78
2.47
4.8
0.41
1
5.23
-1.15
-2.4
-0.7
-0.98
-1.17
2.44

> <PUBCHEM_SHAPE_SELFOVERLAP>
1283.77

> <PUBCHEM_SHAPE_VOLUME>
302.1

> <PUBCHEM_COORDINATE_TYPE>
2
5
10

$$$$
