7051449
  -OEChem-12032416333D

 60 64  0     1  0  0  0  0  0999 V2000
   -3.7292    0.5022    1.1924 S   0  0  0  0  0  0  0  0  0  0  0  0
   -3.7114    2.1300   -1.2360 S   0  0  0  0  0  0  0  0  0  0  0  0
   -1.8845   -1.8646    2.0577 O   0  0  0  0  0  0  0  0  0  0  0  0
    4.4676    4.2183    1.5881 O   0  0  0  0  0  0  0  0  0  0  0  0
   -4.5473    0.2964    2.3727 O   0  0  0  0  0  0  0  0  0  0  0  0
   -2.3604    0.9647    1.3236 O   0  0  0  0  0  0  0  0  0  0  0  0
    2.5388   -1.3093   -0.2477 N   0  0  2  0  0  0  0  0  0  0  0  0
   -0.3762   -2.4502    0.3632 N   0  0  0  0  0  0  0  0  0  0  0  0
    4.3423    2.5031    0.0260 N   0  0  0  0  0  0  0  0  0  0  0  0
   -3.7718   -0.8828    0.2205 N   0  0  0  0  0  0  0  0  0  0  0  0
    1.9192   -3.4893    0.8241 C   0  0  1  0  0  0  0  0  0  0  0  0
    1.2308   -3.0424   -1.4838 C   0  0  2  0  0  0  0  0  0  0  0  0
    1.7379   -4.1331   -0.5442 C   0  0  0  0  0  0  0  0  0  0  0  0
    2.9326   -2.3288    0.7324 C   0  0  0  0  0  0  0  0  0  0  0  0
    2.2742   -1.9051   -1.5660 C   0  0  0  0  0  0  0  0  0  0  0  0
    3.5467   -0.2561   -0.3423 C   0  0  0  0  0  0  0  0  0  0  0  0
    0.5485   -3.0349    1.3435 C   0  0  0  0  0  0  0  0  0  0  0  0
   -0.1069   -2.5030   -1.0112 C   0  0  0  0  0  0  0  0  0  0  0  0
    3.0629    0.8524   -1.2863 C   0  0  0  0  0  0  0  0  0  0  0  0
    3.8419    0.3168    1.0499 C   0  0  0  0  0  0  0  0  0  0  0  0
    4.0600    2.0103   -1.3279 C   0  0  0  0  0  0  0  0  0  0  0  0
    4.8228    1.4847    0.9621 C   0  0  0  0  0  0  0  0  0  0  0  0
   -1.0145   -2.0621   -1.9013 C   0  0  0  0  0  0  0  0  0  0  0  0
   -1.5850   -1.9246    0.8658 C   0  0  0  0  0  0  0  0  0  0  0  0
   -2.5362   -1.4338   -0.1629 C   0  0  0  0  0  0  0  0  0  0  0  0
   -2.2691   -1.5090   -1.4673 C   0  0  0  0  0  0  0  0  0  0  0  0
    4.2242    3.8286    0.4431 C   0  0  0  0  0  0  0  0  0  0  0  0
    3.7661    4.8245   -0.5921 C   0  0  0  0  0  0  0  0  0  0  0  0
   -4.5795    1.6566    0.1567 C   0  0  0  0  0  0  0  0  0  0  0  0
   -5.8080    2.2575    0.2434 C   0  0  0  0  0  0  0  0  0  0  0  0
   -6.0479    3.1290   -0.8580 C   0  0  0  0  0  0  0  0  0  0  0  0
   -4.9886    3.1541   -1.7381 C   0  0  0  0  0  0  0  0  0  0  0  0
    2.3253   -4.2292    1.5255 H   0  0  0  0  0  0  0  0  0  0  0  0
    1.1186   -3.4813   -2.4842 H   0  0  0  0  0  0  0  0  0  0  0  0
    1.0293   -4.9692   -0.4919 H   0  0  0  0  0  0  0  0  0  0  0  0
    2.6901   -4.5396   -0.9063 H   0  0  0  0  0  0  0  0  0  0  0  0
    2.9828   -1.9153    1.7443 H   0  0  0  0  0  0  0  0  0  0  0  0
    3.9221   -2.7387    0.4888 H   0  0  0  0  0  0  0  0  0  0  0  0
    3.2005   -2.2982   -2.0066 H   0  0  0  0  0  0  0  0  0  0  0  0
    1.8661   -1.1699   -2.2662 H   0  0  0  0  0  0  0  0  0  0  0  0
    4.4830   -0.6694   -0.7452 H   0  0  0  0  0  0  0  0  0  0  0  0
    0.0253   -3.9079    1.7572 H   0  0  0  0  0  0  0  0  0  0  0  0
    0.6631   -2.3312    2.1777 H   0  0  0  0  0  0  0  0  0  0  0  0
    2.0848    1.2290   -0.9588 H   0  0  0  0  0  0  0  0  0  0  0  0
    2.9579    0.5041   -2.3181 H   0  0  0  0  0  0  0  0  0  0  0  0
    4.3127   -0.4169    1.7118 H   0  0  0  0  0  0  0  0  0  0  0  0
    2.9138    0.6589    1.5266 H   0  0  0  0  0  0  0  0  0  0  0  0
    5.0135    1.6791   -1.7565 H   0  0  0  0  0  0  0  0  0  0  0  0
    3.6713    2.7975   -1.9762 H   0  0  0  0  0  0  0  0  0  0  0  0
    4.9781    1.9125    1.9576 H   0  0  0  0  0  0  0  0  0  0  0  0
    5.7986    1.1412    0.5981 H   0  0  0  0  0  0  0  0  0  0  0  0
   -0.8225   -2.0876   -2.9688 H   0  0  0  0  0  0  0  0  0  0  0  0
   -2.9569   -1.1610   -2.2306 H   0  0  0  0  0  0  0  0  0  0  0  0
   -4.4763   -0.8718   -0.5301 H   0  0  0  0  0  0  0  0  0  0  0  0
    3.7387    5.8244   -0.1481 H   0  0  0  0  0  0  0  0  0  0  0  0
    2.7582    4.5758   -0.9346 H   0  0  0  0  0  0  0  0  0  0  0  0
    4.4640    4.8453   -1.4333 H   0  0  0  0  0  0  0  0  0  0  0  0
   -6.5071    2.0871    1.0519 H   0  0  0  0  0  0  0  0  0  0  0  0
   -6.9515    3.7079   -0.9976 H   0  0  0  0  0  0  0  0  0  0  0  0
   -4.9036    3.7248   -2.6522 H   0  0  0  0  0  0  0  0  0  0  0  0
  1  5  2  0  0  0  0
  1  6  2  0  0  0  0
  1 10  1  0  0  0  0
  1 29  1  0  0  0  0
  2 29  1  0  0  0  0
  2 32  1  0  0  0  0
  3 24  2  0  0  0  0
  4 27  2  0  0  0  0
  7 14  1  0  0  0  0
  7 15  1  0  0  0  0
  7 16  1  0  0  0  0
  8 17  1  0  0  0  0
  8 18  1  0  0  0  0
  8 24  1  0  0  0  0
  9 21  1  0  0  0  0
  9 22  1  0  0  0  0
  9 27  1  0  0  0  0
 10 25  1  0  0  0  0
 10 54  1  0  0  0  0
 11 13  1  0  0  0  0
 11 14  1  0  0  0  0
 11 17  1  0  0  0  0
 11 33  1  0  0  0  0
 12 13  1  0  0  0  0
 12 15  1  0  0  0  0
 12 18  1  0  0  0  0
 12 34  1  0  0  0  0
 13 35  1  0  0  0  0
 13 36  1  0  0  0  0
 14 37  1  0  0  0  0
 14 38  1  0  0  0  0
 15 39  1  0  0  0  0
 15 40  1  0  0  0  0
 16 19  1  0  0  0  0
 16 20  1  0  0  0  0
 16 41  1  0  0  0  0
 17 42  1  0  0  0  0
 17 43  1  0  0  0  0
 18 23  2  0  0  0  0
 19 21  1  0  0  0  0
 19 44  1  0  0  0  0
 19 45  1  0  0  0  0
 20 22  1  0  0  0  0
 20 46  1  0  0  0  0
 20 47  1  0  0  0  0
 21 48  1  0  0  0  0
 21 49  1  0  0  0  0
 22 50  1  0  0  0  0
 22 51  1  0  0  0  0
 23 26  1  0  0  0  0
 23 52  1  0  0  0  0
 24 25  1  0  0  0  0
 25 26  2  0  0  0  0
 26 53  1  0  0  0  0
 27 28  1  0  0  0  0
 28 55  1  0  0  0  0
 28 56  1  0  0  0  0
 28 57  1  0  0  0  0
 29 30  2  0  0  0  0
 30 31  1  0  0  0  0
 30 58  1  0  0  0  0
 31 32  2  0  0  0  0
 31 59  1  0  0  0  0
 32 60  1  0  0  0  0
M  END
> <PUBCHEM_COMPOUND_CID>
7051449

> <PUBCHEM_CONFORMER_RMSD>
1

> <PUBCHEM_CONFORMER_DIVERSEORDER>
1
15
55
37
44
50
29
32
61
54
40
24
45
39
20
59
12
56
63
35
17
41
43
49
53
5
28
4
13
3
6
23
31
64
58
8
38
47
60
51
46
34
19
36
26
48
7
42
62
22
52
25
10
16
57
21
11
30
14
33
9
18
27
2

> <PUBCHEM_MMFF94_PARTIAL_CHARGES>
34
1 1.5
10 -0.75
12 0.14
14 0.27
15 0.27
16 0.27
17 0.3
18 -0.03
2 -0.08
21 0.3
22 0.3
23 -0.15
24 0.62
25 0.21
26 -0.15
27 0.57
28 0.06
29 -0.02
3 -0.57
30 -0.15
31 -0.15
32 -0.11
4 -0.57
5 -0.65
52 0.15
53 0.15
54 0.42
58 0.15
59 0.15
6 -0.65
60 0.15
7 -0.81
8 -0.47
9 -0.66

> <PUBCHEM_EFFECTIVE_ROTOR_COUNT>
7.2

> <PUBCHEM_PHARMACOPHORE_FEATURES>
11
1 10 donor
1 3 acceptor
1 4 acceptor
1 5 acceptor
1 6 acceptor
1 7 cation
5 2 29 30 31 32 rings
6 7 11 12 13 14 15 rings
6 8 11 12 13 17 18 rings
6 8 18 23 24 25 26 rings
6 9 16 19 20 21 22 rings

> <PUBCHEM_HEAVY_ATOM_COUNT>
32

> <PUBCHEM_ATOM_DEF_STEREO_COUNT>
2

> <PUBCHEM_ATOM_UDEF_STEREO_COUNT>
0

> <PUBCHEM_BOND_DEF_STEREO_COUNT>
0

> <PUBCHEM_BOND_UDEF_STEREO_COUNT>
0

> <PUBCHEM_ISOTOPIC_ATOM_COUNT>
0

> <PUBCHEM_COMPONENT_COUNT>
1

> <PUBCHEM_CACTVS_TAUTO_COUNT>
1

> <PUBCHEM_CONFORMER_ID>
006B98B900000001

> <PUBCHEM_MMFF94_ENERGY>
71.7782

> <PUBCHEM_FEATURE_SELFOVERLAP>
57.395

> <PUBCHEM_SHAPE_FINGERPRINT>
10673678 19 18199462182942948237
10675989 125 18342458097440164032
10937287 8 18341894155601653406
11285246 1 11023839382811955829
11456790 92 17248372388312373657
12166972 35 17697308521988013135
12422481 6 18113889447346774564
12633257 1 16443626916907397566
13383661 66 10662947836816049645
13583140 156 17972050141288415083
13590594 115 17836093269213415022
13617811 41 17833816550020018917
13965767 371 17968087629993032686
14068700 686 18337117868870288651
14480069 147 9367054597544705293
14725015 67 17536307034317008149
14739800 52 17751353989891262657
14950920 106 17169257346931455656
15064981 113 17559394863466863868
15320291 9 17693654122815237184
15629462 23 16393798845344020639
16067690 210 16897054727882511408
16988056 13 18196939868682160598
19246450 95 18264744668072270624
19304152 47 18043541718138323328
20764821 26 18270098219393060096
21033648 29 17677911032424231851
21049683 118 17096089070287670385
21388113 180 18408040702046200405
21475661 188 18261957336479452143
21860390 5 18124878949859835358
22889206 1 17896031045278207874
23466295 7 10122826416013775222
23559900 14 17912650107755833175
2838139 119 18341326786016212358
325973 47 18122623847111317349
3298306 158 18410575072063526953
376196 1 18409730681514265034
437795 139 12894801264148748700
50677037 204 16105303087216066604
6036956 94 17615401897678065925
6086070 43 18267308620791116703
7288768 16 18043249252577653378
7970288 3 9006519228564543908

> <PUBCHEM_SHAPE_MULTIPOLES>
622.84
12.53
6.56
1.89
11.54
4.06
-0.14
17.28
-0.73
-6.86
0.43
0.77
-0.32
1.87

> <PUBCHEM_SHAPE_SELFOVERLAP>
1316.432

> <PUBCHEM_SHAPE_VOLUME>
348.4

> <PUBCHEM_COORDINATE_TYPE>
2
5
10

$$$$
