7144073
  -OEChem-12032416233D

 56 60  0     1  0  0  0  0  0999 V2000
    9.0048   -0.9177    0.6891 Cl  0  0  0  0  0  0  0  0  0  0  0  0
    0.7717    2.6141    1.5341 O   0  0  0  0  0  0  0  0  0  0  0  0
   -3.7642    0.6925    0.6428 N   0  0  2  0  0  0  0  0  0  0  0  0
   -1.0556    2.2977    0.1225 N   0  0  0  0  0  0  0  0  0  0  0  0
    0.2958   -3.7256    0.0540 N   0  0  0  0  0  0  0  0  0  0  0  0
   -3.3997    3.1724    0.6804 C   0  0  1  0  0  0  0  0  0  0  0  0
   -3.0287    1.9326   -1.3980 C   0  0  2  0  0  0  0  0  0  0  0  0
   -3.5723    3.2412   -0.8311 C   0  0  0  0  0  0  0  0  0  0  0  0
   -4.1766    1.9652    1.2471 C   0  0  0  0  0  0  0  0  0  0  0  0
   -3.8369    0.7461   -0.8251 C   0  0  0  0  0  0  0  0  0  0  0  0
   -1.9010    3.1139    1.0058 C   0  0  0  0  0  0  0  0  0  0  0  0
   -1.5545    1.7769   -1.0737 C   0  0  0  0  0  0  0  0  0  0  0  0
   -4.5571   -0.4174    1.1658 C   0  0  0  0  0  0  0  0  0  0  0  0
   -0.7371    1.1280   -1.9178 C   0  0  0  0  0  0  0  0  0  0  0  0
    0.2961    2.1524    0.4951 C   0  0  0  0  0  0  0  0  0  0  0  0
    1.1824    1.3969   -0.4589 C   0  0  0  0  0  0  0  0  0  0  0  0
    0.6494    0.9372   -1.5995 C   0  0  0  0  0  0  0  0  0  0  0  0
   -4.0639   -1.7342    0.6312 C   0  0  0  0  0  0  0  0  0  0  0  0
    2.5731    1.1927   -0.1404 C   0  0  0  0  0  0  0  0  0  0  0  0
   -2.7007   -1.9960    0.6056 C   0  0  0  0  0  0  0  0  0  0  0  0
   -4.9792   -2.6710    0.1701 C   0  0  0  0  0  0  0  0  0  0  0  0
   -2.2441   -3.2172    0.1095 C   0  0  0  0  0  0  0  0  0  0  0  0
   -4.5227   -3.8923   -0.3259 C   0  0  0  0  0  0  0  0  0  0  0  0
    3.2640    0.1228   -0.5531 C   0  0  0  0  0  0  0  0  0  0  0  0
   -3.1552   -4.1653   -0.3561 C   0  0  0  0  0  0  0  0  0  0  0  0
    4.6818   -0.1342   -0.2457 C   0  0  0  0  0  0  0  0  0  0  0  0
   -0.8432   -3.4976    0.0789 C   0  0  0  0  0  0  0  0  0  0  0  0
    5.4931    0.9187    0.1454 C   0  0  0  0  0  0  0  0  0  0  0  0
    5.1768   -1.4237   -0.3545 C   0  0  0  0  0  0  0  0  0  0  0  0
    6.8357    0.6754    0.4356 C   0  0  0  0  0  0  0  0  0  0  0  0
    6.5194   -1.6670   -0.0642 C   0  0  0  0  0  0  0  0  0  0  0  0
    7.3487   -0.6175    0.3308 C   0  0  0  0  0  0  0  0  0  0  0  0
   -3.8167    4.0780    1.1386 H   0  0  0  0  0  0  0  0  0  0  0  0
   -3.1675    1.9510   -2.4871 H   0  0  0  0  0  0  0  0  0  0  0  0
   -3.0364    4.1037   -1.2466 H   0  0  0  0  0  0  0  0  0  0  0  0
   -4.6306    3.3631   -1.0919 H   0  0  0  0  0  0  0  0  0  0  0  0
   -4.0178    1.9236    2.3320 H   0  0  0  0  0  0  0  0  0  0  0  0
   -5.2507    2.1322    1.0875 H   0  0  0  0  0  0  0  0  0  0  0  0
   -4.8826    0.8431   -1.1496 H   0  0  0  0  0  0  0  0  0  0  0  0
   -3.4493   -0.1665   -1.2912 H   0  0  0  0  0  0  0  0  0  0  0  0
   -1.4915    4.1318    0.9473 H   0  0  0  0  0  0  0  0  0  0  0  0
   -1.7438    2.7856    2.0409 H   0  0  0  0  0  0  0  0  0  0  0  0
   -5.6199   -0.2775    0.9273 H   0  0  0  0  0  0  0  0  0  0  0  0
   -4.4763   -0.4578    2.2599 H   0  0  0  0  0  0  0  0  0  0  0  0
   -1.0999    0.7087   -2.8504 H   0  0  0  0  0  0  0  0  0  0  0  0
    1.2276    0.4076   -2.3503 H   0  0  0  0  0  0  0  0  0  0  0  0
    3.0243    1.9601    0.4801 H   0  0  0  0  0  0  0  0  0  0  0  0
   -1.9853   -1.2674    0.9808 H   0  0  0  0  0  0  0  0  0  0  0  0
   -6.0467   -2.4708    0.1891 H   0  0  0  0  0  0  0  0  0  0  0  0
   -5.2321   -4.6305   -0.6883 H   0  0  0  0  0  0  0  0  0  0  0  0
    2.7832   -0.6613   -1.1338 H   0  0  0  0  0  0  0  0  0  0  0  0
   -2.8148   -5.1217   -0.7455 H   0  0  0  0  0  0  0  0  0  0  0  0
    5.1443    1.9437    0.2185 H   0  0  0  0  0  0  0  0  0  0  0  0
    4.5433   -2.2524   -0.6596 H   0  0  0  0  0  0  0  0  0  0  0  0
    7.4720    1.5034    0.7375 H   0  0  0  0  0  0  0  0  0  0  0  0
    6.9054   -2.6795   -0.1497 H   0  0  0  0  0  0  0  0  0  0  0  0
  1 32  1  0  0  0  0
  2 15  2  0  0  0  0
  3  9  1  0  0  0  0
  3 10  1  0  0  0  0
  3 13  1  0  0  0  0
  4 11  1  0  0  0  0
  4 12  1  0  0  0  0
  4 15  1  0  0  0  0
  5 27  3  0  0  0  0
  6  8  1  0  0  0  0
  6  9  1  0  0  0  0
  6 11  1  0  0  0  0
  6 33  1  0  0  0  0
  7  8  1  0  0  0  0
  7 10  1  0  0  0  0
  7 12  1  0  0  0  0
  7 34  1  0  0  0  0
  8 35  1  0  0  0  0
  8 36  1  0  0  0  0
  9 37  1  0  0  0  0
  9 38  1  0  0  0  0
 10 39  1  0  0  0  0
 10 40  1  0  0  0  0
 11 41  1  0  0  0  0
 11 42  1  0  0  0  0
 12 14  2  0  0  0  0
 13 18  1  0  0  0  0
 13 43  1  0  0  0  0
 13 44  1  0  0  0  0
 14 17  1  0  0  0  0
 14 45  1  0  0  0  0
 15 16  1  0  0  0  0
 16 17  2  0  0  0  0
 16 19  1  0  0  0  0
 17 46  1  0  0  0  0
 18 20  2  0  0  0  0
 18 21  1  0  0  0  0
 19 24  2  0  0  0  0
 19 47  1  0  0  0  0
 20 22  1  0  0  0  0
 20 48  1  0  0  0  0
 21 23  2  0  0  0  0
 21 49  1  0  0  0  0
 22 25  2  0  0  0  0
 22 27  1  0  0  0  0
 23 25  1  0  0  0  0
 23 50  1  0  0  0  0
 24 26  1  0  0  0  0
 24 51  1  0  0  0  0
 25 52  1  0  0  0  0
 26 28  2  0  0  0  0
 26 29  1  0  0  0  0
 28 30  1  0  0  0  0
 28 53  1  0  0  0  0
 29 31  2  0  0  0  0
 29 54  1  0  0  0  0
 30 32  2  0  0  0  0
 30 55  1  0  0  0  0
 31 32  1  0  0  0  0
 31 56  1  0  0  0  0
M  END
> <PUBCHEM_COMPOUND_CID>
7144073

> <PUBCHEM_CONFORMER_RMSD>
0.8

> <PUBCHEM_CONFORMER_DIVERSEORDER>
1
7
10
15
16
19
9
11
14
8
17
13
18
5
6
12
4
2
3

> <PUBCHEM_MMFF94_PARTIAL_CHARGES>
42
1 -0.18
10 0.27
11 0.3
12 -0.03
13 0.41
14 -0.15
15 0.62
16 0.01
17 -0.15
18 -0.14
19 -0.15
2 -0.57
20 -0.15
21 -0.15
22 0.07
23 -0.15
24 -0.18
25 -0.15
26 0.03
27 0.48
28 -0.15
29 -0.15
3 -0.81
30 -0.15
31 -0.15
32 0.18
4 -0.47
45 0.15
46 0.15
47 0.15
48 0.15
49 0.15
5 -0.56
50 0.15
51 0.15
52 0.15
53 0.15
54 0.15
55 0.15
56 0.15
7 0.14
9 0.27

> <PUBCHEM_EFFECTIVE_ROTOR_COUNT>
5

> <PUBCHEM_PHARMACOPHORE_FEATURES>
8
1 2 acceptor
1 3 cation
1 5 acceptor
6 18 20 21 22 23 25 rings
6 26 28 29 30 31 32 rings
6 3 6 7 8 9 10 rings
6 4 12 14 15 16 17 rings
6 4 6 7 8 11 12 rings

> <PUBCHEM_HEAVY_ATOM_COUNT>
32

> <PUBCHEM_ATOM_DEF_STEREO_COUNT>
2

> <PUBCHEM_ATOM_UDEF_STEREO_COUNT>
0

> <PUBCHEM_BOND_DEF_STEREO_COUNT>
1

> <PUBCHEM_BOND_UDEF_STEREO_COUNT>
0

> <PUBCHEM_ISOTOPIC_ATOM_COUNT>
0

> <PUBCHEM_COMPONENT_COUNT>
1

> <PUBCHEM_CACTVS_TAUTO_COUNT>
1

> <PUBCHEM_CONFORMER_ID>
006D028900000001

> <PUBCHEM_MMFF94_ENERGY>
87.0374

> <PUBCHEM_FEATURE_SELFOVERLAP>
42.151

> <PUBCHEM_SHAPE_FINGERPRINT>
100830 39 18410854352717858362
10462674 296 17697023009906172958
10483366 6 18337939174560938775
10864689 126 17689727363597526494
10939801 23 18266181819942571438
11135609 187 18048027477300039757
11756154 5 18342731923648961960
12202916 173 17988922250421986165
12522641 33 18044080260832072773
12633257 1 17914925203634798401
12712778 12 18410300211167426422
13111901 25 18042111078535643626
14725015 67 18339922744328344123
14844126 61 18409455795359816833
14856354 85 18343022177317663148
14866123 147 18409731763777575099
14950920 106 17845946228747762257
15021287 119 17095530591231835876
15439362 3 17686332071939172645
15803439 3 17681519612696836005
15927050 60 18267863870737730743
17627616 140 18116425955831456634
19611394 137 18202002136549875360
20766409 102 18122060073705700332
20771845 165 17391345213766616893
21236236 1 18408322189996989974
229767 44 18409456902934455675
23516275 137 17828505578156235090
23523787 8 17683478989698973159
23559900 14 18338227267186076753
244849 19 17702363191941875178
3383291 50 18411984663577609307
397830 11 18270390703235834656
4073 2 18341330003801005878
4616759 239 17988635251916691288
469060 322 16732701640896296486
484985 159 18335131003966285207
5080951 261 18115844388053714334
5104073 3 18339911681151459856
68570916 9 18260834821967129724

> <PUBCHEM_SHAPE_MULTIPOLES>
639.6
17.32
5.38
1.25
46.12
3.91
0.21
7.64
-3.78
-9.4
-0.25
-0.81
-0.81
-0.04

> <PUBCHEM_SHAPE_SELFOVERLAP>
1396.219

> <PUBCHEM_SHAPE_VOLUME>
344.5

> <PUBCHEM_COORDINATE_TYPE>
2
5
10

$$$$
