28963145
  -OEChem-12032416193D

 70 72  0     1  0  0  0  0  0999 V2000
    1.1482   -4.8185    0.1107 F   0  0  0  0  0  0  0  0  0  0  0  0
    0.4802    2.6392   -1.4257 O   0  0  0  0  0  0  0  0  0  0  0  0
    3.2495    1.3111   -2.1440 O   0  0  0  0  0  0  0  0  0  0  0  0
   -5.7384    0.6033    0.7014 O   0  0  0  0  0  0  0  0  0  0  0  0
   -3.8464   -0.3850   -0.2107 N   0  0  0  0  0  0  0  0  0  0  0  0
    4.3079    0.6341   -0.1962 N   0  0  0  0  0  0  0  0  0  0  0  0
   -5.9275   -1.1384   -0.8197 N   0  0  0  0  0  0  0  0  0  0  0  0
   -0.1782    0.6731    1.7799 C   0  0  1  0  0  0  0  0  0  0  0  0
   -0.5021    1.4206    0.4438 C   0  0  2  0  0  0  0  0  0  0  0  0
   -1.5897    0.6439   -0.3819 C   0  0  1  0  0  0  0  0  0  0  0  0
    0.7983    1.7767   -0.3326 C   0  0  2  0  0  0  0  0  0  0  0  0
    0.8087    1.5193    2.6184 C   0  0  0  0  0  0  0  0  0  0  0  0
   -1.4800    0.5187    2.5997 C   0  0  0  0  0  0  0  0  0  0  0  0
    1.8252    2.5325    0.5425 C   0  0  1  0  0  0  0  0  0  0  0  0
   -2.8667    0.4286    0.4782 C   0  0  2  0  0  0  0  0  0  0  0  0
    2.0997    1.8364    1.8754 C   0  0  0  0  0  0  0  0  0  0  0  0
   -2.5825   -0.2050    1.8399 C   0  0  0  0  0  0  0  0  0  0  0  0
    0.4438   -0.7264    1.5419 C   0  0  0  0  0  0  0  0  0  0  0  0
    3.1482    2.7584   -0.1995 C   0  0  2  0  0  0  0  0  0  0  0  0
   -1.9776    1.3398   -1.6975 C   0  0  0  0  0  0  0  0  0  0  0  0
    3.0235    3.9494   -1.1439 C   0  0  0  0  0  0  0  0  0  0  0  0
    3.5591    1.5089   -0.9709 C   0  0  0  0  0  0  0  0  0  0  0  0
   -5.2175   -0.2288   -0.0400 C   0  0  0  0  0  0  0  0  0  0  0  0
    4.8033   -0.6137   -0.7029 C   0  0  0  0  0  0  0  0  0  0  0  0
   -7.3701   -1.1969   -0.8355 C   0  0  0  0  0  0  0  0  0  0  0  0
    3.8286   -1.7349   -0.4861 C   0  0  0  0  0  0  0  0  0  0  0  0
   -7.9591   -0.1208   -1.7240 C   0  0  0  0  0  0  0  0  0  0  0  0
    3.8832   -2.4892    0.6860 C   0  0  0  0  0  0  0  0  0  0  0  0
    2.8686   -2.0224   -1.4564 C   0  0  0  0  0  0  0  0  0  0  0  0
    2.9780   -3.5311    0.8876 C   0  0  0  0  0  0  0  0  0  0  0  0
    1.9634   -3.0642   -1.2549 C   0  0  0  0  0  0  0  0  0  0  0  0
    2.0181   -3.8186   -0.0829 C   0  0  0  0  0  0  0  0  0  0  0  0
   -0.9694    2.3824    0.7098 H   0  0  0  0  0  0  0  0  0  0  0  0
   -1.1872   -0.3377   -0.6630 H   0  0  0  0  0  0  0  0  0  0  0  0
    1.1982    0.8489   -0.7483 H   0  0  0  0  0  0  0  0  0  0  0  0
    1.0527    1.0016    3.5550 H   0  0  0  0  0  0  0  0  0  0  0  0
    0.3314    2.4653    2.9074 H   0  0  0  0  0  0  0  0  0  0  0  0
   -1.8530    1.5102    2.8897 H   0  0  0  0  0  0  0  0  0  0  0  0
   -1.2785   -0.0183    3.5353 H   0  0  0  0  0  0  0  0  0  0  0  0
    1.4003    3.5166    0.7899 H   0  0  0  0  0  0  0  0  0  0  0  0
   -3.3224    1.4121    0.6582 H   0  0  0  0  0  0  0  0  0  0  0  0
    2.7200    2.4831    2.5088 H   0  0  0  0  0  0  0  0  0  0  0  0
    2.6628    0.9102    1.7453 H   0  0  0  0  0  0  0  0  0  0  0  0
   -2.3229   -1.2636    1.7174 H   0  0  0  0  0  0  0  0  0  0  0  0
   -3.4949   -0.1988    2.4502 H   0  0  0  0  0  0  0  0  0  0  0  0
   -0.2297   -1.4081    1.0167 H   0  0  0  0  0  0  0  0  0  0  0  0
    0.7020   -1.2023    2.4950 H   0  0  0  0  0  0  0  0  0  0  0  0
    1.3568   -0.6702    0.9478 H   0  0  0  0  0  0  0  0  0  0  0  0
    3.9389    3.0114    0.5195 H   0  0  0  0  0  0  0  0  0  0  0  0
   -2.2364    2.3904   -1.5303 H   0  0  0  0  0  0  0  0  0  0  0  0
   -2.8366    0.8593   -2.1767 H   0  0  0  0  0  0  0  0  0  0  0  0
   -1.1664    1.2817   -2.4287 H   0  0  0  0  0  0  0  0  0  0  0  0
   -3.5165   -1.1554   -0.7843 H   0  0  0  0  0  0  0  0  0  0  0  0
    0.0576    3.4380   -1.0666 H   0  0  0  0  0  0  0  0  0  0  0  0
    2.4449    3.7453   -2.0480 H   0  0  0  0  0  0  0  0  0  0  0  0
    2.5948    4.8229   -0.6417 H   0  0  0  0  0  0  0  0  0  0  0  0
    4.0221    4.2391   -1.4937 H   0  0  0  0  0  0  0  0  0  0  0  0
    4.5513    0.8860    0.7568 H   0  0  0  0  0  0  0  0  0  0  0  0
   -5.4114   -1.7810   -1.4127 H   0  0  0  0  0  0  0  0  0  0  0  0
    5.7498   -0.8261   -0.1925 H   0  0  0  0  0  0  0  0  0  0  0  0
    5.0372   -0.5136   -1.7696 H   0  0  0  0  0  0  0  0  0  0  0  0
   -7.6550   -2.1892   -1.1986 H   0  0  0  0  0  0  0  0  0  0  0  0
   -7.7402   -1.0837    0.1889 H   0  0  0  0  0  0  0  0  0  0  0  0
   -7.6939    0.8801   -1.3681 H   0  0  0  0  0  0  0  0  0  0  0  0
   -7.5908   -0.2164   -2.7510 H   0  0  0  0  0  0  0  0  0  0  0  0
   -9.0506   -0.1971   -1.7431 H   0  0  0  0  0  0  0  0  0  0  0  0
    4.6244   -2.2732    1.4507 H   0  0  0  0  0  0  0  0  0  0  0  0
    2.8151   -1.4452   -2.3753 H   0  0  0  0  0  0  0  0  0  0  0  0
    3.0190   -4.1176    1.8006 H   0  0  0  0  0  0  0  0  0  0  0  0
    1.2155   -3.2878   -2.0097 H   0  0  0  0  0  0  0  0  0  0  0  0
  1 32  1  0  0  0  0
  2 11  1  0  0  0  0
  2 54  1  0  0  0  0
  3 22  2  0  0  0  0
  4 23  2  0  0  0  0
  5 15  1  0  0  0  0
  5 23  1  0  0  0  0
  5 53  1  0  0  0  0
  6 22  1  0  0  0  0
  6 24  1  0  0  0  0
  6 58  1  0  0  0  0
  7 23  1  0  0  0  0
  7 25  1  0  0  0  0
  7 59  1  0  0  0  0
  8  9  1  0  0  0  0
  8 12  1  0  0  0  0
  8 13  1  0  0  0  0
  8 18  1  0  0  0  0
  9 10  1  0  0  0  0
  9 11  1  0  0  0  0
  9 33  1  0  0  0  0
 10 15  1  0  0  0  0
 10 20  1  0  0  0  0
 10 34  1  0  0  0  0
 11 14  1  0  0  0  0
 11 35  1  0  0  0  0
 12 16  1  0  0  0  0
 12 36  1  0  0  0  0
 12 37  1  0  0  0  0
 13 17  1  0  0  0  0
 13 38  1  0  0  0  0
 13 39  1  0  0  0  0
 14 16  1  0  0  0  0
 14 19  1  0  0  0  0
 14 40  1  0  0  0  0
 15 17  1  0  0  0  0
 15 41  1  0  0  0  0
 16 42  1  0  0  0  0
 16 43  1  0  0  0  0
 17 44  1  0  0  0  0
 17 45  1  0  0  0  0
 18 46  1  0  0  0  0
 18 47  1  0  0  0  0
 18 48  1  0  0  0  0
 19 21  1  0  0  0  0
 19 22  1  0  0  0  0
 19 49  1  0  0  0  0
 20 50  1  0  0  0  0
 20 51  1  0  0  0  0
 20 52  1  0  0  0  0
 21 55  1  0  0  0  0
 21 56  1  0  0  0  0
 21 57  1  0  0  0  0
 24 26  1  0  0  0  0
 24 60  1  0  0  0  0
 24 61  1  0  0  0  0
 25 27  1  0  0  0  0
 25 62  1  0  0  0  0
 25 63  1  0  0  0  0
 26 28  2  0  0  0  0
 26 29  1  0  0  0  0
 27 64  1  0  0  0  0
 27 65  1  0  0  0  0
 27 66  1  0  0  0  0
 28 30  1  0  0  0  0
 28 67  1  0  0  0  0
 29 31  2  0  0  0  0
 29 68  1  0  0  0  0
 30 32  2  0  0  0  0
 30 69  1  0  0  0  0
 31 32  1  0  0  0  0
 31 70  1  0  0  0  0
M  END
> <PUBCHEM_COMPOUND_CID>
28963145

> <PUBCHEM_CONFORMER_RMSD>
1

> <PUBCHEM_CONFORMER_DIVERSEORDER>
1
18
174
25
8
180
129
142
194
52
215
95
213
183
124
106
62
137
88
22
232
81
198
48
193
71
152
141
147
40
59
84
114
51
220
216
219
121
20
23
209
231
33
28
196
104
159
224
172
146
64
87
69
205
55
70
154
166
144
153
217
157
66
227
94
218
203
158
234
116
38
112
132
14
178
173
78
176
200
192
199
30
19
115
47
125
61
165
175
135
164
79
236
171
57
211
237
83
145
102
185
91
128
161
93
226
195
208
35
99
111
229
117
133
214
90
188
130
21
31
36
89
126
2
169
189
86
123
16
65
49
187
63
223
110
202
118
179
221
42
191
101
134
105
32
210
207
68
53
167
127
97
80
212
156
34
92
60
113
58
197
182
15
190
37
228
230
11
74
96
131
168
43
186
12
109
9
120
140
98
108
204
233
170
100
148
17
119
162
107
29
13
138
235
27
46
24
222
45
76
151
39
4
54
136
44
206
82
72
150
149
201
177
155
41
10
143
67
7
160
122
73
5
225
163
26
3
56
77
75
181
184
139
50
103
6
85

> <PUBCHEM_MMFF94_PARTIAL_CHARGES>
28
1 -0.19
11 0.28
15 0.3
19 0.06
2 -0.68
22 0.57
23 0.69
24 0.44
25 0.3
26 -0.14
28 -0.15
29 -0.15
3 -0.57
30 -0.15
31 -0.15
32 0.19
4 -0.57
5 -0.73
53 0.37
54 0.4
58 0.37
59 0.37
6 -0.73
67 0.15
68 0.15
69 0.15
7 -0.73
70 0.15

> <PUBCHEM_EFFECTIVE_ROTOR_COUNT>
10.6

> <PUBCHEM_PHARMACOPHORE_FEATURES>
11
1 2 acceptor
1 2 donor
1 21 hydrophobe
1 3 acceptor
1 4 acceptor
1 5 donor
1 6 donor
1 7 donor
6 26 28 29 30 31 32 rings
6 8 9 10 13 15 17 rings
6 8 9 11 12 14 16 rings

> <PUBCHEM_HEAVY_ATOM_COUNT>
32

> <PUBCHEM_ATOM_DEF_STEREO_COUNT>
7

> <PUBCHEM_ATOM_UDEF_STEREO_COUNT>
0

> <PUBCHEM_BOND_DEF_STEREO_COUNT>
0

> <PUBCHEM_BOND_UDEF_STEREO_COUNT>
0

> <PUBCHEM_ISOTOPIC_ATOM_COUNT>
0

> <PUBCHEM_COMPONENT_COUNT>
1

> <PUBCHEM_CACTVS_TAUTO_COUNT>
6

> <PUBCHEM_CONFORMER_ID>
01B9F14900000001

> <PUBCHEM_MMFF94_ENERGY>
76.8576

> <PUBCHEM_FEATURE_SELFOVERLAP>
55.888

> <PUBCHEM_SHAPE_FINGERPRINT>
10816530 23 17758680331487388077
11796584 16 17632585967729561773
11828532 37 16515976955442220097
12156800 1 15236866382732912166
13533116 47 18201999954342277369
1361 2 18336548308328644046
13782708 43 17131548453702037285
13911987 19 18044969885897118660
14068700 675 18127978512384026358
14251757 17 17750239101758405004
14347332 77 18342455903534210305
14659021 117 16675835703094062074
15183329 4 18272374166219381749
15324884 4 17465132674728916368
17134984 74 18340767143530825071
17138139 8 17557699445862943734
17492 54 18262536861434114926
17909252 39 18337100181804476133
19026451 147 18339641123254264890
19930381 70 18191310381700584982
20567600 247 18343298172131998071
20775438 99 18262225737708251931
20775530 9 17757293491411962058
21133410 171 17173464902711124146
21285901 2 17749391442607285796
21703447 108 17775557659096200473
23559900 14 17459207303202474700
23569914 152 17467877833478173095
238 59 18335998544505063738
27425 322 16734672098444142548
35225 105 17409667875110734446
397830 11 10375581647466459445
4066623 53 17531794750027901285
4093350 32 18261669385156529565
46194498 28 18260543441962053429
463206 1 18343586273742294274
484989 97 18266192805857822890
513532 50 17676198096139159653
5309563 4 18337956663002720260
57527295 17 17969791769783850380
57527452 28 18272090505167205644
5951187 136 16009038318709397134
59682541 52 18408599263032804711

> <PUBCHEM_SHAPE_MULTIPOLES>
618.72
12.95
4.62
2.16
33.14
3.32
0.85
4.83
-6.87
-7.61
-0.81
0.26
-0.86
-0.98

> <PUBCHEM_SHAPE_SELFOVERLAP>
1283.032

> <PUBCHEM_SHAPE_VOLUME>
351.5

> <PUBCHEM_COORDINATE_TYPE>
2
5
10

$$$$
