45784303
  -OEChem-12032416293D

 56 59  0     1  0  0  0  0  0999 V2000
   -3.8166    1.9370    2.0605 O   0  0  0  0  0  0  0  0  0  0  0  0
   -4.2277    0.6802   -2.5426 O   0  0  0  0  0  0  0  0  0  0  0  0
    5.4892    3.1111    0.2706 O   0  0  0  0  0  0  0  0  0  0  0  0
   -4.5856    2.5482   -0.5290 O   0  0  0  0  0  0  0  0  0  0  0  0
   -0.8524   -2.4025    0.8207 N   0  0  2  0  0  0  0  0  0  0  0  0
    2.2952   -0.5967    0.4379 N   0  0  0  0  0  0  0  0  0  0  0  0
    3.4319   -1.8408   -1.0111 N   0  0  0  0  0  0  0  0  0  0  0  0
    1.2961   -2.8377   -0.0965 C   0  0  1  0  0  0  0  0  0  0  0  0
    1.1866   -3.3683    1.3407 C   0  0  0  0  0  0  0  0  0  0  0  0
   -0.1278   -2.3742   -0.4538 C   0  0  0  0  0  0  0  0  0  0  0  0
   -0.3071   -3.5384    1.5611 C   0  0  0  0  0  0  0  0  0  0  0  0
    2.3637   -1.7771   -0.2484 C   0  0  0  0  0  0  0  0  0  0  0  0
   -2.2936   -2.4913    0.6425 C   0  0  0  0  0  0  0  0  0  0  0  0
   -2.9036   -1.1506    0.3307 C   0  0  0  0  0  0  0  0  0  0  0  0
    3.3924    0.1510    0.0954 C   0  0  0  0  0  0  0  0  0  0  0  0
    4.0861   -0.6471   -0.8100 C   0  0  0  0  0  0  0  0  0  0  0  0
   -3.2904   -0.8468   -0.9745 C   0  0  0  0  0  0  0  0  0  0  0  0
   -3.0822   -0.2122    1.3472 C   0  0  0  0  0  0  0  0  0  0  0  0
    3.8246    1.4183    0.4879 C   0  0  0  0  0  0  0  0  0  0  0  0
    5.2839   -0.1684   -1.3672 C   0  0  0  0  0  0  0  0  0  0  0  0
   -3.6474    1.0299    1.0584 C   0  0  0  0  0  0  0  0  0  0  0  0
   -3.8558    0.3953   -1.2634 C   0  0  0  0  0  0  0  0  0  0  0  0
    5.0187    1.8789   -0.0766 C   0  0  0  0  0  0  0  0  0  0  0  0
   -4.0341    1.3336   -0.2468 C   0  0  0  0  0  0  0  0  0  0  0  0
    5.7369    1.1012   -0.9878 C   0  0  0  0  0  0  0  0  0  0  0  0
   -3.3945    1.5466    3.3659 C   0  0  0  0  0  0  0  0  0  0  0  0
   -4.0107   -0.3343   -3.5214 C   0  0  0  0  0  0  0  0  0  0  0  0
    4.7143    3.8592    1.2046 C   0  0  0  0  0  0  0  0  0  0  0  0
   -3.6901    3.5957   -0.8949 C   0  0  0  0  0  0  0  0  0  0  0  0
    1.5626   -3.6725   -0.7590 H   0  0  0  0  0  0  0  0  0  0  0  0
    1.7224   -4.3159    1.4617 H   0  0  0  0  0  0  0  0  0  0  0  0
    1.5960   -2.6643    2.0756 H   0  0  0  0  0  0  0  0  0  0  0  0
   -0.1513   -1.3783   -0.9090 H   0  0  0  0  0  0  0  0  0  0  0  0
   -0.5555   -3.0855   -1.1730 H   0  0  0  0  0  0  0  0  0  0  0  0
   -0.6466   -4.4963    1.1467 H   0  0  0  0  0  0  0  0  0  0  0  0
   -0.5617   -3.5017    2.6249 H   0  0  0  0  0  0  0  0  0  0  0  0
   -2.5737   -3.2399   -0.1109 H   0  0  0  0  0  0  0  0  0  0  0  0
   -2.7627   -2.8406    1.5735 H   0  0  0  0  0  0  0  0  0  0  0  0
    1.5657   -0.3200    1.0816 H   0  0  0  0  0  0  0  0  0  0  0  0
   -3.1252   -1.6141   -1.7233 H   0  0  0  0  0  0  0  0  0  0  0  0
   -2.7623   -0.5049    2.3417 H   0  0  0  0  0  0  0  0  0  0  0  0
    3.2220    1.9699    1.1975 H   0  0  0  0  0  0  0  0  0  0  0  0
    5.8492   -0.7651   -2.0760 H   0  0  0  0  0  0  0  0  0  0  0  0
    6.6629    1.4809   -1.4133 H   0  0  0  0  0  0  0  0  0  0  0  0
   -3.9714    0.6935    3.7389 H   0  0  0  0  0  0  0  0  0  0  0  0
   -2.3141    1.3703    3.4052 H   0  0  0  0  0  0  0  0  0  0  0  0
   -3.6028    2.3872    4.0361 H   0  0  0  0  0  0  0  0  0  0  0  0
   -2.9450   -0.5555   -3.6444 H   0  0  0  0  0  0  0  0  0  0  0  0
   -4.6027   -1.2317   -3.3115 H   0  0  0  0  0  0  0  0  0  0  0  0
   -4.3645    0.0618   -4.4791 H   0  0  0  0  0  0  0  0  0  0  0  0
    3.7237    4.1016    0.8048 H   0  0  0  0  0  0  0  0  0  0  0  0
    4.6593    3.3577    2.1768 H   0  0  0  0  0  0  0  0  0  0  0  0
    5.2331    4.8098    1.3663 H   0  0  0  0  0  0  0  0  0  0  0  0
   -2.9882    3.8045   -0.0813 H   0  0  0  0  0  0  0  0  0  0  0  0
   -3.1419    3.3337   -1.8054 H   0  0  0  0  0  0  0  0  0  0  0  0
   -4.2781    4.4970   -1.0885 H   0  0  0  0  0  0  0  0  0  0  0  0
  1 21  1  0  0  0  0
  1 26  1  0  0  0  0
  2 22  1  0  0  0  0
  2 27  1  0  0  0  0
  3 23  1  0  0  0  0
  3 28  1  0  0  0  0
  4 24  1  0  0  0  0
  4 29  1  0  0  0  0
  5 10  1  0  0  0  0
  5 11  1  0  0  0  0
  5 13  1  0  0  0  0
  6 12  1  0  0  0  0
  6 15  1  0  0  0  0
  6 39  1  0  0  0  0
  7 12  2  0  0  0  0
  7 16  1  0  0  0  0
  8  9  1  0  0  0  0
  8 10  1  0  0  0  0
  8 12  1  0  0  0  0
  8 30  1  0  0  0  0
  9 11  1  0  0  0  0
  9 31  1  0  0  0  0
  9 32  1  0  0  0  0
 10 33  1  0  0  0  0
 10 34  1  0  0  0  0
 11 35  1  0  0  0  0
 11 36  1  0  0  0  0
 13 14  1  0  0  0  0
 13 37  1  0  0  0  0
 13 38  1  0  0  0  0
 14 17  2  0  0  0  0
 14 18  1  0  0  0  0
 15 16  2  0  0  0  0
 15 19  1  0  0  0  0
 16 20  1  0  0  0  0
 17 22  1  0  0  0  0
 17 40  1  0  0  0  0
 18 21  2  0  0  0  0
 18 41  1  0  0  0  0
 19 23  2  0  0  0  0
 19 42  1  0  0  0  0
 20 25  2  0  0  0  0
 20 43  1  0  0  0  0
 21 24  1  0  0  0  0
 22 24  2  0  0  0  0
 23 25  1  0  0  0  0
 25 44  1  0  0  0  0
 26 45  1  0  0  0  0
 26 46  1  0  0  0  0
 26 47  1  0  0  0  0
 27 48  1  0  0  0  0
 27 49  1  0  0  0  0
 27 50  1  0  0  0  0
 28 51  1  0  0  0  0
 28 52  1  0  0  0  0
 28 53  1  0  0  0  0
 29 54  1  0  0  0  0
 29 55  1  0  0  0  0
 29 56  1  0  0  0  0
M  END
> <PUBCHEM_COMPOUND_CID>
45784303

> <PUBCHEM_CONFORMER_RMSD>
1

> <PUBCHEM_CONFORMER_DIVERSEORDER>
11
114
108
58
33
92
13
106
72
111
67
16
94
27
63
110
109
118
54
9
113
117
82
53
59
43
77
31
93
64
41
88
18
42
104
69
75
116
1
47
115
28
19
101
100
25
99
98
79
68
107
36
44
15
56
46
48
84
86
102
57
62
2
7
22
76
95
10
5
61
105
90
21
49
96
12
71
112
4
32
85
6
37
74
73
52
81
65
97
89
26
20
55
40
87
66
8
34
17
45
50
103
3
35
91
70
78
23
60
51
39
24
30
14
38
83
29
80

> <PUBCHEM_MMFF94_PARTIAL_CHARGES>
34
1 -0.36
10 0.27
11 0.27
12 0.01
13 0.41
14 -0.14
15 -0.15
16 0.23
17 -0.15
18 -0.15
19 -0.15
2 -0.36
20 -0.15
21 0.08
22 0.08
23 0.08
24 0.08
25 -0.15
26 0.28
27 0.28
28 0.28
29 0.28
3 -0.36
39 0.27
4 -0.36
40 0.15
41 0.15
42 0.15
43 0.15
44 0.15
5 -0.81
6 0.03
7 -0.57
8 0.18

> <PUBCHEM_EFFECTIVE_ROTOR_COUNT>
8

> <PUBCHEM_PHARMACOPHORE_FEATURES>
11
1 1 acceptor
1 2 acceptor
1 3 acceptor
1 4 acceptor
1 5 cation
1 6 donor
3 6 7 12 cation
5 5 8 9 10 11 rings
5 6 7 12 15 16 rings
6 14 17 18 21 22 24 rings
6 15 16 19 20 23 25 rings

> <PUBCHEM_HEAVY_ATOM_COUNT>
29

> <PUBCHEM_ATOM_DEF_STEREO_COUNT>
1

> <PUBCHEM_ATOM_UDEF_STEREO_COUNT>
0

> <PUBCHEM_BOND_DEF_STEREO_COUNT>
0

> <PUBCHEM_BOND_UDEF_STEREO_COUNT>
0

> <PUBCHEM_ISOTOPIC_ATOM_COUNT>
0

> <PUBCHEM_COMPONENT_COUNT>
1

> <PUBCHEM_CACTVS_TAUTO_COUNT>
2

> <PUBCHEM_CONFORMER_ID>
02BA9CEF0000000B

> <PUBCHEM_MMFF94_ENERGY>
105.8275

> <PUBCHEM_FEATURE_SELFOVERLAP>
55.938

> <PUBCHEM_SHAPE_FINGERPRINT>
10928967 22 10951776312764461396
12422481 6 16733528469619508662
12549972 3 16083625691825277411
13590594 115 17402341373637098058
14347329 18 18338239383741778712
14468879 13 17241321366250974815
14848178 96 18410293601513353506
14932701 244 18198340852496661103
14950920 106 14201397235360810102
15119646 57 17703525358157153369
15669420 48 16341715443355322022
16067690 210 17489322844935727112
16708801 149 18270390707098597176
16728300 4 10737868448233805845
16991981 162 17560799888760718777
16992787 43 18410848894384027253
1768 210 18269262616161821108
21033648 144 18341338902482710646
21033648 29 17821726143666376166
21049683 118 15867164816633485961
21859007 373 18268988860449590672
22122407 14 17760379790581382001
22907989 373 17988630909826866167
283562 15 18189054368793943675
2838139 119 18412821387393730102
312425 83 17203063910438171486
376196 1 18410012135190543514
4371632 12 18115570583667061629
437795 83 17769937106506657596
437795 96 17764577017074856104
469060 322 17531544182147997043
508706 21 18337391646811618936
5252454 2 18114759139163749215
633830 44 18271254815351870366
7288768 16 17822298950838955475
9981440 41 17095791162539880659
9982175 69 17839156847483788152

> <PUBCHEM_SHAPE_MULTIPOLES>
558.39
13.6
4.7
2.42
10.93
0.52
-0.33
12.99
-3.62
1.55
1.93
-4.24
0.65
0.81

> <PUBCHEM_SHAPE_SELFOVERLAP>
1206.86

> <PUBCHEM_SHAPE_VOLUME>
309.8

> <PUBCHEM_COORDINATE_TYPE>
2
5
10

$$$$
