11912245
  -OEChem-12032416133D

 55 56  0     1  0  0  0  0  0999 V2000
   -3.9547   -2.7975    0.0528 S   0  0  0  0  0  0  0  0  0  0  0  0
    0.8194    0.0020    1.5618 O   0  0  0  0  0  0  0  0  0  0  0  0
    4.7601   -1.5864    0.8697 O   0  0  0  0  0  0  0  0  0  0  0  0
   -1.9744    2.2781   -1.2484 O   0  0  0  0  0  0  0  0  0  0  0  0
   -1.6092   -3.9206    0.8955 O   0  0  0  0  0  0  0  0  0  0  0  0
    5.6797    0.2490   -0.6027 O   0  0  0  0  0  0  0  0  0  0  0  0
   -5.2754    0.7029   -0.9752 O   0  0  0  0  0  0  0  0  0  0  0  0
   -4.9624   -0.2188    1.0785 O   0  0  0  0  0  0  0  0  0  0  0  0
    2.5565   -1.4533    0.1333 N   0  0  0  0  0  0  0  0  0  0  0  0
    0.0264   -2.7104   -0.2244 N   0  0  0  0  0  0  0  0  0  0  0  0
    0.4136    1.3687   -0.2784 N   0  0  0  0  0  0  0  0  0  0  0  0
   -1.6293    4.3414   -0.3311 N   0  0  0  0  0  0  0  0  0  0  0  0
    1.4971   -0.7442   -0.6044 C   0  0  1  0  0  0  0  0  0  0  0  0
    0.4411   -1.6859   -1.1887 C   0  0  0  0  0  0  0  0  0  0  0  0
    2.1159   -2.5224    1.0391 C   0  0  0  0  0  0  0  0  0  0  0  0
    1.1313   -3.4649    0.3618 C   0  0  0  0  0  0  0  0  0  0  0  0
   -0.2362    2.4488    0.4178 C   0  0  1  0  0  0  0  0  0  0  0  0
    0.8871    0.2339    0.3576 C   0  0  0  0  0  0  0  0  0  0  0  0
    0.7796    3.4831    0.8826 C   0  0  0  0  0  0  0  0  0  0  0  0
    0.0533    4.6895    1.4551 C   0  0  0  0  0  0  0  0  0  0  0  0
    3.9036   -1.0761    0.1428 C   0  0  0  0  0  0  0  0  0  0  0  0
   -0.8080    5.3100    0.3714 C   0  0  0  0  0  0  0  0  0  0  0  0
   -1.3273    3.0041   -0.4908 C   0  0  0  0  0  0  0  0  0  0  0  0
   -1.2894   -3.0230    0.1120 C   0  0  0  0  0  0  0  0  0  0  0  0
    4.3083    0.0181   -0.8137 C   0  0  0  0  0  0  0  0  0  0  0  0
   -2.3672   -2.1910   -0.5360 C   0  0  0  0  0  0  0  0  0  0  0  0
   -5.0391   -1.6634   -0.8494 C   0  0  0  0  0  0  0  0  0  0  0  0
    6.1887    1.2729   -1.4558 C   0  0  0  0  0  0  0  0  0  0  0  0
   -5.0892   -0.3447   -0.1328 C   0  0  0  0  0  0  0  0  0  0  0  0
    1.9382   -0.1869   -1.4354 H   0  0  0  0  0  0  0  0  0  0  0  0
    0.8689   -2.2289   -2.0408 H   0  0  0  0  0  0  0  0  0  0  0  0
   -0.4093   -1.1163   -1.5690 H   0  0  0  0  0  0  0  0  0  0  0  0
    2.9813   -3.1024    1.3783 H   0  0  0  0  0  0  0  0  0  0  0  0
    1.6772   -2.0809    1.9375 H   0  0  0  0  0  0  0  0  0  0  0  0
    0.7666   -4.2049    1.0809 H   0  0  0  0  0  0  0  0  0  0  0  0
    1.6205   -4.0097   -0.4546 H   0  0  0  0  0  0  0  0  0  0  0  0
   -0.7495    2.0362    1.2964 H   0  0  0  0  0  0  0  0  0  0  0  0
    1.4408    3.0497    1.6424 H   0  0  0  0  0  0  0  0  0  0  0  0
    1.4209    3.7963    0.0483 H   0  0  0  0  0  0  0  0  0  0  0  0
    0.5345    1.4584   -1.2834 H   0  0  0  0  0  0  0  0  0  0  0  0
    0.7709    5.4261    1.8319 H   0  0  0  0  0  0  0  0  0  0  0  0
   -0.5718    4.3792    2.3013 H   0  0  0  0  0  0  0  0  0  0  0  0
   -0.1804    5.7959   -0.3839 H   0  0  0  0  0  0  0  0  0  0  0  0
   -1.4745    6.0696    0.7918 H   0  0  0  0  0  0  0  0  0  0  0  0
   -2.3935    4.7088   -0.8896 H   0  0  0  0  0  0  0  0  0  0  0  0
    4.1375   -0.3161   -1.8422 H   0  0  0  0  0  0  0  0  0  0  0  0
    3.7411    0.9285   -0.5954 H   0  0  0  0  0  0  0  0  0  0  0  0
   -2.2395   -1.1437   -0.2481 H   0  0  0  0  0  0  0  0  0  0  0  0
   -2.3129   -2.3062   -1.6221 H   0  0  0  0  0  0  0  0  0  0  0  0
   -4.6757   -1.5361   -1.8732 H   0  0  0  0  0  0  0  0  0  0  0  0
   -6.0520   -2.0745   -0.8827 H   0  0  0  0  0  0  0  0  0  0  0  0
    6.0727    0.9863   -2.5055 H   0  0  0  0  0  0  0  0  0  0  0  0
    5.6749    2.2195   -1.2628 H   0  0  0  0  0  0  0  0  0  0  0  0
    7.2531    1.4002   -1.2415 H   0  0  0  0  0  0  0  0  0  0  0  0
   -5.2972    1.5585   -0.4959 H   0  0  0  0  0  0  0  0  0  0  0  0
  1 26  1  0  0  0  0
  1 27  1  0  0  0  0
  2 18  2  0  0  0  0
  3 21  2  0  0  0  0
  4 23  2  0  0  0  0
  5 24  2  0  0  0  0
  6 25  1  0  0  0  0
  6 28  1  0  0  0  0
  7 29  1  0  0  0  0
  7 55  1  0  0  0  0
  8 29  2  0  0  0  0
  9 13  1  0  0  0  0
  9 15  1  0  0  0  0
  9 21  1  0  0  0  0
 10 14  1  0  0  0  0
 10 16  1  0  0  0  0
 10 24  1  0  0  0  0
 11 17  1  0  0  0  0
 11 18  1  0  0  0  0
 11 40  1  0  0  0  0
 12 22  1  0  0  0  0
 12 23  1  0  0  0  0
 12 45  1  0  0  0  0
 13 14  1  0  0  0  0
 13 18  1  0  0  0  0
 13 30  1  0  0  0  0
 14 31  1  0  0  0  0
 14 32  1  0  0  0  0
 15 16  1  0  0  0  0
 15 33  1  0  0  0  0
 15 34  1  0  0  0  0
 16 35  1  0  0  0  0
 16 36  1  0  0  0  0
 17 19  1  0  0  0  0
 17 23  1  0  0  0  0
 17 37  1  0  0  0  0
 19 20  1  0  0  0  0
 19 38  1  0  0  0  0
 19 39  1  0  0  0  0
 20 22  1  0  0  0  0
 20 41  1  0  0  0  0
 20 42  1  0  0  0  0
 21 25  1  0  0  0  0
 22 43  1  0  0  0  0
 22 44  1  0  0  0  0
 24 26  1  0  0  0  0
 25 46  1  0  0  0  0
 25 47  1  0  0  0  0
 26 48  1  0  0  0  0
 26 49  1  0  0  0  0
 27 29  1  0  0  0  0
 27 50  1  0  0  0  0
 27 51  1  0  0  0  0
 28 52  1  0  0  0  0
 28 53  1  0  0  0  0
 28 54  1  0  0  0  0
M  END
> <PUBCHEM_COMPOUND_CID>
11912245

> <PUBCHEM_CONFORMER_RMSD>
1.2

> <PUBCHEM_CONFORMER_DIVERSEORDER>
1
11
41
39
10
37
29
35
34
2
20
40
26
16
3
12
15
38
36
25
23
19
21
30
9
17
13
28
4
32
8
5
24
27
18
7
31
14
22
33
6

> <PUBCHEM_MMFF94_PARTIAL_CHARGES>
30
1 -0.46
10 -0.66
11 -0.73
12 -0.73
13 0.36
14 0.3
15 0.3
16 0.3
17 0.36
18 0.57
2 -0.57
21 0.57
22 0.3
23 0.57
24 0.57
25 0.34
26 0.29
27 0.29
28 0.28
29 0.66
3 -0.57
4 -0.57
40 0.37
45 0.37
5 -0.57
55 0.5
6 -0.56
7 -0.65
8 -0.57
9 -0.66

> <PUBCHEM_EFFECTIVE_ROTOR_COUNT>
13.2

> <PUBCHEM_PHARMACOPHORE_FEATURES>
12
1 11 donor
1 12 donor
1 2 acceptor
1 3 acceptor
1 4 acceptor
1 5 acceptor
1 6 acceptor
1 7 acceptor
1 8 acceptor
3 7 8 29 anion
6 12 17 19 20 22 23 rings
6 9 10 13 14 15 16 rings

> <PUBCHEM_HEAVY_ATOM_COUNT>
29

> <PUBCHEM_ATOM_DEF_STEREO_COUNT>
2

> <PUBCHEM_ATOM_UDEF_STEREO_COUNT>
0

> <PUBCHEM_BOND_DEF_STEREO_COUNT>
0

> <PUBCHEM_BOND_UDEF_STEREO_COUNT>
0

> <PUBCHEM_ISOTOPIC_ATOM_COUNT>
0

> <PUBCHEM_COMPONENT_COUNT>
1

> <PUBCHEM_CACTVS_TAUTO_COUNT>
4

> <PUBCHEM_CONFORMER_ID>
00B5C43500000001

> <PUBCHEM_MMFF94_ENERGY>
65.8677

> <PUBCHEM_FEATURE_SELFOVERLAP>
60.976

> <PUBCHEM_SHAPE_FINGERPRINT>
1100329 8 18338804536195673493
11049842 53 16746781191979770268
12422481 6 17693629903973891656
12788726 201 18408888438828185994
12857493 111 18200041625692196622
138480 1 14593490284712700847
14251757 5 18335422399800510638
14363568 33 18192157207791527881
14394314 77 18410864261049628937
14466204 15 18338229465971780323
14765038 42 18270981050389608385
14790565 3 18263367047951646350
1601671 61 18343301483003767630
17980427 23 17415588602864887043
19427546 62 17545884823813274509
21285901 2 17917724473965691942
21796203 349 18048072733048327617
23558518 356 17977103466279877754
5171179 24 17908705377292382902
653340 110 18052527786412008851

> <PUBCHEM_SHAPE_MULTIPOLES>
539.65
10.15
6.97
1.21
1.59
9.11
0.04
-4.54
-3.43
-2.14
1.98
0.39
0.26
-0.14

> <PUBCHEM_SHAPE_SELFOVERLAP>
1085.17

> <PUBCHEM_SHAPE_VOLUME>
315.5

> <PUBCHEM_COORDINATE_TYPE>
2
5
10

$$$$
