7135055
  -OEChem-12032416333D

 81 84  0     1  0  0  0  0  0999 V2000
   -0.2459    2.4440    0.1660 S   0  0  0  0  0  0  0  0  0  0  0  0
   -7.9612    1.3126   -0.7392 O   0  0  0  0  0  0  0  0  0  0  0  0
   -7.3499    3.0714    0.7700 O   0  0  0  0  0  0  0  0  0  0  0  0
   -0.9380   -2.6285   -1.3617 O   0  0  0  0  0  0  0  0  0  0  0  0
    2.5671   -1.2550   -0.1118 O   0  0  0  0  0  0  0  0  0  0  0  0
   -0.1690   -0.1344   -0.0302 N   0  0  0  0  0  0  0  0  0  0  0  0
   -0.9893   -4.1171    0.4225 N   0  0  0  0  0  0  0  0  0  0  0  0
    1.9488    1.0127    0.0625 N   0  0  0  0  0  0  0  0  0  0  0  0
   -4.0047   -0.1490    0.3643 C   0  0  2  0  0  0  0  0  0  0  0  0
   -4.1610    1.2717   -0.3375 C   0  0  1  0  0  0  0  0  0  0  0  0
   -5.6079    1.8990   -0.3695 C   0  0  1  0  0  0  0  0  0  0  0  0
   -2.6081   -0.7749   -0.0954 C   0  0  1  0  0  0  0  0  0  0  0  0
   -5.1422   -1.0884   -0.1139 C   0  0  0  0  0  0  0  0  0  0  0  0
   -6.6262    0.8150   -0.8234 C   0  0  1  0  0  0  0  0  0  0  0  0
   -3.0580    2.2635    0.1343 C   0  0  0  0  0  0  0  0  0  0  0  0
   -6.5315   -0.4744   -0.0153 C   0  0  0  0  0  0  0  0  0  0  0  0
   -4.0470   -0.0642    1.9100 C   0  0  0  0  0  0  0  0  0  0  0  0
   -1.4992    0.2408    0.0063 C   0  0  0  0  0  0  0  0  0  0  0  0
   -6.0530    2.5512    0.9582 C   0  0  0  0  0  0  0  0  0  0  0  0
   -5.6432    3.0383   -1.4272 C   0  0  0  0  0  0  0  0  0  0  0  0
   -1.7230    1.6000    0.0902 C   0  0  0  0  0  0  0  0  0  0  0  0
   -2.2345   -2.0867    0.6080 C   0  0  0  0  0  0  0  0  0  0  0  0
   -1.3220   -2.9436   -0.2385 C   0  0  0  0  0  0  0  0  0  0  0  0
    0.5809    0.9429    0.0546 C   0  0  0  0  0  0  0  0  0  0  0  0
   -0.1308   -5.1291   -0.1491 C   0  0  0  0  0  0  0  0  0  0  0  0
    2.8458   -0.0646   -0.0192 C   0  0  0  0  0  0  0  0  0  0  0  0
   -0.5383   -6.5106    0.3467 C   0  0  0  0  0  0  0  0  0  0  0  0
    1.3293   -4.8357    0.1723 C   0  0  0  0  0  0  0  0  0  0  0  0
    4.2862    0.3051   -0.0197 C   0  0  0  0  0  0  0  0  0  0  0  0
    4.7040    1.4847    0.5964 C   0  0  0  0  0  0  0  0  0  0  0  0
    5.2196   -0.5282   -0.6362 C   0  0  0  0  0  0  0  0  0  0  0  0
    6.9885    0.9978   -0.0204 C   0  0  0  0  0  0  0  0  0  0  0  0
    6.0551    1.8311    0.5960 C   0  0  0  0  0  0  0  0  0  0  0  0
    6.5707   -0.1819   -0.6367 C   0  0  0  0  0  0  0  0  0  0  0  0
    8.4329    1.3681   -0.0223 C   0  0  0  0  0  0  0  0  0  0  0  0
    8.9748    1.5256   -1.4770 C   0  0  0  0  0  0  0  0  0  0  0  0
    9.2975    0.2794    0.6862 C   0  0  0  0  0  0  0  0  0  0  0  0
    8.7827    2.7118    0.6997 C   0  0  0  0  0  0  0  0  0  0  0  0
   -3.9348    1.0687   -1.3988 H   0  0  0  0  0  0  0  0  0  0  0  0
   -2.7128   -0.9752   -1.1724 H   0  0  0  0  0  0  0  0  0  0  0  0
   -4.9684   -1.3724   -1.1603 H   0  0  0  0  0  0  0  0  0  0  0  0
   -5.1435   -2.0222    0.4595 H   0  0  0  0  0  0  0  0  0  0  0  0
   -6.4453    0.5769   -1.8801 H   0  0  0  0  0  0  0  0  0  0  0  0
   -3.0426    3.1460   -0.5141 H   0  0  0  0  0  0  0  0  0  0  0  0
   -3.2519    2.6080    1.1556 H   0  0  0  0  0  0  0  0  0  0  0  0
   -6.8173   -0.3005    1.0279 H   0  0  0  0  0  0  0  0  0  0  0  0
   -7.2693   -1.1935   -0.3941 H   0  0  0  0  0  0  0  0  0  0  0  0
   -3.9079   -1.0511    2.3648 H   0  0  0  0  0  0  0  0  0  0  0  0
   -5.0023    0.2910    2.2908 H   0  0  0  0  0  0  0  0  0  0  0  0
   -3.2654    0.5833    2.3168 H   0  0  0  0  0  0  0  0  0  0  0  0
   -6.1080    1.8447    1.7825 H   0  0  0  0  0  0  0  0  0  0  0  0
   -5.3928    3.3739    1.2490 H   0  0  0  0  0  0  0  0  0  0  0  0
   -5.2455    2.6932   -2.3886 H   0  0  0  0  0  0  0  0  0  0  0  0
   -5.0494    3.9035   -1.1143 H   0  0  0  0  0  0  0  0  0  0  0  0
   -6.6599    3.3994   -1.6186 H   0  0  0  0  0  0  0  0  0  0  0  0
   -3.1224   -2.6961    0.8043 H   0  0  0  0  0  0  0  0  0  0  0  0
   -1.7436   -1.8951    1.5705 H   0  0  0  0  0  0  0  0  0  0  0  0
   -8.5555    0.6204   -1.0755 H   0  0  0  0  0  0  0  0  0  0  0  0
   -7.6190    3.4885    1.6059 H   0  0  0  0  0  0  0  0  0  0  0  0
   -1.3142   -4.2531    1.3758 H   0  0  0  0  0  0  0  0  0  0  0  0
    2.3056    1.9626    0.0935 H   0  0  0  0  0  0  0  0  0  0  0  0
   -0.2540   -5.1028   -1.2386 H   0  0  0  0  0  0  0  0  0  0  0  0
    0.0821   -7.2892   -0.1091 H   0  0  0  0  0  0  0  0  0  0  0  0
   -1.5839   -6.7202    0.0956 H   0  0  0  0  0  0  0  0  0  0  0  0
   -0.4389   -6.5886    1.4351 H   0  0  0  0  0  0  0  0  0  0  0  0
    1.9870   -5.5942   -0.2648 H   0  0  0  0  0  0  0  0  0  0  0  0
    1.6280   -3.8612   -0.2270 H   0  0  0  0  0  0  0  0  0  0  0  0
    1.5017   -4.8153    1.2542 H   0  0  0  0  0  0  0  0  0  0  0  0
    4.0183    2.1444    1.1194 H   0  0  0  0  0  0  0  0  0  0  0  0
    4.9146   -1.4490   -1.1265 H   0  0  0  0  0  0  0  0  0  0  0  0
    6.3264    2.7545    1.0956 H   0  0  0  0  0  0  0  0  0  0  0  0
    7.2758   -0.8482   -1.1253 H   0  0  0  0  0  0  0  0  0  0  0  0
    8.4067    2.2875   -2.0236 H   0  0  0  0  0  0  0  0  0  0  0  0
    8.9040    0.5906   -2.0436 H   0  0  0  0  0  0  0  0  0  0  0  0
   10.0292    1.8257   -1.4794 H   0  0  0  0  0  0  0  0  0  0  0  0
    9.2354   -0.6882    0.1763 H   0  0  0  0  0  0  0  0  0  0  0  0
    8.9647    0.1304    1.7202 H   0  0  0  0  0  0  0  0  0  0  0  0
   10.3557    0.5643    0.7109 H   0  0  0  0  0  0  0  0  0  0  0  0
    8.5057    2.6820    1.7600 H   0  0  0  0  0  0  0  0  0  0  0  0
    8.2769    3.5636    0.2303 H   0  0  0  0  0  0  0  0  0  0  0  0
    9.8597    2.9149    0.6558 H   0  0  0  0  0  0  0  0  0  0  0  0
  1 21  1  0  0  0  0
  1 24  1  0  0  0  0
  2 14  1  0  0  0  0
  2 58  1  0  0  0  0
  3 19  1  0  0  0  0
  3 59  1  0  0  0  0
  4 23  2  0  0  0  0
  5 26  2  0  0  0  0
  6 18  1  0  0  0  0
  6 24  2  0  0  0  0
  7 23  1  0  0  0  0
  7 25  1  0  0  0  0
  7 60  1  0  0  0  0
  8 24  1  0  0  0  0
  8 26  1  0  0  0  0
  8 61  1  0  0  0  0
  9 10  1  0  0  0  0
  9 12  1  0  0  0  0
  9 13  1  0  0  0  0
  9 17  1  0  0  0  0
 10 11  1  0  0  0  0
 10 15  1  0  0  0  0
 10 39  1  0  0  0  0
 11 14  1  0  0  0  0
 11 19  1  0  0  0  0
 11 20  1  0  0  0  0
 12 18  1  0  0  0  0
 12 22  1  0  0  0  0
 12 40  1  0  0  0  0
 13 16  1  0  0  0  0
 13 41  1  0  0  0  0
 13 42  1  0  0  0  0
 14 16  1  0  0  0  0
 14 43  1  0  0  0  0
 15 21  1  0  0  0  0
 15 44  1  0  0  0  0
 15 45  1  0  0  0  0
 16 46  1  0  0  0  0
 16 47  1  0  0  0  0
 17 48  1  0  0  0  0
 17 49  1  0  0  0  0
 17 50  1  0  0  0  0
 18 21  2  0  0  0  0
 19 51  1  0  0  0  0
 19 52  1  0  0  0  0
 20 53  1  0  0  0  0
 20 54  1  0  0  0  0
 20 55  1  0  0  0  0
 22 23  1  0  0  0  0
 22 56  1  0  0  0  0
 22 57  1  0  0  0  0
 25 27  1  0  0  0  0
 25 28  1  0  0  0  0
 25 62  1  0  0  0  0
 26 29  1  0  0  0  0
 27 63  1  0  0  0  0
 27 64  1  0  0  0  0
 27 65  1  0  0  0  0
 28 66  1  0  0  0  0
 28 67  1  0  0  0  0
 28 68  1  0  0  0  0
 29 30  2  0  0  0  0
 29 31  1  0  0  0  0
 30 33  1  0  0  0  0
 30 69  1  0  0  0  0
 31 34  2  0  0  0  0
 31 70  1  0  0  0  0
 32 33  2  0  0  0  0
 32 34  1  0  0  0  0
 32 35  1  0  0  0  0
 33 71  1  0  0  0  0
 34 72  1  0  0  0  0
 35 36  1  0  0  0  0
 35 37  1  0  0  0  0
 35 38  1  0  0  0  0
 36 73  1  0  0  0  0
 36 74  1  0  0  0  0
 36 75  1  0  0  0  0
 37 76  1  0  0  0  0
 37 77  1  0  0  0  0
 37 78  1  0  0  0  0
 38 79  1  0  0  0  0
 38 80  1  0  0  0  0
 38 81  1  0  0  0  0
M  END
> <PUBCHEM_COMPOUND_CID>
7135055

> <PUBCHEM_CONFORMER_RMSD>
1.2

> <PUBCHEM_CONFORMER_DIVERSEORDER>
1
4
9
5
10
3
7
11
6
8
2

> <PUBCHEM_MMFF94_PARTIAL_CHARGES>
34
1 -0.08
12 0.18
14 0.28
15 0.18
18 0.05
19 0.28
2 -0.68
21 -0.14
22 0.06
23 0.57
24 0.44
25 0.3
26 0.54
29 0.09
3 -0.68
30 -0.15
31 -0.15
32 -0.14
33 -0.15
34 -0.15
35 0.14
4 -0.57
5 -0.57
58 0.4
59 0.4
6 -0.57
60 0.37
61 0.37
69 0.15
7 -0.73
70 0.15
71 0.15
72 0.15
8 -0.49

> <PUBCHEM_EFFECTIVE_ROTOR_COUNT>
10.2

> <PUBCHEM_PHARMACOPHORE_FEATURES>
14
1 2 acceptor
1 2 donor
1 3 acceptor
1 3 donor
1 4 acceptor
1 5 acceptor
1 7 donor
1 8 donor
3 25 27 28 hydrophobe
4 35 36 37 38 hydrophobe
5 1 6 18 21 24 rings
6 29 30 31 32 33 34 rings
6 9 10 11 13 14 16 rings
6 9 10 12 15 18 21 rings

> <PUBCHEM_HEAVY_ATOM_COUNT>
38

> <PUBCHEM_ATOM_DEF_STEREO_COUNT>
5

> <PUBCHEM_ATOM_UDEF_STEREO_COUNT>
0

> <PUBCHEM_BOND_DEF_STEREO_COUNT>
0

> <PUBCHEM_BOND_UDEF_STEREO_COUNT>
0

> <PUBCHEM_ISOTOPIC_ATOM_COUNT>
0

> <PUBCHEM_COMPONENT_COUNT>
1

> <PUBCHEM_CACTVS_TAUTO_COUNT>
6

> <PUBCHEM_CONFORMER_ID>
006CDF4F00000001

> <PUBCHEM_MMFF94_ENERGY>
123.6709

> <PUBCHEM_FEATURE_SELFOVERLAP>
71.192

> <PUBCHEM_SHAPE_FINGERPRINT>
10190206 1 18269539672392950199
10290309 65 18336259025602549204
10369192 42 18335135372011225141
10864689 126 18412262857399369920
10940486 97 18117561940679478868
11007060 377 18272652393419835411
11135609 187 18410573942729292601
11135926 11 18337388232892815621
11136131 41 18188485770657808930
11315181 36 17704357692638575065
11578080 2 17098040639313692997
12013929 2 18202846540479865664
12522641 33 18411417280600377015
12838862 33 18338220631308000036
13248334 5 18050285868950124867
14040222 383 18339357565223060578
14150023 24 18335979801083641922
14394314 77 18410294692171848409
14856354 85 16443065036173785025
150020 25 18201725068209902492
15064981 194 18192727837125810612
15230672 131 18409444787828739514
15320295 198 18128254687714628952
15361156 5 17987517186135976596
15400415 2 18410291419659515032
15439362 3 18265331699764420699
15444296 121 18041284386385226488
15461852 350 17775283893306204341
15890870 6 18410853261104906263
15927050 60 18413102862302655039
16090146 7 18341348728967425480
18365409 1 18338237179970265350
19315958 150 18341618101311279932
20505436 4 17967525775462143674
21033648 29 18342447170979572312
21133665 82 18412546514109028318
21360443 120 18408885105480013591
23516275 137 18189068503931755090
23522609 53 17605003701314473748
23559900 14 18271800254839963209
23569943 247 14475585624841703044
249057 3 18408604790382233092
335352 9 18411135861637953053
3383291 50 18338800125623463699
4017518 198 18342741827601499414
4073 2 18339643473355034994
4403749 210 18335417997421816513
4408954 64 16230864927474912563
4625314 4 18339645651062242388
4874694 18 18343015602539942118
5265222 85 18410854395034587064
5385378 56 18266467499533996513
563151 97 18269839714318043553
57527295 17 18058997382467671677
6371380 46 18271802458368617464
6669772 16 18340489967294242479
6691757 9 18342185491554094688
9896288 288 18189339133209175178
99344 41 18410573959397478292

> <PUBCHEM_SHAPE_MULTIPOLES>
747.45
25.54
5.85
1.02
43.52
13.55
-0.01
-26.37
1.41
-4.03
-0.29
-0.27
-0.31
0.67

> <PUBCHEM_SHAPE_SELFOVERLAP>
1567.148

> <PUBCHEM_SHAPE_VOLUME>
427.9

> <PUBCHEM_COORDINATE_TYPE>
2
5
10

$$$$
