11913377
  -OEChem-12032416363D

 53 57  0     1  0  0  0  0  0999 V2000
    3.4054   -2.8719    2.6910 F   0  0  0  0  0  0  0  0  0  0  0  0
   -0.5187    0.8985    2.1636 O   0  0  0  0  0  0  0  0  0  0  0  0
   -1.6242    3.4436    0.7262 O   0  0  0  0  0  0  0  0  0  0  0  0
   -3.3746    0.2346    1.1622 N   0  0  0  0  0  0  0  0  0  0  0  0
    0.8963    2.5006   -0.7953 N   0  0  0  0  0  0  0  0  0  0  0  0
    2.5069    0.8101   -0.5629 N   0  0  0  0  0  0  0  0  0  0  0  0
    2.1318    1.8777   -2.6904 N   0  0  0  0  0  0  0  0  0  0  0  0
   -1.8384    2.0343    0.5418 C   0  0  1  0  0  0  0  0  0  0  0  0
   -0.5148    1.3395    0.7956 C   0  0  1  0  0  0  0  0  0  0  0  0
   -2.7492    1.4994    1.6200 C   0  0  2  0  0  0  0  0  0  0  0  0
    0.5170    2.4250    0.5986 C   0  0  2  0  0  0  0  0  0  0  0  0
   -1.7884    1.2089    2.7563 C   0  0  0  0  0  0  0  0  0  0  0  0
   -0.2363    3.6776    1.0065 C   0  0  0  0  0  0  0  0  0  0  0  0
   -4.2949    0.4832    0.0635 C   0  0  0  0  0  0  0  0  0  0  0  0
    1.8740    1.7057   -1.3666 C   0  0  0  0  0  0  0  0  0  0  0  0
   -4.9431   -0.7856   -0.4232 C   0  0  0  0  0  0  0  0  0  0  0  0
   -4.3369   -1.5183   -1.4341 C   0  0  0  0  0  0  0  0  0  0  0  0
   -6.1377   -1.2047    0.1456 C   0  0  0  0  0  0  0  0  0  0  0  0
    3.4544    0.0518   -1.1524 C   0  0  0  0  0  0  0  0  0  0  0  0
    3.0909    1.0866   -3.2147 C   0  0  0  0  0  0  0  0  0  0  0  0
   -4.9373   -2.6938   -1.8851 C   0  0  0  0  0  0  0  0  0  0  0  0
   -6.7380   -2.3802   -0.3054 C   0  0  0  0  0  0  0  0  0  0  0  0
    3.7920    0.1469   -2.4870 C   0  0  0  0  0  0  0  0  0  0  0  0
   -6.1378   -3.1249   -1.3209 C   0  0  0  0  0  0  0  0  0  0  0  0
    4.1129   -0.8926   -0.2818 C   0  0  0  0  0  0  0  0  0  0  0  0
    3.4282   -1.4377    0.8066 C   0  0  0  0  0  0  0  0  0  0  0  0
    5.4368   -1.2650   -0.5249 C   0  0  0  0  0  0  0  0  0  0  0  0
    4.0643   -2.3507    1.6479 C   0  0  0  0  0  0  0  0  0  0  0  0
    6.0728   -2.1779    0.3164 C   0  0  0  0  0  0  0  0  0  0  0  0
    5.3866   -2.7206    1.4028 C   0  0  0  0  0  0  0  0  0  0  0  0
   -2.1543    1.9268   -0.4958 H   0  0  0  0  0  0  0  0  0  0  0  0
   -0.3747    0.4519    0.1703 H   0  0  0  0  0  0  0  0  0  0  0  0
   -3.5217    2.2061    1.9431 H   0  0  0  0  0  0  0  0  0  0  0  0
    1.4018    2.3142    1.2361 H   0  0  0  0  0  0  0  0  0  0  0  0
   -1.6493    2.0972    3.3829 H   0  0  0  0  0  0  0  0  0  0  0  0
   -2.0986    0.3873    3.4099 H   0  0  0  0  0  0  0  0  0  0  0  0
   -0.1493    3.8521    2.0846 H   0  0  0  0  0  0  0  0  0  0  0  0
    0.0906    4.5830    0.4857 H   0  0  0  0  0  0  0  0  0  0  0  0
   -3.8809   -0.1815    1.9441 H   0  0  0  0  0  0  0  0  0  0  0  0
    0.3950    3.1274   -1.4146 H   0  0  0  0  0  0  0  0  0  0  0  0
   -3.8200    0.9443   -0.8066 H   0  0  0  0  0  0  0  0  0  0  0  0
   -5.0799    1.1840    0.3785 H   0  0  0  0  0  0  0  0  0  0  0  0
   -3.4007   -1.1931   -1.8790 H   0  0  0  0  0  0  0  0  0  0  0  0
   -6.6127   -0.6335    0.9382 H   0  0  0  0  0  0  0  0  0  0  0  0
    3.2823    1.2299   -4.2729 H   0  0  0  0  0  0  0  0  0  0  0  0
   -4.4696   -3.2740   -2.6753 H   0  0  0  0  0  0  0  0  0  0  0  0
   -7.6725   -2.7162    0.1343 H   0  0  0  0  0  0  0  0  0  0  0  0
    4.5329   -0.4715   -2.9771 H   0  0  0  0  0  0  0  0  0  0  0  0
   -6.6052   -4.0403   -1.6718 H   0  0  0  0  0  0  0  0  0  0  0  0
    2.3939   -1.1787    1.0206 H   0  0  0  0  0  0  0  0  0  0  0  0
    6.0169   -0.8483   -1.3439 H   0  0  0  0  0  0  0  0  0  0  0  0
    7.1043   -2.4620    0.1296 H   0  0  0  0  0  0  0  0  0  0  0  0
    5.8821   -3.4303    2.0587 H   0  0  0  0  0  0  0  0  0  0  0  0
  1 28  1  0  0  0  0
  2  9  1  0  0  0  0
  2 12  1  0  0  0  0
  3  8  1  0  0  0  0
  3 13  1  0  0  0  0
  4 10  1  0  0  0  0
  4 14  1  0  0  0  0
  4 39  1  0  0  0  0
  5 11  1  0  0  0  0
  5 15  1  0  0  0  0
  5 40  1  0  0  0  0
  6 15  1  0  0  0  0
  6 19  2  0  0  0  0
  7 15  2  0  0  0  0
  7 20  1  0  0  0  0
  8  9  1  0  0  0  0
  8 10  1  0  0  0  0
  8 31  1  0  0  0  0
  9 11  1  0  0  0  0
  9 32  1  0  0  0  0
 10 12  1  0  0  0  0
 10 33  1  0  0  0  0
 11 13  1  0  0  0  0
 11 34  1  0  0  0  0
 12 35  1  0  0  0  0
 12 36  1  0  0  0  0
 13 37  1  0  0  0  0
 13 38  1  0  0  0  0
 14 16  1  0  0  0  0
 14 41  1  0  0  0  0
 14 42  1  0  0  0  0
 16 17  2  0  0  0  0
 16 18  1  0  0  0  0
 17 21  1  0  0  0  0
 17 43  1  0  0  0  0
 18 22  2  0  0  0  0
 18 44  1  0  0  0  0
 19 23  1  0  0  0  0
 19 25  1  0  0  0  0
 20 23  2  0  0  0  0
 20 45  1  0  0  0  0
 21 24  2  0  0  0  0
 21 46  1  0  0  0  0
 22 24  1  0  0  0  0
 22 47  1  0  0  0  0
 23 48  1  0  0  0  0
 24 49  1  0  0  0  0
 25 26  2  0  0  0  0
 25 27  1  0  0  0  0
 26 28  1  0  0  0  0
 26 50  1  0  0  0  0
 27 29  2  0  0  0  0
 27 51  1  0  0  0  0
 28 30  2  0  0  0  0
 29 30  1  0  0  0  0
 29 52  1  0  0  0  0
 30 53  1  0  0  0  0
M  END
> <PUBCHEM_COMPOUND_CID>
11913377

> <PUBCHEM_CONFORMER_RMSD>
1

> <PUBCHEM_CONFORMER_DIVERSEORDER>
1
231
353
59
347
393
41
170
182
329
112
173
381
274
309
325
134
275
154
50
315
162
8
292
259
184
323
305
33
64
89
312
407
65
28
389
118
285
240
273
21
189
161
7
406
397
387
66
202
105
306
119
266
235
172
183
290
233
159
398
404
332
88
218
116
98
328
378
388
153
371
254
222
115
272
384
93
191
178
177
108
339
211
138
123
205
237
207
410
37
264
386
408
364
243
174
396
15
52
361
366
185
130
209
84
289
229
57
286
291
320
262
367
402
268
148
256
44
46
334
87
67
213
133
403
48
180
73
282
96
409
163
111
104
349
169
90
187
35
92
331
54
348
261
271
258
150
263
63
95
242
336
356
144
377
279
342
190
324
100
383
106
146
314
40
337
344
200
313
31
155
341
51
302
39
121
246
216
194
230
79
86
215
322
9
60
307
18
335
225
269
210
350
94
45
147
53
109
351
143
120
32
363
72
340
219
280
375
199
195
167
345
74
321
135
295
327
188
257
365
217
156
391
310
245
343
368
294
283
301
359
214
284
287
196
102
158
10
47
129
299
385
82
362
373
175
247
71
395
317
255
354
278
80
168
270
298
203
43
392
265
16
401
186
179
2
333
127
224
165
252
300
293
405
34
238
141
201
107
308
76
249
281
110
346
223
19
204
394
49
132
382
61
42
20
318
267
260
140
288
181
85
101
157
370
75
253
91
220
117
319
5
380
166
236
376
372
192
276
99
78
357
137
176
122
228
250
149
234
139
151
81
296
124
25
38
390
374
29
193
304
126
352
152
83
30
3
14
244
221
136
379
142
103
303
316
326
160
198
55
145
239
297
171
128
369
358
206
69
62
232
330
208
227
97
17
26
125
399
27
164
212
131
311
70
77
241
251
12
400
277
6
355
56
338
197
360
24
68
36
113
11
23
248
226
58
4
13
114
22

> <PUBCHEM_MMFF94_PARTIAL_CHARGES>
42
1 -0.19
10 0.27
11 0.37
12 0.28
13 0.28
14 0.41
15 0.72
16 -0.14
17 -0.15
18 -0.15
19 0.31
2 -0.56
20 0.16
21 -0.15
22 -0.15
23 -0.15
24 -0.15
26 -0.15
27 -0.15
28 0.19
29 -0.15
3 -0.56
30 -0.15
39 0.36
4 -0.9
40 0.4
43 0.15
44 0.15
45 0.15
46 0.15
47 0.15
48 0.15
49 0.15
5 -0.87
50 0.15
51 0.15
52 0.15
53 0.15
6 -0.62
7 -0.62
8 0.28
9 0.28

> <PUBCHEM_EFFECTIVE_ROTOR_COUNT>
7.2

> <PUBCHEM_PHARMACOPHORE_FEATURES>
12
1 2 acceptor
1 3 acceptor
1 4 cation
1 4 donor
1 5 donor
1 6 acceptor
4 5 6 7 15 cation
5 2 8 9 10 12 rings
5 3 8 9 11 13 rings
6 16 17 18 21 22 24 rings
6 25 26 27 28 29 30 rings
6 6 7 15 19 20 23 rings

> <PUBCHEM_HEAVY_ATOM_COUNT>
30

> <PUBCHEM_ATOM_DEF_STEREO_COUNT>
4

> <PUBCHEM_ATOM_UDEF_STEREO_COUNT>
0

> <PUBCHEM_BOND_DEF_STEREO_COUNT>
0

> <PUBCHEM_BOND_UDEF_STEREO_COUNT>
0

> <PUBCHEM_ISOTOPIC_ATOM_COUNT>
0

> <PUBCHEM_COMPONENT_COUNT>
1

> <PUBCHEM_CACTVS_TAUTO_COUNT>
3

> <PUBCHEM_CONFORMER_ID>
00B5C8A100000001

> <PUBCHEM_MMFF94_ENERGY>
88.1213

> <PUBCHEM_FEATURE_SELFOVERLAP>
61.6

> <PUBCHEM_SHAPE_FINGERPRINT>
10074138 170 16700917994216626913
10622 236 18115864114074107682
11069576 57 18186526484123498830
11135926 11 17170148973800272340
11443803 9 17843977064633892412
11497681 19 18265051346080883046
11607047 403 18268133440197258456
11763715 3 18339367370623419400
11796584 16 18131638868039015745
12144603 126 18339093630539845449
12166972 35 18260544536930936959
12342043 65 15984007846525391900
12422481 6 16558739144210272503
12977781 61 18123155040129254001
14068700 675 18337103484765721624
14480069 147 18114474456479361363
14508693 111 18202005477000794494
15419009 47 17534044286557631525
15484559 13 14673118857610761631
15728490 51 18343579660294206534
19032999 76 18343016666536628344
19315092 285 18408323306577912580
20567600 234 10231768777769546731
20626108 58 18130793386283152585
20775438 99 17975401735823093699
208703 8 18413388730640103654
21223535 225 16298657279516203109
21458453 9 15696849605658429310
21585480 29 15051439561951596069
25222932 49 18200304554319550020
2838139 119 13335286667738834389
3388396 114 17969241056214160852
392239 28 14476949061075284172
4015057 19 17313395529829722793
4017518 198 16750711344752764006
437795 139 18411692201747040039
4394409 98 18270386206315320935
439807 62 18334576880608695247
46194498 28 15214742335785973076
463206 1 18409174324303721915
50009960 94 17415253286864521735
59025328 239 17603585193090121300
59682541 52 17530959216023177463
613672 6 17561083584093194341
66674814 147 18113616763820355842
6677587 24 16519893561514895711
96874 4 18410004429576109343

> <PUBCHEM_SHAPE_MULTIPOLES>
578.45
15.84
4.33
2.77
10.96
0.79
0.68
-20.71
2.1
1.68
-1
-2.77
0.1
-5.68

> <PUBCHEM_SHAPE_SELFOVERLAP>
1271.029

> <PUBCHEM_SHAPE_VOLUME>
312.9

> <PUBCHEM_COORDINATE_TYPE>
2
5
10

$$$$
