45783846
  -OEChem-12032416353D

 50 54  0     1  0  0  0  0  0999 V2000
   -0.4687   -1.5759   -1.7439 O   0  0  0  0  0  0  0  0  0  0  0  0
   -4.0035   -1.0928   -1.6139 O   0  0  0  0  0  0  0  0  0  0  0  0
   -7.6017   -2.7213    1.2995 O   0  0  0  0  0  0  0  0  0  0  0  0
   -6.4229   -1.2935    2.6172 O   0  0  0  0  0  0  0  0  0  0  0  0
   -2.6345    0.3926   -0.4516 N   0  0  0  0  0  0  0  0  0  0  0  0
   -1.4946    3.4638    1.3337 N   0  0  0  0  0  0  0  0  0  0  0  0
   -0.8886    4.1580   -0.7016 N   0  0  0  0  0  0  0  0  0  0  0  0
    0.7328    0.1054   -0.8800 N   0  0  0  0  0  0  0  0  0  0  0  0
    0.7907   -2.1108   -1.4448 N   0  0  0  0  0  0  0  0  0  0  0  0
   -1.6867    0.5517   -1.6077 C   0  0  1  0  0  0  0  0  0  0  0  0
   -1.4880    2.0535   -1.9779 C   0  0  0  0  0  0  0  0  0  0  0  0
   -2.3100    1.1052    0.8157 C   0  0  0  0  0  0  0  0  0  0  0  0
   -1.7548    2.4314    0.4828 C   0  0  0  0  0  0  0  0  0  0  0  0
   -1.3718    2.8811   -0.7569 C   0  0  0  0  0  0  0  0  0  0  0  0
   -0.4177   -0.2675   -1.3811 C   0  0  0  0  0  0  0  0  0  0  0  0
   -3.7146   -0.4913   -0.5764 C   0  0  0  0  0  0  0  0  0  0  0  0
   -4.5623   -0.6984    0.6542 C   0  0  0  0  0  0  0  0  0  0  0  0
   -0.9750    4.4812    0.5733 C   0  0  0  0  0  0  0  0  0  0  0  0
   -5.6791   -1.6764    0.3502 C   0  0  0  0  0  0  0  0  0  0  0  0
    1.4418   -1.0590   -0.9394 C   0  0  0  0  0  0  0  0  0  0  0  0
    2.8006   -1.1374   -0.4863 C   0  0  0  0  0  0  0  0  0  0  0  0
    3.4293   -0.0048    0.0317 C   0  0  0  0  0  0  0  0  0  0  0  0
   -6.5884   -1.8531    1.5410 C   0  0  0  0  0  0  0  0  0  0  0  0
    4.7588   -0.0652    0.4799 C   0  0  0  0  0  0  0  0  0  0  0  0
    3.4907   -2.3436   -0.5632 C   0  0  0  0  0  0  0  0  0  0  0  0
    5.4606   -1.2917    0.4018 C   0  0  0  0  0  0  0  0  0  0  0  0
    4.8121   -2.4217   -0.1224 C   0  0  0  0  0  0  0  0  0  0  0  0
    5.4074    1.0649    1.0040 C   0  0  0  0  0  0  0  0  0  0  0  0
    6.7902   -1.3520    0.8499 C   0  0  0  0  0  0  0  0  0  0  0  0
    6.7289    0.9868    1.4446 C   0  0  0  0  0  0  0  0  0  0  0  0
    7.4189   -0.2192    1.3677 C   0  0  0  0  0  0  0  0  0  0  0  0
   -2.1552    0.0976   -2.4915 H   0  0  0  0  0  0  0  0  0  0  0  0
   -0.6117    2.1824   -2.6224 H   0  0  0  0  0  0  0  0  0  0  0  0
   -2.3672    2.4011   -2.5347 H   0  0  0  0  0  0  0  0  0  0  0  0
   -3.1890    1.2150    1.4523 H   0  0  0  0  0  0  0  0  0  0  0  0
   -1.5710    0.4971    1.3483 H   0  0  0  0  0  0  0  0  0  0  0  0
   -1.6509    3.4810    2.3329 H   0  0  0  0  0  0  0  0  0  0  0  0
   -3.9346   -1.0722    1.4707 H   0  0  0  0  0  0  0  0  0  0  0  0
   -4.9989    0.2618    0.9503 H   0  0  0  0  0  0  0  0  0  0  0  0
   -0.6817    5.4254    1.0098 H   0  0  0  0  0  0  0  0  0  0  0  0
   -5.2677   -2.6582    0.0888 H   0  0  0  0  0  0  0  0  0  0  0  0
   -6.2923   -1.3156   -0.4841 H   0  0  0  0  0  0  0  0  0  0  0  0
    2.8971    0.9433    0.0958 H   0  0  0  0  0  0  0  0  0  0  0  0
    3.0338   -3.2466   -0.9604 H   0  0  0  0  0  0  0  0  0  0  0  0
    5.3326   -3.3747   -0.1917 H   0  0  0  0  0  0  0  0  0  0  0  0
    4.8878    2.0184    1.0738 H   0  0  0  0  0  0  0  0  0  0  0  0
    7.3490   -2.2843    0.7992 H   0  0  0  0  0  0  0  0  0  0  0  0
    7.2190    1.8683    1.8478 H   0  0  0  0  0  0  0  0  0  0  0  0
    8.4477   -0.2793    1.7109 H   0  0  0  0  0  0  0  0  0  0  0  0
   -8.1799   -2.8365    2.0835 H   0  0  0  0  0  0  0  0  0  0  0  0
  1  9  1  0  0  0  0
  1 15  1  0  0  0  0
  2 16  2  0  0  0  0
  3 23  1  0  0  0  0
  3 50  1  0  0  0  0
  4 23  2  0  0  0  0
  5 10  1  0  0  0  0
  5 12  1  0  0  0  0
  5 16  1  0  0  0  0
  6 13  1  0  0  0  0
  6 18  1  0  0  0  0
  6 37  1  0  0  0  0
  7 14  1  0  0  0  0
  7 18  2  0  0  0  0
  8 15  2  0  0  0  0
  8 20  1  0  0  0  0
  9 20  2  0  0  0  0
 10 11  1  0  0  0  0
 10 15  1  0  0  0  0
 10 32  1  0  0  0  0
 11 14  1  0  0  0  0
 11 33  1  0  0  0  0
 11 34  1  0  0  0  0
 12 13  1  0  0  0  0
 12 35  1  0  0  0  0
 12 36  1  0  0  0  0
 13 14  2  0  0  0  0
 16 17  1  0  0  0  0
 17 19  1  0  0  0  0
 17 38  1  0  0  0  0
 17 39  1  0  0  0  0
 18 40  1  0  0  0  0
 19 23  1  0  0  0  0
 19 41  1  0  0  0  0
 19 42  1  0  0  0  0
 20 21  1  0  0  0  0
 21 22  2  0  0  0  0
 21 25  1  0  0  0  0
 22 24  1  0  0  0  0
 22 43  1  0  0  0  0
 24 26  1  0  0  0  0
 24 28  2  0  0  0  0
 25 27  2  0  0  0  0
 25 44  1  0  0  0  0
 26 27  1  0  0  0  0
 26 29  2  0  0  0  0
 27 45  1  0  0  0  0
 28 30  1  0  0  0  0
 28 46  1  0  0  0  0
 29 31  1  0  0  0  0
 29 47  1  0  0  0  0
 30 31  2  0  0  0  0
 30 48  1  0  0  0  0
 31 49  1  0  0  0  0
M  END
> <PUBCHEM_COMPOUND_CID>
45783846

> <PUBCHEM_CONFORMER_RMSD>
0.8

> <PUBCHEM_CONFORMER_DIVERSEORDER>
1
155
141
85
36
52
125
28
17
55
150
96
74
90
171
75
117
162
64
122
4
68
164
127
79
120
44
95
76
7
91
118
84
32
34
33
88
144
61
138
154
49
81
116
40
159
170
13
97
39
71
78
22
137
3
165
123
20
172
114
149
16
143
107
178
109
45
160
24
180
48
23
101
27
25
15
176
87
6
115
62
57
140
86
18
21
130
167
12
177
132
83
19
121
148
73
72
82
77
183
110
98
2
31
69
26
156
63
142
29
126
54
108
102
131
166
66
179
158
5
59
9
168
153
38
111
60
43
58
152
42
50
47
182
106
135
10
169
129
94
134
157
103
51
146
92
53
11
80
93
100
89
112
35
151
124
133
99
175
65
56
70
104
163
161
30
147
37
184
136
46
41
174
67
173
14
139
145
105
181
119
113
8
128

> <PUBCHEM_MMFF94_PARTIAL_CHARGES>
39
1 -0.02
10 0.48
11 0.18
12 0.48
13 -0.33
14 0.05
15 0.3
16 0.57
17 0.06
18 0.04
19 0.06
2 -0.57
20 0.46
21 0.05
22 -0.15
23 0.66
25 -0.15
27 -0.15
28 -0.15
29 -0.15
3 -0.65
30 -0.15
31 -0.15
37 0.27
4 -0.57
40 0.15
43 0.15
44 0.15
45 0.15
46 0.15
47 0.15
48 0.15
49 0.15
5 -0.66
50 0.5
6 0.03
7 -0.57
8 -0.57
9 -0.41

> <PUBCHEM_EFFECTIVE_ROTOR_COUNT>
6.8

> <PUBCHEM_PHARMACOPHORE_FEATURES>
12
1 2 acceptor
1 3 acceptor
1 4 acceptor
1 6 donor
3 3 4 23 anion
3 6 7 18 cation
3 8 9 20 cation
5 1 8 9 15 20 rings
5 6 7 13 14 18 rings
6 21 22 24 25 26 27 rings
6 24 26 28 29 30 31 rings
6 5 10 11 12 13 14 rings

> <PUBCHEM_HEAVY_ATOM_COUNT>
31

> <PUBCHEM_ATOM_DEF_STEREO_COUNT>
1

> <PUBCHEM_ATOM_UDEF_STEREO_COUNT>
0

> <PUBCHEM_BOND_DEF_STEREO_COUNT>
0

> <PUBCHEM_BOND_UDEF_STEREO_COUNT>
0

> <PUBCHEM_ISOTOPIC_ATOM_COUNT>
0

> <PUBCHEM_COMPONENT_COUNT>
1

> <PUBCHEM_CACTVS_TAUTO_COUNT>
2

> <PUBCHEM_CONFORMER_ID>
02BA9B2600000001

> <PUBCHEM_MMFF94_ENERGY>
64.941

> <PUBCHEM_FEATURE_SELFOVERLAP>
61.084

> <PUBCHEM_SHAPE_FINGERPRINT>
10369192 42 16343697764410494348
10670039 82 18342741794001214812
11200772 48 8646765599324190120
11621639 336 11460352028144504247
11828532 37 17533229797718715291
12218070 45 17774436226325124023
12555020 224 11169912766588864028
12596602 18 17968365772365155136
12758862 65 18115601485783222731
13257819 101 13254531825250974361
13947930 73 17532669029635248707
14068700 675 17530967998798417125
14394314 77 18408042884522141731
15052358 14 8862946078093409570
15183329 4 10665218259227867819
15188451 53 17240198841772007082
15347590 135 18334851732344903074
17844677 252 18129656375823319230
17980427 23 17346319366858587671
18393751 57 18059856198694022342
19611394 137 18335702788424743930
20721686 146 14764084328636843011
21344244 78 17916608526156859137
21756936 100 14189566429847684511
22956985 138 17685775022837863751
23559900 14 11170208536124493814
23576562 1 10807632499074618523
23845131 108 17547018429556064929
25019877 29 17131835399586200295
2747138 104 18409172108317056434
340366 18 10231462056068196306
392239 28 18272930565492835559
4144715 1 17980200778056193486
4173938 306 11170188834956389566
469060 322 18412272713611076312
50009960 94 17973169710625051435
5104073 3 18195236725366109162
6009941 240 17967806112509494693
7399639 24 18058737896605243879
9689198 14 14692580939419191787

> <PUBCHEM_SHAPE_MULTIPOLES>
589.58
18.1
4.12
1.82
6.47
5.01
0.11
-14.41
13.63
-4.11
0.45
-1.93
-0.25
2.71

> <PUBCHEM_SHAPE_SELFOVERLAP>
1306.773

> <PUBCHEM_SHAPE_VOLUME>
314

> <PUBCHEM_COORDINATE_TYPE>
2
5
10

$$$$
