51138084
  -OEChem-12032416143D

 59 62  0     1  0  0  0  0  0999 V2000
   -6.2172    1.6404   -0.5932 S   0  0  0  0  0  0  0  0  0  0  0  0
   -2.4363    1.3815   -1.9110 O   0  0  0  0  0  0  0  0  0  0  0  0
   -0.8632   -0.6720   -0.7604 N   0  0  0  0  0  0  0  0  0  0  0  0
    4.0070    0.6577   -0.8901 N   0  0  0  0  0  0  0  0  0  0  0  0
   -2.5586    2.0024    0.3294 N   0  0  0  0  0  0  0  0  0  0  0  0
   -0.1713   -1.6069    0.1370 C   0  0  2  0  0  0  0  0  0  0  0  0
    1.3588   -1.5302    0.1328 C   0  0  0  0  0  0  0  0  0  0  0  0
   -0.6769    0.7346   -0.4343 C   0  0  1  0  0  0  0  0  0  0  0  0
    2.1244   -0.4449   -0.3833 C   0  0  0  0  0  0  0  0  0  0  0  0
   -0.6936   -2.9963   -0.2705 C   0  0  0  0  0  0  0  0  0  0  0  0
    0.4321    1.3634   -1.2758 C   0  0  0  0  0  0  0  0  0  0  0  0
    1.7901    0.8129   -0.9948 C   0  0  0  0  0  0  0  0  0  0  0  0
   -2.1060   -3.2809    0.2499 C   0  0  0  0  0  0  0  0  0  0  0  0
    3.5216   -0.4923   -0.3138 C   0  0  0  0  0  0  0  0  0  0  0  0
    2.9758    1.4515   -1.2973 C   0  0  0  0  0  0  0  0  0  0  0  0
    2.0922   -2.5730    0.7541 C   0  0  0  0  0  0  0  0  0  0  0  0
   -1.9806    1.3919   -0.7706 C   0  0  0  0  0  0  0  0  0  0  0  0
    4.2272   -1.5507    0.2608 C   0  0  0  0  0  0  0  0  0  0  0  0
    3.4846   -2.5891    0.8078 C   0  0  0  0  0  0  0  0  0  0  0  0
   -2.5167   -4.6987   -0.1545 C   0  0  0  0  0  0  0  0  0  0  0  0
   -3.1375   -2.2770   -0.2666 C   0  0  0  0  0  0  0  0  0  0  0  0
    5.4052    1.0027   -1.0341 C   0  0  0  0  0  0  0  0  0  0  0  0
   -3.8085    2.7249    0.2665 C   0  0  0  0  0  0  0  0  0  0  0  0
    5.9932    1.4589    0.2319 C   0  0  0  0  0  0  0  0  0  0  0  0
   -4.9834    1.8430    0.5769 C   0  0  0  0  0  0  0  0  0  0  0  0
    6.4762    1.8318    1.2664 C   0  0  0  0  0  0  0  0  0  0  0  0
   -5.2392    1.1289    1.7268 C   0  0  0  0  0  0  0  0  0  0  0  0
   -6.4640    0.4055    1.6460 C   0  0  0  0  0  0  0  0  0  0  0  0
   -7.0979    0.5946    0.4376 C   0  0  0  0  0  0  0  0  0  0  0  0
    7.0625    2.2854    2.5265 C   0  0  0  0  0  0  0  0  0  0  0  0
   -0.4843   -1.4076    1.1712 H   0  0  0  0  0  0  0  0  0  0  0  0
   -0.4563    0.8654    0.6328 H   0  0  0  0  0  0  0  0  0  0  0  0
   -0.6566   -3.1155   -1.3636 H   0  0  0  0  0  0  0  0  0  0  0  0
   -0.0578   -3.8008    0.1102 H   0  0  0  0  0  0  0  0  0  0  0  0
    0.2243    1.2435   -2.3483 H   0  0  0  0  0  0  0  0  0  0  0  0
    0.4435    2.4469   -1.0935 H   0  0  0  0  0  0  0  0  0  0  0  0
   -0.6261   -0.8591   -1.7340 H   0  0  0  0  0  0  0  0  0  0  0  0
   -2.1011   -3.2365    1.3465 H   0  0  0  0  0  0  0  0  0  0  0  0
    3.1564    2.4105   -1.7653 H   0  0  0  0  0  0  0  0  0  0  0  0
    1.5768   -3.3938    1.2475 H   0  0  0  0  0  0  0  0  0  0  0  0
    5.3108   -1.5659    0.3057 H   0  0  0  0  0  0  0  0  0  0  0  0
    3.9946   -3.4177    1.2921 H   0  0  0  0  0  0  0  0  0  0  0  0
   -1.8089   -5.4380    0.2354 H   0  0  0  0  0  0  0  0  0  0  0  0
   -3.5059   -4.9466    0.2452 H   0  0  0  0  0  0  0  0  0  0  0  0
   -2.5555   -4.8066   -1.2439 H   0  0  0  0  0  0  0  0  0  0  0  0
   -4.1524   -2.6332   -0.0526 H   0  0  0  0  0  0  0  0  0  0  0  0
   -3.0551   -1.3115    0.2398 H   0  0  0  0  0  0  0  0  0  0  0  0
   -3.0693   -2.1373   -1.3505 H   0  0  0  0  0  0  0  0  0  0  0  0
    5.4858    1.7855   -1.7969 H   0  0  0  0  0  0  0  0  0  0  0  0
    5.9290    0.1224   -1.4221 H   0  0  0  0  0  0  0  0  0  0  0  0
   -2.1065    1.9393    1.2366 H   0  0  0  0  0  0  0  0  0  0  0  0
   -3.7531    3.5291    1.0086 H   0  0  0  0  0  0  0  0  0  0  0  0
   -3.8977    3.1915   -0.7210 H   0  0  0  0  0  0  0  0  0  0  0  0
   -4.5822    1.1225    2.5872 H   0  0  0  0  0  0  0  0  0  0  0  0
   -6.8600   -0.2217    2.4340 H   0  0  0  0  0  0  0  0  0  0  0  0
   -8.0358    0.1683    0.1108 H   0  0  0  0  0  0  0  0  0  0  0  0
    8.0926    2.6230    2.3775 H   0  0  0  0  0  0  0  0  0  0  0  0
    6.4895    3.1183    2.9449 H   0  0  0  0  0  0  0  0  0  0  0  0
    7.0736    1.4770    3.2637 H   0  0  0  0  0  0  0  0  0  0  0  0
  1 25  1  0  0  0  0
  1 29  1  0  0  0  0
  2 17  2  0  0  0  0
  3  6  1  0  0  0  0
  3  8  1  0  0  0  0
  3 37  1  0  0  0  0
  4 14  1  0  0  0  0
  4 15  1  0  0  0  0
  4 22  1  0  0  0  0
  5 17  1  0  0  0  0
  5 23  1  0  0  0  0
  5 51  1  0  0  0  0
  6  7  1  0  0  0  0
  6 10  1  0  0  0  0
  6 31  1  0  0  0  0
  7  9  2  0  0  0  0
  7 16  1  0  0  0  0
  8 11  1  0  0  0  0
  8 17  1  0  0  0  0
  8 32  1  0  0  0  0
  9 12  1  0  0  0  0
  9 14  1  0  0  0  0
 10 13  1  0  0  0  0
 10 33  1  0  0  0  0
 10 34  1  0  0  0  0
 11 12  1  0  0  0  0
 11 35  1  0  0  0  0
 11 36  1  0  0  0  0
 12 15  2  0  0  0  0
 13 20  1  0  0  0  0
 13 21  1  0  0  0  0
 13 38  1  0  0  0  0
 14 18  2  0  0  0  0
 15 39  1  0  0  0  0
 16 19  2  0  0  0  0
 16 40  1  0  0  0  0
 18 19  1  0  0  0  0
 18 41  1  0  0  0  0
 19 42  1  0  0  0  0
 20 43  1  0  0  0  0
 20 44  1  0  0  0  0
 20 45  1  0  0  0  0
 21 46  1  0  0  0  0
 21 47  1  0  0  0  0
 21 48  1  0  0  0  0
 22 24  1  0  0  0  0
 22 49  1  0  0  0  0
 22 50  1  0  0  0  0
 23 25  1  0  0  0  0
 23 52  1  0  0  0  0
 23 53  1  0  0  0  0
 24 26  3  0  0  0  0
 25 27  2  0  0  0  0
 26 30  1  0  0  0  0
 27 28  1  0  0  0  0
 27 54  1  0  0  0  0
 28 29  2  0  0  0  0
 28 55  1  0  0  0  0
 29 56  1  0  0  0  0
 30 57  1  0  0  0  0
 30 58  1  0  0  0  0
 30 59  1  0  0  0  0
M  END
> <PUBCHEM_COMPOUND_CID>
51138084

> <PUBCHEM_CONFORMER_RMSD>
1

> <PUBCHEM_CONFORMER_DIVERSEORDER>
1
86
108
57
99
191
22
101
46
84
34
173
16
144
103
70
100
159
64
91
119
27
184
137
189
188
153
93
15
19
138
98
135
29
109
23
11
49
112
136
39
148
72
102
129
90
96
141
54
60
61
132
106
26
59
4
44
174
157
48
182
143
81
2
139
150
58
118
43
186
83
140
20
167
42
181
38
161
40
9
50
25
56
75
169
73
154
146
51
89
35
113
69
165
110
13
163
41
17
175
176
147
128
178
6
87
3
125
160
37
10
145
117
68
78
55
105
168
158
156
116
151
30
47
166
14
121
31
122
79
8
80
45
180
52
33
130
164
18
5
134
74
126
192
94
36
183
185
115
95
82
62
172
65
177
104
155
92
114
85
66
120
21
71
127
7
67
170
107
187
24
111
53
76
123
190
149
88
32
171
133
28
142
63
97
124
179
162
152
12
77
131

> <PUBCHEM_MMFF94_PARTIAL_CHARGES>
34
1 -0.08
11 0.18
12 -0.18
14 -0.15
15 -0.3
16 -0.15
17 0.57
18 -0.15
19 -0.15
2 -0.57
22 0.46
23 0.48
24 -0.2
25 -0.14
26 -0.2
27 -0.15
28 -0.15
29 -0.11
3 -0.9
30 0.2
37 0.36
39 0.15
4 0.05
40 0.15
41 0.15
42 0.15
5 -0.73
51 0.37
54 0.15
55 0.15
56 0.15
6 0.41
7 -0.14
8 0.33

> <PUBCHEM_EFFECTIVE_ROTOR_COUNT>
7.8

> <PUBCHEM_PHARMACOPHORE_FEATURES>
11
1 2 acceptor
1 3 cation
1 3 donor
1 30 hydrophobe
1 4 cation
1 5 donor
3 13 20 21 hydrophobe
5 1 25 27 28 29 rings
5 4 9 12 14 15 rings
6 7 9 14 16 18 19 rings
7 3 6 7 8 9 11 12 rings

> <PUBCHEM_HEAVY_ATOM_COUNT>
30

> <PUBCHEM_ATOM_DEF_STEREO_COUNT>
2

> <PUBCHEM_ATOM_UDEF_STEREO_COUNT>
0

> <PUBCHEM_BOND_DEF_STEREO_COUNT>
0

> <PUBCHEM_BOND_UDEF_STEREO_COUNT>
0

> <PUBCHEM_ISOTOPIC_ATOM_COUNT>
0

> <PUBCHEM_COMPONENT_COUNT>
1

> <PUBCHEM_CACTVS_TAUTO_COUNT>
2

> <PUBCHEM_CONFORMER_ID>
030C4E2400000001

> <PUBCHEM_MMFF94_ENERGY>
54.5698

> <PUBCHEM_FEATURE_SELFOVERLAP>
55.951

> <PUBCHEM_SHAPE_FINGERPRINT>
10 15 17967535696662926116
10074138 170 18189333635729403891
10319688 67 18341322379316502416
10554248 39 15338578080323790108
1100329 8 18338245980479547653
11007060 377 18273493481725211801
11135609 201 18130497609102178888
11136131 41 18187642445344676371
11578080 2 18130779110043781482
12596602 18 18059019376072132889
12838862 33 18409160018680378981
13140716 1 18262789680463295338
13540713 5 17825113864004918620
13782708 43 12829482666950414176
14178342 30 18334568092978604404
14294032 229 18187083966351340484
14394314 77 18341057342150733377
14790565 3 18337115570941024511
16112460 7 18409167675467559139
20028762 73 18269554936738517647
20511986 3 18408598154630828395
21033648 29 17774709983598232032
21197605 99 18261688008245527699
22149856 69 18189072914625783841
350125 39 18261960652151889879
354706 109 18041549236256042041
4340502 62 18410857646847199524
4403749 210 18407754833908516789
5104073 3 18117561725836727009

> <PUBCHEM_SHAPE_MULTIPOLES>
600.42
16.88
4.3
1.51
1.22
4.97
0.48
-14.29
8.43
1.73
0.6
-0.95
-1.07
0.56

> <PUBCHEM_SHAPE_SELFOVERLAP>
1267.497

> <PUBCHEM_SHAPE_VOLUME>
339.5

> <PUBCHEM_COORDINATE_TYPE>
2
5
10

$$$$
