11943354
  -OEChem-12032416383D

 46 48  0     1  0  0  0  0  0999 V2000
   -3.8411   -0.0857    0.7140 O   0  0  0  0  0  0  0  0  0  0  0  0
   -5.8935   -1.8578   -0.8023 O   0  0  0  0  0  0  0  0  0  0  0  0
    2.8642   -1.1291    1.1048 N   0  0  2  0  0  0  0  0  0  0  0  0
   -0.6739   -0.0464    0.4361 N   0  0  0  0  0  0  0  0  0  0  0  0
    3.3486   -0.5052   -1.3737 C   0  0  2  0  0  0  0  0  0  0  0  0
    4.1011    0.4400   -0.4097 C   0  0  2  0  0  0  0  0  0  0  0  0
    1.5856   -0.9620    0.3623 C   0  0  2  0  0  0  0  0  0  0  0  0
    1.8398   -0.4461   -1.0716 C   0  0  0  0  0  0  0  0  0  0  0  0
    3.6649    0.1172    1.0372 C   0  0  0  0  0  0  0  0  0  0  0  0
    3.8215   -1.9369   -1.0567 C   0  0  0  0  0  0  0  0  0  0  0  0
    3.6365   -2.2108    0.4465 C   0  0  0  0  0  0  0  0  0  0  0  0
    3.9057    1.9180   -0.7403 C   0  0  0  0  0  0  0  0  0  0  0  0
    0.5850   -0.0815    1.1140 C   0  0  0  0  0  0  0  0  0  0  0  0
    4.7426    2.8023    0.1637 C   0  0  0  0  0  0  0  0  0  0  0  0
   -1.6472    0.8002    1.1331 C   0  0  0  0  0  0  0  0  0  0  0  0
   -2.9483    0.8618    0.3804 C   0  0  0  0  0  0  0  0  0  0  0  0
   -3.4007    1.6980   -0.5809 C   0  0  0  0  0  0  0  0  0  0  0  0
   -4.9244    0.1502   -0.0714 C   0  0  0  0  0  0  0  0  0  0  0  0
   -4.7035    1.2367   -0.8856 C   0  0  0  0  0  0  0  0  0  0  0  0
   -6.0631   -0.7629    0.1001 C   0  0  0  0  0  0  0  0  0  0  0  0
    3.5488   -0.2555   -2.4208 H   0  0  0  0  0  0  0  0  0  0  0  0
    5.1745    0.2192   -0.5025 H   0  0  0  0  0  0  0  0  0  0  0  0
    1.1245   -1.9587    0.2884 H   0  0  0  0  0  0  0  0  0  0  0  0
    1.4693    0.5741   -1.2170 H   0  0  0  0  0  0  0  0  0  0  0  0
    1.3001   -1.0807   -1.7860 H   0  0  0  0  0  0  0  0  0  0  0  0
    4.5580    0.0003    1.6654 H   0  0  0  0  0  0  0  0  0  0  0  0
    3.1050    0.9371    1.4975 H   0  0  0  0  0  0  0  0  0  0  0  0
    4.8759   -2.0602   -1.3304 H   0  0  0  0  0  0  0  0  0  0  0  0
    3.2458   -2.6608   -1.6460 H   0  0  0  0  0  0  0  0  0  0  0  0
    3.1302   -3.1733    0.5908 H   0  0  0  0  0  0  0  0  0  0  0  0
    4.6137   -2.3186    0.9343 H   0  0  0  0  0  0  0  0  0  0  0  0
    2.8554    2.2135   -0.6449 H   0  0  0  0  0  0  0  0  0  0  0  0
    4.1951    2.0999   -1.7821 H   0  0  0  0  0  0  0  0  0  0  0  0
    0.9742    0.9385    1.2091 H   0  0  0  0  0  0  0  0  0  0  0  0
    0.4580   -0.4753    2.1308 H   0  0  0  0  0  0  0  0  0  0  0  0
    4.4241    2.7507    1.2085 H   0  0  0  0  0  0  0  0  0  0  0  0
    5.8019    2.5298    0.1132 H   0  0  0  0  0  0  0  0  0  0  0  0
    4.6531    3.8472   -0.1519 H   0  0  0  0  0  0  0  0  0  0  0  0
   -1.0495   -0.9906    0.3467 H   0  0  0  0  0  0  0  0  0  0  0  0
   -1.2570    1.8207    1.2319 H   0  0  0  0  0  0  0  0  0  0  0  0
   -1.8333    0.4171    2.1441 H   0  0  0  0  0  0  0  0  0  0  0  0
   -2.8797    2.5360   -1.0207 H   0  0  0  0  0  0  0  0  0  0  0  0
   -5.3934    1.6465   -1.6093 H   0  0  0  0  0  0  0  0  0  0  0  0
   -6.1068   -1.1630    1.1174 H   0  0  0  0  0  0  0  0  0  0  0  0
   -7.0166   -0.2723   -0.1178 H   0  0  0  0  0  0  0  0  0  0  0  0
   -5.9749   -1.5087   -1.7067 H   0  0  0  0  0  0  0  0  0  0  0  0
  1 16  1  0  0  0  0
  1 18  1  0  0  0  0
  2 20  1  0  0  0  0
  2 46  1  0  0  0  0
  3  7  1  0  0  0  0
  3  9  1  0  0  0  0
  3 11  1  0  0  0  0
  4 13  1  0  0  0  0
  4 15  1  0  0  0  0
  4 39  1  0  0  0  0
  5  6  1  0  0  0  0
  5  8  1  0  0  0  0
  5 10  1  0  0  0  0
  5 21  1  0  0  0  0
  6  9  1  0  0  0  0
  6 12  1  0  0  0  0
  6 22  1  0  0  0  0
  7  8  1  0  0  0  0
  7 13  1  0  0  0  0
  7 23  1  0  0  0  0
  8 24  1  0  0  0  0
  8 25  1  0  0  0  0
  9 26  1  0  0  0  0
  9 27  1  0  0  0  0
 10 11  1  0  0  0  0
 10 28  1  0  0  0  0
 10 29  1  0  0  0  0
 11 30  1  0  0  0  0
 11 31  1  0  0  0  0
 12 14  1  0  0  0  0
 12 32  1  0  0  0  0
 12 33  1  0  0  0  0
 13 34  1  0  0  0  0
 13 35  1  0  0  0  0
 14 36  1  0  0  0  0
 14 37  1  0  0  0  0
 14 38  1  0  0  0  0
 15 16  1  0  0  0  0
 15 40  1  0  0  0  0
 15 41  1  0  0  0  0
 16 17  2  0  0  0  0
 17 19  1  0  0  0  0
 17 42  1  0  0  0  0
 18 19  2  0  0  0  0
 18 20  1  0  0  0  0
 19 43  1  0  0  0  0
 20 44  1  0  0  0  0
 20 45  1  0  0  0  0
M  END
> <PUBCHEM_COMPOUND_CID>
11943354

> <PUBCHEM_CONFORMER_RMSD>
0.8

> <PUBCHEM_CONFORMER_DIVERSEORDER>
1
6
25
44
30
40
13
33
41
2
43
9
5
23
4
12
8
27
32
3
37
24
21
39
28
11
14
34
19
17
35
38
29
26
31
36
22
15
7
42
20
16
18
10

> <PUBCHEM_MMFF94_PARTIAL_CHARGES>
18
1 -0.28
11 0.27
13 0.27
15 0.45
16 -0.04
17 -0.15
18 -0.04
19 -0.15
2 -0.68
20 0.46
3 -0.81
39 0.36
4 -0.9
42 0.15
43 0.15
46 0.4
7 0.27
9 0.27

> <PUBCHEM_EFFECTIVE_ROTOR_COUNT>
7.2

> <PUBCHEM_PHARMACOPHORE_FEATURES>
9
1 1 acceptor
1 14 hydrophobe
1 2 acceptor
1 2 donor
1 3 cation
1 4 cation
1 4 donor
5 1 16 17 18 19 rings
8 3 5 6 7 8 9 10 11 rings

> <PUBCHEM_HEAVY_ATOM_COUNT>
20

> <PUBCHEM_ATOM_DEF_STEREO_COUNT>
3

> <PUBCHEM_ATOM_UDEF_STEREO_COUNT>
0

> <PUBCHEM_BOND_DEF_STEREO_COUNT>
0

> <PUBCHEM_BOND_UDEF_STEREO_COUNT>
0

> <PUBCHEM_ISOTOPIC_ATOM_COUNT>
0

> <PUBCHEM_COMPONENT_COUNT>
1

> <PUBCHEM_CACTVS_TAUTO_COUNT>
1

> <PUBCHEM_CONFORMER_ID>
00B63DBA00000001

> <PUBCHEM_MMFF94_ENERGY>
31.1301

> <PUBCHEM_FEATURE_SELFOVERLAP>
45.67

> <PUBCHEM_SHAPE_FINGERPRINT>
10595046 47 18410573994195313257
11089746 13 17748825198614141794
11128504 68 18343868826818943917
11287383 113 18411419514241684113
11543360 7 18410013217357979529
11552529 35 8933840397756987497
12553582 1 15841548557346974041
12616999 72 17346604062654581364
12670546 177 18412829096690922317
128620 24 18272653432939161617
13167823 11 18410008797942419087
13914758 101 14117514300226650849
14251757 5 17916021446465986471
14251758 9 10951783958090590859
14251764 38 18040438776023990292
14252887 29 11887664053512925754
14341114 176 10879994674828244363
14461889 52 18262237857836176346
14528608 73 18260268546769556485
14863182 85 15840991049692072022
15142383 8 9222962447699766258
15537594 2 16128654154752218693
15961568 22 17894915165445898092
17834072 33 18408040715056929735
17844677 252 18338521837528083289
1813 80 15626220217390749145
20281389 69 9007063470357984911
20645477 70 18271251534339481310
20775530 9 11382184421951870332
21196832 93 17899415574487729443
212847 35 11891336451934583078
21315759 148 11311760822234740677
21315763 191 17703516497861206291
21774942 28 14852979852285461935
22393880 68 18114462241269987655
22950370 63 17704358766801976473
23559900 14 18337390431525869562
239999 70 18342460309743362246
3004659 81 18201439121301661990
312423 11 17774734047466340360
341906 21 15936418852718233224
34797466 226 18411987966185498221
4072396 5 13912313599162142025
4325135 7 18412261778824410789
474 4 18188779469437880412
495365 180 17894633634791990690
5104073 3 17968099681597763529
5281201 14 18339366258015457476
5312625 73 18341895259302974385
6327066 14 18048603917798777668
7495541 125 17988918985471276859
8509985 295 13406792242008603292
90127 26 18260557684073476921
9841814 1 15410603766728026882
9971528 1 16805326557032029294

> <PUBCHEM_SHAPE_MULTIPOLES>
389.89
14.38
2.26
1.23
17.88
0.54
0.04
-0.16
2.53
-2.57
0.29
-0.58
-0.13
0.04

> <PUBCHEM_SHAPE_SELFOVERLAP>
811.701

> <PUBCHEM_SHAPE_VOLUME>
220.6

> <PUBCHEM_COORDINATE_TYPE>
2
5
10

$$$$
