28962146
  -OEChem-12032416143D

 53 54  0     1  0  0  0  0  0999 V2000
   -2.8561    0.8489   -0.7300 O   0  0  0  0  0  0  0  0  0  0  0  0
   -2.1697    2.9050    1.3364 O   0  0  0  0  0  0  0  0  0  0  0  0
   -5.3647    2.0261   -1.2051 O   0  0  0  0  0  0  0  0  0  0  0  0
   -0.4134   -2.7959    0.1052 O   0  0  0  0  0  0  0  0  0  0  0  0
   -1.9479   -4.9978   -0.1065 O   0  0  0  0  0  0  0  0  0  0  0  0
    0.4129    1.9861    0.4953 N   0  0  1  0  0  0  0  0  0  0  0  0
   -2.2122   -1.4709    0.7566 N   0  0  0  0  0  0  0  0  0  0  0  0
   -0.7523    1.9022   -0.3676 C   0  0  1  0  0  0  0  0  0  0  0  0
   -1.4827    0.5533   -0.3916 C   0  0  1  0  0  0  0  0  0  0  0  0
   -1.8656    2.8893   -0.0523 C   0  0  1  0  0  0  0  0  0  0  0  0
   -3.0166    2.2763   -0.8411 C   0  0  2  0  0  0  0  0  0  0  0  0
   -1.4986   -0.2387    0.9111 C   0  0  0  0  0  0  0  0  0  0  0  0
   -4.4079    2.6616   -0.3726 C   0  0  0  0  0  0  0  0  0  0  0  0
    1.5651    1.3168   -0.1168 C   0  0  0  0  0  0  0  0  0  0  0  0
    0.7432    3.3835    0.7921 C   0  0  0  0  0  0  0  0  0  0  0  0
    2.6369    1.0060    0.9283 C   0  0  0  0  0  0  0  0  0  0  0  0
    3.8376    0.3370    0.3079 C   0  0  0  0  0  0  0  0  0  0  0  0
   -1.6067   -2.6616    0.3624 C   0  0  0  0  0  0  0  0  0  0  0  0
    3.8901   -1.0538    0.2148 C   0  0  0  0  0  0  0  0  0  0  0  0
    4.8954    1.1086   -0.1728 C   0  0  0  0  0  0  0  0  0  0  0  0
   -2.5956   -3.8050    0.2820 C   0  0  0  0  0  0  0  0  0  0  0  0
    5.0006   -1.6730   -0.3591 C   0  0  0  0  0  0  0  0  0  0  0  0
    6.0058    0.4895   -0.7467 C   0  0  0  0  0  0  0  0  0  0  0  0
    6.0585   -0.9013   -0.8398 C   0  0  0  0  0  0  0  0  0  0  0  0
   -2.8560   -6.0923   -0.1904 C   0  0  0  0  0  0  0  0  0  0  0  0
   -0.4504    2.1247   -1.4042 H   0  0  0  0  0  0  0  0  0  0  0  0
   -1.0765   -0.0761   -1.1930 H   0  0  0  0  0  0  0  0  0  0  0  0
   -1.6530    3.9133   -0.3777 H   0  0  0  0  0  0  0  0  0  0  0  0
   -2.9084    2.5053   -1.9091 H   0  0  0  0  0  0  0  0  0  0  0  0
   -2.0137    0.3129    1.7038 H   0  0  0  0  0  0  0  0  0  0  0  0
   -0.4827   -0.4645    1.2497 H   0  0  0  0  0  0  0  0  0  0  0  0
   -4.5551    3.7445   -0.4265 H   0  0  0  0  0  0  0  0  0  0  0  0
   -4.5945    2.3169    0.6495 H   0  0  0  0  0  0  0  0  0  0  0  0
    1.2555    0.3619   -0.5620 H   0  0  0  0  0  0  0  0  0  0  0  0
    1.9796    1.9151   -0.9399 H   0  0  0  0  0  0  0  0  0  0  0  0
    1.6592    3.4733    1.3832 H   0  0  0  0  0  0  0  0  0  0  0  0
   -0.0107    3.8759    1.4119 H   0  0  0  0  0  0  0  0  0  0  0  0
    0.8870    3.9741   -0.1209 H   0  0  0  0  0  0  0  0  0  0  0  0
   -2.8065    3.6235    1.4901 H   0  0  0  0  0  0  0  0  0  0  0  0
    2.2222    0.3559    1.7103 H   0  0  0  0  0  0  0  0  0  0  0  0
    2.9874    1.9034    1.4490 H   0  0  0  0  0  0  0  0  0  0  0  0
   -3.2125   -1.4646    0.9354 H   0  0  0  0  0  0  0  0  0  0  0  0
   -6.2438    2.2925   -0.8861 H   0  0  0  0  0  0  0  0  0  0  0  0
    3.0710   -1.6655    0.5836 H   0  0  0  0  0  0  0  0  0  0  0  0
    4.8650    2.1930   -0.1079 H   0  0  0  0  0  0  0  0  0  0  0  0
   -3.0570   -3.9344    1.2680 H   0  0  0  0  0  0  0  0  0  0  0  0
   -3.3680   -3.5432   -0.4505 H   0  0  0  0  0  0  0  0  0  0  0  0
    5.0413   -2.7559   -0.4322 H   0  0  0  0  0  0  0  0  0  0  0  0
    6.8293    1.0903   -1.1217 H   0  0  0  0  0  0  0  0  0  0  0  0
    6.9230   -1.3833   -1.2869 H   0  0  0  0  0  0  0  0  0  0  0  0
   -2.2959   -6.9806   -0.4941 H   0  0  0  0  0  0  0  0  0  0  0  0
   -3.6281   -5.8914   -0.9393 H   0  0  0  0  0  0  0  0  0  0  0  0
   -3.3151   -6.2832    0.7844 H   0  0  0  0  0  0  0  0  0  0  0  0
  1  9  1  0  0  0  0
  1 11  1  0  0  0  0
  2 10  1  0  0  0  0
  2 39  1  0  0  0  0
  3 13  1  0  0  0  0
  3 43  1  0  0  0  0
  4 18  2  0  0  0  0
  5 21  1  0  0  0  0
  5 25  1  0  0  0  0
  6  8  1  0  0  0  0
  6 14  1  0  0  0  0
  6 15  1  0  0  0  0
  7 12  1  0  0  0  0
  7 18  1  0  0  0  0
  7 42  1  0  0  0  0
  8  9  1  0  0  0  0
  8 10  1  0  0  0  0
  8 26  1  0  0  0  0
  9 12  1  0  0  0  0
  9 27  1  0  0  0  0
 10 11  1  0  0  0  0
 10 28  1  0  0  0  0
 11 13  1  0  0  0  0
 11 29  1  0  0  0  0
 12 30  1  0  0  0  0
 12 31  1  0  0  0  0
 13 32  1  0  0  0  0
 13 33  1  0  0  0  0
 14 16  1  0  0  0  0
 14 34  1  0  0  0  0
 14 35  1  0  0  0  0
 15 36  1  0  0  0  0
 15 37  1  0  0  0  0
 15 38  1  0  0  0  0
 16 17  1  0  0  0  0
 16 40  1  0  0  0  0
 16 41  1  0  0  0  0
 17 19  2  0  0  0  0
 17 20  1  0  0  0  0
 18 21  1  0  0  0  0
 19 22  1  0  0  0  0
 19 44  1  0  0  0  0
 20 23  2  0  0  0  0
 20 45  1  0  0  0  0
 21 46  1  0  0  0  0
 21 47  1  0  0  0  0
 22 24  2  0  0  0  0
 22 48  1  0  0  0  0
 23 24  1  0  0  0  0
 23 49  1  0  0  0  0
 24 50  1  0  0  0  0
 25 51  1  0  0  0  0
 25 52  1  0  0  0  0
 25 53  1  0  0  0  0
M  END
> <PUBCHEM_COMPOUND_CID>
28962146

> <PUBCHEM_CONFORMER_RMSD>
1

> <PUBCHEM_CONFORMER_DIVERSEORDER>
1
10
39
43
33
37
7
15
45
35
34
17
28
25
38
5
23
21
41
22
30
42
18
31
4
44
36
26
2
9
8
14
13
16
29
27
11
19
32
24
46
20
3
6
12
40

> <PUBCHEM_MMFF94_PARTIAL_CHARGES>
33
1 -0.56
10 0.28
11 0.28
12 0.3
13 0.28
14 0.27
15 0.27
16 0.14
17 -0.14
18 0.57
19 -0.15
2 -0.68
20 -0.15
21 0.34
22 -0.15
23 -0.15
24 -0.15
25 0.28
3 -0.68
39 0.4
4 -0.57
42 0.37
43 0.4
44 0.15
45 0.15
48 0.15
49 0.15
5 -0.56
50 0.15
6 -0.81
7 -0.73
8 0.27
9 0.28

> <PUBCHEM_EFFECTIVE_ROTOR_COUNT>
11

> <PUBCHEM_PHARMACOPHORE_FEATURES>
11
1 1 acceptor
1 2 acceptor
1 2 donor
1 3 acceptor
1 3 donor
1 4 acceptor
1 5 acceptor
1 6 cation
1 7 donor
5 1 8 9 10 11 rings
6 17 19 20 22 23 24 rings

> <PUBCHEM_HEAVY_ATOM_COUNT>
25

> <PUBCHEM_ATOM_DEF_STEREO_COUNT>
4

> <PUBCHEM_ATOM_UDEF_STEREO_COUNT>
0

> <PUBCHEM_BOND_DEF_STEREO_COUNT>
0

> <PUBCHEM_BOND_UDEF_STEREO_COUNT>
0

> <PUBCHEM_ISOTOPIC_ATOM_COUNT>
0

> <PUBCHEM_COMPONENT_COUNT>
1

> <PUBCHEM_CACTVS_TAUTO_COUNT>
2

> <PUBCHEM_CONFORMER_ID>
01B9ED6200000001

> <PUBCHEM_MMFF94_ENERGY>
62.0804

> <PUBCHEM_FEATURE_SELFOVERLAP>
55.834

> <PUBCHEM_SHAPE_FINGERPRINT>
10366900 7 17845651448479390928
11552529 35 18410014360151570078
12107183 9 18053684730797005531
12293681 25 17764843060132968317
12643181 29 18337676296618779854
12788726 201 18188482596412739426
13631057 29 18266748076931276332
13785724 45 17833844041906110363
138480 1 16752968633508675754
13989917 61 17042046239553421274
14251757 5 18409451396880723650
14790565 3 18122628257995173161
14866123 147 18411419531696360195
15840311 113 12469754189898805357
15927050 60 18197210353211879717
19930381 70 17473260972707319179
19958102 18 18262506014150827020
20775530 9 18052256490418774970
21344244 181 18269557143802671991
22849339 104 18339096916479601134
23559900 14 18412538817591242712
3383291 50 18340200795835987363
3421961 26 17692253358048914650
5309563 4 17907014328715513686
56633871 153 18124330547266958179
59025328 239 16836253886434006783
613672 6 17763440108691897718
9709674 26 18341321297206523192

> <PUBCHEM_SHAPE_MULTIPOLES>
475.18
11.5
6.71
0.96
16.11
11.96
-0.04
0.32
3.76
-11.81
-0.1
-0.19
-0.43
1.2

> <PUBCHEM_SHAPE_SELFOVERLAP>
968.357

> <PUBCHEM_SHAPE_VOLUME>
275.6

> <PUBCHEM_COORDINATE_TYPE>
2
5
10

$$$$
