11865858
  -OEChem-12032416203D

 69 71  0     1  0  0  0  0  0999 V2000
   -2.3766    0.0818   -1.9779 O   0  0  0  0  0  0  0  0  0  0  0  0
   -3.1198   -4.0633   -1.0973 O   0  0  0  0  0  0  0  0  0  0  0  0
    3.3054   -0.6873   -1.1165 O   0  0  0  0  0  0  0  0  0  0  0  0
   -3.9498    1.5337    1.3807 O   0  0  0  0  0  0  0  0  0  0  0  0
   -1.5909   -2.3262   -1.1053 N   0  0  0  0  0  0  0  0  0  0  0  0
    1.4223   -1.8400   -0.3978 N   0  0  0  0  0  0  0  0  0  0  0  0
   -1.6253    1.0839   -0.0156 N   0  0  0  0  0  0  0  0  0  0  0  0
    3.4920   -2.4104    0.4262 N   0  0  0  0  0  0  0  0  0  0  0  0
    1.6175    4.3541   -1.1938 N   0  0  0  0  0  0  0  0  0  0  0  0
   -4.6133    2.9937   -0.2638 N   0  0  0  0  0  0  0  0  0  0  0  0
    0.4525   -1.1161   -1.1854 C   0  0  2  0  0  0  0  0  0  0  0  0
   -0.9312   -1.1506   -0.5302 C   0  0  1  0  0  0  0  0  0  0  0  0
    0.2229   -1.7981   -2.5352 C   0  0  0  0  0  0  0  0  0  0  0  0
   -0.8254   -2.8571   -2.2270 C   0  0  0  0  0  0  0  0  0  0  0  0
   -1.7315    0.0527   -0.9331 C   0  0  0  0  0  0  0  0  0  0  0  0
   -2.7018   -3.0026   -0.6320 C   0  0  0  0  0  0  0  0  0  0  0  0
   -2.2820    2.3603   -0.1815 C   0  0  2  0  0  0  0  0  0  0  0  0
    2.7874   -1.5647   -0.4269 C   0  0  0  0  0  0  0  0  0  0  0  0
   -1.5237    3.4985    0.5132 C   0  0  0  0  0  0  0  0  0  0  0  0
   -3.4250   -2.3997    0.5048 C   0  0  0  0  0  0  0  0  0  0  0  0
   -0.1206    3.6681    0.0044 C   0  0  0  0  0  0  0  0  0  0  0  0
   -3.6820    2.2221    0.3987 C   0  0  0  0  0  0  0  0  0  0  0  0
    4.9252   -2.3410    0.5887 C   0  0  0  0  0  0  0  0  0  0  0  0
   -3.1608   -2.6453    1.7992 C   0  0  0  0  0  0  0  0  0  0  0  0
    1.0469    3.0298    0.5086 C   0  0  0  0  0  0  0  0  0  0  0  0
    0.2624    4.4758   -1.0416 C   0  0  0  0  0  0  0  0  0  0  0  0
    2.1234    3.4775   -0.2605 C   0  0  0  0  0  0  0  0  0  0  0  0
    5.3223   -2.7365    2.0056 C   0  0  0  0  0  0  0  0  0  0  0  0
    5.6182   -3.2197   -0.4444 C   0  0  0  0  0  0  0  0  0  0  0  0
   -3.8738   -2.0518    2.9825 C   0  0  0  0  0  0  0  0  0  0  0  0
   -2.0538   -3.5994    2.1679 C   0  0  0  0  0  0  0  0  0  0  0  0
    1.2921    2.1113    1.5487 C   0  0  0  0  0  0  0  0  0  0  0  0
    3.4378    3.0508   -0.0405 C   0  0  0  0  0  0  0  0  0  0  0  0
    2.6020    1.6759    1.7803 C   0  0  0  0  0  0  0  0  0  0  0  0
    3.6568    2.1397    0.9967 C   0  0  0  0  0  0  0  0  0  0  0  0
    0.8243   -0.0950   -1.3293 H   0  0  0  0  0  0  0  0  0  0  0  0
   -0.8886   -1.2407    0.5600 H   0  0  0  0  0  0  0  0  0  0  0  0
   -0.1884   -1.0746   -3.2493 H   0  0  0  0  0  0  0  0  0  0  0  0
    1.1267   -2.2287   -2.9771 H   0  0  0  0  0  0  0  0  0  0  0  0
   -0.3634   -3.7966   -1.9030 H   0  0  0  0  0  0  0  0  0  0  0  0
   -1.4839   -3.0665   -3.0754 H   0  0  0  0  0  0  0  0  0  0  0  0
    1.1037   -2.6298    0.1557 H   0  0  0  0  0  0  0  0  0  0  0  0
   -1.1459    0.9090    0.8618 H   0  0  0  0  0  0  0  0  0  0  0  0
   -2.3562    2.5628   -1.2577 H   0  0  0  0  0  0  0  0  0  0  0  0
   -1.4954    3.3250    1.5973 H   0  0  0  0  0  0  0  0  0  0  0  0
   -2.0716    4.4406    0.3789 H   0  0  0  0  0  0  0  0  0  0  0  0
   -4.2186   -1.7093    0.2337 H   0  0  0  0  0  0  0  0  0  0  0  0
    2.9842   -3.1519    0.8991 H   0  0  0  0  0  0  0  0  0  0  0  0
    5.2373   -1.3030    0.4212 H   0  0  0  0  0  0  0  0  0  0  0  0
   -0.3064    5.1254   -1.6921 H   0  0  0  0  0  0  0  0  0  0  0  0
    2.1677    4.8372   -1.8904 H   0  0  0  0  0  0  0  0  0  0  0  0
    4.8337   -2.0870    2.7402 H   0  0  0  0  0  0  0  0  0  0  0  0
    5.0266   -3.7676    2.2290 H   0  0  0  0  0  0  0  0  0  0  0  0
    6.4049   -2.6534    2.1468 H   0  0  0  0  0  0  0  0  0  0  0  0
    6.7067   -3.1585   -0.3435 H   0  0  0  0  0  0  0  0  0  0  0  0
    5.3562   -2.9102   -1.4620 H   0  0  0  0  0  0  0  0  0  0  0  0
    5.3235   -4.2694   -0.3343 H   0  0  0  0  0  0  0  0  0  0  0  0
    0.4863    1.7443    2.1773 H   0  0  0  0  0  0  0  0  0  0  0  0
   -3.1738   -1.4874    3.6068 H   0  0  0  0  0  0  0  0  0  0  0  0
   -4.6675   -1.3672    2.6656 H   0  0  0  0  0  0  0  0  0  0  0  0
   -4.3316   -2.8394    3.5890 H   0  0  0  0  0  0  0  0  0  0  0  0
   -2.4554   -4.4181    2.7750 H   0  0  0  0  0  0  0  0  0  0  0  0
   -1.5416   -4.0543    1.3162 H   0  0  0  0  0  0  0  0  0  0  0  0
   -1.2946   -3.0764    2.7597 H   0  0  0  0  0  0  0  0  0  0  0  0
   -4.3729    3.5753   -1.0600 H   0  0  0  0  0  0  0  0  0  0  0  0
   -5.5842    3.0046    0.0306 H   0  0  0  0  0  0  0  0  0  0  0  0
    4.2596    3.4103   -0.6506 H   0  0  0  0  0  0  0  0  0  0  0  0
    2.7973    0.9671    2.5807 H   0  0  0  0  0  0  0  0  0  0  0  0
    4.6659    1.7862    1.1929 H   0  0  0  0  0  0  0  0  0  0  0  0
  1 15  2  0  0  0  0
  2 16  2  0  0  0  0
  3 18  2  0  0  0  0
  4 22  2  0  0  0  0
  5 12  1  0  0  0  0
  5 14  1  0  0  0  0
  5 16  1  0  0  0  0
  6 11  1  0  0  0  0
  6 18  1  0  0  0  0
  6 42  1  0  0  0  0
  7 15  1  0  0  0  0
  7 17  1  0  0  0  0
  7 43  1  0  0  0  0
  8 18  1  0  0  0  0
  8 23  1  0  0  0  0
  8 48  1  0  0  0  0
  9 26  1  0  0  0  0
  9 27  1  0  0  0  0
  9 51  1  0  0  0  0
 10 22  1  0  0  0  0
 10 65  1  0  0  0  0
 10 66  1  0  0  0  0
 11 12  1  0  0  0  0
 11 13  1  0  0  0  0
 11 36  1  0  0  0  0
 12 15  1  0  0  0  0
 12 37  1  0  0  0  0
 13 14  1  0  0  0  0
 13 38  1  0  0  0  0
 13 39  1  0  0  0  0
 14 40  1  0  0  0  0
 14 41  1  0  0  0  0
 16 20  1  0  0  0  0
 17 19  1  0  0  0  0
 17 22  1  0  0  0  0
 17 44  1  0  0  0  0
 19 21  1  0  0  0  0
 19 45  1  0  0  0  0
 19 46  1  0  0  0  0
 20 24  2  0  0  0  0
 20 47  1  0  0  0  0
 21 25  1  0  0  0  0
 21 26  2  0  0  0  0
 23 28  1  0  0  0  0
 23 29  1  0  0  0  0
 23 49  1  0  0  0  0
 24 30  1  0  0  0  0
 24 31  1  0  0  0  0
 25 27  1  0  0  0  0
 25 32  2  0  0  0  0
 26 50  1  0  0  0  0
 27 33  2  0  0  0  0
 28 52  1  0  0  0  0
 28 53  1  0  0  0  0
 28 54  1  0  0  0  0
 29 55  1  0  0  0  0
 29 56  1  0  0  0  0
 29 57  1  0  0  0  0
 30 59  1  0  0  0  0
 30 60  1  0  0  0  0
 30 61  1  0  0  0  0
 31 62  1  0  0  0  0
 31 63  1  0  0  0  0
 31 64  1  0  0  0  0
 32 34  1  0  0  0  0
 32 58  1  0  0  0  0
 33 35  1  0  0  0  0
 33 67  1  0  0  0  0
 34 35  2  0  0  0  0
 34 68  1  0  0  0  0
 35 69  1  0  0  0  0
M  END
> <PUBCHEM_COMPOUND_CID>
11865858

> <PUBCHEM_CONFORMER_RMSD>
1.2

> <PUBCHEM_CONFORMER_DIVERSEORDER>
1
52
48
38
11
91
57
81
104
79
53
61
68
35
45
59
56
41
40
93
36
103
105
100
80
87
26
75
74
73
37
69
106
22
67
43
82
62
77
6
63
23
83
28
7
65
64
90
85
60
97
54
9
71
32
14
107
20
42
19
94
78
89
86
24
76
46
88
31
44
102
3
5
34
55
99
15
50
16
27
101
29
95
66
58
25
17
49
21
47
2
96
51
72
4
33
30
92
98
10
13
84
18
8
39
12
70

> <PUBCHEM_MMFF94_PARTIAL_CHARGES>
43
1 -0.57
10 -0.8
11 0.3
12 0.36
14 0.3
15 0.57
16 0.62
17 0.36
18 0.69
19 0.18
2 -0.57
20 -0.14
21 -0.18
22 0.57
23 0.3
24 -0.28
26 -0.3
27 -0.15
3 -0.57
30 0.14
31 0.14
32 -0.15
33 -0.15
34 -0.15
35 -0.15
4 -0.57
42 0.37
43 0.37
47 0.15
48 0.37
5 -0.66
50 0.15
51 0.27
58 0.15
6 -0.73
65 0.37
66 0.37
67 0.15
68 0.15
69 0.15
7 -0.73
8 -0.73
9 0.03

> <PUBCHEM_EFFECTIVE_ROTOR_COUNT>
13

> <PUBCHEM_PHARMACOPHORE_FEATURES>
15
1 1 acceptor
1 10 donor
1 2 acceptor
1 3 acceptor
1 4 acceptor
1 6 donor
1 7 donor
1 8 donor
1 9 cation
1 9 donor
3 23 28 29 hydrophobe
3 24 30 31 hydrophobe
5 5 11 12 13 14 rings
5 9 21 25 26 27 rings
6 25 27 32 33 34 35 rings

> <PUBCHEM_HEAVY_ATOM_COUNT>
35

> <PUBCHEM_ATOM_DEF_STEREO_COUNT>
3

> <PUBCHEM_ATOM_UDEF_STEREO_COUNT>
0

> <PUBCHEM_BOND_DEF_STEREO_COUNT>
0

> <PUBCHEM_BOND_UDEF_STEREO_COUNT>
0

> <PUBCHEM_ISOTOPIC_ATOM_COUNT>
0

> <PUBCHEM_COMPONENT_COUNT>
1

> <PUBCHEM_CACTVS_TAUTO_COUNT>
12

> <PUBCHEM_CONFORMER_ID>
00B50F0200000001

> <PUBCHEM_MMFF94_ENERGY>
68.5526

> <PUBCHEM_FEATURE_SELFOVERLAP>
76.265

> <PUBCHEM_SHAPE_FINGERPRINT>
10721379 63 15971816757770189351
10838868 49 17753882823100217946
1100329 8 18341045199211985948
12156800 1 16668861946692543336
12422481 6 17842019932785735929
12608794 3 18054523404148463952
13140716 1 18343297042070334988
13402501 40 17768239125123487256
14020679 6 18262801744271900491
14725015 67 18049154467300270553
15420108 30 17483994771107527115
20101258 96 18411699872659318750
20764821 26 18411981377214873625
21033648 29 17129832008213367994
469060 322 17835820598534520080
57527358 35 15650196137981520277
57527585 103 18042106773912191331

> <PUBCHEM_SHAPE_MULTIPOLES>
666.92
8.87
7.51
2.22
5.47
3.4
0.47
-6.91
3.97
1.46
-0.12
-1.17
-1.98
0.19

> <PUBCHEM_SHAPE_SELFOVERLAP>
1400.813

> <PUBCHEM_SHAPE_VOLUME>
377

> <PUBCHEM_COORDINATE_TYPE>
2
5
10

$$$$
