51137958
  -OEChem-12032416343D

 54 57  0     1  0  0  0  0  0999 V2000
   -6.6026   -1.3763   -0.9678 F   0  0  0  0  0  0  0  0  0  0  0  0
   -0.9471    2.5695   -0.9045 O   0  0  0  0  0  0  0  0  0  0  0  0
    0.5763   -0.0569   -0.3888 N   0  0  0  0  0  0  0  0  0  0  0  0
    5.3556    1.5745   -0.4026 N   0  0  0  0  0  0  0  0  0  0  0  0
   -1.4704    1.6267    1.1586 N   0  0  0  0  0  0  0  0  0  0  0  0
    1.3592   -1.1127    0.2674 C   0  0  1  0  0  0  0  0  0  0  0  0
    0.7010    1.2599    0.2196 C   0  0  1  0  0  0  0  0  0  0  0  0
    0.8947   -2.4169   -0.4054 C   0  0  0  0  0  0  0  0  0  0  0  0
    2.8810   -0.9406    0.2269 C   0  0  0  0  0  0  0  0  0  0  0  0
    3.5615    0.2743   -0.0750 C   0  0  0  0  0  0  0  0  0  0  0  0
    1.7336    2.1185   -0.5081 C   0  0  0  0  0  0  0  0  0  0  0  0
    3.1312    1.6083   -0.3961 C   0  0  0  0  0  0  0  0  0  0  0  0
   -0.4742   -2.8918    0.0915 C   0  0  0  0  0  0  0  0  0  0  0  0
    4.9609    0.3015   -0.0650 C   0  0  0  0  0  0  0  0  0  0  0  0
    3.6982   -2.0416    0.5892 C   0  0  0  0  0  0  0  0  0  0  0  0
    4.2650    2.3692   -0.5978 C   0  0  0  0  0  0  0  0  0  0  0  0
   -0.6508    1.8893    0.0742 C   0  0  0  0  0  0  0  0  0  0  0  0
   -0.8257   -4.2174   -0.5881 C   0  0  0  0  0  0  0  0  0  0  0  0
   -1.5818   -1.8692   -0.1663 C   0  0  0  0  0  0  0  0  0  0  0  0
    5.7492   -0.8068    0.2492 C   0  0  0  0  0  0  0  0  0  0  0  0
    5.0904   -1.9809    0.5905 C   0  0  0  0  0  0  0  0  0  0  0  0
   -2.8173    2.1377    1.2738 C   0  0  0  0  0  0  0  0  0  0  0  0
   -3.8268    1.2006    0.6762 C   0  0  0  0  0  0  0  0  0  0  0  0
   -4.1768    1.3185   -0.6690 C   0  0  0  0  0  0  0  0  0  0  0  0
   -4.4145    0.2124    1.4658 C   0  0  0  0  0  0  0  0  0  0  0  0
   -5.1146    0.4483   -1.2244 C   0  0  0  0  0  0  0  0  0  0  0  0
   -5.3525   -0.6579    0.9104 C   0  0  0  0  0  0  0  0  0  0  0  0
   -5.7025   -0.5400   -0.4346 C   0  0  0  0  0  0  0  0  0  0  0  0
    1.0844   -1.1524    1.3305 H   0  0  0  0  0  0  0  0  0  0  0  0
    0.9510    1.1971    1.2872 H   0  0  0  0  0  0  0  0  0  0  0  0
    0.8870   -2.3034   -1.4997 H   0  0  0  0  0  0  0  0  0  0  0  0
    1.5903   -3.2414   -0.2246 H   0  0  0  0  0  0  0  0  0  0  0  0
    1.4898    2.2071   -1.5762 H   0  0  0  0  0  0  0  0  0  0  0  0
    1.6961    3.1400   -0.1046 H   0  0  0  0  0  0  0  0  0  0  0  0
    0.7772   -0.0221   -1.3875 H   0  0  0  0  0  0  0  0  0  0  0  0
   -0.4207   -3.0771    1.1719 H   0  0  0  0  0  0  0  0  0  0  0  0
    3.2518   -2.9779    0.9161 H   0  0  0  0  0  0  0  0  0  0  0  0
    4.3851    3.4114   -0.8596 H   0  0  0  0  0  0  0  0  0  0  0  0
    6.3162    1.8799   -0.4772 H   0  0  0  0  0  0  0  0  0  0  0  0
   -0.0609   -4.9754   -0.3880 H   0  0  0  0  0  0  0  0  0  0  0  0
   -1.7797   -4.6053   -0.2152 H   0  0  0  0  0  0  0  0  0  0  0  0
   -0.9105   -4.0980   -1.6737 H   0  0  0  0  0  0  0  0  0  0  0  0
   -2.5648   -2.3301   -0.0129 H   0  0  0  0  0  0  0  0  0  0  0  0
   -1.5310   -1.0438    0.5448 H   0  0  0  0  0  0  0  0  0  0  0  0
   -1.5636   -1.4873   -1.1920 H   0  0  0  0  0  0  0  0  0  0  0  0
    6.8325   -0.7512    0.2511 H   0  0  0  0  0  0  0  0  0  0  0  0
    5.6668   -2.8582    0.8720 H   0  0  0  0  0  0  0  0  0  0  0  0
   -1.1318    1.0285    1.9067 H   0  0  0  0  0  0  0  0  0  0  0  0
   -3.0205    2.2941    2.3392 H   0  0  0  0  0  0  0  0  0  0  0  0
   -2.8762    3.1202    0.7905 H   0  0  0  0  0  0  0  0  0  0  0  0
   -3.7288    2.0848   -1.2955 H   0  0  0  0  0  0  0  0  0  0  0  0
   -4.1480    0.1086    2.5142 H   0  0  0  0  0  0  0  0  0  0  0  0
   -5.3875    0.5397   -2.2715 H   0  0  0  0  0  0  0  0  0  0  0  0
   -5.8094   -1.4283    1.5245 H   0  0  0  0  0  0  0  0  0  0  0  0
  1 28  1  0  0  0  0
  2 17  2  0  0  0  0
  3  6  1  0  0  0  0
  3  7  1  0  0  0  0
  3 35  1  0  0  0  0
  4 14  1  0  0  0  0
  4 16  1  0  0  0  0
  4 39  1  0  0  0  0
  5 17  1  0  0  0  0
  5 22  1  0  0  0  0
  5 48  1  0  0  0  0
  6  8  1  0  0  0  0
  6  9  1  0  0  0  0
  6 29  1  0  0  0  0
  7 11  1  0  0  0  0
  7 17  1  0  0  0  0
  7 30  1  0  0  0  0
  8 13  1  0  0  0  0
  8 31  1  0  0  0  0
  8 32  1  0  0  0  0
  9 10  2  0  0  0  0
  9 15  1  0  0  0  0
 10 12  1  0  0  0  0
 10 14  1  0  0  0  0
 11 12  1  0  0  0  0
 11 33  1  0  0  0  0
 11 34  1  0  0  0  0
 12 16  2  0  0  0  0
 13 18  1  0  0  0  0
 13 19  1  0  0  0  0
 13 36  1  0  0  0  0
 14 20  2  0  0  0  0
 15 21  2  0  0  0  0
 15 37  1  0  0  0  0
 16 38  1  0  0  0  0
 18 40  1  0  0  0  0
 18 41  1  0  0  0  0
 18 42  1  0  0  0  0
 19 43  1  0  0  0  0
 19 44  1  0  0  0  0
 19 45  1  0  0  0  0
 20 21  1  0  0  0  0
 20 46  1  0  0  0  0
 21 47  1  0  0  0  0
 22 23  1  0  0  0  0
 22 49  1  0  0  0  0
 22 50  1  0  0  0  0
 23 24  2  0  0  0  0
 23 25  1  0  0  0  0
 24 26  1  0  0  0  0
 24 51  1  0  0  0  0
 25 27  2  0  0  0  0
 25 52  1  0  0  0  0
 26 28  2  0  0  0  0
 26 53  1  0  0  0  0
 27 28  1  0  0  0  0
 27 54  1  0  0  0  0
M  END
> <PUBCHEM_COMPOUND_CID>
51137958

> <PUBCHEM_CONFORMER_RMSD>
0.8

> <PUBCHEM_CONFORMER_DIVERSEORDER>
1
31
36
62
54
10
59
9
47
2
21
14
13
68
61
41
70
19
45
40
33
11
46
7
35
51
43
65
4
34
60
48
42
28
57
66
3
27
49
39
16
5
15
63
12
53
18
24
64
38
67
44
29
20
22
8
69
56
17
55
37
52
71
6
25
26
58
30
32
50
23

> <PUBCHEM_MMFF94_PARTIAL_CHARGES>
34
1 -0.19
11 0.18
12 -0.18
14 -0.15
15 -0.15
16 -0.3
17 0.57
2 -0.57
20 -0.15
21 -0.15
22 0.44
23 -0.14
24 -0.15
25 -0.15
26 -0.15
27 -0.15
28 0.19
3 -0.9
35 0.36
37 0.15
38 0.15
39 0.27
4 0.03
46 0.15
47 0.15
48 0.37
5 -0.73
51 0.15
52 0.15
53 0.15
54 0.15
6 0.41
7 0.33
9 -0.14

> <PUBCHEM_EFFECTIVE_ROTOR_COUNT>
6.8

> <PUBCHEM_PHARMACOPHORE_FEATURES>
11
1 2 acceptor
1 3 cation
1 3 donor
1 4 cation
1 4 donor
1 5 donor
3 13 18 19 hydrophobe
5 4 10 12 14 16 rings
6 23 24 25 26 27 28 rings
6 9 10 14 15 20 21 rings
7 3 6 7 9 10 11 12 rings

> <PUBCHEM_HEAVY_ATOM_COUNT>
28

> <PUBCHEM_ATOM_DEF_STEREO_COUNT>
2

> <PUBCHEM_ATOM_UDEF_STEREO_COUNT>
0

> <PUBCHEM_BOND_DEF_STEREO_COUNT>
0

> <PUBCHEM_BOND_UDEF_STEREO_COUNT>
0

> <PUBCHEM_ISOTOPIC_ATOM_COUNT>
0

> <PUBCHEM_COMPONENT_COUNT>
1

> <PUBCHEM_CACTVS_TAUTO_COUNT>
2

> <PUBCHEM_CONFORMER_ID>
030C4DA600000001

> <PUBCHEM_MMFF94_ENERGY>
61.8708

> <PUBCHEM_FEATURE_SELFOVERLAP>
55.952

> <PUBCHEM_SHAPE_FINGERPRINT>
1100329 8 18340769354947741874
11136131 41 18188482476913407802
11488393 25 17771070392992410774
11513181 2 17844817996958754919
11578080 2 17416108715484288034
11756154 67 18049445843079048534
12236239 1 18272933812594022069
12788726 201 17988933266237945344
13402501 40 18333449837891917839
13583140 156 17603591824250444923
14341114 328 17988934327516646185
14394314 77 18271813436695988033
14787075 74 18060421308962739361
14790565 3 18410858758742205516
15131766 46 15577272301254636164
17138139 8 17987214803042106983
17349148 13 18343027670242944769
17857418 61 18412263913159744137
18681886 176 18410849950207685776
19591789 44 18338518534592406220
20028762 73 18272368625068375382
20775438 99 16187439806104584295
21197605 99 18412268375699524598
335352 9 18409168827505257710
338550 245 18261397784156067204
350125 39 18409449168399332400
392239 28 18342184323713315291
4015057 19 18186811300279207297
439807 62 18338232778419882247
463206 1 18199744903613181287
474229 33 18411418380064551187
5283173 99 17531522079919380637

> <PUBCHEM_SHAPE_MULTIPOLES>
548.14
13.95
3.71
1.05
6.24
2.39
0.12
0.03
-0.37
-0.9
-0.52
1.15
-0.19
-1.37

> <PUBCHEM_SHAPE_SELFOVERLAP>
1187.621

> <PUBCHEM_SHAPE_VOLUME>
301

> <PUBCHEM_COORDINATE_TYPE>
2
5
10

$$$$
