45784363
  -OEChem-12032416353D

 69 71  0     1  0  0  0  0  0999 V2000
   -6.8284   -1.7822    1.9101 F   0  0  0  0  0  0  0  0  0  0  0  0
   -4.1626   -3.8135   -1.4353 F   0  0  0  0  0  0  0  0  0  0  0  0
    0.8191    2.5090   -1.4480 O   0  0  0  0  0  0  0  0  0  0  0  0
   -4.1146    2.6725    0.6021 O   0  0  0  0  0  0  0  0  0  0  0  0
    6.0152   -1.9825   -0.9343 O   0  0  0  0  0  0  0  0  0  0  0  0
    8.5991   -1.3025   -0.6055 O   0  0  0  0  0  0  0  0  0  0  0  0
    5.2754   -0.0925    0.2001 N   0  0  0  0  0  0  0  0  0  0  0  0
   -3.5875    1.5301   -1.3464 N   0  0  0  0  0  0  0  0  0  0  0  0
    1.1002   -0.1796    1.2481 C   0  0  1  0  0  0  0  0  0  0  0  0
    1.4989    0.6604   -0.0109 C   0  0  2  0  0  0  0  0  0  0  0  0
    3.0386    0.9720   -0.0102 C   0  0  1  0  0  0  0  0  0  0  0  0
    0.5673    1.8943   -0.1835 C   0  0  2  0  0  0  0  0  0  0  0  0
   -0.3954   -0.5646    1.1587 C   0  0  0  0  0  0  0  0  0  0  0  0
    1.9231   -1.4885    1.2622 C   0  0  0  0  0  0  0  0  0  0  0  0
   -0.9318    1.5145   -0.1675 C   0  0  1  0  0  0  0  0  0  0  0  0
    3.8552   -0.3478    0.0801 C   0  0  2  0  0  0  0  0  0  0  0  0
   -1.3135    0.6436    1.0293 C   0  0  0  0  0  0  0  0  0  0  0  0
    3.4260   -1.2499    1.2369 C   0  0  0  0  0  0  0  0  0  0  0  0
    1.3386    0.5873    2.5735 C   0  0  0  0  0  0  0  0  0  0  0  0
   -1.8335    2.7545   -0.2072 C   0  0  2  0  0  0  0  0  0  0  0  0
    3.5055    1.7726   -1.2377 C   0  0  0  0  0  0  0  0  0  0  0  0
   -1.5492    3.6488    0.9945 C   0  0  0  0  0  0  0  0  0  0  0  0
   -3.2984    2.3310   -0.2511 C   0  0  0  0  0  0  0  0  0  0  0  0
    6.2364   -0.9407   -0.3228 C   0  0  0  0  0  0  0  0  0  0  0  0
    7.6358   -0.4307   -0.0530 C   0  0  0  0  0  0  0  0  0  0  0  0
   -4.9079    1.0033   -1.6023 C   0  0  0  0  0  0  0  0  0  0  0  0
   -5.1142   -0.3352   -0.9541 C   0  0  0  0  0  0  0  0  0  0  0  0
    9.9275   -0.8465   -0.3664 C   0  0  0  0  0  0  0  0  0  0  0  0
   -4.5301   -1.4750   -1.5064 C   0  0  0  0  0  0  0  0  0  0  0  0
   -5.8906   -0.4388    0.2000 C   0  0  0  0  0  0  0  0  0  0  0  0
   -6.0829   -1.6824    0.8019 C   0  0  0  0  0  0  0  0  0  0  0  0
   -4.7224   -2.7186   -0.9046 C   0  0  0  0  0  0  0  0  0  0  0  0
   -5.4989   -2.8222    0.2495 C   0  0  0  0  0  0  0  0  0  0  0  0
    1.3300    0.0266   -0.8963 H   0  0  0  0  0  0  0  0  0  0  0  0
    3.2747    1.5902    0.8652 H   0  0  0  0  0  0  0  0  0  0  0  0
    0.8286    2.6198    0.5887 H   0  0  0  0  0  0  0  0  0  0  0  0
   -0.5575   -1.2198    0.2921 H   0  0  0  0  0  0  0  0  0  0  0  0
   -0.6913   -1.1470    2.0408 H   0  0  0  0  0  0  0  0  0  0  0  0
    1.6706   -2.0867    2.1470 H   0  0  0  0  0  0  0  0  0  0  0  0
    1.6554   -2.1018    0.3912 H   0  0  0  0  0  0  0  0  0  0  0  0
   -1.1083    0.9167   -1.0717 H   0  0  0  0  0  0  0  0  0  0  0  0
    3.6978   -0.9066   -0.8528 H   0  0  0  0  0  0  0  0  0  0  0  0
   -1.2918    1.1912    1.9738 H   0  0  0  0  0  0  0  0  0  0  0  0
   -2.3366    0.2644    0.9252 H   0  0  0  0  0  0  0  0  0  0  0  0
    3.9361   -2.2190    1.1610 H   0  0  0  0  0  0  0  0  0  0  0  0
    3.7559   -0.8230    2.1920 H   0  0  0  0  0  0  0  0  0  0  0  0
    2.3920    0.8245    2.7431 H   0  0  0  0  0  0  0  0  0  0  0  0
    1.0051   -0.0109    3.4296 H   0  0  0  0  0  0  0  0  0  0  0  0
    0.7980    1.5370    2.6111 H   0  0  0  0  0  0  0  0  0  0  0  0
   -1.6425    3.3308   -1.1216 H   0  0  0  0  0  0  0  0  0  0  0  0
    3.1625    1.3091   -2.1684 H   0  0  0  0  0  0  0  0  0  0  0  0
    4.5966    1.8467   -1.2871 H   0  0  0  0  0  0  0  0  0  0  0  0
    3.1454    2.8044   -1.1963 H   0  0  0  0  0  0  0  0  0  0  0  0
    5.5712    0.7118    0.7462 H   0  0  0  0  0  0  0  0  0  0  0  0
    0.6438    1.8526   -2.1437 H   0  0  0  0  0  0  0  0  0  0  0  0
   -0.5394    4.0649    0.9916 H   0  0  0  0  0  0  0  0  0  0  0  0
   -2.2199    4.5175    0.9607 H   0  0  0  0  0  0  0  0  0  0  0  0
   -1.7376    3.1754    1.9608 H   0  0  0  0  0  0  0  0  0  0  0  0
   -2.8687    1.3359   -2.0360 H   0  0  0  0  0  0  0  0  0  0  0  0
    7.7758   -0.3594    1.0320 H   0  0  0  0  0  0  0  0  0  0  0  0
    7.7343    0.5657   -0.4997 H   0  0  0  0  0  0  0  0  0  0  0  0
   -5.6578    1.7251   -1.2579 H   0  0  0  0  0  0  0  0  0  0  0  0
   -5.0257    0.9148   -2.6884 H   0  0  0  0  0  0  0  0  0  0  0  0
   10.0838    0.1333   -0.8280 H   0  0  0  0  0  0  0  0  0  0  0  0
   10.6219   -1.5608   -0.8164 H   0  0  0  0  0  0  0  0  0  0  0  0
   10.1256   -0.7940    0.7085 H   0  0  0  0  0  0  0  0  0  0  0  0
   -3.9228   -1.4067   -2.4051 H   0  0  0  0  0  0  0  0  0  0  0  0
   -6.3504    0.4409    0.6422 H   0  0  0  0  0  0  0  0  0  0  0  0
   -5.6487   -3.7904    0.7179 H   0  0  0  0  0  0  0  0  0  0  0  0
  1 31  1  0  0  0  0
  2 32  1  0  0  0  0
  3 12  1  0  0  0  0
  3 55  1  0  0  0  0
  4 23  2  0  0  0  0
  5 24  2  0  0  0  0
  6 25  1  0  0  0  0
  6 28  1  0  0  0  0
  7 16  1  0  0  0  0
  7 24  1  0  0  0  0
  7 54  1  0  0  0  0
  8 23  1  0  0  0  0
  8 26  1  0  0  0  0
  8 59  1  0  0  0  0
  9 10  1  0  0  0  0
  9 13  1  0  0  0  0
  9 14  1  0  0  0  0
  9 19  1  0  0  0  0
 10 11  1  0  0  0  0
 10 12  1  0  0  0  0
 10 34  1  0  0  0  0
 11 16  1  0  0  0  0
 11 21  1  0  0  0  0
 11 35  1  0  0  0  0
 12 15  1  0  0  0  0
 12 36  1  0  0  0  0
 13 17  1  0  0  0  0
 13 37  1  0  0  0  0
 13 38  1  0  0  0  0
 14 18  1  0  0  0  0
 14 39  1  0  0  0  0
 14 40  1  0  0  0  0
 15 17  1  0  0  0  0
 15 20  1  0  0  0  0
 15 41  1  0  0  0  0
 16 18  1  0  0  0  0
 16 42  1  0  0  0  0
 17 43  1  0  0  0  0
 17 44  1  0  0  0  0
 18 45  1  0  0  0  0
 18 46  1  0  0  0  0
 19 47  1  0  0  0  0
 19 48  1  0  0  0  0
 19 49  1  0  0  0  0
 20 22  1  0  0  0  0
 20 23  1  0  0  0  0
 20 50  1  0  0  0  0
 21 51  1  0  0  0  0
 21 52  1  0  0  0  0
 21 53  1  0  0  0  0
 22 56  1  0  0  0  0
 22 57  1  0  0  0  0
 22 58  1  0  0  0  0
 24 25  1  0  0  0  0
 25 60  1  0  0  0  0
 25 61  1  0  0  0  0
 26 27  1  0  0  0  0
 26 62  1  0  0  0  0
 26 63  1  0  0  0  0
 27 29  2  0  0  0  0
 27 30  1  0  0  0  0
 28 64  1  0  0  0  0
 28 65  1  0  0  0  0
 28 66  1  0  0  0  0
 29 32  1  0  0  0  0
 29 67  1  0  0  0  0
 30 31  2  0  0  0  0
 30 68  1  0  0  0  0
 31 33  1  0  0  0  0
 32 33  2  0  0  0  0
 33 69  1  0  0  0  0
M  END
> <PUBCHEM_COMPOUND_CID>
45784363

> <PUBCHEM_CONFORMER_RMSD>
1

> <PUBCHEM_CONFORMER_DIVERSEORDER>
1
6
51
91
156
62
117
104
36
102
137
28
116
83
96
159
99
42
24
125
103
100
126
2
64
101
144
30
145
95
138
69
80
92
131
47
13
98
142
140
118
18
72
58
86
128
29
111
158
134
8
109
93
152
44
59
3
120
87
74
81
71
107
157
133
73
39
20
146
15
12
49
60
37
53
151
94
76
114
48
22
113
88
70
65
35
150
153
122
7
21
112
105
61
106
50
32
66
121
129
154
108
119
52
90
89
17
19
139
9
27
136
26
41
54
160
110
78
115
143
14
63
75
141
57
34
155
97
38
77
46
147
43
135
55
23
130
5
149
124
40
45
11
79
148
33
84
132
82
123
127
16
85
4
56
68
25
10
67
31

> <PUBCHEM_MMFF94_PARTIAL_CHARGES>
28
1 -0.19
12 0.28
16 0.3
2 -0.19
20 0.06
23 0.57
24 0.57
25 0.34
26 0.44
27 -0.14
28 0.28
29 -0.15
3 -0.68
30 -0.15
31 0.19
32 0.19
33 -0.15
4 -0.57
5 -0.57
54 0.37
55 0.4
59 0.37
6 -0.56
67 0.15
68 0.15
69 0.15
7 -0.73
8 -0.73

> <PUBCHEM_EFFECTIVE_ROTOR_COUNT>
10.6

> <PUBCHEM_PHARMACOPHORE_FEATURES>
11
1 22 hydrophobe
1 3 acceptor
1 3 donor
1 4 acceptor
1 5 acceptor
1 6 acceptor
1 7 donor
1 8 donor
6 27 29 30 31 32 33 rings
6 9 10 11 14 16 18 rings
6 9 10 12 13 15 17 rings

> <PUBCHEM_HEAVY_ATOM_COUNT>
33

> <PUBCHEM_ATOM_DEF_STEREO_COUNT>
6

> <PUBCHEM_ATOM_UDEF_STEREO_COUNT>
1

> <PUBCHEM_BOND_DEF_STEREO_COUNT>
0

> <PUBCHEM_BOND_UDEF_STEREO_COUNT>
0

> <PUBCHEM_ISOTOPIC_ATOM_COUNT>
0

> <PUBCHEM_COMPONENT_COUNT>
1

> <PUBCHEM_CACTVS_TAUTO_COUNT>
4

> <PUBCHEM_CONFORMER_ID>
02BA9D2B00000001

> <PUBCHEM_MMFF94_ENERGY>
85.6257

> <PUBCHEM_FEATURE_SELFOVERLAP>
55.843

> <PUBCHEM_SHAPE_FINGERPRINT>
10391435 84 18339065056206483492
10554248 39 16081372896090836562
10928967 22 18265884943092357123
11135609 12 18343032073043047447
11315621 136 18187648032684885444
11315621 246 18409443661570855397
11477941 20 16877937222451055173
117089 54 18118970424045383147
12166972 35 17531249495239688029
13782708 43 18060413608497834026
14251757 5 18261387905990366371
14279260 333 18260263032069258106
14950920 106 15912755219980145607
15082195 135 17751372879216187100
15183329 4 18260540139116819874
15461852 350 18410580566196630222
15669420 48 13479139017017270193
17686467 74 18342451544358988240
17909252 39 18338513157409312313
20775530 9 18115292489082787493
21344244 246 17750806625799925300
21792965 68 8286207136806453770
21795232 338 18201720648139740673
21927370 108 16702029647843457944
22288116 15 18259707791882273942
22393880 68 17821995511468311557
2260408 40 12751242515051012928
23559900 14 18270102583201197513
2838139 119 14562814326603864286
354706 132 16588020204664354103
437795 160 18338502085870217066
445580 160 18413105056829723143
484989 97 17968667123875505418
5372103 7 12606581888210070723
54039377 194 18334581274027870963
54583773 228 18335426816298184676
57527295 17 16081357524007524325
6086070 43 14707215456649485652
999808 66 17989205932500053814

> <PUBCHEM_SHAPE_MULTIPOLES>
631.14
21.17
3.59
1.62
36.44
0.52
0.42
-17.03
-5.14
-5.73
-0.5
-1.03
-0.14
-0.02

> <PUBCHEM_SHAPE_SELFOVERLAP>
1311.944

> <PUBCHEM_SHAPE_VOLUME>
357.8

> <PUBCHEM_COORDINATE_TYPE>
2
5
10

$$$$
