7049571
  -OEChem-12032416153D

 65 67  0     1  0  0  0  0  0999 V2000
   -5.4984    2.7263    0.3449 F   0  0  0  0  0  0  0  0  0  0  0  0
   -8.5213   -0.7858    1.2974 F   0  0  0  0  0  0  0  0  0  0  0  0
    2.8926   -0.6276   -1.4740 O   0  0  0  0  0  0  0  0  0  0  0  0
    2.5879    1.1197    1.5946 O   0  0  0  0  0  0  0  0  0  0  0  0
   -2.4237   -1.1104   -0.8839 O   0  0  0  0  0  0  0  0  0  0  0  0
    4.2512   -4.4124    0.4210 O   0  0  0  0  0  0  0  0  0  0  0  0
    3.5448   -2.5353    1.5440 O   0  0  0  0  0  0  0  0  0  0  0  0
    1.6207    1.4930   -0.4660 N   0  0  0  0  0  0  0  0  0  0  0  0
   -1.3672    0.9231   -1.1888 N   0  0  0  0  0  0  0  0  0  0  0  0
    1.5299   -2.0644   -0.2495 N   0  0  0  0  0  0  0  0  0  0  0  0
    4.3513    3.4326    0.6334 N   0  0  0  0  0  0  0  0  0  0  0  0
   -3.5295    0.9073   -0.4183 N   0  0  0  0  0  0  0  0  0  0  0  0
   -0.1095    0.3903   -1.6559 C   0  0  2  0  0  0  0  0  0  0  0  0
    0.8857    0.2318   -0.5059 C   0  0  1  0  0  0  0  0  0  0  0  0
    0.5898    1.3758   -2.5955 C   0  0  0  0  0  0  0  0  0  0  0  0
    1.3365    2.3066   -1.6487 C   0  0  0  0  0  0  0  0  0  0  0  0
    1.8890   -0.8441   -0.7997 C   0  0  0  0  0  0  0  0  0  0  0  0
    2.3965    1.8673    0.6345 C   0  0  0  0  0  0  0  0  0  0  0  0
    2.3139   -3.2644   -0.4062 C   0  0  2  0  0  0  0  0  0  0  0  0
    1.4459   -4.5415   -0.4025 C   0  0  0  0  0  0  0  0  0  0  0  0
    3.0032    3.1913    0.5820 C   0  0  0  0  0  0  0  0  0  0  0  0
   -2.4530    0.1167   -0.8300 C   0  0  0  0  0  0  0  0  0  0  0  0
    3.4269   -3.3481    0.6326 C   0  0  0  0  0  0  0  0  0  0  0  0
    0.8450   -4.8000    0.9825 C   0  0  0  0  0  0  0  0  0  0  0  0
    0.3356   -4.5220   -1.4586 C   0  0  0  0  0  0  0  0  0  0  0  0
    2.3609    4.4053    0.4765 C   0  0  0  0  0  0  0  0  0  0  0  0
    4.5793    4.7822    0.5616 C   0  0  0  0  0  0  0  0  0  0  0  0
    3.3581    5.4117    0.4638 C   0  0  0  0  0  0  0  0  0  0  0  0
    5.3877    2.4299    0.7449 C   0  0  0  0  0  0  0  0  0  0  0  0
   -4.8037    0.4781    0.0209 C   0  0  0  0  0  0  0  0  0  0  0  0
   -5.7677    1.4140    0.3955 C   0  0  0  0  0  0  0  0  0  0  0  0
   -5.0953   -0.8847    0.0780 C   0  0  0  0  0  0  0  0  0  0  0  0
    5.3266   -4.5620    1.3539 C   0  0  0  0  0  0  0  0  0  0  0  0
   -7.0235    0.9871    0.8272 C   0  0  0  0  0  0  0  0  0  0  0  0
   -6.3510   -1.3115    0.5097 C   0  0  0  0  0  0  0  0  0  0  0  0
   -7.3152   -0.3758    0.8843 C   0  0  0  0  0  0  0  0  0  0  0  0
   -0.3075   -0.5580   -2.1685 H   0  0  0  0  0  0  0  0  0  0  0  0
    0.4106    0.0588    0.4667 H   0  0  0  0  0  0  0  0  0  0  0  0
    1.3111    0.8392   -3.2236 H   0  0  0  0  0  0  0  0  0  0  0  0
   -0.0929    1.9187   -3.2565 H   0  0  0  0  0  0  0  0  0  0  0  0
    0.6918    3.1384   -1.3494 H   0  0  0  0  0  0  0  0  0  0  0  0
    2.2599    2.6995   -2.0836 H   0  0  0  0  0  0  0  0  0  0  0  0
   -1.4485    1.9261   -1.0522 H   0  0  0  0  0  0  0  0  0  0  0  0
    0.7028   -2.1068    0.3382 H   0  0  0  0  0  0  0  0  0  0  0  0
    2.8180   -3.1872   -1.3789 H   0  0  0  0  0  0  0  0  0  0  0  0
    2.0946   -5.3966   -0.6353 H   0  0  0  0  0  0  0  0  0  0  0  0
    0.1682   -3.9980    1.2933 H   0  0  0  0  0  0  0  0  0  0  0  0
    1.6182   -4.9112    1.7488 H   0  0  0  0  0  0  0  0  0  0  0  0
    0.2663   -5.7308    0.9765 H   0  0  0  0  0  0  0  0  0  0  0  0
   -0.4066   -3.7436   -1.2528 H   0  0  0  0  0  0  0  0  0  0  0  0
    0.7540   -4.3399   -2.4539 H   0  0  0  0  0  0  0  0  0  0  0  0
   -0.1879   -5.4837   -1.4863 H   0  0  0  0  0  0  0  0  0  0  0  0
    1.2921    4.5621    0.4303 H   0  0  0  0  0  0  0  0  0  0  0  0
   -3.3913    1.9146   -0.4337 H   0  0  0  0  0  0  0  0  0  0  0  0
    5.5826    5.1857    0.5876 H   0  0  0  0  0  0  0  0  0  0  0  0
    3.2035    6.4793    0.3951 H   0  0  0  0  0  0  0  0  0  0  0  0
    5.3368    1.9941    1.7458 H   0  0  0  0  0  0  0  0  0  0  0  0
    6.3644    2.8952    0.5899 H   0  0  0  0  0  0  0  0  0  0  0  0
    5.2207    1.6670   -0.0198 H   0  0  0  0  0  0  0  0  0  0  0  0
   -4.4038   -1.6691   -0.1944 H   0  0  0  0  0  0  0  0  0  0  0  0
    5.9040   -5.4452    1.0679 H   0  0  0  0  0  0  0  0  0  0  0  0
    4.9330   -4.7115    2.3638 H   0  0  0  0  0  0  0  0  0  0  0  0
    5.9824   -3.6870    1.3192 H   0  0  0  0  0  0  0  0  0  0  0  0
   -7.7743    1.7156    1.1186 H   0  0  0  0  0  0  0  0  0  0  0  0
   -6.5799   -2.3724    0.5546 H   0  0  0  0  0  0  0  0  0  0  0  0
  1 31  1  0  0  0  0
  2 36  1  0  0  0  0
  3 17  2  0  0  0  0
  4 18  2  0  0  0  0
  5 22  2  0  0  0  0
  6 23  1  0  0  0  0
  6 33  1  0  0  0  0
  7 23  2  0  0  0  0
  8 14  1  0  0  0  0
  8 16  1  0  0  0  0
  8 18  1  0  0  0  0
  9 13  1  0  0  0  0
  9 22  1  0  0  0  0
  9 43  1  0  0  0  0
 10 17  1  0  0  0  0
 10 19  1  0  0  0  0
 10 44  1  0  0  0  0
 11 21  1  0  0  0  0
 11 27  1  0  0  0  0
 11 29  1  0  0  0  0
 12 22  1  0  0  0  0
 12 30  1  0  0  0  0
 12 54  1  0  0  0  0
 13 14  1  0  0  0  0
 13 15  1  0  0  0  0
 13 37  1  0  0  0  0
 14 17  1  0  0  0  0
 14 38  1  0  0  0  0
 15 16  1  0  0  0  0
 15 39  1  0  0  0  0
 15 40  1  0  0  0  0
 16 41  1  0  0  0  0
 16 42  1  0  0  0  0
 18 21  1  0  0  0  0
 19 20  1  0  0  0  0
 19 23  1  0  0  0  0
 19 45  1  0  0  0  0
 20 24  1  0  0  0  0
 20 25  1  0  0  0  0
 20 46  1  0  0  0  0
 21 26  2  0  0  0  0
 24 47  1  0  0  0  0
 24 48  1  0  0  0  0
 24 49  1  0  0  0  0
 25 50  1  0  0  0  0
 25 51  1  0  0  0  0
 25 52  1  0  0  0  0
 26 28  1  0  0  0  0
 26 53  1  0  0  0  0
 27 28  2  0  0  0  0
 27 55  1  0  0  0  0
 28 56  1  0  0  0  0
 29 57  1  0  0  0  0
 29 58  1  0  0  0  0
 29 59  1  0  0  0  0
 30 31  2  0  0  0  0
 30 32  1  0  0  0  0
 31 34  1  0  0  0  0
 32 35  2  0  0  0  0
 32 60  1  0  0  0  0
 33 61  1  0  0  0  0
 33 62  1  0  0  0  0
 33 63  1  0  0  0  0
 34 36  2  0  0  0  0
 34 64  1  0  0  0  0
 35 36  1  0  0  0  0
 35 65  1  0  0  0  0
M  END
> <PUBCHEM_COMPOUND_CID>
7049571

> <PUBCHEM_CONFORMER_RMSD>
1.2

> <PUBCHEM_CONFORMER_DIVERSEORDER>
1
89
61
78
4
46
32
67
9
11
21
51
93
49
102
64
47
70
69
6
18
77
82
90
87
85
19
55
26
20
62
88
60
25
57
94
65
54
63
59
2
40
72
50
7
103
48
43
35
84
52
100
75
17
80
27
45
95
56
68
22
58
36
34
41
44
81
76
31
30
79
83
29
71
3
33
12
13
98
16
99
92
15
66
97
38
8
86
73
28
5
37
91
42
96
24
53
101
23
74
10
14
39

> <PUBCHEM_MMFF94_PARTIAL_CHARGES>
41
1 -0.19
10 -0.73
11 0.05
12 -0.55
13 0.3
14 0.36
16 0.3
17 0.57
18 0.71
19 0.36
2 -0.19
21 -0.24
22 0.69
23 0.66
26 -0.15
27 -0.3
28 -0.15
29 0.26
3 -0.57
30 0.12
31 0.19
32 -0.15
33 0.28
34 -0.15
35 -0.15
36 0.19
4 -0.57
43 0.37
44 0.37
5 -0.57
53 0.15
54 0.37
55 0.15
56 0.15
6 -0.43
60 0.15
64 0.15
65 0.15
7 -0.57
8 -0.66
9 -0.73

> <PUBCHEM_EFFECTIVE_ROTOR_COUNT>
13

> <PUBCHEM_PHARMACOPHORE_FEATURES>
12
1 10 donor
1 11 cation
1 12 donor
1 3 acceptor
1 4 acceptor
1 5 acceptor
1 7 acceptor
1 9 donor
3 20 24 25 hydrophobe
5 11 21 26 27 28 rings
5 8 13 14 15 16 rings
6 30 31 32 34 35 36 rings

> <PUBCHEM_HEAVY_ATOM_COUNT>
36

> <PUBCHEM_ATOM_DEF_STEREO_COUNT>
3

> <PUBCHEM_ATOM_UDEF_STEREO_COUNT>
0

> <PUBCHEM_BOND_DEF_STEREO_COUNT>
0

> <PUBCHEM_BOND_UDEF_STEREO_COUNT>
0

> <PUBCHEM_ISOTOPIC_ATOM_COUNT>
0

> <PUBCHEM_COMPONENT_COUNT>
1

> <PUBCHEM_CACTVS_TAUTO_COUNT>
6

> <PUBCHEM_CONFORMER_ID>
006B916300000001

> <PUBCHEM_MMFF94_ENERGY>
80.9946

> <PUBCHEM_FEATURE_SELFOVERLAP>
60.948

> <PUBCHEM_SHAPE_FINGERPRINT>
10190108 129 18409454695574707084
10290309 65 18409721898454162653
11297750 10 17969492719500200260
11621639 148 18411694354275385450
12107183 9 17903086530321783113
12758862 65 18113902602700195818
13692114 37 18119253011001118855
14565420 104 18269837682439673345
14849402 71 18411419505604393778
15200665 1 17764027265154365571
15347590 135 17983594167566333851
15664458 162 18267857471347931058
15775530 1 17826485817844860332
15927050 60 18197495341097876790
15950262 2 15407763887528966600
17980427 26 18342163514501996684
18393751 57 17976537531625008973
19319366 153 18200311151347365129
1979834 28 18187650258042551197
21033648 29 17982163736624076496
21049683 271 18261402092319586262
21796203 349 18338807688971395762
21927370 108 18052533275787064170
3178227 256 18409726292600968480
3411729 13 18200879572914918684
4058900 60 18269282428930717377
5104073 3 18341063934930378857
513532 50 17967534570885109769
6697151 62 18049135814731453845
79837 15 17906166613744935324
9658208 31 18051990400178221916
9896288 288 17761491795947027938

> <PUBCHEM_SHAPE_MULTIPOLES>
672.06
15.91
8.32
1.56
39.57
4.15
-0.63
-5.24
9.17
-18.17
2.25
-0.53
0.18
-0.27

> <PUBCHEM_SHAPE_SELFOVERLAP>
1420.134

> <PUBCHEM_SHAPE_VOLUME>
379

> <PUBCHEM_COORDINATE_TYPE>
2
5
10

$$$$
