11885154
  -OEChem-12032416213D

 58 63  0     1  0  0  0  0  0999 V2000
   -0.2061    4.5419    1.3865 F   0  0  0  0  0  0  0  0  0  0  0  0
    0.5801   -1.3551   -1.9990 O   0  0  0  0  0  0  0  0  0  0  0  0
   -3.0497    0.7897    1.9738 O   0  0  0  0  0  0  0  0  0  0  0  0
   -1.1058   -2.1901   -0.6206 N   0  0  0  0  0  0  0  0  0  0  0  0
   -3.7706   -0.7852    0.4392 N   0  0  0  0  0  0  0  0  0  0  0  0
   -3.5496    1.4795   -0.1834 N   0  0  0  0  0  0  0  0  0  0  0  0
   -3.5248   -2.4571   -1.4112 C   0  0  2  0  0  0  0  0  0  0  0  0
   -2.9173   -3.0809    0.8858 C   0  0  2  0  0  0  0  0  0  0  0  0
   -3.5951   -3.5818   -0.3869 C   0  0  0  0  0  0  0  0  0  0  0  0
   -2.0521   -2.1870   -1.7442 C   0  0  0  0  0  0  0  0  0  0  0  0
   -4.2389   -1.1915   -0.8955 C   0  0  0  0  0  0  0  0  0  0  0  0
   -3.6949   -1.8685    1.4274 C   0  0  0  0  0  0  0  0  0  0  0  0
   -1.4732   -2.6931    0.6294 C   0  0  0  0  0  0  0  0  0  0  0  0
   -0.5596   -2.7999    1.6072 C   0  0  0  0  0  0  0  0  0  0  0  0
    0.2092   -1.7685   -0.8989 C   0  0  0  0  0  0  0  0  0  0  0  0
   -3.4192    0.5270    0.8265 C   0  0  0  0  0  0  0  0  0  0  0  0
    1.2009   -1.8613    0.2293 C   0  0  0  0  0  0  0  0  0  0  0  0
    0.7948   -2.3712    1.4017 C   0  0  0  0  0  0  0  0  0  0  0  0
    2.5892   -1.3962    0.0654 C   0  0  0  0  0  0  0  0  0  0  0  0
    2.9218   -0.0721    0.3550 C   0  0  0  0  0  0  0  0  0  0  0  0
   -2.8532    2.7080   -0.2971 C   0  0  0  0  0  0  0  0  0  0  0  0
    3.5708   -2.2783   -0.3783 C   0  0  0  0  0  0  0  0  0  0  0  0
    4.2408    0.3860    0.2039 C   0  0  0  0  0  0  0  0  0  0  0  0
    4.8863   -1.8406   -0.5337 C   0  0  0  0  0  0  0  0  0  0  0  0
    5.2378   -0.5115   -0.2469 C   0  0  0  0  0  0  0  0  0  0  0  0
   -1.8541    3.0241    0.6191 C   0  0  0  0  0  0  0  0  0  0  0  0
   -3.1723    3.5915   -1.3244 C   0  0  0  0  0  0  0  0  0  0  0  0
    4.5921    1.7151    0.4911 C   0  0  0  0  0  0  0  0  0  0  0  0
    6.5568   -0.0533   -0.3980 C   0  0  0  0  0  0  0  0  0  0  0  0
   -1.1683    4.2334    0.5071 C   0  0  0  0  0  0  0  0  0  0  0  0
   -2.4867    4.8010   -1.4365 C   0  0  0  0  0  0  0  0  0  0  0  0
    5.9076    2.1532    0.3353 C   0  0  0  0  0  0  0  0  0  0  0  0
    6.8879    1.2708   -0.1085 C   0  0  0  0  0  0  0  0  0  0  0  0
   -1.4846    5.1219   -0.5207 C   0  0  0  0  0  0  0  0  0  0  0  0
   -4.0316   -2.7690   -2.3330 H   0  0  0  0  0  0  0  0  0  0  0  0
   -2.9587   -3.8830    1.6342 H   0  0  0  0  0  0  0  0  0  0  0  0
   -3.0955   -4.4824   -0.7656 H   0  0  0  0  0  0  0  0  0  0  0  0
   -4.6387   -3.8531   -0.1865 H   0  0  0  0  0  0  0  0  0  0  0  0
   -1.9491   -1.2388   -2.2867 H   0  0  0  0  0  0  0  0  0  0  0  0
   -1.6977   -2.9675   -2.4314 H   0  0  0  0  0  0  0  0  0  0  0  0
   -5.3139   -1.3867   -0.7997 H   0  0  0  0  0  0  0  0  0  0  0  0
   -4.1190   -0.4018   -1.6386 H   0  0  0  0  0  0  0  0  0  0  0  0
   -3.2466   -1.5142    2.3619 H   0  0  0  0  0  0  0  0  0  0  0  0
   -4.7274   -2.1565    1.6611 H   0  0  0  0  0  0  0  0  0  0  0  0
   -0.8211   -3.1766    2.5905 H   0  0  0  0  0  0  0  0  0  0  0  0
    1.4695   -2.4588    2.2484 H   0  0  0  0  0  0  0  0  0  0  0  0
   -4.2367    1.3164   -0.9114 H   0  0  0  0  0  0  0  0  0  0  0  0
    2.1491    0.6137    0.7008 H   0  0  0  0  0  0  0  0  0  0  0  0
    3.3276   -3.3128   -0.6090 H   0  0  0  0  0  0  0  0  0  0  0  0
    5.6363   -2.5478   -0.8818 H   0  0  0  0  0  0  0  0  0  0  0  0
   -1.5393    2.3633    1.4167 H   0  0  0  0  0  0  0  0  0  0  0  0
   -3.9509    3.3528   -2.0442 H   0  0  0  0  0  0  0  0  0  0  0  0
    3.8423    2.4225    0.8392 H   0  0  0  0  0  0  0  0  0  0  0  0
    7.3394   -0.7255   -0.7433 H   0  0  0  0  0  0  0  0  0  0  0  0
   -2.7328    5.4929   -2.2367 H   0  0  0  0  0  0  0  0  0  0  0  0
    6.1661    3.1837    0.5607 H   0  0  0  0  0  0  0  0  0  0  0  0
    7.9118    1.6125   -0.2296 H   0  0  0  0  0  0  0  0  0  0  0  0
   -0.9505    6.0635   -0.6076 H   0  0  0  0  0  0  0  0  0  0  0  0
  1 30  1  0  0  0  0
  2 15  2  0  0  0  0
  3 16  2  0  0  0  0
  4 10  1  0  0  0  0
  4 13  1  0  0  0  0
  4 15  1  0  0  0  0
  5 11  1  0  0  0  0
  5 12  1  0  0  0  0
  5 16  1  0  0  0  0
  6 16  1  0  0  0  0
  6 21  1  0  0  0  0
  6 47  1  0  0  0  0
  7  9  1  0  0  0  0
  7 10  1  0  0  0  0
  7 11  1  0  0  0  0
  7 35  1  0  0  0  0
  8  9  1  0  0  0  0
  8 12  1  0  0  0  0
  8 13  1  0  0  0  0
  8 36  1  0  0  0  0
  9 37  1  0  0  0  0
  9 38  1  0  0  0  0
 10 39  1  0  0  0  0
 10 40  1  0  0  0  0
 11 41  1  0  0  0  0
 11 42  1  0  0  0  0
 12 43  1  0  0  0  0
 12 44  1  0  0  0  0
 13 14  2  0  0  0  0
 14 18  1  0  0  0  0
 14 45  1  0  0  0  0
 15 17  1  0  0  0  0
 17 18  2  0  0  0  0
 17 19  1  0  0  0  0
 18 46  1  0  0  0  0
 19 20  2  0  0  0  0
 19 22  1  0  0  0  0
 20 23  1  0  0  0  0
 20 48  1  0  0  0  0
 21 26  2  0  0  0  0
 21 27  1  0  0  0  0
 22 24  2  0  0  0  0
 22 49  1  0  0  0  0
 23 25  1  0  0  0  0
 23 28  2  0  0  0  0
 24 25  1  0  0  0  0
 24 50  1  0  0  0  0
 25 29  2  0  0  0  0
 26 30  1  0  0  0  0
 26 51  1  0  0  0  0
 27 31  2  0  0  0  0
 27 52  1  0  0  0  0
 28 32  1  0  0  0  0
 28 53  1  0  0  0  0
 29 33  1  0  0  0  0
 29 54  1  0  0  0  0
 30 34  2  0  0  0  0
 31 34  1  0  0  0  0
 31 55  1  0  0  0  0
 32 33  2  0  0  0  0
 32 56  1  0  0  0  0
 33 57  1  0  0  0  0
 34 58  1  0  0  0  0
M  END
> <PUBCHEM_COMPOUND_CID>
11885154

> <PUBCHEM_CONFORMER_RMSD>
0.8

> <PUBCHEM_CONFORMER_DIVERSEORDER>
1
112
87
61
67
65
66
111
106
49
35
68
82
114
58
78
100
21
79
75
54
46
94
62
90
83
60
92
50
16
95
91
17
97
76
64
98
29
12
115
69
73
109
41
47
45
99
48
34
55
103
113
108
71
63
81
39
38
52
27
20
84
105
6
26
96
88
15
56
32
110
13
42
74
59
102
101
77
33
25
37
14
85
53
9
31
107
19
11
8
22
80
18
28
57
23
70
104
86
36
2
89
72
43
30
51
24
3
44
10
5
40
4
93
7

> <PUBCHEM_MMFF94_PARTIAL_CHARGES>
44
1 -0.19
10 0.3
11 0.3
12 0.3
13 -0.03
14 -0.15
15 0.62
16 0.69
17 -0.01
18 -0.15
19 0.03
2 -0.57
20 -0.15
21 0.12
22 -0.15
24 -0.15
26 -0.15
27 -0.15
28 -0.15
29 -0.15
3 -0.57
30 0.19
31 -0.15
32 -0.15
33 -0.15
34 -0.15
4 -0.47
45 0.15
46 0.15
47 0.37
48 0.15
49 0.15
5 -0.66
50 0.15
51 0.15
52 0.15
53 0.15
54 0.15
55 0.15
56 0.15
57 0.15
58 0.15
6 -0.55
8 0.14

> <PUBCHEM_EFFECTIVE_ROTOR_COUNT>
5

> <PUBCHEM_PHARMACOPHORE_FEATURES>
9
1 2 acceptor
1 3 acceptor
1 6 donor
6 19 20 22 23 24 25 rings
6 21 26 27 30 31 34 rings
6 23 25 28 29 32 33 rings
6 4 13 14 15 17 18 rings
6 4 7 8 9 10 13 rings
6 5 7 8 9 11 12 rings

> <PUBCHEM_HEAVY_ATOM_COUNT>
34

> <PUBCHEM_ATOM_DEF_STEREO_COUNT>
2

> <PUBCHEM_ATOM_UDEF_STEREO_COUNT>
0

> <PUBCHEM_BOND_DEF_STEREO_COUNT>
0

> <PUBCHEM_BOND_UDEF_STEREO_COUNT>
0

> <PUBCHEM_ISOTOPIC_ATOM_COUNT>
0

> <PUBCHEM_COMPONENT_COUNT>
1

> <PUBCHEM_CACTVS_TAUTO_COUNT>
2

> <PUBCHEM_CONFORMER_ID>
00B55A6200000001

> <PUBCHEM_MMFF94_ENERGY>
103.8959

> <PUBCHEM_FEATURE_SELFOVERLAP>
47.269

> <PUBCHEM_SHAPE_FINGERPRINT>
100830 39 18409730652119198864
10670039 82 18338810030366421260
10864689 126 17832146026970096660
12104220 1 18261953063667312276
12107183 9 17756414973068604994
12128747 34 18340493275246975662
12788726 201 18334845152301563050
13561361 72 18339352085077575056
13761468 95 18057057821378580288
14394314 77 18410296896217928497
15320467 1 18337953394412217268
15400415 2 17905043651939614860
15419008 145 18337377319787196240
15961568 22 18340490092079752798
16067690 210 18114452470404363720
16992787 43 18264764364993230349
16993438 75 18337954489196082040
19309040 13 16270261236193040873
19315092 285 13627813866354487993
19611394 137 17900551377887511243
21033648 144 18343025463025263378
21927370 108 18192444180322038299
22956985 138 17034738859430909491
23516275 100 17979907534775218184
25019877 29 16987736747541128935
3493558 16 18334021622609229428
376196 1 17321263407821793001
508706 21 18409164420167010024
550186 7 18342748385894773574
6036956 94 18333455326418115525
6201320 215 18342734106094105560
6608658 132 18340759459406863518

> <PUBCHEM_SHAPE_MULTIPOLES>
665.75
12.63
6.88
1.48
23.77
9.73
-0.04
1.36
-0.96
-8.16
-0.43
-1.37
-0.33
0.94

> <PUBCHEM_SHAPE_SELFOVERLAP>
1489.323

> <PUBCHEM_SHAPE_VOLUME>
350.7

> <PUBCHEM_COORDINATE_TYPE>
2
5
10

$$$$
