26744940
  -OEChem-12032416373D

 51 55  0     1  0  0  0  0  0999 V2000
    0.4416   -1.3380    1.0550 O   0  0  0  0  0  0  0  0  0  0  0  0
    3.2387   -1.9919   -0.5889 O   0  0  0  0  0  0  0  0  0  0  0  0
    3.9000   -3.7135    1.7832 O   0  0  0  0  0  0  0  0  0  0  0  0
   -7.0344   -1.2320   -0.5573 O   0  0  0  0  0  0  0  0  0  0  0  0
    2.1354    1.1494   -0.7703 N   0  0  2  0  0  0  0  0  0  0  0  0
    0.6708    4.5732   -0.7479 N   0  0  0  0  0  0  0  0  0  0  0  0
    0.8377    4.3967    1.4750 N   0  0  0  0  0  0  0  0  0  0  0  0
   -0.8579    0.2839    0.2201 N   0  0  0  0  0  0  0  0  0  0  0  0
   -0.8480   -1.8777    0.9695 N   0  0  0  0  0  0  0  0  0  0  0  0
    1.6401    0.7551    0.5837 C   0  0  1  0  0  0  0  0  0  0  0  0
    1.6062    1.9785    1.5684 C   0  0  0  0  0  0  0  0  0  0  0  0
    1.3549    2.2067   -1.4472 C   0  0  0  0  0  0  0  0  0  0  0  0
    1.0851    3.3020   -0.4909 C   0  0  0  0  0  0  0  0  0  0  0  0
    1.1752    3.2162    0.8763 C   0  0  0  0  0  0  0  0  0  0  0  0
    2.3944    0.0234   -1.6608 C   0  0  0  0  0  0  0  0  0  0  0  0
    0.3475   -0.0631    0.5948 C   0  0  0  0  0  0  0  0  0  0  0  0
    3.5531   -0.8122   -1.1855 C   0  0  0  0  0  0  0  0  0  0  0  0
    0.5363    5.1945    0.4692 C   0  0  0  0  0  0  0  0  0  0  0  0
    4.9171   -0.6380   -1.2231 C   0  0  0  0  0  0  0  0  0  0  0  0
   -1.5568   -0.8615    0.4686 C   0  0  0  0  0  0  0  0  0  0  0  0
    4.4151   -2.5774   -0.2418 C   0  0  0  0  0  0  0  0  0  0  0  0
    5.4769   -1.7844   -0.6102 C   0  0  0  0  0  0  0  0  0  0  0  0
   -2.9637   -0.9575    0.2061 C   0  0  0  0  0  0  0  0  0  0  0  0
    4.3193   -3.8827    0.4270 C   0  0  0  0  0  0  0  0  0  0  0  0
   -3.5641   -2.2088    0.0662 C   0  0  0  0  0  0  0  0  0  0  0  0
   -3.7314    0.2013    0.0896 C   0  0  0  0  0  0  0  0  0  0  0  0
   -4.9320   -2.3013   -0.1904 C   0  0  0  0  0  0  0  0  0  0  0  0
   -5.0992    0.1089   -0.1672 C   0  0  0  0  0  0  0  0  0  0  0  0
   -5.6995   -1.1425   -0.3072 C   0  0  0  0  0  0  0  0  0  0  0  0
   -7.7583   -0.0071   -0.6644 C   0  0  0  0  0  0  0  0  0  0  0  0
    2.3973    0.0934    1.0280 H   0  0  0  0  0  0  0  0  0  0  0  0
    2.6190    2.1493    1.9554 H   0  0  0  0  0  0  0  0  0  0  0  0
    0.9527    1.7732    2.4235 H   0  0  0  0  0  0  0  0  0  0  0  0
    0.4066    1.8098   -1.8290 H   0  0  0  0  0  0  0  0  0  0  0  0
    1.9254    2.6000   -2.2968 H   0  0  0  0  0  0  0  0  0  0  0  0
    2.6733    0.3934   -2.6567 H   0  0  0  0  0  0  0  0  0  0  0  0
    1.5049   -0.6008   -1.8080 H   0  0  0  0  0  0  0  0  0  0  0  0
    0.4913    4.9834   -1.6550 H   0  0  0  0  0  0  0  0  0  0  0  0
    0.2163    6.2236    0.5498 H   0  0  0  0  0  0  0  0  0  0  0  0
    5.4439    0.2087   -1.6392 H   0  0  0  0  0  0  0  0  0  0  0  0
    6.5242   -2.0026   -0.4573 H   0  0  0  0  0  0  0  0  0  0  0  0
    3.5924   -4.5248   -0.0806 H   0  0  0  0  0  0  0  0  0  0  0  0
    5.2883   -4.3920    0.4303 H   0  0  0  0  0  0  0  0  0  0  0  0
   -2.9933   -3.1307    0.1448 H   0  0  0  0  0  0  0  0  0  0  0  0
   -3.2892    1.1889    0.1987 H   0  0  0  0  0  0  0  0  0  0  0  0
   -5.3942   -3.2786   -0.2998 H   0  0  0  0  0  0  0  0  0  0  0  0
   -5.6358    1.0484   -0.2448 H   0  0  0  0  0  0  0  0  0  0  0  0
    3.8508   -4.6014    2.1770 H   0  0  0  0  0  0  0  0  0  0  0  0
   -8.8032   -0.2658   -0.8649 H   0  0  0  0  0  0  0  0  0  0  0  0
   -7.4098    0.5936   -1.5114 H   0  0  0  0  0  0  0  0  0  0  0  0
   -7.7427    0.5532    0.2766 H   0  0  0  0  0  0  0  0  0  0  0  0
  1  9  1  0  0  0  0
  1 16  1  0  0  0  0
  2 17  1  0  0  0  0
  2 21  1  0  0  0  0
  3 24  1  0  0  0  0
  3 48  1  0  0  0  0
  4 29  1  0  0  0  0
  4 30  1  0  0  0  0
  5 10  1  0  0  0  0
  5 12  1  0  0  0  0
  5 15  1  0  0  0  0
  6 13  1  0  0  0  0
  6 18  1  0  0  0  0
  6 38  1  0  0  0  0
  7 14  1  0  0  0  0
  7 18  2  0  0  0  0
  8 16  2  0  0  0  0
  8 20  1  0  0  0  0
  9 20  2  0  0  0  0
 10 11  1  0  0  0  0
 10 16  1  0  0  0  0
 10 31  1  0  0  0  0
 11 14  1  0  0  0  0
 11 32  1  0  0  0  0
 11 33  1  0  0  0  0
 12 13  1  0  0  0  0
 12 34  1  0  0  0  0
 12 35  1  0  0  0  0
 13 14  2  0  0  0  0
 15 17  1  0  0  0  0
 15 36  1  0  0  0  0
 15 37  1  0  0  0  0
 17 19  2  0  0  0  0
 18 39  1  0  0  0  0
 19 22  1  0  0  0  0
 19 40  1  0  0  0  0
 20 23  1  0  0  0  0
 21 22  2  0  0  0  0
 21 24  1  0  0  0  0
 22 41  1  0  0  0  0
 23 25  2  0  0  0  0
 23 26  1  0  0  0  0
 24 42  1  0  0  0  0
 24 43  1  0  0  0  0
 25 27  1  0  0  0  0
 25 44  1  0  0  0  0
 26 28  2  0  0  0  0
 26 45  1  0  0  0  0
 27 29  2  0  0  0  0
 27 46  1  0  0  0  0
 28 29  1  0  0  0  0
 28 47  1  0  0  0  0
 30 49  1  0  0  0  0
 30 50  1  0  0  0  0
 30 51  1  0  0  0  0
M  END
> <PUBCHEM_COMPOUND_CID>
26744940

> <PUBCHEM_CONFORMER_RMSD>
0.8

> <PUBCHEM_CONFORMER_DIVERSEORDER>
5
241
252
64
91
114
80
204
154
78
198
197
157
7
248
116
253
132
232
236
208
107
27
151
216
142
219
203
228
191
149
88
246
77
221
72
2
167
212
183
125
239
185
113
137
152
169
122
25
128
218
240
135
161
200
196
129
166
147
108
3
118
225
156
85
222
48
23
75
173
163
177
251
14
247
194
256
101
95
17
189
140
99
215
255
211
210
179
106
192
30
217
139
145
258
250
111
36
159
121
39
22
133
104
180
213
112
178
214
227
12
148
249
134
190
195
109
115
103
32
206
55
97
245
230
238
184
58
226
141
150
136
187
182
120
35
117
93
220
127
68
231
24
224
235
61
153
53
171
18
257
193
9
126
202
44
160
67
37
234
199
20
34
65
242
60
100
29
131
233
38
119
92
11
42
201
96
130
71
244
105
138
223
83
102
82
84
69
254
43
144
21
66
73
176
243
98
28
49
74
146
170
59
172
52
57
123
76
155
41
16
79
56
87
46
33
6
162
54
207
45
94
4
110
62
237
175
1
63
143
164
90
188
19
174
86
40
186
158
70
47
50
81
165
181
229
26
51
31
8
209
15
205
168
10
13
89
124

> <PUBCHEM_MMFF94_PARTIAL_CHARGES>
39
1 -0.02
10 0.45
11 0.18
12 0.45
13 -0.33
14 0.05
15 0.45
16 0.3
17 -0.04
18 0.04
19 -0.15
2 -0.28
20 0.46
21 -0.04
22 -0.15
23 0.05
24 0.46
25 -0.15
26 -0.15
27 -0.15
28 -0.15
29 0.08
3 -0.68
30 0.28
38 0.27
39 0.15
4 -0.36
40 0.15
41 0.15
44 0.15
45 0.15
46 0.15
47 0.15
48 0.4
5 -0.81
6 0.03
7 -0.57
8 -0.57
9 -0.41

> <PUBCHEM_EFFECTIVE_ROTOR_COUNT>
6.8

> <PUBCHEM_PHARMACOPHORE_FEATURES>
13
1 2 acceptor
1 3 acceptor
1 3 donor
1 4 acceptor
1 5 cation
1 6 donor
3 6 7 18 cation
3 8 9 20 cation
5 1 8 9 16 20 rings
5 2 17 19 21 22 rings
5 6 7 13 14 18 rings
6 23 25 26 27 28 29 rings
6 5 10 11 12 13 14 rings

> <PUBCHEM_HEAVY_ATOM_COUNT>
30

> <PUBCHEM_ATOM_DEF_STEREO_COUNT>
1

> <PUBCHEM_ATOM_UDEF_STEREO_COUNT>
0

> <PUBCHEM_BOND_DEF_STEREO_COUNT>
0

> <PUBCHEM_BOND_UDEF_STEREO_COUNT>
0

> <PUBCHEM_ISOTOPIC_ATOM_COUNT>
0

> <PUBCHEM_COMPONENT_COUNT>
1

> <PUBCHEM_CACTVS_TAUTO_COUNT>
2

> <PUBCHEM_CONFORMER_ID>
0198186C00000005

> <PUBCHEM_MMFF94_ENERGY>
60.8891

> <PUBCHEM_FEATURE_SELFOVERLAP>
66.074

> <PUBCHEM_SHAPE_FINGERPRINT>
10622 236 17608363541839447898
10930396 42 18267281250203476426
11115154 58 18339090297871726433
11135609 149 18197189556067765671
11386260 185 18339348761099643445
11720765 8 18412543231973422113
12166972 35 18273497884066242297
12633046 712 17971222359129409939
12788726 201 18193287295328680010
13004483 165 18339640032559015582
13134695 92 18341615944726358460
13590594 115 18339091393347142529
13631057 29 18338243640334093254
13899415 180 18343292648213250940
13955234 65 18124603238765620043
14068700 675 18059855030847195329
14150023 79 18051970613237534256
15183329 4 18411986828156665599
15439362 3 18195245744132993505
16126227 98 9150583796567910078
16988056 13 18337950198782359157
18335252 114 18409158893293043669
18681886 176 18342452660227539371
20775438 99 17979336883928929119
21133410 127 17825377747060264877
2132832 1 17846791706118799001
21968339 14 17914331531527698505
221357 26 18334294258416235215
23559900 14 18340483482489217435
249057 3 18342459249239835695
255183 313 17622468055177289728
283562 15 18191875522440833282
3004659 81 18187368680108470534
340366 18 18059855112330761591
345986 75 18042957680307078450
44317340 157 18267867375710859495
463206 1 18335707156549687770
59521099 67 18202277027157767489
6004065 56 18339359777089240274
6086070 43 18338786833305967189
7164475 11 18120381952230090798
7399639 24 17183922795709535227
9981440 41 17475511058855369209

> <PUBCHEM_SHAPE_MULTIPOLES>
569
13.64
5.87
1.33
24.02
7.33
-0.07
-14.44
4.17
-6.67
-1.72
-1.28
0.24
-0.39

> <PUBCHEM_SHAPE_SELFOVERLAP>
1252.502

> <PUBCHEM_SHAPE_VOLUME>
308.6

> <PUBCHEM_COORDINATE_TYPE>
2
5
10

$$$$
