45783511
  -OEChem-12032416273D

 55 59  0     1  0  0  0  0  0999 V2000
   -2.3368    1.1800   -1.9256 O   0  0  0  0  0  0  0  0  0  0  0  0
   -3.0188   -2.0383    0.6697 O   0  0  0  0  0  0  0  0  0  0  0  0
    7.6559   -0.3079    0.5261 O   0  0  0  0  0  0  0  0  0  0  0  0
   -0.1015   -2.5282    1.1961 O   0  0  0  0  0  0  0  0  0  0  0  0
   -4.3910    0.5504    0.8552 N   0  0  1  0  0  0  0  0  0  0  0  0
   -1.4080    1.2007    0.1125 N   0  0  0  0  0  0  0  0  0  0  0  0
    4.9212    0.2445    0.1860 N   0  0  0  0  0  0  0  0  0  0  0  0
   -0.9679    0.9554   -2.1191 N   0  0  0  0  0  0  0  0  0  0  0  0
    3.1474    0.3875   -1.3743 N   0  0  0  0  0  0  0  0  0  0  0  0
   -3.9255    1.5671   -0.1091 C   0  0  1  0  0  0  0  0  0  0  0  0
   -4.0719    2.9075    0.6345 C   0  0  0  0  0  0  0  0  0  0  0  0
   -4.6827    2.5501    1.9820 C   0  0  0  0  0  0  0  0  0  0  0  0
   -5.3588    1.2185    1.7254 C   0  0  0  0  0  0  0  0  0  0  0  0
   -4.9532   -0.6326    0.2163 C   0  0  0  0  0  0  0  0  0  0  0  0
   -2.5103    1.3137   -0.5845 C   0  0  0  0  0  0  0  0  0  0  0  0
   -3.8805   -1.5699   -0.2708 C   0  0  0  0  0  0  0  0  0  0  0  0
   -0.4887    0.9816   -0.8719 C   0  0  0  0  0  0  0  0  0  0  0  0
   -3.5665   -2.0784   -1.5100 C   0  0  0  0  0  0  0  0  0  0  0  0
    5.3517   -0.8701    1.0371 C   0  0  0  0  0  0  0  0  0  0  0  0
    5.8968    0.6715   -0.8265 C   0  0  0  0  0  0  0  0  0  0  0  0
    0.9021    0.7940   -0.5755 C   0  0  0  0  0  0  0  0  0  0  0  0
   -2.1450   -2.8548    0.0241 C   0  0  0  0  0  0  0  0  0  0  0  0
   -2.4395   -2.9130   -1.3183 C   0  0  0  0  0  0  0  0  0  0  0  0
    6.7451   -0.5889    1.5884 C   0  0  0  0  0  0  0  0  0  0  0  0
    7.2607    0.8709   -0.1753 C   0  0  0  0  0  0  0  0  0  0  0  0
    3.5620    0.4282   -0.0882 C   0  0  0  0  0  0  0  0  0  0  0  0
    1.3667    0.8290    0.7347 C   0  0  0  0  0  0  0  0  0  0  0  0
    2.7207    0.6436    0.9915 C   0  0  0  0  0  0  0  0  0  0  0  0
    1.8247    0.5720   -1.5849 C   0  0  0  0  0  0  0  0  0  0  0  0
   -1.1082   -3.4840    0.8542 C   0  0  0  0  0  0  0  0  0  0  0  0
   -4.5893    1.6056   -0.9845 H   0  0  0  0  0  0  0  0  0  0  0  0
   -3.1293    3.4497    0.7658 H   0  0  0  0  0  0  0  0  0  0  0  0
   -4.7596    3.5607    0.0834 H   0  0  0  0  0  0  0  0  0  0  0  0
   -5.3810    3.3142    2.3356 H   0  0  0  0  0  0  0  0  0  0  0  0
   -3.8901    2.4385    2.7325 H   0  0  0  0  0  0  0  0  0  0  0  0
   -6.3216    1.3714    1.2214 H   0  0  0  0  0  0  0  0  0  0  0  0
   -5.5269    0.6671    2.6556 H   0  0  0  0  0  0  0  0  0  0  0  0
   -5.6399   -0.3765   -0.6002 H   0  0  0  0  0  0  0  0  0  0  0  0
   -5.5424   -1.2022    0.9480 H   0  0  0  0  0  0  0  0  0  0  0  0
   -4.0828   -1.8730   -2.4366 H   0  0  0  0  0  0  0  0  0  0  0  0
    4.6676   -1.0400    1.8754 H   0  0  0  0  0  0  0  0  0  0  0  0
    5.3701   -1.7837    0.4301 H   0  0  0  0  0  0  0  0  0  0  0  0
    5.9648   -0.1008   -1.6026 H   0  0  0  0  0  0  0  0  0  0  0  0
    5.5898    1.6117   -1.2997 H   0  0  0  0  0  0  0  0  0  0  0  0
   -1.9094   -3.4834   -2.0674 H   0  0  0  0  0  0  0  0  0  0  0  0
    7.1173   -1.4663    2.1268 H   0  0  0  0  0  0  0  0  0  0  0  0
    6.7342    0.2525    2.2919 H   0  0  0  0  0  0  0  0  0  0  0  0
    7.2524    1.7213    0.5173 H   0  0  0  0  0  0  0  0  0  0  0  0
    8.0144    1.0753   -0.9422 H   0  0  0  0  0  0  0  0  0  0  0  0
    0.6975    1.0009    1.5737 H   0  0  0  0  0  0  0  0  0  0  0  0
    3.0842    0.6858    2.0130 H   0  0  0  0  0  0  0  0  0  0  0  0
    1.5440    0.5298   -2.6331 H   0  0  0  0  0  0  0  0  0  0  0  0
   -0.6275   -4.3093    0.3195 H   0  0  0  0  0  0  0  0  0  0  0  0
   -1.5395   -3.8761    1.7808 H   0  0  0  0  0  0  0  0  0  0  0  0
    0.5571   -2.9925    1.7405 H   0  0  0  0  0  0  0  0  0  0  0  0
  1  8  1  0  0  0  0
  1 15  1  0  0  0  0
  2 16  1  0  0  0  0
  2 22  1  0  0  0  0
  3 24  1  0  0  0  0
  3 25  1  0  0  0  0
  4 30  1  0  0  0  0
  4 55  1  0  0  0  0
  5 10  1  0  0  0  0
  5 13  1  0  0  0  0
  5 14  1  0  0  0  0
  6 15  2  0  0  0  0
  6 17  1  0  0  0  0
  7 19  1  0  0  0  0
  7 20  1  0  0  0  0
  7 26  1  0  0  0  0
  8 17  2  0  0  0  0
  9 26  2  0  0  0  0
  9 29  1  0  0  0  0
 10 11  1  0  0  0  0
 10 15  1  0  0  0  0
 10 31  1  0  0  0  0
 11 12  1  0  0  0  0
 11 32  1  0  0  0  0
 11 33  1  0  0  0  0
 12 13  1  0  0  0  0
 12 34  1  0  0  0  0
 12 35  1  0  0  0  0
 13 36  1  0  0  0  0
 13 37  1  0  0  0  0
 14 16  1  0  0  0  0
 14 38  1  0  0  0  0
 14 39  1  0  0  0  0
 16 18  2  0  0  0  0
 17 21  1  0  0  0  0
 18 23  1  0  0  0  0
 18 40  1  0  0  0  0
 19 24  1  0  0  0  0
 19 41  1  0  0  0  0
 19 42  1  0  0  0  0
 20 25  1  0  0  0  0
 20 43  1  0  0  0  0
 20 44  1  0  0  0  0
 21 27  1  0  0  0  0
 21 29  2  0  0  0  0
 22 23  2  0  0  0  0
 22 30  1  0  0  0  0
 23 45  1  0  0  0  0
 24 46  1  0  0  0  0
 24 47  1  0  0  0  0
 25 48  1  0  0  0  0
 25 49  1  0  0  0  0
 26 28  1  0  0  0  0
 27 28  2  0  0  0  0
 27 50  1  0  0  0  0
 28 51  1  0  0  0  0
 29 52  1  0  0  0  0
 30 53  1  0  0  0  0
 30 54  1  0  0  0  0
M  END
> <PUBCHEM_COMPOUND_CID>
45783511

> <PUBCHEM_CONFORMER_RMSD>
1

> <PUBCHEM_CONFORMER_DIVERSEORDER>
1
61
27
31
22
51
30
21
64
81
71
63
9
36
79
40
28
53
68
59
18
50
42
13
84
75
41
24
77
37
72
15
52
55
20
80
10
25
34
54
76
86
7
56
39
19
43
46
65
44
78
70
33
60
49
47
2
29
35
69
32
4
14
6
85
66
11
38
73
74
45
83
8
12
16
82
58
26
57
87
62
48
67
17
5
23
3

> <PUBCHEM_MMFF94_PARTIAL_CHARGES>
34
1 -0.02
10 0.45
13 0.27
14 0.45
15 0.3
16 -0.04
17 0.46
18 -0.15
19 0.37
2 -0.28
20 0.37
21 0.05
22 -0.04
23 -0.15
24 0.28
25 0.28
26 0.41
27 -0.15
28 -0.15
29 0.16
3 -0.56
30 0.46
4 -0.68
40 0.15
45 0.15
5 -0.81
50 0.15
51 0.15
52 0.15
55 0.4
6 -0.57
7 -0.84
8 -0.41
9 -0.62

> <PUBCHEM_EFFECTIVE_ROTOR_COUNT>
8.2

> <PUBCHEM_PHARMACOPHORE_FEATURES>
12
1 2 acceptor
1 3 acceptor
1 4 acceptor
1 4 donor
1 5 cation
3 6 8 17 cation
3 7 9 26 cation
5 1 6 8 15 17 rings
5 2 16 18 22 23 rings
5 5 10 11 12 13 rings
6 3 7 19 20 24 25 rings
6 9 21 26 27 28 29 rings

> <PUBCHEM_HEAVY_ATOM_COUNT>
30

> <PUBCHEM_ATOM_DEF_STEREO_COUNT>
1

> <PUBCHEM_ATOM_UDEF_STEREO_COUNT>
0

> <PUBCHEM_BOND_DEF_STEREO_COUNT>
0

> <PUBCHEM_BOND_UDEF_STEREO_COUNT>
0

> <PUBCHEM_ISOTOPIC_ATOM_COUNT>
0

> <PUBCHEM_COMPONENT_COUNT>
1

> <PUBCHEM_CACTVS_TAUTO_COUNT>
1

> <PUBCHEM_CONFORMER_ID>
02BA99D700000001

> <PUBCHEM_MMFF94_ENERGY>
59.5689

> <PUBCHEM_FEATURE_SELFOVERLAP>
60.899

> <PUBCHEM_SHAPE_FINGERPRINT>
10 15 17131826578240318648
10319926 262 18131343137854580768
11524674 6 18060134344912518062
12293681 4 17917998260613261056
12422481 6 18042686104723400954
12522641 33 17606941929771896013
12616971 3 17603591837541652036
12633257 1 18412553127973431605
12788726 201 18124332742316258877
14068700 675 18198337550051185247
14840074 17 17676205775271847891
14856354 85 18413392055171247964
15021287 119 17603308150361579596
15183329 4 17968088747017176786
15326921 28 18122333580489760081
15348495 7 17989199382991626912
15439362 3 17103379798526615845
15799311 1 18335146388739540618
16110190 28 18260832592161190806
16112460 7 18189058745217125704
16993438 75 14835305159497297178
17780758 139 18412261753033631201
19438510 23 16772688598418399497
20554085 129 17987225626687019857
21033648 29 16845300418761847277
21236236 1 18408881862980041694
21756936 100 18060415777398419617
21796203 349 17460630019366830649
220451 1 18333450929135500868
23516275 137 18119268176847569162
23522609 53 18189641439362612772
23559900 14 18192702573732555972
3383291 50 18340493373957870147
397830 11 17845641686166167344
4073 2 18272936029577368542
484985 159 18337099168588022159
5265222 85 18269846466190670998
5364581 5 17916294129665682800
59755656 520 18341332201816868160
602551 16 18411704317549030388
7226269 152 18131635551733381224

> <PUBCHEM_SHAPE_MULTIPOLES>
569
16.36
3.23
1.73
30.86
2.33
0.2
-3.76
-5.46
-6.03
-0.71
-0.5
-0.2
-2.15

> <PUBCHEM_SHAPE_SELFOVERLAP>
1232.528

> <PUBCHEM_SHAPE_VOLUME>
312.3

> <PUBCHEM_COORDINATE_TYPE>
2
5
10

$$$$
