75367066
  -OEChem-12032416393D

 45 47  0     1  0  0  0  0  0999 V2000
    1.2164    0.9052   -1.4118 O   0  0  0  0  0  0  0  0  0  0  0  0
   -0.0487    2.4947    1.5510 O   0  0  0  0  0  0  0  0  0  0  0  0
    4.0814   -0.1068   -1.4625 O   0  0  0  0  0  0  0  0  0  0  0  0
   -1.6009   -0.0895    0.6630 N   0  0  0  0  0  0  0  0  0  0  0  0
    3.2562    0.6952    0.5635 N   0  0  0  0  0  0  0  0  0  0  0  0
   -5.7459   -0.7496   -0.0336 N   0  0  0  0  0  0  0  0  0  0  0  0
   -0.7515    0.8237   -0.0842 C   0  0  1  0  0  0  0  0  0  0  0  0
    0.3766    1.4176    0.7390 C   0  0  1  0  0  0  0  0  0  0  0  0
    1.3301    1.8746   -0.3567 C   0  0  1  0  0  0  0  0  0  0  0  0
    4.2952   -1.4881    0.4297 C   0  0  0  0  0  0  0  0  0  0  0  0
   -2.8423   -0.3524   -0.0610 C   0  0  0  0  0  0  0  0  0  0  0  0
    3.8100   -2.7948   -0.1037 C   0  0  0  0  0  0  0  0  0  0  0  0
    3.2720   -2.2633    1.1910 C   0  0  0  0  0  0  0  0  0  0  0  0
    0.0195    0.1363   -1.1992 C   0  0  0  0  0  0  0  0  0  0  0  0
    2.7741    1.9655    0.1034 C   0  0  0  0  0  0  0  0  0  0  0  0
   -3.8247    0.8145    0.0913 C   0  0  0  0  0  0  0  0  0  0  0  0
   -3.4838   -1.6506    0.4400 C   0  0  0  0  0  0  0  0  0  0  0  0
    3.8708   -0.2354   -0.2622 C   0  0  0  0  0  0  0  0  0  0  0  0
   -5.1660    0.4860   -0.5660 C   0  0  0  0  0  0  0  0  0  0  0  0
   -4.8385   -1.8828   -0.2308 C   0  0  0  0  0  0  0  0  0  0  0  0
   -1.3266    1.6618   -0.4960 H   0  0  0  0  0  0  0  0  0  0  0  0
    0.8189    0.6516    1.3859 H   0  0  0  0  0  0  0  0  0  0  0  0
    1.0257    2.8481   -0.7612 H   0  0  0  0  0  0  0  0  0  0  0  0
    5.3060   -1.4700    0.8236 H   0  0  0  0  0  0  0  0  0  0  0  0
   -2.6342   -0.4999   -1.1293 H   0  0  0  0  0  0  0  0  0  0  0  0
    4.4842   -3.6415   -0.0594 H   0  0  0  0  0  0  0  0  0  0  0  0
    3.1446   -2.7991   -0.9585 H   0  0  0  0  0  0  0  0  0  0  0  0
    2.2432   -1.9240    1.1992 H   0  0  0  0  0  0  0  0  0  0  0  0
    3.5859   -2.7511    2.1059 H   0  0  0  0  0  0  0  0  0  0  0  0
    0.3332   -0.8777   -0.9248 H   0  0  0  0  0  0  0  0  0  0  0  0
   -0.5440    0.0815   -2.1353 H   0  0  0  0  0  0  0  0  0  0  0  0
   -1.8131    0.3008    1.5807 H   0  0  0  0  0  0  0  0  0  0  0  0
    2.8793    2.6818    0.9244 H   0  0  0  0  0  0  0  0  0  0  0  0
    3.4087    2.2935   -0.7274 H   0  0  0  0  0  0  0  0  0  0  0  0
   -3.4374    1.7324   -0.3631 H   0  0  0  0  0  0  0  0  0  0  0  0
   -3.9919    1.0334    1.1547 H   0  0  0  0  0  0  0  0  0  0  0  0
   -3.6227   -1.6094    1.5289 H   0  0  0  0  0  0  0  0  0  0  0  0
   -2.8243   -2.5029    0.2351 H   0  0  0  0  0  0  0  0  0  0  0  0
   -5.0459    0.4071   -1.6535 H   0  0  0  0  0  0  0  0  0  0  0  0
   -5.8652    1.3091   -0.3814 H   0  0  0  0  0  0  0  0  0  0  0  0
   -5.2992   -2.7801    0.1968 H   0  0  0  0  0  0  0  0  0  0  0  0
   -4.7029   -2.0737   -1.3025 H   0  0  0  0  0  0  0  0  0  0  0  0
    3.1513    0.4798    1.5507 H   0  0  0  0  0  0  0  0  0  0  0  0
   -6.6281   -0.9387   -0.5084 H   0  0  0  0  0  0  0  0  0  0  0  0
   -0.4590    3.1655    0.9794 H   0  0  0  0  0  0  0  0  0  0  0  0
  1  9  1  0  0  0  0
  1 14  1  0  0  0  0
  2  8  1  0  0  0  0
  2 45  1  0  0  0  0
  3 18  2  0  0  0  0
  4  7  1  0  0  0  0
  4 11  1  0  0  0  0
  4 32  1  0  0  0  0
  5 15  1  0  0  0  0
  5 18  1  0  0  0  0
  5 43  1  0  0  0  0
  6 19  1  0  0  0  0
  6 20  1  0  0  0  0
  6 44  1  0  0  0  0
  7  8  1  0  0  0  0
  7 14  1  0  0  0  0
  7 21  1  0  0  0  0
  8  9  1  0  0  0  0
  8 22  1  0  0  0  0
  9 15  1  0  0  0  0
  9 23  1  0  0  0  0
 10 12  1  0  0  0  0
 10 13  1  0  0  0  0
 10 18  1  0  0  0  0
 10 24  1  0  0  0  0
 11 16  1  0  0  0  0
 11 17  1  0  0  0  0
 11 25  1  0  0  0  0
 12 13  1  0  0  0  0
 12 26  1  0  0  0  0
 12 27  1  0  0  0  0
 13 28  1  0  0  0  0
 13 29  1  0  0  0  0
 14 30  1  0  0  0  0
 14 31  1  0  0  0  0
 15 33  1  0  0  0  0
 15 34  1  0  0  0  0
 16 19  1  0  0  0  0
 16 35  1  0  0  0  0
 16 36  1  0  0  0  0
 17 20  1  0  0  0  0
 17 37  1  0  0  0  0
 17 38  1  0  0  0  0
 19 39  1  0  0  0  0
 19 40  1  0  0  0  0
 20 41  1  0  0  0  0
 20 42  1  0  0  0  0
M  END
> <PUBCHEM_COMPOUND_CID>
75367066

> <PUBCHEM_CONFORMER_RMSD>
0.8

> <PUBCHEM_CONFORMER_DIVERSEORDER>
1
73
26
104
47
119
97
80
87
16
45
88
111
64
22
98
49
51
102
71
14
109
41
46
107
58
78
93
92
48
4
115
20
66
50
99
117
67
53
32
100
3
112
62
96
17
23
113
106
65
43
77
69
70
25
6
105
39
79
60
33
27
34
13
59
63
72
91
24
30
35
85
31
95
90
29
10
44
56
28
75
21
103
36
82
110
116
5
114
38
52
89
74
101
11
94
81
54
19
61
18
12
86
68
2
118
57
83
42
55
37
108
84
76
8
40
15
7
9

> <PUBCHEM_MMFF94_PARTIAL_CHARGES>
27
1 -0.56
10 -0.1
11 0.27
12 -0.2
13 -0.2
14 0.28
15 0.3
18 0.63
19 0.27
2 -0.68
20 0.27
24 0.1
26 0.1
27 0.1
28 0.1
29 0.1
3 -0.57
32 0.36
4 -0.9
43 0.37
44 0.36
45 0.4
5 -0.73
6 -0.9
7 0.27
8 0.28
9 0.28

> <PUBCHEM_EFFECTIVE_ROTOR_COUNT>
8.8

> <PUBCHEM_PHARMACOPHORE_FEATURES>
11
1 1 acceptor
1 2 acceptor
1 2 donor
1 3 acceptor
1 4 cation
1 4 donor
1 5 donor
1 6 cation
1 6 donor
5 1 7 8 9 14 rings
6 6 11 16 17 19 20 rings

> <PUBCHEM_HEAVY_ATOM_COUNT>
20

> <PUBCHEM_ATOM_DEF_STEREO_COUNT>
3

> <PUBCHEM_ATOM_UDEF_STEREO_COUNT>
0

> <PUBCHEM_BOND_DEF_STEREO_COUNT>
0

> <PUBCHEM_BOND_UDEF_STEREO_COUNT>
0

> <PUBCHEM_ISOTOPIC_ATOM_COUNT>
0

> <PUBCHEM_COMPONENT_COUNT>
1

> <PUBCHEM_CACTVS_TAUTO_COUNT>
2

> <PUBCHEM_CONFORMER_ID>
047E029A00000001

> <PUBCHEM_MMFF94_ENERGY>
22.7112

> <PUBCHEM_FEATURE_SELFOVERLAP>
55.822

> <PUBCHEM_SHAPE_FINGERPRINT>
11405975 8 18412268354757042017
11595378 159 14907913647541793227
11796584 16 18271812336782835599
12107183 9 18051416171498171929
12410352 35 18343580763315149455
12596602 18 17346597516866330122
12617007 42 16588027926477144916
12824470 246 18264767662867788600
13167823 11 18411980299637252231
13533116 47 18411698833345311299
13583140 156 18057038232243746049
14251751 18 17968926497177571730
14573314 32 18113893862567724557
14866123 147 17764026861421866201
15183329 4 18409446956427968973
15664445 248 17458345273401947532
15848702 151 18113332037863917197
17349148 13 17275105046298577213
17857418 61 18409162212511783959
1813 80 17022618671826055973
18222031 100 17561363976157507692
20281475 54 18334579022879231212
20369508 70 18271805756608101304
20645477 70 18335137609388277894
21033648 29 15554165865841846955
21250096 35 18343018882729177683
21279426 13 18264481802755926965
2215653 11 18334287657088710239
22224240 67 18268981163709824248
23559900 14 18336262452427697904
239999 70 18272657887363488908
3004659 81 18114180800885520082
33382 64 18335429018835640035
3421961 26 18410568488184221136
345986 75 18271800168781673506
4072396 5 17346599656060424629
4463277 69 18408322168374395686
46194498 28 17095806624041857999
465052 167 18273500061282579334
4990 188 16370727049638584645
5104073 3 18130794486142544353
5207 123 18335981952540256862
59682541 35 18271509946259828010
633830 44 15863791716331789109
6443956 14 18334294249520390588
7970288 3 18194962929527893878
8509985 295 18202280320922058965
960060 61 17894355470966189182
9709674 26 18115309015679495763

> <PUBCHEM_SHAPE_MULTIPOLES>
379.04
11.54
2.67
1.11
9.36
0.71
-0.06
6.81
-0.82
-2.12
0.65
-0.63
-0.23
-0.36

> <PUBCHEM_SHAPE_SELFOVERLAP>
772.218

> <PUBCHEM_SHAPE_VOLUME>
220

> <PUBCHEM_COORDINATE_TYPE>
2
5
10

$$$$
