38028312
  -OEChem-12032416143D

 62 64  0     1  0  0  0  0  0999 V2000
   -2.5980    1.7365    2.1256 O   0  0  0  0  0  0  0  0  0  0  0  0
    2.2154   -1.1774   -2.4663 O   0  0  0  0  0  0  0  0  0  0  0  0
    2.9020    0.4529   -0.9642 N   0  0  0  0  0  0  0  0  0  0  0  0
   -1.7734   -0.4362    2.1242 N   0  0  0  0  0  0  0  0  0  0  0  0
    3.3828   -1.5090    0.8417 N   0  0  0  0  0  0  0  0  0  0  0  0
   -4.7493   -0.9179    0.4450 N   0  0  0  0  0  0  0  0  0  0  0  0
    2.9556   -4.2198    0.2623 N   0  0  0  0  0  0  0  0  0  0  0  0
    0.2532    1.8724   -1.0754 C   0  0  1  0  0  0  0  0  0  0  0  0
    1.6498    2.5349   -1.1783 C   0  0  1  0  0  0  0  0  0  0  0  0
   -0.6327    2.6402   -0.0826 C   0  0  0  0  0  0  0  0  0  0  0  0
   -0.0142    2.6967    1.3271 C   0  0  2  0  0  0  0  0  0  0  0  0
   -0.4417    1.7955   -2.4385 C   0  0  0  0  0  0  0  0  0  0  0  0
    1.4494    3.0864    1.2846 C   0  0  0  0  0  0  0  0  0  0  0  0
    2.1733    3.0203    0.1530 C   0  0  0  0  0  0  0  0  0  0  0  0
    2.6694    1.5807   -1.8108 C   0  0  0  0  0  0  0  0  0  0  0  0
   -0.2073    1.3693    2.0685 C   0  0  0  0  0  0  0  0  0  0  0  0
   -1.1004    3.1292   -2.7758 C   0  0  0  0  0  0  0  0  0  0  0  0
   -1.4679    0.6670   -2.4497 C   0  0  0  0  0  0  0  0  0  0  0  0
    2.0513    3.5980    2.5638 C   0  0  0  0  0  0  0  0  0  0  0  0
   -1.6584    0.9461    2.1083 C   0  0  0  0  0  0  0  0  0  0  0  0
    2.6532   -0.8598   -1.3637 C   0  0  0  0  0  0  0  0  0  0  0  0
   -3.0446   -1.1218    2.1638 C   0  0  0  0  0  0  0  0  0  0  0  0
    2.9225   -1.9186   -0.3571 C   0  0  0  0  0  0  0  0  0  0  0  0
   -3.5523   -1.4443    0.7882 C   0  0  0  0  0  0  0  0  0  0  0  0
    2.7127   -3.2501   -0.6417 C   0  0  0  0  0  0  0  0  0  0  0  0
   -2.7894   -2.2457   -0.0459 C   0  0  0  0  0  0  0  0  0  0  0  0
    3.6258   -2.4788    1.7456 C   0  0  0  0  0  0  0  0  0  0  0  0
   -3.2870   -2.5245   -1.3139 C   0  0  0  0  0  0  0  0  0  0  0  0
    3.4159   -3.8103    1.4611 C   0  0  0  0  0  0  0  0  0  0  0  0
   -5.2006   -1.2108   -0.7952 C   0  0  0  0  0  0  0  0  0  0  0  0
   -4.5149   -2.0011   -1.7035 C   0  0  0  0  0  0  0  0  0  0  0  0
    0.3723    0.8514   -0.6925 H   0  0  0  0  0  0  0  0  0  0  0  0
    1.5890    3.4203   -1.8235 H   0  0  0  0  0  0  0  0  0  0  0  0
   -1.6478    2.2371   -0.0668 H   0  0  0  0  0  0  0  0  0  0  0  0
   -0.7312    3.6884   -0.3960 H   0  0  0  0  0  0  0  0  0  0  0  0
   -0.5593    3.4787    1.8745 H   0  0  0  0  0  0  0  0  0  0  0  0
    0.2849    1.5680   -3.2253 H   0  0  0  0  0  0  0  0  0  0  0  0
    3.2078    3.3578    0.1707 H   0  0  0  0  0  0  0  0  0  0  0  0
    3.6354    2.0865   -1.9297 H   0  0  0  0  0  0  0  0  0  0  0  0
    2.3627    1.2584   -2.8095 H   0  0  0  0  0  0  0  0  0  0  0  0
    0.1220    1.4591    3.1110 H   0  0  0  0  0  0  0  0  0  0  0  0
    0.4053    0.5836    1.6095 H   0  0  0  0  0  0  0  0  0  0  0  0
   -2.0018    3.3262   -2.1860 H   0  0  0  0  0  0  0  0  0  0  0  0
   -1.4281    3.1135   -3.8227 H   0  0  0  0  0  0  0  0  0  0  0  0
   -0.4141    3.9758   -2.6804 H   0  0  0  0  0  0  0  0  0  0  0  0
   -2.2634    0.8206   -1.7142 H   0  0  0  0  0  0  0  0  0  0  0  0
   -0.9905   -0.2958   -2.2387 H   0  0  0  0  0  0  0  0  0  0  0  0
   -1.9415    0.5894   -3.4346 H   0  0  0  0  0  0  0  0  0  0  0  0
    1.4766    4.4506    2.9398 H   0  0  0  0  0  0  0  0  0  0  0  0
    3.0855    3.9322    2.4283 H   0  0  0  0  0  0  0  0  0  0  0  0
    2.0563    2.8158    3.3287 H   0  0  0  0  0  0  0  0  0  0  0  0
    3.3031    0.6115   -0.0440 H   0  0  0  0  0  0  0  0  0  0  0  0
   -0.9346   -1.0088    2.1061 H   0  0  0  0  0  0  0  0  0  0  0  0
   -3.7698   -0.5015    2.7026 H   0  0  0  0  0  0  0  0  0  0  0  0
   -2.9075   -2.0472    2.7336 H   0  0  0  0  0  0  0  0  0  0  0  0
    2.3435   -3.5971   -1.5995 H   0  0  0  0  0  0  0  0  0  0  0  0
   -1.8336   -2.6530    0.2660 H   0  0  0  0  0  0  0  0  0  0  0  0
    3.9953   -2.1504    2.7091 H   0  0  0  0  0  0  0  0  0  0  0  0
   -2.7187   -3.1480   -1.9975 H   0  0  0  0  0  0  0  0  0  0  0  0
    3.6112   -4.5889    2.1881 H   0  0  0  0  0  0  0  0  0  0  0  0
   -6.1623   -0.7782   -1.0505 H   0  0  0  0  0  0  0  0  0  0  0  0
   -4.9218   -2.2047   -2.6873 H   0  0  0  0  0  0  0  0  0  0  0  0
  1 20  2  0  0  0  0
  2 21  2  0  0  0  0
  3 15  1  0  0  0  0
  3 21  1  0  0  0  0
  3 52  1  0  0  0  0
  4 20  1  0  0  0  0
  4 22  1  0  0  0  0
  4 53  1  0  0  0  0
  5 23  2  0  0  0  0
  5 27  1  0  0  0  0
  6 24  1  0  0  0  0
  6 30  2  0  0  0  0
  7 25  2  0  0  0  0
  7 29  1  0  0  0  0
  8  9  1  0  0  0  0
  8 10  1  0  0  0  0
  8 12  1  0  0  0  0
  8 32  1  0  0  0  0
  9 14  1  0  0  0  0
  9 15  1  0  0  0  0
  9 33  1  0  0  0  0
 10 11  1  0  0  0  0
 10 34  1  0  0  0  0
 10 35  1  0  0  0  0
 11 13  1  0  0  0  0
 11 16  1  0  0  0  0
 11 36  1  0  0  0  0
 12 17  1  0  0  0  0
 12 18  1  0  0  0  0
 12 37  1  0  0  0  0
 13 14  2  0  0  0  0
 13 19  1  0  0  0  0
 14 38  1  0  0  0  0
 15 39  1  0  0  0  0
 15 40  1  0  0  0  0
 16 20  1  0  0  0  0
 16 41  1  0  0  0  0
 16 42  1  0  0  0  0
 17 43  1  0  0  0  0
 17 44  1  0  0  0  0
 17 45  1  0  0  0  0
 18 46  1  0  0  0  0
 18 47  1  0  0  0  0
 18 48  1  0  0  0  0
 19 49  1  0  0  0  0
 19 50  1  0  0  0  0
 19 51  1  0  0  0  0
 21 23  1  0  0  0  0
 22 24  1  0  0  0  0
 22 54  1  0  0  0  0
 22 55  1  0  0  0  0
 23 25  1  0  0  0  0
 24 26  2  0  0  0  0
 25 56  1  0  0  0  0
 26 28  1  0  0  0  0
 26 57  1  0  0  0  0
 27 29  2  0  0  0  0
 27 58  1  0  0  0  0
 28 31  2  0  0  0  0
 28 59  1  0  0  0  0
 29 60  1  0  0  0  0
 30 31  1  0  0  0  0
 30 61  1  0  0  0  0
 31 62  1  0  0  0  0
M  END
> <PUBCHEM_COMPOUND_CID>
38028312

> <PUBCHEM_CONFORMER_RMSD>
1

> <PUBCHEM_CONFORMER_DIVERSEORDER>
1
90
7
139
143
164
171
43
118
6
86
166
152
94
77
116
155
95
142
117
58
177
75
34
42
30
50
74
135
99
85
67
170
40
112
39
160
121
100
26
147
72
174
140
56
173
68
134
101
78
151
126
157
57
130
53
104
71
167
132
133
61
161
46
3
165
131
27
168
59
172
5
153
111
162
141
148
176
66
51
154
123
45
159
93
62
19
12
136
105
81
110
163
14
150
146
73
80
169
20
125
60
52
120
124
103
38
145
144
65
98
156
114
138
82
13
54
69
48
129
97
24
109
36
44
87
175
33
47
55
29
108
18
96
31
106
21
107
88
149
84
9
115
15
63
32
158
49
2
91
79
127
10
4
64
89
17
22
28
76
122
113
128
119
37
16
11
25
41
23
8
70
137
83
35
102
92

> <PUBCHEM_MMFF94_PARTIAL_CHARGES>
36
1 -0.57
11 0.14
13 -0.28
14 -0.29
15 0.3
16 0.06
19 0.14
2 -0.57
20 0.57
21 0.54
22 0.44
23 0.4
24 0.17
25 0.16
26 -0.15
27 0.16
28 -0.15
29 0.16
3 -0.73
30 0.16
31 -0.15
38 0.15
4 -0.73
5 -0.62
52 0.37
53 0.37
56 0.15
57 0.15
58 0.15
59 0.15
6 -0.62
60 0.15
61 0.15
62 0.15
7 -0.62
9 0.14

> <PUBCHEM_EFFECTIVE_ROTOR_COUNT>
10.8

> <PUBCHEM_PHARMACOPHORE_FEATURES>
11
1 1 acceptor
1 2 acceptor
1 3 donor
1 4 donor
1 5 acceptor
1 6 acceptor
1 7 acceptor
3 12 17 18 hydrophobe
6 5 7 23 25 27 29 rings
6 6 24 26 28 30 31 rings
6 8 9 10 11 13 14 rings

> <PUBCHEM_HEAVY_ATOM_COUNT>
31

> <PUBCHEM_ATOM_DEF_STEREO_COUNT>
3

> <PUBCHEM_ATOM_UDEF_STEREO_COUNT>
0

> <PUBCHEM_BOND_DEF_STEREO_COUNT>
0

> <PUBCHEM_BOND_UDEF_STEREO_COUNT>
0

> <PUBCHEM_ISOTOPIC_ATOM_COUNT>
0

> <PUBCHEM_COMPONENT_COUNT>
1

> <PUBCHEM_CACTVS_TAUTO_COUNT>
4

> <PUBCHEM_CONFORMER_ID>
0244441800000001

> <PUBCHEM_MMFF94_ENERGY>
67.4072

> <PUBCHEM_FEATURE_SELFOVERLAP>
55.827

> <PUBCHEM_SHAPE_FINGERPRINT>
10032420 55 17913513468969841760
11552529 35 17836649626528986042
12156800 1 17319813258931268435
14114207 22 17762015077751075370
14251757 17 16225770713766886503
14674994 50 17758109307179261302
19315092 285 17340649240859931159
20775530 9 18190757340321196506
21315764 21 17240491281789843887
27425 322 8958203183147649085
3027735 51 17535182255402099395
35225 105 17762644801059841799
5081480 168 18041547084471956555
513532 50 17825357891224909455
550186 7 13124235564957506278

> <PUBCHEM_SHAPE_MULTIPOLES>
601.32
7.9
5.71
3.15
8.3
2.08
-0.03
7.84
-0.1
-6.06
0.9
0.39
-1.9
-0.46

> <PUBCHEM_SHAPE_SELFOVERLAP>
1259.236

> <PUBCHEM_SHAPE_VOLUME>
335.9

> <PUBCHEM_COORDINATE_TYPE>
2
5
10

$$$$
