75537095
  -OEChem-12032416323D

 49 52  0     1  0  0  0  0  0999 V2000
    6.1967   -2.6428    1.6053 F   0  0  0  0  0  0  0  0  0  0  0  0
    2.2570    3.0341    0.1259 O   0  0  0  0  0  0  0  0  0  0  0  0
    0.1941    1.9290   -0.0792 N   0  0  0  0  0  0  0  0  0  0  0  0
   -2.2536    0.7758    0.6885 N   0  0  2  0  0  0  0  0  0  0  0  0
    1.9580    1.1059   -1.1995 N   0  0  0  0  0  0  0  0  0  0  0  0
   -3.9478   -2.0743    0.3657 N   0  0  0  0  0  0  0  0  0  0  0  0
   -0.3518    0.8474   -0.8721 C   0  0  2  0  0  0  0  0  0  0  0  0
   -1.2446   -0.0453   -0.0109 C   0  0  0  0  0  0  0  0  0  0  0  0
    0.8849    0.1576   -1.4444 C   0  0  0  0  0  0  0  0  0  0  0  0
   -0.6905    2.7070    0.7629 C   0  0  0  0  0  0  0  0  0  0  0  0
   -1.6058    1.7756    1.5616 C   0  0  0  0  0  0  0  0  0  0  0  0
    1.5567    2.1396   -0.3295 C   0  0  0  0  0  0  0  0  0  0  0  0
   -3.1514   -0.0759    1.4684 C   0  0  0  0  0  0  0  0  0  0  0  0
    3.3009    0.8871   -1.6896 C   0  0  0  0  0  0  0  0  0  0  0  0
   -4.1683   -0.7616    0.6025 C   0  0  0  0  0  0  0  0  0  0  0  0
    4.0732   -0.0543   -0.8112 C   0  0  0  0  0  0  0  0  0  0  0  0
   -5.2478   -0.0534    0.0996 C   0  0  0  0  0  0  0  0  0  0  0  0
    4.8237    0.4435    0.2541 C   0  0  0  0  0  0  0  0  0  0  0  0
    4.0401   -1.4265   -1.0599 C   0  0  0  0  0  0  0  0  0  0  0  0
   -6.1598   -0.7362   -0.6975 C   0  0  0  0  0  0  0  0  0  0  0  0
   -5.4490    1.3940    0.3885 C   0  0  0  0  0  0  0  0  0  0  0  0
    5.5414   -0.4307    1.0702 C   0  0  0  0  0  0  0  0  0  0  0  0
    4.7577   -2.3007   -0.2437 C   0  0  0  0  0  0  0  0  0  0  0  0
   -4.8554   -2.7046   -0.4133 C   0  0  0  0  0  0  0  0  0  0  0  0
   -5.9671   -2.0873   -0.9637 C   0  0  0  0  0  0  0  0  0  0  0  0
    5.5084   -1.8029    0.8213 C   0  0  0  0  0  0  0  0  0  0  0  0
   -0.9349    1.3060   -1.6817 H   0  0  0  0  0  0  0  0  0  0  0  0
   -1.7203   -0.7806   -0.6696 H   0  0  0  0  0  0  0  0  0  0  0  0
   -0.6371   -0.5995    0.7177 H   0  0  0  0  0  0  0  0  0  0  0  0
    0.7890   -0.0323   -2.5177 H   0  0  0  0  0  0  0  0  0  0  0  0
    1.1171   -0.7778   -0.9260 H   0  0  0  0  0  0  0  0  0  0  0  0
   -1.2804    3.3546    0.1041 H   0  0  0  0  0  0  0  0  0  0  0  0
   -0.0986    3.3461    1.4257 H   0  0  0  0  0  0  0  0  0  0  0  0
   -1.0207    1.2709    2.3421 H   0  0  0  0  0  0  0  0  0  0  0  0
   -2.3639    2.3892    2.0627 H   0  0  0  0  0  0  0  0  0  0  0  0
   -3.6894    0.5055    2.2282 H   0  0  0  0  0  0  0  0  0  0  0  0
   -2.5847   -0.8222    2.0428 H   0  0  0  0  0  0  0  0  0  0  0  0
    3.8172    1.8539   -1.7306 H   0  0  0  0  0  0  0  0  0  0  0  0
    3.2454    0.5146   -2.7190 H   0  0  0  0  0  0  0  0  0  0  0  0
    4.8578    1.5100    0.4595 H   0  0  0  0  0  0  0  0  0  0  0  0
    3.4596   -1.8268   -1.8868 H   0  0  0  0  0  0  0  0  0  0  0  0
   -7.0244   -0.2305   -1.1186 H   0  0  0  0  0  0  0  0  0  0  0  0
   -5.5337    1.5734    1.4648 H   0  0  0  0  0  0  0  0  0  0  0  0
   -4.6332    1.9954   -0.0234 H   0  0  0  0  0  0  0  0  0  0  0  0
   -6.3754    1.7653   -0.0648 H   0  0  0  0  0  0  0  0  0  0  0  0
    6.1257   -0.0436    1.8998 H   0  0  0  0  0  0  0  0  0  0  0  0
    4.7322   -3.3690   -0.4370 H   0  0  0  0  0  0  0  0  0  0  0  0
   -4.6596   -3.7569   -0.5908 H   0  0  0  0  0  0  0  0  0  0  0  0
   -6.6649   -2.6398   -1.5825 H   0  0  0  0  0  0  0  0  0  0  0  0
  1 26  1  0  0  0  0
  2 12  2  0  0  0  0
  3  7  1  0  0  0  0
  3 10  1  0  0  0  0
  3 12  1  0  0  0  0
  4  8  1  0  0  0  0
  4 11  1  0  0  0  0
  4 13  1  0  0  0  0
  5  9  1  0  0  0  0
  5 12  1  0  0  0  0
  5 14  1  0  0  0  0
  6 15  1  0  0  0  0
  6 24  2  0  0  0  0
  7  8  1  0  0  0  0
  7  9  1  0  0  0  0
  7 27  1  0  0  0  0
  8 28  1  0  0  0  0
  8 29  1  0  0  0  0
  9 30  1  0  0  0  0
  9 31  1  0  0  0  0
 10 11  1  0  0  0  0
 10 32  1  0  0  0  0
 10 33  1  0  0  0  0
 11 34  1  0  0  0  0
 11 35  1  0  0  0  0
 13 15  1  0  0  0  0
 13 36  1  0  0  0  0
 13 37  1  0  0  0  0
 14 16  1  0  0  0  0
 14 38  1  0  0  0  0
 14 39  1  0  0  0  0
 15 17  2  0  0  0  0
 16 18  2  0  0  0  0
 16 19  1  0  0  0  0
 17 20  1  0  0  0  0
 17 21  1  0  0  0  0
 18 22  1  0  0  0  0
 18 40  1  0  0  0  0
 19 23  2  0  0  0  0
 19 41  1  0  0  0  0
 20 25  2  0  0  0  0
 20 42  1  0  0  0  0
 21 43  1  0  0  0  0
 21 44  1  0  0  0  0
 21 45  1  0  0  0  0
 22 26  2  0  0  0  0
 22 46  1  0  0  0  0
 23 26  1  0  0  0  0
 23 47  1  0  0  0  0
 24 25  1  0  0  0  0
 24 48  1  0  0  0  0
 25 49  1  0  0  0  0
M  END
> <PUBCHEM_COMPOUND_CID>
75537095

> <PUBCHEM_CONFORMER_RMSD>
0.8

> <PUBCHEM_CONFORMER_DIVERSEORDER>
1
33
62
82
72
9
95
28
89
76
61
27
92
70
45
75
79
77
40
50
94
68
86
84
56
96
10
32
34
29
64
24
8
44
90
21
43
36
17
52
85
69
41
31
87
59
57
47
20
88
5
46
42
60
26
78
81
35
15
74
13
83
37
91
16
30
38
7
93
18
49
39
55
58
25
12
65
67
53
63
71
51
23
80
22
4
48
66
19
54
73
11
14
2
3
6

> <PUBCHEM_MMFF94_PARTIAL_CHARGES>
33
1 -0.19
10 0.3
11 0.27
12 0.69
13 0.41
14 0.44
15 0.17
16 -0.14
17 -0.14
18 -0.15
19 -0.15
2 -0.57
20 -0.15
21 0.14
22 -0.15
23 -0.15
24 0.16
25 -0.15
26 0.19
3 -0.66
4 -0.81
40 0.15
41 0.15
42 0.15
46 0.15
47 0.15
48 0.15
49 0.15
5 -0.66
6 -0.62
7 0.3
8 0.27
9 0.3

> <PUBCHEM_EFFECTIVE_ROTOR_COUNT>
5.2

> <PUBCHEM_PHARMACOPHORE_FEATURES>
7
1 2 acceptor
1 4 cation
1 6 acceptor
5 3 5 7 9 12 rings
6 16 18 19 22 23 26 rings
6 3 4 7 8 10 11 rings
6 6 15 17 20 24 25 rings

> <PUBCHEM_HEAVY_ATOM_COUNT>
26

> <PUBCHEM_ATOM_DEF_STEREO_COUNT>
1

> <PUBCHEM_ATOM_UDEF_STEREO_COUNT>
0

> <PUBCHEM_BOND_DEF_STEREO_COUNT>
0

> <PUBCHEM_BOND_UDEF_STEREO_COUNT>
0

> <PUBCHEM_ISOTOPIC_ATOM_COUNT>
0

> <PUBCHEM_COMPONENT_COUNT>
1

> <PUBCHEM_CACTVS_TAUTO_COUNT>
1

> <PUBCHEM_CONFORMER_ID>
04809AC700000001

> <PUBCHEM_MMFF94_ENERGY>
63.379

> <PUBCHEM_FEATURE_SELFOVERLAP>
35.618

> <PUBCHEM_SHAPE_FINGERPRINT>
10447042 23 18333735736595246940
10721379 63 8213882400498686432
11796584 16 17313105293050877816
11809386 21 18340208587814127043
11963148 33 17407388608902979719
1200032 147 12247669514261488458
12390115 104 11818990778040880709
12422481 6 17203333286228369317
12596602 18 17775569728164967034
12760667 363 18187365389645699698
12839892 36 17846505815694252815
12892183 10 17346038845143043848
12895836 83 8502357937329675386
13533116 47 18407761452189096512
13761468 95 17242439522770192493
13782708 43 17968668245532447811
13885169 86 11383534729393594802
14251740 57 18059304171448836678
14251751 18 18409726274798197661
14347332 77 18270120244792105167
1454969 45 18336836381377675372
14848178 5 18334859424251300346
15163728 17 9871458842737639840
15183329 4 16081084874755213317
15188451 53 18411412878612339194
17349148 13 18338250313721254039
17857418 61 18410295826032034863
18222031 100 18272384065628343564
1979834 28 17561093496555953950
20028762 73 18412544284836911550
20567600 234 15769488815571930616
21458453 9 15697136604005514674
21728266 224 18342461434918876321
21987440 362 17103118089169067941
22061861 79 16877944957634471487
22079108 93 14117795808339227396
23559900 14 18337394971106074977
23572383 38 18131077008864869951
2838139 119 11312057630397658834
3004659 81 18334868229076520078
312425 54 17416981533763075594
339767 52 18272087201757547703
376196 1 14638558798137014580
38570 142 10879991393773748136
3886686 26 17264699010545165962
4339292 15 16806158841250802098
439807 62 18264492970135815015
463206 1 18260835916181496483
5085150 59 17988923362829441951
5104073 3 17988374779409282833
531348 171 18187079538914836247
559249 180 18410573968868497683
7808743 9 8502368910723417657
8988823 20 18411418457838348708
960060 61 17385733521018320302
96874 4 18335412457189117074

> <PUBCHEM_SHAPE_MULTIPOLES>
502
16.47
3.09
1.41
2.14
0
-0.04
-13.02
-1.85
-0.35
-0.41
-0.96
-0.05
-2.17

> <PUBCHEM_SHAPE_SELFOVERLAP>
1080.784

> <PUBCHEM_SHAPE_VOLUME>
278.6

> <PUBCHEM_COORDINATE_TYPE>
2
5
10

$$$$
