75368646
  -OEChem-12032416393D

 42 45  0     1  0  0  0  0  0999 V2000
    5.3073    1.3138    0.0377 O   0  0  0  0  0  0  0  0  0  0  0  0
    3.0369    0.7153   -0.0387 N   0  0  0  0  0  0  0  0  0  0  0  0
    0.3671    0.4327    0.8000 N   0  0  2  0  0  0  0  0  0  0  0  0
    4.5555   -0.7788   -0.7495 N   0  0  0  0  0  0  0  0  0  0  0  0
   -3.9539   -1.8507   -0.3705 N   0  0  0  0  0  0  0  0  0  0  0  0
    2.2498   -0.3829   -0.5594 C   0  0  2  0  0  0  0  0  0  0  0  0
    1.1492   -0.7645    0.4300 C   0  0  0  0  0  0  0  0  0  0  0  0
    3.2832   -1.4764   -0.8231 C   0  0  0  0  0  0  0  0  0  0  0  0
    2.3623    1.8824    0.4902 C   0  0  0  0  0  0  0  0  0  0  0  0
    1.2312    1.4528    1.4278 C   0  0  0  0  0  0  0  0  0  0  0  0
    4.4125    0.5200   -0.2211 C   0  0  0  0  0  0  0  0  0  0  0  0
   -0.7269    0.0681    1.6998 C   0  0  0  0  0  0  0  0  0  0  0  0
    5.8083   -1.4359   -1.0501 C   0  0  0  0  0  0  0  0  0  0  0  0
   -1.8715   -0.5720    0.9602 C   0  0  0  0  0  0  0  0  0  0  0  0
   -2.7754    0.1746    0.1925 C   0  0  0  0  0  0  0  0  0  0  0  0
   -2.0111   -1.9489    1.0596 C   0  0  0  0  0  0  0  0  0  0  0  0
   -3.8159   -0.5147   -0.4650 C   0  0  0  0  0  0  0  0  0  0  0  0
   -2.6613    1.5699    0.0717 C   0  0  0  0  0  0  0  0  0  0  0  0
   -3.0603   -2.5345    0.3805 C   0  0  0  0  0  0  0  0  0  0  0  0
   -4.7136    0.2275   -1.2275 C   0  0  0  0  0  0  0  0  0  0  0  0
   -3.5731    2.2872   -0.6974 C   0  0  0  0  0  0  0  0  0  0  0  0
   -4.6004    1.6149   -1.3477 C   0  0  0  0  0  0  0  0  0  0  0  0
    1.8125   -0.0427   -1.5073 H   0  0  0  0  0  0  0  0  0  0  0  0
    0.5195   -1.5189   -0.0532 H   0  0  0  0  0  0  0  0  0  0  0  0
    1.5867   -1.2233    1.3271 H   0  0  0  0  0  0  0  0  0  0  0  0
    3.2782   -2.2600   -0.0585 H   0  0  0  0  0  0  0  0  0  0  0  0
    3.1607   -1.9284   -1.8118 H   0  0  0  0  0  0  0  0  0  0  0  0
    1.9632    2.4421   -0.3635 H   0  0  0  0  0  0  0  0  0  0  0  0
    3.0852    2.5215    1.0070 H   0  0  0  0  0  0  0  0  0  0  0  0
    1.6598    1.0609    2.3600 H   0  0  0  0  0  0  0  0  0  0  0  0
    0.6436    2.3425    1.6840 H   0  0  0  0  0  0  0  0  0  0  0  0
   -0.3694   -0.5881    2.5066 H   0  0  0  0  0  0  0  0  0  0  0  0
   -1.1179    0.9452    2.2329 H   0  0  0  0  0  0  0  0  0  0  0  0
    5.9446   -2.2676   -0.3538 H   0  0  0  0  0  0  0  0  0  0  0  0
    6.6392   -0.7339   -0.9440 H   0  0  0  0  0  0  0  0  0  0  0  0
    5.7727   -1.8131   -2.0753 H   0  0  0  0  0  0  0  0  0  0  0  0
   -1.3305   -2.5578    1.6442 H   0  0  0  0  0  0  0  0  0  0  0  0
   -1.8748    2.1372    0.5597 H   0  0  0  0  0  0  0  0  0  0  0  0
   -3.2194   -3.6070    0.4210 H   0  0  0  0  0  0  0  0  0  0  0  0
   -5.5272   -0.2755   -1.7469 H   0  0  0  0  0  0  0  0  0  0  0  0
   -3.4820    3.3652   -0.7891 H   0  0  0  0  0  0  0  0  0  0  0  0
   -5.3163    2.1666   -1.9500 H   0  0  0  0  0  0  0  0  0  0  0  0
  1 11  2  0  0  0  0
  2  6  1  0  0  0  0
  2  9  1  0  0  0  0
  2 11  1  0  0  0  0
  3  7  1  0  0  0  0
  3 10  1  0  0  0  0
  3 12  1  0  0  0  0
  4  8  1  0  0  0  0
  4 11  1  0  0  0  0
  4 13  1  0  0  0  0
  5 17  1  0  0  0  0
  5 19  2  0  0  0  0
  6  7  1  0  0  0  0
  6  8  1  0  0  0  0
  6 23  1  0  0  0  0
  7 24  1  0  0  0  0
  7 25  1  0  0  0  0
  8 26  1  0  0  0  0
  8 27  1  0  0  0  0
  9 10  1  0  0  0  0
  9 28  1  0  0  0  0
  9 29  1  0  0  0  0
 10 30  1  0  0  0  0
 10 31  1  0  0  0  0
 12 14  1  0  0  0  0
 12 32  1  0  0  0  0
 12 33  1  0  0  0  0
 13 34  1  0  0  0  0
 13 35  1  0  0  0  0
 13 36  1  0  0  0  0
 14 15  1  0  0  0  0
 14 16  2  0  0  0  0
 15 17  1  0  0  0  0
 15 18  2  0  0  0  0
 16 19  1  0  0  0  0
 16 37  1  0  0  0  0
 17 20  2  0  0  0  0
 18 21  1  0  0  0  0
 18 38  1  0  0  0  0
 19 39  1  0  0  0  0
 20 22  1  0  0  0  0
 20 40  1  0  0  0  0
 21 22  2  0  0  0  0
 21 41  1  0  0  0  0
 22 42  1  0  0  0  0
M  END
> <PUBCHEM_COMPOUND_CID>
75368646

> <PUBCHEM_CONFORMER_RMSD>
0.6

> <PUBCHEM_CONFORMER_DIVERSEORDER>
1
31
27
28
21
7
10
33
22
19
9
13
6
25
14
32
30
16
11
5
24
3
26
12
18
20
23
29
2
4
15
17
8

> <PUBCHEM_MMFF94_PARTIAL_CHARGES>
27
1 -0.57
10 0.27
11 0.69
12 0.41
13 0.3
14 -0.14
16 -0.15
17 0.31
18 -0.15
19 0.16
2 -0.66
20 -0.15
21 -0.15
22 -0.15
3 -0.81
37 0.15
38 0.15
39 0.15
4 -0.66
40 0.15
41 0.15
42 0.15
5 -0.62
6 0.3
7 0.27
8 0.3
9 0.3

> <PUBCHEM_EFFECTIVE_ROTOR_COUNT>
3.2

> <PUBCHEM_PHARMACOPHORE_FEATURES>
7
1 1 acceptor
1 3 cation
1 5 acceptor
5 2 4 6 8 11 rings
6 15 17 18 20 21 22 rings
6 2 3 6 7 9 10 rings
6 5 14 15 16 17 19 rings

> <PUBCHEM_HEAVY_ATOM_COUNT>
22

> <PUBCHEM_ATOM_DEF_STEREO_COUNT>
1

> <PUBCHEM_ATOM_UDEF_STEREO_COUNT>
0

> <PUBCHEM_BOND_DEF_STEREO_COUNT>
0

> <PUBCHEM_BOND_UDEF_STEREO_COUNT>
0

> <PUBCHEM_ISOTOPIC_ATOM_COUNT>
0

> <PUBCHEM_COMPONENT_COUNT>
1

> <PUBCHEM_CACTVS_TAUTO_COUNT>
1

> <PUBCHEM_CONFORMER_ID>
047E08C600000001

> <PUBCHEM_MMFF94_ENERGY>
61.3852

> <PUBCHEM_FEATURE_SELFOVERLAP>
35.649

> <PUBCHEM_SHAPE_FINGERPRINT>
10447042 23 17775283859684346196
10498660 4 17895181174408450941
10670039 82 17604143710378927701
10730089 88 18411418397613601173
107951 10 18186523177146731195
10803635 8 18335703806100130902
11370993 70 18409165506472391751
12788726 201 17129304152205042585
13544653 18 16702027443928992370
13944108 23 16748448562835590189
14251740 79 18341054029996874115
14251764 38 17823704251079738324
14341114 328 11887667390613142762
14573314 32 18407760343871029068
14790565 3 17836372549356680681
15183329 4 18335136441020237686
15463212 79 17821720637740205987
15788980 27 18113341907725260514
15961568 22 17751918275258812204
17349148 13 15841835559893606764
17870717 6 18412271618446896895
1813 80 14189571961791812281
18186145 218 18412820279397409561
18222031 100 15769776849528367080
19377110 9 13326565272840566538
19433438 38 18412265072753129394
19784866 240 15841544185349679221
200 152 17203611492835089907
20645477 56 18333450945946098529
20645477 70 17917999360741592710
20775530 9 16269083913022415887
20871999 31 18410851054093304177
21065201 7 18261106413284699338
21120745 212 13049941387979966977
21756936 100 16298394539007514561
221357 26 18342171185498085765
221490 88 18270405013385849914
22393880 68 18409165511089105698
23402539 116 17822004333209480188
23557571 272 18188769590812100529
23559900 14 18341606044747600264
312423 11 13038897893190545475
4028521 119 18186795868751167541
44062 13 18411982468279602367
46194498 28 18263928915320179309
4921388 177 18041285451917171083
5161694 15 18410573981020079125
5281201 14 18337957890757036468
5283173 99 18409446943163531680
59755656 520 18340213986455857497
633830 44 16226058803309276358
9709674 26 18339356491365100489

> <PUBCHEM_SHAPE_MULTIPOLES>
426.96
11.92
2.37
1.31
9.28
0.27
-0.17
0.06
5.86
-1.57
-0.03
-0.36
-0.07
1.85

> <PUBCHEM_SHAPE_SELFOVERLAP>
930.504

> <PUBCHEM_SHAPE_VOLUME>
233.1

> <PUBCHEM_COORDINATE_TYPE>
2
5
10

$$$$
