11865843
  -OEChem-12032416403D

 60 61  0     1  0  0  0  0  0999 V2000
    5.3676    2.0995    0.5905 S   0  0  0  0  0  0  0  0  0  0  0  0
    1.0013    2.0517    0.8682 O   0  0  0  0  0  0  0  0  0  0  0  0
    3.2409    0.8290   -1.6566 O   0  0  0  0  0  0  0  0  0  0  0  0
   -1.2652   -2.7743    0.1492 O   0  0  0  0  0  0  0  0  0  0  0  0
   -0.0761    2.7632   -2.8989 O   0  0  0  0  0  0  0  0  0  0  0  0
    2.6786    0.0243    0.4397 N   0  0  0  0  0  0  0  0  0  0  0  0
    0.8858   -2.4876    0.9755 N   0  0  0  0  0  0  0  0  0  0  0  0
   -0.4913    1.1794   -0.6907 N   0  0  0  0  0  0  0  0  0  0  0  0
    0.2268   -4.5504    0.2023 N   0  0  0  0  0  0  0  0  0  0  0  0
   -0.8575    4.5657   -1.7086 N   0  0  0  0  0  0  0  0  0  0  0  0
    0.7704   -1.0866    1.3043 C   0  0  2  0  0  0  0  0  0  0  0  0
    1.2669   -0.2112    0.1537 C   0  0  1  0  0  0  0  0  0  0  0  0
    1.6955   -0.7090    2.4644 C   0  0  0  0  0  0  0  0  0  0  0  0
    3.0283   -0.4173    1.7870 C   0  0  0  0  0  0  0  0  0  0  0  0
    0.6007    1.1325    0.1590 C   0  0  0  0  0  0  0  0  0  0  0  0
    3.5705    0.4627   -0.5272 C   0  0  0  0  0  0  0  0  0  0  0  0
   -1.3184    2.3534   -0.8510 C   0  0  2  0  0  0  0  0  0  0  0  0
   -0.1537   -3.2283    0.4179 C   0  0  0  0  0  0  0  0  0  0  0  0
    5.0206    0.4813   -0.1137 C   0  0  0  0  0  0  0  0  0  0  0  0
   -2.7556    1.9998   -1.2498 C   0  0  0  0  0  0  0  0  0  0  0  0
   -0.6681    3.2165   -1.9223 C   0  0  0  0  0  0  0  0  0  0  0  0
   -3.5931    1.5501   -0.0775 C   0  0  0  0  0  0  0  0  0  0  0  0
   -0.6605   -5.5372   -0.3670 C   0  0  0  0  0  0  0  0  0  0  0  0
   -3.6433    0.1990    0.2661 C   0  0  0  0  0  0  0  0  0  0  0  0
   -4.3164    2.4853    0.6628 C   0  0  0  0  0  0  0  0  0  0  0  0
    7.1164    1.8607    0.9913 C   0  0  0  0  0  0  0  0  0  0  0  0
   -0.5094   -5.5299   -1.8519 C   0  0  0  0  0  0  0  0  0  0  0  0
   -4.4171   -0.2169    1.3496 C   0  0  0  0  0  0  0  0  0  0  0  0
   -5.0900    2.0693    1.7465 C   0  0  0  0  0  0  0  0  0  0  0  0
   -5.1403    0.7182    2.0898 C   0  0  0  0  0  0  0  0  0  0  0  0
   -1.5145   -5.2930   -2.7025 C   0  0  0  0  0  0  0  0  0  0  0  0
   -0.2752   -0.8815    1.5611 H   0  0  0  0  0  0  0  0  0  0  0  0
    1.1710   -0.6824   -0.8315 H   0  0  0  0  0  0  0  0  0  0  0  0
    1.7820   -1.4836    3.2326 H   0  0  0  0  0  0  0  0  0  0  0  0
    1.3258    0.2040    2.9470 H   0  0  0  0  0  0  0  0  0  0  0  0
    3.6041    0.3438    2.3187 H   0  0  0  0  0  0  0  0  0  0  0  0
    3.6273   -1.3306    1.7036 H   0  0  0  0  0  0  0  0  0  0  0  0
    1.7857   -2.9422    1.0971 H   0  0  0  0  0  0  0  0  0  0  0  0
   -0.6995    0.3710   -1.2701 H   0  0  0  0  0  0  0  0  0  0  0  0
   -1.3065    2.9085    0.0960 H   0  0  0  0  0  0  0  0  0  0  0  0
    5.2669   -0.3196    0.5855 H   0  0  0  0  0  0  0  0  0  0  0  0
    5.6306    0.3317   -1.0111 H   0  0  0  0  0  0  0  0  0  0  0  0
   -3.2459    2.8692   -1.7086 H   0  0  0  0  0  0  0  0  0  0  0  0
   -2.7652    1.2250   -2.0285 H   0  0  0  0  0  0  0  0  0  0  0  0
    1.1740   -4.8305    0.4382 H   0  0  0  0  0  0  0  0  0  0  0  0
   -0.3699   -6.5135    0.0328 H   0  0  0  0  0  0  0  0  0  0  0  0
   -1.6889   -5.3266   -0.0547 H   0  0  0  0  0  0  0  0  0  0  0  0
   -3.0854   -0.5391   -0.3036 H   0  0  0  0  0  0  0  0  0  0  0  0
   -4.2832    3.5409    0.4067 H   0  0  0  0  0  0  0  0  0  0  0  0
   -0.4863    5.2525   -2.3567 H   0  0  0  0  0  0  0  0  0  0  0  0
   -1.3696    4.9250   -0.9092 H   0  0  0  0  0  0  0  0  0  0  0  0
    7.5109    2.7756    1.4412 H   0  0  0  0  0  0  0  0  0  0  0  0
    7.6880    1.6438    0.0852 H   0  0  0  0  0  0  0  0  0  0  0  0
    7.2339    1.0425    1.7065 H   0  0  0  0  0  0  0  0  0  0  0  0
   -4.4558   -1.2688    1.6170 H   0  0  0  0  0  0  0  0  0  0  0  0
   -5.6526    2.7974    2.3234 H   0  0  0  0  0  0  0  0  0  0  0  0
    0.4751   -5.7456   -2.2598 H   0  0  0  0  0  0  0  0  0  0  0  0
   -5.7424    0.3945    2.9337 H   0  0  0  0  0  0  0  0  0  0  0  0
   -1.3432   -5.3089   -3.7733 H   0  0  0  0  0  0  0  0  0  0  0  0
   -2.5175   -5.0794   -2.3501 H   0  0  0  0  0  0  0  0  0  0  0  0
  1 19  1  0  0  0  0
  1 26  1  0  0  0  0
  2 15  2  0  0  0  0
  3 16  2  0  0  0  0
  4 18  2  0  0  0  0
  5 21  2  0  0  0  0
  6 12  1  0  0  0  0
  6 14  1  0  0  0  0
  6 16  1  0  0  0  0
  7 11  1  0  0  0  0
  7 18  1  0  0  0  0
  7 38  1  0  0  0  0
  8 15  1  0  0  0  0
  8 17  1  0  0  0  0
  8 39  1  0  0  0  0
  9 18  1  0  0  0  0
  9 23  1  0  0  0  0
  9 45  1  0  0  0  0
 10 21  1  0  0  0  0
 10 50  1  0  0  0  0
 10 51  1  0  0  0  0
 11 12  1  0  0  0  0
 11 13  1  0  0  0  0
 11 32  1  0  0  0  0
 12 15  1  0  0  0  0
 12 33  1  0  0  0  0
 13 14  1  0  0  0  0
 13 34  1  0  0  0  0
 13 35  1  0  0  0  0
 14 36  1  0  0  0  0
 14 37  1  0  0  0  0
 16 19  1  0  0  0  0
 17 20  1  0  0  0  0
 17 21  1  0  0  0  0
 17 40  1  0  0  0  0
 19 41  1  0  0  0  0
 19 42  1  0  0  0  0
 20 22  1  0  0  0  0
 20 43  1  0  0  0  0
 20 44  1  0  0  0  0
 22 24  2  0  0  0  0
 22 25  1  0  0  0  0
 23 27  1  0  0  0  0
 23 46  1  0  0  0  0
 23 47  1  0  0  0  0
 24 28  1  0  0  0  0
 24 48  1  0  0  0  0
 25 29  2  0  0  0  0
 25 49  1  0  0  0  0
 26 52  1  0  0  0  0
 26 53  1  0  0  0  0
 26 54  1  0  0  0  0
 27 31  2  0  0  0  0
 27 57  1  0  0  0  0
 28 30  2  0  0  0  0
 28 55  1  0  0  0  0
 29 30  1  0  0  0  0
 29 56  1  0  0  0  0
 30 58  1  0  0  0  0
 31 59  1  0  0  0  0
 31 60  1  0  0  0  0
M  END
> <PUBCHEM_COMPOUND_CID>
11865843

> <PUBCHEM_CONFORMER_RMSD>
1.2

> <PUBCHEM_CONFORMER_DIVERSEORDER>
1
15
5
23
12
7
10
17
6
9
24
16
21
13
20
19
8
14
2
3
22
18
4
11

> <PUBCHEM_MMFF94_PARTIAL_CHARGES>
43
1 -0.46
10 -0.8
11 0.3
12 0.36
14 0.3
15 0.57
16 0.57
17 0.36
18 0.69
19 0.29
2 -0.57
20 0.14
21 0.57
22 -0.14
23 0.44
24 -0.15
25 -0.15
26 0.23
27 -0.29
28 -0.15
29 -0.15
3 -0.57
30 -0.15
31 -0.3
38 0.37
39 0.37
4 -0.57
45 0.37
48 0.15
49 0.15
5 -0.57
50 0.37
51 0.37
55 0.15
56 0.15
57 0.15
58 0.15
59 0.15
6 -0.66
60 0.15
7 -0.73
8 -0.73
9 -0.73

> <PUBCHEM_EFFECTIVE_ROTOR_COUNT>
15

> <PUBCHEM_PHARMACOPHORE_FEATURES>
12
1 10 donor
1 2 acceptor
1 26 hydrophobe
1 3 acceptor
1 31 hydrophobe
1 4 acceptor
1 5 acceptor
1 7 donor
1 8 donor
1 9 donor
5 6 11 12 13 14 rings
6 22 24 25 28 29 30 rings

> <PUBCHEM_HEAVY_ATOM_COUNT>
31

> <PUBCHEM_ATOM_DEF_STEREO_COUNT>
3

> <PUBCHEM_ATOM_UDEF_STEREO_COUNT>
0

> <PUBCHEM_BOND_DEF_STEREO_COUNT>
0

> <PUBCHEM_BOND_UDEF_STEREO_COUNT>
0

> <PUBCHEM_ISOTOPIC_ATOM_COUNT>
0

> <PUBCHEM_COMPONENT_COUNT>
1

> <PUBCHEM_CACTVS_TAUTO_COUNT>
12

> <PUBCHEM_CONFORMER_ID>
00B50EF300000001

> <PUBCHEM_MMFF94_ENERGY>
66.3449

> <PUBCHEM_FEATURE_SELFOVERLAP>
60.948

> <PUBCHEM_SHAPE_FINGERPRINT>
10815517 723 18196933498929668763
11115154 58 17405973541722696615
11331351 85 17550372377791019206
11445158 3 15213307490724377694
11488393 25 17903937555820421706
12166972 35 11026098875175733497
13757389 114 18266757933237408934
14856354 85 17458915936889448082
17349148 13 15502669156598006408
19315092 285 14822806937904549647
20771845 140 18192176891663978001
21344244 181 18128556898265326182
21365058 27 18270696297783320191
21857420 4 17335321114864935015
22440779 20 16096349167298970081
23559900 14 17541647327468874345
25019877 29 18271816734560438575
255183 313 18410012173723079386
3493558 16 17910398625516488352
392239 28 18041000656778480736
4461854 278 18194427643722337211
59554788 248 17972296452892495810
5969126 39 17836071648674471126
9709674 26 17538833686325647557

> <PUBCHEM_SHAPE_MULTIPOLES>
593.43
10.41
7.43
2.37
9.25
15.05
0.8
-11.2
-5.95
-4.79
5.92
-1.06
-0.15
-1.21

> <PUBCHEM_SHAPE_SELFOVERLAP>
1204.746

> <PUBCHEM_SHAPE_VOLUME>
346.1

> <PUBCHEM_COORDINATE_TYPE>
2
5
10

$$$$
