45783355
  -OEChem-12032416263D

 48 50  0     1  0  0  0  0  0999 V2000
   -2.4848    2.0768    0.8294 O   0  0  0  0  0  0  0  0  0  0  0  0
    3.8195   -0.5201   -0.4196 O   0  0  0  0  0  0  0  0  0  0  0  0
    5.7499   -2.3531    0.4451 O   0  0  0  0  0  0  0  0  0  0  0  0
   -3.8374   -1.0503   -0.0313 N   0  0  1  0  0  0  0  0  0  0  0  0
   -1.0869    0.3469    0.5645 N   0  0  0  0  0  0  0  0  0  0  0  0
   -1.2254    2.6305    0.5666 N   0  0  0  0  0  0  0  0  0  0  0  0
    3.6825    1.7962   -0.4199 N   0  0  0  0  0  0  0  0  0  0  0  0
   -3.5477   -0.1109    1.0703 C   0  0  1  0  0  0  0  0  0  0  0  0
   -3.4077   -1.0025    2.3180 C   0  0  0  0  0  0  0  0  0  0  0  0
   -4.5106   -2.2005    0.5723 C   0  0  0  0  0  0  0  0  0  0  0  0
   -3.6951   -2.4157    1.8313 C   0  0  0  0  0  0  0  0  0  0  0  0
   -4.6251   -0.4541   -1.1026 C   0  0  0  0  0  0  0  0  0  0  0  0
   -2.3146    0.7288    0.8104 C   0  0  0  0  0  0  0  0  0  0  0  0
   -4.4397   -1.2408   -2.3976 C   0  0  0  0  0  0  0  0  0  0  0  0
   -5.2357   -0.6254   -3.5382 C   0  0  0  0  0  0  0  0  0  0  0  0
   -0.4552    1.5480    0.4220 C   0  0  0  0  0  0  0  0  0  0  0  0
    0.9479    1.6320    0.1365 C   0  0  0  0  0  0  0  0  0  0  0  0
    1.7029    0.4725   -0.0026 C   0  0  0  0  0  0  0  0  0  0  0  0
    1.5587    2.8734   -0.0023 C   0  0  0  0  0  0  0  0  0  0  0  0
    3.0541    0.6076   -0.2781 C   0  0  0  0  0  0  0  0  0  0  0  0
    2.9163    2.9011   -0.2779 C   0  0  0  0  0  0  0  0  0  0  0  0
    5.2003   -0.3250   -0.7019 C   0  0  0  0  0  0  0  0  0  0  0  0
    5.8812   -1.6765   -0.7992 C   0  0  0  0  0  0  0  0  0  0  0  0
    6.3527   -3.6390    0.4047 C   0  0  0  0  0  0  0  0  0  0  0  0
   -4.4043    0.5581    1.2358 H   0  0  0  0  0  0  0  0  0  0  0  0
   -2.4240   -0.9481    2.7967 H   0  0  0  0  0  0  0  0  0  0  0  0
   -4.1587   -0.7125    3.0632 H   0  0  0  0  0  0  0  0  0  0  0  0
   -5.5530   -1.9788    0.8341 H   0  0  0  0  0  0  0  0  0  0  0  0
   -4.4858   -3.0868   -0.0685 H   0  0  0  0  0  0  0  0  0  0  0  0
   -4.2269   -3.0107    2.5796 H   0  0  0  0  0  0  0  0  0  0  0  0
   -2.7536   -2.9270    1.5949 H   0  0  0  0  0  0  0  0  0  0  0  0
   -5.6866   -0.3750   -0.8354 H   0  0  0  0  0  0  0  0  0  0  0  0
   -4.2776    0.5698   -1.2938 H   0  0  0  0  0  0  0  0  0  0  0  0
   -3.3787   -1.2658   -2.6748 H   0  0  0  0  0  0  0  0  0  0  0  0
   -4.7654   -2.2795   -2.2699 H   0  0  0  0  0  0  0  0  0  0  0  0
   -6.3061   -0.6162   -3.3093 H   0  0  0  0  0  0  0  0  0  0  0  0
   -4.9157    0.4038   -3.7299 H   0  0  0  0  0  0  0  0  0  0  0  0
   -5.0898   -1.2026   -4.4567 H   0  0  0  0  0  0  0  0  0  0  0  0
    1.2693   -0.5178    0.0973 H   0  0  0  0  0  0  0  0  0  0  0  0
    1.0212    3.8109    0.0953 H   0  0  0  0  0  0  0  0  0  0  0  0
    3.4405    3.8439   -0.3956 H   0  0  0  0  0  0  0  0  0  0  0  0
    5.6607    0.2486    0.1122 H   0  0  0  0  0  0  0  0  0  0  0  0
    5.3217    0.2101   -1.6512 H   0  0  0  0  0  0  0  0  0  0  0  0
    5.4023   -2.2766   -1.5817 H   0  0  0  0  0  0  0  0  0  0  0  0
    6.9418   -1.5450   -1.0404 H   0  0  0  0  0  0  0  0  0  0  0  0
    5.8679   -4.2668   -0.3491 H   0  0  0  0  0  0  0  0  0  0  0  0
    7.4232   -3.5547    0.1937 H   0  0  0  0  0  0  0  0  0  0  0  0
    6.2262   -4.1093    1.3835 H   0  0  0  0  0  0  0  0  0  0  0  0
  1  6  1  0  0  0  0
  1 13  1  0  0  0  0
  2 20  1  0  0  0  0
  2 22  1  0  0  0  0
  3 23  1  0  0  0  0
  3 24  1  0  0  0  0
  4  8  1  0  0  0  0
  4 10  1  0  0  0  0
  4 12  1  0  0  0  0
  5 13  2  0  0  0  0
  5 16  1  0  0  0  0
  6 16  2  0  0  0  0
  7 20  2  0  0  0  0
  7 21  1  0  0  0  0
  8  9  1  0  0  0  0
  8 13  1  0  0  0  0
  8 25  1  0  0  0  0
  9 11  1  0  0  0  0
  9 26  1  0  0  0  0
  9 27  1  0  0  0  0
 10 11  1  0  0  0  0
 10 28  1  0  0  0  0
 10 29  1  0  0  0  0
 11 30  1  0  0  0  0
 11 31  1  0  0  0  0
 12 14  1  0  0  0  0
 12 32  1  0  0  0  0
 12 33  1  0  0  0  0
 14 15  1  0  0  0  0
 14 34  1  0  0  0  0
 14 35  1  0  0  0  0
 15 36  1  0  0  0  0
 15 37  1  0  0  0  0
 15 38  1  0  0  0  0
 16 17  1  0  0  0  0
 17 18  2  0  0  0  0
 17 19  1  0  0  0  0
 18 20  1  0  0  0  0
 18 39  1  0  0  0  0
 19 21  2  0  0  0  0
 19 40  1  0  0  0  0
 21 41  1  0  0  0  0
 22 23  1  0  0  0  0
 22 42  1  0  0  0  0
 22 43  1  0  0  0  0
 23 44  1  0  0  0  0
 23 45  1  0  0  0  0
 24 46  1  0  0  0  0
 24 47  1  0  0  0  0
 24 48  1  0  0  0  0
M  END
> <PUBCHEM_COMPOUND_CID>
45783355

> <PUBCHEM_CONFORMER_RMSD>
1

> <PUBCHEM_CONFORMER_DIVERSEORDER>
1
35
14
41
26
37
46
42
40
29
10
47
3
20
36
21
30
39
5
43
15
9
49
7
8
48
23
38
16
45
25
28
18
44
24
34
11
22
17
32
31
33
27
2
4
13
6
19
12

> <PUBCHEM_MMFF94_PARTIAL_CHARGES>
23
1 -0.02
10 0.27
12 0.27
13 0.3
16 0.46
17 0.05
18 -0.15
19 -0.15
2 -0.36
20 0.39
21 0.16
22 0.28
23 0.28
24 0.28
3 -0.56
39 0.15
4 -0.81
40 0.15
41 0.15
5 -0.57
6 -0.41
7 -0.62
8 0.45

> <PUBCHEM_EFFECTIVE_ROTOR_COUNT>
9

> <PUBCHEM_PHARMACOPHORE_FEATURES>
7
1 15 hydrophobe
1 3 acceptor
1 4 cation
3 5 6 16 cation
5 1 5 6 13 16 rings
5 4 8 9 10 11 rings
6 7 17 18 19 20 21 rings

> <PUBCHEM_HEAVY_ATOM_COUNT>
24

> <PUBCHEM_ATOM_DEF_STEREO_COUNT>
1

> <PUBCHEM_ATOM_UDEF_STEREO_COUNT>
0

> <PUBCHEM_BOND_DEF_STEREO_COUNT>
0

> <PUBCHEM_BOND_UDEF_STEREO_COUNT>
0

> <PUBCHEM_ISOTOPIC_ATOM_COUNT>
0

> <PUBCHEM_COMPONENT_COUNT>
1

> <PUBCHEM_CACTVS_TAUTO_COUNT>
1

> <PUBCHEM_CONFORMER_ID>
02BA993B00000001

> <PUBCHEM_MMFF94_ENERGY>
42.5978

> <PUBCHEM_FEATURE_SELFOVERLAP>
35.522

> <PUBCHEM_SHAPE_FINGERPRINT>
11135609 201 8934417649829477734
11796584 16 17676478484520903936
12107183 9 18196959711109757025
12422481 6 17203057266282332102
12523318 42 15267345137102134791
12633257 1 16199888266030833425
13955234 65 18125450949868778640
14848178 5 18335139800016920866
14848178 96 8646490666073112606
15163728 17 13406789995571922321
15188451 53 16559022809905082431
17492 89 18336837480018585752
17857418 61 18131632292106001510
19032999 76 15625369281701256813
20028762 73 17775280560991916318
20645477 70 18263925608274489097
21033650 10 16081363064314493125
22393880 68 17676199221273047891
23559900 14 18334295400424413912
312425 83 16588596421101470046
314194 84 18271813445084636884
32027 91 18335136488544505170
3552219 110 11386667225826738377
3882209 13 17175711188029485394
46194498 28 17244140746019304517
50009960 94 13683160099784979733
5104073 3 18201732734177919896
559249 180 18340491041515743849
57634706 280 13036703161774049875
5937810 71 8861785042109710266
602551 16 15122962836103961517
636775 72 9076532775623409710
6431902 208 18410017615605489754
7970288 3 18267030646460594211

> <PUBCHEM_SHAPE_MULTIPOLES>
456.38
15.03
3.68
2.09
13.25
0.47
1.69
15.47
5.25
5.16
-0.94
-5.64
1.13
-0.23

> <PUBCHEM_SHAPE_SELFOVERLAP>
951.077

> <PUBCHEM_SHAPE_VOLUME>
261.8

> <PUBCHEM_COORDINATE_TYPE>
2
5
10

$$$$
