75366958
  -OEChem-12032416393D

 56 58  0     1  0  0  0  0  0999 V2000
    3.2074   -0.3584    0.3514 O   0  0  0  0  0  0  0  0  0  0  0  0
    5.9824    0.0521    1.2565 O   0  0  0  0  0  0  0  0  0  0  0  0
   -0.8093   -1.6321   -1.4194 O   0  0  0  0  0  0  0  0  0  0  0  0
    0.4120    2.1234   -0.6071 O   0  0  0  0  0  0  0  0  0  0  0  0
   -1.4931   -2.5350    1.7795 O   0  0  0  0  0  0  0  0  0  0  0  0
   -5.9864    1.0374   -1.1096 O   0  0  0  0  0  0  0  0  0  0  0  0
    1.3776    1.5229    1.4075 N   0  0  0  0  0  0  0  0  0  0  0  0
    0.3422   -1.1744   -2.0482 N   0  0  0  0  0  0  0  0  0  0  0  0
   -0.8852    1.1859    1.1102 N   0  0  0  0  0  0  0  0  0  0  0  0
    3.3102   -0.1544   -1.0599 C   0  0  1  0  0  0  0  0  0  0  0  0
    3.6710    0.7306    1.1604 C   0  0  1  0  0  0  0  0  0  0  0  0
    5.1189    1.1041    0.8174 C   0  0  2  0  0  0  0  0  0  0  0  0
    4.7609    0.1053   -1.4626 C   0  0  0  0  0  0  0  0  0  0  0  0
    5.3325    1.2860   -0.6829 C   0  0  0  0  0  0  0  0  0  0  0  0
    2.7727   -1.4054   -1.7441 C   0  0  0  0  0  0  0  0  0  0  0  0
    2.7145    1.9188    1.0841 C   0  0  0  0  0  0  0  0  0  0  0  0
    1.3511   -1.6935   -1.3426 C   0  0  0  0  0  0  0  0  0  0  0  0
    0.9014   -2.4796   -0.2676 C   0  0  0  0  0  0  0  0  0  0  0  0
    0.2932    1.6543    0.5223 C   0  0  0  0  0  0  0  0  0  0  0  0
   -0.4634   -2.4082   -0.3606 C   0  0  0  0  0  0  0  0  0  0  0  0
   -1.5665   -2.9787    0.4219 C   0  0  0  0  0  0  0  0  0  0  0  0
   -2.1815    1.1483    0.5457 C   0  0  0  0  0  0  0  0  0  0  0  0
   -3.2500    0.6430    1.2864 C   0  0  0  0  0  0  0  0  0  0  0  0
   -2.3917    1.6165   -0.7513 C   0  0  0  0  0  0  0  0  0  0  0  0
   -4.5285    0.6056    0.7302 C   0  0  0  0  0  0  0  0  0  0  0  0
   -3.6702    1.5791   -1.3077 C   0  0  0  0  0  0  0  0  0  0  0  0
   -2.5512   -3.0754    2.5535 C   0  0  0  0  0  0  0  0  0  0  0  0
   -4.7386    1.0737   -0.5670 C   0  0  0  0  0  0  0  0  0  0  0  0
   -7.0326    0.5084   -0.2963 C   0  0  0  0  0  0  0  0  0  0  0  0
    2.6870    0.6993   -1.3493 H   0  0  0  0  0  0  0  0  0  0  0  0
    3.6510    0.3440    2.1875 H   0  0  0  0  0  0  0  0  0  0  0  0
    5.4171    2.0089    1.3586 H   0  0  0  0  0  0  0  0  0  0  0  0
    4.8322    0.2997   -2.5387 H   0  0  0  0  0  0  0  0  0  0  0  0
    5.3701   -0.7827   -1.2511 H   0  0  0  0  0  0  0  0  0  0  0  0
    6.4006    1.3794   -0.9115 H   0  0  0  0  0  0  0  0  0  0  0  0
    4.8467    2.2099   -1.0177 H   0  0  0  0  0  0  0  0  0  0  0  0
    3.3830   -2.2758   -1.4689 H   0  0  0  0  0  0  0  0  0  0  0  0
    2.8355   -1.3013   -2.8343 H   0  0  0  0  0  0  0  0  0  0  0  0
    2.7311    2.3924    0.0986 H   0  0  0  0  0  0  0  0  0  0  0  0
    3.0090    2.6808    1.8141 H   0  0  0  0  0  0  0  0  0  0  0  0
    6.8971    0.3273    1.0742 H   0  0  0  0  0  0  0  0  0  0  0  0
    1.1955    1.1692    2.3417 H   0  0  0  0  0  0  0  0  0  0  0  0
    1.4814   -3.0186    0.4669 H   0  0  0  0  0  0  0  0  0  0  0  0
   -2.5325   -2.6789   -0.0017 H   0  0  0  0  0  0  0  0  0  0  0  0
   -1.5047   -4.0730    0.3951 H   0  0  0  0  0  0  0  0  0  0  0  0
   -0.8098    0.8251    2.0579 H   0  0  0  0  0  0  0  0  0  0  0  0
   -3.0984    0.2747    2.2979 H   0  0  0  0  0  0  0  0  0  0  0  0
   -1.6160    2.0199   -1.3865 H   0  0  0  0  0  0  0  0  0  0  0  0
   -5.3123    0.1996    1.3605 H   0  0  0  0  0  0  0  0  0  0  0  0
   -3.8290    1.9444   -2.3188 H   0  0  0  0  0  0  0  0  0  0  0  0
   -2.4526   -2.7056    3.5776 H   0  0  0  0  0  0  0  0  0  0  0  0
   -2.4963   -4.1682    2.5714 H   0  0  0  0  0  0  0  0  0  0  0  0
   -3.5204   -2.7534    2.1601 H   0  0  0  0  0  0  0  0  0  0  0  0
   -7.1936    1.1180    0.5993 H   0  0  0  0  0  0  0  0  0  0  0  0
   -6.8608   -0.5462   -0.0554 H   0  0  0  0  0  0  0  0  0  0  0  0
   -7.9547    0.5555   -0.8849 H   0  0  0  0  0  0  0  0  0  0  0  0
  1 10  1  0  0  0  0
  1 11  1  0  0  0  0
  2 12  1  0  0  0  0
  2 41  1  0  0  0  0
  3  8  1  0  0  0  0
  3 20  1  0  0  0  0
  4 19  2  0  0  0  0
  5 21  1  0  0  0  0
  5 27  1  0  0  0  0
  6 28  1  0  0  0  0
  6 29  1  0  0  0  0
  7 16  1  0  0  0  0
  7 19  1  0  0  0  0
  7 42  1  0  0  0  0
  8 17  2  0  0  0  0
  9 19  1  0  0  0  0
  9 22  1  0  0  0  0
  9 46  1  0  0  0  0
 10 13  1  0  0  0  0
 10 15  1  0  0  0  0
 10 30  1  0  0  0  0
 11 12  1  0  0  0  0
 11 16  1  0  0  0  0
 11 31  1  0  0  0  0
 12 14  1  0  0  0  0
 12 32  1  0  0  0  0
 13 14  1  0  0  0  0
 13 33  1  0  0  0  0
 13 34  1  0  0  0  0
 14 35  1  0  0  0  0
 14 36  1  0  0  0  0
 15 17  1  0  0  0  0
 15 37  1  0  0  0  0
 15 38  1  0  0  0  0
 16 39  1  0  0  0  0
 16 40  1  0  0  0  0
 17 18  1  0  0  0  0
 18 20  2  0  0  0  0
 18 43  1  0  0  0  0
 20 21  1  0  0  0  0
 21 44  1  0  0  0  0
 21 45  1  0  0  0  0
 22 23  2  0  0  0  0
 22 24  1  0  0  0  0
 23 25  1  0  0  0  0
 23 47  1  0  0  0  0
 24 26  2  0  0  0  0
 24 48  1  0  0  0  0
 25 28  2  0  0  0  0
 25 49  1  0  0  0  0
 26 28  1  0  0  0  0
 26 50  1  0  0  0  0
 27 51  1  0  0  0  0
 27 52  1  0  0  0  0
 27 53  1  0  0  0  0
 29 54  1  0  0  0  0
 29 55  1  0  0  0  0
 29 56  1  0  0  0  0
M  END
> <PUBCHEM_COMPOUND_CID>
75366958

> <PUBCHEM_CONFORMER_RMSD>
1

> <PUBCHEM_CONFORMER_DIVERSEORDER>
1
105
25
75
53
36
8
153
140
121
43
78
21
72
70
116
141
119
82
62
49
107
20
86
102
60
133
104
155
151
139
98
114
13
57
95
132
130
65
27
40
143
113
94
33
136
23
10
89
135
90
154
34
146
42
127
45
159
30
149
103
91
83
74
84
160
156
80
52
87
123
54
92
138
118
110
93
137
44
55
58
39
150
117
56
111
109
12
16
131
108
112
152
88
71
67
7
61
97
142
24
106
4
115
17
148
85
126
120
129
66
63
19
5
32
69
22
47
125
124
79
73
147
51
76
28
59
77
37
128
122
134
99
15
26
35
81
11
96
157
100
50
144
68
6
158
64
41
18
38
101
145
48
14
46
29
2
31
3
9

> <PUBCHEM_MMFF94_PARTIAL_CHARGES>
35
1 -0.56
10 0.28
11 0.28
12 0.28
15 0.18
16 0.3
17 0.11
18 -0.15
19 0.69
2 -0.68
20 -0.04
21 0.46
22 0.12
23 -0.15
24 -0.15
25 -0.15
26 -0.15
27 0.28
28 0.08
29 0.28
3 -0.02
4 -0.57
41 0.4
42 0.37
43 0.15
46 0.37
47 0.15
48 0.15
49 0.15
5 -0.56
50 0.15
6 -0.36
7 -0.73
8 -0.41
9 -0.55

> <PUBCHEM_EFFECTIVE_ROTOR_COUNT>
11.2

> <PUBCHEM_PHARMACOPHORE_FEATURES>
12
1 1 acceptor
1 2 acceptor
1 2 donor
1 4 acceptor
1 5 acceptor
1 6 acceptor
1 7 donor
1 8 acceptor
1 9 donor
5 3 8 17 18 20 rings
6 1 10 11 12 13 14 rings
6 22 23 24 25 26 28 rings

> <PUBCHEM_HEAVY_ATOM_COUNT>
29

> <PUBCHEM_ATOM_DEF_STEREO_COUNT>
3

> <PUBCHEM_ATOM_UDEF_STEREO_COUNT>
0

> <PUBCHEM_BOND_DEF_STEREO_COUNT>
0

> <PUBCHEM_BOND_UDEF_STEREO_COUNT>
0

> <PUBCHEM_ISOTOPIC_ATOM_COUNT>
0

> <PUBCHEM_COMPONENT_COUNT>
1

> <PUBCHEM_CACTVS_TAUTO_COUNT>
3

> <PUBCHEM_CONFORMER_ID>
047E022E00000001

> <PUBCHEM_MMFF94_ENERGY>
66.3245

> <PUBCHEM_FEATURE_SELFOVERLAP>
60.951

> <PUBCHEM_SHAPE_FINGERPRINT>
11112241 14 17346589828758611456
11370993 70 17677626267576509983
11421498 54 13758080666738572221
12011746 2 18201726141318405516
12035758 1 18337126639119109163
12156800 1 17340077447352744275
12236239 1 15068627084741449265
12422481 6 17982197761576106459
12467345 10 14996002125301985613
12597179 24 18407761426350877179
13402501 40 18342460356665781249
1361 2 17489869323551489207
13617811 41 17967814921699123653
13726171 33 18049188806054581096
14251764 3 18334572413156736189
144659 39 17896336846490479849
14787075 74 18130792222130503805
15721738 202 16343705422374171239
173720 79 18113613473906619990
17492 54 18271813388685637908
20511986 3 15647336380967146077
20567600 347 18115303372255882155
21033648 29 18042128669729287173
21197605 99 18057880445545575127
21304304 249 18336541608807585082
21360443 126 18335980956661537511
22182313 1 18128842844002259278
23559900 14 18190482483762852142
23569943 247 16485027756389331798
3052486 1 18115318893877377498
4093350 32 16702029643189657471
4112364 45 15357989949585486205
4340502 62 18408319956344730647
437795 51 18272099275537896689
469060 322 18041546023335447871
508706 21 18336270145204683399
59520757 100 17749390421434191819
59755656 215 18271801303386541293
6669772 16 18336820914129895259
70251023 43 17485941730552350350

> <PUBCHEM_SHAPE_MULTIPOLES>
546.65
12.58
3.15
1.93
4.07
2.63
0.27
-6.51
-0.9
1.34
0.84
-0.13
0.86
2.33

> <PUBCHEM_SHAPE_SELFOVERLAP>
1141.182

> <PUBCHEM_SHAPE_VOLUME>
310.4

> <PUBCHEM_COORDINATE_TYPE>
2
5
10

$$$$
