11885930
  -OEChem-12032416383D

 62 66  0     1  0  0  0  0  0999 V2000
    0.1563   -5.7924    0.5968 F   0  0  0  0  0  0  0  0  0  0  0  0
   -0.4138    2.4452    1.8669 O   0  0  0  0  0  0  0  0  0  0  0  0
   -4.1928   -1.1622    1.8173 O   0  0  0  0  0  0  0  0  0  0  0  0
    2.2493    0.1002   -1.4064 O   0  0  0  0  0  0  0  0  0  0  0  0
    6.0725    1.4474    1.6705 O   0  0  0  0  0  0  0  0  0  0  0  0
   -4.5714    0.3040    0.0677 N   0  0  0  0  0  0  0  0  0  0  0  0
   -2.0857    2.2968    0.2412 N   0  0  0  0  0  0  0  0  0  0  0  0
   -3.5688   -1.7960   -0.3238 N   0  0  0  0  0  0  0  0  0  0  0  0
    1.5692    1.7177    0.1096 N   0  0  0  0  0  0  0  0  0  0  0  0
    3.7397    0.9750    0.1818 N   0  0  0  0  0  0  0  0  0  0  0  0
   -4.5587    2.7071    0.7563 C   0  0  1  0  0  0  0  0  0  0  0  0
   -3.8745    2.0898   -1.5219 C   0  0  2  0  0  0  0  0  0  0  0  0
   -4.6535    3.1190   -0.7074 C   0  0  0  0  0  0  0  0  0  0  0  0
   -5.1626    1.3071    0.9582 C   0  0  0  0  0  0  0  0  0  0  0  0
   -3.0926    2.7726    1.1989 C   0  0  0  0  0  0  0  0  0  0  0  0
   -4.5137    0.6952   -1.3525 C   0  0  0  0  0  0  0  0  0  0  0  0
   -2.4196    2.0398   -1.0923 C   0  0  0  0  0  0  0  0  0  0  0  0
   -1.4622    1.7179   -1.9785 C   0  0  0  0  0  0  0  0  0  0  0  0
   -0.7580    2.2129    0.7073 C   0  0  0  0  0  0  0  0  0  0  0  0
   -4.1059   -0.9133    0.6120 C   0  0  0  0  0  0  0  0  0  0  0  0
    0.2747    1.8257   -0.3054 C   0  0  0  0  0  0  0  0  0  0  0  0
   -0.0892    1.6081   -1.5737 C   0  0  0  0  0  0  0  0  0  0  0  0
   -2.6152   -2.8170   -0.0888 C   0  0  0  0  0  0  0  0  0  0  0  0
    2.5063    0.8499   -0.4669 C   0  0  0  0  0  0  0  0  0  0  0  0
   -2.2543   -3.6777   -1.1217 C   0  0  0  0  0  0  0  0  0  0  0  0
   -2.0458   -2.9548    1.1742 C   0  0  0  0  0  0  0  0  0  0  0  0
   -1.3166   -4.6841   -0.8898 C   0  0  0  0  0  0  0  0  0  0  0  0
   -1.1082   -3.9611    1.4060 C   0  0  0  0  0  0  0  0  0  0  0  0
   -0.7436   -4.8258    0.3741 C   0  0  0  0  0  0  0  0  0  0  0  0
    4.9405    0.2802   -0.0936 C   0  0  0  0  0  0  0  0  0  0  0  0
    6.0766    0.5337    0.6588 C   0  0  0  0  0  0  0  0  0  0  0  0
    4.9511   -0.6496   -1.1218 C   0  0  0  0  0  0  0  0  0  0  0  0
    7.2532   -0.1600    0.3759 C   0  0  0  0  0  0  0  0  0  0  0  0
    6.1279   -1.3432   -1.4046 C   0  0  0  0  0  0  0  0  0  0  0  0
    7.2790   -1.0984   -0.6558 C   0  0  0  0  0  0  0  0  0  0  0  0
    6.4105    2.7903    1.3311 C   0  0  0  0  0  0  0  0  0  0  0  0
   -5.1354    3.4079    1.3726 H   0  0  0  0  0  0  0  0  0  0  0  0
   -3.9382    2.3729   -2.5807 H   0  0  0  0  0  0  0  0  0  0  0  0
   -5.7013    3.1506   -1.0301 H   0  0  0  0  0  0  0  0  0  0  0  0
   -4.2413    4.1253   -0.8535 H   0  0  0  0  0  0  0  0  0  0  0  0
   -5.0673    1.0068    2.0067 H   0  0  0  0  0  0  0  0  0  0  0  0
   -6.2357    1.3314    0.7311 H   0  0  0  0  0  0  0  0  0  0  0  0
   -2.8340    3.8209    1.4019 H   0  0  0  0  0  0  0  0  0  0  0  0
   -2.9530    2.2392    2.1477 H   0  0  0  0  0  0  0  0  0  0  0  0
   -3.9657   -0.0226   -1.9644 H   0  0  0  0  0  0  0  0  0  0  0  0
   -5.5475    0.7076   -1.7186 H   0  0  0  0  0  0  0  0  0  0  0  0
   -1.6973    1.5056   -3.0162 H   0  0  0  0  0  0  0  0  0  0  0  0
    0.6053    1.3826   -2.3740 H   0  0  0  0  0  0  0  0  0  0  0  0
   -3.9068   -1.7486   -1.2786 H   0  0  0  0  0  0  0  0  0  0  0  0
    1.7925    2.0989    1.0249 H   0  0  0  0  0  0  0  0  0  0  0  0
   -2.6935   -3.5777   -2.1107 H   0  0  0  0  0  0  0  0  0  0  0  0
   -2.2596   -2.2942    2.0050 H   0  0  0  0  0  0  0  0  0  0  0  0
    3.7868    1.6435    0.9466 H   0  0  0  0  0  0  0  0  0  0  0  0
   -1.0324   -5.3576   -1.6930 H   0  0  0  0  0  0  0  0  0  0  0  0
   -0.6553   -4.0676    2.3874 H   0  0  0  0  0  0  0  0  0  0  0  0
    4.1081   -0.8991   -1.7479 H   0  0  0  0  0  0  0  0  0  0  0  0
    8.1538    0.0250    0.9554 H   0  0  0  0  0  0  0  0  0  0  0  0
    6.1494   -2.0743   -2.2076 H   0  0  0  0  0  0  0  0  0  0  0  0
    8.1951   -1.6385   -0.8760 H   0  0  0  0  0  0  0  0  0  0  0  0
    6.3202    3.4041    2.2314 H   0  0  0  0  0  0  0  0  0  0  0  0
    7.4435    2.8446    0.9732 H   0  0  0  0  0  0  0  0  0  0  0  0
    5.7295    3.1842    0.5701 H   0  0  0  0  0  0  0  0  0  0  0  0
  1 29  1  0  0  0  0
  2 19  2  0  0  0  0
  3 20  2  0  0  0  0
  4 24  2  0  0  0  0
  5 31  1  0  0  0  0
  5 36  1  0  0  0  0
  6 14  1  0  0  0  0
  6 16  1  0  0  0  0
  6 20  1  0  0  0  0
  7 15  1  0  0  0  0
  7 17  1  0  0  0  0
  7 19  1  0  0  0  0
  8 20  1  0  0  0  0
  8 23  1  0  0  0  0
  8 49  1  0  0  0  0
  9 21  1  0  0  0  0
  9 24  1  0  0  0  0
  9 50  1  0  0  0  0
 10 24  1  0  0  0  0
 10 30  1  0  0  0  0
 10 53  1  0  0  0  0
 11 13  1  0  0  0  0
 11 14  1  0  0  0  0
 11 15  1  0  0  0  0
 11 37  1  0  0  0  0
 12 13  1  0  0  0  0
 12 16  1  0  0  0  0
 12 17  1  0  0  0  0
 12 38  1  0  0  0  0
 13 39  1  0  0  0  0
 13 40  1  0  0  0  0
 14 41  1  0  0  0  0
 14 42  1  0  0  0  0
 15 43  1  0  0  0  0
 15 44  1  0  0  0  0
 16 45  1  0  0  0  0
 16 46  1  0  0  0  0
 17 18  2  0  0  0  0
 18 22  1  0  0  0  0
 18 47  1  0  0  0  0
 19 21  1  0  0  0  0
 21 22  2  0  0  0  0
 22 48  1  0  0  0  0
 23 25  2  0  0  0  0
 23 26  1  0  0  0  0
 25 27  1  0  0  0  0
 25 51  1  0  0  0  0
 26 28  2  0  0  0  0
 26 52  1  0  0  0  0
 27 29  2  0  0  0  0
 27 54  1  0  0  0  0
 28 29  1  0  0  0  0
 28 55  1  0  0  0  0
 30 31  1  0  0  0  0
 30 32  2  0  0  0  0
 31 33  2  0  0  0  0
 32 34  1  0  0  0  0
 32 56  1  0  0  0  0
 33 35  1  0  0  0  0
 33 57  1  0  0  0  0
 34 35  2  0  0  0  0
 34 58  1  0  0  0  0
 35 59  1  0  0  0  0
 36 60  1  0  0  0  0
 36 61  1  0  0  0  0
 36 62  1  0  0  0  0
M  END
> <PUBCHEM_COMPOUND_CID>
11885930

> <PUBCHEM_CONFORMER_RMSD>
1

> <PUBCHEM_CONFORMER_DIVERSEORDER>
1
42
74
87
54
86
38
63
69
89
41
19
61
55
26
83
79
73
44
40
90
84
22
92
23
46
68
53
8
57
65
91
20
85
58
56
88
82
75
62
29
24
25
37
35
43
33
59
81
47
48
66
77
72
51
64
70
17
16
30
50
71
18
76
15
78
31
80
11
34
36
39
7
67
14
27
49
4
13
52
9
5
12
3
28
10
6
45
21
60
2
32

> <PUBCHEM_MMFF94_PARTIAL_CHARGES>
47
1 -0.19
10 -0.55
12 0.14
14 0.3
15 0.3
16 0.3
17 -0.03
18 -0.15
19 0.62
2 -0.57
20 0.69
21 0.12
22 -0.15
23 0.12
24 0.69
25 -0.15
26 -0.15
27 -0.15
28 -0.15
29 0.19
3 -0.57
30 0.12
31 0.08
32 -0.15
33 -0.15
34 -0.15
35 -0.15
36 0.28
4 -0.57
47 0.15
48 0.15
49 0.37
5 -0.36
50 0.37
51 0.15
52 0.15
53 0.37
54 0.15
55 0.15
56 0.15
57 0.15
58 0.15
59 0.15
6 -0.66
7 -0.47
8 -0.55
9 -0.54

> <PUBCHEM_EFFECTIVE_ROTOR_COUNT>
9

> <PUBCHEM_PHARMACOPHORE_FEATURES>
12
1 10 donor
1 2 acceptor
1 3 acceptor
1 4 acceptor
1 5 acceptor
1 8 donor
1 9 donor
6 23 25 26 27 28 29 rings
6 30 31 32 33 34 35 rings
6 6 11 12 13 14 16 rings
6 7 11 12 13 15 17 rings
6 7 17 18 19 21 22 rings

> <PUBCHEM_HEAVY_ATOM_COUNT>
36

> <PUBCHEM_ATOM_DEF_STEREO_COUNT>
2

> <PUBCHEM_ATOM_UDEF_STEREO_COUNT>
0

> <PUBCHEM_BOND_DEF_STEREO_COUNT>
0

> <PUBCHEM_BOND_UDEF_STEREO_COUNT>
0

> <PUBCHEM_ISOTOPIC_ATOM_COUNT>
0

> <PUBCHEM_COMPONENT_COUNT>
1

> <PUBCHEM_CACTVS_TAUTO_COUNT>
6

> <PUBCHEM_CONFORMER_ID>
00B55D6A00000001

> <PUBCHEM_MMFF94_ENERGY>
121.2626

> <PUBCHEM_FEATURE_SELFOVERLAP>
62.519

> <PUBCHEM_SHAPE_FINGERPRINT>
10864689 126 18266177224005863412
11524674 6 18411981326086736053
12156800 1 11553434526445385769
12712778 12 18337390555826505310
14020679 6 17989495099922019233
14659021 117 18123174960223768723
14674994 50 18411707620410685562
14725015 67 18339926047495681467
14856354 85 16732993028292977097
14918310 93 13499289598145690510
15183329 4 13262402142157266356
15274700 242 16950548975155785712
15320294 125 17894347791427962006
15439362 3 17829886530723164493
15927050 60 18268143168134568871
16112460 7 18195813959985195874
16120349 306 18335700486348555987
16719943 64 18408891719503081835
16993438 75 18200867482935571094
17627616 140 18263639559400824819
19311894 1 18117841233871760794
19611394 137 18200026382964247464
19958102 18 18335979792456433358
20771845 165 17391349603476556925
20775530 9 17546181052466481023
229767 44 18335427888906007735
23516275 137 17901408704998971450
3383291 50 18337955692377885451
3882209 13 17549243183290956631
397830 11 18411696630191307240
4073 2 18342171177462104124
4435113 14 18130510842291841902
5080951 261 17968916683256447340
5085150 59 18336261258537455555
5265222 85 18334868211918282477
70634741 139 18337118968471463924

> <PUBCHEM_SHAPE_MULTIPOLES>
685.21
16.19
6.34
1.69
34.01
10.83
0.04
-6.9
-1.42
-6.04
-1.11
-0.29
-0.41
2.06

> <PUBCHEM_SHAPE_SELFOVERLAP>
1497.712

> <PUBCHEM_SHAPE_VOLUME>
367.9

> <PUBCHEM_COORDINATE_TYPE>
2
5
10

$$$$
