11886012
  -OEChem-12032416373D

 52 56  0     1  0  0  0  0  0999 V2000
   -5.6623    0.0523   -0.2187 S   0  0  0  0  0  0  0  0  0  0  0  0
    9.9116    0.5175    0.1238 F   0  0  0  0  0  0  0  0  0  0  0  0
    9.1048   -0.8783   -1.3270 F   0  0  0  0  0  0  0  0  0  0  0  0
    8.6795    1.2461   -1.5133 F   0  0  0  0  0  0  0  0  0  0  0  0
   -0.1805    0.7163   -1.2982 O   0  0  0  0  0  0  0  0  0  0  0  0
   -1.7067   -1.9250   -0.7985 O   0  0  0  0  0  0  0  0  0  0  0  0
    1.7720   -1.1047   -0.5626 O   0  0  0  0  0  0  0  0  0  0  0  0
    2.4637   -0.7733    1.5919 O   0  0  0  0  0  0  0  0  0  0  0  0
   -9.4157    0.1039   -0.1616 O   0  0  0  0  0  0  0  0  0  0  0  0
   -3.2820    1.3586   -0.4061 N   0  0  0  0  0  0  0  0  0  0  0  0
   -2.6925    2.5152   -0.0728 N   0  0  0  0  0  0  0  0  0  0  0  0
   -4.8111    2.5029    0.6213 N   0  0  0  0  0  0  0  0  0  0  0  0
   -3.6325    3.2111    0.5549 N   0  0  0  0  0  0  0  0  0  0  0  0
    3.9538   -0.6540   -0.2097 N   0  0  0  0  0  0  0  0  0  0  0  0
   -1.8029   -0.6189   -0.1885 C   0  0  1  0  0  0  0  0  0  0  0  0
   -0.3933   -0.0662   -0.1129 C   0  0  1  0  0  0  0  0  0  0  0  0
   -2.5320    0.3256   -1.1244 C   0  0  2  0  0  0  0  0  0  0  0  0
    0.4542   -1.3162   -0.1096 C   0  0  1  0  0  0  0  0  0  0  0  0
   -1.4122    0.8378   -2.0244 C   0  0  0  0  0  0  0  0  0  0  0  0
   -0.3241   -2.2295   -1.0277 C   0  0  0  0  0  0  0  0  0  0  0  0
   -4.5718    1.3601    0.0203 C   0  0  0  0  0  0  0  0  0  0  0  0
    2.7256   -0.8331    0.3968 C   0  0  0  0  0  0  0  0  0  0  0  0
   -7.1720    0.6884    0.5686 C   0  0  0  0  0  0  0  0  0  0  0  0
    5.1927   -0.3597    0.4037 C   0  0  0  0  0  0  0  0  0  0  0  0
   -8.2919   -0.3080    0.4817 C   0  0  0  0  0  0  0  0  0  0  0  0
    6.3401   -0.2121   -0.3756 C   0  0  0  0  0  0  0  0  0  0  0  0
    5.2675   -0.2171    1.7892 C   0  0  0  0  0  0  0  0  0  0  0  0
    7.5624    0.0780    0.2307 C   0  0  0  0  0  0  0  0  0  0  0  0
   -8.4376   -1.6006    0.9288 C   0  0  0  0  0  0  0  0  0  0  0  0
    6.4897    0.0732    2.3956 C   0  0  0  0  0  0  0  0  0  0  0  0
    7.6371    0.2208    1.6163 C   0  0  0  0  0  0  0  0  0  0  0  0
   -9.7341   -2.0093    0.5350 C   0  0  0  0  0  0  0  0  0  0  0  0
    8.7891    0.2355   -0.6021 C   0  0  0  0  0  0  0  0  0  0  0  0
  -10.2883   -0.9371   -0.1249 C   0  0  0  0  0  0  0  0  0  0  0  0
   -2.2694   -0.7484    0.7931 H   0  0  0  0  0  0  0  0  0  0  0  0
   -0.2169    0.5843    0.7485 H   0  0  0  0  0  0  0  0  0  0  0  0
   -3.2631   -0.1923   -1.7553 H   0  0  0  0  0  0  0  0  0  0  0  0
    0.4334   -1.7675    0.8921 H   0  0  0  0  0  0  0  0  0  0  0  0
   -1.5373    1.8699   -2.3649 H   0  0  0  0  0  0  0  0  0  0  0  0
   -1.3176    0.2033   -2.9130 H   0  0  0  0  0  0  0  0  0  0  0  0
   -0.1403   -3.2875   -0.8178 H   0  0  0  0  0  0  0  0  0  0  0  0
   -0.0921   -2.0544   -2.0843 H   0  0  0  0  0  0  0  0  0  0  0  0
    3.9724   -0.7441   -1.2227 H   0  0  0  0  0  0  0  0  0  0  0  0
   -6.9699    0.9034    1.6235 H   0  0  0  0  0  0  0  0  0  0  0  0
   -7.4661    1.6239    0.0804 H   0  0  0  0  0  0  0  0  0  0  0  0
    6.2856   -0.3228   -1.4563 H   0  0  0  0  0  0  0  0  0  0  0  0
    4.4229   -0.3170    2.4567 H   0  0  0  0  0  0  0  0  0  0  0  0
   -7.7047   -2.1791    1.4730 H   0  0  0  0  0  0  0  0  0  0  0  0
    6.5490    0.1845    3.4745 H   0  0  0  0  0  0  0  0  0  0  0  0
    8.5798    0.4468    2.1069 H   0  0  0  0  0  0  0  0  0  0  0  0
  -10.2058   -2.9652    0.7105 H   0  0  0  0  0  0  0  0  0  0  0  0
  -11.2423   -0.7643   -0.6012 H   0  0  0  0  0  0  0  0  0  0  0  0
  1 21  1  0  0  0  0
  1 23  1  0  0  0  0
  2 33  1  0  0  0  0
  3 33  1  0  0  0  0
  4 33  1  0  0  0  0
  5 16  1  0  0  0  0
  5 19  1  0  0  0  0
  6 15  1  0  0  0  0
  6 20  1  0  0  0  0
  7 18  1  0  0  0  0
  7 22  1  0  0  0  0
  8 22  2  0  0  0  0
  9 25  1  0  0  0  0
  9 34  1  0  0  0  0
 10 11  1  0  0  0  0
 10 17  1  0  0  0  0
 10 21  1  0  0  0  0
 11 13  2  0  0  0  0
 12 13  1  0  0  0  0
 12 21  2  0  0  0  0
 14 22  1  0  0  0  0
 14 24  1  0  0  0  0
 14 43  1  0  0  0  0
 15 16  1  0  0  0  0
 15 17  1  0  0  0  0
 15 35  1  0  0  0  0
 16 18  1  0  0  0  0
 16 36  1  0  0  0  0
 17 19  1  0  0  0  0
 17 37  1  0  0  0  0
 18 20  1  0  0  0  0
 18 38  1  0  0  0  0
 19 39  1  0  0  0  0
 19 40  1  0  0  0  0
 20 41  1  0  0  0  0
 20 42  1  0  0  0  0
 23 25  1  0  0  0  0
 23 44  1  0  0  0  0
 23 45  1  0  0  0  0
 24 26  1  0  0  0  0
 24 27  2  0  0  0  0
 25 29  2  0  0  0  0
 26 28  2  0  0  0  0
 26 46  1  0  0  0  0
 27 30  1  0  0  0  0
 27 47  1  0  0  0  0
 28 31  1  0  0  0  0
 28 33  1  0  0  0  0
 29 32  1  0  0  0  0
 29 48  1  0  0  0  0
 30 31  2  0  0  0  0
 30 49  1  0  0  0  0
 31 50  1  0  0  0  0
 32 34  2  0  0  0  0
 32 51  1  0  0  0  0
 34 52  1  0  0  0  0
M  END
> <PUBCHEM_COMPOUND_CID>
11886012

> <PUBCHEM_CONFORMER_RMSD>
1.2

> <PUBCHEM_CONFORMER_DIVERSEORDER>
1
177
76
130
161
189
65
79
34
198
151
128
187
45
56
149
147
120
137
121
176
74
18
112
125
146
109
139
36
122
41
179
196
142
124
96
143
114
87
135
48
94
171
160
127
159
183
55
194
152
199
167
123
20
178
4
119
44
186
192
110
163
201
182
81
191
88
9
67
62
32
132
43
105
145
15
78
190
104
68
175
11
40
162
115
118
107
200
164
126
23
38
156
133
84
70
49
166
116
19
16
173
95
157
90
21
37
46
185
108
30
91
93
181
13
10
193
12
83
129
106
140
71
103
168
148
72
188
99
69
14
174
172
144
39
202
24
64
54
8
138
97
31
113
154
75
180
86
155
3
111
25
42
195
58
29
66
61
131
117
197
134
92
51
136
17
101
170
28
141
100
59
27
102
47
33
2
153
26
150
158
165
77
7
73
98
89
5
22
60
82
53
57
50
169
184
52
35
85
80
63
6

> <PUBCHEM_MMFF94_PARTIAL_CHARGES>
41
1 -0.29
10 0.31
11 -0.42
12 -0.34
14 -0.55
15 0.28
16 0.28
17 0.26
18 0.28
19 0.28
2 -0.34
20 0.28
21 0.24
22 0.78
23 0.41
24 0.12
25 -0.04
26 -0.15
27 -0.15
28 -0.14
29 -0.15
3 -0.34
30 -0.15
31 -0.15
32 -0.15
33 1.16
34 -0.01
4 -0.34
43 0.37
46 0.15
47 0.15
48 0.15
49 0.15
5 -0.56
50 0.15
51 0.15
52 0.15
6 -0.56
7 -0.43
8 -0.57
9 -0.28

> <PUBCHEM_EFFECTIVE_ROTOR_COUNT>
10.2

> <PUBCHEM_PHARMACOPHORE_FEATURES>
11
1 14 donor
1 5 acceptor
1 6 acceptor
1 8 acceptor
1 9 acceptor
3 10 12 21 cation
5 10 11 12 13 21 rings
5 5 15 16 17 19 rings
5 6 15 16 18 20 rings
5 9 25 29 32 34 rings
6 24 26 27 28 30 31 rings

> <PUBCHEM_HEAVY_ATOM_COUNT>
34

> <PUBCHEM_ATOM_DEF_STEREO_COUNT>
4

> <PUBCHEM_ATOM_UDEF_STEREO_COUNT>
0

> <PUBCHEM_BOND_DEF_STEREO_COUNT>
0

> <PUBCHEM_BOND_UDEF_STEREO_COUNT>
0

> <PUBCHEM_ISOTOPIC_ATOM_COUNT>
0

> <PUBCHEM_COMPONENT_COUNT>
1

> <PUBCHEM_CACTVS_TAUTO_COUNT>
2

> <PUBCHEM_CONFORMER_ID>
00B55DBC00000001

> <PUBCHEM_MMFF94_ENERGY>
68.6954

> <PUBCHEM_FEATURE_SELFOVERLAP>
56.524

> <PUBCHEM_SHAPE_FINGERPRINT>
10 15 18409727352661188626
10076449 9 17847063285606754609
10162869 55 16660365900364832174
10165383 225 17989205949379716479
10369192 42 17060054822712984285
10391435 84 12973894714533689136
10483366 6 8430320147712938543
106641 1 18260547827176240855
10674148 151 9799688186795604223
11135609 99 18041848432531663603
11146346 171 18059582347700987182
11211813 128 18202566177187775239
11408170 108 15068895301064044777
11973864 48 18131078117124831135
12202916 173 12251904780436142280
12643181 29 8286193951293524937
12664476 115 17917709115436395576
13740195 50 18409167740113426474
14040221 8 7925914802914451126
14150022 121 17846785062611884233
15065858 18 13262396669962022193
15183329 4 15410888531907875588
15188451 53 8862940590058583146
15219648 73 14346057713134361448
15326923 82 17967529082987627759
15347591 1 18120653531248489639
15392192 104 18187364324905929826
15444296 9 12319743556964156808
15684389 69 18113896053143600667
15728490 51 18335137605658326251
16087824 20 9439135243490281891
18335252 98 18272091578054941767
18608769 82 18202559592812850315
20105231 36 17846778507352072967
21792934 111 12179848320844658190
22224240 67 18412823582433436331
23559900 14 12174748790283768470
24771293 8 18186806838361509197
2835820 33 18335704970790460451
3092352 35 18187364321227926626
4149490 64 17096383877317737833
4874694 18 12685090389154526216
5381727 24 18410572864956816898
59521270 166 10231764379332905699
59682541 35 18272087210816721011
6081469 158 11241967075093238090
6126387 218 12540697024720679691
6523845 18 17561081406285812131
6698420 124 14476954614679183047
6703917 75 18272940413874210595
67123 10 17894348886749604167
9663363 56 10809342248804549590
9689198 14 16630809885702256289

> <PUBCHEM_SHAPE_MULTIPOLES>
627.48
36.33
2.02
1.49
0.49
0.96
0.24
-5.23
6
-4.15
0.01
2.64
0.02
0.07

> <PUBCHEM_SHAPE_SELFOVERLAP>
1354.809

> <PUBCHEM_SHAPE_VOLUME>
349.1

> <PUBCHEM_COORDINATE_TYPE>
2
5
10

$$$$
