7051763
  -OEChem-12032416113D

 50 54  0     1  0  0  0  0  0999 V2000
   -3.1361    1.0204   -2.9820 O   0  0  0  0  0  0  0  0  0  0  0  0
   -0.4836    3.7919    0.3396 O   0  0  0  0  0  0  0  0  0  0  0  0
   -1.0350    1.8018    1.4363 N   0  0  0  0  0  0  0  0  0  0  0  0
   -2.4793    0.2176   -0.8821 N   0  0  0  0  0  0  0  0  0  0  0  0
    0.1715   -4.7390    0.9118 N   0  0  0  0  0  0  0  0  0  0  0  0
    6.0150    0.3815   -1.0378 N   0  0  0  0  0  0  0  0  0  0  0  0
   -3.4372    1.1963    1.2877 C   0  0  1  0  0  0  0  0  0  0  0  0
   -1.7392   -0.5816    1.3830 C   0  0  2  0  0  0  0  0  0  0  0  0
   -3.1297   -0.1753    1.8699 C   0  0  0  0  0  0  0  0  0  0  0  0
   -2.3964    2.2283    1.7539 C   0  0  0  0  0  0  0  0  0  0  0  0
   -3.4830    1.0769   -0.2368 C   0  0  0  0  0  0  0  0  0  0  0  0
   -0.6974    0.4425    1.8833 C   0  0  0  0  0  0  0  0  0  0  0  0
   -1.6834   -0.6809   -0.1435 C   0  0  0  0  0  0  0  0  0  0  0  0
   -0.8822   -1.5663   -0.7914 C   0  0  0  0  0  0  0  0  0  0  0  0
   -2.4541    0.2666   -2.2871 C   0  0  0  0  0  0  0  0  0  0  0  0
   -0.1983    2.6548    0.7124 C   0  0  0  0  0  0  0  0  0  0  0  0
   -0.8269   -1.5419   -2.2405 C   0  0  0  0  0  0  0  0  0  0  0  0
   -1.5421   -0.6821   -2.9656 C   0  0  0  0  0  0  0  0  0  0  0  0
   -0.0487   -2.5441   -0.0576 C   0  0  0  0  0  0  0  0  0  0  0  0
    1.1341    2.1668    0.3371 C   0  0  0  0  0  0  0  0  0  0  0  0
    1.2380   -2.2190    0.3406 C   0  0  0  0  0  0  0  0  0  0  0  0
   -0.5365   -3.7998    0.2450 C   0  0  0  0  0  0  0  0  0  0  0  0
    1.3131    1.5015   -0.8731 C   0  0  0  0  0  0  0  0  0  0  0  0
    2.2134    2.3730    1.1925 C   0  0  0  0  0  0  0  0  0  0  0  0
    1.9974   -3.1588    1.0288 C   0  0  0  0  0  0  0  0  0  0  0  0
    2.5797    1.0392   -1.2302 C   0  0  0  0  0  0  0  0  0  0  0  0
    3.4801    1.9108    0.8354 C   0  0  0  0  0  0  0  0  0  0  0  0
    1.4232   -4.3930    1.2874 C   0  0  0  0  0  0  0  0  0  0  0  0
    3.6632    1.2438   -0.3760 C   0  0  0  0  0  0  0  0  0  0  0  0
    4.9602    0.7682   -0.7410 C   0  0  0  0  0  0  0  0  0  0  0  0
   -4.4197    1.5341    1.6397 H   0  0  0  0  0  0  0  0  0  0  0  0
   -1.5145   -1.5503    1.8430 H   0  0  0  0  0  0  0  0  0  0  0  0
   -3.8820   -0.9092    1.5545 H   0  0  0  0  0  0  0  0  0  0  0  0
   -3.1559   -0.1396    2.9659 H   0  0  0  0  0  0  0  0  0  0  0  0
   -2.6101    3.2075    1.3125 H   0  0  0  0  0  0  0  0  0  0  0  0
   -2.4483    2.3470    2.8431 H   0  0  0  0  0  0  0  0  0  0  0  0
   -3.4407    2.0721   -0.6977 H   0  0  0  0  0  0  0  0  0  0  0  0
   -4.4566    0.6557   -0.5237 H   0  0  0  0  0  0  0  0  0  0  0  0
    0.3103    0.1610    1.5779 H   0  0  0  0  0  0  0  0  0  0  0  0
   -0.6960    0.4641    2.9804 H   0  0  0  0  0  0  0  0  0  0  0  0
   -0.1658   -2.2428   -2.7416 H   0  0  0  0  0  0  0  0  0  0  0  0
   -1.4893   -0.6664   -4.0477 H   0  0  0  0  0  0  0  0  0  0  0  0
    1.6704   -1.2503    0.1261 H   0  0  0  0  0  0  0  0  0  0  0  0
   -1.5373   -4.1086   -0.0413 H   0  0  0  0  0  0  0  0  0  0  0  0
    0.4790    1.3498   -1.5511 H   0  0  0  0  0  0  0  0  0  0  0  0
    2.0807    2.8910    2.1387 H   0  0  0  0  0  0  0  0  0  0  0  0
    3.0069   -2.9322    1.3519 H   0  0  0  0  0  0  0  0  0  0  0  0
    2.7062    0.5223   -2.1785 H   0  0  0  0  0  0  0  0  0  0  0  0
    4.3148    2.0772    1.5122 H   0  0  0  0  0  0  0  0  0  0  0  0
    1.9739   -5.1608    1.8208 H   0  0  0  0  0  0  0  0  0  0  0  0
  1 15  2  0  0  0  0
  2 16  2  0  0  0  0
  3 10  1  0  0  0  0
  3 12  1  0  0  0  0
  3 16  1  0  0  0  0
  4 11  1  0  0  0  0
  4 13  1  0  0  0  0
  4 15  1  0  0  0  0
  5 22  1  0  0  0  0
  5 28  2  0  0  0  0
  6 30  3  0  0  0  0
  7  9  1  0  0  0  0
  7 10  1  0  0  0  0
  7 11  1  0  0  0  0
  7 31  1  0  0  0  0
  8  9  1  0  0  0  0
  8 12  1  0  0  0  0
  8 13  1  0  0  0  0
  8 32  1  0  0  0  0
  9 33  1  0  0  0  0
  9 34  1  0  0  0  0
 10 35  1  0  0  0  0
 10 36  1  0  0  0  0
 11 37  1  0  0  0  0
 11 38  1  0  0  0  0
 12 39  1  0  0  0  0
 12 40  1  0  0  0  0
 13 14  2  0  0  0  0
 14 17  1  0  0  0  0
 14 19  1  0  0  0  0
 15 18  1  0  0  0  0
 16 20  1  0  0  0  0
 17 18  2  0  0  0  0
 17 41  1  0  0  0  0
 18 42  1  0  0  0  0
 19 21  1  0  0  0  0
 19 22  2  0  0  0  0
 20 23  2  0  0  0  0
 20 24  1  0  0  0  0
 21 25  2  0  0  0  0
 21 43  1  0  0  0  0
 22 44  1  0  0  0  0
 23 26  1  0  0  0  0
 23 45  1  0  0  0  0
 24 27  2  0  0  0  0
 24 46  1  0  0  0  0
 25 28  1  0  0  0  0
 25 47  1  0  0  0  0
 26 29  2  0  0  0  0
 26 48  1  0  0  0  0
 27 29  1  0  0  0  0
 27 49  1  0  0  0  0
 28 50  1  0  0  0  0
 29 30  1  0  0  0  0
M  END
> <PUBCHEM_COMPOUND_CID>
7051763

> <PUBCHEM_CONFORMER_RMSD>
0.8

> <PUBCHEM_CONFORMER_DIVERSEORDER>
1
4
2
3

> <PUBCHEM_MMFF94_PARTIAL_CHARGES>
38
1 -0.57
10 0.3
11 0.3
12 0.3
13 -0.03
14 -0.03
15 0.62
16 0.54
17 -0.15
18 -0.14
19 0.03
2 -0.57
20 0.09
21 -0.15
22 0.16
23 -0.15
24 -0.15
25 -0.15
26 -0.15
27 -0.15
28 0.16
29 0.07
3 -0.66
30 0.48
4 -0.47
41 0.15
42 0.15
43 0.15
44 0.15
45 0.15
46 0.15
47 0.15
48 0.15
49 0.15
5 -0.62
50 0.15
6 -0.56
8 0.14

> <PUBCHEM_EFFECTIVE_ROTOR_COUNT>
4

> <PUBCHEM_PHARMACOPHORE_FEATURES>
9
1 1 acceptor
1 2 acceptor
1 5 acceptor
1 6 acceptor
6 20 23 24 26 27 29 rings
6 3 7 8 9 10 12 rings
6 4 13 14 15 17 18 rings
6 4 7 8 9 11 13 rings
6 5 19 21 22 25 28 rings

> <PUBCHEM_HEAVY_ATOM_COUNT>
30

> <PUBCHEM_ATOM_DEF_STEREO_COUNT>
2

> <PUBCHEM_ATOM_UDEF_STEREO_COUNT>
0

> <PUBCHEM_BOND_DEF_STEREO_COUNT>
0

> <PUBCHEM_BOND_UDEF_STEREO_COUNT>
0

> <PUBCHEM_ISOTOPIC_ATOM_COUNT>
0

> <PUBCHEM_COMPONENT_COUNT>
1

> <PUBCHEM_CACTVS_TAUTO_COUNT>
1

> <PUBCHEM_CONFORMER_ID>
006B99F300000001

> <PUBCHEM_MMFF94_ENERGY>
88.5318

> <PUBCHEM_FEATURE_SELFOVERLAP>
47.258

> <PUBCHEM_SHAPE_FINGERPRINT>
10165383 225 18187938299538668422
10190108 129 18191301792578883343
10764073 3 17839493264056494243
11285246 1 17838027648994115862
11578080 2 17387989572929029133
12035759 4 17845920884425160453
12156800 1 11805408755156852672
12539773 59 17631461072233000682
133893 2 18193543489779622791
15274700 242 18334298656938006832
17980427 23 17337304174195169161
20775530 9 16893987107578478586
20905425 154 17836959726776883129
21330990 113 17901093441804906599
23419403 2 17606405337251488695
3493558 16 14597479363906034119
35225 105 17759558781058267914
392239 28 18124063318654401707
404807 14 14396801080413159204
513532 50 15978852378648413437
57527306 92 17632029606029034969
57527585 103 17905878537566890914

> <PUBCHEM_SHAPE_MULTIPOLES>
585.72
6.52
5.03
2.43
8.39
5.8
1.62
-3.82
1.49
1.29
-2.7
-2.14
-0.04
-0.82

> <PUBCHEM_SHAPE_SELFOVERLAP>
1301.234

> <PUBCHEM_SHAPE_VOLUME>
303.3

> <PUBCHEM_COORDINATE_TYPE>
2
5
10

$$$$
