7685394
  -OEChem-12032416153D

 55 59  0     1  0  0  0  0  0999 V2000
    2.5650   -2.6269    0.7986 S   0  0  0  0  0  0  0  0  0  0  0  0
    1.9921   -1.9610   -1.9899 S   0  0  0  0  0  0  0  0  0  0  0  0
    2.0412   -3.4490    1.8690 O   0  0  0  0  0  0  0  0  0  0  0  0
    3.9201   -2.8022    0.3200 O   0  0  0  0  0  0  0  0  0  0  0  0
    3.8415    2.7016   -1.7448 O   0  0  0  0  0  0  0  0  0  0  0  0
   -5.5402   -1.7285   -0.0502 O   0  0  0  0  0  0  0  0  0  0  0  0
    2.3203   -0.9787    1.1873 N   0  0  2  0  0  0  0  0  0  0  0  0
    2.3469    1.8725   -0.1430 N   0  0  0  0  0  0  0  0  0  0  0  0
   -5.3098    0.5322    0.5780 N   0  0  0  0  0  0  0  0  0  0  0  0
    3.1479    1.1481    2.1834 C   0  0  1  0  0  0  0  0  0  0  0  0
    0.7776    0.9342    1.5823 C   0  0  2  0  0  0  0  0  0  0  0  0
    1.7381    1.5079    2.6211 C   0  0  0  0  0  0  0  0  0  0  0  0
    3.3255   -0.3760    2.1064 C   0  0  0  0  0  0  0  0  0  0  0  0
    0.9221   -0.6000    1.5439 C   0  0  0  0  0  0  0  0  0  0  0  0
    3.4326    1.8337    0.8466 C   0  0  0  0  0  0  0  0  0  0  0  0
    1.0186    1.5381    0.1934 C   0  0  0  0  0  0  0  0  0  0  0  0
    0.0220    1.7377   -0.7110 C   0  0  0  0  0  0  0  0  0  0  0  0
    2.7023    2.3798   -1.4056 C   0  0  0  0  0  0  0  0  0  0  0  0
    0.3552    2.2533   -2.0269 C   0  0  0  0  0  0  0  0  0  0  0  0
    1.6047    2.5489   -2.3832 C   0  0  0  0  0  0  0  0  0  0  0  0
   -1.3433    1.4288   -0.3825 C   0  0  0  0  0  0  0  0  0  0  0  0
    1.4770   -2.7839   -0.5831 C   0  0  0  0  0  0  0  0  0  0  0  0
   -1.8417    0.1525   -0.6260 C   0  0  0  0  0  0  0  0  0  0  0  0
   -2.1569    2.4087    0.1782 C   0  0  0  0  0  0  0  0  0  0  0  0
    0.2850   -3.4394   -0.7649 C   0  0  0  0  0  0  0  0  0  0  0  0
   -0.2194   -3.2649   -2.0860 C   0  0  0  0  0  0  0  0  0  0  0  0
   -3.1661   -0.1466   -0.3061 C   0  0  0  0  0  0  0  0  0  0  0  0
   -3.4813    2.1096    0.4981 C   0  0  0  0  0  0  0  0  0  0  0  0
    0.6108   -2.4819   -2.8576 C   0  0  0  0  0  0  0  0  0  0  0  0
   -3.9859    0.8321    0.2559 C   0  0  0  0  0  0  0  0  0  0  0  0
   -5.9867   -0.6835    0.4118 C   0  0  0  0  0  0  0  0  0  0  0  0
   -7.4154   -0.5975    0.8870 C   0  0  0  0  0  0  0  0  0  0  0  0
    3.8665    1.5244    2.9222 H   0  0  0  0  0  0  0  0  0  0  0  0
   -0.2332    1.1693    1.9340 H   0  0  0  0  0  0  0  0  0  0  0  0
    1.6208    2.5960    2.7008 H   0  0  0  0  0  0  0  0  0  0  0  0
    1.5264    1.0893    3.6127 H   0  0  0  0  0  0  0  0  0  0  0  0
    4.3359   -0.6030    1.7492 H   0  0  0  0  0  0  0  0  0  0  0  0
    3.2112   -0.8175    3.1038 H   0  0  0  0  0  0  0  0  0  0  0  0
    0.6791   -1.0179    2.5291 H   0  0  0  0  0  0  0  0  0  0  0  0
    0.2106   -1.0165    0.8318 H   0  0  0  0  0  0  0  0  0  0  0  0
    3.6875    2.8846    1.0427 H   0  0  0  0  0  0  0  0  0  0  0  0
    4.3210    1.3947    0.3746 H   0  0  0  0  0  0  0  0  0  0  0  0
   -0.4498    2.3873   -2.7437 H   0  0  0  0  0  0  0  0  0  0  0  0
    1.8423    2.9279   -3.3699 H   0  0  0  0  0  0  0  0  0  0  0  0
   -1.2203   -0.6150   -1.0753 H   0  0  0  0  0  0  0  0  0  0  0  0
   -1.7784    3.4090    0.3740 H   0  0  0  0  0  0  0  0  0  0  0  0
   -0.2083   -4.0159    0.0068 H   0  0  0  0  0  0  0  0  0  0  0  0
   -1.1451   -3.6902   -2.4512 H   0  0  0  0  0  0  0  0  0  0  0  0
   -3.4852   -1.1558   -0.5256 H   0  0  0  0  0  0  0  0  0  0  0  0
   -4.1085    2.8818    0.9363 H   0  0  0  0  0  0  0  0  0  0  0  0
    0.4716   -2.1896   -3.8887 H   0  0  0  0  0  0  0  0  0  0  0  0
   -5.8421    1.2989    0.9841 H   0  0  0  0  0  0  0  0  0  0  0  0
   -7.4357   -0.3706    1.9566 H   0  0  0  0  0  0  0  0  0  0  0  0
   -7.9211   -1.5519    0.7160 H   0  0  0  0  0  0  0  0  0  0  0  0
   -7.9433    0.1865    0.3366 H   0  0  0  0  0  0  0  0  0  0  0  0
  1  3  2  0  0  0  0
  1  4  2  0  0  0  0
  1  7  1  0  0  0  0
  1 22  1  0  0  0  0
  2 22  1  0  0  0  0
  2 29  1  0  0  0  0
  5 18  2  0  0  0  0
  6 31  2  0  0  0  0
  7 13  1  0  0  0  0
  7 14  1  0  0  0  0
  8 15  1  0  0  0  0
  8 16  1  0  0  0  0
  8 18  1  0  0  0  0
  9 30  1  0  0  0  0
  9 31  1  0  0  0  0
  9 52  1  0  0  0  0
 10 12  1  0  0  0  0
 10 13  1  0  0  0  0
 10 15  1  0  0  0  0
 10 33  1  0  0  0  0
 11 12  1  0  0  0  0
 11 14  1  0  0  0  0
 11 16  1  0  0  0  0
 11 34  1  0  0  0  0
 12 35  1  0  0  0  0
 12 36  1  0  0  0  0
 13 37  1  0  0  0  0
 13 38  1  0  0  0  0
 14 39  1  0  0  0  0
 14 40  1  0  0  0  0
 15 41  1  0  0  0  0
 15 42  1  0  0  0  0
 16 17  2  0  0  0  0
 17 19  1  0  0  0  0
 17 21  1  0  0  0  0
 18 20  1  0  0  0  0
 19 20  2  0  0  0  0
 19 43  1  0  0  0  0
 20 44  1  0  0  0  0
 21 23  2  0  0  0  0
 21 24  1  0  0  0  0
 22 25  2  0  0  0  0
 23 27  1  0  0  0  0
 23 45  1  0  0  0  0
 24 28  2  0  0  0  0
 24 46  1  0  0  0  0
 25 26  1  0  0  0  0
 25 47  1  0  0  0  0
 26 29  2  0  0  0  0
 26 48  1  0  0  0  0
 27 30  2  0  0  0  0
 27 49  1  0  0  0  0
 28 30  1  0  0  0  0
 28 50  1  0  0  0  0
 29 51  1  0  0  0  0
 31 32  1  0  0  0  0
 32 53  1  0  0  0  0
 32 54  1  0  0  0  0
 32 55  1  0  0  0  0
M  END
> <PUBCHEM_COMPOUND_CID>
7685394

> <PUBCHEM_CONFORMER_RMSD>
0.8

> <PUBCHEM_CONFORMER_DIVERSEORDER>
1
14
5
9
15
16
8
6
13
3
7
11
12
4
10
2

> <PUBCHEM_MMFF94_PARTIAL_CHARGES>
40
1 1.5
11 0.14
13 0.36
14 0.36
15 0.3
16 -0.03
17 -0.03
18 0.62
19 -0.15
2 -0.08
20 -0.14
21 0.03
22 -0.02
23 -0.15
24 -0.15
25 -0.15
26 -0.15
27 -0.15
28 -0.15
29 -0.11
3 -0.65
30 0.12
31 0.57
32 0.06
4 -0.65
43 0.15
44 0.15
45 0.15
46 0.15
47 0.15
48 0.15
49 0.15
5 -0.57
50 0.15
51 0.15
52 0.37
6 -0.57
7 -0.85
8 -0.47
9 -0.55

> <PUBCHEM_EFFECTIVE_ROTOR_COUNT>
6

> <PUBCHEM_PHARMACOPHORE_FEATURES>
10
1 3 acceptor
1 4 acceptor
1 5 acceptor
1 6 acceptor
1 9 donor
5 2 22 25 26 29 rings
6 21 23 24 27 28 30 rings
6 7 10 11 12 13 14 rings
6 8 10 11 12 15 16 rings
6 8 16 17 18 19 20 rings

> <PUBCHEM_HEAVY_ATOM_COUNT>
32

> <PUBCHEM_ATOM_DEF_STEREO_COUNT>
2

> <PUBCHEM_ATOM_UDEF_STEREO_COUNT>
0

> <PUBCHEM_BOND_DEF_STEREO_COUNT>
0

> <PUBCHEM_BOND_UDEF_STEREO_COUNT>
0

> <PUBCHEM_ISOTOPIC_ATOM_COUNT>
0

> <PUBCHEM_COMPONENT_COUNT>
1

> <PUBCHEM_CACTVS_TAUTO_COUNT>
2

> <PUBCHEM_CONFORMER_ID>
0075451200000001

> <PUBCHEM_MMFF94_ENERGY>
84.476

> <PUBCHEM_FEATURE_SELFOVERLAP>
52.349

> <PUBCHEM_SHAPE_FINGERPRINT>
10064457 181 18058427929110422528
11112662 9 17897739879177785356
11421498 54 17986696833722520576
12156800 1 16447890900425472766
12422481 6 18269815584695779051
12788726 201 17259057922877504100
13150687 139 18120113903231964804
14863182 85 18412263964783494305
14955137 171 17702381754326855998
15324884 4 17760890036980265304
17492 54 18044689488561638614
17974551 9 16050390671978529937
18681886 176 18194130830679037781
19301679 30 18336276682951789649
1979834 28 18272089414045266611
20600515 1 17550114653650276116
20691752 17 17459198390923769801
20764821 26 18116447006183475515
21330990 113 15890822818838188584
21421861 104 18339093618271446645
22956985 138 18337953359899511247
23559900 14 18269565940433628285
25222932 49 17316494100290407051
3052486 1 17910950571673233711
3493558 16 12547468117439414384
35225 105 16627396021861275854
4066623 53 9438857015108102859
563151 248 18268981150587350272
6287921 2 18271239430847367191
6669772 16 18115325487216348540
6823239 73 17915186719318592999

> <PUBCHEM_SHAPE_MULTIPOLES>
627.82
9.73
4.51
2.59
23.74
3.14
-0.46
0.89
4.18
-3.65
-1.88
-2.92
-0.06
-0.67

> <PUBCHEM_SHAPE_SELFOVERLAP>
1349.507

> <PUBCHEM_SHAPE_VOLUME>
346.1

> <PUBCHEM_COORDINATE_TYPE>
2
5
10

$$$$
