28961045
  -OEChem-12032416143D

 50 54  0     1  0  0  0  0  0999 V2000
   -3.6365    1.7686   -0.8385 S   0  0  0  0  0  0  0  0  0  0  0  0
    1.6531   -2.8862   -0.6366 O   0  0  0  0  0  0  0  0  0  0  0  0
   -3.7551    1.6737   -2.2810 O   0  0  0  0  0  0  0  0  0  0  0  0
   -3.3514    3.0455   -0.2125 O   0  0  0  0  0  0  0  0  0  0  0  0
    7.4812    0.1094   -0.1019 O   0  0  0  0  0  0  0  0  0  0  0  0
    6.9895    2.3861    0.5165 O   0  0  0  0  0  0  0  0  0  0  0  0
   -1.3297   -1.8652    0.9396 N   0  0  1  0  0  0  0  0  0  0  0  0
   -2.5087    0.6278   -0.2863 N   0  0  0  0  0  0  0  0  0  0  0  0
    1.4447   -0.7319   -0.0599 N   0  0  0  0  0  0  0  0  0  0  0  0
    2.9553   -2.3763   -0.5584 N   0  0  0  0  0  0  0  0  0  0  0  0
   -2.6706   -0.8038   -0.6466 C   0  0  1  0  0  0  0  0  0  0  0  0
   -0.6586   -2.1511   -0.3428 C   0  0  1  0  0  0  0  0  0  0  0  0
   -1.4236   -1.2994   -1.3744 C   0  0  0  0  0  0  0  0  0  0  0  0
   -2.7433   -1.6519    0.6126 C   0  0  0  0  0  0  0  0  0  0  0  0
    0.8254   -1.8534   -0.3291 C   0  0  0  0  0  0  0  0  0  0  0  0
   -1.1548   -2.9226    1.9281 C   0  0  0  0  0  0  0  0  0  0  0  0
   -5.1402    1.1697   -0.1278 C   0  0  0  0  0  0  0  0  0  0  0  0
    2.7493   -1.1017   -0.2134 C   0  0  0  0  0  0  0  0  0  0  0  0
    3.8239   -0.1724   -0.0161 C   0  0  0  0  0  0  0  0  0  0  0  0
   -5.5359    1.6052    1.1369 C   0  0  0  0  0  0  0  0  0  0  0  0
   -5.9307    0.2612   -0.8314 C   0  0  0  0  0  0  0  0  0  0  0  0
    5.1450   -0.5939   -0.1850 C   0  0  0  0  0  0  0  0  0  0  0  0
    3.5372    1.1559    0.3448 C   0  0  0  0  0  0  0  0  0  0  0  0
   -6.7222    1.1321    1.6980 C   0  0  0  0  0  0  0  0  0  0  0  0
   -7.1171   -0.2119   -0.2705 C   0  0  0  0  0  0  0  0  0  0  0  0
    6.1444    0.3361    0.0152 C   0  0  0  0  0  0  0  0  0  0  0  0
   -7.5126    0.2236    0.9943 C   0  0  0  0  0  0  0  0  0  0  0  0
    5.8637    1.6362    0.3683 C   0  0  0  0  0  0  0  0  0  0  0  0
    4.5680    2.0779    0.5411 C   0  0  0  0  0  0  0  0  0  0  0  0
    8.0104    1.4127    0.2167 C   0  0  0  0  0  0  0  0  0  0  0  0
   -3.5439   -0.9537   -1.2835 H   0  0  0  0  0  0  0  0  0  0  0  0
   -0.8032   -3.2072   -0.6130 H   0  0  0  0  0  0  0  0  0  0  0  0
   -0.8294   -0.4720   -1.7800 H   0  0  0  0  0  0  0  0  0  0  0  0
   -1.7155   -1.9372   -2.2182 H   0  0  0  0  0  0  0  0  0  0  0  0
   -3.2780   -1.1552    1.4291 H   0  0  0  0  0  0  0  0  0  0  0  0
   -3.2453   -2.6023    0.3896 H   0  0  0  0  0  0  0  0  0  0  0  0
   -1.8690    0.8517    0.4854 H   0  0  0  0  0  0  0  0  0  0  0  0
   -0.0961   -3.0469    2.1796 H   0  0  0  0  0  0  0  0  0  0  0  0
   -1.5409   -3.8874    1.5800 H   0  0  0  0  0  0  0  0  0  0  0  0
   -1.6719   -2.6623    2.8582 H   0  0  0  0  0  0  0  0  0  0  0  0
   -4.9321    2.3062    1.7059 H   0  0  0  0  0  0  0  0  0  0  0  0
   -5.6489   -0.0865   -1.8211 H   0  0  0  0  0  0  0  0  0  0  0  0
    5.4083   -1.6092   -0.4628 H   0  0  0  0  0  0  0  0  0  0  0  0
    2.5134    1.4980    0.4795 H   0  0  0  0  0  0  0  0  0  0  0  0
   -7.0294    1.4696    2.6835 H   0  0  0  0  0  0  0  0  0  0  0  0
   -7.7337   -0.9180   -0.8189 H   0  0  0  0  0  0  0  0  0  0  0  0
   -8.4361   -0.1448    1.4311 H   0  0  0  0  0  0  0  0  0  0  0  0
    4.3514    3.1030    0.8196 H   0  0  0  0  0  0  0  0  0  0  0  0
    8.5975    1.7712   -0.6366 H   0  0  0  0  0  0  0  0  0  0  0  0
    8.6726    1.3197    1.0852 H   0  0  0  0  0  0  0  0  0  0  0  0
  1  3  2  0  0  0  0
  1  4  2  0  0  0  0
  1  8  1  0  0  0  0
  1 17  1  0  0  0  0
  2 10  1  0  0  0  0
  2 15  1  0  0  0  0
  5 26  1  0  0  0  0
  5 30  1  0  0  0  0
  6 28  1  0  0  0  0
  6 30  1  0  0  0  0
  7 12  1  0  0  0  0
  7 14  1  0  0  0  0
  7 16  1  0  0  0  0
  8 11  1  0  0  0  0
  8 37  1  0  0  0  0
  9 15  2  0  0  0  0
  9 18  1  0  0  0  0
 10 18  2  0  0  0  0
 11 13  1  0  0  0  0
 11 14  1  0  0  0  0
 11 31  1  0  0  0  0
 12 13  1  0  0  0  0
 12 15  1  0  0  0  0
 12 32  1  0  0  0  0
 13 33  1  0  0  0  0
 13 34  1  0  0  0  0
 14 35  1  0  0  0  0
 14 36  1  0  0  0  0
 16 38  1  0  0  0  0
 16 39  1  0  0  0  0
 16 40  1  0  0  0  0
 17 20  2  0  0  0  0
 17 21  1  0  0  0  0
 18 19  1  0  0  0  0
 19 22  2  0  0  0  0
 19 23  1  0  0  0  0
 20 24  1  0  0  0  0
 20 41  1  0  0  0  0
 21 25  2  0  0  0  0
 21 42  1  0  0  0  0
 22 26  1  0  0  0  0
 22 43  1  0  0  0  0
 23 29  2  0  0  0  0
 23 44  1  0  0  0  0
 24 27  2  0  0  0  0
 24 45  1  0  0  0  0
 25 27  1  0  0  0  0
 25 46  1  0  0  0  0
 26 28  2  0  0  0  0
 27 47  1  0  0  0  0
 28 29  1  0  0  0  0
 29 48  1  0  0  0  0
 30 49  1  0  0  0  0
 30 50  1  0  0  0  0
M  END
> <PUBCHEM_COMPOUND_CID>
28961045

> <PUBCHEM_CONFORMER_RMSD>
0.8

> <PUBCHEM_CONFORMER_DIVERSEORDER>
1
79
124
187
152
157
176
158
33
15
44
113
120
180
160
32
88
129
190
65
150
141
94
188
91
169
40
174
3
159
170
87
162
60
123
68
24
100
70
172
73
178
136
117
82
147
76
179
149
145
186
18
112
142
61
189
63
93
57
78
58
166
90
133
173
182
36
139
114
12
168
10
83
140
71
161
163
181
67
89
66
28
31
175
126
128
148
171
95
84
50
131
146
5
4
55
99
155
35
122
102
135
77
45
34
130
13
110
177
62
11
107
137
165
185
134
115
37
49
6
80
26
69
156
42
23
125
30
132
151
127
8
16
101
167
85
164
81
98
29
118
86
56
17
38
106
184
21
105
25
19
116
75
41
183
92
121
72
64
97
39
27
54
7
154
20
143
109
9
47
74
52
119
46
22
43
103
48
53
153
138
104
111
51
2
144
59
96
14
108

> <PUBCHEM_MMFF94_PARTIAL_CHARGES>
38
1 1.45
10 -0.41
11 0.36
12 0.45
14 0.27
15 0.3
16 0.27
17 -0.01
18 0.46
19 0.05
2 -0.02
20 -0.15
21 -0.15
22 -0.15
23 -0.15
24 -0.15
25 -0.15
26 0.08
27 -0.15
28 0.08
29 -0.15
3 -0.65
30 0.56
37 0.42
4 -0.65
41 0.15
42 0.15
43 0.15
44 0.15
45 0.15
46 0.15
47 0.15
48 0.15
5 -0.36
6 -0.36
7 -0.81
8 -0.91
9 -0.57

> <PUBCHEM_EFFECTIVE_ROTOR_COUNT>
6.6

> <PUBCHEM_PHARMACOPHORE_FEATURES>
12
1 3 acceptor
1 4 acceptor
1 5 acceptor
1 6 acceptor
1 7 cation
1 8 donor
3 9 10 18 cation
5 2 9 10 15 18 rings
5 5 6 26 28 30 rings
5 7 11 12 13 14 rings
6 17 20 21 24 25 27 rings
6 19 22 23 26 28 29 rings

> <PUBCHEM_HEAVY_ATOM_COUNT>
30

> <PUBCHEM_ATOM_DEF_STEREO_COUNT>
2

> <PUBCHEM_ATOM_UDEF_STEREO_COUNT>
0

> <PUBCHEM_BOND_DEF_STEREO_COUNT>
0

> <PUBCHEM_BOND_UDEF_STEREO_COUNT>
0

> <PUBCHEM_ISOTOPIC_ATOM_COUNT>
0

> <PUBCHEM_COMPONENT_COUNT>
1

> <PUBCHEM_CACTVS_TAUTO_COUNT>
1

> <PUBCHEM_CONFORMER_ID>
01B9E91500000001

> <PUBCHEM_MMFF94_ENERGY>
54.4665

> <PUBCHEM_FEATURE_SELFOVERLAP>
61.071

> <PUBCHEM_SHAPE_FINGERPRINT>
10 15 18040998444589715528
10074138 170 17313394490838411635
10369192 42 17704354364513408325
10622 236 12542418932934315769
11135609 201 18410567405372583594
12788726 201 16414922929050484905
131258 43 16411787337269701629
13402501 40 18410289220451825132
13690498 29 16701161153811539559
14150023 79 18411703149994081718
14257110 125 18413669119031604102
14394314 77 18201446826990788057
14849402 71 18273216421864274465
15183329 4 18272082794878301072
15357212 105 17461737365958993172
15475509 8 11671783759094525595
15519825 34 16371016268615248481
15604295 49 17986665082110898552
15728490 51 18343301509991928999
16126227 98 18272370905690013255
16760501 71 18410578387762195237
18393751 57 18259990383608685787
18608769 82 18411136978613857659
19302320 297 18334859450654684872
19438510 23 18409447003261432562
19611394 137 18115317807651325611
20567600 254 18114174225242844359
21033648 144 18410569566310891559
21033648 29 18270107054915585632
21033650 10 14548747175044235363
21298829 104 18202286909249267808
21401589 2 18334290972434223459
24771293 8 18408890629367138765
25019877 29 18342178864831488599
2747138 104 18115326509613730529
2838139 119 18342731897267124500
3383291 50 18186524328023088057
4093350 32 17060343985712374772
4098825 35 18272369758812932626
4107672 100 14979955861781667329
4258327 124 17677631893762070052
4339292 15 10303827475778087296
5385378 56 18410292480849058426
5470011 282 12895070756667681024
5911458 16 17489317356336326809
59682541 35 18187654609297635027

> <PUBCHEM_SHAPE_MULTIPOLES>
571.96
22.42
3.08
1.29
11.07
0.66
-0.05
-15.76
-4.08
0.66
-0.34
-2.1
0.08
1.02

> <PUBCHEM_SHAPE_SELFOVERLAP>
1244.25

> <PUBCHEM_SHAPE_VOLUME>
316.3

> <PUBCHEM_COORDINATE_TYPE>
2
5
10

$$$$
