56774893
  -OEChem-12032416323D

 42 43  0     1  0  0  0  0  0999 V2000
    2.9118   -2.0376    0.3468 O   0  0  0  0  0  0  0  0  0  0  0  0
    2.4601    1.8445   -1.2150 O   0  0  0  0  0  0  0  0  0  0  0  0
    6.1948   -0.7900   -0.4938 O   0  0  0  0  0  0  0  0  0  0  0  0
   -6.8151   -0.7415   -0.1517 O   0  0  0  0  0  0  0  0  0  0  0  0
   -4.3529   -1.0861   -0.9346 O   0  0  0  0  0  0  0  0  0  0  0  0
    4.3441    0.3723    0.3066 N   0  0  0  0  0  0  0  0  0  0  0  0
   -3.5043    0.6224    0.4488 N   0  0  0  0  0  0  0  0  0  0  0  0
    2.9087    0.3377    0.6133 C   0  0  1  0  0  0  0  0  0  0  0  0
    2.0810    0.5940   -0.6496 C   0  0  1  0  0  0  0  0  0  0  0  0
    2.5430   -0.9992    1.2469 C   0  0  0  0  0  0  0  0  0  0  0  0
    0.6021    0.6013   -0.3581 C   0  0  0  0  0  0  0  0  0  0  0  0
    5.0409   -0.7771   -0.0611 C   0  0  0  0  0  0  0  0  0  0  0  0
    4.3115   -2.0929    0.1857 C   0  0  0  0  0  0  0  0  0  0  0  0
    4.9823    1.6788    0.2196 C   0  0  0  0  0  0  0  0  0  0  0  0
   -0.2409   -0.3003   -1.0078 C   0  0  0  0  0  0  0  0  0  0  0  0
    0.0763    1.5098    0.5606 C   0  0  0  0  0  0  0  0  0  0  0  0
   -1.6096   -0.2935   -0.7390 C   0  0  0  0  0  0  0  0  0  0  0  0
   -1.2924    1.5167    0.8296 C   0  0  0  0  0  0  0  0  0  0  0  0
   -2.1353    0.6151    0.1797 C   0  0  0  0  0  0  0  0  0  0  0  0
   -4.4985   -0.1985   -0.0996 C   0  0  0  0  0  0  0  0  0  0  0  0
   -5.8717    0.1203    0.4506 C   0  0  0  0  0  0  0  0  0  0  0  0
   -8.1358   -0.4961    0.3219 C   0  0  0  0  0  0  0  0  0  0  0  0
    2.7347    1.1219    1.3604 H   0  0  0  0  0  0  0  0  0  0  0  0
    2.3109   -0.1595   -1.4124 H   0  0  0  0  0  0  0  0  0  0  0  0
    3.0703   -1.1420    2.1992 H   0  0  0  0  0  0  0  0  0  0  0  0
    1.4754   -1.0916    1.4644 H   0  0  0  0  0  0  0  0  0  0  0  0
    4.5168   -2.7530   -0.6635 H   0  0  0  0  0  0  0  0  0  0  0  0
    4.7514   -2.5544    1.0777 H   0  0  0  0  0  0  0  0  0  0  0  0
    4.5549    2.3632    0.9569 H   0  0  0  0  0  0  0  0  0  0  0  0
    6.0550    1.5782    0.4123 H   0  0  0  0  0  0  0  0  0  0  0  0
    4.8627    2.0766   -0.7908 H   0  0  0  0  0  0  0  0  0  0  0  0
    0.1556   -1.0143   -1.7249 H   0  0  0  0  0  0  0  0  0  0  0  0
    0.7115    2.2264    1.0734 H   0  0  0  0  0  0  0  0  0  0  0  0
    2.3589    2.5352   -0.5384 H   0  0  0  0  0  0  0  0  0  0  0  0
   -2.1978   -1.0213   -1.2801 H   0  0  0  0  0  0  0  0  0  0  0  0
   -1.6887    2.2312    1.5466 H   0  0  0  0  0  0  0  0  0  0  0  0
   -3.8095    1.3136    1.1310 H   0  0  0  0  0  0  0  0  0  0  0  0
   -5.8605   -0.0292    1.5361 H   0  0  0  0  0  0  0  0  0  0  0  0
   -6.1110    1.1645    0.2203 H   0  0  0  0  0  0  0  0  0  0  0  0
   -8.8151   -1.1909   -0.1791 H   0  0  0  0  0  0  0  0  0  0  0  0
   -8.4425    0.5271    0.0846 H   0  0  0  0  0  0  0  0  0  0  0  0
   -8.1922   -0.6670    1.4013 H   0  0  0  0  0  0  0  0  0  0  0  0
  1 10  1  0  0  0  0
  1 13  1  0  0  0  0
  2  9  1  0  0  0  0
  2 34  1  0  0  0  0
  3 12  2  0  0  0  0
  4 21  1  0  0  0  0
  4 22  1  0  0  0  0
  5 20  2  0  0  0  0
  6  8  1  0  0  0  0
  6 12  1  0  0  0  0
  6 14  1  0  0  0  0
  7 19  1  0  0  0  0
  7 20  1  0  0  0  0
  7 37  1  0  0  0  0
  8  9  1  0  0  0  0
  8 10  1  0  0  0  0
  8 23  1  0  0  0  0
  9 11  1  0  0  0  0
  9 24  1  0  0  0  0
 10 25  1  0  0  0  0
 10 26  1  0  0  0  0
 11 15  2  0  0  0  0
 11 16  1  0  0  0  0
 12 13  1  0  0  0  0
 13 27  1  0  0  0  0
 13 28  1  0  0  0  0
 14 29  1  0  0  0  0
 14 30  1  0  0  0  0
 14 31  1  0  0  0  0
 15 17  1  0  0  0  0
 15 32  1  0  0  0  0
 16 18  2  0  0  0  0
 16 33  1  0  0  0  0
 17 19  2  0  0  0  0
 17 35  1  0  0  0  0
 18 19  1  0  0  0  0
 18 36  1  0  0  0  0
 20 21  1  0  0  0  0
 21 38  1  0  0  0  0
 21 39  1  0  0  0  0
 22 40  1  0  0  0  0
 22 41  1  0  0  0  0
 22 42  1  0  0  0  0
M  END
> <PUBCHEM_COMPOUND_CID>
56774893

> <PUBCHEM_CONFORMER_RMSD>
0.8

> <PUBCHEM_CONFORMER_DIVERSEORDER>
1
26
42
35
21
37
16
14
40
31
33
32
39
6
23
13
25
4
30
28
38
18
17
15
29
8
10
41
22
7
34
20
9
24
11
43
12
19
3
36
2
5
27

> <PUBCHEM_MMFF94_PARTIAL_CHARGES>
28
1 -0.56
10 0.28
11 -0.14
12 0.57
13 0.34
14 0.3
15 -0.15
16 -0.15
17 -0.15
18 -0.15
19 0.12
2 -0.68
20 0.57
21 0.34
22 0.28
3 -0.57
32 0.15
33 0.15
34 0.4
35 0.15
36 0.15
37 0.37
4 -0.56
5 -0.57
6 -0.66
7 -0.55
8 0.3
9 0.42

> <PUBCHEM_EFFECTIVE_ROTOR_COUNT>
7

> <PUBCHEM_PHARMACOPHORE_FEATURES>
9
1 1 acceptor
1 2 acceptor
1 2 donor
1 3 acceptor
1 4 acceptor
1 5 acceptor
1 7 donor
6 1 6 8 10 12 13 rings
6 11 15 16 17 18 19 rings

> <PUBCHEM_HEAVY_ATOM_COUNT>
22

> <PUBCHEM_ATOM_DEF_STEREO_COUNT>
2

> <PUBCHEM_ATOM_UDEF_STEREO_COUNT>
0

> <PUBCHEM_BOND_DEF_STEREO_COUNT>
0

> <PUBCHEM_BOND_UDEF_STEREO_COUNT>
0

> <PUBCHEM_ISOTOPIC_ATOM_COUNT>
0

> <PUBCHEM_COMPONENT_COUNT>
1

> <PUBCHEM_CACTVS_TAUTO_COUNT>
6

> <PUBCHEM_CONFORMER_ID>
036250ED00000001

> <PUBCHEM_MMFF94_ENERGY>
66.5359

> <PUBCHEM_FEATURE_SELFOVERLAP>
45.685

> <PUBCHEM_SHAPE_FINGERPRINT>
106641 1 17632571682098473802
11796584 16 17749108920244085019
12107183 9 17621040858855420384
12236239 1 18413672409303860241
12516196 113 18409165515441848569
12596602 18 17917992819163659147
12623949 98 17987525797282051254
12633257 1 15625929954647004650
13533116 47 18412824681280029778
13668630 136 18113621192595957763
13685833 64 18113338609427780027
13862211 1 17988640822726552637
14170010 4 18040716991114481533
14251764 18 18131634508963221225
15183329 4 16443343161814502201
17492 89 18126004862746538006
17834072 33 18411417302396726188
200 152 18261392230320468937
20645477 70 17967252009260456608
21150785 3 14923950054997993439
21267235 1 18271811186021555542
21285901 2 15357969015113382267
21344244 78 18270950289839746304
22224240 67 18187640354159014576
23035841 295 18201719552886006987
23402539 116 17346591980927616501
23522609 53 17914925173296533145
23536379 177 18113616781775236373
23559900 14 17968098693565361161
29717793 49 17967817145832331661
3004659 81 18259702307082137665
3411729 13 16700879687002692376
34797466 226 16370733620886027846
351380 3 18412540998954015811
4072396 5 17632578241062070023
4073 2 18041284377959141019
4340502 62 18114178678633248530
46194498 28 17240483628015042308
465052 167 18272653445760773111
5104073 3 18129655292974375520
57724786 102 13469818448021757314
59755656 215 16443061695432936387

> <PUBCHEM_SHAPE_MULTIPOLES>
413.44
16.83
1.71
0.97
25.25
0.11
-0.03
5.5
1.05
-2.16
0.11
-0.18
-0.04
-0.64

> <PUBCHEM_SHAPE_SELFOVERLAP>
859.218

> <PUBCHEM_SHAPE_VOLUME>
232.3

> <PUBCHEM_COORDINATE_TYPE>
2
5
10

$$$$
