75536117
  -OEChem-12032416293D

 41 43  0     1  0  0  0  0  0999 V2000
   -0.1298   -3.1944    0.6639 O   0  0  0  0  0  0  0  0  0  0  0  0
    2.5793   -2.8756    0.9555 O   0  0  0  0  0  0  0  0  0  0  0  0
   -0.6709   -0.3454   -0.3761 N   0  0  0  0  0  0  0  0  0  0  0  0
    3.0856    3.0664   -0.6828 N   0  0  0  0  0  0  0  0  0  0  0  0
   -5.0197    0.5511   -0.1203 N   0  0  0  0  0  0  0  0  0  0  0  0
   -4.5215    1.7833    0.0796 N   0  0  0  0  0  0  0  0  0  0  0  0
    0.6001   -0.9828   -0.0512 C   0  0  2  0  0  0  0  0  0  0  0  0
    1.7520   -0.4747   -0.9481 C   0  0  2  0  0  0  0  0  0  0  0  0
    0.5714   -2.4836   -0.3386 C   0  0  1  0  0  0  0  0  0  0  0  0
    2.6915   -1.6948   -1.1465 C   0  0  0  0  0  0  0  0  0  0  0  0
    2.0533   -2.8471   -0.3684 C   0  0  1  0  0  0  0  0  0  0  0  0
    2.4410    0.7543   -0.3947 C   0  0  0  0  0  0  0  0  0  0  0  0
   -1.6117   -0.4706    0.7282 C   0  0  0  0  0  0  0  0  0  0  0  0
    3.0487    0.7329    0.8557 C   0  0  0  0  0  0  0  0  0  0  0  0
    2.4868    1.9352   -1.1180 C   0  0  0  0  0  0  0  0  0  0  0  0
   -2.9354    0.1736    0.4127 C   0  0  0  0  0  0  0  0  0  0  0  0
    3.6750    1.8771    1.3378 C   0  0  0  0  0  0  0  0  0  0  0  0
   -4.1102   -0.4481    0.0665 C   0  0  0  0  0  0  0  0  0  0  0  0
    3.6656    3.0077    0.5369 C   0  0  0  0  0  0  0  0  0  0  0  0
   -3.2479    1.5461    0.4049 C   0  0  0  0  0  0  0  0  0  0  0  0
   -6.4033    0.3894   -0.4972 C   0  0  0  0  0  0  0  0  0  0  0  0
    0.8327   -0.8130    1.0085 H   0  0  0  0  0  0  0  0  0  0  0  0
    1.3512   -0.2266   -1.9423 H   0  0  0  0  0  0  0  0  0  0  0  0
    0.1083   -2.6897   -1.3123 H   0  0  0  0  0  0  0  0  0  0  0  0
    2.7114   -1.9459   -2.2144 H   0  0  0  0  0  0  0  0  0  0  0  0
    3.7223   -1.5002   -0.8321 H   0  0  0  0  0  0  0  0  0  0  0  0
    2.2327   -3.8254   -0.8239 H   0  0  0  0  0  0  0  0  0  0  0  0
   -0.5104    0.6461   -0.5568 H   0  0  0  0  0  0  0  0  0  0  0  0
   -1.2105    0.0044    1.6329 H   0  0  0  0  0  0  0  0  0  0  0  0
   -1.8091   -1.5191    0.9710 H   0  0  0  0  0  0  0  0  0  0  0  0
   -0.0216   -4.1426    0.4780 H   0  0  0  0  0  0  0  0  0  0  0  0
    3.5316   -3.0601    0.8865 H   0  0  0  0  0  0  0  0  0  0  0  0
    3.0527   -0.1644    1.4668 H   0  0  0  0  0  0  0  0  0  0  0  0
    2.0311    2.0168   -2.0999 H   0  0  0  0  0  0  0  0  0  0  0  0
    4.1566    1.8831    2.3088 H   0  0  0  0  0  0  0  0  0  0  0  0
   -4.3665   -1.4913   -0.0593 H   0  0  0  0  0  0  0  0  0  0  0  0
   -2.6021    2.3851    0.6221 H   0  0  0  0  0  0  0  0  0  0  0  0
    4.1407    3.9257    0.8668 H   0  0  0  0  0  0  0  0  0  0  0  0
   -7.0269    0.8178    0.2915 H   0  0  0  0  0  0  0  0  0  0  0  0
   -6.5655    0.9125   -1.4429 H   0  0  0  0  0  0  0  0  0  0  0  0
   -6.6282   -0.6734   -0.6151 H   0  0  0  0  0  0  0  0  0  0  0  0
  1  9  1  0  0  0  0
  1 31  1  0  0  0  0
  2 11  1  0  0  0  0
  2 32  1  0  0  0  0
  3  7  1  0  0  0  0
  3 13  1  0  0  0  0
  3 28  1  0  0  0  0
  4 15  1  0  0  0  0
  4 19  2  0  0  0  0
  5  6  1  0  0  0  0
  5 18  1  0  0  0  0
  5 21  1  0  0  0  0
  6 20  2  0  0  0  0
  7  8  1  0  0  0  0
  7  9  1  0  0  0  0
  7 22  1  0  0  0  0
  8 10  1  0  0  0  0
  8 12  1  0  0  0  0
  8 23  1  0  0  0  0
  9 11  1  0  0  0  0
  9 24  1  0  0  0  0
 10 11  1  0  0  0  0
 10 25  1  0  0  0  0
 10 26  1  0  0  0  0
 11 27  1  0  0  0  0
 12 14  1  0  0  0  0
 12 15  2  0  0  0  0
 13 16  1  0  0  0  0
 13 29  1  0  0  0  0
 13 30  1  0  0  0  0
 14 17  2  0  0  0  0
 14 33  1  0  0  0  0
 15 34  1  0  0  0  0
 16 18  2  0  0  0  0
 16 20  1  0  0  0  0
 17 19  1  0  0  0  0
 17 35  1  0  0  0  0
 18 36  1  0  0  0  0
 19 38  1  0  0  0  0
 20 37  1  0  0  0  0
 21 39  1  0  0  0  0
 21 40  1  0  0  0  0
 21 41  1  0  0  0  0
M  END
> <PUBCHEM_COMPOUND_CID>
75536117

> <PUBCHEM_CONFORMER_RMSD>
0.8

> <PUBCHEM_CONFORMER_DIVERSEORDER>
1
42
83
52
87
77
25
23
88
48
12
80
63
53
37
76
28
33
89
15
86
85
55
72
18
27
19
79
41
66
82
35
32
67
78
26
11
34
75
65
91
31
50
90
24
93
57
84
47
14
64
17
81
30
73
2
68
92
13
56
60
8
6
45
54
59
71
70
69
39
43
20
21
40
16
51
29
36
22
58
62
61
4
74
7
3
44
49
9
5
38
10
46

> <PUBCHEM_MMFF94_PARTIAL_CHARGES>
29
1 -0.68
11 0.28
12 -0.14
13 0.45
14 -0.15
15 0.16
16 -0.18
17 -0.15
18 -0.3
19 0.16
2 -0.68
20 0.14
21 0.26
28 0.36
3 -0.9
31 0.4
32 0.4
33 0.15
34 0.15
35 0.15
36 0.15
37 0.15
38 0.15
4 -0.62
5 0.31
6 -0.71
7 0.27
8 0.14
9 0.28

> <PUBCHEM_EFFECTIVE_ROTOR_COUNT>
5

> <PUBCHEM_PHARMACOPHORE_FEATURES>
11
1 1 acceptor
1 1 donor
1 2 acceptor
1 2 donor
1 3 cation
1 3 donor
1 4 acceptor
1 6 acceptor
5 5 6 16 18 20 rings
5 7 8 9 10 11 rings
6 4 12 14 15 17 19 rings

> <PUBCHEM_HEAVY_ATOM_COUNT>
21

> <PUBCHEM_ATOM_DEF_STEREO_COUNT>
4

> <PUBCHEM_ATOM_UDEF_STEREO_COUNT>
0

> <PUBCHEM_BOND_DEF_STEREO_COUNT>
0

> <PUBCHEM_BOND_UDEF_STEREO_COUNT>
0

> <PUBCHEM_ISOTOPIC_ATOM_COUNT>
0

> <PUBCHEM_COMPONENT_COUNT>
1

> <PUBCHEM_CACTVS_TAUTO_COUNT>
1

> <PUBCHEM_CONFORMER_ID>
048096F500000001

> <PUBCHEM_MMFF94_ENERGY>
49.6553

> <PUBCHEM_FEATURE_SELFOVERLAP>
55.833

> <PUBCHEM_SHAPE_FINGERPRINT>
10090160 65 18410284848544071117
11140007 195 14129326369531175736
11370993 70 18338516442822176273
12403259 327 16371003065538204840
12633257 1 16950836011609131608
12730499 353 18339091466281899819
12769317 202 18272079522187503337
12788726 201 17109891041682486626
13134695 92 18119812413280035310
13955234 65 18337676317418389963
13965767 371 18115573989460615164
14251764 38 18409450263231339025
14461889 52 18261115236012799283
14468879 13 18189624997899755817
146900 427 18131361829931814339
14848178 96 18411989074034119129
17492 54 10087066549168538514
18681886 176 18129659686499779782
20157964 124 18410005529862528333
20369508 70 18263082106752061975
20567600 254 18341040921414223768
21304303 282 17270854454752717390
21403212 168 18341597232191809024
21452121 103 18410286991168210528
21524375 3 18200597024501890612
22149856 69 18192738777145810699
2255824 54 18339649931836225102
23558518 356 18047468113417326986
23559900 14 18338237059732058563
312423 11 17845386466034211097
345986 75 16738881789418468626
4340502 62 18411699924298860739
43658 37 18342176708456743761
474 4 18409730689908656757
49207404 50 18261967339516001667
495365 180 18408604738625886355
5104073 3 18337679616474915401
5895379 119 16484739645028823768
6327066 14 18193837274106931932
6333272 397 18337959007506295857
67856867 119 18411974737659761707
7364860 26 18341897329519200998
7471813 234 17844241830910317377
7808743 9 17905895026078897636
84936 182 18272656735658379232
9981440 41 18193835066345581402
9999458 23 18407760348498422782

> <PUBCHEM_SHAPE_MULTIPOLES>
400.51
10.36
3.77
1.06
18.41
1.12
0.01
-7.1
-0.17
-4.83
0.26
-0.89
-0.08
0.34

> <PUBCHEM_SHAPE_SELFOVERLAP>
851.501

> <PUBCHEM_SHAPE_VOLUME>
224.9

> <PUBCHEM_COORDINATE_TYPE>
2
5
10

$$$$
