11865911
  -OEChem-12032416123D

 59 62  0     1  0  0  0  0  0999 V2000
   -0.3673   -0.0174   -2.0630 O   0  0  0  0  0  0  0  0  0  0  0  0
    2.0365   -3.6952    1.6061 O   0  0  0  0  0  0  0  0  0  0  0  0
   -1.9413    1.6245   -0.0818 O   0  0  0  0  0  0  0  0  0  0  0  0
    6.0551    0.6588   -0.2007 O   0  0  0  0  0  0  0  0  0  0  0  0
    6.0621    3.1755    0.7549 O   0  0  0  0  0  0  0  0  0  0  0  0
   -2.3400   -0.6502   -0.2266 N   0  0  0  0  0  0  0  0  0  0  0  0
    1.2911   -1.1171   -0.8683 N   0  0  0  0  0  0  0  0  0  0  0  0
   -0.0411   -3.2515    0.8348 N   0  0  0  0  0  0  0  0  0  0  0  0
    3.7399    0.6451   -0.4268 N   0  0  0  0  0  0  0  0  0  0  0  0
   -0.9643   -1.0769    0.0220 C   0  0  1  0  0  0  0  0  0  0  0  0
   -1.0196   -2.6068   -0.0142 C   0  0  2  0  0  0  0  0  0  0  0  0
    1.8247   -1.6240    0.4004 C   0  0  2  0  0  0  0  0  0  0  0  0
   -2.4606   -2.9135    0.3845 C   0  0  0  0  0  0  0  0  0  0  0  0
   -3.2354   -1.8010   -0.3056 C   0  0  0  0  0  0  0  0  0  0  0  0
    3.3442   -1.7074    0.1533 C   0  0  0  0  0  0  0  0  0  0  0  0
    3.6046   -0.6915   -0.9551 C   0  0  1  0  0  0  0  0  0  0  0  0
   -0.0051   -0.6573   -1.0771 C   0  0  0  0  0  0  0  0  0  0  0  0
    2.3587   -0.8277   -1.8182 C   0  0  0  0  0  0  0  0  0  0  0  0
   -4.2078    0.9270   -0.1523 C   0  0  0  0  0  0  0  0  0  0  0  0
    1.3015   -2.9653    0.9301 C   0  0  0  0  0  0  0  0  0  0  0  0
   -2.7287    0.6786   -0.1472 C   0  0  0  0  0  0  0  0  0  0  0  0
   -4.7474    0.8922    1.2793 C   0  0  0  0  0  0  0  0  0  0  0  0
   -4.5097    2.2643   -0.8322 C   0  0  0  0  0  0  0  0  0  0  0  0
   -6.2343    1.2333    1.3300 C   0  0  0  0  0  0  0  0  0  0  0  0
   -5.9972    2.6024   -0.7764 C   0  0  0  0  0  0  0  0  0  0  0  0
   -6.5290    2.5686    0.6532 C   0  0  0  0  0  0  0  0  0  0  0  0
    4.9625    1.2090   -0.0927 C   0  0  0  0  0  0  0  0  0  0  0  0
    4.8047    2.6191    0.4350 C   0  0  0  0  0  0  0  0  0  0  0  0
    5.9433    4.5043    1.2546 C   0  0  0  0  0  0  0  0  0  0  0  0
   -0.6557   -0.6599    0.9868 H   0  0  0  0  0  0  0  0  0  0  0  0
   -0.8480   -2.9897   -1.0300 H   0  0  0  0  0  0  0  0  0  0  0  0
    1.6161   -0.8667    1.1666 H   0  0  0  0  0  0  0  0  0  0  0  0
   -2.7868   -3.9101    0.0726 H   0  0  0  0  0  0  0  0  0  0  0  0
   -2.5820   -2.8424    1.4729 H   0  0  0  0  0  0  0  0  0  0  0  0
   -3.3907   -2.0237   -1.3669 H   0  0  0  0  0  0  0  0  0  0  0  0
   -4.2023   -1.6454    0.1730 H   0  0  0  0  0  0  0  0  0  0  0  0
    3.6212   -2.7068   -0.2075 H   0  0  0  0  0  0  0  0  0  0  0  0
    3.9162   -1.5135    1.0671 H   0  0  0  0  0  0  0  0  0  0  0  0
    4.5114   -0.9352   -1.5185 H   0  0  0  0  0  0  0  0  0  0  0  0
    2.1374    0.0603   -2.4184 H   0  0  0  0  0  0  0  0  0  0  0  0
    2.4344   -1.6962   -2.4822 H   0  0  0  0  0  0  0  0  0  0  0  0
   -0.3289   -4.1291    1.2573 H   0  0  0  0  0  0  0  0  0  0  0  0
   -4.7179    0.1674   -0.7549 H   0  0  0  0  0  0  0  0  0  0  0  0
   -4.5845   -0.0886    1.7396 H   0  0  0  0  0  0  0  0  0  0  0  0
   -4.1940    1.6097    1.9001 H   0  0  0  0  0  0  0  0  0  0  0  0
   -4.1780    2.2390   -1.8776 H   0  0  0  0  0  0  0  0  0  0  0  0
   -3.9519    3.0777   -0.3499 H   0  0  0  0  0  0  0  0  0  0  0  0
   -6.5690    1.2677    2.3729 H   0  0  0  0  0  0  0  0  0  0  0  0
   -6.8072    0.4387    0.8363 H   0  0  0  0  0  0  0  0  0  0  0  0
   -6.5571    1.8869   -1.3912 H   0  0  0  0  0  0  0  0  0  0  0  0
   -6.1662    3.5949   -1.2092 H   0  0  0  0  0  0  0  0  0  0  0  0
    2.8910    1.1743   -0.2468 H   0  0  0  0  0  0  0  0  0  0  0  0
   -7.6097    2.7494    0.6491 H   0  0  0  0  0  0  0  0  0  0  0  0
   -6.0710    3.3800    1.2323 H   0  0  0  0  0  0  0  0  0  0  0  0
    4.1727    2.5851    1.3302 H   0  0  0  0  0  0  0  0  0  0  0  0
    4.3133    3.2249   -0.3354 H   0  0  0  0  0  0  0  0  0  0  0  0
    5.3480    4.5153    2.1727 H   0  0  0  0  0  0  0  0  0  0  0  0
    6.9457    4.8763    1.4823 H   0  0  0  0  0  0  0  0  0  0  0  0
    5.4897    5.1563    0.5020 H   0  0  0  0  0  0  0  0  0  0  0  0
  1 17  2  0  0  0  0
  2 20  2  0  0  0  0
  3 21  2  0  0  0  0
  4 27  2  0  0  0  0
  5 28  1  0  0  0  0
  5 29  1  0  0  0  0
  6 10  1  0  0  0  0
  6 14  1  0  0  0  0
  6 21  1  0  0  0  0
  7 12  1  0  0  0  0
  7 17  1  0  0  0  0
  7 18  1  0  0  0  0
  8 11  1  0  0  0  0
  8 20  1  0  0  0  0
  8 42  1  0  0  0  0
  9 16  1  0  0  0  0
  9 27  1  0  0  0  0
  9 52  1  0  0  0  0
 10 11  1  0  0  0  0
 10 17  1  0  0  0  0
 10 30  1  0  0  0  0
 11 13  1  0  0  0  0
 11 31  1  0  0  0  0
 12 15  1  0  0  0  0
 12 20  1  0  0  0  0
 12 32  1  0  0  0  0
 13 14  1  0  0  0  0
 13 33  1  0  0  0  0
 13 34  1  0  0  0  0
 14 35  1  0  0  0  0
 14 36  1  0  0  0  0
 15 16  1  0  0  0  0
 15 37  1  0  0  0  0
 15 38  1  0  0  0  0
 16 18  1  0  0  0  0
 16 39  1  0  0  0  0
 18 40  1  0  0  0  0
 18 41  1  0  0  0  0
 19 21  1  0  0  0  0
 19 22  1  0  0  0  0
 19 23  1  0  0  0  0
 19 43  1  0  0  0  0
 22 24  1  0  0  0  0
 22 44  1  0  0  0  0
 22 45  1  0  0  0  0
 23 25  1  0  0  0  0
 23 46  1  0  0  0  0
 23 47  1  0  0  0  0
 24 26  1  0  0  0  0
 24 48  1  0  0  0  0
 24 49  1  0  0  0  0
 25 26  1  0  0  0  0
 25 50  1  0  0  0  0
 25 51  1  0  0  0  0
 26 53  1  0  0  0  0
 26 54  1  0  0  0  0
 27 28  1  0  0  0  0
 28 55  1  0  0  0  0
 28 56  1  0  0  0  0
 29 57  1  0  0  0  0
 29 58  1  0  0  0  0
 29 59  1  0  0  0  0
M  END
> <PUBCHEM_COMPOUND_CID>
11865911

> <PUBCHEM_CONFORMER_RMSD>
1

> <PUBCHEM_CONFORMER_DIVERSEORDER>
1
6
4
26
8
2
19
13
22
24
12
3
25
30
20
23
14
7
9
28
11
27
29
5
17
10
16
15
18
21

> <PUBCHEM_MMFF94_PARTIAL_CHARGES>
24
1 -0.57
10 0.36
11 0.3
12 0.36
14 0.3
16 0.3
17 0.57
18 0.3
19 0.06
2 -0.57
20 0.57
21 0.57
27 0.57
28 0.34
29 0.28
3 -0.57
4 -0.57
42 0.37
5 -0.56
52 0.37
6 -0.66
7 -0.66
8 -0.73
9 -0.73

> <PUBCHEM_EFFECTIVE_ROTOR_COUNT>
8.6

> <PUBCHEM_PHARMACOPHORE_FEATURES>
11
1 1 acceptor
1 2 acceptor
1 3 acceptor
1 4 acceptor
1 5 acceptor
1 8 donor
1 9 donor
5 6 10 11 13 14 rings
5 7 12 15 16 18 rings
6 19 22 23 24 25 26 rings
7 7 8 10 11 12 17 20 rings

> <PUBCHEM_HEAVY_ATOM_COUNT>
29

> <PUBCHEM_ATOM_DEF_STEREO_COUNT>
4

> <PUBCHEM_ATOM_UDEF_STEREO_COUNT>
0

> <PUBCHEM_BOND_DEF_STEREO_COUNT>
0

> <PUBCHEM_BOND_UDEF_STEREO_COUNT>
0

> <PUBCHEM_ISOTOPIC_ATOM_COUNT>
0

> <PUBCHEM_COMPONENT_COUNT>
1

> <PUBCHEM_CACTVS_TAUTO_COUNT>
4

> <PUBCHEM_CONFORMER_ID>
00B50F3700000001

> <PUBCHEM_MMFF94_ENERGY>
79.3292

> <PUBCHEM_FEATURE_SELFOVERLAP>
55.913

> <PUBCHEM_SHAPE_FINGERPRINT>
10816530 23 18131072632003246383
11135609 127 17975680711899289813
11135609 201 18339641252039363283
12422481 6 17095515163165969990
12925494 130 18269269226201392400
13782708 43 11746932109469948400
13955234 65 18116996576596202267
13965767 371 17821999879349577878
14178342 30 17895484724989801879
14251764 75 18413390934126793713
14565420 104 18335139782462453528
146900 427 18266468607419385025
14739800 52 18337667525292916808
15475509 35 15575843768328662506
15510800 12 12108327249678582712
19438510 23 18272932756369418048
20511986 3 18041556941632715711
20642791 13 18266461099405510887
21033648 29 18261401065295108636
21033650 10 14189305816038846451
21307412 95 9005968338789327146
21475661 188 18341893026231249292
22122407 14 18124605180656055025
23559900 14 18129107718846248230
23845131 108 18259705588332358739
2838139 119 18343297059413942708
3472631 163 18272089370583877767
350125 39 17898576366987599287
376196 1 18341895229676235078
4340502 62 18262525792686338063
484985 159 10483952214628023072
5104073 3 18186798093317763882
5207 123 10087635979578866507
5951187 136 18129389198022415356
636775 72 17981321511302742832
6697151 62 17176841468897518267
7064713 232 18114181990612222798
7970288 3 8646182841504345777
9981440 41 18187926243761180402

> <PUBCHEM_SHAPE_MULTIPOLES>
547.54
15.45
4.91
1.35
1.27
1.48
0.18
22.16
-3.46
-4.62
-2.35
-0.06
-0.07
1.41

> <PUBCHEM_SHAPE_SELFOVERLAP>
1152.195

> <PUBCHEM_SHAPE_VOLUME>
303.5

> <PUBCHEM_COORDINATE_TYPE>
2
5
10

$$$$
