51136906
  -OEChem-12032416223D

 52 56  0     1  0  0  0  0  0999 V2000
   -2.4588   -1.6863    1.9783 O   0  0  0  0  0  0  0  0  0  0  0  0
    0.9915    3.6389   -0.6561 O   0  0  0  0  0  0  0  0  0  0  0  0
    0.4169    4.2430    1.4585 O   0  0  0  0  0  0  0  0  0  0  0  0
   -4.4397   -0.6591   -0.9416 N   0  0  1  0  0  0  0  0  0  0  0  0
   -1.6468   -1.2365   -0.0601 N   0  0  0  0  0  0  0  0  0  0  0  0
   -1.0684   -1.6001    2.1233 N   0  0  0  0  0  0  0  0  0  0  0  0
    3.0315   -1.1022    1.2515 N   0  0  0  0  0  0  0  0  0  0  0  0
    6.5921    0.3146   -1.5101 N   0  0  0  0  0  0  0  0  0  0  0  0
    7.0650   -1.2157    0.2902 N   0  0  0  0  0  0  0  0  0  0  0  0
   -4.1688   -1.4990    0.2422 C   0  0  1  0  0  0  0  0  0  0  0  0
   -4.6324   -2.9098   -0.1648 C   0  0  0  0  0  0  0  0  0  0  0  0
   -5.2036   -2.7518   -1.5668 C   0  0  0  0  0  0  0  0  0  0  0  0
   -5.5633   -1.2817   -1.6418 C   0  0  0  0  0  0  0  0  0  0  0  0
   -4.7056    0.7345   -0.6086 C   0  0  0  0  0  0  0  0  0  0  0  0
   -2.7147   -1.4602    0.6631 C   0  0  0  0  0  0  0  0  0  0  0  0
   -3.4363    1.4995   -0.3429 C   0  0  0  0  0  0  0  0  0  0  0  0
   -3.2434    2.1230    0.8900 C   0  0  0  0  0  0  0  0  0  0  0  0
   -2.4534    1.5848   -1.3291 C   0  0  0  0  0  0  0  0  0  0  0  0
   -0.6613   -1.3325    0.8789 C   0  0  0  0  0  0  0  0  0  0  0  0
   -2.0677    2.8317    1.1364 C   0  0  0  0  0  0  0  0  0  0  0  0
   -1.2778    2.2936   -1.0824 C   0  0  0  0  0  0  0  0  0  0  0  0
    0.7215   -1.1571    0.5403 C   0  0  0  0  0  0  0  0  0  0  0  0
   -1.0847    2.9170    0.1503 C   0  0  0  0  0  0  0  0  0  0  0  0
    1.1094   -0.8809   -0.7661 C   0  0  0  0  0  0  0  0  0  0  0  0
    1.7122   -1.2568    1.5037 C   0  0  0  0  0  0  0  0  0  0  0  0
    0.1416    3.6552    0.4073 C   0  0  0  0  0  0  0  0  0  0  0  0
    2.4574   -0.7154   -1.0648 C   0  0  0  0  0  0  0  0  0  0  0  0
    3.3705   -0.8350   -0.0296 C   0  0  0  0  0  0  0  0  0  0  0  0
    4.7860   -0.6766   -0.2656 C   0  0  0  0  0  0  0  0  0  0  0  0
    5.2772    0.1447   -1.2596 C   0  0  0  0  0  0  0  0  0  0  0  0
    5.7357   -1.3386    0.4854 C   0  0  0  0  0  0  0  0  0  0  0  0
    7.4181   -0.3853   -0.7093 C   0  0  0  0  0  0  0  0  0  0  0  0
   -4.7850   -1.1802    1.0948 H   0  0  0  0  0  0  0  0  0  0  0  0
   -3.8334   -3.6591   -0.1524 H   0  0  0  0  0  0  0  0  0  0  0  0
   -5.4222   -3.2491    0.5166 H   0  0  0  0  0  0  0  0  0  0  0  0
   -4.4361   -2.9965   -2.3116 H   0  0  0  0  0  0  0  0  0  0  0  0
   -6.0648   -3.4041   -1.7387 H   0  0  0  0  0  0  0  0  0  0  0  0
   -5.6440   -0.9399   -2.6783 H   0  0  0  0  0  0  0  0  0  0  0  0
   -6.5157   -1.0964   -1.1290 H   0  0  0  0  0  0  0  0  0  0  0  0
   -5.1887    1.2355   -1.4594 H   0  0  0  0  0  0  0  0  0  0  0  0
   -5.4133    0.8253    0.2258 H   0  0  0  0  0  0  0  0  0  0  0  0
   -3.9996    2.0630    1.6680 H   0  0  0  0  0  0  0  0  0  0  0  0
   -2.5916    1.1078   -2.2959 H   0  0  0  0  0  0  0  0  0  0  0  0
   -1.9359    3.3095    2.1037 H   0  0  0  0  0  0  0  0  0  0  0  0
   -0.5389    2.3340   -1.8777 H   0  0  0  0  0  0  0  0  0  0  0  0
    0.3842   -0.7933   -1.5710 H   0  0  0  0  0  0  0  0  0  0  0  0
    1.4934   -1.4694    2.5459 H   0  0  0  0  0  0  0  0  0  0  0  0
    2.7460   -0.5198   -2.0920 H   0  0  0  0  0  0  0  0  0  0  0  0
    1.8158    4.1381   -0.4722 H   0  0  0  0  0  0  0  0  0  0  0  0
    4.6354    0.7358   -1.9054 H   0  0  0  0  0  0  0  0  0  0  0  0
    5.4703   -2.0192    1.2890 H   0  0  0  0  0  0  0  0  0  0  0  0
    8.4798   -0.2677   -0.8883 H   0  0  0  0  0  0  0  0  0  0  0  0
  1  6  1  0  0  0  0
  1 15  1  0  0  0  0
  2 26  1  0  0  0  0
  2 49  1  0  0  0  0
  3 26  2  0  0  0  0
  4 10  1  0  0  0  0
  4 13  1  0  0  0  0
  4 14  1  0  0  0  0
  5 15  2  0  0  0  0
  5 19  1  0  0  0  0
  6 19  2  0  0  0  0
  7 25  1  0  0  0  0
  7 28  2  0  0  0  0
  8 30  2  0  0  0  0
  8 32  1  0  0  0  0
  9 31  1  0  0  0  0
  9 32  2  0  0  0  0
 10 11  1  0  0  0  0
 10 15  1  0  0  0  0
 10 33  1  0  0  0  0
 11 12  1  0  0  0  0
 11 34  1  0  0  0  0
 11 35  1  0  0  0  0
 12 13  1  0  0  0  0
 12 36  1  0  0  0  0
 12 37  1  0  0  0  0
 13 38  1  0  0  0  0
 13 39  1  0  0  0  0
 14 16  1  0  0  0  0
 14 40  1  0  0  0  0
 14 41  1  0  0  0  0
 16 17  2  0  0  0  0
 16 18  1  0  0  0  0
 17 20  1  0  0  0  0
 17 42  1  0  0  0  0
 18 21  2  0  0  0  0
 18 43  1  0  0  0  0
 19 22  1  0  0  0  0
 20 23  2  0  0  0  0
 20 44  1  0  0  0  0
 21 23  1  0  0  0  0
 21 45  1  0  0  0  0
 22 24  1  0  0  0  0
 22 25  2  0  0  0  0
 23 26  1  0  0  0  0
 24 27  2  0  0  0  0
 24 46  1  0  0  0  0
 25 47  1  0  0  0  0
 27 28  1  0  0  0  0
 27 48  1  0  0  0  0
 28 29  1  0  0  0  0
 29 30  1  0  0  0  0
 29 31  2  0  0  0  0
 30 50  1  0  0  0  0
 31 51  1  0  0  0  0
 32 52  1  0  0  0  0
M  END
> <PUBCHEM_COMPOUND_CID>
51136906

> <PUBCHEM_CONFORMER_RMSD>
1

> <PUBCHEM_CONFORMER_DIVERSEORDER>
1
10
29
43
33
3
40
6
39
14
25
41
26
7
44
32
20
35
46
19
16
31
11
45
38
17
24
42
27
9
28
2
34
23
48
15
12
5
13
30
22
36
4
18
21
37
8
47

> <PUBCHEM_MMFF94_PARTIAL_CHARGES>
40
1 -0.02
10 0.45
13 0.27
14 0.41
15 0.3
16 -0.14
17 -0.15
18 -0.15
19 0.46
2 -0.65
20 -0.15
21 -0.15
22 0.05
23 0.09
24 -0.15
25 0.16
26 0.63
27 -0.15
28 0.31
3 -0.57
30 0.16
31 0.16
32 0.47
4 -0.81
42 0.15
43 0.15
44 0.15
45 0.15
46 0.15
47 0.15
48 0.15
49 0.5
5 -0.57
50 0.15
51 0.15
52 0.15
6 -0.41
7 -0.62
8 -0.62
9 -0.62

> <PUBCHEM_EFFECTIVE_ROTOR_COUNT>
7

> <PUBCHEM_PHARMACOPHORE_FEATURES>
13
1 2 acceptor
1 3 acceptor
1 4 cation
1 7 acceptor
1 8 acceptor
3 2 3 26 anion
3 5 6 19 cation
3 8 9 32 cation
5 1 5 6 15 19 rings
5 4 10 11 12 13 rings
6 16 17 18 20 21 23 rings
6 7 22 24 25 27 28 rings
6 8 9 29 30 31 32 rings

> <PUBCHEM_HEAVY_ATOM_COUNT>
32

> <PUBCHEM_ATOM_DEF_STEREO_COUNT>
1

> <PUBCHEM_ATOM_UDEF_STEREO_COUNT>
0

> <PUBCHEM_BOND_DEF_STEREO_COUNT>
0

> <PUBCHEM_BOND_UDEF_STEREO_COUNT>
0

> <PUBCHEM_ISOTOPIC_ATOM_COUNT>
0

> <PUBCHEM_COMPONENT_COUNT>
1

> <PUBCHEM_CACTVS_TAUTO_COUNT>
1

> <PUBCHEM_CONFORMER_ID>
030C498A00000001

> <PUBCHEM_MMFF94_ENERGY>
78.8771

> <PUBCHEM_FEATURE_SELFOVERLAP>
66.031

> <PUBCHEM_SHAPE_FINGERPRINT>
10032420 55 17968358088241628301
10454371 7 18410584959610758772
1100329 8 18411698760795506721
11477941 20 18342449365902863876
12107698 1 18412544340274756260
12156800 1 14785112445046483581
12166972 35 17895196652953127550
12788726 201 18261948553271260810
13782708 43 17704078357157172702
14068700 675 18201155546365206677
14931854 50 18114170926602622303
15183329 4 17967816012457259714
15419008 47 17918266550815501952
15876981 60 18409736157549698861
15968369 153 18060128887001186008
17492 54 18114732742980056565
18336668 15 18040723558167236125
20642791 35 18336247008790606429
20721686 56 18338234989937747000
20775438 99 17404556258254548503
21236236 1 18334017168448386406
21344244 246 17837200842483795239
23559900 14 17970061347822444725
255183 451 18053376893358536911
392239 28 18338526252817949104
4280585 95 18410565193649042229
5171179 24 18270674397898416297
531348 171 18200035015025877998
57527585 103 17461194064916383363

> <PUBCHEM_SHAPE_MULTIPOLES>
611.05
14.86
4.16
1.62
24.04
4.81
0.22
-9.33
-6.25
-4.29
0.77
-0.49
-0.3
-1.16

> <PUBCHEM_SHAPE_SELFOVERLAP>
1353.517

> <PUBCHEM_SHAPE_VOLUME>
325.4

> <PUBCHEM_COORDINATE_TYPE>
2
5
10

$$$$
