25338279
  -OEChem-12032416203D

 44 47  0     1  0  0  0  0  0999 V2000
    2.8252   -2.3979   -0.6346 O   0  0  0  0  0  0  0  0  0  0  0  0
   -3.8334   -0.8567   -1.7801 O   0  0  0  0  0  0  0  0  0  0  0  0
   -0.1852   -2.8465    1.1412 N   0  0  1  0  0  0  0  0  0  0  0  0
   -2.4270   -1.1556    0.0392 N   0  0  0  0  0  0  0  0  0  0  0  0
    1.6905   -0.5751    0.0033 N   0  0  0  0  0  0  0  0  0  0  0  0
    3.7512   -1.3471   -0.6225 N   0  0  0  0  0  0  0  0  0  0  0  0
    4.8597    1.1648   -0.3450 N   0  0  0  0  0  0  0  0  0  0  0  0
    3.2501    3.3139    0.4652 N   0  0  0  0  0  0  0  0  0  0  0  0
   -1.9594   -2.4723   -0.3240 C   0  0  1  0  0  0  0  0  0  0  0  0
    0.4575   -2.8028   -0.1862 C   0  0  1  0  0  0  0  0  0  0  0  0
   -0.6761   -2.4051   -1.1519 C   0  0  0  0  0  0  0  0  0  0  0  0
   -1.5662   -3.2787    0.9045 C   0  0  0  0  0  0  0  0  0  0  0  0
    1.6379   -1.8575   -0.2543 C   0  0  0  0  0  0  0  0  0  0  0  0
    0.5040   -3.7190    2.0842 C   0  0  0  0  0  0  0  0  0  0  0  0
   -3.3378   -0.4505   -0.7324 C   0  0  0  0  0  0  0  0  0  0  0  0
    3.0067   -0.3066   -0.2365 C   0  0  0  0  0  0  0  0  0  0  0  0
   -3.6981    0.9025   -0.2357 C   0  0  0  0  0  0  0  0  0  0  0  0
    3.5465    1.0134   -0.0822 C   0  0  0  0  0  0  0  0  0  0  0  0
   -4.1142    1.8874   -1.1316 C   0  0  0  0  0  0  0  0  0  0  0  0
   -3.6202    1.1876    1.1274 C   0  0  0  0  0  0  0  0  0  0  0  0
   -4.4523    3.1575   -0.6643 C   0  0  0  0  0  0  0  0  0  0  0  0
   -3.9584    2.4576    1.5948 C   0  0  0  0  0  0  0  0  0  0  0  0
    2.7559    2.0690    0.3158 C   0  0  0  0  0  0  0  0  0  0  0  0
   -4.3743    3.4425    0.6988 C   0  0  0  0  0  0  0  0  0  0  0  0
    5.3540    2.4098   -0.1955 C   0  0  0  0  0  0  0  0  0  0  0  0
    4.5634    3.4653    0.2025 C   0  0  0  0  0  0  0  0  0  0  0  0
   -2.7536   -2.9780   -0.8847 H   0  0  0  0  0  0  0  0  0  0  0  0
    0.7968   -3.8090   -0.4721 H   0  0  0  0  0  0  0  0  0  0  0  0
   -0.5317   -1.4198   -1.6105 H   0  0  0  0  0  0  0  0  0  0  0  0
   -0.7257   -3.1417   -1.9637 H   0  0  0  0  0  0  0  0  0  0  0  0
   -2.2096   -3.0766    1.7674 H   0  0  0  0  0  0  0  0  0  0  0  0
   -1.6097   -4.3513    0.6742 H   0  0  0  0  0  0  0  0  0  0  0  0
   -1.9768   -0.7124    0.8333 H   0  0  0  0  0  0  0  0  0  0  0  0
    1.5236   -3.3634    2.2669 H   0  0  0  0  0  0  0  0  0  0  0  0
    0.5595   -4.7548    1.7304 H   0  0  0  0  0  0  0  0  0  0  0  0
   -0.0104   -3.7146    3.0514 H   0  0  0  0  0  0  0  0  0  0  0  0
   -4.1772    1.6862   -2.1977 H   0  0  0  0  0  0  0  0  0  0  0  0
   -3.3310    0.4414    1.8616 H   0  0  0  0  0  0  0  0  0  0  0  0
   -4.7756    3.9247   -1.3617 H   0  0  0  0  0  0  0  0  0  0  0  0
   -3.9046    2.6781    2.6570 H   0  0  0  0  0  0  0  0  0  0  0  0
    1.6982    1.9713    0.5325 H   0  0  0  0  0  0  0  0  0  0  0  0
   -4.6389    4.4309    1.0629 H   0  0  0  0  0  0  0  0  0  0  0  0
    6.4091    2.5322   -0.4064 H   0  0  0  0  0  0  0  0  0  0  0  0
    4.9614    4.4654    0.3224 H   0  0  0  0  0  0  0  0  0  0  0  0
  1  6  1  0  0  0  0
  1 13  1  0  0  0  0
  2 15  2  0  0  0  0
  3 10  1  0  0  0  0
  3 12  1  0  0  0  0
  3 14  1  0  0  0  0
  4  9  1  0  0  0  0
  4 15  1  0  0  0  0
  4 33  1  0  0  0  0
  5 13  2  0  0  0  0
  5 16  1  0  0  0  0
  6 16  2  0  0  0  0
  7 18  2  0  0  0  0
  7 25  1  0  0  0  0
  8 23  2  0  0  0  0
  8 26  1  0  0  0  0
  9 11  1  0  0  0  0
  9 12  1  0  0  0  0
  9 27  1  0  0  0  0
 10 11  1  0  0  0  0
 10 13  1  0  0  0  0
 10 28  1  0  0  0  0
 11 29  1  0  0  0  0
 11 30  1  0  0  0  0
 12 31  1  0  0  0  0
 12 32  1  0  0  0  0
 14 34  1  0  0  0  0
 14 35  1  0  0  0  0
 14 36  1  0  0  0  0
 15 17  1  0  0  0  0
 16 18  1  0  0  0  0
 17 19  2  0  0  0  0
 17 20  1  0  0  0  0
 18 23  1  0  0  0  0
 19 21  1  0  0  0  0
 19 37  1  0  0  0  0
 20 22  2  0  0  0  0
 20 38  1  0  0  0  0
 21 24  2  0  0  0  0
 21 39  1  0  0  0  0
 22 24  1  0  0  0  0
 22 40  1  0  0  0  0
 23 41  1  0  0  0  0
 24 42  1  0  0  0  0
 25 26  2  0  0  0  0
 25 43  1  0  0  0  0
 26 44  1  0  0  0  0
M  END
> <PUBCHEM_COMPOUND_CID>
25338279

> <PUBCHEM_CONFORMER_RMSD>
0.8

> <PUBCHEM_CONFORMER_DIVERSEORDER>
1
51
30
33
75
42
105
59
109
91
82
57
110
70
19
68
93
55
87
63
98
81
67
60
12
88
89
18
106
44
108
14
96
40
9
38
107
45
83
49
69
32
94
104
101
13
66
74
103
28
65
27
23
72
16
48
22
95
76
17
97
80
24
53
78
64
37
50
54
100
25
47
10
73
56
39
52
79
5
6
99
62
90
29
35
21
15
20
34
84
2
85
77
8
43
11
31
86
7
71
46
58
61
4
102
26
92
41
36
3

> <PUBCHEM_MMFF94_PARTIAL_CHARGES>
34
1 -0.02
10 0.45
12 0.27
13 0.3
14 0.27
15 0.54
16 0.46
17 0.09
18 0.36
19 -0.15
2 -0.57
20 -0.15
21 -0.15
22 -0.15
23 0.16
24 -0.15
25 0.16
26 0.16
3 -0.81
33 0.37
37 0.15
38 0.15
39 0.15
4 -0.73
40 0.15
41 0.15
42 0.15
43 0.15
44 0.15
5 -0.57
6 -0.41
7 -0.62
8 -0.62
9 0.3

> <PUBCHEM_EFFECTIVE_ROTOR_COUNT>
6

> <PUBCHEM_PHARMACOPHORE_FEATURES>
10
1 2 acceptor
1 3 cation
1 4 donor
1 7 acceptor
1 8 acceptor
3 5 6 16 cation
5 1 5 6 13 16 rings
5 3 9 10 11 12 rings
6 17 19 20 21 22 24 rings
6 7 8 18 23 25 26 rings

> <PUBCHEM_HEAVY_ATOM_COUNT>
26

> <PUBCHEM_ATOM_DEF_STEREO_COUNT>
2

> <PUBCHEM_ATOM_UDEF_STEREO_COUNT>
0

> <PUBCHEM_BOND_DEF_STEREO_COUNT>
0

> <PUBCHEM_BOND_UDEF_STEREO_COUNT>
0

> <PUBCHEM_ISOTOPIC_ATOM_COUNT>
0

> <PUBCHEM_COMPONENT_COUNT>
1

> <PUBCHEM_CACTVS_TAUTO_COUNT>
2

> <PUBCHEM_CONFORMER_ID>
0182A1A700000001

> <PUBCHEM_MMFF94_ENERGY>
58.5792

> <PUBCHEM_FEATURE_SELFOVERLAP>
50.751

> <PUBCHEM_SHAPE_FINGERPRINT>
10937287 8 18410291389499681491
11059048 146 18268164195662038276
11408170 253 17618516818953099100
12107183 9 18261656118392624786
12788726 201 18120078739996828939
13590594 115 17258784715544857778
13944108 23 17617102408173864068
13965767 371 17749662987603822550
14251764 38 18412259562463056466
14251764 75 18270971133194791889
14289585 56 16256487477911324753
14347329 18 18268710692159880936
14713325 29 18193283124345749835
14848178 96 18340200804325727181
15142526 21 18262523589779604611
16067690 210 17399767872108986752
16992787 43 18339915035647317367
20238998 120 17689722278636303139
20398071 114 18340199795024457873
21033648 144 16981532358349897924
21458453 9 17682442236017508721
21859007 373 17984134036466525096
21860390 5 17914618241657541502
21864079 5 18339921515888134383
22122407 14 17763195644282028609
22182937 141 18337678619283197467
283562 15 18262796406187259499
312425 83 17846787307935151182
325973 47 16536793634997303109
376196 1 18413107260364411966
469060 322 16443902915996081903
474 4 18195525879575396691
5048184 11 18412826871835079017
550186 7 17766857391374293444
59124914 9 18335703772067264682
7288768 16 18186803612334557403
9981440 41 18267295629015907514

> <PUBCHEM_SHAPE_MULTIPOLES>
493.44
11.32
5.91
1.32
3.03
0.18
-0.31
-14.81
1.11
0.38
-1.76
-1.26
0.62
-0.34

> <PUBCHEM_SHAPE_SELFOVERLAP>
1072.921

> <PUBCHEM_SHAPE_VOLUME>
269.2

> <PUBCHEM_COORDINATE_TYPE>
2
5
10

$$$$
