25389516
  -OEChem-12032416353D

 70 75  0     1  0  0  0  0  0999 V2000
   -4.5126   -0.7069    1.5141 O   0  0  0  0  0  0  0  0  0  0  0  0
   -9.5689    2.7452   -0.6967 O   0  0  0  0  0  0  0  0  0  0  0  0
   -0.8678   -3.4585    1.3669 N   0  0  2  0  0  0  0  0  0  0  0  0
    3.4978   -2.6774   -0.9579 N   0  0  0  0  0  0  0  0  0  0  0  0
   -2.4442   -0.1200    0.6599 N   0  0  0  0  0  0  0  0  0  0  0  0
    4.3945   -1.6785   -1.0255 N   0  0  0  0  0  0  0  0  0  0  0  0
   -4.3134    1.0332   -0.0491 N   0  0  0  0  0  0  0  0  0  0  0  0
    0.0810   -3.3583   -1.0564 C   0  0  2  0  0  0  0  0  0  0  0  0
    1.2374   -3.3478   -0.0187 C   0  0  2  0  0  0  0  0  0  0  0  0
   -1.5573   -2.3913    0.5949 C   0  0  2  0  0  0  0  0  0  0  0  0
   -0.8709   -2.1774   -0.7713 C   0  0  0  0  0  0  0  0  0  0  0  0
   -0.7209   -4.6554   -0.8163 C   0  0  0  0  0  0  0  0  0  0  0  0
    0.5944   -3.2052    1.3904 C   0  0  0  0  0  0  0  0  0  0  0  0
   -1.1032   -4.7466    0.6714 C   0  0  0  0  0  0  0  0  0  0  0  0
    2.3849   -2.3707   -0.2313 C   0  0  0  0  0  0  0  0  0  0  0  0
   -1.6764   -1.0857    1.3838 C   0  0  0  0  0  0  0  0  0  0  0  0
    2.5663   -1.0818    0.2073 C   0  0  0  0  0  0  0  0  0  0  0  0
    3.8199   -0.7066   -0.3119 C   0  0  0  0  0  0  0  0  0  0  0  0
    3.7808   -3.9262   -1.6268 C   0  0  0  0  0  0  0  0  0  0  0  0
   -3.8401    0.0083    0.7751 C   0  0  0  0  0  0  0  0  0  0  0  0
    4.4794    0.5613   -0.1379 C   0  0  0  0  0  0  0  0  0  0  0  0
    5.8730    0.6271   -0.1310 C   0  0  0  0  0  0  0  0  0  0  0  0
    3.7263    1.7207    0.0229 C   0  0  0  0  0  0  0  0  0  0  0  0
    6.5316    1.8560    0.0371 C   0  0  0  0  0  0  0  0  0  0  0  0
    4.3640    2.9502    0.1911 C   0  0  0  0  0  0  0  0  0  0  0  0
   -5.6492    1.4680   -0.2134 C   0  0  0  0  0  0  0  0  0  0  0  0
    5.7658    3.0349    0.2006 C   0  0  0  0  0  0  0  0  0  0  0  0
    7.9334    1.9409    0.0466 C   0  0  0  0  0  0  0  0  0  0  0  0
    6.4244    4.2639    0.3689 C   0  0  0  0  0  0  0  0  0  0  0  0
   -5.9388    2.5150   -1.0884 C   0  0  0  0  0  0  0  0  0  0  0  0
   -6.6769    0.8502    0.4993 C   0  0  0  0  0  0  0  0  0  0  0  0
    8.5710    3.1703    0.2150 C   0  0  0  0  0  0  0  0  0  0  0  0
    7.8180    4.3296    0.3759 C   0  0  0  0  0  0  0  0  0  0  0  0
   -7.2559    2.9442   -1.2508 C   0  0  0  0  0  0  0  0  0  0  0  0
   -7.9940    1.2794    0.3371 C   0  0  0  0  0  0  0  0  0  0  0  0
   -8.2835    2.3265   -0.5379 C   0  0  0  0  0  0  0  0  0  0  0  0
  -10.5701    2.0695    0.0629 C   0  0  0  0  0  0  0  0  0  0  0  0
    0.4592   -3.3141   -2.0830 H   0  0  0  0  0  0  0  0  0  0  0  0
    1.6886   -4.3514   -0.0409 H   0  0  0  0  0  0  0  0  0  0  0  0
   -2.5866   -2.7311    0.4058 H   0  0  0  0  0  0  0  0  0  0  0  0
   -0.3067   -1.2384   -0.8047 H   0  0  0  0  0  0  0  0  0  0  0  0
   -1.6336   -2.1212   -1.5579 H   0  0  0  0  0  0  0  0  0  0  0  0
   -0.1265   -5.5310   -1.1023 H   0  0  0  0  0  0  0  0  0  0  0  0
   -1.6228   -4.6570   -1.4403 H   0  0  0  0  0  0  0  0  0  0  0  0
    1.0654   -3.9317    2.0671 H   0  0  0  0  0  0  0  0  0  0  0  0
    0.7911   -2.2367    1.8594 H   0  0  0  0  0  0  0  0  0  0  0  0
   -2.1563   -5.0378    0.7681 H   0  0  0  0  0  0  0  0  0  0  0  0
   -0.5320   -5.5445    1.1628 H   0  0  0  0  0  0  0  0  0  0  0  0
   -0.6995   -0.6309    1.5750 H   0  0  0  0  0  0  0  0  0  0  0  0
   -2.1547   -1.2697    2.3528 H   0  0  0  0  0  0  0  0  0  0  0  0
    1.8856   -0.5004    0.8128 H   0  0  0  0  0  0  0  0  0  0  0  0
   -1.9551    0.5034    0.0250 H   0  0  0  0  0  0  0  0  0  0  0  0
    2.9187   -4.2040   -2.2375 H   0  0  0  0  0  0  0  0  0  0  0  0
    4.6565   -3.8035   -2.2700 H   0  0  0  0  0  0  0  0  0  0  0  0
    3.9822   -4.6846   -0.8665 H   0  0  0  0  0  0  0  0  0  0  0  0
   -3.6197    1.5312   -0.6012 H   0  0  0  0  0  0  0  0  0  0  0  0
    6.4700   -0.2767   -0.2472 H   0  0  0  0  0  0  0  0  0  0  0  0
    2.6394    1.7032    0.0114 H   0  0  0  0  0  0  0  0  0  0  0  0
    3.7556    3.8440    0.3128 H   0  0  0  0  0  0  0  0  0  0  0  0
    8.5426    1.0479   -0.0773 H   0  0  0  0  0  0  0  0  0  0  0  0
    5.8559    5.1828    0.4963 H   0  0  0  0  0  0  0  0  0  0  0  0
   -5.1473    3.0049   -1.6498 H   0  0  0  0  0  0  0  0  0  0  0  0
   -6.5308    0.0349    1.1937 H   0  0  0  0  0  0  0  0  0  0  0  0
    9.6558    3.2222    0.2205 H   0  0  0  0  0  0  0  0  0  0  0  0
    8.3151    5.2863    0.5069 H   0  0  0  0  0  0  0  0  0  0  0  0
   -7.4756    3.7602   -1.9339 H   0  0  0  0  0  0  0  0  0  0  0  0
   -8.7442    0.7565    0.9208 H   0  0  0  0  0  0  0  0  0  0  0  0
  -11.5311    2.5310   -0.1863 H   0  0  0  0  0  0  0  0  0  0  0  0
  -10.4195    2.2064    1.1392 H   0  0  0  0  0  0  0  0  0  0  0  0
  -10.6414    1.0125   -0.2154 H   0  0  0  0  0  0  0  0  0  0  0  0
  1 20  2  0  0  0  0
  2 36  1  0  0  0  0
  2 37  1  0  0  0  0
  3 10  1  0  0  0  0
  3 13  1  0  0  0  0
  3 14  1  0  0  0  0
  4  6  1  0  0  0  0
  4 15  1  0  0  0  0
  4 19  1  0  0  0  0
  5 16  1  0  0  0  0
  5 20  1  0  0  0  0
  5 52  1  0  0  0  0
  6 18  2  0  0  0  0
  7 20  1  0  0  0  0
  7 26  1  0  0  0  0
  7 56  1  0  0  0  0
  8  9  1  0  0  0  0
  8 11  1  0  0  0  0
  8 12  1  0  0  0  0
  8 38  1  0  0  0  0
  9 13  1  0  0  0  0
  9 15  1  0  0  0  0
  9 39  1  0  0  0  0
 10 11  1  0  0  0  0
 10 16  1  0  0  0  0
 10 40  1  0  0  0  0
 11 41  1  0  0  0  0
 11 42  1  0  0  0  0
 12 14  1  0  0  0  0
 12 43  1  0  0  0  0
 12 44  1  0  0  0  0
 13 45  1  0  0  0  0
 13 46  1  0  0  0  0
 14 47  1  0  0  0  0
 14 48  1  0  0  0  0
 15 17  2  0  0  0  0
 16 49  1  0  0  0  0
 16 50  1  0  0  0  0
 17 18  1  0  0  0  0
 17 51  1  0  0  0  0
 18 21  1  0  0  0  0
 19 53  1  0  0  0  0
 19 54  1  0  0  0  0
 19 55  1  0  0  0  0
 21 22  2  0  0  0  0
 21 23  1  0  0  0  0
 22 24  1  0  0  0  0
 22 57  1  0  0  0  0
 23 25  2  0  0  0  0
 23 58  1  0  0  0  0
 24 27  1  0  0  0  0
 24 28  2  0  0  0  0
 25 27  1  0  0  0  0
 25 59  1  0  0  0  0
 26 30  2  0  0  0  0
 26 31  1  0  0  0  0
 27 29  2  0  0  0  0
 28 32  1  0  0  0  0
 28 60  1  0  0  0  0
 29 33  1  0  0  0  0
 29 61  1  0  0  0  0
 30 34  1  0  0  0  0
 30 62  1  0  0  0  0
 31 35  2  0  0  0  0
 31 63  1  0  0  0  0
 32 33  2  0  0  0  0
 32 64  1  0  0  0  0
 33 65  1  0  0  0  0
 34 36  2  0  0  0  0
 34 66  1  0  0  0  0
 35 36  1  0  0  0  0
 35 67  1  0  0  0  0
 37 68  1  0  0  0  0
 37 69  1  0  0  0  0
 37 70  1  0  0  0  0
M  END
> <PUBCHEM_COMPOUND_CID>
25389516

> <PUBCHEM_CONFORMER_RMSD>
1

> <PUBCHEM_CONFORMER_DIVERSEORDER>
3
71
193
26
15
44
108
69
151
235
96
59
236
206
16
38
17
27
191
41
117
231
90
55
28
50
45
196
148
6
99
188
91
35
22
182
66
174
146
86
129
52
229
107
29
64
130
78
12
83
106
72
156
233
14
42
58
177
97
159
43
224
180
37
48
110
141
164
62
211
237
145
139
118
137
89
179
208
13
84
222
116
74
169
183
21
18
195
173
40
168
136
194
94
186
154
227
161
214
24
25
220
171
203
54
152
149
217
61
226
46
120
216
207
200
115
8
192
221
98
102
238
170
175
114
10
213
134
63
32
160
210
23
7
219
131
157
104
88
122
212
234
19
167
142
5
20
1
111
143
103
109
181
205
4
85
230
36
34
68
113
209
163
30
176
189
76
155
128
147
223
2
77
165
178
56
79
125
112
153
140
172
49
95
100
65
31
162
132
39
80
70
11
185
199
123
101
9
158
121
119
228
126
202
166
51
133
138
190
232
105
81
93
87
75
215
204
53
187
184
33
82
218
67
60
150
47
144
127
124
197
73
198
225
92
57
201
135

> <PUBCHEM_MMFF94_PARTIAL_CHARGES>
46
1 -0.57
10 0.27
13 0.27
14 0.27
15 -0.33
16 0.3
17 -0.15
18 0.23
19 0.26
2 -0.36
20 0.69
21 0.05
22 -0.15
23 -0.15
25 -0.15
26 0.12
28 -0.15
29 -0.15
3 -0.81
30 -0.15
31 -0.15
32 -0.15
33 -0.15
34 -0.15
35 -0.15
36 0.08
37 0.28
4 0.31
5 -0.73
51 0.15
52 0.37
56 0.37
57 0.15
58 0.15
59 0.15
6 -0.71
60 0.15
61 0.15
62 0.15
63 0.15
64 0.15
65 0.15
66 0.15
67 0.15
7 -0.55
9 0.18

> <PUBCHEM_EFFECTIVE_ROTOR_COUNT>
9.2

> <PUBCHEM_PHARMACOPHORE_FEATURES>
11
1 1 acceptor
1 2 acceptor
1 3 cation
1 5 donor
1 6 acceptor
1 7 donor
5 4 6 15 17 18 rings
6 21 22 23 24 25 27 rings
6 24 27 28 29 32 33 rings
6 26 30 31 34 35 36 rings
8 3 8 9 10 11 12 13 14 rings

> <PUBCHEM_HEAVY_ATOM_COUNT>
37

> <PUBCHEM_ATOM_DEF_STEREO_COUNT>
3

> <PUBCHEM_ATOM_UDEF_STEREO_COUNT>
0

> <PUBCHEM_BOND_DEF_STEREO_COUNT>
0

> <PUBCHEM_BOND_UDEF_STEREO_COUNT>
0

> <PUBCHEM_ISOTOPIC_ATOM_COUNT>
0

> <PUBCHEM_COMPONENT_COUNT>
1

> <PUBCHEM_CACTVS_TAUTO_COUNT>
3

> <PUBCHEM_CONFORMER_ID>
018369CC00000003

> <PUBCHEM_MMFF94_ENERGY>
111.3278

> <PUBCHEM_FEATURE_SELFOVERLAP>
55.898

> <PUBCHEM_SHAPE_FINGERPRINT>
10190206 1 18267570481527535831
10369192 42 18261387854624747813
10533779 1 18340480153700393184
10673678 19 18339082593096023195
10675989 125 18267308638307900920
11135609 127 18191577567869552603
11135609 187 18413108381498166873
11297010 23 18202570571171252974
11409948 8 18187377554290925257
11411753 3 18263667154286471402
11479125 193 18341885277967601805
11828042 107 18057591269556295152
12522641 33 18410289212199598117
12522641 68 18202002174213493254
14747282 540 18261116292396322396
15152005 290 18410290345553440828
15347591 1 18410574006680275994
15439362 3 18411136922225251814
15803439 3 16917071087593852726
15890870 6 18411699898160103712
16114785 44 18190182467381124651
16758388 162 18116144481635194986
17899979 129 18340489958825107217
19053607 189 18342446071868377504
19315958 150 18411141346432587164
21033648 29 18041002842589247686
21133410 38 17986692401569401225
21772523 7 18115004335722973309
22899556 56 17534630605882103146
23516275 100 18335136466712122677
23522609 53 17344640232552074617
23729417 116 16398602620431615263
24204213 62 18201718440463702207
2851757 15 18408887351616001794
3918712 181 18410290307084040449
4112364 45 17968084283712460115
4403749 210 18337113466597414867
44575985 391 18412545405686186656
4760202 70 18271792533685289853
5109719 28 18335990770841273993
5372103 7 18411419514036326177
57527585 21 16701484310681161411
57634706 280 18041002791983265323
57634706 306 18408884014875000367
6057620 51 18272084973524180545
6327066 14 18411982494217756418
636783 134 18411423943561261699
99344 41 18409448107379334877

> <PUBCHEM_SHAPE_MULTIPOLES>
724.8
28.97
7.39
1.16
39.9
4.27
0.01
-54.08
-2.42
-6.02
-0.75
0.72
0.81
3.89

> <PUBCHEM_SHAPE_SELFOVERLAP>
1592.864

> <PUBCHEM_SHAPE_VOLUME>
388.6

> <PUBCHEM_COORDINATE_TYPE>
2
5
10

$$$$
