75536648
  -OEChem-12032416313D

 47 49  0     1  0  0  0  0  0999 V2000
   -3.8443    3.0672    1.3085 F   0  0  0  0  0  0  0  0  0  0  0  0
    3.9427    1.3269    0.4593 O   0  0  0  0  0  0  0  0  0  0  0  0
    4.9635   -1.6369   -0.2056 O   0  0  0  0  0  0  0  0  0  0  0  0
    0.3927    0.0547   -2.2620 O   0  0  0  0  0  0  0  0  0  0  0  0
    1.6865   -0.6747    1.0481 N   0  0  0  0  0  0  0  0  0  0  0  0
    1.8123    1.4865   -1.1141 N   0  0  0  0  0  0  0  0  0  0  0  0
   -3.7815   -2.3842   -2.5169 N   0  0  0  0  0  0  0  0  0  0  0  0
    3.1410   -0.8108    1.0858 C   0  0  1  0  0  0  0  0  0  0  0  0
    3.7292   -0.9234   -0.3097 C   0  0  1  0  0  0  0  0  0  0  0  0
    4.0195    0.5173   -0.7288 C   0  0  1  0  0  0  0  0  0  0  0  0
    3.7881    0.4670    1.5946 C   0  0  0  0  0  0  0  0  0  0  0  0
    3.0299    1.0658   -1.7454 C   0  0  0  0  0  0  0  0  0  0  0  0
    1.0378   -1.9801    1.0152 C   0  0  0  0  0  0  0  0  0  0  0  0
   -0.4619   -1.8597    0.9598 C   0  0  0  0  0  0  0  0  0  0  0  0
    0.5723    0.9384   -1.4282 C   0  0  0  0  0  0  0  0  0  0  0  0
   -1.1371   -2.0818   -0.2404 C   0  0  0  0  0  0  0  0  0  0  0  0
   -1.1766   -1.5272    2.1108 C   0  0  0  0  0  0  0  0  0  0  0  0
   -0.5963    1.5014   -0.7041 C   0  0  0  0  0  0  0  0  0  0  0  0
   -2.5266   -1.9713   -0.2900 C   0  0  0  0  0  0  0  0  0  0  0  0
   -2.5662   -1.4170    2.0614 C   0  0  0  0  0  0  0  0  0  0  0  0
   -3.2413   -1.6388    0.8609 C   0  0  0  0  0  0  0  0  0  0  0  0
   -1.8622    1.4668   -1.2889 C   0  0  0  0  0  0  0  0  0  0  0  0
   -0.4275    2.0650    0.5608 C   0  0  0  0  0  0  0  0  0  0  0  0
   -2.9594    1.9954   -0.6089 C   0  0  0  0  0  0  0  0  0  0  0  0
   -1.5246    2.5937    1.2408 C   0  0  0  0  0  0  0  0  0  0  0  0
   -2.7906    2.5589    0.6560 C   0  0  0  0  0  0  0  0  0  0  0  0
   -3.2190   -2.1992   -1.5188 C   0  0  0  0  0  0  0  0  0  0  0  0
    3.4317   -1.6339    1.7500 H   0  0  0  0  0  0  0  0  0  0  0  0
    3.1081   -1.4744   -1.0225 H   0  0  0  0  0  0  0  0  0  0  0  0
    5.0340    0.6075   -1.1345 H   0  0  0  0  0  0  0  0  0  0  0  0
    3.2171    0.9835    2.3725 H   0  0  0  0  0  0  0  0  0  0  0  0
    4.7886    0.2636    1.9942 H   0  0  0  0  0  0  0  0  0  0  0  0
    2.8457    0.3564   -2.5584 H   0  0  0  0  0  0  0  0  0  0  0  0
    3.4488    1.9753   -2.1915 H   0  0  0  0  0  0  0  0  0  0  0  0
    1.3741   -0.1793    1.8835 H   0  0  0  0  0  0  0  0  0  0  0  0
    1.3027   -2.5670    1.9047 H   0  0  0  0  0  0  0  0  0  0  0  0
    1.3837   -2.5606    0.1512 H   0  0  0  0  0  0  0  0  0  0  0  0
    5.3492   -1.6807   -1.0973 H   0  0  0  0  0  0  0  0  0  0  0  0
    1.8792    2.2712   -0.4748 H   0  0  0  0  0  0  0  0  0  0  0  0
   -0.5797   -2.3453   -1.1367 H   0  0  0  0  0  0  0  0  0  0  0  0
   -0.6622   -1.3518    3.0520 H   0  0  0  0  0  0  0  0  0  0  0  0
   -3.1225   -1.1569    2.9572 H   0  0  0  0  0  0  0  0  0  0  0  0
   -4.3246   -1.5476    0.8381 H   0  0  0  0  0  0  0  0  0  0  0  0
   -2.0134    1.0359   -2.2751 H   0  0  0  0  0  0  0  0  0  0  0  0
    0.5346    2.0929    1.0628 H   0  0  0  0  0  0  0  0  0  0  0  0
   -3.9451    1.9682   -1.0638 H   0  0  0  0  0  0  0  0  0  0  0  0
   -1.3951    3.0275    2.2279 H   0  0  0  0  0  0  0  0  0  0  0  0
  1 26  1  0  0  0  0
  2 10  1  0  0  0  0
  2 11  1  0  0  0  0
  3  9  1  0  0  0  0
  3 38  1  0  0  0  0
  4 15  2  0  0  0  0
  5  8  1  0  0  0  0
  5 13  1  0  0  0  0
  5 35  1  0  0  0  0
  6 12  1  0  0  0  0
  6 15  1  0  0  0  0
  6 39  1  0  0  0  0
  7 27  3  0  0  0  0
  8  9  1  0  0  0  0
  8 11  1  0  0  0  0
  8 28  1  0  0  0  0
  9 10  1  0  0  0  0
  9 29  1  0  0  0  0
 10 12  1  0  0  0  0
 10 30  1  0  0  0  0
 11 31  1  0  0  0  0
 11 32  1  0  0  0  0
 12 33  1  0  0  0  0
 12 34  1  0  0  0  0
 13 14  1  0  0  0  0
 13 36  1  0  0  0  0
 13 37  1  0  0  0  0
 14 16  2  0  0  0  0
 14 17  1  0  0  0  0
 15 18  1  0  0  0  0
 16 19  1  0  0  0  0
 16 40  1  0  0  0  0
 17 20  2  0  0  0  0
 17 41  1  0  0  0  0
 18 22  2  0  0  0  0
 18 23  1  0  0  0  0
 19 21  2  0  0  0  0
 19 27  1  0  0  0  0
 20 21  1  0  0  0  0
 20 42  1  0  0  0  0
 21 43  1  0  0  0  0
 22 24  1  0  0  0  0
 22 44  1  0  0  0  0
 23 25  2  0  0  0  0
 23 45  1  0  0  0  0
 24 26  2  0  0  0  0
 24 46  1  0  0  0  0
 25 26  1  0  0  0  0
 25 47  1  0  0  0  0
M  END
> <PUBCHEM_COMPOUND_CID>
75536648

> <PUBCHEM_CONFORMER_RMSD>
1.2

> <PUBCHEM_CONFORMER_DIVERSEORDER>
5
78
60
30
92
40
124
83
87
58
100
2
26
38
61
10
89
42
116
123
84
118
51
101
126
7
45
47
53
50
32
14
96
125
72
106
129
108
1
76
121
103
85
39
12
57
31
70
63
35
80
37
56
104
82
117
90
22
66
75
111
110
34
122
112
27
69
128
102
93
25
105
95
44
46
115
13
19
16
4
24
11
33
99
94
109
28
81
97
127
73
68
21
20
17
49
41
71
62
74
55
113
65
43
36
91
86
52
6
98
107
29
15
23
79
77
67
88
114
9
18
59
119
64
120
48
3
54
8

> <PUBCHEM_MMFF94_PARTIAL_CHARGES>
38
1 -0.19
10 0.28
11 0.28
12 0.3
13 0.41
14 -0.14
15 0.54
16 -0.15
17 -0.15
18 0.09
19 0.07
2 -0.56
20 -0.15
21 -0.15
22 -0.15
23 -0.15
24 -0.15
25 -0.15
26 0.19
27 0.48
3 -0.68
35 0.36
38 0.4
39 0.37
4 -0.57
40 0.15
41 0.15
42 0.15
43 0.15
44 0.15
45 0.15
46 0.15
47 0.15
5 -0.9
6 -0.73
7 -0.56
8 0.27
9 0.28

> <PUBCHEM_EFFECTIVE_ROTOR_COUNT>
8

> <PUBCHEM_PHARMACOPHORE_FEATURES>
11
1 2 acceptor
1 3 acceptor
1 3 donor
1 4 acceptor
1 5 cation
1 5 donor
1 6 donor
1 7 acceptor
5 2 8 9 10 11 rings
6 14 16 17 19 20 21 rings
6 18 22 23 24 25 26 rings

> <PUBCHEM_HEAVY_ATOM_COUNT>
27

> <PUBCHEM_ATOM_DEF_STEREO_COUNT>
3

> <PUBCHEM_ATOM_UDEF_STEREO_COUNT>
0

> <PUBCHEM_BOND_DEF_STEREO_COUNT>
0

> <PUBCHEM_BOND_UDEF_STEREO_COUNT>
0

> <PUBCHEM_ISOTOPIC_ATOM_COUNT>
0

> <PUBCHEM_COMPONENT_COUNT>
1

> <PUBCHEM_CACTVS_TAUTO_COUNT>
2

> <PUBCHEM_CONFORMER_ID>
0480990800000005

> <PUBCHEM_MMFF94_ENERGY>
58.6787

> <PUBCHEM_FEATURE_SELFOVERLAP>
55.823

> <PUBCHEM_SHAPE_FINGERPRINT>
104564 63 18261688063372596922
11112662 9 17911791380546766325
11578080 2 17201390457803723397
12293681 4 17773599304717844024
12422481 6 17974041434102501241
12553582 1 18121512507179563526
12633257 1 17131010735864068874
12788726 201 18193582148685620421
13140716 1 18187650163637452184
13224815 77 17967532389468795880
13583140 156 13613152960812725893
14251757 17 16661753552553028799
14464042 87 18408321120845447875
16752209 62 18334294309723941790
17357779 13 18262790895042027098
20261772 1 17750245720376997760
21236236 1 18260555524427528846
23419403 2 17325993832792345448
2818148 4 17532097099063057306
3027735 51 18408321081774433203
35225 105 18199196091695287472
4340502 62 18194417593467163409
469060 322 16553356038623685706
57527306 92 15890898113798767137
6287921 2 17407678416099581771
6438718 38 18339940246208688547
7064713 232 18189901924158518304

> <PUBCHEM_SHAPE_MULTIPOLES>
515.82
7.71
3.51
2.16
6.17
0.97
-0.45
-1.04
-0.56
-3.67
0.54
-1.16
-0.44
-1.58

> <PUBCHEM_SHAPE_SELFOVERLAP>
1103.492

> <PUBCHEM_SHAPE_VOLUME>
286.5

> <PUBCHEM_COORDINATE_TYPE>
2
5
10

$$$$
