71694017
  -OEChem-12032416293D

 43 45  0     1  0  0  0  0  0999 V2000
    0.3956    2.6443    0.9408 S   0  0  0  0  0  0  0  0  0  0  0  0
    2.9115    1.9663   -1.4420 O   0  0  0  0  0  0  0  0  0  0  0  0
    2.9680   -0.6243   -2.3485 O   0  0  0  0  0  0  0  0  0  0  0  0
    0.9347    3.4560   -0.1337 O   0  0  0  0  0  0  0  0  0  0  0  0
    0.0284    3.2562    2.2036 O   0  0  0  0  0  0  0  0  0  0  0  0
    1.4433    1.3430    1.2468 N   0  0  0  0  0  0  0  0  0  0  0  0
   -5.4196   -0.6980   -1.5278 N   0  0  0  0  0  0  0  0  0  0  0  0
    1.8448    0.4421    0.1408 C   0  0  2  0  0  0  0  0  0  0  0  0
    2.2199   -0.9484    0.6943 C   0  0  2  0  0  0  0  0  0  0  0  0
    3.1395    0.9391   -0.4956 C   0  0  1  0  0  0  0  0  0  0  0  0
    3.4469   -1.4123   -0.1331 C   0  0  0  0  0  0  0  0  0  0  0  0
    3.6954   -0.3126   -1.1643 C   0  0  1  0  0  0  0  0  0  0  0  0
    1.0587   -1.9203    0.6850 C   0  0  0  0  0  0  0  0  0  0  0  0
    0.8446   -2.7397   -0.4231 C   0  0  0  0  0  0  0  0  0  0  0  0
    0.2031   -1.9959    1.7840 C   0  0  0  0  0  0  0  0  0  0  0  0
   -1.0427    1.8178    0.3303 C   0  0  0  0  0  0  0  0  0  0  0  0
   -0.2252   -3.6348   -0.4325 C   0  0  0  0  0  0  0  0  0  0  0  0
   -0.8667   -2.8910    1.7749 C   0  0  0  0  0  0  0  0  0  0  0  0
   -1.0808   -3.7104    0.6666 C   0  0  0  0  0  0  0  0  0  0  0  0
   -2.0411    1.4097    1.2151 C   0  0  0  0  0  0  0  0  0  0  0  0
   -1.1795    1.5741   -1.0363 C   0  0  0  0  0  0  0  0  0  0  0  0
   -3.1759    0.7578    0.7331 C   0  0  0  0  0  0  0  0  0  0  0  0
   -2.3145    0.9220   -1.5181 C   0  0  0  0  0  0  0  0  0  0  0  0
   -3.3129    0.5140   -0.6336 C   0  0  0  0  0  0  0  0  0  0  0  0
   -4.4755   -0.1548   -1.1271 C   0  0  0  0  0  0  0  0  0  0  0  0
    1.0604    0.3594   -0.6125 H   0  0  0  0  0  0  0  0  0  0  0  0
    2.5660   -0.8700    1.7355 H   0  0  0  0  0  0  0  0  0  0  0  0
    3.8343    1.3120    0.2677 H   0  0  0  0  0  0  0  0  0  0  0  0
    4.3088   -1.4335    0.5484 H   0  0  0  0  0  0  0  0  0  0  0  0
    3.3893   -2.4113   -0.5705 H   0  0  0  0  0  0  0  0  0  0  0  0
    4.7503   -0.2047   -1.4338 H   0  0  0  0  0  0  0  0  0  0  0  0
    1.6140    1.0331    2.2105 H   0  0  0  0  0  0  0  0  0  0  0  0
    3.7621    2.1629   -1.8700 H   0  0  0  0  0  0  0  0  0  0  0  0
    3.3366   -1.4490   -2.7086 H   0  0  0  0  0  0  0  0  0  0  0  0
    1.4571   -2.6864   -1.3164 H   0  0  0  0  0  0  0  0  0  0  0  0
    0.3570   -1.3609    2.6523 H   0  0  0  0  0  0  0  0  0  0  0  0
   -0.3987   -4.2657   -1.2993 H   0  0  0  0  0  0  0  0  0  0  0  0
   -1.5343   -2.9482    2.6296 H   0  0  0  0  0  0  0  0  0  0  0  0
   -1.9157   -4.4050    0.6581 H   0  0  0  0  0  0  0  0  0  0  0  0
   -1.9513    1.5816    2.2839 H   0  0  0  0  0  0  0  0  0  0  0  0
   -0.4172    1.8866   -1.7444 H   0  0  0  0  0  0  0  0  0  0  0  0
   -3.9443    0.4431    1.4353 H   0  0  0  0  0  0  0  0  0  0  0  0
   -2.4069    0.7393   -2.5861 H   0  0  0  0  0  0  0  0  0  0  0  0
  1  4  2  0  0  0  0
  1  5  2  0  0  0  0
  1  6  1  0  0  0  0
  1 16  1  0  0  0  0
  2 10  1  0  0  0  0
  2 33  1  0  0  0  0
  3 12  1  0  0  0  0
  3 34  1  0  0  0  0
  6  8  1  0  0  0  0
  6 32  1  0  0  0  0
  7 25  3  0  0  0  0
  8  9  1  0  0  0  0
  8 10  1  0  0  0  0
  8 26  1  0  0  0  0
  9 11  1  0  0  0  0
  9 13  1  0  0  0  0
  9 27  1  0  0  0  0
 10 12  1  0  0  0  0
 10 28  1  0  0  0  0
 11 12  1  0  0  0  0
 11 29  1  0  0  0  0
 11 30  1  0  0  0  0
 12 31  1  0  0  0  0
 13 14  2  0  0  0  0
 13 15  1  0  0  0  0
 14 17  1  0  0  0  0
 14 35  1  0  0  0  0
 15 18  2  0  0  0  0
 15 36  1  0  0  0  0
 16 20  2  0  0  0  0
 16 21  1  0  0  0  0
 17 19  2  0  0  0  0
 17 37  1  0  0  0  0
 18 19  1  0  0  0  0
 18 38  1  0  0  0  0
 19 39  1  0  0  0  0
 20 22  1  0  0  0  0
 20 40  1  0  0  0  0
 21 23  2  0  0  0  0
 21 41  1  0  0  0  0
 22 24  2  0  0  0  0
 22 42  1  0  0  0  0
 23 24  1  0  0  0  0
 23 43  1  0  0  0  0
 24 25  1  0  0  0  0
M  END
> <PUBCHEM_COMPOUND_CID>
71694017

> <PUBCHEM_CONFORMER_RMSD>
0.8

> <PUBCHEM_CONFORMER_DIVERSEORDER>
1
10
3
15
13
9
5
2
14
6
4
8
7
12
11

> <PUBCHEM_MMFF94_PARTIAL_CHARGES>
36
1 1.45
10 0.28
12 0.28
13 -0.14
14 -0.15
15 -0.15
16 -0.01
17 -0.15
18 -0.15
19 -0.15
2 -0.68
20 -0.15
21 -0.15
22 -0.15
23 -0.15
24 0.07
25 0.48
3 -0.68
32 0.42
33 0.4
34 0.4
35 0.15
36 0.15
37 0.15
38 0.15
39 0.15
4 -0.65
40 0.15
41 0.15
42 0.15
43 0.15
5 -0.65
6 -0.91
7 -0.56
8 0.36
9 0.14

> <PUBCHEM_EFFECTIVE_ROTOR_COUNT>
5

> <PUBCHEM_PHARMACOPHORE_FEATURES>
11
1 2 acceptor
1 2 donor
1 3 acceptor
1 3 donor
1 4 acceptor
1 5 acceptor
1 6 donor
1 7 acceptor
5 8 9 10 11 12 rings
6 13 14 15 17 18 19 rings
6 16 20 21 22 23 24 rings

> <PUBCHEM_HEAVY_ATOM_COUNT>
25

> <PUBCHEM_ATOM_DEF_STEREO_COUNT>
4

> <PUBCHEM_ATOM_UDEF_STEREO_COUNT>
0

> <PUBCHEM_BOND_DEF_STEREO_COUNT>
0

> <PUBCHEM_BOND_UDEF_STEREO_COUNT>
0

> <PUBCHEM_ISOTOPIC_ATOM_COUNT>
0

> <PUBCHEM_COMPONENT_COUNT>
1

> <PUBCHEM_CACTVS_TAUTO_COUNT>
1

> <PUBCHEM_CONFORMER_ID>
0445F6C100000001

> <PUBCHEM_MMFF94_ENERGY>
56.4855

> <PUBCHEM_FEATURE_SELFOVERLAP>
55.855

> <PUBCHEM_SHAPE_FINGERPRINT>
10316853 100 18189045564474457027
104564 63 17038090183561443921
108634 29 18267580406447707566
11014199 57 17546436779146309711
11578080 2 17773314758791953266
12553582 1 18269550546975414137
12596599 1 17703232797785292723
13149001 5 18339083820865767736
14178342 30 17763740988894770048
14787075 74 18272364283251882912
17357779 13 17761782057989002095
17492 54 18259987089009729319
20775438 99 17625229264093217319
21033648 29 12252201657313035700
21304303 94 18339357582218209189
22907989 373 17833598653460074230
23419403 2 17267243731323503824
238 59 18187639176789199463
2818148 4 17770788914078863295
3052486 1 17681253779141423899
3060560 45 18040989657150262972
35225 105 18334861635990984774
463206 1 18338790105691147383
484989 97 18189622816141563795
563151 248 16983530883335249706
70251023 43 17907297646660241179
7237137 82 17830490454679842796

> <PUBCHEM_SHAPE_MULTIPOLES>
484.9
6.45
4.54
1.86
4.74
1.88
0.03
-0.01
-4.24
-0.45
1.67
0.12
-0.23
-0.43

> <PUBCHEM_SHAPE_SELFOVERLAP>
1028.707

> <PUBCHEM_SHAPE_VOLUME>
269.8

> <PUBCHEM_COORDINATE_TYPE>
2
5
10

$$$$
