25388930
  -OEChem-12032416163D

 56 59  0     1  0  0  0  0  0999 V2000
   -2.4159    3.6072   -0.1340 S   0  0  0  0  0  0  0  0  0  0  0  0
   -2.8734    4.6799   -0.9954 O   0  0  0  0  0  0  0  0  0  0  0  0
   -1.0133    3.2415   -0.0858 O   0  0  0  0  0  0  0  0  0  0  0  0
    2.2164    1.7122    0.7326 O   0  0  0  0  0  0  0  0  0  0  0  0
   -3.5390   -1.4136    0.6687 N   0  0  2  0  0  0  0  0  0  0  0  0
    1.0595   -2.6334    0.7837 N   0  0  0  0  0  0  0  0  0  0  0  0
   -3.3351    2.1979   -0.4281 N   0  0  0  0  0  0  0  0  0  0  0  0
    2.3008   -2.1184    0.7743 N   0  0  0  0  0  0  0  0  0  0  0  0
   -2.0459   -1.9459   -1.3978 C   0  0  2  0  0  0  0  0  0  0  0  0
   -1.3041   -2.3112   -0.0824 C   0  0  2  0  0  0  0  0  0  0  0  0
   -3.4895   -0.2373   -0.2391 C   0  0  2  0  0  0  0  0  0  0  0  0
   -2.4498   -0.4569   -1.3590 C   0  0  0  0  0  0  0  0  0  0  0  0
   -3.3515   -2.7696   -1.4162 C   0  0  0  0  0  0  0  0  0  0  0  0
   -2.1670   -1.7821    1.0987 C   0  0  0  0  0  0  0  0  0  0  0  0
   -4.1065   -2.5519   -0.0932 C   0  0  0  0  0  0  0  0  0  0  0  0
   -3.2469    1.0715    0.5157 C   0  0  0  0  0  0  0  0  0  0  0  0
    0.1600   -1.9169    0.0503 C   0  0  0  0  0  0  0  0  0  0  0  0
    0.8615   -0.8594   -0.4752 C   0  0  0  0  0  0  0  0  0  0  0  0
    2.1736   -1.0349    0.0036 C   0  0  0  0  0  0  0  0  0  0  0  0
    0.8018   -3.8398    1.5354 C   0  0  0  0  0  0  0  0  0  0  0  0
    3.3069   -0.1869   -0.2597 C   0  0  0  0  0  0  0  0  0  0  0  0
   -2.9233    3.9858    1.5277 C   0  0  0  0  0  0  0  0  0  0  0  0
    3.2963    1.1577    0.1109 C   0  0  0  0  0  0  0  0  0  0  0  0
    4.4256   -0.7266   -0.8942 C   0  0  0  0  0  0  0  0  0  0  0  0
    4.4045    1.9626   -0.1530 C   0  0  0  0  0  0  0  0  0  0  0  0
    5.5338    0.0783   -1.1583 C   0  0  0  0  0  0  0  0  0  0  0  0
    5.5234    1.4230   -0.7876 C   0  0  0  0  0  0  0  0  0  0  0  0
    2.1973    1.6673    2.1573 C   0  0  0  0  0  0  0  0  0  0  0  0
   -1.4339   -2.1619   -2.2798 H   0  0  0  0  0  0  0  0  0  0  0  0
   -1.3230   -3.4104   -0.0348 H   0  0  0  0  0  0  0  0  0  0  0  0
   -4.4790   -0.1379   -0.7102 H   0  0  0  0  0  0  0  0  0  0  0  0
   -1.5788    0.1860   -1.2252 H   0  0  0  0  0  0  0  0  0  0  0  0
   -2.8960   -0.1794   -2.3226 H   0  0  0  0  0  0  0  0  0  0  0  0
   -3.1306   -3.8353   -1.5479 H   0  0  0  0  0  0  0  0  0  0  0  0
   -3.9753   -2.4606   -2.2637 H   0  0  0  0  0  0  0  0  0  0  0  0
   -2.2382   -2.5624    1.8680 H   0  0  0  0  0  0  0  0  0  0  0  0
   -1.6843   -0.9383    1.6049 H   0  0  0  0  0  0  0  0  0  0  0  0
   -5.1698   -2.3743   -0.2959 H   0  0  0  0  0  0  0  0  0  0  0  0
   -4.0725   -3.4625    0.5184 H   0  0  0  0  0  0  0  0  0  0  0  0
   -2.2625    1.0670    0.9934 H   0  0  0  0  0  0  0  0  0  0  0  0
   -4.0072    1.2050    1.2933 H   0  0  0  0  0  0  0  0  0  0  0  0
    0.5012   -0.0744   -1.1214 H   0  0  0  0  0  0  0  0  0  0  0  0
   -4.2800    2.3421   -0.8082 H   0  0  0  0  0  0  0  0  0  0  0  0
    1.6970   -4.1143    2.1004 H   0  0  0  0  0  0  0  0  0  0  0  0
   -0.0216   -3.6544    2.2285 H   0  0  0  0  0  0  0  0  0  0  0  0
    0.5514   -4.6380    0.8327 H   0  0  0  0  0  0  0  0  0  0  0  0
   -2.4526    4.9301    1.8118 H   0  0  0  0  0  0  0  0  0  0  0  0
   -4.0089    4.0977    1.5506 H   0  0  0  0  0  0  0  0  0  0  0  0
   -2.5911    3.1983    2.2053 H   0  0  0  0  0  0  0  0  0  0  0  0
    4.4527   -1.7715   -1.1947 H   0  0  0  0  0  0  0  0  0  0  0  0
    4.4035    3.0113    0.1319 H   0  0  0  0  0  0  0  0  0  0  0  0
    6.4046   -0.3416   -1.6532 H   0  0  0  0  0  0  0  0  0  0  0  0
    6.3860    2.0498   -0.9935 H   0  0  0  0  0  0  0  0  0  0  0  0
    1.2551    2.1041    2.4999 H   0  0  0  0  0  0  0  0  0  0  0  0
    3.0244    2.2548    2.5683 H   0  0  0  0  0  0  0  0  0  0  0  0
    2.2548    0.6360    2.5191 H   0  0  0  0  0  0  0  0  0  0  0  0
  1  2  2  0  0  0  0
  1  3  2  0  0  0  0
  1  7  1  0  0  0  0
  1 22  1  0  0  0  0
  4 23  1  0  0  0  0
  4 28  1  0  0  0  0
  5 11  1  0  0  0  0
  5 14  1  0  0  0  0
  5 15  1  0  0  0  0
  6  8  1  0  0  0  0
  6 17  1  0  0  0  0
  6 20  1  0  0  0  0
  7 16  1  0  0  0  0
  7 43  1  0  0  0  0
  8 19  2  0  0  0  0
  9 10  1  0  0  0  0
  9 12  1  0  0  0  0
  9 13  1  0  0  0  0
  9 29  1  0  0  0  0
 10 14  1  0  0  0  0
 10 17  1  0  0  0  0
 10 30  1  0  0  0  0
 11 12  1  0  0  0  0
 11 16  1  0  0  0  0
 11 31  1  0  0  0  0
 12 32  1  0  0  0  0
 12 33  1  0  0  0  0
 13 15  1  0  0  0  0
 13 34  1  0  0  0  0
 13 35  1  0  0  0  0
 14 36  1  0  0  0  0
 14 37  1  0  0  0  0
 15 38  1  0  0  0  0
 15 39  1  0  0  0  0
 16 40  1  0  0  0  0
 16 41  1  0  0  0  0
 17 18  2  0  0  0  0
 18 19  1  0  0  0  0
 18 42  1  0  0  0  0
 19 21  1  0  0  0  0
 20 44  1  0  0  0  0
 20 45  1  0  0  0  0
 20 46  1  0  0  0  0
 21 23  1  0  0  0  0
 21 24  2  0  0  0  0
 22 47  1  0  0  0  0
 22 48  1  0  0  0  0
 22 49  1  0  0  0  0
 23 25  2  0  0  0  0
 24 26  1  0  0  0  0
 24 50  1  0  0  0  0
 25 27  1  0  0  0  0
 25 51  1  0  0  0  0
 26 27  2  0  0  0  0
 26 52  1  0  0  0  0
 27 53  1  0  0  0  0
 28 54  1  0  0  0  0
 28 55  1  0  0  0  0
 28 56  1  0  0  0  0
M  END
> <PUBCHEM_COMPOUND_CID>
25388930

> <PUBCHEM_CONFORMER_RMSD>
1

> <PUBCHEM_CONFORMER_DIVERSEORDER>
1
26
61
23
34
66
46
64
41
48
10
37
35
54
38
63
3
24
51
13
30
62
70
28
42
5
67
25
68
57
58
21
29
49
9
22
44
27
2
65
59
7
17
40
60
69
33
32
14
47
50
55
56
12
43
39
15
52
19
36
31
53
4
16
18
45
11
6
8
20

> <PUBCHEM_MMFF94_PARTIAL_CHARGES>
31
1 1.33
10 0.18
11 0.27
14 0.27
15 0.27
16 0.36
17 -0.33
18 -0.15
19 0.23
2 -0.65
20 0.26
21 0.05
22 0.11
23 0.08
24 -0.15
25 -0.15
26 -0.15
27 -0.15
28 0.28
3 -0.65
4 -0.36
42 0.15
43 0.42
5 -0.81
50 0.15
51 0.15
52 0.15
53 0.15
6 0.31
7 -0.91
8 -0.71

> <PUBCHEM_EFFECTIVE_ROTOR_COUNT>
7.2

> <PUBCHEM_PHARMACOPHORE_FEATURES>
9
1 2 acceptor
1 3 acceptor
1 4 acceptor
1 5 cation
1 7 donor
1 8 acceptor
5 6 8 17 18 19 rings
6 21 23 24 25 26 27 rings
8 5 9 10 11 12 13 14 15 rings

> <PUBCHEM_HEAVY_ATOM_COUNT>
28

> <PUBCHEM_ATOM_DEF_STEREO_COUNT>
3

> <PUBCHEM_ATOM_UDEF_STEREO_COUNT>
0

> <PUBCHEM_BOND_DEF_STEREO_COUNT>
0

> <PUBCHEM_BOND_UDEF_STEREO_COUNT>
0

> <PUBCHEM_ISOTOPIC_ATOM_COUNT>
0

> <PUBCHEM_COMPONENT_COUNT>
1

> <PUBCHEM_CACTVS_TAUTO_COUNT>
1

> <PUBCHEM_CONFORMER_ID>
0183678200000001

> <PUBCHEM_MMFF94_ENERGY>
75.5802

> <PUBCHEM_FEATURE_SELFOVERLAP>
45.69

> <PUBCHEM_SHAPE_FINGERPRINT>
10006869 2 18337951174419890971
10498660 4 18336816589165814933
10670039 82 18335704974942879644
10871710 139 18410859884440361975
11059048 146 18054515711719806136
12107183 9 17975125445077676530
12788726 201 18336822112868544368
12978246 48 18050284773943681825
13122387 1 17620192036037519417
14114211 80 17842289073038885441
14251751 93 18341898472049151468
14251757 17 18058743411759489156
14251764 75 17909277888160432441
14279260 333 18269840805719745918
14363568 33 17255419625932492881
14466204 15 18338227181692101186
151778 21 17834681491598181849
15961568 22 17836073842939191680
17974551 9 16955935314969089603
19311894 1 18058461902191048164
19930381 70 17546157962732502755
21033648 144 17915179250908106598
21033648 29 18190169281761979026
21033650 10 18195276427980106990
21864079 5 18335699433902388922
221357 26 18201440341167183366
22393880 68 18413389809161606576
22907989 373 18271793585324659103
23536364 44 17986693505929435412
3052486 1 18336816542565129880
469060 322 17968392229094815785
5048184 11 18265897951730658164
508706 21 18341603828549814968
5252454 2 18269276772585291865
5283173 99 18413394242074472684
6371009 1 17761469423604853237
7226269 152 18264199396129976688
7288768 16 17676498194130950489
7808743 9 18339364063176301909

> <PUBCHEM_SHAPE_MULTIPOLES>
542.54
10.04
5.49
1.44
10.17
4.91
0.33
2.55
-2.93
-6.22
0.98
-0.04
-0.1
-0.63

> <PUBCHEM_SHAPE_SELFOVERLAP>
1145.756

> <PUBCHEM_SHAPE_VOLUME>
308.4

> <PUBCHEM_COORDINATE_TYPE>
2
5
10

$$$$
