40776929
  -OEChem-12032416183D

 63 67  0     1  0  0  0  0  0999 V2000
    3.9412    0.3423   -0.5851 S   0  0  0  0  0  0  0  0  0  0  0  0
   -6.6512   -4.1971    1.4653 F   0  0  0  0  0  0  0  0  0  0  0  0
    5.1885    0.5379   -1.2975 O   0  0  0  0  0  0  0  0  0  0  0  0
    2.8242   -0.3337   -1.2166 O   0  0  0  0  0  0  0  0  0  0  0  0
    0.4647    3.2810    1.9435 N   0  0  2  0  0  0  0  0  0  0  0  0
    3.3913    1.8346    0.0380 N   0  0  0  0  0  0  0  0  0  0  0  0
   -1.6512    1.6034   -1.7348 N   0  0  0  0  0  0  0  0  0  0  0  0
   -2.9756   -0.4027   -1.9053 N   0  0  0  0  0  0  0  0  0  0  0  0
   -0.5371    3.8744   -0.3862 C   0  0  2  0  0  0  0  0  0  0  0  0
   -1.4490    2.8579    0.3550 C   0  0  2  0  0  0  0  0  0  0  0  0
    1.5062    3.1412    0.8918 C   0  0  2  0  0  0  0  0  0  0  0  0
    0.8840    3.2862   -0.5137 C   0  0  0  0  0  0  0  0  0  0  0  0
   -0.4326    5.1209    0.5187 C   0  0  0  0  0  0  0  0  0  0  0  0
   -0.6909    2.4023    1.6346 C   0  0  0  0  0  0  0  0  0  0  0  0
   -0.0067    4.6866    1.9321 C   0  0  0  0  0  0  0  0  0  0  0  0
    2.3044    1.8432    1.0309 C   0  0  0  0  0  0  0  0  0  0  0  0
   -2.0058    1.6825   -0.4355 C   0  0  0  0  0  0  0  0  0  0  0  0
   -2.8300    0.7704    0.1914 C   0  0  0  0  0  0  0  0  0  0  0  0
   -3.2897   -0.2620   -0.6007 C   0  0  0  0  0  0  0  0  0  0  0  0
   -2.1644    0.5512   -2.4006 C   0  0  0  0  0  0  0  0  0  0  0  0
    4.3032   -0.5265    0.9236 C   0  0  0  0  0  0  0  0  0  0  0  0
   -4.1604   -1.2813   -0.0655 C   0  0  0  0  0  0  0  0  0  0  0  0
   -1.7964    0.4306   -3.8408 C   0  0  0  0  0  0  0  0  0  0  0  0
    4.8091   -1.8873    0.5561 C   0  0  0  0  0  0  0  0  0  0  0  0
   -3.7318   -2.0773    0.9967 C   0  0  0  0  0  0  0  0  0  0  0  0
   -5.4303   -1.4702   -0.6106 C   0  0  0  0  0  0  0  0  0  0  0  0
    6.0943   -2.0359    0.0347 C   0  0  0  0  0  0  0  0  0  0  0  0
    3.9955   -3.0060    0.7352 C   0  0  0  0  0  0  0  0  0  0  0  0
   -4.5732   -3.0623    1.5140 C   0  0  0  0  0  0  0  0  0  0  0  0
   -6.2718   -2.4550   -0.0934 C   0  0  0  0  0  0  0  0  0  0  0  0
    6.5658   -3.3033   -0.3079 C   0  0  0  0  0  0  0  0  0  0  0  0
    4.4669   -4.2733    0.3928 C   0  0  0  0  0  0  0  0  0  0  0  0
   -5.8432   -3.2512    0.9688 C   0  0  0  0  0  0  0  0  0  0  0  0
    5.7521   -4.4219   -0.1287 C   0  0  0  0  0  0  0  0  0  0  0  0
   -0.9385    4.1474   -1.3678 H   0  0  0  0  0  0  0  0  0  0  0  0
   -2.3406    3.4193    0.6754 H   0  0  0  0  0  0  0  0  0  0  0  0
    2.2291    3.9596    1.0277 H   0  0  0  0  0  0  0  0  0  0  0  0
    0.8435    2.3259   -1.0397 H   0  0  0  0  0  0  0  0  0  0  0  0
    1.5055    3.9568   -1.1201 H   0  0  0  0  0  0  0  0  0  0  0  0
   -1.3955    5.6429    0.5641 H   0  0  0  0  0  0  0  0  0  0  0  0
    0.2988    5.8240    0.1018 H   0  0  0  0  0  0  0  0  0  0  0  0
   -1.3835    2.4186    2.4870 H   0  0  0  0  0  0  0  0  0  0  0  0
   -0.3598    1.3600    1.5640 H   0  0  0  0  0  0  0  0  0  0  0  0
    0.7840    5.3502    2.3033 H   0  0  0  0  0  0  0  0  0  0  0  0
   -0.8421    4.8042    2.6340 H   0  0  0  0  0  0  0  0  0  0  0  0
    1.6590    0.9730    0.8782 H   0  0  0  0  0  0  0  0  0  0  0  0
    2.7434    1.7771    2.0326 H   0  0  0  0  0  0  0  0  0  0  0  0
    4.1117    2.5480    0.2118 H   0  0  0  0  0  0  0  0  0  0  0  0
   -3.1057    0.8682    1.2348 H   0  0  0  0  0  0  0  0  0  0  0  0
    5.0604    0.0341    1.4805 H   0  0  0  0  0  0  0  0  0  0  0  0
    3.3935   -0.5967    1.5254 H   0  0  0  0  0  0  0  0  0  0  0  0
   -2.4886    1.0201   -4.4492 H   0  0  0  0  0  0  0  0  0  0  0  0
   -0.7791    0.7965   -4.0114 H   0  0  0  0  0  0  0  0  0  0  0  0
   -1.8413   -0.6123   -4.1695 H   0  0  0  0  0  0  0  0  0  0  0  0
   -2.7435   -1.9501    1.4326 H   0  0  0  0  0  0  0  0  0  0  0  0
   -5.7835   -0.8572   -1.4365 H   0  0  0  0  0  0  0  0  0  0  0  0
    6.7514   -1.1801   -0.0915 H   0  0  0  0  0  0  0  0  0  0  0  0
    2.9915   -2.9049    1.1385 H   0  0  0  0  0  0  0  0  0  0  0  0
   -4.2395   -3.6831    2.3402 H   0  0  0  0  0  0  0  0  0  0  0  0
   -7.2610   -2.6020   -0.5168 H   0  0  0  0  0  0  0  0  0  0  0  0
    7.5683   -3.4198   -0.7093 H   0  0  0  0  0  0  0  0  0  0  0  0
    3.8333   -5.1444    0.5319 H   0  0  0  0  0  0  0  0  0  0  0  0
    6.1195   -5.4088   -0.3943 H   0  0  0  0  0  0  0  0  0  0  0  0
  1  3  2  0  0  0  0
  1  4  2  0  0  0  0
  1  6  1  0  0  0  0
  1 21  1  0  0  0  0
  2 33  1  0  0  0  0
  5 11  1  0  0  0  0
  5 14  1  0  0  0  0
  5 15  1  0  0  0  0
  6 16  1  0  0  0  0
  6 48  1  0  0  0  0
  7 17  2  0  0  0  0
  7 20  1  0  0  0  0
  8 19  1  0  0  0  0
  8 20  2  0  0  0  0
  9 10  1  0  0  0  0
  9 12  1  0  0  0  0
  9 13  1  0  0  0  0
  9 35  1  0  0  0  0
 10 14  1  0  0  0  0
 10 17  1  0  0  0  0
 10 36  1  0  0  0  0
 11 12  1  0  0  0  0
 11 16  1  0  0  0  0
 11 37  1  0  0  0  0
 12 38  1  0  0  0  0
 12 39  1  0  0  0  0
 13 15  1  0  0  0  0
 13 40  1  0  0  0  0
 13 41  1  0  0  0  0
 14 42  1  0  0  0  0
 14 43  1  0  0  0  0
 15 44  1  0  0  0  0
 15 45  1  0  0  0  0
 16 46  1  0  0  0  0
 16 47  1  0  0  0  0
 17 18  1  0  0  0  0
 18 19  2  0  0  0  0
 18 49  1  0  0  0  0
 19 22  1  0  0  0  0
 20 23  1  0  0  0  0
 21 24  1  0  0  0  0
 21 50  1  0  0  0  0
 21 51  1  0  0  0  0
 22 25  2  0  0  0  0
 22 26  1  0  0  0  0
 23 52  1  0  0  0  0
 23 53  1  0  0  0  0
 23 54  1  0  0  0  0
 24 27  2  0  0  0  0
 24 28  1  0  0  0  0
 25 29  1  0  0  0  0
 25 55  1  0  0  0  0
 26 30  2  0  0  0  0
 26 56  1  0  0  0  0
 27 31  1  0  0  0  0
 27 57  1  0  0  0  0
 28 32  2  0  0  0  0
 28 58  1  0  0  0  0
 29 33  2  0  0  0  0
 29 59  1  0  0  0  0
 30 33  1  0  0  0  0
 30 60  1  0  0  0  0
 31 34  2  0  0  0  0
 31 61  1  0  0  0  0
 32 34  1  0  0  0  0
 32 62  1  0  0  0  0
 34 63  1  0  0  0  0
M  END
> <PUBCHEM_COMPOUND_CID>
40776929

> <PUBCHEM_CONFORMER_RMSD>
1.2

> <PUBCHEM_CONFORMER_DIVERSEORDER>
1
105
104
34
88
90
110
120
22
9
20
4
103
54
121
65
131
129
133
71
52
45
13
11
115
43
69
7
76
36
29
73
124
107
116
6
25
59
49
98
92
8
70
94
67
79
58
32
55
111
46
108
113
89
126
47
44
134
102
60
17
117
127
135
75
112
64
80
30
125
95
10
3
31
24
28
48
51
122
114
123
101
14
97
99
93
39
38
128
68
86
96
78
87
23
82
57
72
2
27
100
5
42
106
16
33
84
53
66
56
15
63
12
61
130
85
118
41
40
81
132
91
19
37
21
109
26
62
35
77
50
18
74
119
83

> <PUBCHEM_MMFF94_PARTIAL_CHARGES>
41
1 1.33
10 0.14
11 0.27
14 0.27
15 0.27
16 0.36
17 0.17
18 -0.15
19 0.31
2 -0.19
20 0.48
21 0.25
23 0.14
24 -0.14
25 -0.15
26 -0.15
27 -0.15
28 -0.15
29 -0.15
3 -0.65
30 -0.15
31 -0.15
32 -0.15
33 0.19
34 -0.15
4 -0.65
48 0.42
49 0.15
5 -0.81
55 0.15
56 0.15
57 0.15
58 0.15
59 0.15
6 -0.91
60 0.15
61 0.15
62 0.15
63 0.15
7 -0.62
8 -0.62

> <PUBCHEM_EFFECTIVE_ROTOR_COUNT>
8.2

> <PUBCHEM_PHARMACOPHORE_FEATURES>
10
1 3 acceptor
1 4 acceptor
1 5 cation
1 6 donor
1 7 acceptor
3 7 8 20 cation
6 22 25 26 29 30 33 rings
6 24 27 28 31 32 34 rings
6 7 8 17 18 19 20 rings
8 5 9 10 11 12 13 14 15 rings

> <PUBCHEM_HEAVY_ATOM_COUNT>
34

> <PUBCHEM_ATOM_DEF_STEREO_COUNT>
3

> <PUBCHEM_ATOM_UDEF_STEREO_COUNT>
0

> <PUBCHEM_BOND_DEF_STEREO_COUNT>
0

> <PUBCHEM_BOND_UDEF_STEREO_COUNT>
0

> <PUBCHEM_ISOTOPIC_ATOM_COUNT>
0

> <PUBCHEM_COMPONENT_COUNT>
1

> <PUBCHEM_CACTVS_TAUTO_COUNT>
1

> <PUBCHEM_CONFORMER_ID>
026E34E100000001

> <PUBCHEM_MMFF94_ENERGY>
89.78

> <PUBCHEM_FEATURE_SELFOVERLAP>
50.764

> <PUBCHEM_SHAPE_FINGERPRINT>
10305334 12 18055078657989326075
10319688 140 18120377811148446360
10928967 22 18201434826597805502
11285246 1 17968660415310688562
117089 54 18410859862533645483
12107183 9 18200329787959439201
12422481 6 17202783552369611901
12633046 712 18408597080994876717
12655387 17 18269011799721907321
13383661 66 18260271888280909554
1361 87 18263071141795312822
14844126 61 17557399021612030564
14866123 147 18269557127087293097
15001296 14 18263918840091553770
15320291 9 17761764079525712434
15448158 6 18266744760330826806
15475509 35 18120661494297146055
15728490 83 18266745666727110546
15803439 3 16813463848962945804
16728300 4 18202568410712927359
17909252 39 18411697686768424474
18603816 31 17539409826508945786
19311894 1 17976823078230235946
20501277 246 18198899404250214322
20775530 9 18201997759245289404
21315759 227 18261379019539130106
21716022 299 18188223094879124828
21796203 349 17846500387388314104
23466295 7 18267021652724963304
23559900 14 18043525222075781213
23569914 152 18052784063533227287
23569914 2 13180798476740633515
345986 75 17703238424351096521
3886686 26 17546733646969168734
404807 14 18409735041359894451
42767 28 17822003160293602994
437795 139 17532347826257782282
4435113 14 17533788362547385427
44802255 64 17396985656946292548
44880168 125 16917071019290763078
484985 159 17974285430540529884
5309563 4 18413108385249684850
57527585 103 18052264998469089149
5912855 24 18341339894615537712
613672 6 18123156131319180352
6201320 77 18187941594586095731
6422251 121 18334571365158784355
6431902 208 18269262475261473462
6679774 75 16972838042270943552
6697151 62 18129647708505729021
6700243 42 17313927715079999317
7970288 3 18411135852900058850
86090 222 17898288561519024387
9831232 110 18118683468816373019

> <PUBCHEM_SHAPE_MULTIPOLES>
664.62
15.41
7.69
2.11
7.61
2.21
-1.74
-29.58
1.29
-0.19
4.17
-2.04
0.78
2.08

> <PUBCHEM_SHAPE_SELFOVERLAP>
1429.867

> <PUBCHEM_SHAPE_VOLUME>
371.9

> <PUBCHEM_COORDINATE_TYPE>
2
5
10

$$$$
