38027524
  -OEChem-12032416253D

 65 66  0     1  0  0  0  0  0999 V2000
    3.4009   -1.5058    0.9564 S   0  0  0  0  0  0  0  0  0  0  0  0
   -4.4450   -3.7555   -1.5179 F   0  0  0  0  0  0  0  0  0  0  0  0
   -2.8930    2.6510    0.4822 O   0  0  0  0  0  0  0  0  0  0  0  0
    2.5658   -2.4653    0.2607 O   0  0  0  0  0  0  0  0  0  0  0  0
    3.4900   -1.5119    2.4040 O   0  0  0  0  0  0  0  0  0  0  0  0
    3.0106    0.0847    0.4006 N   0  0  0  0  0  0  0  0  0  0  0  0
   -2.3399    1.0180    2.0405 N   0  0  0  0  0  0  0  0  0  0  0  0
    0.6418    0.9405   -1.2425 C   0  0  1  0  0  0  0  0  0  0  0  0
    2.0869    1.4836   -1.3710 C   0  0  1  0  0  0  0  0  0  0  0  0
   -0.3658    2.0998   -1.2103 C   0  0  0  0  0  0  0  0  0  0  0  0
   -0.1025    3.0683   -0.0418 C   0  0  2  0  0  0  0  0  0  0  0  0
    0.2914   -0.0197   -2.3834 C   0  0  0  0  0  0  0  0  0  0  0  0
    1.3624    3.4419    0.0609 C   0  0  0  0  0  0  0  0  0  0  0  0
    2.3254    2.7297   -0.5509 C   0  0  0  0  0  0  0  0  0  0  0  0
    3.1159    0.4144   -0.9862 C   0  0  0  0  0  0  0  0  0  0  0  0
   -0.6152    2.4894    1.2816 C   0  0  0  0  0  0  0  0  0  0  0  0
   -0.1138    0.7606   -3.6299 C   0  0  0  0  0  0  0  0  0  0  0  0
   -0.8212   -0.9713   -1.9553 C   0  0  0  0  0  0  0  0  0  0  0  0
    1.6918    4.6808    0.8463 C   0  0  0  0  0  0  0  0  0  0  0  0
   -2.0710    2.0891    1.2009 C   0  0  0  0  0  0  0  0  0  0  0  0
    5.0550   -1.6588    0.3220 C   0  0  0  0  0  0  0  0  0  0  0  0
    5.6610   -3.0067    0.6759 C   0  0  0  0  0  0  0  0  0  0  0  0
   -3.6515    0.4258    2.1688 C   0  0  0  0  0  0  0  0  0  0  0  0
    7.0817   -3.1324    0.1520 C   0  0  0  0  0  0  0  0  0  0  0  0
   -3.8632   -0.6892    1.1858 C   0  0  0  0  0  0  0  0  0  0  0  0
   -4.3974   -0.4166   -0.0737 C   0  0  0  0  0  0  0  0  0  0  0  0
   -3.5261   -1.9976    1.5321 C   0  0  0  0  0  0  0  0  0  0  0  0
   -4.5945   -1.4524   -0.9867 C   0  0  0  0  0  0  0  0  0  0  0  0
   -3.7231   -3.0334    0.6191 C   0  0  0  0  0  0  0  0  0  0  0  0
   -4.2573   -2.7610   -0.6403 C   0  0  0  0  0  0  0  0  0  0  0  0
    0.5553    0.3937   -0.2948 H   0  0  0  0  0  0  0  0  0  0  0  0
    2.2815    1.7628   -2.4142 H   0  0  0  0  0  0  0  0  0  0  0  0
   -1.3931    1.7291   -1.2091 H   0  0  0  0  0  0  0  0  0  0  0  0
   -0.2686    2.7107   -2.1180 H   0  0  0  0  0  0  0  0  0  0  0  0
   -0.6726    3.9822   -0.2611 H   0  0  0  0  0  0  0  0  0  0  0  0
    1.1545   -0.6419   -2.6403 H   0  0  0  0  0  0  0  0  0  0  0  0
    3.3563    3.0717   -0.4817 H   0  0  0  0  0  0  0  0  0  0  0  0
    4.1265    0.7942   -1.1818 H   0  0  0  0  0  0  0  0  0  0  0  0
    2.9919   -0.4737   -1.6113 H   0  0  0  0  0  0  0  0  0  0  0  0
   -0.0016    1.6327    1.5858 H   0  0  0  0  0  0  0  0  0  0  0  0
   -0.5386    3.2344    2.0830 H   0  0  0  0  0  0  0  0  0  0  0  0
   -1.1027    1.2237   -3.5463 H   0  0  0  0  0  0  0  0  0  0  0  0
   -0.1801    0.0702   -4.4800 H   0  0  0  0  0  0  0  0  0  0  0  0
    0.6196    1.5230   -3.9084 H   0  0  0  0  0  0  0  0  0  0  0  0
   -1.7478   -0.4400   -1.7230 H   0  0  0  0  0  0  0  0  0  0  0  0
   -0.5280   -1.5477   -1.0713 H   0  0  0  0  0  0  0  0  0  0  0  0
   -1.0436   -1.6859   -2.7554 H   0  0  0  0  0  0  0  0  0  0  0  0
    1.1425    5.5402    0.4482 H   0  0  0  0  0  0  0  0  0  0  0  0
    2.7588    4.9241    0.8043 H   0  0  0  0  0  0  0  0  0  0  0  0
    1.4249    4.5534    1.8996 H   0  0  0  0  0  0  0  0  0  0  0  0
    3.2739    0.8423    1.0444 H   0  0  0  0  0  0  0  0  0  0  0  0
    5.6469   -0.8436    0.7502 H   0  0  0  0  0  0  0  0  0  0  0  0
    5.0155   -1.5465   -0.7652 H   0  0  0  0  0  0  0  0  0  0  0  0
   -1.5899    0.6134    2.5934 H   0  0  0  0  0  0  0  0  0  0  0  0
    5.0499   -3.8159    0.2593 H   0  0  0  0  0  0  0  0  0  0  0  0
    5.6664   -3.1446    1.7634 H   0  0  0  0  0  0  0  0  0  0  0  0
   -3.7475    0.0565    3.1961 H   0  0  0  0  0  0  0  0  0  0  0  0
   -4.4158    1.2008    2.0367 H   0  0  0  0  0  0  0  0  0  0  0  0
    7.1077   -3.0371   -0.9383 H   0  0  0  0  0  0  0  0  0  0  0  0
    7.7277   -2.3594    0.5803 H   0  0  0  0  0  0  0  0  0  0  0  0
    7.4989   -4.1088    0.4174 H   0  0  0  0  0  0  0  0  0  0  0  0
   -4.6661    0.5974   -0.3568 H   0  0  0  0  0  0  0  0  0  0  0  0
   -3.1071   -2.2225    2.5093 H   0  0  0  0  0  0  0  0  0  0  0  0
   -5.0094   -1.2405   -1.9676 H   0  0  0  0  0  0  0  0  0  0  0  0
   -3.4597   -4.0521    0.8879 H   0  0  0  0  0  0  0  0  0  0  0  0
  1  4  2  0  0  0  0
  1  5  2  0  0  0  0
  1  6  1  0  0  0  0
  1 21  1  0  0  0  0
  2 30  1  0  0  0  0
  3 20  2  0  0  0  0
  6 15  1  0  0  0  0
  6 51  1  0  0  0  0
  7 20  1  0  0  0  0
  7 23  1  0  0  0  0
  7 54  1  0  0  0  0
  8  9  1  0  0  0  0
  8 10  1  0  0  0  0
  8 12  1  0  0  0  0
  8 31  1  0  0  0  0
  9 14  1  0  0  0  0
  9 15  1  0  0  0  0
  9 32  1  0  0  0  0
 10 11  1  0  0  0  0
 10 33  1  0  0  0  0
 10 34  1  0  0  0  0
 11 13  1  0  0  0  0
 11 16  1  0  0  0  0
 11 35  1  0  0  0  0
 12 17  1  0  0  0  0
 12 18  1  0  0  0  0
 12 36  1  0  0  0  0
 13 14  2  0  0  0  0
 13 19  1  0  0  0  0
 14 37  1  0  0  0  0
 15 38  1  0  0  0  0
 15 39  1  0  0  0  0
 16 20  1  0  0  0  0
 16 40  1  0  0  0  0
 16 41  1  0  0  0  0
 17 42  1  0  0  0  0
 17 43  1  0  0  0  0
 17 44  1  0  0  0  0
 18 45  1  0  0  0  0
 18 46  1  0  0  0  0
 18 47  1  0  0  0  0
 19 48  1  0  0  0  0
 19 49  1  0  0  0  0
 19 50  1  0  0  0  0
 21 22  1  0  0  0  0
 21 52  1  0  0  0  0
 21 53  1  0  0  0  0
 22 24  1  0  0  0  0
 22 55  1  0  0  0  0
 22 56  1  0  0  0  0
 23 25  1  0  0  0  0
 23 57  1  0  0  0  0
 23 58  1  0  0  0  0
 24 59  1  0  0  0  0
 24 60  1  0  0  0  0
 24 61  1  0  0  0  0
 25 26  2  0  0  0  0
 25 27  1  0  0  0  0
 26 28  1  0  0  0  0
 26 62  1  0  0  0  0
 27 29  2  0  0  0  0
 27 63  1  0  0  0  0
 28 30  2  0  0  0  0
 28 64  1  0  0  0  0
 29 30  1  0  0  0  0
 29 65  1  0  0  0  0
M  END
> <PUBCHEM_COMPOUND_CID>
38027524

> <PUBCHEM_CONFORMER_RMSD>
1.2

> <PUBCHEM_CONFORMER_DIVERSEORDER>
1
118
53
107
83
43
54
85
108
55
80
61
112
28
87
117
105
8
89
76
38
113
115
6
57
106
93
50
90
120
49
40
116
60
7
86
14
72
4
101
45
64
37
9
31
52
71
24
94
18
42
104
100
56
68
19
109
34
16
122
10
21
78
22
103
119
73
70
79
58
88
2
77
99
110
51
121
111
23
26
63
41
47
81
114
46
27
84
25
36
30
102
74
48
97
65
35
32
95
91
11
69
33
44
96
98
92
15
62
12
67
39
5
66
20
29
3
17
75
13
82
59

> <PUBCHEM_MMFF94_PARTIAL_CHARGES>
30
1 1.33
11 0.14
13 -0.28
14 -0.29
15 0.36
16 0.06
19 0.14
2 -0.19
20 0.57
21 0.11
23 0.44
25 -0.14
26 -0.15
27 -0.15
28 -0.15
29 -0.15
3 -0.57
30 0.19
37 0.15
4 -0.65
5 -0.65
51 0.42
54 0.37
6 -0.91
62 0.15
63 0.15
64 0.15
65 0.15
7 -0.73
9 0.14

> <PUBCHEM_EFFECTIVE_ROTOR_COUNT>
11.8

> <PUBCHEM_PHARMACOPHORE_FEATURES>
9
1 24 hydrophobe
1 3 acceptor
1 4 acceptor
1 5 acceptor
1 6 donor
1 7 donor
3 12 17 18 hydrophobe
6 25 26 27 28 29 30 rings
6 8 9 10 11 13 14 rings

> <PUBCHEM_HEAVY_ATOM_COUNT>
30

> <PUBCHEM_ATOM_DEF_STEREO_COUNT>
3

> <PUBCHEM_ATOM_UDEF_STEREO_COUNT>
0

> <PUBCHEM_BOND_DEF_STEREO_COUNT>
0

> <PUBCHEM_BOND_UDEF_STEREO_COUNT>
0

> <PUBCHEM_ISOTOPIC_ATOM_COUNT>
0

> <PUBCHEM_COMPONENT_COUNT>
1

> <PUBCHEM_CACTVS_TAUTO_COUNT>
2

> <PUBCHEM_CONFORMER_ID>
0244410400000001

> <PUBCHEM_MMFF94_ENERGY>
47.0802

> <PUBCHEM_FEATURE_SELFOVERLAP>
45.688

> <PUBCHEM_SHAPE_FINGERPRINT>
11387372 6 17834398913226300678
11552529 35 18048875200484629440
12422481 6 17274831203505340262
12633257 1 18128839524329993761
13533116 47 18117837931336958087
13583140 156 18121501525428203365
14117953 113 18268712706346074495
14251757 17 15719393966567977123
14674994 50 17971467403797935253
14705955 166 16914257248133200097
14844126 61 18119819005891291928
15163728 17 9511454537794709280
19315092 285 18051957414871839679
19319366 153 17478325795764038149
20775530 9 18040996215649570810
208703 8 18260559913104040563
21033648 29 16343431608927890110
25222932 49 17406562875701992727
46194498 28 15359692121948829497
463206 1 18262253147956497913
484985 159 18046894996843565870

> <PUBCHEM_SHAPE_MULTIPOLES>
586.39
11.41
5.49
2.48
8.72
1.85
-1.36
-17.06
3.41
2.18
1.1
-1.08
0.17
-2.33

> <PUBCHEM_SHAPE_SELFOVERLAP>
1180.705

> <PUBCHEM_SHAPE_VOLUME>
346.4

> <PUBCHEM_COORDINATE_TYPE>
2
5
10

$$$$
