7128130
  -OEChem-12032416123D

 66 68  0     1  0  0  0  0  0999 V2000
   -3.1454    0.6462   -1.4268 O   0  0  0  0  0  0  0  0  0  0  0  0
   -2.6265   -1.2691    1.6075 O   0  0  0  0  0  0  0  0  0  0  0  0
    2.1499    1.4107   -0.9529 O   0  0  0  0  0  0  0  0  0  0  0  0
   -4.6781    4.2518    0.6736 O   0  0  0  0  0  0  0  0  0  0  0  0
   -3.8325    2.3720    1.6911 O   0  0  0  0  0  0  0  0  0  0  0  0
    7.8985   -1.3541    0.8900 O   0  0  0  0  0  0  0  0  0  0  0  0
   -1.7336   -1.4300   -0.5380 N   0  0  0  0  0  0  0  0  0  0  0  0
    1.2030   -0.6688   -1.3048 N   0  0  0  0  0  0  0  0  0  0  0  0
   -1.8397    2.1063   -0.1680 N   0  0  0  0  0  0  0  0  0  0  0  0
    3.3796   -0.5548   -0.5842 N   0  0  0  0  0  0  0  0  0  0  0  0
   -3.6877   -3.6617   -0.4088 N   0  0  0  0  0  0  0  0  0  0  0  0
   -2.7499   -5.5172    1.4737 N   0  0  0  0  0  0  0  0  0  0  0  0
   -0.0944   -0.1935   -1.7239 C   0  0  2  0  0  0  0  0  0  0  0  0
   -1.0672   -0.1322   -0.5463 C   0  0  1  0  0  0  0  0  0  0  0  0
   -0.7574   -1.1851   -2.6821 C   0  0  0  0  0  0  0  0  0  0  0  0
   -1.4408   -2.1836   -1.7567 C   0  0  0  0  0  0  0  0  0  0  0  0
   -2.1396    0.8924   -0.7664 C   0  0  0  0  0  0  0  0  0  0  0  0
   -2.3862   -1.9129    0.5887 C   0  0  0  0  0  0  0  0  0  0  0  0
   -2.6978    3.2622   -0.2505 C   0  0  2  0  0  0  0  0  0  0  0  0
   -1.9076    4.5882   -0.2070 C   0  0  0  0  0  0  0  0  0  0  0  0
    2.2500    0.1861   -0.9429 C   0  0  0  0  0  0  0  0  0  0  0  0
   -2.8196   -3.3160    0.5625 C   0  0  0  0  0  0  0  0  0  0  0  0
   -3.7868    3.2310    0.8163 C   0  0  0  0  0  0  0  0  0  0  0  0
   -1.2879    4.8198    1.1744 C   0  0  0  0  0  0  0  0  0  0  0  0
   -0.8255    4.6840   -1.2879 C   0  0  0  0  0  0  0  0  0  0  0  0
   -2.3591   -4.2274    1.4872 C   0  0  0  0  0  0  0  0  0  0  0  0
    4.6380   -0.0681   -0.1597 C   0  0  0  0  0  0  0  0  0  0  0  0
   -4.0784   -4.9516   -0.4224 C   0  0  0  0  0  0  0  0  0  0  0  0
    5.6599   -0.9621    0.1597 C   0  0  0  0  0  0  0  0  0  0  0  0
   -3.6179   -5.8629    0.5022 C   0  0  0  0  0  0  0  0  0  0  0  0
    4.8569    1.3058   -0.0603 C   0  0  0  0  0  0  0  0  0  0  0  0
   -5.7363    4.2935    1.6368 C   0  0  0  0  0  0  0  0  0  0  0  0
    6.9008   -0.4820    0.5785 C   0  0  0  0  0  0  0  0  0  0  0  0
    6.0978    1.7859    0.3585 C   0  0  0  0  0  0  0  0  0  0  0  0
    7.1197    0.8919    0.6778 C   0  0  0  0  0  0  0  0  0  0  0  0
    9.1417   -0.7948    1.3109 C   0  0  0  0  0  0  0  0  0  0  0  0
    0.0364    0.7820   -2.2059 H   0  0  0  0  0  0  0  0  0  0  0  0
   -0.5759    0.0293    0.4204 H   0  0  0  0  0  0  0  0  0  0  0  0
   -1.5154   -0.6664   -3.2816 H   0  0  0  0  0  0  0  0  0  0  0  0
   -0.0597   -1.6708   -3.3712 H   0  0  0  0  0  0  0  0  0  0  0  0
   -0.7761   -3.0143   -1.4961 H   0  0  0  0  0  0  0  0  0  0  0  0
   -2.3542   -2.5789   -2.2068 H   0  0  0  0  0  0  0  0  0  0  0  0
    1.3436   -1.6695   -1.2049 H   0  0  0  0  0  0  0  0  0  0  0  0
   -1.0019    2.1724    0.4017 H   0  0  0  0  0  0  0  0  0  0  0  0
   -3.2211    3.1986   -1.2140 H   0  0  0  0  0  0  0  0  0  0  0  0
   -2.6118    5.4119   -0.3847 H   0  0  0  0  0  0  0  0  0  0  0  0
   -0.7660    5.7832    1.1987 H   0  0  0  0  0  0  0  0  0  0  0  0
   -2.0464    4.8490    1.9627 H   0  0  0  0  0  0  0  0  0  0  0  0
   -0.5567    4.0470    1.4319 H   0  0  0  0  0  0  0  0  0  0  0  0
   -1.2576    4.5221   -2.2809 H   0  0  0  0  0  0  0  0  0  0  0  0
   -0.0331    3.9436   -1.1359 H   0  0  0  0  0  0  0  0  0  0  0  0
   -0.3612    5.6760   -1.2826 H   0  0  0  0  0  0  0  0  0  0  0  0
    3.2959   -1.5670   -0.6326 H   0  0  0  0  0  0  0  0  0  0  0  0
   -1.6599   -3.9585    2.2704 H   0  0  0  0  0  0  0  0  0  0  0  0
   -4.7754   -5.2301   -1.2030 H   0  0  0  0  0  0  0  0  0  0  0  0
    5.4965   -2.0346    0.0846 H   0  0  0  0  0  0  0  0  0  0  0  0
   -3.9322   -6.8991    0.4904 H   0  0  0  0  0  0  0  0  0  0  0  0
    4.1166    2.0592   -0.2892 H   0  0  0  0  0  0  0  0  0  0  0  0
   -6.3723    5.1521    1.4059 H   0  0  0  0  0  0  0  0  0  0  0  0
   -5.3265    4.4205    2.6433 H   0  0  0  0  0  0  0  0  0  0  0  0
   -6.3398    3.3829    1.5761 H   0  0  0  0  0  0  0  0  0  0  0  0
    6.2684    2.8559    0.4361 H   0  0  0  0  0  0  0  0  0  0  0  0
    8.0583    1.3328    0.9961 H   0  0  0  0  0  0  0  0  0  0  0  0
    9.6038   -0.1979    0.5173 H   0  0  0  0  0  0  0  0  0  0  0  0
    9.0344   -0.2322    2.2446 H   0  0  0  0  0  0  0  0  0  0  0  0
    9.8185   -1.6303    1.5175 H   0  0  0  0  0  0  0  0  0  0  0  0
  1 17  2  0  0  0  0
  2 18  2  0  0  0  0
  3 21  2  0  0  0  0
  4 23  1  0  0  0  0
  4 32  1  0  0  0  0
  5 23  2  0  0  0  0
  6 33  1  0  0  0  0
  6 36  1  0  0  0  0
  7 14  1  0  0  0  0
  7 16  1  0  0  0  0
  7 18  1  0  0  0  0
  8 13  1  0  0  0  0
  8 21  1  0  0  0  0
  8 43  1  0  0  0  0
  9 17  1  0  0  0  0
  9 19  1  0  0  0  0
  9 44  1  0  0  0  0
 10 21  1  0  0  0  0
 10 27  1  0  0  0  0
 10 53  1  0  0  0  0
 11 22  2  0  0  0  0
 11 28  1  0  0  0  0
 12 26  2  0  0  0  0
 12 30  1  0  0  0  0
 13 14  1  0  0  0  0
 13 15  1  0  0  0  0
 13 37  1  0  0  0  0
 14 17  1  0  0  0  0
 14 38  1  0  0  0  0
 15 16  1  0  0  0  0
 15 39  1  0  0  0  0
 15 40  1  0  0  0  0
 16 41  1  0  0  0  0
 16 42  1  0  0  0  0
 18 22  1  0  0  0  0
 19 20  1  0  0  0  0
 19 23  1  0  0  0  0
 19 45  1  0  0  0  0
 20 24  1  0  0  0  0
 20 25  1  0  0  0  0
 20 46  1  0  0  0  0
 22 26  1  0  0  0  0
 24 47  1  0  0  0  0
 24 48  1  0  0  0  0
 24 49  1  0  0  0  0
 25 50  1  0  0  0  0
 25 51  1  0  0  0  0
 25 52  1  0  0  0  0
 26 54  1  0  0  0  0
 27 29  2  0  0  0  0
 27 31  1  0  0  0  0
 28 30  2  0  0  0  0
 28 55  1  0  0  0  0
 29 33  1  0  0  0  0
 29 56  1  0  0  0  0
 30 57  1  0  0  0  0
 31 34  2  0  0  0  0
 31 58  1  0  0  0  0
 32 59  1  0  0  0  0
 32 60  1  0  0  0  0
 32 61  1  0  0  0  0
 33 35  2  0  0  0  0
 34 35  1  0  0  0  0
 34 62  1  0  0  0  0
 35 63  1  0  0  0  0
 36 64  1  0  0  0  0
 36 65  1  0  0  0  0
 36 66  1  0  0  0  0
M  END
> <PUBCHEM_COMPOUND_CID>
7128130

> <PUBCHEM_CONFORMER_RMSD>
1.2

> <PUBCHEM_CONFORMER_DIVERSEORDER>
2
26
20
52
56
11
18
46
35
12
29
16
22
15
40
44
7
51
42
23
5
10
43
34
31
3
39
50
27
21
13
30
49
47
9
4
32
53
55
33
41
48
19
8
54
45
36
37
24
38
1
28
6
17
14
25

> <PUBCHEM_MMFF94_PARTIAL_CHARGES>
42
1 -0.57
10 -0.55
11 -0.62
12 -0.62
13 0.3
14 0.36
16 0.3
17 0.57
18 0.54
19 0.36
2 -0.57
21 0.69
22 0.4
23 0.66
26 0.16
27 0.12
28 0.16
29 -0.15
3 -0.57
30 0.16
31 -0.15
32 0.28
33 0.08
34 -0.15
35 -0.15
36 0.28
4 -0.43
43 0.37
44 0.37
5 -0.57
53 0.37
54 0.15
55 0.15
56 0.15
57 0.15
58 0.15
6 -0.36
62 0.15
63 0.15
7 -0.66
8 -0.73
9 -0.73

> <PUBCHEM_EFFECTIVE_ROTOR_COUNT>
14

> <PUBCHEM_PHARMACOPHORE_FEATURES>
14
1 1 acceptor
1 10 donor
1 11 acceptor
1 12 acceptor
1 2 acceptor
1 3 acceptor
1 5 acceptor
1 6 acceptor
1 8 donor
1 9 donor
3 20 24 25 hydrophobe
5 7 13 14 15 16 rings
6 11 12 22 26 28 30 rings
6 27 29 31 33 34 35 rings

> <PUBCHEM_HEAVY_ATOM_COUNT>
36

> <PUBCHEM_ATOM_DEF_STEREO_COUNT>
3

> <PUBCHEM_ATOM_UDEF_STEREO_COUNT>
0

> <PUBCHEM_BOND_DEF_STEREO_COUNT>
0

> <PUBCHEM_BOND_UDEF_STEREO_COUNT>
0

> <PUBCHEM_ISOTOPIC_ATOM_COUNT>
0

> <PUBCHEM_COMPONENT_COUNT>
1

> <PUBCHEM_CACTVS_TAUTO_COUNT>
6

> <PUBCHEM_CONFORMER_ID>
006CC44200000002

> <PUBCHEM_MMFF94_ENERGY>
107.4942

> <PUBCHEM_FEATURE_SELFOVERLAP>
71.107

> <PUBCHEM_SHAPE_FINGERPRINT>
10074138 170 18410299099087147961
11399510 152 18199455732118081650
11607047 74 17329142469771681829
12758862 11 17751335478266135055
12988421 55 18120088373460826173
13540713 4 17845672369201709286
13540713 5 18041858323350678244
13560911 23 18339065061266179976
14856354 85 18409729556770410412
15513586 35 18057888150659271832
15876981 60 18262242247519397869
15878777 1 14181689851080230423
15950262 2 15191948184685471635
16114785 44 18341615889356078395
16758388 162 17614588234364369203
16993427 108 18050282871105026807
18393751 57 18194695769645337649
21814621 53 18130776855871961346
22889206 1 17543906807195755270
22956985 138 17542223909859171709
23522609 53 17895779356527156620
255183 313 18338817623699561921
32027 91 17613997817308936203
3383291 50 18337678516483771841
3418910 222 18118683460464276868
3504750 166 18408039624283514354
376196 1 17627232256160690669
4073 2 18409727345184349866
4144715 1 18341051818843187910
4616759 239 18265592387136271336
484985 159 18187354446032684462
5104073 3 18337377311160253664
6376802 137 18044659943060083642
6691757 9 18336823091836290340
9896288 288 18411980269715523118
9981440 41 18059853917933980470

> <PUBCHEM_SHAPE_MULTIPOLES>
675.76
16.9
8.85
1.74
51.69
1.94
0.43
1.76
-9.27
-22.14
-3.5
-1.16
0.22
-1.38

> <PUBCHEM_SHAPE_SELFOVERLAP>
1421.73

> <PUBCHEM_SHAPE_VOLUME>
378.4

> <PUBCHEM_COORDINATE_TYPE>
2
5
10

$$$$
