44716363
  -OEChem-12032416173D

 70 75  0     1  0  0  0  0  0999 V2000
    2.2494    2.4224    0.1912 O   0  0  0  0  0  0  0  0  0  0  0  0
    2.9158    0.8741    1.7365 O   0  0  0  0  0  0  0  0  0  0  0  0
    8.5535   -3.2125    0.9145 O   0  0  0  0  0  0  0  0  0  0  0  0
   -0.5524    4.6089    1.2885 N   0  0  2  0  0  0  0  0  0  0  0  0
   -4.2993    2.0060   -0.7754 N   0  0  0  0  0  0  0  0  0  0  0  0
   -4.6519    0.7115   -0.8535 N   0  0  0  0  0  0  0  0  0  0  0  0
    3.9821    1.0857   -0.3368 N   0  0  0  0  0  0  0  0  0  0  0  0
   -1.5826    4.1704   -1.0630 C   0  0  2  0  0  0  0  0  0  0  0  0
   -2.5045    3.5994    0.0497 C   0  0  2  0  0  0  0  0  0  0  0  0
    0.4660    3.9995    0.3930 C   0  0  2  0  0  0  0  0  0  0  0  0
   -0.1784    3.5432   -0.9337 C   0  0  0  0  0  0  0  0  0  0  0  0
   -1.4320    5.6813   -0.7844 C   0  0  0  0  0  0  0  0  0  0  0  0
   -1.7340    3.7172    1.3958 C   0  0  0  0  0  0  0  0  0  0  0  0
   -0.9905    5.8858    0.6754 C   0  0  0  0  0  0  0  0  0  0  0  0
   -3.1034    2.2149   -0.1535 C   0  0  0  0  0  0  0  0  0  0  0  0
    1.2356    2.8651    1.0728 C   0  0  0  0  0  0  0  0  0  0  0  0
   -2.6418    0.9706    0.2002 C   0  0  0  0  0  0  0  0  0  0  0  0
   -3.6355    0.0839   -0.2560 C   0  0  0  0  0  0  0  0  0  0  0  0
   -5.1773    3.0111   -1.3284 C   0  0  0  0  0  0  0  0  0  0  0  0
   -3.6331   -1.3503   -0.1304 C   0  0  0  0  0  0  0  0  0  0  0  0
    3.0519    1.3954    0.6364 C   0  0  0  0  0  0  0  0  0  0  0  0
   -4.8398   -2.0434   -0.0306 C   0  0  0  0  0  0  0  0  0  0  0  0
   -2.4270   -2.0446   -0.1092 C   0  0  0  0  0  0  0  0  0  0  0  0
   -4.8548   -3.4423    0.0920 C   0  0  0  0  0  0  0  0  0  0  0  0
   -2.4231   -3.4345    0.0120 C   0  0  0  0  0  0  0  0  0  0  0  0
   -3.6283   -4.1483    0.1136 C   0  0  0  0  0  0  0  0  0  0  0  0
    4.9924    0.0982   -0.2923 C   0  0  0  0  0  0  0  0  0  0  0  0
   -6.0599   -4.1562    0.1937 C   0  0  0  0  0  0  0  0  0  0  0  0
   -3.6432   -5.5473    0.2363 C   0  0  0  0  0  0  0  0  0  0  0  0
    5.8486   -0.0734   -1.3801 C   0  0  0  0  0  0  0  0  0  0  0  0
    5.1320   -0.7058    0.8390 C   0  0  0  0  0  0  0  0  0  0  0  0
   -6.0559   -5.5460    0.3150 C   0  0  0  0  0  0  0  0  0  0  0  0
   -4.8499   -6.2403    0.3363 C   0  0  0  0  0  0  0  0  0  0  0  0
    6.8445   -1.0490   -1.3364 C   0  0  0  0  0  0  0  0  0  0  0  0
    6.1280   -1.6813    0.8825 C   0  0  0  0  0  0  0  0  0  0  0  0
    6.9844   -1.8529   -0.2051 C   0  0  0  0  0  0  0  0  0  0  0  0
    8.0229   -2.8699   -0.1609 C   0  0  0  0  0  0  0  0  0  0  0  0
    8.4915   -3.5464   -1.4449 C   0  0  0  0  0  0  0  0  0  0  0  0
   -1.9971    3.9938   -2.0609 H   0  0  0  0  0  0  0  0  0  0  0  0
   -3.3592    4.2876    0.1337 H   0  0  0  0  0  0  0  0  0  0  0  0
    1.2155    4.7672    0.1499 H   0  0  0  0  0  0  0  0  0  0  0  0
    0.4484    3.8673   -1.7738 H   0  0  0  0  0  0  0  0  0  0  0  0
   -0.2553    2.4516   -0.9952 H   0  0  0  0  0  0  0  0  0  0  0  0
   -2.3814    6.1996   -0.9624 H   0  0  0  0  0  0  0  0  0  0  0  0
   -0.6922    6.1146   -1.4684 H   0  0  0  0  0  0  0  0  0  0  0  0
   -1.4290    2.7501    1.8056 H   0  0  0  0  0  0  0  0  0  0  0  0
   -2.4142    4.1270    2.1552 H   0  0  0  0  0  0  0  0  0  0  0  0
   -0.1770    6.6205    0.7189 H   0  0  0  0  0  0  0  0  0  0  0  0
   -1.8094    6.3194    1.2635 H   0  0  0  0  0  0  0  0  0  0  0  0
    1.6941    3.2306    1.9999 H   0  0  0  0  0  0  0  0  0  0  0  0
    0.5789    2.0220    1.3131 H   0  0  0  0  0  0  0  0  0  0  0  0
   -1.7175    0.7425    0.7117 H   0  0  0  0  0  0  0  0  0  0  0  0
   -5.6245    3.5684   -0.5018 H   0  0  0  0  0  0  0  0  0  0  0  0
   -5.9612    2.5253   -1.9158 H   0  0  0  0  0  0  0  0  0  0  0  0
   -4.5960    3.6715   -1.9760 H   0  0  0  0  0  0  0  0  0  0  0  0
   -5.7879   -1.5070   -0.0374 H   0  0  0  0  0  0  0  0  0  0  0  0
   -1.4711   -1.5340   -0.1956 H   0  0  0  0  0  0  0  0  0  0  0  0
    3.9375    1.6341   -1.1922 H   0  0  0  0  0  0  0  0  0  0  0  0
   -1.4688   -3.9570    0.0241 H   0  0  0  0  0  0  0  0  0  0  0  0
   -7.0147   -3.6347    0.1793 H   0  0  0  0  0  0  0  0  0  0  0  0
   -2.7125   -6.1105    0.2552 H   0  0  0  0  0  0  0  0  0  0  0  0
    5.7518    0.5483   -2.2665 H   0  0  0  0  0  0  0  0  0  0  0  0
    4.5062   -0.6317    1.7174 H   0  0  0  0  0  0  0  0  0  0  0  0
   -6.9950   -6.0861    0.3928 H   0  0  0  0  0  0  0  0  0  0  0  0
   -4.8476   -7.3223    0.4307 H   0  0  0  0  0  0  0  0  0  0  0  0
    7.5054   -1.1523   -2.1926 H   0  0  0  0  0  0  0  0  0  0  0  0
    6.2202   -2.3019    1.7703 H   0  0  0  0  0  0  0  0  0  0  0  0
    8.8320   -4.5595   -1.2106 H   0  0  0  0  0  0  0  0  0  0  0  0
    7.6693   -3.6337   -2.1603 H   0  0  0  0  0  0  0  0  0  0  0  0
    9.3153   -2.9751   -1.8796 H   0  0  0  0  0  0  0  0  0  0  0  0
  1 16  1  0  0  0  0
  1 21  1  0  0  0  0
  2 21  2  0  0  0  0
  3 37  2  0  0  0  0
  4 10  1  0  0  0  0
  4 13  1  0  0  0  0
  4 14  1  0  0  0  0
  5  6  1  0  0  0  0
  5 15  1  0  0  0  0
  5 19  1  0  0  0  0
  6 18  2  0  0  0  0
  7 21  1  0  0  0  0
  7 27  1  0  0  0  0
  7 58  1  0  0  0  0
  8  9  1  0  0  0  0
  8 11  1  0  0  0  0
  8 12  1  0  0  0  0
  8 39  1  0  0  0  0
  9 13  1  0  0  0  0
  9 15  1  0  0  0  0
  9 40  1  0  0  0  0
 10 11  1  0  0  0  0
 10 16  1  0  0  0  0
 10 41  1  0  0  0  0
 11 42  1  0  0  0  0
 11 43  1  0  0  0  0
 12 14  1  0  0  0  0
 12 44  1  0  0  0  0
 12 45  1  0  0  0  0
 13 46  1  0  0  0  0
 13 47  1  0  0  0  0
 14 48  1  0  0  0  0
 14 49  1  0  0  0  0
 15 17  2  0  0  0  0
 16 50  1  0  0  0  0
 16 51  1  0  0  0  0
 17 18  1  0  0  0  0
 17 52  1  0  0  0  0
 18 20  1  0  0  0  0
 19 53  1  0  0  0  0
 19 54  1  0  0  0  0
 19 55  1  0  0  0  0
 20 22  2  0  0  0  0
 20 23  1  0  0  0  0
 22 24  1  0  0  0  0
 22 56  1  0  0  0  0
 23 25  2  0  0  0  0
 23 57  1  0  0  0  0
 24 26  1  0  0  0  0
 24 28  2  0  0  0  0
 25 26  1  0  0  0  0
 25 59  1  0  0  0  0
 26 29  2  0  0  0  0
 27 30  2  0  0  0  0
 27 31  1  0  0  0  0
 28 32  1  0  0  0  0
 28 60  1  0  0  0  0
 29 33  1  0  0  0  0
 29 61  1  0  0  0  0
 30 34  1  0  0  0  0
 30 62  1  0  0  0  0
 31 35  2  0  0  0  0
 31 63  1  0  0  0  0
 32 33  2  0  0  0  0
 32 64  1  0  0  0  0
 33 65  1  0  0  0  0
 34 36  2  0  0  0  0
 34 66  1  0  0  0  0
 35 36  1  0  0  0  0
 35 67  1  0  0  0  0
 36 37  1  0  0  0  0
 37 38  1  0  0  0  0
 38 68  1  0  0  0  0
 38 69  1  0  0  0  0
 38 70  1  0  0  0  0
M  END
> <PUBCHEM_COMPOUND_CID>
44716363

> <PUBCHEM_CONFORMER_RMSD>
1

> <PUBCHEM_CONFORMER_DIVERSEORDER>
2
31
20
47
73
71
83
90
13
43
82
7
85
4
68
41
80
9
56
86
42
30
28
34
81
17
33
48
44
38
66
11
21
22
25
87
18
5
1
50
59
60
36
55
10
29
3
77
70
63
27
79
45
64
84
14
61
49
67
15
35
62
58
32
52
72
8
46
65
24
39
53
89
26
88
69
37
6
40
78
19
74
57
76
16
75
23
51
54
12

> <PUBCHEM_MMFF94_PARTIAL_CHARGES>
46
1 -0.43
10 0.27
13 0.27
14 0.27
15 -0.33
16 0.28
17 -0.15
18 0.23
19 0.26
2 -0.57
20 0.05
21 0.78
22 -0.15
23 -0.15
25 -0.15
27 0.12
28 -0.15
29 -0.15
3 -0.57
30 -0.15
31 -0.15
32 -0.15
33 -0.15
34 -0.15
35 -0.15
36 0.09
37 0.42
38 0.06
4 -0.81
5 0.31
52 0.15
56 0.15
57 0.15
58 0.37
59 0.15
6 -0.71
60 0.15
61 0.15
62 0.15
63 0.15
64 0.15
65 0.15
66 0.15
67 0.15
7 -0.55
9 0.18

> <PUBCHEM_EFFECTIVE_ROTOR_COUNT>
9.2

> <PUBCHEM_PHARMACOPHORE_FEATURES>
10
1 2 acceptor
1 3 acceptor
1 4 cation
1 6 acceptor
1 7 donor
5 5 6 15 17 18 rings
6 20 22 23 24 25 26 rings
6 24 26 28 29 32 33 rings
6 27 30 31 34 35 36 rings
8 4 8 9 10 11 12 13 14 rings

> <PUBCHEM_HEAVY_ATOM_COUNT>
38

> <PUBCHEM_ATOM_DEF_STEREO_COUNT>
3

> <PUBCHEM_ATOM_UDEF_STEREO_COUNT>
0

> <PUBCHEM_BOND_DEF_STEREO_COUNT>
0

> <PUBCHEM_BOND_UDEF_STEREO_COUNT>
0

> <PUBCHEM_ISOTOPIC_ATOM_COUNT>
0

> <PUBCHEM_COMPONENT_COUNT>
1

> <PUBCHEM_CACTVS_TAUTO_COUNT>
9

> <PUBCHEM_CONFORMER_ID>
02AA514B00000002

> <PUBCHEM_MMFF94_ENERGY>
109.6931

> <PUBCHEM_FEATURE_SELFOVERLAP>
50.775

> <PUBCHEM_SHAPE_FINGERPRINT>
10319688 140 17689437504638840617
10677394 353 18410584968512008067
117089 54 18339082708569874094
11756154 67 18410295830675064223
11801155 225 17830735353483997698
12202916 173 18059001779722932077
12633046 712 18264760124762965165
13294257 79 18412267263498173927
1361 4 18411140247553345028
13785724 45 18122065566482646019
14400156 147 18269286827489132580
14856354 85 18269557144161440052
15264996 154 17830180464803129190
15320295 44 18261123984682333660
15400415 2 17618220603669103936
15448158 6 18194401328013978637
15467298 65 16830933418260899591
15530120 55 17749687280344823676
15538507 19 18338514133073912648
15803439 3 17391325448121522533
15890870 6 18120367667126952493
17492 89 18194117645445215621
19301676 85 18340753923700096607
19311894 1 18410293614118583555
20609170 114 18338780236610409920
21360442 43 18195251001773837348
21779490 112 17978524035523731750
229767 8 18338802341467996018
23569914 152 18054757794411526295
2835820 82 17834395997175985011
32027 91 18195240251623624477
3383291 50 18339359644119633009
3886686 26 18341335574284424953
3991529 202 18048898565656548387
4017518 198 17830452782651952925
404807 14 18266464394246761771
4435113 14 17558845987883550334
44426699 300 18338813285339864914
4756088 132 18123460846259421830
49967989 163 18268721502813649734
6057620 51 18117850017712260292
6201320 77 15766725666222959996
6201460 15 18335148634849025678
6441014 3 18411138073430176090
70251023 43 17904201774024413689
9831232 110 17760646267516126111
9980921 52 17413573297590504311

> <PUBCHEM_SHAPE_MULTIPOLES>
744.49
20.99
11.5
1.19
47.96
0.02
-0.01
-39.01
-3.57
-17.05
0.9
1.14
0.72
2.53

> <PUBCHEM_SHAPE_SELFOVERLAP>
1638.955

> <PUBCHEM_SHAPE_VOLUME>
398.5

> <PUBCHEM_COORDINATE_TYPE>
2
5
10

$$$$
