75367104
  -OEChem-12032416393D

 51 52  0     1  0  0  0  0  0999 V2000
    0.3953   -0.9993   -0.0782 O   0  0  0  0  0  0  0  0  0  0  0  0
    1.5785    2.3927   -0.0926 O   0  0  0  0  0  0  0  0  0  0  0  0
   -6.8933   -1.0932    0.3274 O   0  0  0  0  0  0  0  0  0  0  0  0
   -2.9415    1.8842    0.3594 O   0  0  0  0  0  0  0  0  0  0  0  0
    3.8253    0.2005   -0.2398 N   0  0  0  0  0  0  0  0  0  0  0  0
   -2.1745    0.0766   -0.8275 N   0  0  0  0  0  0  0  0  0  0  0  0
   -4.2892    0.0009    0.2262 N   0  0  0  0  0  0  0  0  0  0  0  0
    2.4552    0.1389    0.2424 C   0  0  1  0  0  0  0  0  0  0  0  0
    1.5018    1.0449   -0.5147 C   0  0  1  0  0  0  0  0  0  0  0  0
    0.1599    0.4159   -0.1653 C   0  0  1  0  0  0  0  0  0  0  0  0
    1.8125   -1.2214    0.0266 C   0  0  0  0  0  0  0  0  0  0  0  0
    6.2195   -0.4437    0.2346 C   0  0  0  0  0  0  0  0  0  0  0  0
    4.7450   -0.4108    0.7121 C   0  0  0  0  0  0  0  0  0  0  0  0
   -0.9201    0.6942   -1.1955 C   0  0  0  0  0  0  0  0  0  0  0  0
    6.7063    1.0084    0.0684 C   0  0  0  0  0  0  0  0  0  0  0  0
    7.1149   -1.1471    1.2697 C   0  0  0  0  0  0  0  0  0  0  0  0
    6.3513   -1.1615   -1.1203 C   0  0  0  0  0  0  0  0  0  0  0  0
   -3.1237    0.7342   -0.0539 C   0  0  0  0  0  0  0  0  0  0  0  0
   -5.3402    0.6144    1.0415 C   0  0  0  0  0  0  0  0  0  0  0  0
   -4.5207   -1.4148   -0.0947 C   0  0  0  0  0  0  0  0  0  0  0  0
   -6.7173    0.3176    0.4691 C   0  0  0  0  0  0  0  0  0  0  0  0
   -5.9450   -1.6316   -0.5947 C   0  0  0  0  0  0  0  0  0  0  0  0
    2.4143    0.4156    1.3055 H   0  0  0  0  0  0  0  0  0  0  0  0
    1.6899    1.0014   -1.5947 H   0  0  0  0  0  0  0  0  0  0  0  0
   -0.1809    0.7516    0.8230 H   0  0  0  0  0  0  0  0  0  0  0  0
    2.1356   -1.6912   -0.9096 H   0  0  0  0  0  0  0  0  0  0  0  0
    2.0094   -1.9175    0.8475 H   0  0  0  0  0  0  0  0  0  0  0  0
    4.0835    1.1764   -0.3794 H   0  0  0  0  0  0  0  0  0  0  0  0
    4.6932    0.1201    1.6722 H   0  0  0  0  0  0  0  0  0  0  0  0
    4.4350   -1.4456    0.9066 H   0  0  0  0  0  0  0  0  0  0  0  0
   -0.6449    0.2653   -2.1655 H   0  0  0  0  0  0  0  0  0  0  0  0
   -1.0674    1.7718   -1.3237 H   0  0  0  0  0  0  0  0  0  0  0  0
    1.4124    2.4232    0.8648 H   0  0  0  0  0  0  0  0  0  0  0  0
    6.1863    1.5326   -0.7403 H   0  0  0  0  0  0  0  0  0  0  0  0
    7.7753    1.0347   -0.1741 H   0  0  0  0  0  0  0  0  0  0  0  0
    6.5660    1.5831    0.9909 H   0  0  0  0  0  0  0  0  0  0  0  0
    7.0635   -0.6439    2.2417 H   0  0  0  0  0  0  0  0  0  0  0  0
    6.8023   -2.1870    1.4153 H   0  0  0  0  0  0  0  0  0  0  0  0
    8.1635   -1.1546    0.9519 H   0  0  0  0  0  0  0  0  0  0  0  0
    5.7935   -0.6497   -1.9119 H   0  0  0  0  0  0  0  0  0  0  0  0
    7.3987   -1.2101   -1.4397 H   0  0  0  0  0  0  0  0  0  0  0  0
    5.9755   -2.1888   -1.0559 H   0  0  0  0  0  0  0  0  0  0  0  0
   -2.3140   -0.8697   -1.1507 H   0  0  0  0  0  0  0  0  0  0  0  0
   -5.1924    1.6949    1.1300 H   0  0  0  0  0  0  0  0  0  0  0  0
   -5.2463    0.1774    2.0428 H   0  0  0  0  0  0  0  0  0  0  0  0
   -4.3683   -1.9638    0.8423 H   0  0  0  0  0  0  0  0  0  0  0  0
   -3.8250   -1.8146   -0.8300 H   0  0  0  0  0  0  0  0  0  0  0  0
   -7.4937    0.6875    1.1458 H   0  0  0  0  0  0  0  0  0  0  0  0
   -6.8608    0.8022   -0.5040 H   0  0  0  0  0  0  0  0  0  0  0  0
   -6.0942   -1.1690   -1.5778 H   0  0  0  0  0  0  0  0  0  0  0  0
   -6.1465   -2.7026   -0.6971 H   0  0  0  0  0  0  0  0  0  0  0  0
  1 10  1  0  0  0  0
  1 11  1  0  0  0  0
  2  9  1  0  0  0  0
  2 33  1  0  0  0  0
  3 21  1  0  0  0  0
  3 22  1  0  0  0  0
  4 18  2  0  0  0  0
  5  8  1  0  0  0  0
  5 13  1  0  0  0  0
  5 28  1  0  0  0  0
  6 14  1  0  0  0  0
  6 18  1  0  0  0  0
  6 43  1  0  0  0  0
  7 18  1  0  0  0  0
  7 19  1  0  0  0  0
  7 20  1  0  0  0  0
  8  9  1  0  0  0  0
  8 11  1  0  0  0  0
  8 23  1  0  0  0  0
  9 10  1  0  0  0  0
  9 24  1  0  0  0  0
 10 14  1  0  0  0  0
 10 25  1  0  0  0  0
 11 26  1  0  0  0  0
 11 27  1  0  0  0  0
 12 13  1  0  0  0  0
 12 15  1  0  0  0  0
 12 16  1  0  0  0  0
 12 17  1  0  0  0  0
 13 29  1  0  0  0  0
 13 30  1  0  0  0  0
 14 31  1  0  0  0  0
 14 32  1  0  0  0  0
 15 34  1  0  0  0  0
 15 35  1  0  0  0  0
 15 36  1  0  0  0  0
 16 37  1  0  0  0  0
 16 38  1  0  0  0  0
 16 39  1  0  0  0  0
 17 40  1  0  0  0  0
 17 41  1  0  0  0  0
 17 42  1  0  0  0  0
 19 21  1  0  0  0  0
 19 44  1  0  0  0  0
 19 45  1  0  0  0  0
 20 22  1  0  0  0  0
 20 46  1  0  0  0  0
 20 47  1  0  0  0  0
 21 48  1  0  0  0  0
 21 49  1  0  0  0  0
 22 50  1  0  0  0  0
 22 51  1  0  0  0  0
M  END
> <PUBCHEM_COMPOUND_CID>
75367104

> <PUBCHEM_CONFORMER_RMSD>
1

> <PUBCHEM_CONFORMER_DIVERSEORDER>
1
55
66
74
54
14
59
21
79
93
3
85
64
38
16
83
42
46
87
62
57
96
84
11
33
50
43
32
81
70
69
13
41
28
86
47
77
82
91
19
30
89
18
67
51
22
15
63
20
49
78
23
76
39
60
53
31
65
88
56
25
45
9
68
34
27
40
35
7
73
37
95
10
36
24
72
75
61
17
4
44
6
8
29
48
52
5
12
92
90
2
58
80
26
94
71

> <PUBCHEM_MMFF94_PARTIAL_CHARGES>
21
1 -0.56
10 0.28
11 0.28
13 0.27
14 0.3
18 0.69
19 0.3
2 -0.68
20 0.3
21 0.28
22 0.28
28 0.36
3 -0.56
33 0.4
4 -0.57
43 0.37
5 -0.9
6 -0.73
7 -0.66
8 0.27
9 0.28

> <PUBCHEM_EFFECTIVE_ROTOR_COUNT>
9.2

> <PUBCHEM_PHARMACOPHORE_FEATURES>
11
1 1 acceptor
1 2 acceptor
1 2 donor
1 3 acceptor
1 4 acceptor
1 5 cation
1 5 donor
1 6 donor
4 12 15 16 17 hydrophobe
5 1 8 9 10 11 rings
6 3 7 19 20 21 22 rings

> <PUBCHEM_HEAVY_ATOM_COUNT>
22

> <PUBCHEM_ATOM_DEF_STEREO_COUNT>
3

> <PUBCHEM_ATOM_UDEF_STEREO_COUNT>
0

> <PUBCHEM_BOND_DEF_STEREO_COUNT>
0

> <PUBCHEM_BOND_UDEF_STEREO_COUNT>
0

> <PUBCHEM_ISOTOPIC_ATOM_COUNT>
0

> <PUBCHEM_COMPONENT_COUNT>
1

> <PUBCHEM_CACTVS_TAUTO_COUNT>
2

> <PUBCHEM_CONFORMER_ID>
047E02C000000001

> <PUBCHEM_MMFF94_ENERGY>
43.53

> <PUBCHEM_FEATURE_SELFOVERLAP>
55.821

> <PUBCHEM_SHAPE_FINGERPRINT>
10 15 16415478263773733810
10299344 5 18407761434988024250
106641 1 18411414047133457992
10968037 39 11674879996437784179
11315181 36 18343303687175805433
11524674 6 16989125370460025431
12091667 2 17676205758798698053
12166972 35 18412828010091272128
12236239 1 18131353011789189024
12516196 113 18413388731167156368
12596602 18 17846499231530344098
13668630 136 15646775587097681571
13685833 64 18335138691873056240
13862211 1 18260545611236879714
14123256 10 17167861963353856034
1420 363 17967253091945591066
14251752 14 12035443947808213081
14251764 18 18411699911323950220
14251764 46 17918273142930755042
14849402 71 18198905992799299624
14933364 13 17989488524268435904
14955137 171 18131634491272058352
15048467 5 12319734774066687282
15461852 350 16702294655947469989
15716309 27 18334011692022127682
18222031 100 17458620142249360868
18335252 98 18412265030837424654
20028762 73 18341611542327351350
20281389 69 14692569910037718658
21150785 3 13551193294412205698
21267235 1 18410298012048991276
21315759 40 18113901529411414826
21521721 280 18113340847158566808
22224240 67 18411133645292201970
23035841 295 18333169466247269547
23081809 10 16950566528745308404
23402539 116 16371005165913979500
23522609 53 18044404710344484284
23559900 14 18041842955910200097
23622692 88 18060697303582214453
246663 6 18259989254053184402
3009799 131 12035450536420089462
34797466 226 17060063683636853372
4325135 7 17967253087761699158
4340502 62 16128657440660598206
5104073 3 18199758101725740729
59682541 35 18342455984289003602
5969126 39 16950275192075203045
9996256 80 18342455950129646830

> <PUBCHEM_SHAPE_MULTIPOLES>
414.33
21.4
1.64
0.97
2.54
0.26
-0.01
-6.85
4.13
-0.41
-0.07
0.47
-0.09
-0.68

> <PUBCHEM_SHAPE_SELFOVERLAP>
826.554

> <PUBCHEM_SHAPE_VOLUME>
245.4

> <PUBCHEM_COORDINATE_TYPE>
2
5
10

$$$$
