45361457
  -OEChem-12032416143D

 74 76  0     1  0  0  0  0  0999 V2000
   -1.5123   -1.6722   -1.1085 O   0  0  0  0  0  0  0  0  0  0  0  0
   -6.1044    0.8953   -0.5432 O   0  0  0  0  0  0  0  0  0  0  0  0
    4.6323    0.0145    1.5352 O   0  0  0  0  0  0  0  0  0  0  0  0
    3.4280    0.4373   -0.4112 N   0  0  0  0  0  0  0  0  0  0  0  0
   -5.8600   -1.2480    0.3092 N   0  0  0  0  0  0  0  0  0  0  0  0
   -0.6097    1.7871    0.2309 C   0  0  1  0  0  0  0  0  0  0  0  0
   -0.4159    0.2799   -0.1428 C   0  0  2  0  0  0  0  0  0  0  0  0
    1.0013    0.0386   -0.7760 C   0  0  1  0  0  0  0  0  0  0  0  0
   -1.6186   -0.2543   -0.9729 C   0  0  2  0  0  0  0  0  0  0  0  0
   -1.9656    1.9695    0.9530 C   0  0  0  0  0  0  0  0  0  0  0  0
    0.5070    2.2108    1.2128 C   0  0  0  0  0  0  0  0  0  0  0  0
   -2.9800    0.0240   -0.2942 C   0  0  1  0  0  0  0  0  0  0  0  0
    2.1140    0.5374    0.1885 C   0  0  2  0  0  0  0  0  0  0  0  0
   -3.1491    1.4837    0.1267 C   0  0  0  0  0  0  0  0  0  0  0  0
    1.9067    1.9754    0.6634 C   0  0  0  0  0  0  0  0  0  0  0  0
   -0.5776    2.7155   -1.0096 C   0  0  0  0  0  0  0  0  0  0  0  0
   -4.1561   -0.3915   -1.1864 C   0  0  2  0  0  0  0  0  0  0  0  0
    1.2705   -1.4309   -1.1417 C   0  0  0  0  0  0  0  0  0  0  0  0
   -4.1094    0.3718   -2.5055 C   0  0  0  0  0  0  0  0  0  0  0  0
   -5.4732   -0.1557   -0.4537 C   0  0  0  0  0  0  0  0  0  0  0  0
    4.5739    0.1837    0.3201 C   0  0  0  0  0  0  0  0  0  0  0  0
    5.7949    0.1063   -0.5499 C   0  0  0  0  0  0  0  0  0  0  0  0
    7.0365    0.5920    0.2008 C   0  0  0  0  0  0  0  0  0  0  0  0
    5.9561   -1.3098   -1.1067 C   0  0  0  0  0  0  0  0  0  0  0  0
    7.5741   -0.4239    1.2082 C   0  0  0  0  0  0  0  0  0  0  0  0
    6.4900   -2.3015   -0.0744 C   0  0  0  0  0  0  0  0  0  0  0  0
    7.7718   -1.7980    0.5792 C   0  0  0  0  0  0  0  0  0  0  0  0
   -7.0720   -1.2624    1.0950 C   0  0  0  0  0  0  0  0  0  0  0  0
   -6.8075   -0.7024    2.4866 C   0  0  0  0  0  0  0  0  0  0  0  0
   -7.6457   -2.6721    1.1670 C   0  0  0  0  0  0  0  0  0  0  0  0
   -0.4174   -0.2951    0.7973 H   0  0  0  0  0  0  0  0  0  0  0  0
    1.0715    0.6042   -1.7137 H   0  0  0  0  0  0  0  0  0  0  0  0
   -1.5517    0.1744   -1.9746 H   0  0  0  0  0  0  0  0  0  0  0  0
   -1.9543    1.4188    1.9035 H   0  0  0  0  0  0  0  0  0  0  0  0
   -2.1187    3.0247    1.2137 H   0  0  0  0  0  0  0  0  0  0  0  0
    0.3997    3.2708    1.4762 H   0  0  0  0  0  0  0  0  0  0  0  0
    0.4050    1.6499    2.1516 H   0  0  0  0  0  0  0  0  0  0  0  0
   -3.0299   -0.5874    0.6193 H   0  0  0  0  0  0  0  0  0  0  0  0
    2.1073   -0.1100    1.0765 H   0  0  0  0  0  0  0  0  0  0  0  0
   -4.0396    1.6038    0.7542 H   0  0  0  0  0  0  0  0  0  0  0  0
   -3.2778    2.1614   -0.7194 H   0  0  0  0  0  0  0  0  0  0  0  0
    2.6384    2.2170    1.4453 H   0  0  0  0  0  0  0  0  0  0  0  0
    2.1137    2.6771   -0.1539 H   0  0  0  0  0  0  0  0  0  0  0  0
    0.3840    2.6973   -1.5288 H   0  0  0  0  0  0  0  0  0  0  0  0
   -0.7617    3.7559   -0.7166 H   0  0  0  0  0  0  0  0  0  0  0  0
   -1.3351    2.4488   -1.7518 H   0  0  0  0  0  0  0  0  0  0  0  0
   -4.0864   -1.4617   -1.4207 H   0  0  0  0  0  0  0  0  0  0  0  0
    1.0601   -2.0955   -0.2975 H   0  0  0  0  0  0  0  0  0  0  0  0
    2.3108   -1.5945   -1.4404 H   0  0  0  0  0  0  0  0  0  0  0  0
    0.6692   -1.7404   -2.0010 H   0  0  0  0  0  0  0  0  0  0  0  0
    3.5036    0.6128   -1.4090 H   0  0  0  0  0  0  0  0  0  0  0  0
   -1.5187   -2.0622   -0.2178 H   0  0  0  0  0  0  0  0  0  0  0  0
   -3.2501    0.1006   -3.1234 H   0  0  0  0  0  0  0  0  0  0  0  0
   -4.1443    1.4583   -2.4032 H   0  0  0  0  0  0  0  0  0  0  0  0
   -4.9944    0.1083   -3.0996 H   0  0  0  0  0  0  0  0  0  0  0  0
    5.6451    0.7909   -1.3961 H   0  0  0  0  0  0  0  0  0  0  0  0
   -5.2381   -2.0486    0.3772 H   0  0  0  0  0  0  0  0  0  0  0  0
    7.8267    0.8007   -0.5324 H   0  0  0  0  0  0  0  0  0  0  0  0
    6.8314    1.5388    0.7153 H   0  0  0  0  0  0  0  0  0  0  0  0
    5.0061   -1.6838   -1.5066 H   0  0  0  0  0  0  0  0  0  0  0  0
    6.6576   -1.2758   -1.9504 H   0  0  0  0  0  0  0  0  0  0  0  0
    6.9115   -0.5083    2.0753 H   0  0  0  0  0  0  0  0  0  0  0  0
    8.5348   -0.0657    1.5975 H   0  0  0  0  0  0  0  0  0  0  0  0
    6.6808   -3.2655   -0.5598 H   0  0  0  0  0  0  0  0  0  0  0  0
    5.7303   -2.4815    0.6956 H   0  0  0  0  0  0  0  0  0  0  0  0
    8.5696   -1.7459   -0.1718 H   0  0  0  0  0  0  0  0  0  0  0  0
    8.1005   -2.5101    1.3445 H   0  0  0  0  0  0  0  0  0  0  0  0
   -7.8071   -0.6166    0.5996 H   0  0  0  0  0  0  0  0  0  0  0  0
   -7.7248   -0.6888    3.0842 H   0  0  0  0  0  0  0  0  0  0  0  0
   -6.4260    0.3230    2.4307 H   0  0  0  0  0  0  0  0  0  0  0  0
   -6.0609   -1.3016    3.0199 H   0  0  0  0  0  0  0  0  0  0  0  0
   -8.5835   -2.6851    1.7320 H   0  0  0  0  0  0  0  0  0  0  0  0
   -7.8493   -3.0594    0.1626 H   0  0  0  0  0  0  0  0  0  0  0  0
   -6.9459   -3.3627    1.6507 H   0  0  0  0  0  0  0  0  0  0  0  0
  1  9  1  0  0  0  0
  1 52  1  0  0  0  0
  2 20  2  0  0  0  0
  3 21  2  0  0  0  0
  4 13  1  0  0  0  0
  4 21  1  0  0  0  0
  4 51  1  0  0  0  0
  5 20  1  0  0  0  0
  5 28  1  0  0  0  0
  5 57  1  0  0  0  0
  6  7  1  0  0  0  0
  6 10  1  0  0  0  0
  6 11  1  0  0  0  0
  6 16  1  0  0  0  0
  7  8  1  0  0  0  0
  7  9  1  0  0  0  0
  7 31  1  0  0  0  0
  8 13  1  0  0  0  0
  8 18  1  0  0  0  0
  8 32  1  0  0  0  0
  9 12  1  0  0  0  0
  9 33  1  0  0  0  0
 10 14  1  0  0  0  0
 10 34  1  0  0  0  0
 10 35  1  0  0  0  0
 11 15  1  0  0  0  0
 11 36  1  0  0  0  0
 11 37  1  0  0  0  0
 12 14  1  0  0  0  0
 12 17  1  0  0  0  0
 12 38  1  0  0  0  0
 13 15  1  0  0  0  0
 13 39  1  0  0  0  0
 14 40  1  0  0  0  0
 14 41  1  0  0  0  0
 15 42  1  0  0  0  0
 15 43  1  0  0  0  0
 16 44  1  0  0  0  0
 16 45  1  0  0  0  0
 16 46  1  0  0  0  0
 17 19  1  0  0  0  0
 17 20  1  0  0  0  0
 17 47  1  0  0  0  0
 18 48  1  0  0  0  0
 18 49  1  0  0  0  0
 18 50  1  0  0  0  0
 19 53  1  0  0  0  0
 19 54  1  0  0  0  0
 19 55  1  0  0  0  0
 21 22  1  0  0  0  0
 22 23  1  0  0  0  0
 22 24  1  0  0  0  0
 22 56  1  0  0  0  0
 23 25  1  0  0  0  0
 23 58  1  0  0  0  0
 23 59  1  0  0  0  0
 24 26  1  0  0  0  0
 24 60  1  0  0  0  0
 24 61  1  0  0  0  0
 25 27  1  0  0  0  0
 25 62  1  0  0  0  0
 25 63  1  0  0  0  0
 26 27  1  0  0  0  0
 26 64  1  0  0  0  0
 26 65  1  0  0  0  0
 27 66  1  0  0  0  0
 27 67  1  0  0  0  0
 28 29  1  0  0  0  0
 28 30  1  0  0  0  0
 28 68  1  0  0  0  0
 29 69  1  0  0  0  0
 29 70  1  0  0  0  0
 29 71  1  0  0  0  0
 30 72  1  0  0  0  0
 30 73  1  0  0  0  0
 30 74  1  0  0  0  0
M  END
> <PUBCHEM_COMPOUND_CID>
45361457

> <PUBCHEM_CONFORMER_RMSD>
1

> <PUBCHEM_CONFORMER_DIVERSEORDER>
1
105
53
128
112
83
50
95
75
23
138
31
150
32
136
126
93
135
151
58
111
73
43
130
122
106
41
86
61
38
98
11
145
104
18
49
67
8
74
40
129
65
121
90
91
87
76
10
33
94
36
114
127
125
147
132
120
62
140
63
57
107
52
45
60
21
144
85
84
137
34
123
71
13
16
68
54
102
119
24
15
56
79
88
5
146
66
139
59
96
69
29
27
70
143
64
14
131
77
142
2
25
72
46
149
92
6
19
89
101
113
47
17
37
4
115
82
81
103
80
20
116
109
124
78
97
134
148
110
141
22
51
118
26
3
44
99
48
39
100
35
55
133
7
117
12
28
108
42
30
9

> <PUBCHEM_MMFF94_PARTIAL_CHARGES>
15
1 -0.68
13 0.3
17 0.06
2 -0.57
20 0.57
21 0.57
22 0.06
28 0.3
3 -0.57
4 -0.73
5 -0.73
51 0.37
52 0.4
57 0.37
9 0.28

> <PUBCHEM_EFFECTIVE_ROTOR_COUNT>
9.8

> <PUBCHEM_PHARMACOPHORE_FEATURES>
11
1 1 acceptor
1 1 donor
1 19 hydrophobe
1 2 acceptor
1 3 acceptor
1 4 donor
1 5 donor
3 28 29 30 hydrophobe
6 22 23 24 25 26 27 rings
6 6 7 8 11 13 15 rings
6 6 7 9 10 12 14 rings

> <PUBCHEM_HEAVY_ATOM_COUNT>
30

> <PUBCHEM_ATOM_DEF_STEREO_COUNT>
6

> <PUBCHEM_ATOM_UDEF_STEREO_COUNT>
1

> <PUBCHEM_BOND_DEF_STEREO_COUNT>
0

> <PUBCHEM_BOND_UDEF_STEREO_COUNT>
0

> <PUBCHEM_ISOTOPIC_ATOM_COUNT>
0

> <PUBCHEM_COMPONENT_COUNT>
1

> <PUBCHEM_CACTVS_TAUTO_COUNT>
4

> <PUBCHEM_CONFORMER_ID>
02B4293100000001

> <PUBCHEM_MMFF94_ENERGY>
70.9407

> <PUBCHEM_FEATURE_SELFOVERLAP>
55.835

> <PUBCHEM_SHAPE_FINGERPRINT>
10554248 39 7853585590902017560
11007060 377 11746940875851485237
11181472 205 12103303602689412778
11456790 92 17203610385066376850
11578821 258 11239989079804279466
11646440 116 17847065497003163552
11963148 33 18334005095016723826
12035758 1 17775287178966182902
12166972 35 17822014232682122589
12236239 1 18334573513248651596
125118 31 12247678288331288786
13073987 5 17845930720464452232
13668630 136 17967813830085917450
13673619 4 17967534614599757605
13685833 64 18413108368449617352
13782708 43 18040992986208846427
13862211 1 18131622388011630948
14028597 1 16773525377568876490
14251764 18 17632293476219577088
14344974 204 18117848922216914963
14767858 380 13045940218101132143
14849402 71 17059489784973162048
15131766 46 12174461830924063074
15183329 4 17989484109210971374
16994733 274 12175619559920756630
18335252 98 18411421722503616776
18608769 82 18335138725906461771
19841028 212 17823409393607510354
2026 5 18040152903174777131
20982279 24 18189916244133871474
21150785 3 15213019366420510570
21236236 1 18060133198372572740
21267235 1 18342742918490919820
21781051 124 18335433390959820982
21792961 116 18261664888277681173
21859007 373 11023830526531667570
22149856 69 17632308830717098106
23198884 109 15647051538614801500
23522609 53 17487916694133703425
23559900 14 18128802196331588672
23576562 1 8862360008732110659
312425 54 15913323606908548390
3178227 256 18201443605083858891
335352 9 18131344228860884469
3383291 50 18410854377829013666
4169191 19 8862949389893081103
4339292 15 17895185662934319347
437795 83 10737550736127661695
44880568 143 16733262374630496780
465052 167 18411139151693210172
5104073 3 17845099462938991154
58083652 198 17560790057322336657
59755656 215 18130786720731091638
6009941 240 18334575695239899909
6328613 192 7925620129639831286
636775 8 18334866000400430350
6691757 9 15482671300079660295
999808 66 18407763646859323699

> <PUBCHEM_SHAPE_MULTIPOLES>
589.82
22.72
2.42
1.65
8.57
0.15
0.02
-16.89
7.98
-0.8
0.42
-2.2
-0.17
1.7

> <PUBCHEM_SHAPE_SELFOVERLAP>
1203.553

> <PUBCHEM_SHAPE_VOLUME>
337.3

> <PUBCHEM_COORDINATE_TYPE>
2
5
10

$$$$
