75536708
  -OEChem-12032416303D

 50 52  0     1  0  0  0  0  0999 V2000
    4.5806   -1.6844   -0.0299 S   0  0  0  0  0  0  0  0  0  0  0  0
   -8.6505    2.1665   -0.2247 F   0  0  0  0  0  0  0  0  0  0  0  0
    0.2291   -1.5612    1.3547 O   0  0  0  0  0  0  0  0  0  0  0  0
   -0.6135   -1.2984   -2.1276 O   0  0  0  0  0  0  0  0  0  0  0  0
    4.5965   -2.1502   -1.4035 O   0  0  0  0  0  0  0  0  0  0  0  0
    5.4165   -2.3252    0.9673 O   0  0  0  0  0  0  0  0  0  0  0  0
   -2.9004   -0.4641   -0.1400 N   0  0  0  0  0  0  0  0  0  0  0  0
    2.9760   -1.6474    0.5341 N   0  0  0  0  0  0  0  0  0  0  0  0
   -1.7343   -1.3134    0.0412 C   0  0  1  0  0  0  0  0  0  0  0  0
   -0.5327   -0.8811   -0.7786 C   0  0  1  0  0  0  0  0  0  0  0  0
    0.5968   -1.5806   -0.0346 C   0  0  1  0  0  0  0  0  0  0  0  0
   -1.1728   -1.2541    1.4523 C   0  0  0  0  0  0  0  0  0  0  0  0
    1.9447   -0.9063   -0.2183 C   0  0  0  0  0  0  0  0  0  0  0  0
   -4.1008   -1.1003    0.3893 C   0  0  0  0  0  0  0  0  0  0  0  0
   -5.3166   -0.2275    0.2251 C   0  0  0  0  0  0  0  0  0  0  0  0
    5.0031    0.0321   -0.0317 C   0  0  0  0  0  0  0  0  0  0  0  0
   -6.0920   -0.3214   -0.9306 C   0  0  0  0  0  0  0  0  0  0  0  0
   -5.6674    0.6752    1.2290 C   0  0  0  0  0  0  0  0  0  0  0  0
    5.5669    0.6123    1.1046 C   0  0  0  0  0  0  0  0  0  0  0  0
    4.7700    0.8067   -1.1680 C   0  0  0  0  0  0  0  0  0  0  0  0
   -7.2184    0.4872   -1.0823 C   0  0  0  0  0  0  0  0  0  0  0  0
   -6.7937    1.4838    1.0774 C   0  0  0  0  0  0  0  0  0  0  0  0
    5.8978    1.9672    1.1045 C   0  0  0  0  0  0  0  0  0  0  0  0
    5.1008    2.1618   -1.1680 C   0  0  0  0  0  0  0  0  0  0  0  0
    5.6649    2.7421   -0.0318 C   0  0  0  0  0  0  0  0  0  0  0  0
   -7.5693    1.3898   -0.0782 C   0  0  0  0  0  0  0  0  0  0  0  0
    6.0187    4.1909   -0.0318 C   0  0  0  0  0  0  0  0  0  0  0  0
   -1.9750   -2.3511   -0.2300 H   0  0  0  0  0  0  0  0  0  0  0  0
   -0.4084    0.2087   -0.7525 H   0  0  0  0  0  0  0  0  0  0  0  0
    0.6721   -2.6330   -0.3387 H   0  0  0  0  0  0  0  0  0  0  0  0
   -1.2538   -0.2530    1.8914 H   0  0  0  0  0  0  0  0  0  0  0  0
   -1.6533   -1.9672    2.1289 H   0  0  0  0  0  0  0  0  0  0  0  0
    1.9150    0.1155    0.1763 H   0  0  0  0  0  0  0  0  0  0  0  0
    2.1946   -0.8724   -1.2830 H   0  0  0  0  0  0  0  0  0  0  0  0
   -3.0316   -0.2875   -1.1364 H   0  0  0  0  0  0  0  0  0  0  0  0
   -3.9802   -1.3312    1.4553 H   0  0  0  0  0  0  0  0  0  0  0  0
   -4.2834   -2.0600   -0.1123 H   0  0  0  0  0  0  0  0  0  0  0  0
    2.8102   -1.7415    1.5439 H   0  0  0  0  0  0  0  0  0  0  0  0
   -0.7245   -2.2641   -2.1428 H   0  0  0  0  0  0  0  0  0  0  0  0
   -5.8281   -1.0194   -1.7207 H   0  0  0  0  0  0  0  0  0  0  0  0
   -5.0705    0.7592    2.1333 H   0  0  0  0  0  0  0  0  0  0  0  0
    5.7502    0.0296    2.0029 H   0  0  0  0  0  0  0  0  0  0  0  0
    4.3297    0.3762   -2.0628 H   0  0  0  0  0  0  0  0  0  0  0  0
   -7.8222    0.4148   -1.9820 H   0  0  0  0  0  0  0  0  0  0  0  0
   -7.0670    2.1871    1.8585 H   0  0  0  0  0  0  0  0  0  0  0  0
    6.3367    2.4080    1.9957 H   0  0  0  0  0  0  0  0  0  0  0  0
    4.9154    2.7548   -2.0597 H   0  0  0  0  0  0  0  0  0  0  0  0
    7.0472    4.3264   -0.3807 H   0  0  0  0  0  0  0  0  0  0  0  0
    5.3487    4.7613   -0.6841 H   0  0  0  0  0  0  0  0  0  0  0  0
    5.9292    4.6195    0.9722 H   0  0  0  0  0  0  0  0  0  0  0  0
  1  5  2  0  0  0  0
  1  6  2  0  0  0  0
  1  8  1  0  0  0  0
  1 16  1  0  0  0  0
  2 26  1  0  0  0  0
  3 11  1  0  0  0  0
  3 12  1  0  0  0  0
  4 10  1  0  0  0  0
  4 39  1  0  0  0  0
  7  9  1  0  0  0  0
  7 14  1  0  0  0  0
  7 35  1  0  0  0  0
  8 13  1  0  0  0  0
  8 38  1  0  0  0  0
  9 10  1  0  0  0  0
  9 12  1  0  0  0  0
  9 28  1  0  0  0  0
 10 11  1  0  0  0  0
 10 29  1  0  0  0  0
 11 13  1  0  0  0  0
 11 30  1  0  0  0  0
 12 31  1  0  0  0  0
 12 32  1  0  0  0  0
 13 33  1  0  0  0  0
 13 34  1  0  0  0  0
 14 15  1  0  0  0  0
 14 36  1  0  0  0  0
 14 37  1  0  0  0  0
 15 17  2  0  0  0  0
 15 18  1  0  0  0  0
 16 19  2  0  0  0  0
 16 20  1  0  0  0  0
 17 21  1  0  0  0  0
 17 40  1  0  0  0  0
 18 22  2  0  0  0  0
 18 41  1  0  0  0  0
 19 23  1  0  0  0  0
 19 42  1  0  0  0  0
 20 24  2  0  0  0  0
 20 43  1  0  0  0  0
 21 26  2  0  0  0  0
 21 44  1  0  0  0  0
 22 26  1  0  0  0  0
 22 45  1  0  0  0  0
 23 25  2  0  0  0  0
 23 46  1  0  0  0  0
 24 25  1  0  0  0  0
 24 47  1  0  0  0  0
 25 27  1  0  0  0  0
 27 48  1  0  0  0  0
 27 49  1  0  0  0  0
 27 50  1  0  0  0  0
M  END
> <PUBCHEM_COMPOUND_CID>
75536708

> <PUBCHEM_CONFORMER_RMSD>
1.2

> <PUBCHEM_CONFORMER_DIVERSEORDER>
1
72
11
6
46
28
91
109
60
17
101
74
27
104
93
23
70
9
81
73
12
95
118
34
75
117
44
116
65
113
19
15
111
35
26
62
87
49
71
45
7
67
86
115
32
99
76
4
25
24
78
83
8
13
97
22
38
16
88
55
79
30
102
20
96
98
51
84
52
21
64
2
3
80
42
110
37
108
18
29
105
47
82
33
53
56
41
5
40
10
77
58
39
59
48
14
106
103
31
54
36
43
69
63
68
85
94
50
89
57
90
66
61
100
92
114
107
112

> <PUBCHEM_MMFF94_PARTIAL_CHARGES>
38
1 1.45
10 0.28
11 0.28
12 0.28
13 0.36
14 0.41
15 -0.14
16 -0.01
17 -0.15
18 -0.15
19 -0.15
2 -0.19
20 -0.15
21 -0.15
22 -0.15
23 -0.15
24 -0.15
25 -0.14
26 0.19
27 0.14
3 -0.56
35 0.36
38 0.42
39 0.4
4 -0.68
40 0.15
41 0.15
42 0.15
43 0.15
44 0.15
45 0.15
46 0.15
47 0.15
5 -0.65
6 -0.65
7 -0.9
8 -0.91
9 0.27

> <PUBCHEM_EFFECTIVE_ROTOR_COUNT>
8

> <PUBCHEM_PHARMACOPHORE_FEATURES>
11
1 3 acceptor
1 4 acceptor
1 4 donor
1 5 acceptor
1 6 acceptor
1 7 cation
1 7 donor
1 8 donor
5 3 9 10 11 12 rings
6 15 17 18 21 22 26 rings
6 16 19 20 23 24 25 rings

> <PUBCHEM_HEAVY_ATOM_COUNT>
27

> <PUBCHEM_ATOM_DEF_STEREO_COUNT>
3

> <PUBCHEM_ATOM_UDEF_STEREO_COUNT>
0

> <PUBCHEM_BOND_DEF_STEREO_COUNT>
0

> <PUBCHEM_BOND_UDEF_STEREO_COUNT>
0

> <PUBCHEM_ISOTOPIC_ATOM_COUNT>
0

> <PUBCHEM_COMPONENT_COUNT>
1

> <PUBCHEM_CACTVS_TAUTO_COUNT>
1

> <PUBCHEM_CONFORMER_ID>
0480994400000001

> <PUBCHEM_MMFF94_ENERGY>
48.0094

> <PUBCHEM_FEATURE_SELFOVERLAP>
55.84

> <PUBCHEM_SHAPE_FINGERPRINT>
10 15 16443350879496089503
10280341 67 17699280277698743784
10554248 39 17917426480338785687
10673678 19 18272092720727109150
10906281 52 17774738489037745163
11135609 127 18342450461414513696
11386260 185 18202011997647055140
11408170 132 14260802633613805259
11408170 253 17844535414339957249
11991303 11 16271637984154923557
125118 31 18408324363245257913
12539765 74 18131358467036400807
13533116 47 17967812687720186346
13668630 136 12031777064567837741
13782708 43 9223235130862493947
13878862 14 18409721864283587604
13944108 23 18337396041302485692
14251757 52 18411416207132878953
14347332 77 10231770967190596082
14347424 109 18334292050797828394
14565420 104 18113333115716664426
15131766 46 18126838520531262708
15183329 4 17418376891644295153
15475509 35 11241968217949911924
155225 6 18045788042523379836
15840311 113 18335704914686451133
16994733 274 18339635741443283185
17134984 74 11600004345434553404
20157964 124 18412546505165509642
20165401 70 8718828677972753233
20281389 69 18260266313866558455
20771845 171 17489592212483701791
21033648 29 17603591858573246883
21130935 74 18113338613544166427
21298829 104 18338236080474591204
21344244 181 11455889174100905685
21521239 73 12103844553413811565
21585482 111 18335704987575392316
21641784 216 16271939176793811499
21792934 111 16733253569994875447
22122407 14 18340217348576584440
2303208 19 10735882746479800067
23081809 10 17132120108921450491
24771293 8 17895474842359062596
249057 25 17631741456404472122
27425 322 18413388756753058910
2748736 6 18409727400032429265
2838139 119 18411135810182345085
328310 630 18202008720470853129
33532 11 9223228551236489905
3472631 163 18130791221904043516
3534868 343 17488475065904707010
3711267 37 18201164231496825745
397638 26 16732700545900714297
397830 11 18114474460610642531
4169191 19 18410575123772043493
44555599 121 18271811177168130681
465052 167 8142097455152237624
5104073 3 17822290244914178418
5718773 13 10087378707043938696
6328613 192 18342457050015775641
6898599 12 18129662053016041975

> <PUBCHEM_SHAPE_MULTIPOLES>
518.78
24.78
3.24
1.38
30.74
2.48
0.14
20.1
-0.02
-6.51
-0.05
-0.07
-0.2
-0.35

> <PUBCHEM_SHAPE_SELFOVERLAP>
1081.866

> <PUBCHEM_SHAPE_VOLUME>
297.6

> <PUBCHEM_COORDINATE_TYPE>
2
5
10

$$$$
