51136687
  -OEChem-12032416143D

 59 62  0     1  0  0  0  0  0999 V2000
    0.3734    3.4421    1.6958 O   0  0  0  0  0  0  0  0  0  0  0  0
    6.5746   -1.8096    0.0984 O   0  0  0  0  0  0  0  0  0  0  0  0
    6.3540    0.3503   -0.5852 O   0  0  0  0  0  0  0  0  0  0  0  0
   -4.8927    1.0609   -0.7041 O   0  0  0  0  0  0  0  0  0  0  0  0
    1.3708    2.1080    0.0529 N   0  0  0  0  0  0  0  0  0  0  0  0
    0.2696   -2.0048   -1.5864 N   0  0  0  0  0  0  0  0  0  0  0  0
    2.0741   -0.1318   -0.7624 C   0  0  2  0  0  0  0  0  0  0  0  0
    3.5336    0.2343   -0.3901 C   0  0  1  0  0  0  0  0  0  0  0  0
    3.5848    1.2750    0.7413 C   0  0  0  0  0  0  0  0  0  0  0  0
    1.2709    1.1487   -1.0562 C   0  0  0  0  0  0  0  0  0  0  0  0
    2.7344    2.4973    0.4069 C   0  0  0  0  0  0  0  0  0  0  0  0
    1.3559   -0.9802    0.2945 C   0  0  0  0  0  0  0  0  0  0  0  0
    4.3881   -0.9840   -0.0406 C   0  0  0  0  0  0  0  0  0  0  0  0
    0.1866   -1.6997   -0.3335 C   0  0  0  0  0  0  0  0  0  0  0  0
    0.2941    2.6436    0.7637 C   0  0  0  0  0  0  0  0  0  0  0  0
    5.8547   -0.7023   -0.2170 C   0  0  0  0  0  0  0  0  0  0  0  0
   -0.9960   -2.0136    0.5084 C   0  0  0  0  0  0  0  0  0  0  0  0
   -2.1867   -2.3166   -0.1640 C   0  0  0  0  0  0  0  0  0  0  0  0
   -2.1940   -2.2903   -1.6636 C   0  0  0  0  0  0  0  0  0  0  0  0
   -0.8401   -2.7573   -2.1815 C   0  0  0  0  0  0  0  0  0  0  0  0
   -1.0600    2.2293    0.3803 C   0  0  0  0  0  0  0  0  0  0  0  0
   -0.9544   -2.0002    1.9039 C   0  0  0  0  0  0  0  0  0  0  0  0
   -3.3458   -2.5818    0.5706 C   0  0  0  0  0  0  0  0  0  0  0  0
   -1.5248    2.4747   -0.9119 C   0  0  0  0  0  0  0  0  0  0  0  0
   -1.8832    1.5910    1.3080 C   0  0  0  0  0  0  0  0  0  0  0  0
   -2.1130   -2.2819    2.6290 C   0  0  0  0  0  0  0  0  0  0  0  0
   -3.3061   -2.5689    1.9650 C   0  0  0  0  0  0  0  0  0  0  0  0
   -2.8127    2.0821   -1.2762 C   0  0  0  0  0  0  0  0  0  0  0  0
   -3.1712    1.1985    0.9438 C   0  0  0  0  0  0  0  0  0  0  0  0
   -3.6359    1.4440   -0.3483 C   0  0  0  0  0  0  0  0  0  0  0  0
   -5.3030    1.3431   -2.0412 C   0  0  0  0  0  0  0  0  0  0  0  0
    2.1547   -0.6868   -1.7056 H   0  0  0  0  0  0  0  0  0  0  0  0
    3.9623    0.7121   -1.2839 H   0  0  0  0  0  0  0  0  0  0  0  0
    3.2172    0.8266    1.6731 H   0  0  0  0  0  0  0  0  0  0  0  0
    4.6133    1.6002    0.9308 H   0  0  0  0  0  0  0  0  0  0  0  0
    0.2469    0.8703   -1.2943 H   0  0  0  0  0  0  0  0  0  0  0  0
    1.6784    1.6498   -1.9431 H   0  0  0  0  0  0  0  0  0  0  0  0
    2.7333    3.1895    1.2549 H   0  0  0  0  0  0  0  0  0  0  0  0
    3.1553    3.0334   -0.4520 H   0  0  0  0  0  0  0  0  0  0  0  0
    2.0092   -1.7644    0.6903 H   0  0  0  0  0  0  0  0  0  0  0  0
    1.0366   -0.3580    1.1348 H   0  0  0  0  0  0  0  0  0  0  0  0
    4.1401   -1.8146   -0.7121 H   0  0  0  0  0  0  0  0  0  0  0  0
    4.2210   -1.2998    0.9950 H   0  0  0  0  0  0  0  0  0  0  0  0
   -2.3993   -1.2662   -1.9974 H   0  0  0  0  0  0  0  0  0  0  0  0
   -2.9800   -2.9414   -2.0622 H   0  0  0  0  0  0  0  0  0  0  0  0
   -0.6919   -3.8264   -1.9838 H   0  0  0  0  0  0  0  0  0  0  0  0
   -0.8074   -2.6262   -3.2686 H   0  0  0  0  0  0  0  0  0  0  0  0
   -0.0405   -1.7899    2.4501 H   0  0  0  0  0  0  0  0  0  0  0  0
   -4.2823   -2.7990    0.0643 H   0  0  0  0  0  0  0  0  0  0  0  0
    7.5386   -1.6607   -0.0055 H   0  0  0  0  0  0  0  0  0  0  0  0
   -0.9047    2.9903   -1.6412 H   0  0  0  0  0  0  0  0  0  0  0  0
   -1.5320    1.3923    2.3172 H   0  0  0  0  0  0  0  0  0  0  0  0
   -2.0868   -2.2752    3.7150 H   0  0  0  0  0  0  0  0  0  0  0  0
   -4.2062   -2.7801    2.5349 H   0  0  0  0  0  0  0  0  0  0  0  0
   -3.1111    2.3070   -2.2944 H   0  0  0  0  0  0  0  0  0  0  0  0
   -3.8089    0.7044    1.6714 H   0  0  0  0  0  0  0  0  0  0  0  0
   -5.3332    2.4208   -2.2341 H   0  0  0  0  0  0  0  0  0  0  0  0
   -4.6877    0.8071   -2.7719 H   0  0  0  0  0  0  0  0  0  0  0  0
   -6.3266    0.9700   -2.1506 H   0  0  0  0  0  0  0  0  0  0  0  0
  1 15  2  0  0  0  0
  2 16  1  0  0  0  0
  2 50  1  0  0  0  0
  3 16  2  0  0  0  0
  4 30  1  0  0  0  0
  4 31  1  0  0  0  0
  5 10  1  0  0  0  0
  5 11  1  0  0  0  0
  5 15  1  0  0  0  0
  6 14  2  0  0  0  0
  6 20  1  0  0  0  0
  7  8  1  0  0  0  0
  7 10  1  0  0  0  0
  7 12  1  0  0  0  0
  7 32  1  0  0  0  0
  8  9  1  0  0  0  0
  8 13  1  0  0  0  0
  8 33  1  0  0  0  0
  9 11  1  0  0  0  0
  9 34  1  0  0  0  0
  9 35  1  0  0  0  0
 10 36  1  0  0  0  0
 10 37  1  0  0  0  0
 11 38  1  0  0  0  0
 11 39  1  0  0  0  0
 12 14  1  0  0  0  0
 12 40  1  0  0  0  0
 12 41  1  0  0  0  0
 13 16  1  0  0  0  0
 13 42  1  0  0  0  0
 13 43  1  0  0  0  0
 14 17  1  0  0  0  0
 15 21  1  0  0  0  0
 17 18  1  0  0  0  0
 17 22  2  0  0  0  0
 18 19  1  0  0  0  0
 18 23  2  0  0  0  0
 19 20  1  0  0  0  0
 19 44  1  0  0  0  0
 19 45  1  0  0  0  0
 20 46  1  0  0  0  0
 20 47  1  0  0  0  0
 21 24  2  0  0  0  0
 21 25  1  0  0  0  0
 22 26  1  0  0  0  0
 22 48  1  0  0  0  0
 23 27  1  0  0  0  0
 23 49  1  0  0  0  0
 24 28  1  0  0  0  0
 24 51  1  0  0  0  0
 25 29  2  0  0  0  0
 25 52  1  0  0  0  0
 26 27  2  0  0  0  0
 26 53  1  0  0  0  0
 27 54  1  0  0  0  0
 28 30  2  0  0  0  0
 28 55  1  0  0  0  0
 29 30  1  0  0  0  0
 29 56  1  0  0  0  0
 31 57  1  0  0  0  0
 31 58  1  0  0  0  0
 31 59  1  0  0  0  0
M  END
> <PUBCHEM_COMPOUND_CID>
51136687

> <PUBCHEM_CONFORMER_RMSD>
1

> <PUBCHEM_CONFORMER_DIVERSEORDER>
1
31
59
87
63
76
71
54
64
90
39
94
92
93
25
36
91
58
26
38
49
2
51
40
95
46
22
72
79
6
50
86
70
16
61
62
69
75
33
80
65
84
83
96
56
48
11
81
47
37
4
77
85
42
9
74
60
66
41
53
21
73
30
13
57
27
88
78
28
23
32
45
17
97
14
67
18
34
89
12
8
43
5
7
10
29
55
68
20
98
3
35
44
52
15
19
82
24

> <PUBCHEM_MMFF94_PARTIAL_CHARGES>
37
1 -0.57
10 0.3
11 0.3
12 0.06
13 0.06
14 0.3
15 0.54
16 0.66
17 0.09
18 -0.14
19 0.14
2 -0.65
20 0.25
21 0.09
22 -0.15
23 -0.15
24 -0.15
25 -0.15
26 -0.15
27 -0.15
28 -0.15
29 -0.15
3 -0.57
30 0.08
31 0.28
4 -0.36
48 0.15
49 0.15
5 -0.66
50 0.5
51 0.15
52 0.15
53 0.15
54 0.15
55 0.15
56 0.15
6 -0.7

> <PUBCHEM_EFFECTIVE_ROTOR_COUNT>
8.6

> <PUBCHEM_PHARMACOPHORE_FEATURES>
10
1 1 acceptor
1 2 acceptor
1 3 acceptor
1 4 acceptor
1 6 acceptor
3 2 3 16 anion
6 17 18 22 23 26 27 rings
6 21 24 25 28 29 30 rings
6 5 7 8 9 10 11 rings
6 6 14 17 18 19 20 rings

> <PUBCHEM_HEAVY_ATOM_COUNT>
31

> <PUBCHEM_ATOM_DEF_STEREO_COUNT>
2

> <PUBCHEM_ATOM_UDEF_STEREO_COUNT>
0

> <PUBCHEM_BOND_DEF_STEREO_COUNT>
0

> <PUBCHEM_BOND_UDEF_STEREO_COUNT>
0

> <PUBCHEM_ISOTOPIC_ATOM_COUNT>
0

> <PUBCHEM_COMPONENT_COUNT>
1

> <PUBCHEM_CACTVS_TAUTO_COUNT>
1

> <PUBCHEM_CONFORMER_ID>
030C48AF00000001

> <PUBCHEM_MMFF94_ENERGY>
94.3404

> <PUBCHEM_FEATURE_SELFOVERLAP>
50.831

> <PUBCHEM_SHAPE_FINGERPRINT>
10032420 55 18193813982646862013
10119406 146 17979646637292264918
1100329 8 18343015593127386532
11578080 2 17344608556197491136
11607047 403 13389549860045499053
12156800 1 17194547205170670515
12422481 6 18194988407457588571
13140716 1 18341061782328811136
13402501 40 18410856573110370909
13965767 371 17554360241844690195
14674994 50 16629945746313216638
17492 54 18266723724266092333
20028762 73 17703215240069724892
20764821 26 18131082566473195868
20775438 99 16189679446664914047
22182313 1 17986136061770997758
23559900 14 18411131463844746888
238 59 18265037056365557973
24893992 56 17677894721072813899
3380486 145 18057322996928152320
3383291 50 18272080582875594367
35225 105 18263911185763694587
4058900 60 17828199896401276613
484989 97 18338790239178330759
5171179 24 18057592377546093096
57527358 35 15504100772244985781
59755656 520 17676765379403846438
6009941 240 18040715857876182922
6376802 137 17489297530593189312
70251023 43 18124584546878874982
7237137 82 18265632016710230180

> <PUBCHEM_SHAPE_MULTIPOLES>
604.53
10.05
4.26
1.96
14.31
0.26
0.19
-0.89
-2.02
-2.8
0.69
-2.18
-0.95
1.82

> <PUBCHEM_SHAPE_SELFOVERLAP>
1300.813

> <PUBCHEM_SHAPE_VOLUME>
330.2

> <PUBCHEM_COORDINATE_TYPE>
2
5
10

$$$$
