11882033
  -OEChem-12032416353D

 71 74  0     1  0  0  0  0  0999 V2000
   -5.4820    2.3770    2.2041 S   0  0  0  0  0  0  0  0  0  0  0  0
    5.7587    3.1082   -1.3554 S   0  0  0  0  0  0  0  0  0  0  0  0
   -2.8743   -0.6877    0.8703 O   0  0  0  0  0  0  0  0  0  0  0  0
   -5.8268   -0.1393    0.0303 O   0  0  0  0  0  0  0  0  0  0  0  0
    0.8449    2.5575   -1.6047 O   0  0  0  0  0  0  0  0  0  0  0  0
   -3.2250   -4.3163   -0.7340 O   0  0  0  0  0  0  0  0  0  0  0  0
   -4.0244    1.1607   -0.6169 N   0  0  0  0  0  0  0  0  0  0  0  0
   -0.9712    1.9262   -0.3203 N   0  0  0  0  0  0  0  0  0  0  0  0
   -2.0118   -1.8591   -0.9472 N   0  0  0  0  0  0  0  0  0  0  0  0
    1.1212    1.8947    0.6304 N   0  0  0  0  0  0  0  0  0  0  0  0
    2.5840   -0.9709   -1.3134 N   0  0  0  0  0  0  0  0  0  0  0  0
   -2.1189   -4.6506    1.2511 N   0  0  0  0  0  0  0  0  0  0  0  0
   -1.9733    2.1171   -1.3388 C   0  0  1  0  0  0  0  0  0  0  0  0
   -3.3184    0.1100   -1.3354 C   0  0  1  0  0  0  0  0  0  0  0  0
   -2.2329    0.8325   -2.1303 C   0  0  0  0  0  0  0  0  0  0  0  0
   -3.3366    2.4460   -0.7385 C   0  0  0  0  0  0  0  0  0  0  0  0
   -2.7287   -0.8427   -0.3394 C   0  0  0  0  0  0  0  0  0  0  0  0
   -5.2764    0.9598   -0.0558 C   0  0  0  0  0  0  0  0  0  0  0  0
   -1.3260   -2.8941   -0.2079 C   0  0  2  0  0  0  0  0  0  0  0  0
   -5.9560    2.1953    0.4787 C   0  0  0  0  0  0  0  0  0  0  0  0
    0.3929    2.1652   -0.5316 C   0  0  0  0  0  0  0  0  0  0  0  0
   -0.1131   -3.4447   -0.9683 C   0  0  0  0  0  0  0  0  0  0  0  0
    1.0949   -2.5569   -0.8727 C   0  0  0  0  0  0  0  0  0  0  0  0
   -2.3368   -4.0011    0.0543 C   0  0  0  0  0  0  0  0  0  0  0  0
    2.1125   -2.6139    0.1202 C   0  0  0  0  0  0  0  0  0  0  0  0
    1.4126   -1.5369   -1.7397 C   0  0  0  0  0  0  0  0  0  0  0  0
    3.0342   -1.6085   -0.1794 C   0  0  0  0  0  0  0  0  0  0  0  0
    2.5170    2.0106    0.8266 C   0  0  0  0  0  0  0  0  0  0  0  0
    2.3386   -3.4269    1.2486 C   0  0  0  0  0  0  0  0  0  0  0  0
   -6.4047    3.8855    2.5901 C   0  0  0  0  0  0  0  0  0  0  0  0
    4.1754   -1.3746    0.5962 C   0  0  0  0  0  0  0  0  0  0  0  0
    3.4758   -3.2045    2.0336 C   0  0  0  0  0  0  0  0  0  0  0  0
    4.3788   -2.1935    1.7106 C   0  0  0  0  0  0  0  0  0  0  0  0
    3.3357    2.4415   -0.2173 C   0  0  0  0  0  0  0  0  0  0  0  0
    3.0750    1.6935    2.0652 C   0  0  0  0  0  0  0  0  0  0  0  0
    4.7121    2.5556   -0.0227 C   0  0  0  0  0  0  0  0  0  0  0  0
    4.4515    1.8076    2.2598 C   0  0  0  0  0  0  0  0  0  0  0  0
    5.2699    2.2386    1.2159 C   0  0  0  0  0  0  0  0  0  0  0  0
    5.4515    1.8393   -2.6162 C   0  0  0  0  0  0  0  0  0  0  0  0
   -1.6342    2.9230   -1.9988 H   0  0  0  0  0  0  0  0  0  0  0  0
   -4.0145   -0.4382   -1.9805 H   0  0  0  0  0  0  0  0  0  0  0  0
   -1.3233    0.2516   -2.3077 H   0  0  0  0  0  0  0  0  0  0  0  0
   -2.6451    1.1064   -3.1104 H   0  0  0  0  0  0  0  0  0  0  0  0
   -3.2781    2.9574    0.2257 H   0  0  0  0  0  0  0  0  0  0  0  0
   -3.9172    3.0597   -1.4367 H   0  0  0  0  0  0  0  0  0  0  0  0
   -1.2584    1.5404    0.5741 H   0  0  0  0  0  0  0  0  0  0  0  0
   -2.0313   -1.9354   -1.9603 H   0  0  0  0  0  0  0  0  0  0  0  0
   -1.0144   -2.4717    0.7563 H   0  0  0  0  0  0  0  0  0  0  0  0
   -5.7130    3.0892   -0.0986 H   0  0  0  0  0  0  0  0  0  0  0  0
   -7.0384    2.0438    0.4080 H   0  0  0  0  0  0  0  0  0  0  0  0
    0.1554   -4.4353   -0.5783 H   0  0  0  0  0  0  0  0  0  0  0  0
   -0.3651   -3.6035   -2.0256 H   0  0  0  0  0  0  0  0  0  0  0  0
    0.5912    1.5741    1.4369 H   0  0  0  0  0  0  0  0  0  0  0  0
    0.9120   -1.1617   -2.6213 H   0  0  0  0  0  0  0  0  0  0  0  0
    3.0514   -0.1974   -1.7656 H   0  0  0  0  0  0  0  0  0  0  0  0
    1.6441   -4.2183    1.5156 H   0  0  0  0  0  0  0  0  0  0  0  0
   -2.7138   -5.4192    1.5420 H   0  0  0  0  0  0  0  0  0  0  0  0
   -1.3654   -4.3951    1.8812 H   0  0  0  0  0  0  0  0  0  0  0  0
   -6.0654    4.7104    1.9582 H   0  0  0  0  0  0  0  0  0  0  0  0
   -7.4758    3.7243    2.4429 H   0  0  0  0  0  0  0  0  0  0  0  0
   -6.2333    4.1547    3.6357 H   0  0  0  0  0  0  0  0  0  0  0  0
    4.8915   -0.6061    0.3308 H   0  0  0  0  0  0  0  0  0  0  0  0
    3.6557   -3.8289    2.9047 H   0  0  0  0  0  0  0  0  0  0  0  0
    5.2584   -2.0413    2.3309 H   0  0  0  0  0  0  0  0  0  0  0  0
    2.9535    2.7088   -1.1920 H   0  0  0  0  0  0  0  0  0  0  0  0
    2.4486    1.3546    2.8864 H   0  0  0  0  0  0  0  0  0  0  0  0
    4.8860    1.5589    3.2237 H   0  0  0  0  0  0  0  0  0  0  0  0
    6.3406    2.3201    1.3862 H   0  0  0  0  0  0  0  0  0  0  0  0
    6.1194    2.0089   -3.4648 H   0  0  0  0  0  0  0  0  0  0  0  0
    4.4194    1.8879   -2.9729 H   0  0  0  0  0  0  0  0  0  0  0  0
    5.6488    0.8436   -2.2096 H   0  0  0  0  0  0  0  0  0  0  0  0
  1 20  1  0  0  0  0
  1 30  1  0  0  0  0
  2 36  1  0  0  0  0
  2 39  1  0  0  0  0
  3 17  2  0  0  0  0
  4 18  2  0  0  0  0
  5 21  2  0  0  0  0
  6 24  2  0  0  0  0
  7 14  1  0  0  0  0
  7 16  1  0  0  0  0
  7 18  1  0  0  0  0
  8 13  1  0  0  0  0
  8 21  1  0  0  0  0
  8 46  1  0  0  0  0
  9 17  1  0  0  0  0
  9 19  1  0  0  0  0
  9 47  1  0  0  0  0
 10 21  1  0  0  0  0
 10 28  1  0  0  0  0
 10 53  1  0  0  0  0
 11 26  1  0  0  0  0
 11 27  1  0  0  0  0
 11 55  1  0  0  0  0
 12 24  1  0  0  0  0
 12 57  1  0  0  0  0
 12 58  1  0  0  0  0
 13 15  1  0  0  0  0
 13 16  1  0  0  0  0
 13 40  1  0  0  0  0
 14 15  1  0  0  0  0
 14 17  1  0  0  0  0
 14 41  1  0  0  0  0
 15 42  1  0  0  0  0
 15 43  1  0  0  0  0
 16 44  1  0  0  0  0
 16 45  1  0  0  0  0
 18 20  1  0  0  0  0
 19 22  1  0  0  0  0
 19 24  1  0  0  0  0
 19 48  1  0  0  0  0
 20 49  1  0  0  0  0
 20 50  1  0  0  0  0
 22 23  1  0  0  0  0
 22 51  1  0  0  0  0
 22 52  1  0  0  0  0
 23 25  1  0  0  0  0
 23 26  2  0  0  0  0
 25 27  1  0  0  0  0
 25 29  2  0  0  0  0
 26 54  1  0  0  0  0
 27 31  2  0  0  0  0
 28 34  2  0  0  0  0
 28 35  1  0  0  0  0
 29 32  1  0  0  0  0
 29 56  1  0  0  0  0
 30 59  1  0  0  0  0
 30 60  1  0  0  0  0
 30 61  1  0  0  0  0
 31 33  1  0  0  0  0
 31 62  1  0  0  0  0
 32 33  2  0  0  0  0
 32 63  1  0  0  0  0
 33 64  1  0  0  0  0
 34 36  1  0  0  0  0
 34 65  1  0  0  0  0
 35 37  2  0  0  0  0
 35 66  1  0  0  0  0
 36 38  2  0  0  0  0
 37 38  1  0  0  0  0
 37 67  1  0  0  0  0
 38 68  1  0  0  0  0
 39 69  1  0  0  0  0
 39 70  1  0  0  0  0
 39 71  1  0  0  0  0
M  END
> <PUBCHEM_COMPOUND_CID>
11882033

> <PUBCHEM_CONFORMER_RMSD>
1.4

> <PUBCHEM_CONFORMER_DIVERSEORDER>
1
34
28
23
17
37
31
13
32
30
3
22
8
6
19
35
20
36
12
25
9
2
24
16
11
33
5
38
26
21
27
15
7
4
18
10
29
14

> <PUBCHEM_MMFF94_PARTIAL_CHARGES>
52
1 -0.46
10 -0.55
11 0.03
12 -0.8
13 0.3
14 0.36
16 0.3
17 0.57
18 0.57
19 0.36
2 -0.33
20 0.29
21 0.69
22 0.18
23 -0.18
24 0.57
26 -0.3
27 -0.15
28 0.12
29 -0.15
3 -0.57
30 0.23
31 -0.15
32 -0.15
33 -0.15
34 -0.15
35 -0.15
36 0.1
37 -0.15
38 -0.15
39 0.23
4 -0.57
46 0.37
47 0.37
5 -0.57
53 0.37
54 0.15
55 0.27
56 0.15
57 0.37
58 0.37
6 -0.57
62 0.15
63 0.15
64 0.15
65 0.15
66 0.15
67 0.15
68 0.15
7 -0.66
8 -0.73
9 -0.73

> <PUBCHEM_EFFECTIVE_ROTOR_COUNT>
15

> <PUBCHEM_PHARMACOPHORE_FEATURES>
16
1 10 donor
1 11 cation
1 11 donor
1 12 donor
1 3 acceptor
1 30 hydrophobe
1 39 hydrophobe
1 4 acceptor
1 5 acceptor
1 6 acceptor
1 8 donor
1 9 donor
5 11 23 25 26 27 rings
5 7 13 14 15 16 rings
6 25 27 29 31 32 33 rings
6 28 34 35 36 37 38 rings

> <PUBCHEM_HEAVY_ATOM_COUNT>
39

> <PUBCHEM_ATOM_DEF_STEREO_COUNT>
3

> <PUBCHEM_ATOM_UDEF_STEREO_COUNT>
0

> <PUBCHEM_BOND_DEF_STEREO_COUNT>
0

> <PUBCHEM_BOND_UDEF_STEREO_COUNT>
0

> <PUBCHEM_ISOTOPIC_ATOM_COUNT>
0

> <PUBCHEM_COMPONENT_COUNT>
1

> <PUBCHEM_CACTVS_TAUTO_COUNT>
12

> <PUBCHEM_CONFORMER_ID>
00B54E3100000001

> <PUBCHEM_MMFF94_ENERGY>
91.7487

> <PUBCHEM_FEATURE_SELFOVERLAP>
81.341

> <PUBCHEM_SHAPE_FINGERPRINT>
10439779 11 18342449391672914449
10670039 82 18118682369362267940
10675989 125 15236913545537330836
11513181 2 18059565949605470446
12422481 6 18261106314827921041
12608794 3 18195517108824910963
12633257 1 18268697342641667943
14725015 67 17972587797846542339
15392192 104 18263380178416386721
15799311 1 18408042935381591544
15968369 153 17771331252389318359
16112460 7 18343300331946647409
20764821 26 18335684058040691038
22223350 30 17822590325984497707
3052486 1 18118677966947118284
338550 245 18261659477146655304
3680242 22 18194959638991309187
392239 28 18266733576815625879
508706 21 18196373847326047302
5252454 2 18409727391526709180
563151 40 18189913061678246356

> <PUBCHEM_SHAPE_MULTIPOLES>
756.94
13.81
6.42
2.3
8.9
5.13
0.49
-13.85
4.71
0.21
1.42
-0.82
-1.23
-3.67

> <PUBCHEM_SHAPE_SELFOVERLAP>
1585.497

> <PUBCHEM_SHAPE_VOLUME>
432

> <PUBCHEM_COORDINATE_TYPE>
2
5
10

$$$$
