25338202
  -OEChem-12032416253D

 54 57  0     1  0  0  0  0  0999 V2000
   -3.1712    0.9184    1.5481 O   0  0  0  0  0  0  0  0  0  0  0  0
   -4.5901    2.0025    0.0674 O   0  0  0  0  0  0  0  0  0  0  0  0
   -2.7078    1.9049   -2.1116 O   0  0  0  0  0  0  0  0  0  0  0  0
    1.1923    1.8026   -0.9131 O   0  0  0  0  0  0  0  0  0  0  0  0
    7.1931   -0.5577   -0.0243 O   0  0  0  0  0  0  0  0  0  0  0  0
   -2.8584   -1.2497   -0.3073 N   0  0  0  0  0  0  0  0  0  0  0  0
   -0.4153    0.9884    0.5344 N   0  0  0  0  0  0  0  0  0  0  0  0
    1.7385    0.2338    0.7456 N   0  0  0  0  0  0  0  0  0  0  0  0
   -3.3595    0.0671   -0.7003 C   0  0  2  0  0  0  0  0  0  0  0  0
   -2.1896    0.9663   -1.1599 C   0  0  2  0  0  0  0  0  0  0  0  0
   -1.5235    1.7465   -0.0053 C   0  0  1  0  0  0  0  0  0  0  0  0
   -4.1066    0.7136    0.4806 C   0  0  1  0  0  0  0  0  0  0  0  0
   -2.5059    2.1131    1.1263 C   0  0  1  0  0  0  0  0  0  0  0  0
   -3.6915    2.9443    0.6736 C   0  0  0  0  0  0  0  0  0  0  0  0
   -2.6026   -2.0777   -1.4942 C   0  0  0  0  0  0  0  0  0  0  0  0
   -3.8034   -1.9077    0.6059 C   0  0  0  0  0  0  0  0  0  0  0  0
   -2.0311   -3.4415   -1.1031 C   0  0  0  0  0  0  0  0  0  0  0  0
   -3.2714   -3.2660    1.0656 C   0  0  0  0  0  0  0  0  0  0  0  0
   -2.9461   -4.1651   -0.1219 C   0  0  0  0  0  0  0  0  0  0  0  0
    0.8841    1.0763    0.0288 C   0  0  0  0  0  0  0  0  0  0  0  0
    3.1248    0.0330    0.5495 C   0  0  0  0  0  0  0  0  0  0  0  0
    3.8228   -0.8560    1.3671 C   0  0  0  0  0  0  0  0  0  0  0  0
    3.7941    0.7234   -0.4610 C   0  0  0  0  0  0  0  0  0  0  0  0
    5.1898   -1.0544    1.1744 C   0  0  0  0  0  0  0  0  0  0  0  0
    5.1612    0.5250   -0.6538 C   0  0  0  0  0  0  0  0  0  0  0  0
    5.8591   -0.3638    0.1639 C   0  0  0  0  0  0  0  0  0  0  0  0
    7.8143    0.1807   -1.0755 C   0  0  0  0  0  0  0  0  0  0  0  0
   -4.0856   -0.0231   -1.5214 H   0  0  0  0  0  0  0  0  0  0  0  0
   -1.4353    0.4008   -1.7159 H   0  0  0  0  0  0  0  0  0  0  0  0
   -1.1104    2.6847   -0.3978 H   0  0  0  0  0  0  0  0  0  0  0  0
   -4.9914    0.1738    0.8275 H   0  0  0  0  0  0  0  0  0  0  0  0
   -1.9812    2.5710    1.9710 H   0  0  0  0  0  0  0  0  0  0  0  0
   -4.2149    3.3796    1.5318 H   0  0  0  0  0  0  0  0  0  0  0  0
   -3.4365    3.7420   -0.0291 H   0  0  0  0  0  0  0  0  0  0  0  0
   -1.8802   -1.6032   -2.1659 H   0  0  0  0  0  0  0  0  0  0  0  0
   -3.5256   -2.2266   -2.0707 H   0  0  0  0  0  0  0  0  0  0  0  0
   -4.7873   -2.0419    0.1370 H   0  0  0  0  0  0  0  0  0  0  0  0
   -3.9321   -1.3754    1.5521 H   0  0  0  0  0  0  0  0  0  0  0  0
   -1.0404   -3.3081   -0.6499 H   0  0  0  0  0  0  0  0  0  0  0  0
   -1.8925   -4.0562   -1.9997 H   0  0  0  0  0  0  0  0  0  0  0  0
   -4.0115   -3.7578    1.7073 H   0  0  0  0  0  0  0  0  0  0  0  0
   -2.3674   -3.1225    1.6716 H   0  0  0  0  0  0  0  0  0  0  0  0
   -3.8753   -4.4508   -0.6300 H   0  0  0  0  0  0  0  0  0  0  0  0
   -2.4708   -5.0892    0.2247 H   0  0  0  0  0  0  0  0  0  0  0  0
   -0.6078    0.3062    1.2615 H   0  0  0  0  0  0  0  0  0  0  0  0
   -1.9595    2.4287   -2.4451 H   0  0  0  0  0  0  0  0  0  0  0  0
    1.3214   -0.3034    1.5015 H   0  0  0  0  0  0  0  0  0  0  0  0
    3.3132   -1.4005    2.1580 H   0  0  0  0  0  0  0  0  0  0  0  0
    3.3222    1.4265   -1.1326 H   0  0  0  0  0  0  0  0  0  0  0  0
    5.7283   -1.7482    1.8143 H   0  0  0  0  0  0  0  0  0  0  0  0
    5.6196    1.0928   -1.4563 H   0  0  0  0  0  0  0  0  0  0  0  0
    8.8737   -0.0958   -1.0822 H   0  0  0  0  0  0  0  0  0  0  0  0
    7.7668    1.2595   -0.8921 H   0  0  0  0  0  0  0  0  0  0  0  0
    7.4065   -0.0926   -2.0546 H   0  0  0  0  0  0  0  0  0  0  0  0
  1 12  1  0  0  0  0
  1 13  1  0  0  0  0
  2 12  1  0  0  0  0
  2 14  1  0  0  0  0
  3 10  1  0  0  0  0
  3 46  1  0  0  0  0
  4 20  2  0  0  0  0
  5 26  1  0  0  0  0
  5 27  1  0  0  0  0
  6  9  1  0  0  0  0
  6 15  1  0  0  0  0
  6 16  1  0  0  0  0
  7 11  1  0  0  0  0
  7 20  1  0  0  0  0
  7 45  1  0  0  0  0
  8 20  1  0  0  0  0
  8 21  1  0  0  0  0
  8 47  1  0  0  0  0
  9 10  1  0  0  0  0
  9 12  1  0  0  0  0
  9 28  1  0  0  0  0
 10 11  1  0  0  0  0
 10 29  1  0  0  0  0
 11 13  1  0  0  0  0
 11 30  1  0  0  0  0
 12 31  1  0  0  0  0
 13 14  1  0  0  0  0
 13 32  1  0  0  0  0
 14 33  1  0  0  0  0
 14 34  1  0  0  0  0
 15 17  1  0  0  0  0
 15 35  1  0  0  0  0
 15 36  1  0  0  0  0
 16 18  1  0  0  0  0
 16 37  1  0  0  0  0
 16 38  1  0  0  0  0
 17 19  1  0  0  0  0
 17 39  1  0  0  0  0
 17 40  1  0  0  0  0
 18 19  1  0  0  0  0
 18 41  1  0  0  0  0
 18 42  1  0  0  0  0
 19 43  1  0  0  0  0
 19 44  1  0  0  0  0
 21 22  2  0  0  0  0
 21 23  1  0  0  0  0
 22 24  1  0  0  0  0
 22 48  1  0  0  0  0
 23 25  2  0  0  0  0
 23 49  1  0  0  0  0
 24 26  2  0  0  0  0
 24 50  1  0  0  0  0
 25 26  1  0  0  0  0
 25 51  1  0  0  0  0
 27 52  1  0  0  0  0
 27 53  1  0  0  0  0
 27 54  1  0  0  0  0
M  END
> <PUBCHEM_COMPOUND_CID>
25338202

> <PUBCHEM_CONFORMER_RMSD>
1

> <PUBCHEM_CONFORMER_DIVERSEORDER>
1
20
9
21
17
5
16
19
14
12
15
8
10
22
2
3
18
7
11
4
13
6

> <PUBCHEM_MMFF94_PARTIAL_CHARGES>
31
1 -0.56
10 0.28
11 0.3
12 0.56
13 0.28
14 0.28
15 0.27
16 0.27
2 -0.56
20 0.69
21 0.12
22 -0.15
23 -0.15
24 -0.15
25 -0.15
26 0.08
27 0.28
3 -0.68
4 -0.57
45 0.37
46 0.4
47 0.37
48 0.15
49 0.15
5 -0.36
50 0.15
51 0.15
6 -0.81
7 -0.73
8 -0.55
9 0.27

> <PUBCHEM_EFFECTIVE_ROTOR_COUNT>
8.4

> <PUBCHEM_PHARMACOPHORE_FEATURES>
12
1 1 acceptor
1 2 acceptor
1 3 acceptor
1 3 donor
1 4 acceptor
1 5 acceptor
1 6 cation
1 7 donor
1 8 donor
6 21 22 23 24 25 26 rings
6 6 15 16 17 18 19 rings
8 1 2 9 10 11 12 13 14 rings

> <PUBCHEM_HEAVY_ATOM_COUNT>
27

> <PUBCHEM_ATOM_DEF_STEREO_COUNT>
5

> <PUBCHEM_ATOM_UDEF_STEREO_COUNT>
0

> <PUBCHEM_BOND_DEF_STEREO_COUNT>
0

> <PUBCHEM_BOND_UDEF_STEREO_COUNT>
0

> <PUBCHEM_ISOTOPIC_ATOM_COUNT>
0

> <PUBCHEM_COMPONENT_COUNT>
1

> <PUBCHEM_CACTVS_TAUTO_COUNT>
3

> <PUBCHEM_CONFORMER_ID>
0182A15A00000001

> <PUBCHEM_MMFF94_ENERGY>
81.9493

> <PUBCHEM_FEATURE_SELFOVERLAP>
60.999

> <PUBCHEM_SHAPE_FINGERPRINT>
10483366 6 18057864988491248215
11045977 3 17775275067628192640
11315621 246 18408328778893365606
11524674 6 17847059969702312471
11545043 162 17846214479978746570
11552529 35 18340198691196393358
12616971 3 17749394754575618868
12633257 1 17416142783096489515
12760667 363 18269270326298283663
12821665 9 18263932210435912028
12969540 37 17042038538744429543
13631057 29 18336543932058078578
13726171 33 17912396356486926516
14251757 5 18342457040792754002
14844126 61 18342454893700035163
14856354 85 18343589538228611236
14866123 147 18340770446835533259
15183329 4 17967529070008202514
15230672 131 18195813973287245022
15250474 111 18261943086290018210
15484559 13 14791037490123256524
15537594 2 18040998406510036018
15799311 1 18340783541968941134
17780758 139 18343019999515691552
17844677 252 17775283889665169784
18927931 339 17989488532636941508
20511986 3 18041829637074164728
20775530 9 18046617073899975371
21236236 1 18410013264771678106
21795232 338 18270972352838163026
220451 1 18260268513179971000
23466295 7 18190463955569212795
23559900 14 18271232936762273192
23728640 28 18413668011616078011
3383291 50 18272926159627250815
397830 11 17845361302327226504
4015057 19 16772928394642651137
4073 2 18272370867789727130
445580 160 18272942626520944022
44802255 64 17822003165162992679
469060 322 13840276930685162899
484985 159 18410287056178899687
497634 4 18187644734165625117
508706 21 18202569492269765958
5104073 3 18271522087457069024
531348 171 17750223713069821024
5364581 5 17914594276294307792
5486654 36 18337114569944521833
559249 180 18409728443878053297
58260988 587 17394992272941368677
602551 16 18201432589099282802
90127 26 17131538497566873168

> <PUBCHEM_SHAPE_MULTIPOLES>
511.36
15.18
3.8
1.41
35.13
3.35
0.2
1.81
0.59
-7.96
0.04
-0.36
0.02
-0.98

> <PUBCHEM_SHAPE_SELFOVERLAP>
1088.553

> <PUBCHEM_SHAPE_VOLUME>
281

> <PUBCHEM_COORDINATE_TYPE>
2
5
10

$$$$
