11865673
  -OEChem-12032416153D

 54 55  0     1  0  0  0  0  0999 V2000
    0.3361   -2.6224   -1.8467 O   0  0  0  0  0  0  0  0  0  0  0  0
    1.8940   -4.0559    1.1368 O   0  0  0  0  0  0  0  0  0  0  0  0
   -2.5097   -2.0064    1.2686 O   0  0  0  0  0  0  0  0  0  0  0  0
    4.7040   -0.3614    0.7833 O   0  0  0  0  0  0  0  0  0  0  0  0
    1.9346    3.4229   -0.7706 O   0  0  0  0  0  0  0  0  0  0  0  0
   -3.1504   -0.3122   -0.1817 N   0  0  0  0  0  0  0  0  0  0  0  0
   -0.9387   -0.9343   -0.0636 N   0  0  0  0  0  0  0  0  0  0  0  0
    3.4832    0.9370   -0.7194 N   0  0  0  0  0  0  0  0  0  0  0  0
    2.5312    4.7191    1.0317 N   0  0  0  0  0  0  0  0  0  0  0  0
   -4.5607   -0.3370    0.1371 C   0  0  0  0  0  0  0  0  0  0  0  0
   -4.8720    0.5742    1.3292 C   0  0  0  0  0  0  0  0  0  0  0  0
   -5.4082    0.0365   -1.0837 C   0  0  0  0  0  0  0  0  0  0  0  0
   -4.7702    2.0575    0.9738 C   0  0  0  0  0  0  0  0  0  0  0  0
   -5.3055    1.5207   -1.4351 C   0  0  0  0  0  0  0  0  0  0  0  0
   -5.6306    2.4068   -0.2367 C   0  0  0  0  0  0  0  0  0  0  0  0
    0.2167   -1.6727    0.3844 C   0  0  1  0  0  0  0  0  0  0  0  0
    0.4412   -2.9431   -0.4578 C   0  0  2  0  0  0  0  0  0  0  0  0
    1.8233   -3.5542   -0.1963 C   0  0  1  0  0  0  0  0  0  0  0  0
    2.9583   -2.5451   -0.4413 C   0  0  0  0  0  0  0  0  0  0  0  0
    1.4065   -0.7514    0.3999 C   0  0  0  0  0  0  0  0  0  0  0  0
    2.6283   -1.1536    0.0190 C   0  0  0  0  0  0  0  0  0  0  0  0
   -2.2257   -1.1626    0.4194 C   0  0  0  0  0  0  0  0  0  0  0  0
    3.7138   -0.1704    0.0780 C   0  0  0  0  0  0  0  0  0  0  0  0
    4.4096    2.0415   -0.8240 C   0  0  0  0  0  0  0  0  0  0  0  0
    4.1354    3.1234    0.2115 C   0  0  0  0  0  0  0  0  0  0  0  0
    2.7556    3.7432    0.0839 C   0  0  0  0  0  0  0  0  0  0  0  0
   -4.8107   -1.3666    0.4223 H   0  0  0  0  0  0  0  0  0  0  0  0
   -4.1999    0.3556    2.1677 H   0  0  0  0  0  0  0  0  0  0  0  0
   -5.8914    0.3660    1.6789 H   0  0  0  0  0  0  0  0  0  0  0  0
   -6.4586   -0.2043   -0.8756 H   0  0  0  0  0  0  0  0  0  0  0  0
   -5.1105   -0.5637   -1.9519 H   0  0  0  0  0  0  0  0  0  0  0  0
   -5.0830    2.6621    1.8328 H   0  0  0  0  0  0  0  0  0  0  0  0
   -3.7250    2.3177    0.7675 H   0  0  0  0  0  0  0  0  0  0  0  0
   -5.9958    1.7490   -2.2554 H   0  0  0  0  0  0  0  0  0  0  0  0
   -4.2981    1.7523   -1.8006 H   0  0  0  0  0  0  0  0  0  0  0  0
   -5.4813    3.4589   -0.5044 H   0  0  0  0  0  0  0  0  0  0  0  0
   -6.6898    2.2916    0.0245 H   0  0  0  0  0  0  0  0  0  0  0  0
    0.0378   -1.9744    1.4249 H   0  0  0  0  0  0  0  0  0  0  0  0
   -0.3489   -3.6674   -0.2251 H   0  0  0  0  0  0  0  0  0  0  0  0
    1.9760   -4.4100   -0.8652 H   0  0  0  0  0  0  0  0  0  0  0  0
   -2.8026    0.4007   -0.8152 H   0  0  0  0  0  0  0  0  0  0  0  0
    3.8713   -2.8907    0.0584 H   0  0  0  0  0  0  0  0  0  0  0  0
    3.1688   -2.4988   -1.5172 H   0  0  0  0  0  0  0  0  0  0  0  0
    1.2478    0.2611    0.7657 H   0  0  0  0  0  0  0  0  0  0  0  0
   -0.8214   -0.2502   -0.8056 H   0  0  0  0  0  0  0  0  0  0  0  0
    0.4532   -3.4479   -2.3471 H   0  0  0  0  0  0  0  0  0  0  0  0
    2.7650   -4.4734    1.2484 H   0  0  0  0  0  0  0  0  0  0  0  0
    2.6323    0.9910   -1.2722 H   0  0  0  0  0  0  0  0  0  0  0  0
    5.4305    1.6635   -0.7038 H   0  0  0  0  0  0  0  0  0  0  0  0
    4.3129    2.4450   -1.8377 H   0  0  0  0  0  0  0  0  0  0  0  0
    4.8793    3.9219    0.1077 H   0  0  0  0  0  0  0  0  0  0  0  0
    4.2271    2.7074    1.2223 H   0  0  0  0  0  0  0  0  0  0  0  0
    1.6508    5.2223    1.0642 H   0  0  0  0  0  0  0  0  0  0  0  0
    3.2265    4.9702    1.7273 H   0  0  0  0  0  0  0  0  0  0  0  0
  1 17  1  0  0  0  0
  1 46  1  0  0  0  0
  2 18  1  0  0  0  0
  2 47  1  0  0  0  0
  3 22  2  0  0  0  0
  4 23  2  0  0  0  0
  5 26  2  0  0  0  0
  6 10  1  0  0  0  0
  6 22  1  0  0  0  0
  6 41  1  0  0  0  0
  7 16  1  0  0  0  0
  7 22  1  0  0  0  0
  7 45  1  0  0  0  0
  8 23  1  0  0  0  0
  8 24  1  0  0  0  0
  8 48  1  0  0  0  0
  9 26  1  0  0  0  0
  9 53  1  0  0  0  0
  9 54  1  0  0  0  0
 10 11  1  0  0  0  0
 10 12  1  0  0  0  0
 10 27  1  0  0  0  0
 11 13  1  0  0  0  0
 11 28  1  0  0  0  0
 11 29  1  0  0  0  0
 12 14  1  0  0  0  0
 12 30  1  0  0  0  0
 12 31  1  0  0  0  0
 13 15  1  0  0  0  0
 13 32  1  0  0  0  0
 13 33  1  0  0  0  0
 14 15  1  0  0  0  0
 14 34  1  0  0  0  0
 14 35  1  0  0  0  0
 15 36  1  0  0  0  0
 15 37  1  0  0  0  0
 16 17  1  0  0  0  0
 16 20  1  0  0  0  0
 16 38  1  0  0  0  0
 17 18  1  0  0  0  0
 17 39  1  0  0  0  0
 18 19  1  0  0  0  0
 18 40  1  0  0  0  0
 19 21  1  0  0  0  0
 19 42  1  0  0  0  0
 19 43  1  0  0  0  0
 20 21  2  0  0  0  0
 20 44  1  0  0  0  0
 21 23  1  0  0  0  0
 24 25  1  0  0  0  0
 24 49  1  0  0  0  0
 24 50  1  0  0  0  0
 25 26  1  0  0  0  0
 25 51  1  0  0  0  0
 25 52  1  0  0  0  0
M  END
> <PUBCHEM_COMPOUND_CID>
11865673

> <PUBCHEM_CONFORMER_RMSD>
1

> <PUBCHEM_CONFORMER_DIVERSEORDER>
1
163
117
139
69
63
120
96
127
109
149
143
83
46
154
166
85
155
122
19
151
80
61
71
137
158
82
133
91
112
165
107
60
161
40
173
90
106
144
32
167
104
100
164
41
128
170
168
47
130
18
171
157
145
86
8
116
68
131
93
140
118
59
65
136
88
152
110
49
12
26
57
48
172
56
64
98
72
51
79
45
75
17
156
126
94
169
99
58
78
101
22
135
84
148
29
92
113
35
119
67
81
162
125
108
27
129
124
4
89
15
50
66
62
23
52
132
105
114
38
16
95
70
111
6
3
28
74
43
121
24
21
134
30
33
11
97
76
142
150
10
87
160
147
39
37
31
5
123
14
146
138
53
77
159
115
44
42
2
103
20
9
36
7
153
13
34
102
25
141
54
55
73

> <PUBCHEM_MMFF94_PARTIAL_CHARGES>
29
1 -0.68
10 0.3
16 0.44
17 0.28
18 0.28
19 0.14
2 -0.68
20 -0.29
21 -0.12
22 0.69
23 0.62
24 0.3
25 0.06
26 0.57
3 -0.57
4 -0.57
41 0.37
44 0.15
45 0.37
46 0.4
47 0.4
48 0.37
5 -0.57
53 0.37
54 0.37
6 -0.73
7 -0.73
8 -0.73
9 -0.8

> <PUBCHEM_EFFECTIVE_ROTOR_COUNT>
11

> <PUBCHEM_PHARMACOPHORE_FEATURES>
13
1 1 acceptor
1 1 donor
1 2 acceptor
1 2 donor
1 3 acceptor
1 4 acceptor
1 5 acceptor
1 6 donor
1 7 donor
1 8 donor
1 9 donor
6 10 11 12 13 14 15 rings
6 16 17 18 19 20 21 rings

> <PUBCHEM_HEAVY_ATOM_COUNT>
26

> <PUBCHEM_ATOM_DEF_STEREO_COUNT>
3

> <PUBCHEM_ATOM_UDEF_STEREO_COUNT>
0

> <PUBCHEM_BOND_DEF_STEREO_COUNT>
0

> <PUBCHEM_BOND_UDEF_STEREO_COUNT>
0

> <PUBCHEM_ISOTOPIC_ATOM_COUNT>
0

> <PUBCHEM_COMPONENT_COUNT>
1

> <PUBCHEM_CACTVS_TAUTO_COUNT>
12

> <PUBCHEM_CONFORMER_ID>
00B50E4900000001

> <PUBCHEM_MMFF94_ENERGY>
30.1116

> <PUBCHEM_FEATURE_SELFOVERLAP>
66.032

> <PUBCHEM_SHAPE_FINGERPRINT>
10763959 59 18408608028808069310
10937287 8 18194963174065716308
11796584 16 11599464446053495223
12107183 9 18120637275478309208
12403259 118 18337663226226183346
12422481 6 17531239578086465660
12596602 18 13767936718729051645
12769317 202 18411979178344910808
12925494 130 18408887356655059985
13590594 115 17762346807707911098
13617811 41 17332229309568449239
14251764 38 18339643438219901449
14251764 75 18266470977666981757
14790565 3 18338800142575985580
14848178 96 18411135852984409473
15081414 286 18268721523375817403
15082195 135 18342160186181981511
15322535 138 17548969413591167400
17844677 252 18338243640022778643
20567600 299 18412545405274229701
20567600 9 18341624676294611636
21033648 144 18188200009365968421
21033648 29 16950844696555010063
21315763 76 18338789036001775545
21388113 180 18338236084484559405
21860390 5 18270404879915024526
23559900 14 18265333915272038347
245318 6 17897459512340067237
2838139 119 18410288137945707511
328310 1195 18261944151304413245
376196 1 18335984267554256746
474 4 18410855468792371811
550186 83 17459172110220183272
57724786 102 18198354961674536321
9981440 41 18264767851920202993

> <PUBCHEM_SHAPE_MULTIPOLES>
485.8
12.8
5.7
1.19
16.07
3
0.12
9.69
0.81
-7.53
-0.5
0.87
-0.08
0.2

> <PUBCHEM_SHAPE_SELFOVERLAP>
988.582

> <PUBCHEM_SHAPE_VOLUME>
276.6

> <PUBCHEM_COORDINATE_TYPE>
2
5
10

$$$$
