45784109
  -OEChem-12032416353D

 71 75  0     1  0  0  0  0  0999 V2000
    5.8287    3.4127    0.9467 F   0  0  0  0  0  0  0  0  0  0  0  0
    4.4273   -0.4899    0.6270 O   0  0  0  0  0  0  0  0  0  0  0  0
   -3.0198   -0.9416    0.4378 N   0  0  0  0  0  0  0  0  0  0  0  0
   -5.4955    0.4719    0.2577 N   0  0  0  0  0  0  0  0  0  0  0  0
    3.1169    0.5737    2.0954 N   0  0  0  0  0  0  0  0  0  0  0  0
    4.0731    1.4674    1.6506 N   0  0  0  0  0  0  0  0  0  0  0  0
   -6.6047    2.5723    0.3026 N   0  0  0  0  0  0  0  0  0  0  0  0
   -8.9644    1.2766   -0.4842 N   0  0  0  0  0  0  0  0  0  0  0  0
   -0.3627   -1.1613   -0.7810 C   0  0  1  0  0  0  0  0  0  0  0  0
   -1.1770   -2.3916   -0.3176 C   0  0  2  0  0  0  0  0  0  0  0  0
    0.8065   -0.8977    0.1783 C   0  0  0  0  0  0  0  0  0  0  0  0
    1.7512   -2.1081    0.3382 C   0  0  2  0  0  0  0  0  0  0  0  0
    0.1309   -1.3284   -2.2246 C   0  0  0  0  0  0  0  0  0  0  0  0
   -2.1343   -2.0389    0.8255 C   0  0  0  0  0  0  0  0  0  0  0  0
   -0.2987   -3.5405    0.1081 C   0  0  0  0  0  0  0  0  0  0  0  0
    1.0124   -3.4368    0.3933 C   0  0  0  0  0  0  0  0  0  0  0  0
    2.6462   -1.8723    1.5613 C   0  0  0  0  0  0  0  0  0  0  0  0
    1.2648   -0.3507   -2.5156 C   0  0  0  0  0  0  0  0  0  0  0  0
   -1.0196   -1.1305   -3.2065 C   0  0  0  0  0  0  0  0  0  0  0  0
   -4.0912   -1.4299   -0.4392 C   0  0  0  0  0  0  0  0  0  0  0  0
   -3.5991   -0.3028    1.6256 C   0  0  0  0  0  0  0  0  0  0  0  0
    1.8153   -4.6648    0.7246 C   0  0  0  0  0  0  0  0  0  0  0  0
   -4.9918   -0.2807   -0.8981 C   0  0  0  0  0  0  0  0  0  0  0  0
   -4.4843    0.8837    1.2362 C   0  0  0  0  0  0  0  0  0  0  0  0
    3.3619   -0.5549    1.4715 C   0  0  0  0  0  0  0  0  0  0  0  0
   -6.6509    1.2426    0.0874 C   0  0  0  0  0  0  0  0  0  0  0  0
    4.8157    0.8036    0.7957 C   0  0  0  0  0  0  0  0  0  0  0  0
   -7.8100    0.6062   -0.2990 C   0  0  0  0  0  0  0  0  0  0  0  0
    5.9510    1.2232    0.0266 C   0  0  0  0  0  0  0  0  0  0  0  0
   -7.7591    3.2428    0.1174 C   0  0  0  0  0  0  0  0  0  0  0  0
   -8.9182    2.6064   -0.2691 C   0  0  0  0  0  0  0  0  0  0  0  0
    6.4240    2.5313    0.1297 C   0  0  0  0  0  0  0  0  0  0  0  0
    6.5821    0.3188   -0.8275 C   0  0  0  0  0  0  0  0  0  0  0  0
    7.5279    2.9351   -0.6211 C   0  0  0  0  0  0  0  0  0  0  0  0
    7.6861    0.7226   -1.5785 C   0  0  0  0  0  0  0  0  0  0  0  0
    8.1591    2.0307   -1.4753 C   0  0  0  0  0  0  0  0  0  0  0  0
   -0.9856   -0.2582   -0.7632 H   0  0  0  0  0  0  0  0  0  0  0  0
   -1.7658   -2.7771   -1.1553 H   0  0  0  0  0  0  0  0  0  0  0  0
    0.3749   -0.6597    1.1615 H   0  0  0  0  0  0  0  0  0  0  0  0
    1.3500    0.0128   -0.0925 H   0  0  0  0  0  0  0  0  0  0  0  0
    2.4028   -2.1629   -0.5432 H   0  0  0  0  0  0  0  0  0  0  0  0
    0.5272   -2.3394   -2.3818 H   0  0  0  0  0  0  0  0  0  0  0  0
   -1.5396   -1.7465    1.7015 H   0  0  0  0  0  0  0  0  0  0  0  0
   -2.7102   -2.9203    1.1411 H   0  0  0  0  0  0  0  0  0  0  0  0
   -0.7814   -4.5141    0.1615 H   0  0  0  0  0  0  0  0  0  0  0  0
    3.4034   -2.6601    1.6514 H   0  0  0  0  0  0  0  0  0  0  0  0
    2.0536   -1.8929    2.4845 H   0  0  0  0  0  0  0  0  0  0  0  0
    2.2022   -0.5995   -2.0137 H   0  0  0  0  0  0  0  0  0  0  0  0
    1.4990   -0.3617   -3.5872 H   0  0  0  0  0  0  0  0  0  0  0  0
    0.9860    0.6794   -2.2665 H   0  0  0  0  0  0  0  0  0  0  0  0
   -0.6605   -1.2068   -4.2390 H   0  0  0  0  0  0  0  0  0  0  0  0
   -1.8022   -1.8842   -3.0886 H   0  0  0  0  0  0  0  0  0  0  0  0
   -1.4794   -0.1429   -3.0902 H   0  0  0  0  0  0  0  0  0  0  0  0
   -4.7009   -2.1849    0.0758 H   0  0  0  0  0  0  0  0  0  0  0  0
   -3.6875   -1.9006   -1.3408 H   0  0  0  0  0  0  0  0  0  0  0  0
   -2.8025    0.0716    2.2802 H   0  0  0  0  0  0  0  0  0  0  0  0
   -4.1870   -1.0267    2.2061 H   0  0  0  0  0  0  0  0  0  0  0  0
    2.7062   -4.7189    0.0904 H   0  0  0  0  0  0  0  0  0  0  0  0
    1.2452   -5.5863    0.5638 H   0  0  0  0  0  0  0  0  0  0  0  0
    2.1282   -4.6520    1.7731 H   0  0  0  0  0  0  0  0  0  0  0  0
   -5.8052   -0.7052   -1.4975 H   0  0  0  0  0  0  0  0  0  0  0  0
   -4.4305    0.3989   -1.5527 H   0  0  0  0  0  0  0  0  0  0  0  0
   -3.8720    1.6911    0.8145 H   0  0  0  0  0  0  0  0  0  0  0  0
   -4.9653    1.2695    2.1435 H   0  0  0  0  0  0  0  0  0  0  0  0
   -7.8724   -0.4639   -0.4606 H   0  0  0  0  0  0  0  0  0  0  0  0
   -7.7227    4.3112    0.2902 H   0  0  0  0  0  0  0  0  0  0  0  0
   -9.8454    3.1459   -0.4177 H   0  0  0  0  0  0  0  0  0  0  0  0
    6.2436   -0.7085   -0.9359 H   0  0  0  0  0  0  0  0  0  0  0  0
    7.8961    3.9536   -0.5405 H   0  0  0  0  0  0  0  0  0  0  0  0
    8.1777    0.0188   -2.2438 H   0  0  0  0  0  0  0  0  0  0  0  0
    9.0187    2.3451   -2.0599 H   0  0  0  0  0  0  0  0  0  0  0  0
  1 32  1  0  0  0  0
  2 25  1  0  0  0  0
  2 27  1  0  0  0  0
  3 14  1  0  0  0  0
  3 20  1  0  0  0  0
  3 21  1  0  0  0  0
  4 23  1  0  0  0  0
  4 24  1  0  0  0  0
  4 26  1  0  0  0  0
  5  6  1  0  0  0  0
  5 25  2  0  0  0  0
  6 27  2  0  0  0  0
  7 26  2  0  0  0  0
  7 30  1  0  0  0  0
  8 28  2  0  0  0  0
  8 31  1  0  0  0  0
  9 10  1  0  0  0  0
  9 11  1  0  0  0  0
  9 13  1  0  0  0  0
  9 37  1  0  0  0  0
 10 14  1  0  0  0  0
 10 15  1  0  0  0  0
 10 38  1  0  0  0  0
 11 12  1  0  0  0  0
 11 39  1  0  0  0  0
 11 40  1  0  0  0  0
 12 16  1  0  0  0  0
 12 17  1  0  0  0  0
 12 41  1  0  0  0  0
 13 18  1  0  0  0  0
 13 19  1  0  0  0  0
 13 42  1  0  0  0  0
 14 43  1  0  0  0  0
 14 44  1  0  0  0  0
 15 16  2  0  0  0  0
 15 45  1  0  0  0  0
 16 22  1  0  0  0  0
 17 25  1  0  0  0  0
 17 46  1  0  0  0  0
 17 47  1  0  0  0  0
 18 48  1  0  0  0  0
 18 49  1  0  0  0  0
 18 50  1  0  0  0  0
 19 51  1  0  0  0  0
 19 52  1  0  0  0  0
 19 53  1  0  0  0  0
 20 23  1  0  0  0  0
 20 54  1  0  0  0  0
 20 55  1  0  0  0  0
 21 24  1  0  0  0  0
 21 56  1  0  0  0  0
 21 57  1  0  0  0  0
 22 58  1  0  0  0  0
 22 59  1  0  0  0  0
 22 60  1  0  0  0  0
 23 61  1  0  0  0  0
 23 62  1  0  0  0  0
 24 63  1  0  0  0  0
 24 64  1  0  0  0  0
 26 28  1  0  0  0  0
 27 29  1  0  0  0  0
 28 65  1  0  0  0  0
 29 32  1  0  0  0  0
 29 33  2  0  0  0  0
 30 31  2  0  0  0  0
 30 66  1  0  0  0  0
 31 67  1  0  0  0  0
 32 34  2  0  0  0  0
 33 35  1  0  0  0  0
 33 68  1  0  0  0  0
 34 36  1  0  0  0  0
 34 69  1  0  0  0  0
 35 36  2  0  0  0  0
 35 70  1  0  0  0  0
 36 71  1  0  0  0  0
M  END
> <PUBCHEM_COMPOUND_CID>
45784109

> <PUBCHEM_CONFORMER_RMSD>
1.2

> <PUBCHEM_CONFORMER_DIVERSEORDER>
5
105
55
36
11
86
67
113
38
100
88
78
70
69
47
98
110
29
104
14
84
25
111
108
91
79
72
16
121
50
52
81
107
93
76
92
43
60
96
83
75
120
21
51
35
9
118
57
65
26
46
115
77
109
42
58
22
101
95
32
116
90
59
3
13
94
66
68
85
7
89
64
37
119
19
39
80
40
82
122
28
112
53
4
106
54
41
74
103
49
102
48
18
30
20
15
27
99
23
117
10
45
114
44
2
123
71
31
61
24
62
33
97
8
34
87
63
12
17
56
1
6
73

> <PUBCHEM_MMFF94_PARTIAL_CHARGES>
39
1 -0.19
10 0.14
12 0.14
14 0.27
15 -0.29
16 -0.28
17 0.18
2 -0.28
20 0.27
21 0.27
22 0.14
23 0.37
24 0.37
25 0.3
26 0.41
27 0.43
28 0.16
29 0.05
3 -0.81
30 0.16
31 0.16
32 0.19
33 -0.15
34 -0.15
35 -0.15
36 -0.15
4 -0.84
45 0.15
5 -0.34
6 -0.34
65 0.15
66 0.15
67 0.15
68 0.15
69 0.15
7 -0.62
70 0.15
71 0.15
8 -0.62

> <PUBCHEM_EFFECTIVE_ROTOR_COUNT>
9

> <PUBCHEM_PHARMACOPHORE_FEATURES>
9
1 3 cation
1 8 acceptor
3 13 18 19 hydrophobe
3 4 7 26 cation
5 2 5 6 25 27 rings
6 29 32 33 34 35 36 rings
6 3 4 20 21 23 24 rings
6 7 8 26 28 30 31 rings
6 9 10 11 12 15 16 rings

> <PUBCHEM_HEAVY_ATOM_COUNT>
36

> <PUBCHEM_ATOM_DEF_STEREO_COUNT>
3

> <PUBCHEM_ATOM_UDEF_STEREO_COUNT>
0

> <PUBCHEM_BOND_DEF_STEREO_COUNT>
0

> <PUBCHEM_BOND_UDEF_STEREO_COUNT>
0

> <PUBCHEM_ISOTOPIC_ATOM_COUNT>
0

> <PUBCHEM_COMPONENT_COUNT>
1

> <PUBCHEM_CACTVS_TAUTO_COUNT>
1

> <PUBCHEM_CONFORMER_ID>
02BA9C2D00000005

> <PUBCHEM_MMFF94_ENERGY>
92.1287

> <PUBCHEM_FEATURE_SELFOVERLAP>
45.673

> <PUBCHEM_SHAPE_FINGERPRINT>
10100884 174 10735886062796660612
10693767 8 10447919577428553791
10952577 141 18336274543398907852
11297750 10 17099452372783072570
11621639 336 18267585706881235520
11828532 37 11599422750928120213
11991303 11 16988556961270640871
1200032 147 18186236238902412250
12047536 79 17024017165197249773
12124843 1 17845935233679112264
12218070 45 13985236590872286440
12422481 6 17095235947759210822
12522641 24 18263083211197285550
12539765 74 18342740676597808199
12660671 118 18057046800730538302
12838863 1 12535359965668852692
13150687 139 16630528436089180877
13165053 103 12462476680598837620
13782708 43 11815891280141529067
13944108 23 18339923719454154064
14400156 96 18186798055026684607
14428016 204 18113338613506508541
14664723 55 18340780302925608528
14840074 17 17241320404305180662
14904525 67 18123751117819628912
14931854 50 17775568636863420593
14951699 99 18259984855700588237
15183329 4 16916799504527749002
15198563 99 17697303381055267719
15320295 40 12967142575547440260
15347591 1 18408323285230462627
15350500 55 18186238424903706321
15840311 113 18114184103150745095
16067689 391 12031790301114349749
16993427 108 10879723048380264492
17852330 162 14691706884126376408
19053607 189 18338786858447855289
19303781 99 9367061108525242161
19841028 212 9295279565041317155
2026 5 11743851239287657429
20691028 202 18264205979977614284
20721686 146 18260833691303697036
20775438 99 10590599889739473469
21344244 181 12031493411573444213
23569914 152 18057906675585896950
23569943 247 10303813199090563605
24771293 8 17240764003971072631
25269216 80 17489013960458194663
38570 142 18272653467478455914
3918712 181 18412260640400290264
3986486 107 17561093484035080584
406291 66 10807943652159240940
4073 2 18261111855932033779
4169191 19 18409164377882455701
4408954 87 14562530695485545432
4461854 278 12612757912930817280
50009960 94 7853272208856248089
54583773 228 18411128161963812663
5718773 13 10015866478819412320
57527293 21 17531232968459351378
9689198 14 18260555558439075242

> <PUBCHEM_SHAPE_MULTIPOLES>
697.83
25.96
4.44
1.97
18.57
1.8
-1.13
-37.19
-3.05
-1.37
0.78
-1.55
0.36
-1.03

> <PUBCHEM_SHAPE_SELFOVERLAP>
1494.89

> <PUBCHEM_SHAPE_VOLUME>
387.5

> <PUBCHEM_COORDINATE_TYPE>
2
5
10

$$$$
