44716705
  -OEChem-12032416373D

 73 77  0     1  0  0  0  0  0999 V2000
   -2.1098   -1.7942    1.1618 S   0  0  0  0  0  0  0  0  0  0  0  0
    3.2395    1.8856   -0.8389 O   0  0  0  0  0  0  0  0  0  0  0  0
    7.3204   -1.4121   -0.8821 O   0  0  0  0  0  0  0  0  0  0  0  0
   -4.6444    1.5529   -0.9069 O   0  0  0  0  0  0  0  0  0  0  0  0
  -10.5424   -0.0567    0.6232 O   0  0  0  0  0  0  0  0  0  0  0  0
   -1.9585    0.3278   -0.3081 N   0  0  0  0  0  0  0  0  0  0  0  0
    7.4893    0.5007    0.4027 N   0  0  0  0  0  0  0  0  0  0  0  0
   -4.1634   -0.3668    0.3739 N   0  0  0  0  0  0  0  0  0  0  0  0
    1.8300   -1.5753    0.0010 C   0  0  1  0  0  0  0  0  0  0  0  0
    1.8725   -0.0021   -0.1351 C   0  0  1  0  0  0  0  0  0  0  0  0
    3.1322    0.4648   -0.9182 C   0  0  2  0  0  0  0  0  0  0  0  0
    4.4415   -0.1251   -0.3504 C   0  0  1  0  0  0  0  0  0  0  0  0
    3.1646   -2.0828    0.5955 C   0  0  0  0  0  0  0  0  0  0  0  0
    0.5183    0.5788   -0.7148 C   0  0  1  0  0  0  0  0  0  0  0  0
    4.3824   -1.6459   -0.2072 C   0  0  0  0  0  0  0  0  0  0  0  0
    0.6926   -1.9894    0.9863 C   0  0  0  0  0  0  0  0  0  0  0  0
    1.5897   -2.2711   -1.3641 C   0  0  0  0  0  0  0  0  0  0  0  0
    5.6574    0.2630   -1.2007 C   0  0  2  0  0  0  0  0  0  0  0  0
   -0.6674   -0.1235   -0.0976 C   0  0  0  0  0  0  0  0  0  0  0  0
   -0.5700   -1.2768    0.6529 C   0  0  0  0  0  0  0  0  0  0  0  0
    0.3815    2.0973   -0.5296 C   0  0  0  0  0  0  0  0  0  0  0  0
    5.5234   -0.2604   -2.6192 C   0  0  0  0  0  0  0  0  0  0  0  0
    6.8971   -0.3020   -0.5552 C   0  0  0  0  0  0  0  0  0  0  0  0
   -2.7987   -0.4674    0.3179 C   0  0  0  0  0  0  0  0  0  0  0  0
    7.0419    1.8221    0.8317 C   0  0  0  0  0  0  0  0  0  0  0  0
    8.6881    0.0961    1.1224 C   0  0  0  0  0  0  0  0  0  0  0  0
    7.8695    2.1178    2.0744 C   0  0  0  0  0  0  0  0  0  0  0  0
    9.1678    1.3667    1.8072 C   0  0  0  0  0  0  0  0  0  0  0  0
   -5.0076    0.6048   -0.2191 C   0  0  0  0  0  0  0  0  0  0  0  0
   -6.4670    0.4290    0.0022 C   0  0  0  0  0  0  0  0  0  0  0  0
   -7.3785    0.9280   -0.9283 C   0  0  0  0  0  0  0  0  0  0  0  0
   -6.9250   -0.2332    1.1413 C   0  0  0  0  0  0  0  0  0  0  0  0
   -8.7480    0.7651   -0.7198 C   0  0  0  0  0  0  0  0  0  0  0  0
   -8.2945   -0.3961    1.3499 C   0  0  0  0  0  0  0  0  0  0  0  0
   -9.2060    0.1030    0.4195 C   0  0  0  0  0  0  0  0  0  0  0  0
  -11.4183    0.4776   -0.3683 C   0  0  0  0  0  0  0  0  0  0  0  0
    1.9651    0.4031    0.8856 H   0  0  0  0  0  0  0  0  0  0  0  0
    2.9904    0.2101   -1.9707 H   0  0  0  0  0  0  0  0  0  0  0  0
    4.5749    0.2833    0.6595 H   0  0  0  0  0  0  0  0  0  0  0  0
    3.2752   -1.7102    1.6229 H   0  0  0  0  0  0  0  0  0  0  0  0
    3.1548   -3.1781    0.6677 H   0  0  0  0  0  0  0  0  0  0  0  0
    0.4848    0.3722   -1.7928 H   0  0  0  0  0  0  0  0  0  0  0  0
    4.3609   -2.1621   -1.1694 H   0  0  0  0  0  0  0  0  0  0  0  0
    5.2570   -2.0250    0.3323 H   0  0  0  0  0  0  0  0  0  0  0  0
    0.5475   -3.0766    0.9619 H   0  0  0  0  0  0  0  0  0  0  0  0
    0.9711   -1.7239    2.0146 H   0  0  0  0  0  0  0  0  0  0  0  0
    2.3285   -1.9799   -2.1159 H   0  0  0  0  0  0  0  0  0  0  0  0
    0.6048   -2.0443   -1.7832 H   0  0  0  0  0  0  0  0  0  0  0  0
    1.6458   -3.3608   -1.2571 H   0  0  0  0  0  0  0  0  0  0  0  0
    5.7407    1.3520   -1.2747 H   0  0  0  0  0  0  0  0  0  0  0  0
    0.5730    2.3901    0.5084 H   0  0  0  0  0  0  0  0  0  0  0  0
   -0.6246    2.4466   -0.7883 H   0  0  0  0  0  0  0  0  0  0  0  0
    1.0629    2.6482   -1.1817 H   0  0  0  0  0  0  0  0  0  0  0  0
    3.3311    2.1288    0.0982 H   0  0  0  0  0  0  0  0  0  0  0  0
    5.4310   -1.3462   -2.6989 H   0  0  0  0  0  0  0  0  0  0  0  0
    6.4275   -0.0019   -3.1863 H   0  0  0  0  0  0  0  0  0  0  0  0
    4.6933    0.1997   -3.1614 H   0  0  0  0  0  0  0  0  0  0  0  0
    7.2754    2.5300    0.0286 H   0  0  0  0  0  0  0  0  0  0  0  0
    5.9713    1.8563    1.0366 H   0  0  0  0  0  0  0  0  0  0  0  0
    8.3961   -0.6684    1.8509 H   0  0  0  0  0  0  0  0  0  0  0  0
    9.4283   -0.3308    0.4394 H   0  0  0  0  0  0  0  0  0  0  0  0
    7.3771    1.7008    2.9613 H   0  0  0  0  0  0  0  0  0  0  0  0
    8.0197    3.1886    2.2362 H   0  0  0  0  0  0  0  0  0  0  0  0
    9.7976    1.9480    1.1230 H   0  0  0  0  0  0  0  0  0  0  0  0
    9.7415    1.1654    2.7158 H   0  0  0  0  0  0  0  0  0  0  0  0
   -4.5929   -1.1288    0.8898 H   0  0  0  0  0  0  0  0  0  0  0  0
   -7.0416    1.4424   -1.8245 H   0  0  0  0  0  0  0  0  0  0  0  0
   -6.2528   -0.6070    1.9075 H   0  0  0  0  0  0  0  0  0  0  0  0
   -9.4004    1.1759   -1.4827 H   0  0  0  0  0  0  0  0  0  0  0  0
   -8.6462   -0.9062    2.2426 H   0  0  0  0  0  0  0  0  0  0  0  0
  -11.3293    1.5670   -0.4391 H   0  0  0  0  0  0  0  0  0  0  0  0
  -11.2775   -0.0142   -1.3368 H   0  0  0  0  0  0  0  0  0  0  0  0
  -12.4420    0.2610   -0.0459 H   0  0  0  0  0  0  0  0  0  0  0  0
  1 20  1  0  0  0  0
  1 24  1  0  0  0  0
  2 11  1  0  0  0  0
  2 54  1  0  0  0  0
  3 23  2  0  0  0  0
  4 29  2  0  0  0  0
  5 35  1  0  0  0  0
  5 36  1  0  0  0  0
  6 19  1  0  0  0  0
  6 24  2  0  0  0  0
  7 23  1  0  0  0  0
  7 25  1  0  0  0  0
  7 26  1  0  0  0  0
  8 24  1  0  0  0  0
  8 29  1  0  0  0  0
  8 66  1  0  0  0  0
  9 10  1  0  0  0  0
  9 13  1  0  0  0  0
  9 16  1  0  0  0  0
  9 17  1  0  0  0  0
 10 11  1  0  0  0  0
 10 14  1  0  0  0  0
 10 37  1  0  0  0  0
 11 12  1  0  0  0  0
 11 38  1  0  0  0  0
 12 15  1  0  0  0  0
 12 18  1  0  0  0  0
 12 39  1  0  0  0  0
 13 15  1  0  0  0  0
 13 40  1  0  0  0  0
 13 41  1  0  0  0  0
 14 19  1  0  0  0  0
 14 21  1  0  0  0  0
 14 42  1  0  0  0  0
 15 43  1  0  0  0  0
 15 44  1  0  0  0  0
 16 20  1  0  0  0  0
 16 45  1  0  0  0  0
 16 46  1  0  0  0  0
 17 47  1  0  0  0  0
 17 48  1  0  0  0  0
 17 49  1  0  0  0  0
 18 22  1  0  0  0  0
 18 23  1  0  0  0  0
 18 50  1  0  0  0  0
 19 20  2  0  0  0  0
 21 51  1  0  0  0  0
 21 52  1  0  0  0  0
 21 53  1  0  0  0  0
 22 55  1  0  0  0  0
 22 56  1  0  0  0  0
 22 57  1  0  0  0  0
 25 27  1  0  0  0  0
 25 58  1  0  0  0  0
 25 59  1  0  0  0  0
 26 28  1  0  0  0  0
 26 60  1  0  0  0  0
 26 61  1  0  0  0  0
 27 28  1  0  0  0  0
 27 62  1  0  0  0  0
 27 63  1  0  0  0  0
 28 64  1  0  0  0  0
 28 65  1  0  0  0  0
 29 30  1  0  0  0  0
 30 31  2  0  0  0  0
 30 32  1  0  0  0  0
 31 33  1  0  0  0  0
 31 67  1  0  0  0  0
 32 34  2  0  0  0  0
 32 68  1  0  0  0  0
 33 35  2  0  0  0  0
 33 69  1  0  0  0  0
 34 35  1  0  0  0  0
 34 70  1  0  0  0  0
 36 71  1  0  0  0  0
 36 72  1  0  0  0  0
 36 73  1  0  0  0  0
M  END
> <PUBCHEM_COMPOUND_CID>
44716705

> <PUBCHEM_CONFORMER_RMSD>
1

> <PUBCHEM_CONFORMER_DIVERSEORDER>
1
14
26
17
12
27
28
5
15
18
22
19
25
9
29
6
20
3
24
23
13
8
16
11
10
21
2
7
4

> <PUBCHEM_MMFF94_PARTIAL_CHARGES>
32
1 -0.08
11 0.28
14 0.18
16 0.18
18 0.06
19 0.05
2 -0.68
20 -0.14
23 0.57
24 0.44
25 0.3
26 0.3
29 0.54
3 -0.57
30 0.09
31 -0.15
32 -0.15
33 -0.15
34 -0.15
35 0.08
36 0.28
4 -0.57
5 -0.36
54 0.4
6 -0.57
66 0.37
67 0.15
68 0.15
69 0.15
7 -0.66
70 0.15
8 -0.49

> <PUBCHEM_EFFECTIVE_ROTOR_COUNT>
9.2

> <PUBCHEM_PHARMACOPHORE_FEATURES>
12
1 2 acceptor
1 2 donor
1 22 hydrophobe
1 3 acceptor
1 4 acceptor
1 5 acceptor
1 8 donor
5 1 6 19 20 24 rings
5 7 25 26 27 28 rings
6 30 31 32 33 34 35 rings
6 9 10 11 12 13 15 rings
6 9 10 14 16 19 20 rings

> <PUBCHEM_HEAVY_ATOM_COUNT>
36

> <PUBCHEM_ATOM_DEF_STEREO_COUNT>
5

> <PUBCHEM_ATOM_UDEF_STEREO_COUNT>
1

> <PUBCHEM_BOND_DEF_STEREO_COUNT>
0

> <PUBCHEM_BOND_UDEF_STEREO_COUNT>
0

> <PUBCHEM_ISOTOPIC_ATOM_COUNT>
0

> <PUBCHEM_COMPONENT_COUNT>
1

> <PUBCHEM_CACTVS_TAUTO_COUNT>
3

> <PUBCHEM_CONFORMER_ID>
02AA52A100000001

> <PUBCHEM_MMFF94_ENERGY>
114.3761

> <PUBCHEM_FEATURE_SELFOVERLAP>
60.979

> <PUBCHEM_SHAPE_FINGERPRINT>
10 15 17967811644200849747
10162869 55 18259982708760486983
11135926 11 17968085439444355527
11409948 35 12685358648569660128
11638347 137 13695586654603188801
12013929 94 17989204885694403271
12089408 11 16415483727642047323
12098696 120 18408602557093574143
12144603 126 15554449600214207949
12522641 33 17275389807141944246
12664476 115 17821726140099642997
12741549 16 16950559987236233269
12838862 33 18260537931629561263
13008946 113 17898859217314635948
13383668 254 16988575653396003235
13617811 41 11815902275890803378
13811026 1 18040720233973168915
13947947 74 18334014970216538809
14017578 135 18131081424270631089
14118638 360 18269560451507322835
14251764 46 17749392563567122479
14344974 52 18131347549387321579
15131766 46 15504657232956439670
15247644 1 13551193295378162169
15419008 145 16660634133630692676
15840311 113 17917715704153747156
16728433 110 18273213110839906969
1818759 1 9727633916998897313
18365409 1 17632291332799432087
18608769 82 17968101945520008627
19302320 297 17968659427827595020
20812841 46 18408316676013252594
21150785 3 16630526228270235618
21792934 111 18333730222020950776
232437 2 13839984418011609777
23576562 1 12750655409816111880
24893992 56 17530970215576483563
249057 3 18202003248687818623
3092352 35 16415479341731534406
3146122 72 16701445892783663984
335352 9 18187655699665648198
34797466 226 17418380173294623740
4073 2 16878239631647128611
4093350 32 17561367275488859148
4874694 18 17894910725108875931
5028188 123 17489582373889311237
5381727 24 16877662375399970931
5470011 282 16272211881568511796
57828716 16 15285625569880530116
6081469 158 13190336872547920614
6201320 215 13985205667846668495
67123 10 16415761929626909621

> <PUBCHEM_SHAPE_MULTIPOLES>
706.29
35.36
1.99
1.54
54.88
0.25
-0.11
-13.65
7.88
-3.01
0.28
-2.65
-0.16
3.06

> <PUBCHEM_SHAPE_SELFOVERLAP>
1502.548

> <PUBCHEM_SHAPE_VOLUME>
398.4

> <PUBCHEM_COORDINATE_TYPE>
2
5
10

$$$$
