45361082
  -OEChem-12032416233D

 58 61  0     1  0  0  0  0  0999 V2000
   -1.1596   -0.8967   -1.2848 O   0  0  0  0  0  0  0  0  0  0  0  0
    4.9373    1.4406   -0.4440 O   0  0  0  0  0  0  0  0  0  0  0  0
    5.2591   -3.3680    0.6667 O   0  0  0  0  0  0  0  0  0  0  0  0
    0.2509    2.0159    0.8406 N   0  0  1  0  0  0  0  0  0  0  0  0
   -2.9841    0.4302    0.1996 N   0  0  1  0  0  0  0  0  0  0  0  0
    0.0438    0.9689   -1.8397 N   0  0  0  0  0  0  0  0  0  0  0  0
    4.4576   -0.8215   -0.2350 N   0  0  0  0  0  0  0  0  0  0  0  0
   -4.6400   -2.1361   -0.6596 N   0  0  0  0  0  0  0  0  0  0  0  0
   -6.1334   -0.8731    0.3922 N   0  0  0  0  0  0  0  0  0  0  0  0
   -1.2273    2.0034    0.7742 C   0  0  1  0  0  0  0  0  0  0  0  0
   -1.9100    1.2436   -0.4008 C   0  0  1  0  0  0  0  0  0  0  0  0
   -1.9027    1.3668    2.0032 C   0  0  0  0  0  0  0  0  0  0  0  0
   -3.2870    1.0143    1.5014 C   0  0  0  0  0  0  0  0  0  0  0  0
    0.9134    2.7050   -0.3019 C   0  0  2  0  0  0  0  0  0  0  0  0
   -0.9899    0.3184   -1.1932 C   0  0  0  0  0  0  0  0  0  0  0  0
    0.3181    2.3839   -1.6868 C   0  0  0  0  0  0  0  0  0  0  0  0
    2.4146    2.3509   -0.3487 C   0  0  0  0  0  0  0  0  0  0  0  0
   -4.1684    0.3248   -0.6432 C   0  0  0  0  0  0  0  0  0  0  0  0
    0.7129    2.5861    2.1175 C   0  0  0  0  0  0  0  0  0  0  0  0
    2.6482    0.8562   -0.2455 C   0  0  0  0  0  0  0  0  0  0  0  0
   -5.0066   -0.8734   -0.2849 C   0  0  0  0  0  0  0  0  0  0  0  0
    4.1178    0.5270   -0.3193 C   0  0  0  0  0  0  0  0  0  0  0  0
    5.8616   -1.2279   -0.2933 C   0  0  0  0  0  0  0  0  0  0  0  0
    3.5076   -1.9389   -0.2142 C   0  0  0  0  0  0  0  0  0  0  0  0
   -5.5937   -2.9956   -0.1916 C   0  0  0  0  0  0  0  0  0  0  0  0
    6.1593   -2.2628    0.7823 C   0  0  0  0  0  0  0  0  0  0  0  0
    3.9049   -2.9490    0.8551 C   0  0  0  0  0  0  0  0  0  0  0  0
   -6.5046   -2.1929    0.4539 C   0  0  0  0  0  0  0  0  0  0  0  0
   -1.5782    3.0462    0.7311 H   0  0  0  0  0  0  0  0  0  0  0  0
   -2.3407    1.9800   -1.0924 H   0  0  0  0  0  0  0  0  0  0  0  0
   -1.9526    2.0519    2.8558 H   0  0  0  0  0  0  0  0  0  0  0  0
   -1.3734    0.4572    2.3174 H   0  0  0  0  0  0  0  0  0  0  0  0
   -3.7848    0.3058    2.1706 H   0  0  0  0  0  0  0  0  0  0  0  0
   -3.9003    1.9208    1.4210 H   0  0  0  0  0  0  0  0  0  0  0  0
    0.8304    3.7933   -0.1739 H   0  0  0  0  0  0  0  0  0  0  0  0
    0.9987    2.6717   -2.4959 H   0  0  0  0  0  0  0  0  0  0  0  0
   -0.6044    2.9501   -1.8498 H   0  0  0  0  0  0  0  0  0  0  0  0
    2.8615    2.7427   -1.2723 H   0  0  0  0  0  0  0  0  0  0  0  0
    2.9478    2.8680    0.4585 H   0  0  0  0  0  0  0  0  0  0  0  0
   -4.7809    1.2347   -0.6084 H   0  0  0  0  0  0  0  0  0  0  0  0
   -3.8742    0.1989   -1.6943 H   0  0  0  0  0  0  0  0  0  0  0  0
    0.6452    0.4213   -2.4474 H   0  0  0  0  0  0  0  0  0  0  0  0
    1.8022    2.5666    2.2105 H   0  0  0  0  0  0  0  0  0  0  0  0
    0.3589    1.9999    2.9713 H   0  0  0  0  0  0  0  0  0  0  0  0
    0.3778    3.6220    2.2426 H   0  0  0  0  0  0  0  0  0  0  0  0
    2.1883    0.3201   -1.0732 H   0  0  0  0  0  0  0  0  0  0  0  0
    2.2708    0.4608    0.7029 H   0  0  0  0  0  0  0  0  0  0  0  0
   -3.8142   -2.3897   -1.1857 H   0  0  0  0  0  0  0  0  0  0  0  0
    6.0189   -1.6601   -1.2886 H   0  0  0  0  0  0  0  0  0  0  0  0
    6.5268   -0.3656   -0.1883 H   0  0  0  0  0  0  0  0  0  0  0  0
    2.4797   -1.6126   -0.0496 H   0  0  0  0  0  0  0  0  0  0  0  0
    3.5582   -2.4024   -1.2065 H   0  0  0  0  0  0  0  0  0  0  0  0
   -5.5375   -4.0619   -0.3554 H   0  0  0  0  0  0  0  0  0  0  0  0
    6.0752   -1.8317    1.7869 H   0  0  0  0  0  0  0  0  0  0  0  0
    7.1781   -2.6448    0.6653 H   0  0  0  0  0  0  0  0  0  0  0  0
    3.2667   -3.8357    0.7897 H   0  0  0  0  0  0  0  0  0  0  0  0
    3.7936   -2.5286    1.8617 H   0  0  0  0  0  0  0  0  0  0  0  0
   -7.4087   -2.4982    0.9601 H   0  0  0  0  0  0  0  0  0  0  0  0
  1 15  2  0  0  0  0
  2 22  2  0  0  0  0
  3 26  1  0  0  0  0
  3 27  1  0  0  0  0
  4 10  1  0  0  0  0
  4 14  1  0  0  0  0
  4 19  1  0  0  0  0
  5 11  1  0  0  0  0
  5 13  1  0  0  0  0
  5 18  1  0  0  0  0
  6 15  1  0  0  0  0
  6 16  1  0  0  0  0
  6 42  1  0  0  0  0
  7 22  1  0  0  0  0
  7 23  1  0  0  0  0
  7 24  1  0  0  0  0
  8 21  1  0  0  0  0
  8 25  1  0  0  0  0
  8 48  1  0  0  0  0
  9 21  2  0  0  0  0
  9 28  1  0  0  0  0
 10 11  1  0  0  0  0
 10 12  1  0  0  0  0
 10 29  1  0  0  0  0
 11 15  1  0  0  0  0
 11 30  1  0  0  0  0
 12 13  1  0  0  0  0
 12 31  1  0  0  0  0
 12 32  1  0  0  0  0
 13 33  1  0  0  0  0
 13 34  1  0  0  0  0
 14 16  1  0  0  0  0
 14 17  1  0  0  0  0
 14 35  1  0  0  0  0
 16 36  1  0  0  0  0
 16 37  1  0  0  0  0
 17 20  1  0  0  0  0
 17 38  1  0  0  0  0
 17 39  1  0  0  0  0
 18 21  1  0  0  0  0
 18 40  1  0  0  0  0
 18 41  1  0  0  0  0
 19 43  1  0  0  0  0
 19 44  1  0  0  0  0
 19 45  1  0  0  0  0
 20 22  1  0  0  0  0
 20 46  1  0  0  0  0
 20 47  1  0  0  0  0
 23 26  1  0  0  0  0
 23 49  1  0  0  0  0
 23 50  1  0  0  0  0
 24 27  1  0  0  0  0
 24 51  1  0  0  0  0
 24 52  1  0  0  0  0
 25 28  2  0  0  0  0
 25 53  1  0  0  0  0
 26 54  1  0  0  0  0
 26 55  1  0  0  0  0
 27 56  1  0  0  0  0
 27 57  1  0  0  0  0
 28 58  1  0  0  0  0
M  END
> <PUBCHEM_COMPOUND_CID>
45361082

> <PUBCHEM_CONFORMER_RMSD>
1

> <PUBCHEM_CONFORMER_DIVERSEORDER>
1
114
94
119
60
79
90
50
113
8
95
2
31
120
100
88
42
56
98
85
112
108
81
35
17
23
58
61
91
21
66
80
93
69
107
71
101
9
118
13
70
104
16
57
48
77
87
105
62
28
67
46
76
103
14
72
40
36
54
29
116
11
82
3
64
74
97
4
6
65
25
59
122
92
121
110
18
5
43
115
63
109
15
47
117
12
10
55
22
20
51
32
96
75
73
78
41
106
111
49
34
102
38
30
99
52
27
68
86
83
37
89
24
33
84
53
44
7
19
26
39
45

> <PUBCHEM_MMFF94_PARTIAL_CHARGES>
30
1 -0.57
10 0.27
11 0.33
13 0.27
14 0.27
15 0.57
16 0.3
18 0.45
19 0.27
2 -0.57
20 0.06
21 0.01
22 0.57
23 0.3
24 0.3
25 -0.3
26 0.28
27 0.28
28 0.08
3 -0.56
4 -0.81
42 0.37
48 0.27
5 -0.81
53 0.15
58 0.15
6 -0.73
7 -0.66
8 0.03
9 -0.57

> <PUBCHEM_EFFECTIVE_ROTOR_COUNT>
8.6

> <PUBCHEM_PHARMACOPHORE_FEATURES>
12
1 1 acceptor
1 2 acceptor
1 3 acceptor
1 4 cation
1 5 cation
1 6 donor
1 8 donor
3 8 9 21 cation
5 5 10 11 12 13 rings
5 8 9 21 25 28 rings
6 3 7 23 24 26 27 rings
7 4 6 10 11 14 15 16 rings

> <PUBCHEM_HEAVY_ATOM_COUNT>
28

> <PUBCHEM_ATOM_DEF_STEREO_COUNT>
3

> <PUBCHEM_ATOM_UDEF_STEREO_COUNT>
0

> <PUBCHEM_BOND_DEF_STEREO_COUNT>
0

> <PUBCHEM_BOND_UDEF_STEREO_COUNT>
0

> <PUBCHEM_ISOTOPIC_ATOM_COUNT>
0

> <PUBCHEM_COMPONENT_COUNT>
1

> <PUBCHEM_CACTVS_TAUTO_COUNT>
3

> <PUBCHEM_CONFORMER_ID>
02B427BA00000001

> <PUBCHEM_MMFF94_ENERGY>
63.105

> <PUBCHEM_FEATURE_SELFOVERLAP>
60.935

> <PUBCHEM_SHAPE_FINGERPRINT>
10074138 170 17201087976390376289
10928967 22 17543085489359072226
117089 54 17914632566007301590
11963148 33 17692246757270425535
12107183 9 18267593407767666337
12166972 35 18186805785577472798
12422481 6 16056609763512622397
12596602 18 18060704987706007392
12633257 1 15266763499302682504
12895836 83 11602826825762633369
13533116 47 18340208612718553185
13911852 28 18334855000260795399
13955234 65 18053381282044947489
14251751 18 18410012174013164597
14251764 30 18334852809875070422
15019793 15 17907578382650064491
15064981 113 13118570572652919682
15163728 17 9834343143751020092
15361156 5 17459483173183697332
15475509 35 18198903797985595307
15475509 8 16732981973575094133
15927050 60 17553197010298115782
16728300 4 18343298128940057231
17959699 21 8718830881353506549
19319366 153 17982170329514640700
20028762 73 18412826855067095294
20567600 247 18339078310755068795
20775530 9 18339344319449337446
21033648 29 15123516865351961737
21033650 10 16009302089926118837
21304253 335 10375877398006996595
21315764 119 18113611318724217599
21344244 181 17386855092120810395
21475661 188 10807938180096092604
23559900 14 18262793090556155861
2838139 119 9151167649725279136
33382 64 18337393841640120969
345986 75 18060420205182466248
3472631 163 8718830889896078905
3680242 22 18129677416773013531
3886686 26 17409948937174686823
439807 62 18408042931587530835
46194498 28 15576716990935164352
465052 167 18272658994853336005
474113 269 17988633087448469511
484985 159 17831854651687261604
5104073 3 17775573056617162577
70251023 43 18188492492508180973
7288768 16 12031491199243182964
7970288 3 18337950065844055650

> <PUBCHEM_SHAPE_MULTIPOLES>
528.73
15.09
3.98
1.51
2.23
1.62
0.33
18.19
1.29
-1.96
0.77
0.35
-0.95
-1.62

> <PUBCHEM_SHAPE_SELFOVERLAP>
1108.839

> <PUBCHEM_SHAPE_VOLUME>
295.4

> <PUBCHEM_COORDINATE_TYPE>
2
5
10

$$$$
