11912964
  -OEChem-12032416203D

 46 50  0     1  0  0  0  0  0999 V2000
   -1.1920    0.0548    1.6028 O   0  0  0  0  0  0  0  0  0  0  0  0
   -1.8568    2.9517    0.7201 O   0  0  0  0  0  0  0  0  0  0  0  0
   -5.7960   -0.3170    0.3433 O   0  0  0  0  0  0  0  0  0  0  0  0
    3.1943   -1.6376    1.2033 O   0  0  0  0  0  0  0  0  0  0  0  0
   -3.5786   -0.1242   -0.3402 N   0  0  0  0  0  0  0  0  0  0  0  0
    1.0153    2.2996   -0.2513 N   0  0  0  0  0  0  0  0  0  0  0  0
    2.5099    0.4989   -0.0767 N   0  0  0  0  0  0  0  0  0  0  0  0
    2.7540    2.1455   -1.8191 N   0  0  0  0  0  0  0  0  0  0  0  0
   -1.9774    1.6802    0.0583 C   0  0  1  0  0  0  0  0  0  0  0  0
   -0.7817    0.8448    0.4724 C   0  0  1  0  0  0  0  0  0  0  0  0
   -3.1677    0.9180    0.5982 C   0  0  2  0  0  0  0  0  0  0  0  0
    0.2495    1.8638    0.8959 C   0  0  2  0  0  0  0  0  0  0  0  0
   -5.0208   -1.6886   -1.4576 C   0  0  0  0  0  0  0  0  0  0  0  0
   -2.5879    0.2805    1.8516 C   0  0  0  0  0  0  0  0  0  0  0  0
   -0.6053    3.0028    1.4216 C   0  0  0  0  0  0  0  0  0  0  0  0
   -5.5447   -3.0213   -1.0662 C   0  0  0  0  0  0  0  0  0  0  0  0
   -4.1013   -2.8537   -1.4409 C   0  0  0  0  0  0  0  0  0  0  0  0
   -4.8613   -0.6483   -0.3815 C   0  0  0  0  0  0  0  0  0  0  0  0
    2.1263    1.6279   -0.7299 C   0  0  0  0  0  0  0  0  0  0  0  0
    3.5962   -0.1305   -0.5705 C   0  0  0  0  0  0  0  0  0  0  0  0
    3.8330    1.4655   -2.2595 C   0  0  0  0  0  0  0  0  0  0  0  0
    4.3044    0.3106   -1.6697 C   0  0  0  0  0  0  0  0  0  0  0  0
    3.9782   -1.3210    0.1414 C   0  0  0  0  0  0  0  0  0  0  0  0
    4.9872   -2.2400   -0.0107 C   0  0  0  0  0  0  0  0  0  0  0  0
    4.8134   -3.1867    1.0271 C   0  0  0  0  0  0  0  0  0  0  0  0
    3.7097   -2.7759    1.7377 C   0  0  0  0  0  0  0  0  0  0  0  0
   -2.0161    1.8714   -1.0190 H   0  0  0  0  0  0  0  0  0  0  0  0
   -0.4537    0.1514   -0.3085 H   0  0  0  0  0  0  0  0  0  0  0  0
   -4.0305    1.5479    0.8367 H   0  0  0  0  0  0  0  0  0  0  0  0
    0.9129    1.5144    1.6954 H   0  0  0  0  0  0  0  0  0  0  0  0
   -5.3339   -1.3026   -2.4215 H   0  0  0  0  0  0  0  0  0  0  0  0
   -3.0627   -0.6655    2.1293 H   0  0  0  0  0  0  0  0  0  0  0  0
   -2.6588    0.9641    2.7048 H   0  0  0  0  0  0  0  0  0  0  0  0
   -0.8267    2.8656    2.4859 H   0  0  0  0  0  0  0  0  0  0  0  0
   -0.1573    3.9927    1.2905 H   0  0  0  0  0  0  0  0  0  0  0  0
   -5.7735   -3.2129   -0.0249 H   0  0  0  0  0  0  0  0  0  0  0  0
   -6.1894   -3.5388   -1.7662 H   0  0  0  0  0  0  0  0  0  0  0  0
   -3.7779   -3.2567   -2.3931 H   0  0  0  0  0  0  0  0  0  0  0  0
   -3.3697   -2.9504   -0.6478 H   0  0  0  0  0  0  0  0  0  0  0  0
   -2.8774   -0.4908   -0.9777 H   0  0  0  0  0  0  0  0  0  0  0  0
    0.7076    3.1099   -0.7771 H   0  0  0  0  0  0  0  0  0  0  0  0
    4.3244    1.8890   -3.1290 H   0  0  0  0  0  0  0  0  0  0  0  0
    5.1759   -0.1962   -2.0641 H   0  0  0  0  0  0  0  0  0  0  0  0
    5.7585   -2.2421   -0.7679 H   0  0  0  0  0  0  0  0  0  0  0  0
    5.4170   -4.0591    1.2315 H   0  0  0  0  0  0  0  0  0  0  0  0
    3.1908   -3.1626    2.6025 H   0  0  0  0  0  0  0  0  0  0  0  0
  1 10  1  0  0  0  0
  1 14  1  0  0  0  0
  2  9  1  0  0  0  0
  2 15  1  0  0  0  0
  3 18  2  0  0  0  0
  4 23  1  0  0  0  0
  4 26  1  0  0  0  0
  5 11  1  0  0  0  0
  5 18  1  0  0  0  0
  5 40  1  0  0  0  0
  6 12  1  0  0  0  0
  6 19  1  0  0  0  0
  6 41  1  0  0  0  0
  7 19  1  0  0  0  0
  7 20  2  0  0  0  0
  8 19  2  0  0  0  0
  8 21  1  0  0  0  0
  9 10  1  0  0  0  0
  9 11  1  0  0  0  0
  9 27  1  0  0  0  0
 10 12  1  0  0  0  0
 10 28  1  0  0  0  0
 11 14  1  0  0  0  0
 11 29  1  0  0  0  0
 12 15  1  0  0  0  0
 12 30  1  0  0  0  0
 13 16  1  0  0  0  0
 13 17  1  0  0  0  0
 13 18  1  0  0  0  0
 13 31  1  0  0  0  0
 14 32  1  0  0  0  0
 14 33  1  0  0  0  0
 15 34  1  0  0  0  0
 15 35  1  0  0  0  0
 16 17  1  0  0  0  0
 16 36  1  0  0  0  0
 16 37  1  0  0  0  0
 17 38  1  0  0  0  0
 17 39  1  0  0  0  0
 20 22  1  0  0  0  0
 20 23  1  0  0  0  0
 21 22  2  0  0  0  0
 21 42  1  0  0  0  0
 22 43  1  0  0  0  0
 23 24  2  0  0  0  0
 24 25  1  0  0  0  0
 24 44  1  0  0  0  0
 25 26  2  0  0  0  0
 25 45  1  0  0  0  0
 26 46  1  0  0  0  0
M  END
> <PUBCHEM_COMPOUND_CID>
11912964

> <PUBCHEM_CONFORMER_RMSD>
0.8

> <PUBCHEM_CONFORMER_DIVERSEORDER>
1
40
233
149
164
191
116
237
86
228
54
323
310
35
255
249
183
207
284
247
49
225
173
295
88
63
132
160
101
58
352
175
158
126
45
61
301
288
270
196
155
83
350
14
318
189
112
316
142
15
177
248
21
141
330
157
25
72
256
221
100
94
342
259
74
329
231
139
89
130
144
178
154
202
365
140
332
253
176
197
216
51
245
360
119
274
299
317
76
114
206
281
26
232
280
67
306
37
344
161
366
336
165
319
162
169
159
135
56
340
354
105
308
328
181
122
131
369
111
244
106
85
325
269
124
251
96
357
302
121
347
91
260
224
190
321
201
285
351
241
182
240
79
29
275
367
115
252
279
48
64
137
136
349
208
341
151
264
283
192
174
147
22
243
290
156
358
312
289
331
198
363
143
39
257
170
291
263
234
193
34
13
356
211
148
98
276
118
337
179
184
258
227
30
127
346
102
68
75
38
69
185
204
163
80
265
133
272
246
195
5
335
315
209
171
20
236
229
266
282
55
215
203
93
218
339
343
338
313
23
60
99
168
52
128
238
145
70
226
90
219
239
16
223
92
292
250
271
32
77
11
309
66
262
287
320
18
362
222
327
78
353
187
73
104
82
10
172
43
180
368
117
217
230
95
19
146
42
326
57
307
210
47
213
123
314
28
242
46
103
261
277
138
334
268
293
194
113
294
254
364
150
355
27
311
65
6
134
97
41
152
31
81
167
214
297
267
322
304
305
296
9
33
120
361
199
62
298
109
286
17
348
212
4
359
303
153
87
71
44
273
50
125
53
333
12
220
8
324
235
129
278
186
205
166
24
108
59
300
3
200
345
36
2
188
107
84
7
110

> <PUBCHEM_MMFF94_PARTIAL_CHARGES>
38
1 -0.56
10 0.28
11 0.3
12 0.37
13 -0.1
14 0.28
15 0.28
16 -0.2
17 -0.2
18 0.63
19 0.72
2 -0.56
20 0.36
21 0.16
22 -0.15
23 0.09
24 -0.15
25 -0.15
26 -0.01
3 -0.57
31 0.1
36 0.1
37 0.1
38 0.1
39 0.1
4 -0.28
40 0.37
41 0.4
42 0.15
43 0.15
44 0.15
45 0.15
46 0.15
5 -0.73
6 -0.87
7 -0.62
8 -0.62
9 0.28

> <PUBCHEM_EFFECTIVE_ROTOR_COUNT>
7.8

> <PUBCHEM_PHARMACOPHORE_FEATURES>
12
1 1 acceptor
1 2 acceptor
1 3 acceptor
1 4 acceptor
1 5 donor
1 6 donor
1 7 acceptor
4 6 7 8 19 cation
5 1 9 10 11 14 rings
5 2 9 10 12 15 rings
5 4 23 24 25 26 rings
6 7 8 19 20 21 22 rings

> <PUBCHEM_HEAVY_ATOM_COUNT>
26

> <PUBCHEM_ATOM_DEF_STEREO_COUNT>
4

> <PUBCHEM_ATOM_UDEF_STEREO_COUNT>
0

> <PUBCHEM_BOND_DEF_STEREO_COUNT>
0

> <PUBCHEM_BOND_UDEF_STEREO_COUNT>
0

> <PUBCHEM_ISOTOPIC_ATOM_COUNT>
0

> <PUBCHEM_COMPONENT_COUNT>
1

> <PUBCHEM_CACTVS_TAUTO_COUNT>
6

> <PUBCHEM_CONFORMER_ID>
00B5C70400000001

> <PUBCHEM_MMFF94_ENERGY>
59.8449

> <PUBCHEM_FEATURE_SELFOVERLAP>
61.619

> <PUBCHEM_SHAPE_FINGERPRINT>
10042902 136 18126573323686430030
10074138 170 17201370563963979185
10462674 125 12028649090972829997
10622 236 18189608346180362098
10928967 22 18199188558808167735
11069576 57 18333453140701085702
11135609 149 17459447997707315726
11135926 11 17677921044251513836
11186622 123 17982445203005239831
11796584 16 17988368156422044909
12788726 201 18270976660600904369
13383661 66 16963801685296445651
14251751 18 18272922821920209979
14480069 147 18187936126818635771
14848178 5 18341880888278961943
15250474 111 18410858732930398623
15342816 4 18201445821392790628
15537594 2 18339938107373101187
15728490 51 18343575258053247098
16989713 51 17467060853537807210
17134984 74 18117557555222704023
17138139 8 18268152139857097926
20626108 58 18412821361513052336
20645477 70 17530977886172082120
20775438 99 17834653256689062163
208703 8 18343301474572089334
21458453 9 15122075530025238502
235170 7 16878222073382718887
23559900 14 17749685047057053616
25147074 1 18265070045250054200
25222932 49 17914885672254477364
312425 83 17530953718316982341
34797466 226 16153991365422532087
3882209 13 16158178069204414954
392239 28 13973959883347573844
4017518 198 16825866263246707478
439807 62 18335700598624906175
44062 13 18335976455398784709
46194498 28 15720827768184777820
463206 1 18411418431921007939
5104073 3 17417819517085782563
59025328 239 17822285765336894788
6034566 193 8141798460788012639
7471813 234 18335136454242548482
7970288 3 18343295968476801911
960060 61 18187646946226860621

> <PUBCHEM_SHAPE_MULTIPOLES>
491.67
13.24
4.06
1.89
6.79
1.24
-0.27
13.26
-3.73
-0.46
0.43
-1.01
-0.02
-4.99

> <PUBCHEM_SHAPE_SELFOVERLAP>
1075.06

> <PUBCHEM_SHAPE_VOLUME>
266.6

> <PUBCHEM_COORDINATE_TYPE>
2
5
10

$$$$
