26743066
  -OEChem-12032416183D

 63 67  0     1  0  0  0  0  0999 V2000
   -0.1403   -2.8517    1.7882 O   0  0  0  0  0  0  0  0  0  0  0  0
   -6.3683    1.9210    1.2970 O   0  0  0  0  0  0  0  0  0  0  0  0
    3.3024    1.9034    1.5036 O   0  0  0  0  0  0  0  0  0  0  0  0
   -7.6380    2.9203   -1.9066 O   0  0  0  0  0  0  0  0  0  0  0  0
   -8.5389    3.3037    0.1447 O   0  0  0  0  0  0  0  0  0  0  0  0
    1.3476   -2.0040    0.2179 N   0  0  0  0  0  0  0  0  0  0  0  0
   -4.3772   -3.0767   -1.4057 N   0  0  0  0  0  0  0  0  0  0  0  0
    4.7022    0.5521    0.1373 N   0  0  0  0  0  0  0  0  0  0  0  0
    5.4947    2.5376    0.8840 N   0  0  0  0  0  0  0  0  0  0  0  0
   -5.2075    1.2073    1.5696 N   0  0  0  0  0  0  0  0  0  0  0  0
   -2.4097   -2.1543    0.5904 C   0  0  1  0  0  0  0  0  0  0  0  0
   -3.6219   -1.2977    0.1532 C   0  0  2  0  0  0  0  0  0  0  0  0
   -2.7306   -3.6386    0.3479 C   0  0  0  0  0  0  0  0  0  0  0  0
   -1.0919   -1.7629   -0.0886 C   0  0  0  0  0  0  0  0  0  0  0  0
   -4.0819   -1.6498   -1.2714 C   0  0  0  0  0  0  0  0  0  0  0  0
    3.8484   -0.5831   -0.1125 C   0  0  0  0  0  0  0  0  0  0  0  0
   -3.2192   -3.9047   -1.0753 C   0  0  0  0  0  0  0  0  0  0  0  0
   -3.3705    0.2054    0.2804 C   0  0  0  0  0  0  0  0  0  0  0  0
    3.4939   -1.2925    1.1982 C   0  0  0  0  0  0  0  0  0  0  0  0
    2.5786   -0.1585   -0.8581 C   0  0  0  0  0  0  0  0  0  0  0  0
    2.5310   -2.4516    0.9550 C   0  0  0  0  0  0  0  0  0  0  0  0
    1.6334   -1.3411   -1.0604 C   0  0  0  0  0  0  0  0  0  0  0  0
    0.0749   -2.2585    0.7280 C   0  0  0  0  0  0  0  0  0  0  0  0
   -4.6593    0.9696    0.3746 C   0  0  0  0  0  0  0  0  0  0  0  0
    6.0046    0.7092   -0.3519 C   0  0  0  0  0  0  0  0  0  0  0  0
    4.3539    1.6860    0.9181 C   0  0  0  0  0  0  0  0  0  0  0  0
    6.4859    1.9324    0.1111 C   0  0  0  0  0  0  0  0  0  0  0  0
   -5.4219    1.5040   -0.6783 C   0  0  0  0  0  0  0  0  0  0  0  0
    6.7740   -0.1143   -1.1470 C   0  0  0  0  0  0  0  0  0  0  0  0
    7.7480    2.3922   -0.1931 C   0  0  0  0  0  0  0  0  0  0  0  0
   -6.4850    2.0913   -0.0449 C   0  0  0  0  0  0  0  0  0  0  0  0
    8.0603    0.3313   -1.4696 C   0  0  0  0  0  0  0  0  0  0  0  0
    8.5418    1.5708   -0.9980 C   0  0  0  0  0  0  0  0  0  0  0  0
   -7.6133    2.8022   -0.5377 C   0  0  0  0  0  0  0  0  0  0  0  0
   -2.3147   -2.0048    1.6749 H   0  0  0  0  0  0  0  0  0  0  0  0
   -4.4459   -1.5658    0.8332 H   0  0  0  0  0  0  0  0  0  0  0  0
   -3.5141   -3.9478    1.0533 H   0  0  0  0  0  0  0  0  0  0  0  0
   -1.8660   -4.2776    0.5571 H   0  0  0  0  0  0  0  0  0  0  0  0
   -0.9883   -0.6752   -0.1409 H   0  0  0  0  0  0  0  0  0  0  0  0
   -1.0315   -2.1650   -1.1032 H   0  0  0  0  0  0  0  0  0  0  0  0
   -4.9990   -1.1091   -1.5221 H   0  0  0  0  0  0  0  0  0  0  0  0
   -3.3266   -1.3542   -2.0102 H   0  0  0  0  0  0  0  0  0  0  0  0
    4.3806   -1.3017   -0.7460 H   0  0  0  0  0  0  0  0  0  0  0  0
   -2.4186   -3.7489   -1.8066 H   0  0  0  0  0  0  0  0  0  0  0  0
   -3.5120   -4.9577   -1.1553 H   0  0  0  0  0  0  0  0  0  0  0  0
   -2.7929    0.5863   -0.5708 H   0  0  0  0  0  0  0  0  0  0  0  0
   -2.7804    0.4142    1.1824 H   0  0  0  0  0  0  0  0  0  0  0  0
    3.0250   -0.5956    1.9030 H   0  0  0  0  0  0  0  0  0  0  0  0
    4.4039   -1.6644    1.6843 H   0  0  0  0  0  0  0  0  0  0  0  0
    2.8406    0.2750   -1.8308 H   0  0  0  0  0  0  0  0  0  0  0  0
    2.0435    0.6205   -0.3020 H   0  0  0  0  0  0  0  0  0  0  0  0
    3.0138   -3.2322    0.3553 H   0  0  0  0  0  0  0  0  0  0  0  0
    2.2478   -2.9030    1.9110 H   0  0  0  0  0  0  0  0  0  0  0  0
    0.7276   -0.9926   -1.5586 H   0  0  0  0  0  0  0  0  0  0  0  0
    2.0943   -2.0896   -1.7160 H   0  0  0  0  0  0  0  0  0  0  0  0
   -4.6695   -3.2723   -2.3627 H   0  0  0  0  0  0  0  0  0  0  0  0
    5.5848    3.4366    1.3410 H   0  0  0  0  0  0  0  0  0  0  0  0
   -5.2237    1.4682   -1.7397 H   0  0  0  0  0  0  0  0  0  0  0  0
    6.4228   -1.0686   -1.5188 H   0  0  0  0  0  0  0  0  0  0  0  0
    8.1164    3.3442    0.1701 H   0  0  0  0  0  0  0  0  0  0  0  0
    8.7014   -0.2858   -2.0940 H   0  0  0  0  0  0  0  0  0  0  0  0
    9.5460    1.8891   -1.2662 H   0  0  0  0  0  0  0  0  0  0  0  0
   -8.4281    3.4152   -2.2119 H   0  0  0  0  0  0  0  0  0  0  0  0
  1 23  2  0  0  0  0
  2 10  1  0  0  0  0
  2 31  1  0  0  0  0
  3 26  2  0  0  0  0
  4 34  1  0  0  0  0
  4 63  1  0  0  0  0
  5 34  2  0  0  0  0
  6 21  1  0  0  0  0
  6 22  1  0  0  0  0
  6 23  1  0  0  0  0
  7 15  1  0  0  0  0
  7 17  1  0  0  0  0
  7 56  1  0  0  0  0
  8 16  1  0  0  0  0
  8 25  1  0  0  0  0
  8 26  1  0  0  0  0
  9 26  1  0  0  0  0
  9 27  1  0  0  0  0
  9 57  1  0  0  0  0
 10 24  2  0  0  0  0
 11 12  1  0  0  0  0
 11 13  1  0  0  0  0
 11 14  1  0  0  0  0
 11 35  1  0  0  0  0
 12 15  1  0  0  0  0
 12 18  1  0  0  0  0
 12 36  1  0  0  0  0
 13 17  1  0  0  0  0
 13 37  1  0  0  0  0
 13 38  1  0  0  0  0
 14 23  1  0  0  0  0
 14 39  1  0  0  0  0
 14 40  1  0  0  0  0
 15 41  1  0  0  0  0
 15 42  1  0  0  0  0
 16 19  1  0  0  0  0
 16 20  1  0  0  0  0
 16 43  1  0  0  0  0
 17 44  1  0  0  0  0
 17 45  1  0  0  0  0
 18 24  1  0  0  0  0
 18 46  1  0  0  0  0
 18 47  1  0  0  0  0
 19 21  1  0  0  0  0
 19 48  1  0  0  0  0
 19 49  1  0  0  0  0
 20 22  1  0  0  0  0
 20 50  1  0  0  0  0
 20 51  1  0  0  0  0
 21 52  1  0  0  0  0
 21 53  1  0  0  0  0
 22 54  1  0  0  0  0
 22 55  1  0  0  0  0
 24 28  1  0  0  0  0
 25 27  1  0  0  0  0
 25 29  2  0  0  0  0
 27 30  2  0  0  0  0
 28 31  2  0  0  0  0
 28 58  1  0  0  0  0
 29 32  1  0  0  0  0
 29 59  1  0  0  0  0
 30 33  1  0  0  0  0
 30 60  1  0  0  0  0
 31 34  1  0  0  0  0
 32 33  2  0  0  0  0
 32 61  1  0  0  0  0
 33 62  1  0  0  0  0
M  END
> <PUBCHEM_COMPOUND_CID>
26743066

> <PUBCHEM_CONFORMER_RMSD>
1.2

> <PUBCHEM_CONFORMER_DIVERSEORDER>
1
120
110
177
122
108
212
166
184
77
109
211
33
34
136
176
63
196
55
43
204
191
27
182
71
127
38
170
49
161
173
57
26
155
126
137
85
29
203
125
118
174
39
60
156
207
195
111
159
59
154
158
186
44
99
135
132
93
209
140
190
94
139
74
80
82
179
181
17
79
178
163
50
20
89
96
201
6
202
128
175
185
11
103
75
101
180
68
200
116
172
86
9
21
30
117
192
144
53
157
183
8
199
100
151
23
148
143
138
147
15
107
197
13
35
87
81
56
48
168
121
24
142
54
141
16
84
70
198
194
98
45
115
106
205
131
14
150
104
3
65
37
58
61
167
97
32
62
165
188
164
162
187
22
133
160
64
193
171
47
78
7
67
69
12
152
95
19
123
146
66
28
206
92
189
4
119
72
153
88
10
129
145
46
91
25
208
105
41
113
102
90
210
5
130
18
149
42
73
83
114
40
52
169
51
134
124
112
2
36
31
76

> <PUBCHEM_MMFF94_PARTIAL_CHARGES>
37
1 -0.57
10 -0.41
14 0.06
15 0.27
16 0.3
17 0.27
18 0.18
2 -0.02
21 0.3
22 0.3
23 0.57
24 0.11
25 0.12
26 0.69
27 0.12
28 -0.15
29 -0.15
3 -0.57
30 -0.15
31 0.05
32 -0.15
33 -0.15
34 0.81
4 -0.65
5 -0.57
56 0.36
57 0.37
58 0.15
59 0.15
6 -0.66
60 0.15
61 0.15
62 0.15
63 0.5
7 -0.9
8 -0.48
9 -0.55

> <PUBCHEM_EFFECTIVE_ROTOR_COUNT>
9.4

> <PUBCHEM_PHARMACOPHORE_FEATURES>
14
1 1 acceptor
1 10 acceptor
1 3 acceptor
1 4 acceptor
1 5 acceptor
1 7 cation
1 7 donor
1 9 donor
3 4 5 34 anion
5 2 10 24 28 31 rings
5 8 9 25 26 27 rings
6 25 27 29 30 32 33 rings
6 6 16 19 20 21 22 rings
6 7 11 12 13 15 17 rings

> <PUBCHEM_HEAVY_ATOM_COUNT>
34

> <PUBCHEM_ATOM_DEF_STEREO_COUNT>
2

> <PUBCHEM_ATOM_UDEF_STEREO_COUNT>
0

> <PUBCHEM_BOND_DEF_STEREO_COUNT>
0

> <PUBCHEM_BOND_UDEF_STEREO_COUNT>
0

> <PUBCHEM_ISOTOPIC_ATOM_COUNT>
0

> <PUBCHEM_COMPONENT_COUNT>
1

> <PUBCHEM_CACTVS_TAUTO_COUNT>
2

> <PUBCHEM_CONFORMER_ID>
0198111A00000001

> <PUBCHEM_MMFF94_ENERGY>
73.9183

> <PUBCHEM_FEATURE_SELFOVERLAP>
71.207

> <PUBCHEM_SHAPE_FINGERPRINT>
10055352 69 18342176679420855265
10280341 67 18341316873611988912
10454371 7 18273215335168339775
10533779 1 18335972108586692253
10816530 90 18337953386222702922
10864689 126 18272649043672931352
11828532 37 12102978185560061917
11963148 33 10375333093298807068
1200032 147 18113901528973416146
12047536 79 15865179184268590125
12522641 68 18342736304495219727
12895837 130 18409452518141578975
12988421 55 16805315613260758907
13540713 5 18263342768634449851
13690498 29 17559105695803403079
14118638 360 18187637059323830827
14359421 15 13038902197376206325
14394314 77 18335986385574890525
14664723 55 18409177592521275820
14931854 50 17988644064636298353
15064981 113 17059774395396836789
15183329 4 18201162165469472746
15347591 1 18409730634391658507
15350500 55 17894910685947598853
1577012 14 18334292081021134482
15803439 3 16988841674853432279
19304152 47 17749108877146471453
2026 5 10663821858065455685
20691028 202 18260551125436824261
21033648 29 17603874381390388083
21585482 111 18260828163929245797
21792965 78 12750699347912578652
22149856 69 12035723181334371388
23522609 53 16951703578756367790
25269216 80 17560506388344571845
2838139 119 18270120257339208442
3472631 163 18343016649942464615
354706 132 18334016132976250351
3918712 181 18336262336922925969
397830 11 11097850839857921238
3986486 107 18341902905220117268
406291 66 10087632698324468701
4258327 124 18412821362161703955
42767 28 18131068264147619968
44880568 143 18267309910161701876
5104073 3 17894624877169785946
563151 97 18410569608860443015
5718773 13 10159693594875190513
6086070 43 17917992806663762346
6327066 14 18411136905757669295
6376802 90 18270974538793024462
6898599 12 18271800259651583263
9980921 7 18040712572558511749

> <PUBCHEM_SHAPE_MULTIPOLES>
645.45
26.32
4.66
1.42
6.89
1.26
0.04
-31.97
7.33
-8.58
0.08
-0.22
0.11
-0.1

> <PUBCHEM_SHAPE_SELFOVERLAP>
1390.73

> <PUBCHEM_SHAPE_VOLUME>
349.1

> <PUBCHEM_COORDINATE_TYPE>
2
5
10

$$$$
