11885943
  -OEChem-12032416123D

 49 51  0     1  0  0  0  0  0999 V2000
    2.0226    1.2188    0.9297 O   0  0  0  0  0  0  0  0  0  0  0  0
    2.1240    2.4037   -1.8969 O   0  0  0  0  0  0  0  0  0  0  0  0
    4.4435    0.3416   -0.1078 O   0  0  0  0  0  0  0  0  0  0  0  0
   -2.2850    3.2447    0.4368 O   0  0  0  0  0  0  0  0  0  0  0  0
    4.3647   -1.8700   -0.7222 O   0  0  0  0  0  0  0  0  0  0  0  0
   -3.1682   -2.7561   -0.8370 O   0  0  0  0  0  0  0  0  0  0  0  0
   -5.4671   -2.8642   -0.8830 O   0  0  0  0  0  0  0  0  0  0  0  0
   -0.9232    1.4447   -0.0967 N   0  0  0  0  0  0  0  0  0  0  0  0
    5.8822   -1.1136    0.8612 N   0  0  0  0  0  0  0  0  0  0  0  0
    1.2071    1.4743   -1.2823 C   0  0  1  0  0  0  0  0  0  0  0  0
    2.0271    0.5912   -0.3634 C   0  0  1  0  0  0  0  0  0  0  0  0
    0.2760    2.2071   -0.3448 C   0  0  2  0  0  0  0  0  0  0  0  0
    3.3943    0.6358   -1.0023 C   0  0  1  0  0  0  0  0  0  0  0  0
    1.1195    2.3351    0.9120 C   0  0  0  0  0  0  0  0  0  0  0  0
    3.4624    2.0579   -1.5115 C   0  0  0  0  0  0  0  0  0  0  0  0
   -2.1204    2.0379    0.2788 C   0  0  0  0  0  0  0  0  0  0  0  0
    4.8562   -0.9701   -0.0490 C   0  0  0  0  0  0  0  0  0  0  0  0
   -3.2566    1.1124    0.5226 C   0  0  0  0  0  0  0  0  0  0  0  0
   -3.3045   -0.1206   -0.1279 C   0  0  0  0  0  0  0  0  0  0  0  0
   -4.2761    1.4769    1.4021 C   0  0  0  0  0  0  0  0  0  0  0  0
    6.5291   -2.3730    1.1486 C   0  0  0  0  0  0  0  0  0  0  0  0
   -4.3715   -0.9891    0.1013 C   0  0  0  0  0  0  0  0  0  0  0  0
   -5.3432    0.6084    1.6312 C   0  0  0  0  0  0  0  0  0  0  0  0
   -5.3909   -0.6246    0.9808 C   0  0  0  0  0  0  0  0  0  0  0  0
    5.7061   -3.2147    2.1019 C   0  0  0  0  0  0  0  0  0  0  0  0
   -4.4222   -2.2750   -0.5767 C   0  0  0  0  0  0  0  0  0  0  0  0
   -3.0859   -4.0196   -1.5053 C   0  0  0  0  0  0  0  0  0  0  0  0
    0.7065    0.9219   -2.0837 H   0  0  0  0  0  0  0  0  0  0  0  0
    1.6308   -0.4212   -0.2430 H   0  0  0  0  0  0  0  0  0  0  0  0
   -0.0068    3.1987   -0.7145 H   0  0  0  0  0  0  0  0  0  0  0  0
    3.4085   -0.0258   -1.8796 H   0  0  0  0  0  0  0  0  0  0  0  0
    0.5377    2.3437    1.8386 H   0  0  0  0  0  0  0  0  0  0  0  0
    1.7310    3.2436    0.8814 H   0  0  0  0  0  0  0  0  0  0  0  0
    4.1304    2.1605   -2.3720 H   0  0  0  0  0  0  0  0  0  0  0  0
    3.8016    2.7600   -0.7416 H   0  0  0  0  0  0  0  0  0  0  0  0
   -0.8349    0.4339   -0.0994 H   0  0  0  0  0  0  0  0  0  0  0  0
    6.1958   -0.2873    1.3614 H   0  0  0  0  0  0  0  0  0  0  0  0
   -2.5413   -0.3948   -0.8509 H   0  0  0  0  0  0  0  0  0  0  0  0
   -4.2547    2.4310    1.9220 H   0  0  0  0  0  0  0  0  0  0  0  0
    7.5077   -2.1491    1.5839 H   0  0  0  0  0  0  0  0  0  0  0  0
    6.6824   -2.9124    0.2079 H   0  0  0  0  0  0  0  0  0  0  0  0
   -6.1361    0.8914    2.3174 H   0  0  0  0  0  0  0  0  0  0  0  0
   -6.2280   -1.2907    1.1732 H   0  0  0  0  0  0  0  0  0  0  0  0
    6.2224   -4.1533    2.3251 H   0  0  0  0  0  0  0  0  0  0  0  0
    4.7271   -3.4571    1.6757 H   0  0  0  0  0  0  0  0  0  0  0  0
    5.5357   -2.6843    3.0448 H   0  0  0  0  0  0  0  0  0  0  0  0
   -3.5544   -4.7989   -0.8970 H   0  0  0  0  0  0  0  0  0  0  0  0
   -3.5622   -3.9576   -2.4882 H   0  0  0  0  0  0  0  0  0  0  0  0
   -2.0294   -4.2651   -1.6403 H   0  0  0  0  0  0  0  0  0  0  0  0
  1 11  1  0  0  0  0
  1 14  1  0  0  0  0
  2 10  1  0  0  0  0
  2 15  1  0  0  0  0
  3 13  1  0  0  0  0
  3 17  1  0  0  0  0
  4 16  2  0  0  0  0
  5 17  2  0  0  0  0
  6 26  1  0  0  0  0
  6 27  1  0  0  0  0
  7 26  2  0  0  0  0
  8 12  1  0  0  0  0
  8 16  1  0  0  0  0
  8 36  1  0  0  0  0
  9 17  1  0  0  0  0
  9 21  1  0  0  0  0
  9 37  1  0  0  0  0
 10 11  1  0  0  0  0
 10 12  1  0  0  0  0
 10 28  1  0  0  0  0
 11 13  1  0  0  0  0
 11 29  1  0  0  0  0
 12 14  1  0  0  0  0
 12 30  1  0  0  0  0
 13 15  1  0  0  0  0
 13 31  1  0  0  0  0
 14 32  1  0  0  0  0
 14 33  1  0  0  0  0
 15 34  1  0  0  0  0
 15 35  1  0  0  0  0
 16 18  1  0  0  0  0
 18 19  2  0  0  0  0
 18 20  1  0  0  0  0
 19 22  1  0  0  0  0
 19 38  1  0  0  0  0
 20 23  2  0  0  0  0
 20 39  1  0  0  0  0
 21 25  1  0  0  0  0
 21 40  1  0  0  0  0
 21 41  1  0  0  0  0
 22 24  2  0  0  0  0
 22 26  1  0  0  0  0
 23 24  1  0  0  0  0
 23 42  1  0  0  0  0
 24 43  1  0  0  0  0
 25 44  1  0  0  0  0
 25 45  1  0  0  0  0
 25 46  1  0  0  0  0
 27 47  1  0  0  0  0
 27 48  1  0  0  0  0
 27 49  1  0  0  0  0
M  END
> <PUBCHEM_COMPOUND_CID>
11885943

> <PUBCHEM_CONFORMER_RMSD>
1

> <PUBCHEM_CONFORMER_DIVERSEORDER>
1
71
29
5
62
44
72
64
73
33
67
65
58
43
7
59
70
9
78
17
48
39
80
51
49
77
56
69
81
23
68
32
14
57
38
42
11
79
61
53
27
19
8
75
63
20
21
26
37
35
66
6
28
25
76
15
18
54
82
36
10
41
30
47
34
31
40
55
83
50
46
3
45
60
52
12
22
16
2
4
74
24
13

> <PUBCHEM_MMFF94_PARTIAL_CHARGES>
32
1 -0.56
10 0.28
11 0.28
12 0.3
13 0.28
14 0.28
15 0.28
16 0.54
17 0.78
18 0.09
19 -0.15
2 -0.56
20 -0.15
21 0.3
22 0.09
23 -0.15
24 -0.15
26 0.63
27 0.28
3 -0.43
36 0.37
37 0.37
38 0.15
39 0.15
4 -0.57
42 0.15
43 0.15
5 -0.57
6 -0.43
7 -0.57
8 -0.73
9 -0.73

> <PUBCHEM_EFFECTIVE_ROTOR_COUNT>
10.2

> <PUBCHEM_PHARMACOPHORE_FEATURES>
10
1 1 acceptor
1 2 acceptor
1 4 acceptor
1 5 acceptor
1 7 acceptor
1 8 donor
1 9 donor
5 1 10 11 12 14 rings
5 2 10 11 13 15 rings
6 18 19 20 22 23 24 rings

> <PUBCHEM_HEAVY_ATOM_COUNT>
27

> <PUBCHEM_ATOM_DEF_STEREO_COUNT>
4

> <PUBCHEM_ATOM_UDEF_STEREO_COUNT>
0

> <PUBCHEM_BOND_DEF_STEREO_COUNT>
0

> <PUBCHEM_BOND_UDEF_STEREO_COUNT>
0

> <PUBCHEM_ISOTOPIC_ATOM_COUNT>
0

> <PUBCHEM_COMPONENT_COUNT>
1

> <PUBCHEM_CACTVS_TAUTO_COUNT>
4

> <PUBCHEM_CONFORMER_ID>
00B55D7700000001

> <PUBCHEM_MMFF94_ENERGY>
69.1496

> <PUBCHEM_FEATURE_SELFOVERLAP>
51.464

> <PUBCHEM_SHAPE_FINGERPRINT>
10074138 170 17483962579937832784
10622 236 18266732653171395399
10794284 68 17556295408971079596
10939801 23 18199465644612592606
11135609 149 17240750775751064428
11211813 140 17969200284231986026
11796584 16 18267584598731407776
12107183 9 18340497673003375193
12174731 88 18262791857241860730
12422481 6 18130224844409062126
12633257 1 17702407163780523873
14251751 18 18343580750451002474
14950920 106 17989481918287339248
15250474 111 18268996547332989215
15320294 125 18338802212982499855
15728490 51 18410008824540404482
17857418 61 18412829109544201701
20028762 73 18410575059558796834
21033648 29 15195018111160073993
21133410 171 17124472090311285334
21585480 29 18129359623606121714
229767 44 18343582915094161103
23559900 14 17773038777358488785
25019877 29 13778416357870134733
312425 54 17702950214781165282
316301 35 18270958067471000624
338550 245 18410303509638993255
397830 11 18131055040586880632
463206 1 18411143571003827739
5085150 59 18201149954676613767
5104073 3 17846222206335119465
513202 73 17967250876074776293
559249 180 18335423427089037177
7970288 3 18336264664710460275

> <PUBCHEM_SHAPE_MULTIPOLES>
504.6
15.77
4.42
1.63
9.54
3.08
-0.12
14.26
-5.7
-0.56
0.83
0.68
0.45
-5.32

> <PUBCHEM_SHAPE_SELFOVERLAP>
1069.613

> <PUBCHEM_SHAPE_VOLUME>
282.2

> <PUBCHEM_COORDINATE_TYPE>
2
5
10

$$$$
