51137799
  -OEChem-12032416203D

 45 48  0     1  0  0  0  0  0999 V2000
   -1.1396    1.0282   -0.2381 O   0  0  0  0  0  0  0  0  0  0  0  0
    2.6345    0.2285    2.5771 O   0  0  0  0  0  0  0  0  0  0  0  0
   -1.0314   -1.5408   -0.3489 O   0  0  0  0  0  0  0  0  0  0  0  0
    1.8689    1.4825    0.7784 N   0  0  0  0  0  0  0  0  0  0  0  0
   -1.9713    2.8283   -1.2739 N   0  0  0  0  0  0  0  0  0  0  0  0
   -3.0073    1.9360   -1.0701 N   0  0  0  0  0  0  0  0  0  0  0  0
    0.5283    2.7671   -0.7103 C   0  0  1  0  0  0  0  0  0  0  0  0
    0.7883    3.5699    0.5738 C   0  0  0  0  0  0  0  0  0  0  0  0
    1.6342    1.7039   -0.6494 C   0  0  0  0  0  0  0  0  0  0  0  0
    1.2336    2.5172    1.5797 C   0  0  0  0  0  0  0  0  0  0  0  0
   -0.9011    2.2570   -0.7726 C   0  0  0  0  0  0  0  0  0  0  0  0
    2.5241    0.4118    1.3664 C   0  0  0  0  0  0  0  0  0  0  0  0
    3.1220   -0.5926    0.4732 C   0  0  0  0  0  0  0  0  0  0  0  0
   -2.4760    0.9006   -0.4631 C   0  0  0  0  0  0  0  0  0  0  0  0
    4.1063   -0.2161   -0.4407 C   0  0  0  0  0  0  0  0  0  0  0  0
    2.7055   -1.9220    0.5412 C   0  0  0  0  0  0  0  0  0  0  0  0
   -3.0748   -0.3207   -0.0088 C   0  0  0  0  0  0  0  0  0  0  0  0
   -2.3393   -1.5050    0.0357 C   0  0  0  0  0  0  0  0  0  0  0  0
    4.6741   -1.1691   -1.2865 C   0  0  0  0  0  0  0  0  0  0  0  0
    3.2732   -2.8750   -0.3044 C   0  0  0  0  0  0  0  0  0  0  0  0
   -4.4113   -0.3144    0.3902 C   0  0  0  0  0  0  0  0  0  0  0  0
    4.2575   -2.4985   -1.2183 C   0  0  0  0  0  0  0  0  0  0  0  0
   -2.9403   -2.6831    0.4790 C   0  0  0  0  0  0  0  0  0  0  0  0
   -5.0125   -1.4925    0.8335 C   0  0  0  0  0  0  0  0  0  0  0  0
   -4.2770   -2.6769    0.8781 C   0  0  0  0  0  0  0  0  0  0  0  0
   -0.7687   -1.8243   -1.7212 C   0  0  0  0  0  0  0  0  0  0  0  0
    0.6707    3.4007   -1.5942 H   0  0  0  0  0  0  0  0  0  0  0  0
    1.6125    4.2731    0.3987 H   0  0  0  0  0  0  0  0  0  0  0  0
   -0.0745    4.1426    0.9280 H   0  0  0  0  0  0  0  0  0  0  0  0
    1.3766    0.7716   -1.1602 H   0  0  0  0  0  0  0  0  0  0  0  0
    2.5605    2.1059   -1.0740 H   0  0  0  0  0  0  0  0  0  0  0  0
    1.9315    2.9067    2.3269 H   0  0  0  0  0  0  0  0  0  0  0  0
    0.3809    2.0657    2.0988 H   0  0  0  0  0  0  0  0  0  0  0  0
    4.4602    0.8100   -0.4928 H   0  0  0  0  0  0  0  0  0  0  0  0
    1.9366   -2.2271    1.2464 H   0  0  0  0  0  0  0  0  0  0  0  0
    5.4440   -0.8770   -1.9946 H   0  0  0  0  0  0  0  0  0  0  0  0
    2.9479   -3.9099   -0.2522 H   0  0  0  0  0  0  0  0  0  0  0  0
   -5.0025    0.5981    0.3653 H   0  0  0  0  0  0  0  0  0  0  0  0
    4.7000   -3.2407   -1.8763 H   0  0  0  0  0  0  0  0  0  0  0  0
   -2.3737   -3.6095    0.5172 H   0  0  0  0  0  0  0  0  0  0  0  0
   -6.0530   -1.4878    1.1447 H   0  0  0  0  0  0  0  0  0  0  0  0
   -4.7449   -3.5941    1.2235 H   0  0  0  0  0  0  0  0  0  0  0  0
   -1.0762   -2.8465   -1.9628 H   0  0  0  0  0  0  0  0  0  0  0  0
   -1.2830   -1.1142   -2.3765 H   0  0  0  0  0  0  0  0  0  0  0  0
    0.3081   -1.7349   -1.8891 H   0  0  0  0  0  0  0  0  0  0  0  0
  1 11  1  0  0  0  0
  1 14  1  0  0  0  0
  2 12  2  0  0  0  0
  3 18  1  0  0  0  0
  3 26  1  0  0  0  0
  4  9  1  0  0  0  0
  4 10  1  0  0  0  0
  4 12  1  0  0  0  0
  5  6  1  0  0  0  0
  5 11  2  0  0  0  0
  6 14  2  0  0  0  0
  7  8  1  0  0  0  0
  7  9  1  0  0  0  0
  7 11  1  0  0  0  0
  7 27  1  0  0  0  0
  8 10  1  0  0  0  0
  8 28  1  0  0  0  0
  8 29  1  0  0  0  0
  9 30  1  0  0  0  0
  9 31  1  0  0  0  0
 10 32  1  0  0  0  0
 10 33  1  0  0  0  0
 12 13  1  0  0  0  0
 13 15  2  0  0  0  0
 13 16  1  0  0  0  0
 14 17  1  0  0  0  0
 15 19  1  0  0  0  0
 15 34  1  0  0  0  0
 16 20  2  0  0  0  0
 16 35  1  0  0  0  0
 17 18  1  0  0  0  0
 17 21  2  0  0  0  0
 18 23  2  0  0  0  0
 19 22  2  0  0  0  0
 19 36  1  0  0  0  0
 20 22  1  0  0  0  0
 20 37  1  0  0  0  0
 21 24  1  0  0  0  0
 21 38  1  0  0  0  0
 22 39  1  0  0  0  0
 23 25  1  0  0  0  0
 23 40  1  0  0  0  0
 24 25  2  0  0  0  0
 24 41  1  0  0  0  0
 25 42  1  0  0  0  0
 26 43  1  0  0  0  0
 26 44  1  0  0  0  0
 26 45  1  0  0  0  0
M  END
> <PUBCHEM_COMPOUND_CID>
51137799

> <PUBCHEM_CONFORMER_RMSD>
0.8

> <PUBCHEM_CONFORMER_DIVERSEORDER>
1
49
157
100
94
146
120
81
55
41
103
97
188
213
77
172
207
230
27
236
204
65
140
68
142
21
177
47
54
192
7
33
165
74
198
34
64
197
58
193
180
202
75
131
148
184
170
40
115
117
98
196
183
111
155
38
228
50
124
166
121
203
164
195
114
138
126
133
169
167
56
227
159
25
37
217
20
206
10
221
17
76
87
178
101
223
61
201
127
36
191
208
150
95
79
31
116
187
156
136
129
11
72
82
85
194
225
96
102
12
43
174
162
147
59
88
110
181
226
118
220
229
132
42
176
232
175
163
46
62
205
92
144
107
210
18
154
139
122
4
44
109
185
93
104
48
24
128
8
173
80
90
51
199
141
219
70
233
86
105
45
99
200
53
16
153
15
73
130
22
179
158
234
71
135
14
149
151
39
19
182
214
13
23
108
186
215
5
119
212
52
112
29
57
69
152
26
216
67
161
9
222
218
143
113
211
66
160
78
189
145
3
190
134
84
63
83
91
30
89
209
60
168
224
6
171
235
231
137
123
125
2
32
28
106
35

> <PUBCHEM_MMFF94_PARTIAL_CHARGES>
34
1 -0.28
10 0.3
11 0.3
12 0.54
13 0.09
14 0.43
15 -0.15
16 -0.15
17 0.05
18 0.08
19 -0.15
2 -0.57
20 -0.15
21 -0.15
22 -0.15
23 -0.15
24 -0.15
25 -0.15
26 0.28
3 -0.36
34 0.15
35 0.15
36 0.15
37 0.15
38 0.15
39 0.15
4 -0.66
40 0.15
41 0.15
42 0.15
5 -0.34
6 -0.34
7 0.18
9 0.3

> <PUBCHEM_EFFECTIVE_ROTOR_COUNT>
6

> <PUBCHEM_PHARMACOPHORE_FEATURES>
6
1 2 acceptor
1 3 acceptor
5 1 5 6 11 14 rings
5 4 7 8 9 10 rings
6 13 15 16 19 20 22 rings
6 17 18 21 23 24 25 rings

> <PUBCHEM_HEAVY_ATOM_COUNT>
26

> <PUBCHEM_ATOM_DEF_STEREO_COUNT>
1

> <PUBCHEM_ATOM_UDEF_STEREO_COUNT>
0

> <PUBCHEM_BOND_DEF_STEREO_COUNT>
0

> <PUBCHEM_BOND_UDEF_STEREO_COUNT>
0

> <PUBCHEM_ISOTOPIC_ATOM_COUNT>
0

> <PUBCHEM_COMPONENT_COUNT>
1

> <PUBCHEM_CACTVS_TAUTO_COUNT>
1

> <PUBCHEM_CONFORMER_ID>
030C4D0700000001

> <PUBCHEM_MMFF94_ENERGY>
76.5997

> <PUBCHEM_FEATURE_SELFOVERLAP>
30.449

> <PUBCHEM_SHAPE_FINGERPRINT>
107951 10 16737221561330878329
1100329 8 16108393088482634926
12156800 1 16982420445178978820
12403259 327 16629689598816704339
12422481 6 18339377322726561539
12553582 1 18335691801592204782
12712778 12 17615943540709915914
12714826 92 18334292024511326276
12788726 201 18040719125686574849
13135754 10 16914280376995778840
13402501 40 18270681948255477535
13533116 47 18127695036063046523
13631057 29 18338528439393639806
13726171 33 18336557019071693472
14251740 57 18195253449615617611
14251757 5 18191876629988182876
14363568 33 18269284619643067244
14790565 3 17470736971005127325
14863182 85 17828768678893743092
14866123 147 17766286375192097753
15664445 248 16807577424774891909
17909252 39 18340503226680613548
1813 80 17168421675065310949
1979834 28 17906172107234739819
20028762 73 16610839799167494631
20775530 9 18411700971764589290
21033648 29 17703497827195486819
23466295 7 17980776939023133682
23559900 14 18334858367968654237
3117164 225 18339379530213151323
3737641 26 18341060687175278504
437815 12 18130514045588254511
508706 21 18335413518419676261
5283178 26 17846783970687558822
6287921 2 17981606279658876658
6823239 73 18410853265832436090
9862886 166 18124594177155466534

> <PUBCHEM_SHAPE_MULTIPOLES>
502.52
9.17
4.32
1.52
2.12
1.54
-0.39
-7.99
-0.37
-0.27
0.38
-0.85
0.25
2.21

> <PUBCHEM_SHAPE_SELFOVERLAP>
1100.904

> <PUBCHEM_SHAPE_VOLUME>
272.7

> <PUBCHEM_COORDINATE_TYPE>
2
5
10

$$$$
