75536243
  -OEChem-12032416303D

 55 57  0     1  0  0  0  0  0999 V2000
   -6.7926    0.4625    0.5689 F   0  0  0  0  0  0  0  0  0  0  0  0
    2.6735   -0.6897    0.7922 O   0  0  0  0  0  0  0  0  0  0  0  0
    5.4727   -0.4639    1.6875 O   0  0  0  0  0  0  0  0  0  0  0  0
   -1.4705   -2.2987   -1.2739 O   0  0  0  0  0  0  0  0  0  0  0  0
    2.0607    3.9298   -0.5042 O   0  0  0  0  0  0  0  0  0  0  0  0
    1.6862    1.6507   -0.4530 N   0  0  0  0  0  0  0  0  0  0  0  0
   -0.1691   -2.7856   -1.2925 N   0  0  0  0  0  0  0  0  0  0  0  0
    3.5397    0.4278    0.5558 C   0  0  1  0  0  0  0  0  0  0  0  0
    5.0006   -0.0184    0.4132 C   0  0  2  0  0  0  0  0  0  0  0  0
    2.7452   -1.7319   -0.1839 C   0  0  1  0  0  0  0  0  0  0  0  0
    5.1623   -1.1723   -0.5726 C   0  0  0  0  0  0  0  0  0  0  0  0
    4.1652   -2.2884   -0.2746 C   0  0  0  0  0  0  0  0  0  0  0  0
    3.0524    1.2611   -0.6277 C   0  0  0  0  0  0  0  0  0  0  0  0
    1.7621   -2.8189    0.2332 C   0  0  0  0  0  0  0  0  0  0  0  0
    0.3434   -2.4475   -0.1058 C   0  0  0  0  0  0  0  0  0  0  0  0
   -0.2383    3.1860   -0.2119 C   0  0  0  0  0  0  0  0  0  0  0  0
    1.2797    2.9833   -0.4027 C   0  0  0  0  0  0  0  0  0  0  0  0
   -0.5790   -1.7527    0.6955 C   0  0  0  0  0  0  0  0  0  0  0  0
   -0.5488    4.6927   -0.1536 C   0  0  0  0  0  0  0  0  0  0  0  0
   -0.6952    2.5409    1.1053 C   0  0  0  0  0  0  0  0  0  0  0  0
   -1.0042    2.5735   -1.3944 C   0  0  0  0  0  0  0  0  0  0  0  0
   -1.7027   -1.6856   -0.0850 C   0  0  0  0  0  0  0  0  0  0  0  0
   -3.0143   -1.1309    0.0833 C   0  0  0  0  0  0  0  0  0  0  0  0
   -3.3505   -0.4830    1.2720 C   0  0  0  0  0  0  0  0  0  0  0  0
   -3.9544   -1.2401   -0.9414 C   0  0  0  0  0  0  0  0  0  0  0  0
   -4.6267    0.0553    1.4361 C   0  0  0  0  0  0  0  0  0  0  0  0
   -5.2307   -0.7018   -0.7773 C   0  0  0  0  0  0  0  0  0  0  0  0
   -5.5668   -0.0541    0.4114 C   0  0  0  0  0  0  0  0  0  0  0  0
    3.4562    1.0438    1.4606 H   0  0  0  0  0  0  0  0  0  0  0  0
    5.6305    0.8280    0.1178 H   0  0  0  0  0  0  0  0  0  0  0  0
    2.4507   -1.3363   -1.1632 H   0  0  0  0  0  0  0  0  0  0  0  0
    6.1785   -1.5809   -0.5246 H   0  0  0  0  0  0  0  0  0  0  0  0
    5.0051   -0.8103   -1.5953 H   0  0  0  0  0  0  0  0  0  0  0  0
    4.2287   -3.0592   -1.0510 H   0  0  0  0  0  0  0  0  0  0  0  0
    4.4390   -2.7611    0.6773 H   0  0  0  0  0  0  0  0  0  0  0  0
    3.0921    0.7010   -1.5663 H   0  0  0  0  0  0  0  0  0  0  0  0
    3.6899    2.1429   -0.7516 H   0  0  0  0  0  0  0  0  0  0  0  0
    1.8297   -3.0072    1.3123 H   0  0  0  0  0  0  0  0  0  0  0  0
    1.9983   -3.7629   -0.2748 H   0  0  0  0  0  0  0  0  0  0  0  0
    0.9913    0.9127   -0.4028 H   0  0  0  0  0  0  0  0  0  0  0  0
    6.4115   -0.6971    1.5879 H   0  0  0  0  0  0  0  0  0  0  0  0
   -0.4361   -1.3616    1.6922 H   0  0  0  0  0  0  0  0  0  0  0  0
   -0.0199    5.1754    0.6764 H   0  0  0  0  0  0  0  0  0  0  0  0
   -0.2413    5.1978   -1.0766 H   0  0  0  0  0  0  0  0  0  0  0  0
   -1.6209    4.8734   -0.0160 H   0  0  0  0  0  0  0  0  0  0  0  0
   -0.1188    2.9294    1.9527 H   0  0  0  0  0  0  0  0  0  0  0  0
   -0.5636    1.4542    1.0962 H   0  0  0  0  0  0  0  0  0  0  0  0
   -1.7554    2.7404    1.2976 H   0  0  0  0  0  0  0  0  0  0  0  0
   -0.8863    1.4854   -1.4389 H   0  0  0  0  0  0  0  0  0  0  0  0
   -0.6445    2.9784   -2.3472 H   0  0  0  0  0  0  0  0  0  0  0  0
   -2.0776    2.7820   -1.3218 H   0  0  0  0  0  0  0  0  0  0  0  0
   -2.6395   -0.3812    2.0878 H   0  0  0  0  0  0  0  0  0  0  0  0
   -3.7306   -1.7370   -1.8820 H   0  0  0  0  0  0  0  0  0  0  0  0
   -4.8889    0.5602    2.3612 H   0  0  0  0  0  0  0  0  0  0  0  0
   -5.9632   -0.7864   -1.5746 H   0  0  0  0  0  0  0  0  0  0  0  0
  1 28  1  0  0  0  0
  2  8  1  0  0  0  0
  2 10  1  0  0  0  0
  3  9  1  0  0  0  0
  3 41  1  0  0  0  0
  4  7  1  0  0  0  0
  4 22  1  0  0  0  0
  5 17  2  0  0  0  0
  6 13  1  0  0  0  0
  6 17  1  0  0  0  0
  6 40  1  0  0  0  0
  7 15  2  0  0  0  0
  8  9  1  0  0  0  0
  8 13  1  0  0  0  0
  8 29  1  0  0  0  0
  9 11  1  0  0  0  0
  9 30  1  0  0  0  0
 10 12  1  0  0  0  0
 10 14  1  0  0  0  0
 10 31  1  0  0  0  0
 11 12  1  0  0  0  0
 11 32  1  0  0  0  0
 11 33  1  0  0  0  0
 12 34  1  0  0  0  0
 12 35  1  0  0  0  0
 13 36  1  0  0  0  0
 13 37  1  0  0  0  0
 14 15  1  0  0  0  0
 14 38  1  0  0  0  0
 14 39  1  0  0  0  0
 15 18  1  0  0  0  0
 16 17  1  0  0  0  0
 16 19  1  0  0  0  0
 16 20  1  0  0  0  0
 16 21  1  0  0  0  0
 18 22  2  0  0  0  0
 18 42  1  0  0  0  0
 19 43  1  0  0  0  0
 19 44  1  0  0  0  0
 19 45  1  0  0  0  0
 20 46  1  0  0  0  0
 20 47  1  0  0  0  0
 20 48  1  0  0  0  0
 21 49  1  0  0  0  0
 21 50  1  0  0  0  0
 21 51  1  0  0  0  0
 22 23  1  0  0  0  0
 23 24  2  0  0  0  0
 23 25  1  0  0  0  0
 24 26  1  0  0  0  0
 24 52  1  0  0  0  0
 25 27  2  0  0  0  0
 25 53  1  0  0  0  0
 26 28  2  0  0  0  0
 26 54  1  0  0  0  0
 27 28  1  0  0  0  0
 27 55  1  0  0  0  0
M  END
> <PUBCHEM_COMPOUND_CID>
75536243

> <PUBCHEM_CONFORMER_RMSD>
1

> <PUBCHEM_CONFORMER_DIVERSEORDER>
1
176
22
150
163
27
120
77
153
109
110
138
173
133
50
168
18
142
170
53
125
122
179
42
57
79
117
98
66
145
88
90
34
116
143
175
38
162
115
129
39
156
60
161
11
134
51
177
76
93
171
19
132
141
29
94
131
17
159
52
63
16
45
180
64
127
41
82
81
75
48
69
151
86
15
118
49
146
106
95
152
70
172
26
31
154
54
32
99
111
67
128
108
144
89
20
119
12
43
149
59
30
84
13
158
102
73
178
155
10
157
28
23
61
2
136
68
101
87
21
25
137
8
140
126
58
44
169
55
37
14
113
135
4
24
107
91
92
165
139
36
5
62
167
112
121
123
164
80
114
148
65
97
71
74
7
100
103
166
47
160
40
78
6
56
46
104
147
174
85
35
124
33
105
9
130
3
83
96
72

> <PUBCHEM_MMFF94_PARTIAL_CHARGES>
30
1 -0.19
10 0.28
13 0.3
14 0.18
15 0.11
16 0.06
17 0.57
18 -0.15
2 -0.56
22 0.09
23 0.05
24 -0.15
25 -0.15
26 -0.15
27 -0.15
28 0.19
3 -0.68
4 -0.02
40 0.37
41 0.4
42 0.15
5 -0.57
52 0.15
53 0.15
54 0.15
55 0.15
6 -0.73
7 -0.41
8 0.28
9 0.28

> <PUBCHEM_EFFECTIVE_ROTOR_COUNT>
8.2

> <PUBCHEM_PHARMACOPHORE_FEATURES>
10
1 2 acceptor
1 3 acceptor
1 3 donor
1 5 acceptor
1 6 donor
1 7 acceptor
4 16 19 20 21 hydrophobe
5 4 7 15 18 22 rings
6 2 8 9 10 11 12 rings
6 23 24 25 26 27 28 rings

> <PUBCHEM_HEAVY_ATOM_COUNT>
28

> <PUBCHEM_ATOM_DEF_STEREO_COUNT>
3

> <PUBCHEM_ATOM_UDEF_STEREO_COUNT>
0

> <PUBCHEM_BOND_DEF_STEREO_COUNT>
0

> <PUBCHEM_BOND_UDEF_STEREO_COUNT>
0

> <PUBCHEM_ISOTOPIC_ATOM_COUNT>
0

> <PUBCHEM_COMPONENT_COUNT>
1

> <PUBCHEM_CACTVS_TAUTO_COUNT>
2

> <PUBCHEM_CONFORMER_ID>
0480977300000001

> <PUBCHEM_MMFF94_ENERGY>
54.1385

> <PUBCHEM_FEATURE_SELFOVERLAP>
50.748

> <PUBCHEM_SHAPE_FINGERPRINT>
10006869 2 18120643639823009271
10074138 170 15882330225042503835
10670039 82 18191605077151194342
10688039 33 18040435451639324196
1100329 8 18338234993541422802
11135926 11 18118964939060689252
11479125 193 15940389310024270492
11646440 116 18408890637234146483
12156800 1 17835837134105447284
12166972 35 18272932769344003499
12293681 4 18114189635612260034
12422481 6 18123773970817527473
12553582 1 18409732897922858180
12633257 1 18337389447535058670
12788726 201 18334014974115639760
13004483 165 18409158927120577480
13075007 39 17824002197529614707
13140716 1 18264767851814869938
13402501 40 18334854979186872525
13583140 156 18113901593694279259
14028597 1 17604415311848096538
14117953 113 18341335500620647341
14464042 87 18273220776760054737
14790565 3 17471016251538457828
14840074 17 18341059557356065827
14955137 171 18338248149411482963
150020 26 17972614443913506273
15081414 286 18411704279168741766
151778 21 17899708048358109933
15238133 3 18187651340400592430
15276724 80 18411984651129856142
15420108 30 17768235062616830984
15483637 11 18048597010731385461
20567600 299 18125721437706741704
21298829 104 18272092669604428153
21641784 216 17969523523506716540
21796203 349 18046380580284645832
21860390 5 18270689778149442782
22113638 7 18341047539921546470
3014063 31 18410011005275833204
3052486 1 18189620445677611182
338550 245 18335147448963791685
463206 1 18336829796332733299
469060 322 17241055275319526612
474 4 18411419540033210563
58260988 647 14057546892665370336
653340 110 18197212555850146696

> <PUBCHEM_SHAPE_MULTIPOLES>
535.51
11.63
4.91
1.21
6.15
5.83
-0.11
-4.48
-2.4
-1.67
1.17
0.37
-0.06
-0.47

> <PUBCHEM_SHAPE_SELFOVERLAP>
1127.852

> <PUBCHEM_SHAPE_VOLUME>
303.3

> <PUBCHEM_COORDINATE_TYPE>
2
5
10

$$$$
