45783750
  -OEChem-12032416203D

 49 52  0     1  0  0  0  0  0999 V2000
   -1.4328   -0.8030    2.0042 O   0  0  0  0  0  0  0  0  0  0  0  0
    3.3766    2.5091   -1.5489 O   0  0  0  0  0  0  0  0  0  0  0  0
   -3.3486    0.5295   -0.6232 N   0  0  1  0  0  0  0  0  0  0  0  0
   -1.0341   -1.5245   -0.0785 N   0  0  0  0  0  0  0  0  0  0  0  0
   -0.1315   -1.3211    2.0139 N   0  0  0  0  0  0  0  0  0  0  0  0
    2.4462    2.9089    0.5801 N   0  0  0  0  0  0  0  0  0  0  0  0
    2.8432   -2.8129   -1.4473 N   0  0  0  0  0  0  0  0  0  0  0  0
    0.9467   -1.4896   -1.9472 N   0  0  0  0  0  0  0  0  0  0  0  0
    3.1777   -3.6826    0.7751 N   0  0  0  0  0  0  0  0  0  0  0  0
   -3.2981   -0.4730    0.4598 C   0  0  1  0  0  0  0  0  0  0  0  0
   -4.2389   -1.5995   -0.0059 C   0  0  0  0  0  0  0  0  0  0  0  0
   -4.8171   -1.1141   -1.3276 C   0  0  0  0  0  0  0  0  0  0  0  0
   -4.6617    0.3915   -1.2533 C   0  0  0  0  0  0  0  0  0  0  0  0
   -3.1032    1.8890   -0.1593 C   0  0  0  0  0  0  0  0  0  0  0  0
   -1.8917   -0.9623    0.7351 C   0  0  0  0  0  0  0  0  0  0  0  0
   -1.6349    2.1583    0.0362 C   0  0  0  0  0  0  0  0  0  0  0  0
   -1.1584    2.5488    1.2877 C   0  0  0  0  0  0  0  0  0  0  0  0
   -0.7510    2.0178   -1.0337 C   0  0  0  0  0  0  0  0  0  0  0  0
    0.0305   -1.7265    0.7508 C   0  0  0  0  0  0  0  0  0  0  0  0
    0.2017    2.7989    1.4692 C   0  0  0  0  0  0  0  0  0  0  0  0
    0.6092    2.2680   -0.8524 C   0  0  0  0  0  0  0  0  0  0  0  0
    1.0855    2.6586    0.3992 C   0  0  0  0  0  0  0  0  0  0  0  0
    1.2420   -2.3379    0.2862 C   0  0  0  0  0  0  0  0  0  0  0  0
    1.7037   -2.2373   -1.0104 C   0  0  0  0  0  0  0  0  0  0  0  0
    2.0280   -3.0803    1.1437 C   0  0  0  0  0  0  0  0  0  0  0  0
    3.4752    2.8218   -0.3669 C   0  0  0  0  0  0  0  0  0  0  0  0
    3.5208   -3.5104   -0.5157 C   0  0  0  0  0  0  0  0  0  0  0  0
    4.8149    3.1749    0.2292 C   0  0  0  0  0  0  0  0  0  0  0  0
   -3.7164   -0.0625    1.3898 H   0  0  0  0  0  0  0  0  0  0  0  0
   -3.7456   -2.5696   -0.1297 H   0  0  0  0  0  0  0  0  0  0  0  0
   -5.0492   -1.7269    0.7225 H   0  0  0  0  0  0  0  0  0  0  0  0
   -5.8579   -1.4226   -1.4623 H   0  0  0  0  0  0  0  0  0  0  0  0
   -4.2304   -1.5186   -2.1618 H   0  0  0  0  0  0  0  0  0  0  0  0
   -4.6923    0.8483   -2.2473 H   0  0  0  0  0  0  0  0  0  0  0  0
   -5.4577    0.8261   -0.6354 H   0  0  0  0  0  0  0  0  0  0  0  0
   -3.4451    2.6087   -0.9166 H   0  0  0  0  0  0  0  0  0  0  0  0
   -3.6795    2.1198    0.7462 H   0  0  0  0  0  0  0  0  0  0  0  0
   -1.8351    2.6601    2.1306 H   0  0  0  0  0  0  0  0  0  0  0  0
   -1.1089    1.7178   -2.0153 H   0  0  0  0  0  0  0  0  0  0  0  0
    0.5592    3.1015    2.4502 H   0  0  0  0  0  0  0  0  0  0  0  0
    1.2311    2.1372   -1.7269 H   0  0  0  0  0  0  0  0  0  0  0  0
    2.7147    3.1888    1.5213 H   0  0  0  0  0  0  0  0  0  0  0  0
    1.7647   -3.2361    2.1858 H   0  0  0  0  0  0  0  0  0  0  0  0
    1.3258   -1.4308   -2.8848 H   0  0  0  0  0  0  0  0  0  0  0  0
   -0.0605   -1.4640   -1.8523 H   0  0  0  0  0  0  0  0  0  0  0  0
    4.4400   -3.9833   -0.8392 H   0  0  0  0  0  0  0  0  0  0  0  0
    5.0385    2.5037    1.0632 H   0  0  0  0  0  0  0  0  0  0  0  0
    4.7996    4.2087    0.5855 H   0  0  0  0  0  0  0  0  0  0  0  0
    5.5966    3.0712   -0.5283 H   0  0  0  0  0  0  0  0  0  0  0  0
  1  5  1  0  0  0  0
  1 15  1  0  0  0  0
  2 26  2  0  0  0  0
  3 10  1  0  0  0  0
  3 13  1  0  0  0  0
  3 14  1  0  0  0  0
  4 15  2  0  0  0  0
  4 19  1  0  0  0  0
  5 19  2  0  0  0  0
  6 22  1  0  0  0  0
  6 26  1  0  0  0  0
  6 42  1  0  0  0  0
  7 24  2  0  0  0  0
  7 27  1  0  0  0  0
  8 24  1  0  0  0  0
  8 44  1  0  0  0  0
  8 45  1  0  0  0  0
  9 25  1  0  0  0  0
  9 27  2  0  0  0  0
 10 11  1  0  0  0  0
 10 15  1  0  0  0  0
 10 29  1  0  0  0  0
 11 12  1  0  0  0  0
 11 30  1  0  0  0  0
 11 31  1  0  0  0  0
 12 13  1  0  0  0  0
 12 32  1  0  0  0  0
 12 33  1  0  0  0  0
 13 34  1  0  0  0  0
 13 35  1  0  0  0  0
 14 16  1  0  0  0  0
 14 36  1  0  0  0  0
 14 37  1  0  0  0  0
 16 17  2  0  0  0  0
 16 18  1  0  0  0  0
 17 20  1  0  0  0  0
 17 38  1  0  0  0  0
 18 21  2  0  0  0  0
 18 39  1  0  0  0  0
 19 23  1  0  0  0  0
 20 22  2  0  0  0  0
 20 40  1  0  0  0  0
 21 22  1  0  0  0  0
 21 41  1  0  0  0  0
 23 24  1  0  0  0  0
 23 25  2  0  0  0  0
 25 43  1  0  0  0  0
 26 28  1  0  0  0  0
 27 46  1  0  0  0  0
 28 47  1  0  0  0  0
 28 48  1  0  0  0  0
 28 49  1  0  0  0  0
M  END
> <PUBCHEM_COMPOUND_CID>
45783750

> <PUBCHEM_CONFORMER_RMSD>
0.8

> <PUBCHEM_CONFORMER_DIVERSEORDER>
1
189
28
75
103
173
224
151
51
251
223
27
235
146
221
106
4
81
180
142
174
55
220
199
97
30
144
60
123
16
113
119
222
118
250
87
234
206
49
47
202
171
164
207
148
58
128
133
3
65
196
2
120
138
238
198
80
100
147
247
201
192
9
219
248
177
149
153
155
36
79
215
163
5
111
190
152
66
96
53
236
82
109
122
20
74
8
197
209
156
212
145
121
245
63
213
225
159
154
188
89
233
204
25
116
169
98
246
211
166
150
157
208
140
216
139
114
15
85
214
158
10
71
226
203
129
185
195
12
21
29
167
135
175
143
210
99
117
23
52
239
134
115
67
181
186
124
73
6
168
83
102
127
194
241
193
91
24
125
183
17
104
130
162
165
95
228
243
200
72
39
160
170
32
14
45
182
57
43
50
61
13
178
161
105
137
42
191
34
84
94
108
187
41
62
172
93
44
11
240
18
31
184
229
92
59
131
249
56
232
176
7
231
46
205
132
237
40
35
227
136
101
179
48
141
86
70
37
218
68
230
244
64
126
33
77
26
69
78
217
22
76
112
90
38
19
54
242
110
88
107

> <PUBCHEM_MMFF94_PARTIAL_CHARGES>
35
1 -0.02
10 0.45
13 0.27
14 0.41
15 0.3
16 -0.14
17 -0.15
18 -0.15
19 0.46
2 -0.57
20 -0.15
21 -0.15
22 0.12
23 0.05
24 0.41
25 0.16
26 0.57
27 0.47
28 0.06
3 -0.81
38 0.15
39 0.15
4 -0.57
40 0.15
41 0.15
42 0.37
43 0.15
44 0.4
45 0.4
46 0.15
5 -0.41
6 -0.55
7 -0.62
8 -0.9
9 -0.62

> <PUBCHEM_EFFECTIVE_ROTOR_COUNT>
7

> <PUBCHEM_PHARMACOPHORE_FEATURES>
11
1 2 acceptor
1 3 cation
1 6 donor
1 8 donor
3 4 5 19 cation
3 7 8 24 cation
3 7 9 27 cation
5 1 4 5 15 19 rings
5 3 10 11 12 13 rings
6 16 17 18 20 21 22 rings
6 7 9 23 24 25 27 rings

> <PUBCHEM_HEAVY_ATOM_COUNT>
28

> <PUBCHEM_ATOM_DEF_STEREO_COUNT>
1

> <PUBCHEM_ATOM_UDEF_STEREO_COUNT>
0

> <PUBCHEM_BOND_DEF_STEREO_COUNT>
0

> <PUBCHEM_BOND_UDEF_STEREO_COUNT>
0

> <PUBCHEM_ISOTOPIC_ATOM_COUNT>
0

> <PUBCHEM_COMPONENT_COUNT>
1

> <PUBCHEM_CACTVS_TAUTO_COUNT>
22

> <PUBCHEM_CONFORMER_ID>
02BA9AC600000001

> <PUBCHEM_MMFF94_ENERGY>
71.4957

> <PUBCHEM_FEATURE_SELFOVERLAP>
55.959

> <PUBCHEM_SHAPE_FINGERPRINT>
10190108 129 17472982178719401919
107951 10 17242725635292924952
1100329 8 18051417262599420545
11578080 2 17315603315361742199
12156800 1 15623943249126419918
12655364 131 14762140435488577052
133893 2 18340221738159455955
14910302 57 17195718966364429143
16719943 64 18121497114776670232
16728300 4 17679841976637446434
20028762 73 17188136129306464423
20600515 1 17328257439666521065
20642791 239 17756417167675352337
20691752 17 17458622277423087213
20775438 99 18049694590441984991
20905425 154 18411981373368494373
21133410 230 17463725286807558946
21344244 246 18268421507104885711
23419403 2 17825704134107964769
23557571 272 17840857482791931547
23559900 14 18267849619640759419
238918 7 18123196959420551774
3027735 51 18341062911657472064
3298306 158 18338513174346834868
4280585 95 17976521841570763618
469060 322 14284801840568339423
5085150 59 18267291209921613408
532947 4 18410013281677097798
59755656 215 18192987347977002991
7471813 234 18339357448921820430

> <PUBCHEM_SHAPE_MULTIPOLES>
529.62
7.86
5.63
1.61
2.77
0.69
0.09
-0.21
-2.7
-7.93
0.31
0.01
0.3
-0.07

> <PUBCHEM_SHAPE_SELFOVERLAP>
1148.905

> <PUBCHEM_SHAPE_VOLUME>
288.9

> <PUBCHEM_COORDINATE_TYPE>
2
5
10

$$$$
