56774212
  -OEChem-12032416323D

 51 53  0     1  0  0  0  0  0999 V2000
   -4.6765   -2.3114   -0.3821 S   0  0  0  0  0  0  0  0  0  0  0  0
   -3.5124   -2.8104   -1.0870 O   0  0  0  0  0  0  0  0  0  0  0  0
   -6.0156   -2.5512   -0.8834 O   0  0  0  0  0  0  0  0  0  0  0  0
    2.5587    2.3807    0.2949 O   0  0  0  0  0  0  0  0  0  0  0  0
    5.6868   -2.4761    0.9426 O   0  0  0  0  0  0  0  0  0  0  0  0
   -4.4965   -0.6362   -0.0922 N   0  0  0  0  0  0  0  0  0  0  0  0
    1.2424    2.8006    0.4442 N   0  0  0  0  0  0  0  0  0  0  0  0
    4.1481   -0.4775   -0.3764 N   0  0  0  0  0  0  0  0  0  0  0  0
   -3.1868    1.5285    0.5331 C   0  0  0  0  0  0  0  0  0  0  0  0
   -1.6638    1.3232    0.3957 C   0  0  1  0  0  0  0  0  0  0  0  0
   -3.3117   -0.0082    0.5901 C   0  0  2  0  0  0  0  0  0  0  0  0
   -1.9818   -0.0685   -0.1900 C   0  0  0  0  0  0  0  0  0  0  0  0
   -0.9085    2.2637   -0.5529 C   0  0  0  0  0  0  0  0  0  0  0  0
   -3.8164    2.1966   -0.6689 C   0  0  0  0  0  0  0  0  0  0  0  0
   -3.6518    2.2103    1.8064 C   0  0  0  0  0  0  0  0  0  0  0  0
    0.5468    2.0776   -0.4381 C   0  0  0  0  0  0  0  0  0  0  0  0
    1.3627    1.1935   -1.1651 C   0  0  0  0  0  0  0  0  0  0  0  0
   -4.6094   -2.9225    1.2852 C   0  0  0  0  0  0  0  0  0  0  0  0
    2.6175    1.4237   -0.6662 C   0  0  0  0  0  0  0  0  0  0  0  0
    3.9781    0.8507   -0.9618 C   0  0  0  0  0  0  0  0  0  0  0  0
    5.1991   -1.2267   -1.0790 C   0  0  0  0  0  0  0  0  0  0  0  0
    4.4699   -0.3800    1.0541 C   0  0  0  0  0  0  0  0  0  0  0  0
    5.3660   -2.6038   -0.4431 C   0  0  0  0  0  0  0  0  0  0  0  0
    4.6551   -1.7769    1.6400 C   0  0  0  0  0  0  0  0  0  0  0  0
   -1.1746    1.2611    1.3805 H   0  0  0  0  0  0  0  0  0  0  0  0
   -3.2138   -0.4042    1.6099 H   0  0  0  0  0  0  0  0  0  0  0  0
   -2.0905   -0.1067   -1.2803 H   0  0  0  0  0  0  0  0  0  0  0  0
   -1.2992   -0.8675    0.1148 H   0  0  0  0  0  0  0  0  0  0  0  0
   -1.1515    3.3035   -0.2975 H   0  0  0  0  0  0  0  0  0  0  0  0
   -1.2190    2.1206   -1.5947 H   0  0  0  0  0  0  0  0  0  0  0  0
   -4.9107    2.1700   -0.6032 H   0  0  0  0  0  0  0  0  0  0  0  0
   -3.5495    1.7187   -1.6176 H   0  0  0  0  0  0  0  0  0  0  0  0
   -3.5326    3.2529   -0.7385 H   0  0  0  0  0  0  0  0  0  0  0  0
   -4.7394    2.1400    1.9191 H   0  0  0  0  0  0  0  0  0  0  0  0
   -3.3802    3.2718    1.8066 H   0  0  0  0  0  0  0  0  0  0  0  0
   -3.1997    1.7593    2.6969 H   0  0  0  0  0  0  0  0  0  0  0  0
   -5.3773   -0.1456    0.1147 H   0  0  0  0  0  0  0  0  0  0  0  0
    1.0823    0.4916   -1.9366 H   0  0  0  0  0  0  0  0  0  0  0  0
   -4.8022   -3.9974    1.2548 H   0  0  0  0  0  0  0  0  0  0  0  0
   -3.6159   -2.7431    1.6987 H   0  0  0  0  0  0  0  0  0  0  0  0
   -5.3814   -2.4281    1.8778 H   0  0  0  0  0  0  0  0  0  0  0  0
    4.7673    1.5454   -0.6466 H   0  0  0  0  0  0  0  0  0  0  0  0
    4.0454    0.7897   -2.0567 H   0  0  0  0  0  0  0  0  0  0  0  0
    6.1509   -0.6819   -1.0292 H   0  0  0  0  0  0  0  0  0  0  0  0
    4.9357   -1.3570   -2.1349 H   0  0  0  0  0  0  0  0  0  0  0  0
    3.6656    0.1217    1.6034 H   0  0  0  0  0  0  0  0  0  0  0  0
    5.3924    0.1974    1.1997 H   0  0  0  0  0  0  0  0  0  0  0  0
    4.4611   -3.2137   -0.5548 H   0  0  0  0  0  0  0  0  0  0  0  0
    6.1885   -3.1404   -0.9268 H   0  0  0  0  0  0  0  0  0  0  0  0
    4.9547   -1.7039    2.6904 H   0  0  0  0  0  0  0  0  0  0  0  0
    3.7263   -2.3590    1.5997 H   0  0  0  0  0  0  0  0  0  0  0  0
  1  2  2  0  0  0  0
  1  3  2  0  0  0  0
  1  6  1  0  0  0  0
  1 18  1  0  0  0  0
  4  7  1  0  0  0  0
  4 19  1  0  0  0  0
  5 23  1  0  0  0  0
  5 24  1  0  0  0  0
  6 11  1  0  0  0  0
  6 37  1  0  0  0  0
  7 16  2  0  0  0  0
  8 20  1  0  0  0  0
  8 21  1  0  0  0  0
  8 22  1  0  0  0  0
  9 10  1  0  0  0  0
  9 11  1  0  0  0  0
  9 14  1  0  0  0  0
  9 15  1  0  0  0  0
 10 12  1  0  0  0  0
 10 13  1  0  0  0  0
 10 25  1  0  0  0  0
 11 12  1  0  0  0  0
 11 26  1  0  0  0  0
 12 27  1  0  0  0  0
 12 28  1  0  0  0  0
 13 16  1  0  0  0  0
 13 29  1  0  0  0  0
 13 30  1  0  0  0  0
 14 31  1  0  0  0  0
 14 32  1  0  0  0  0
 14 33  1  0  0  0  0
 15 34  1  0  0  0  0
 15 35  1  0  0  0  0
 15 36  1  0  0  0  0
 16 17  1  0  0  0  0
 17 19  2  0  0  0  0
 17 38  1  0  0  0  0
 18 39  1  0  0  0  0
 18 40  1  0  0  0  0
 18 41  1  0  0  0  0
 19 20  1  0  0  0  0
 20 42  1  0  0  0  0
 20 43  1  0  0  0  0
 21 23  1  0  0  0  0
 21 44  1  0  0  0  0
 21 45  1  0  0  0  0
 22 24  1  0  0  0  0
 22 46  1  0  0  0  0
 22 47  1  0  0  0  0
 23 48  1  0  0  0  0
 23 49  1  0  0  0  0
 24 50  1  0  0  0  0
 24 51  1  0  0  0  0
M  END
> <PUBCHEM_COMPOUND_CID>
56774212

> <PUBCHEM_CONFORMER_RMSD>
1.2

> <PUBCHEM_CONFORMER_DIVERSEORDER>
1
7
82
92
96
97
106
108
10
113
115
2
46
63
15
29
57
112
99
111
13
21
60
84
62
86
116
59
35
90
65
36
121
54
117
18
16
41
73
104
69
67
79
76
70
40
34
120
80
45
89
38
6
87
48
55
27
23
110
72
118
49
26
53
51
19
85
61
47
100
114
44
102
68
94
39
50
25
14
91
33
105
20
77
3
56
43
78
93
37
88
52
75
12
95
107
4
24
83
32
101
81
119
64
58
103
30
9
5
31
98
71
74
109
8
66
42
17
28
22
11

> <PUBCHEM_MMFF94_PARTIAL_CHARGES>
21
1 1.33
11 0.31
13 0.18
16 0.11
17 -0.15
18 0.11
19 -0.04
2 -0.65
20 0.45
21 0.27
22 0.27
23 0.28
24 0.28
3 -0.65
37 0.42
38 0.15
4 -0.02
5 -0.56
6 -0.87
7 -0.41
8 -0.81

> <PUBCHEM_EFFECTIVE_ROTOR_COUNT>
8

> <PUBCHEM_PHARMACOPHORE_FEATURES>
10
1 2 acceptor
1 3 acceptor
1 5 acceptor
1 6 donor
1 7 acceptor
1 8 cation
3 9 14 15 hydrophobe
4 9 10 11 12 rings
5 4 7 16 17 19 rings
6 5 8 21 22 23 24 rings

> <PUBCHEM_HEAVY_ATOM_COUNT>
24

> <PUBCHEM_ATOM_DEF_STEREO_COUNT>
2

> <PUBCHEM_ATOM_UDEF_STEREO_COUNT>
0

> <PUBCHEM_BOND_DEF_STEREO_COUNT>
0

> <PUBCHEM_BOND_UDEF_STEREO_COUNT>
0

> <PUBCHEM_ISOTOPIC_ATOM_COUNT>
0

> <PUBCHEM_COMPONENT_COUNT>
1

> <PUBCHEM_CACTVS_TAUTO_COUNT>
1

> <PUBCHEM_CONFORMER_ID>
03624E4400000001

> <PUBCHEM_MMFF94_ENERGY>
34.6648

> <PUBCHEM_FEATURE_SELFOVERLAP>
50.763

> <PUBCHEM_SHAPE_FINGERPRINT>
10042902 136 18336551521592006886
10074138 170 17344083883114620177
10622 236 18409723002044135607
10928967 22 18187647951492132730
11036077 4 18200606795932641985
11443803 9 16485564292874786961
11796584 16 18337112242273084212
12107183 9 18269286659621320681
12174731 88 18263355893764063634
12422481 6 17846229860003874455
12596602 18 18059856160603163344
12633257 1 18270411485680616364
13103583 49 18199761262368372824
13383661 66 16883598814276582715
13533116 47 18338234997936421987
14211702 104 18409166644807328787
14251740 57 18342175570913019482
14251751 18 18343015605642744259
14347332 77 18411134766763592471
14420673 8 18198071282910442014
14480069 147 17895206540174149587
14848178 5 18408877438963019942
14848178 96 9150905957204533566
14866123 147 18411144598260263977
15188451 53 18202273697839895559
15250474 111 18337956787156104942
15537594 2 18115040597461049256
15728490 51 18410006634112364698
17492 89 18340207500263780511
17857418 61 18410011065484444495
20621476 51 18413102857648159943
20626108 58 18410855464877219016
20843269 155 18412258471409942622
21033648 29 15769780104670732280
21585483 132 17411605197583902095
21703447 108 18196648712280011129
23559900 14 18411693322908201281
25222932 49 18270683194513262564
312425 54 18130506315053304296
316301 35 18411135870306547360
351380 3 17969514710318363280
44062 13 18334574603558389221
463206 1 18261396624214399042
5085150 59 17988921150984367215
5104073 3 18060426828112110401
559249 180 18335983056832148461
56633871 153 18267593398681281347
59755656 520 18336546007266222237
6034566 193 8862663546944881207
76465 3 18409728473621363468
7970288 3 18264769857728542954
88748 71 18335989752232365395
960060 61 17241057517936098108
9981440 41 16199033778325129857

> <PUBCHEM_SHAPE_MULTIPOLES>
459.34
14.85
4.13
1.36
6.8
1.54
-0.36
14.48
-0.66
-2.7
-0.14
0.17
0.25
-1.72

> <PUBCHEM_SHAPE_SELFOVERLAP>
932.328

> <PUBCHEM_SHAPE_VOLUME>
272.1

> <PUBCHEM_COORDINATE_TYPE>
2
5
10

$$$$
