25312536
  -OEChem-12032416353D

 48 48  0     1  0  0  0  0  0999 V2000
    0.9936    4.0613    1.2792 O   0  0  0  0  0  0  0  0  0  0  0  0
    3.1675   -3.8807    0.3641 O   0  0  0  0  0  0  0  0  0  0  0  0
    4.2629   -2.0209   -0.3584 O   0  0  0  0  0  0  0  0  0  0  0  0
    1.1265    2.2800   -0.2062 N   0  0  0  0  0  0  0  0  0  0  0  0
   -3.0628   -0.5322    0.3014 N   0  0  0  0  0  0  0  0  0  0  0  0
    0.4934   -0.0104   -0.9317 C   0  0  2  0  0  0  0  0  0  0  0  0
    1.8710   -0.5109   -0.4274 C   0  0  1  0  0  0  0  0  0  0  0  0
    0.5851    1.4787   -1.3113 C   0  0  0  0  0  0  0  0  0  0  0  0
    2.4229    0.3861    0.6935 C   0  0  0  0  0  0  0  0  0  0  0  0
   -0.6535   -0.2373    0.0611 C   0  0  0  0  0  0  0  0  0  0  0  0
    2.4414    1.8530    0.2715 C   0  0  0  0  0  0  0  0  0  0  0  0
    1.8542   -1.9745    0.0126 C   0  0  0  0  0  0  0  0  0  0  0  0
   -1.9881   -0.3343   -0.6639 C   0  0  0  0  0  0  0  0  0  0  0  0
    0.5050    3.3884    0.3680 C   0  0  0  0  0  0  0  0  0  0  0  0
    3.2292   -2.5822   -0.0283 C   0  0  0  0  0  0  0  0  0  0  0  0
   -3.1310   -1.9344    0.7166 C   0  0  0  0  0  0  0  0  0  0  0  0
   -4.3458   -0.1065   -0.2608 C   0  0  0  0  0  0  0  0  0  0  0  0
   -0.8497    3.7623   -0.1785 C   0  0  0  0  0  0  0  0  0  0  0  0
   -4.2037   -2.1429    1.7721 C   0  0  0  0  0  0  0  0  0  0  0  0
   -4.7182   -0.9425   -1.4735 C   0  0  0  0  0  0  0  0  0  0  0  0
    0.2711   -0.5732   -1.8491 H   0  0  0  0  0  0  0  0  0  0  0  0
    2.5571   -0.4152   -1.2823 H   0  0  0  0  0  0  0  0  0  0  0  0
    1.2795    1.6007   -2.1526 H   0  0  0  0  0  0  0  0  0  0  0  0
   -0.3772    1.8569   -1.6573 H   0  0  0  0  0  0  0  0  0  0  0  0
    3.4378    0.0853    0.9747 H   0  0  0  0  0  0  0  0  0  0  0  0
    1.8003    0.2802    1.5911 H   0  0  0  0  0  0  0  0  0  0  0  0
   -0.6856    0.5575    0.8162 H   0  0  0  0  0  0  0  0  0  0  0  0
   -0.4819   -1.1646    0.6107 H   0  0  0  0  0  0  0  0  0  0  0  0
    2.7722    2.4730    1.1108 H   0  0  0  0  0  0  0  0  0  0  0  0
    3.1535    2.0067   -0.5480 H   0  0  0  0  0  0  0  0  0  0  0  0
    1.4701   -2.0782    1.0333 H   0  0  0  0  0  0  0  0  0  0  0  0
    1.2254   -2.5596   -0.6689 H   0  0  0  0  0  0  0  0  0  0  0  0
   -1.9489   -1.1369   -1.4115 H   0  0  0  0  0  0  0  0  0  0  0  0
   -2.1459    0.6027   -1.2107 H   0  0  0  0  0  0  0  0  0  0  0  0
   -3.2630   -2.6405   -0.1109 H   0  0  0  0  0  0  0  0  0  0  0  0
   -2.1876   -2.2191    1.1956 H   0  0  0  0  0  0  0  0  0  0  0  0
   -5.1486   -0.1256    0.4838 H   0  0  0  0  0  0  0  0  0  0  0  0
   -4.2790    0.9482   -0.5583 H   0  0  0  0  0  0  0  0  0  0  0  0
   -1.2330    4.6320    0.3642 H   0  0  0  0  0  0  0  0  0  0  0  0
   -1.5555    2.9392   -0.0414 H   0  0  0  0  0  0  0  0  0  0  0  0
   -0.7705    4.0290   -1.2357 H   0  0  0  0  0  0  0  0  0  0  0  0
   -4.1323   -1.4006    2.5746 H   0  0  0  0  0  0  0  0  0  0  0  0
   -5.2150   -2.1180    1.3555 H   0  0  0  0  0  0  0  0  0  0  0  0
   -4.0785   -3.1301    2.2314 H   0  0  0  0  0  0  0  0  0  0  0  0
   -3.9693   -0.9185   -2.2700 H   0  0  0  0  0  0  0  0  0  0  0  0
   -4.9462   -1.9836   -1.2291 H   0  0  0  0  0  0  0  0  0  0  0  0
   -5.6361   -0.5306   -1.9106 H   0  0  0  0  0  0  0  0  0  0  0  0
    4.0498   -4.3093    0.3496 H   0  0  0  0  0  0  0  0  0  0  0  0
  1 14  2  0  0  0  0
  2 15  1  0  0  0  0
  2 48  1  0  0  0  0
  3 15  2  0  0  0  0
  4  8  1  0  0  0  0
  4 11  1  0  0  0  0
  4 14  1  0  0  0  0
  5 13  1  0  0  0  0
  5 16  1  0  0  0  0
  5 17  1  0  0  0  0
  6  7  1  0  0  0  0
  6  8  1  0  0  0  0
  6 10  1  0  0  0  0
  6 21  1  0  0  0  0
  7  9  1  0  0  0  0
  7 12  1  0  0  0  0
  7 22  1  0  0  0  0
  8 23  1  0  0  0  0
  8 24  1  0  0  0  0
  9 11  1  0  0  0  0
  9 25  1  0  0  0  0
  9 26  1  0  0  0  0
 10 13  1  0  0  0  0
 10 27  1  0  0  0  0
 10 28  1  0  0  0  0
 11 29  1  0  0  0  0
 11 30  1  0  0  0  0
 12 15  1  0  0  0  0
 12 31  1  0  0  0  0
 12 32  1  0  0  0  0
 13 33  1  0  0  0  0
 13 34  1  0  0  0  0
 14 18  1  0  0  0  0
 16 19  1  0  0  0  0
 16 35  1  0  0  0  0
 16 36  1  0  0  0  0
 17 20  1  0  0  0  0
 17 37  1  0  0  0  0
 17 38  1  0  0  0  0
 18 39  1  0  0  0  0
 18 40  1  0  0  0  0
 18 41  1  0  0  0  0
 19 42  1  0  0  0  0
 19 43  1  0  0  0  0
 19 44  1  0  0  0  0
 20 45  1  0  0  0  0
 20 46  1  0  0  0  0
 20 47  1  0  0  0  0
M  END
> <PUBCHEM_COMPOUND_CID>
25312536

> <PUBCHEM_CONFORMER_RMSD>
1

> <PUBCHEM_CONFORMER_DIVERSEORDER>
1
108
15
166
49
91
31
43
177
71
153
158
78
114
183
165
131
174
145
143
137
120
98
163
101
18
135
5
116
39
167
86
41
72
179
178
103
142
176
44
180
88
152
22
121
134
97
151
95
70
157
50
58
127
110
13
161
124
20
125
52
148
54
59
169
119
56
149
96
133
87
34
175
74
112
32
62
162
132
170
111
140
109
57
60
10
106
48
11
80
7
9
53
46
63
21
160
130
90
139
123
181
40
17
126
159
73
76
64
29
61
51
85
4
115
12
89
164
122
94
28
23
93
168
92
144
82
69
100
172
68
104
173
102
156
182
155
113
27
129
146
37
2
79
147
84
26
19
77
118
150
107
128
136
83
99
8
75
171
55
66
6
81
138
14
67
45
33
25
38
36
47
16
141
35
65
42
30
117
3
105
24
154

> <PUBCHEM_MMFF94_PARTIAL_CHARGES>
15
1 -0.57
11 0.3
12 0.06
13 0.27
14 0.57
15 0.66
16 0.27
17 0.27
18 0.06
2 -0.65
3 -0.57
4 -0.66
48 0.5
5 -0.81
8 0.3

> <PUBCHEM_EFFECTIVE_ROTOR_COUNT>
9.2

> <PUBCHEM_PHARMACOPHORE_FEATURES>
6
1 1 acceptor
1 2 acceptor
1 3 acceptor
1 5 cation
3 2 3 15 anion
6 4 6 7 8 9 11 rings

> <PUBCHEM_HEAVY_ATOM_COUNT>
20

> <PUBCHEM_ATOM_DEF_STEREO_COUNT>
2

> <PUBCHEM_ATOM_UDEF_STEREO_COUNT>
0

> <PUBCHEM_BOND_DEF_STEREO_COUNT>
0

> <PUBCHEM_BOND_UDEF_STEREO_COUNT>
0

> <PUBCHEM_ISOTOPIC_ATOM_COUNT>
0

> <PUBCHEM_COMPONENT_COUNT>
1

> <PUBCHEM_CACTVS_TAUTO_COUNT>
1

> <PUBCHEM_CONFORMER_ID>
01823D1800000001

> <PUBCHEM_MMFF94_ENERGY>
35.2426

> <PUBCHEM_FEATURE_SELFOVERLAP>
30.504

> <PUBCHEM_SHAPE_FINGERPRINT>
1100329 8 16320055686958594451
114674 6 18042128819995815507
12549972 3 18114466747218156753
12553582 1 18339377252926370735
12788726 201 17904756687703497291
13052359 8 17615972105893302924
13134695 92 18412539916463800709
13140716 1 18268720406758381441
13533116 47 18337676433941597651
13583140 156 18266177421548212791
136203 1 17907578021576113328
13955234 65 18196654210296663723
14178000 15 18412820274706978429
14251757 5 18117849793461045175
14866123 147 17472136172612973307
15042514 8 17618503177761036846
18186145 218 17767419241705011061
20645477 70 18263070162801433391
20681677 76 18336263569762870455
21041028 32 18340208496659341364
21524375 3 17337879678090148133
21731228 192 17548134888522936632
22943178 12 17968937630028299207
23526113 38 18334562565023300403
23557571 272 18120070807434729098
23559900 14 18041277789901100511
23845131 108 17259342696626715211
3091708 16 9068519594011700656
458136 41 17831038062213263069
54173680 148 17979351954694311652
6049 1 18041003998673701111
621550 34 17831025989725144251
6442390 28 17257108480197941539
6443956 14 18408319982093526182
7097593 13 18340496659227510675
7364860 26 18338518658882869702
7471813 234 18130210615292770941
81228 2 17905615401831340102
9709674 26 18189051057463347995

> <PUBCHEM_SHAPE_MULTIPOLES>
384.02
7.71
4.93
1.2
8.52
2.55
-0.08
-6.95
-0.28
-4.92
-1.39
1.09
0
1.16

> <PUBCHEM_SHAPE_SELFOVERLAP>
751.496

> <PUBCHEM_SHAPE_VOLUME>
230.5

> <PUBCHEM_COORDINATE_TYPE>
2
5
10

$$$$
