75536688
  -OEChem-12032416313D

 53 55  0     1  0  0  0  0  0999 V2000
    5.9504    1.1094    0.0577 S   0  0  0  0  0  0  0  0  0  0  0  0
   -7.9996   -1.3330    0.1851 S   0  0  0  0  0  0  0  0  0  0  0  0
    1.6247    1.5181   -1.3527 O   0  0  0  0  0  0  0  0  0  0  0  0
    0.7334    1.3292    2.1223 O   0  0  0  0  0  0  0  0  0  0  0  0
    6.0126    1.5586    1.4355 O   0  0  0  0  0  0  0  0  0  0  0  0
    6.8635    1.6540   -0.9289 O   0  0  0  0  0  0  0  0  0  0  0  0
   -7.8687   -2.6679   -0.3827 O   0  0  0  0  0  0  0  0  0  0  0  0
   -8.4436   -1.1740    1.5627 O   0  0  0  0  0  0  0  0  0  0  0  0
   -1.6233    0.7903    0.1144 N   0  0  0  0  0  0  0  0  0  0  0  0
    4.3567    1.2689   -0.5157 N   0  0  0  0  0  0  0  0  0  0  0  0
   -0.3630    1.4957   -0.0527 C   0  0  1  0  0  0  0  0  0  0  0  0
    0.7728    0.9163    0.7700 C   0  0  1  0  0  0  0  0  0  0  0  0
    1.9828    1.4820    0.0388 C   0  0  1  0  0  0  0  0  0  0  0  0
    0.1969    1.3814   -1.4610 C   0  0  0  0  0  0  0  0  0  0  0  0
    3.2393    0.6501    0.2241 C   0  0  0  0  0  0  0  0  0  0  0  0
   -2.7356    1.5696   -0.4160 C   0  0  0  0  0  0  0  0  0  0  0  0
   -4.0479    0.8469   -0.2666 C   0  0  0  0  0  0  0  0  0  0  0  0
    6.1650   -0.6452    0.0465 C   0  0  0  0  0  0  0  0  0  0  0  0
   -4.9443    1.2278    0.7320 C   0  0  0  0  0  0  0  0  0  0  0  0
   -4.3674   -0.2038   -1.1267 C   0  0  0  0  0  0  0  0  0  0  0  0
   -6.4794   -0.4923    0.0101 C   0  0  0  0  0  0  0  0  0  0  0  0
   -6.1601    0.5584    0.8703 C   0  0  0  0  0  0  0  0  0  0  0  0
   -5.5831   -0.8734   -0.9884 C   0  0  0  0  0  0  0  0  0  0  0  0
    5.8364   -1.3950    1.1758 C   0  0  0  0  0  0  0  0  0  0  0  0
    6.6632   -1.2797   -1.0913 C   0  0  0  0  0  0  0  0  0  0  0  0
    6.0062   -2.7796    1.1672 C   0  0  0  0  0  0  0  0  0  0  0  0
    6.8328   -2.6643   -1.1000 C   0  0  0  0  0  0  0  0  0  0  0  0
   -9.1248   -0.4346   -0.8590 C   0  0  0  0  0  0  0  0  0  0  0  0
    6.5042   -3.4141    0.0292 C   0  0  0  0  0  0  0  0  0  0  0  0
   -0.4796    2.5525    0.2265 H   0  0  0  0  0  0  0  0  0  0  0  0
    0.7664   -0.1803    0.7349 H   0  0  0  0  0  0  0  0  0  0  0  0
    2.1811    2.5154    0.3527 H   0  0  0  0  0  0  0  0  0  0  0  0
   -0.0001    0.4007   -1.9095 H   0  0  0  0  0  0  0  0  0  0  0  0
   -0.1906    2.1523   -2.1339 H   0  0  0  0  0  0  0  0  0  0  0  0
    3.0905   -0.3575   -0.1798 H   0  0  0  0  0  0  0  0  0  0  0  0
    3.4762    0.5778    1.2898 H   0  0  0  0  0  0  0  0  0  0  0  0
   -1.7820    0.6230    1.1084 H   0  0  0  0  0  0  0  0  0  0  0  0
   -2.5882    1.7848   -1.4821 H   0  0  0  0  0  0  0  0  0  0  0  0
   -2.7967    2.5423    0.0892 H   0  0  0  0  0  0  0  0  0  0  0  0
    0.7385    2.3011    2.1455 H   0  0  0  0  0  0  0  0  0  0  0  0
    4.2100    1.3905   -1.5256 H   0  0  0  0  0  0  0  0  0  0  0  0
   -4.7082    2.0441    1.4095 H   0  0  0  0  0  0  0  0  0  0  0  0
   -3.6776   -0.5084   -1.9095 H   0  0  0  0  0  0  0  0  0  0  0  0
   -6.8455    0.8761    1.6510 H   0  0  0  0  0  0  0  0  0  0  0  0
   -5.8142   -1.6847   -1.6728 H   0  0  0  0  0  0  0  0  0  0  0  0
    5.4447   -0.9223    2.0719 H   0  0  0  0  0  0  0  0  0  0  0  0
    6.9186   -0.7165   -1.9843 H   0  0  0  0  0  0  0  0  0  0  0  0
    5.7498   -3.3638    2.0461 H   0  0  0  0  0  0  0  0  0  0  0  0
    7.2190   -3.1588   -1.9866 H   0  0  0  0  0  0  0  0  0  0  0  0
  -10.1049   -0.9115   -0.7903 H   0  0  0  0  0  0  0  0  0  0  0  0
   -9.1878    0.5971   -0.5081 H   0  0  0  0  0  0  0  0  0  0  0  0
   -8.7629   -0.4737   -1.8882 H   0  0  0  0  0  0  0  0  0  0  0  0
    6.6357   -4.4921    0.0223 H   0  0  0  0  0  0  0  0  0  0  0  0
  1  5  2  0  0  0  0
  1  6  2  0  0  0  0
  1 10  1  0  0  0  0
  1 18  1  0  0  0  0
  2  7  2  0  0  0  0
  2  8  2  0  0  0  0
  2 21  1  0  0  0  0
  2 28  1  0  0  0  0
  3 13  1  0  0  0  0
  3 14  1  0  0  0  0
  4 12  1  0  0  0  0
  4 40  1  0  0  0  0
  9 11  1  0  0  0  0
  9 16  1  0  0  0  0
  9 37  1  0  0  0  0
 10 15  1  0  0  0  0
 10 41  1  0  0  0  0
 11 12  1  0  0  0  0
 11 14  1  0  0  0  0
 11 30  1  0  0  0  0
 12 13  1  0  0  0  0
 12 31  1  0  0  0  0
 13 15  1  0  0  0  0
 13 32  1  0  0  0  0
 14 33  1  0  0  0  0
 14 34  1  0  0  0  0
 15 35  1  0  0  0  0
 15 36  1  0  0  0  0
 16 17  1  0  0  0  0
 16 38  1  0  0  0  0
 16 39  1  0  0  0  0
 17 19  2  0  0  0  0
 17 20  1  0  0  0  0
 18 24  2  0  0  0  0
 18 25  1  0  0  0  0
 19 22  1  0  0  0  0
 19 42  1  0  0  0  0
 20 23  2  0  0  0  0
 20 43  1  0  0  0  0
 21 22  2  0  0  0  0
 21 23  1  0  0  0  0
 22 44  1  0  0  0  0
 23 45  1  0  0  0  0
 24 26  1  0  0  0  0
 24 46  1  0  0  0  0
 25 27  2  0  0  0  0
 25 47  1  0  0  0  0
 26 29  2  0  0  0  0
 26 48  1  0  0  0  0
 27 29  1  0  0  0  0
 27 49  1  0  0  0  0
 28 50  1  0  0  0  0
 28 51  1  0  0  0  0
 28 52  1  0  0  0  0
 29 53  1  0  0  0  0
M  END
> <PUBCHEM_COMPOUND_CID>
75536688

> <PUBCHEM_CONFORMER_RMSD>
1.2

> <PUBCHEM_CONFORMER_DIVERSEORDER>
1
152
133
126
23
128
146
169
77
48
85
93
157
131
16
164
67
92
143
176
96
53
144
69
117
25
101
38
44
18
160
11
106
149
91
132
5
31
156
56
150
151
103
33
81
174
55
65
34
73
51
105
32
57
74
60
177
4
161
110
24
68
158
87
163
63
119
167
75
173
120
2
112
114
80
20
172
59
124
3
29
180
137
21
145
49
134
166
35
39
102
118
41
42
171
58
115
123
12
9
109
22
61
179
88
155
130
83
72
113
111
94
40
127
104
147
121
14
6
140
66
7
178
98
159
43
82
36
165
162
27
76
86
148
107
153
26
10
138
100
50
54
99
84
64
168
129
28
154
89
95
136
97
30
170
45
108
52
46
79
15
62
139
116
122
47
37
135
78
17
175
8
71
70
90
142
13
141
125
19

> <PUBCHEM_MMFF94_PARTIAL_CHARGES>
41
1 1.45
10 -0.91
11 0.27
12 0.28
13 0.28
14 0.28
15 0.36
16 0.41
17 -0.14
18 -0.01
19 -0.15
2 1.2
20 -0.15
21 -0.01
22 -0.15
23 -0.15
24 -0.15
25 -0.15
26 -0.15
27 -0.15
28 0.11
29 -0.15
3 -0.56
37 0.36
4 -0.68
40 0.4
41 0.42
42 0.15
43 0.15
44 0.15
45 0.15
46 0.15
47 0.15
48 0.15
49 0.15
5 -0.65
53 0.15
6 -0.65
7 -0.65
8 -0.65
9 -0.9

> <PUBCHEM_EFFECTIVE_ROTOR_COUNT>
9

> <PUBCHEM_PHARMACOPHORE_FEATURES>
13
1 10 donor
1 3 acceptor
1 4 acceptor
1 4 donor
1 5 acceptor
1 6 acceptor
1 7 acceptor
1 8 acceptor
1 9 cation
1 9 donor
5 3 11 12 13 14 rings
6 17 19 20 21 22 23 rings
6 18 24 25 26 27 29 rings

> <PUBCHEM_HEAVY_ATOM_COUNT>
29

> <PUBCHEM_ATOM_DEF_STEREO_COUNT>
3

> <PUBCHEM_ATOM_UDEF_STEREO_COUNT>
0

> <PUBCHEM_BOND_DEF_STEREO_COUNT>
0

> <PUBCHEM_BOND_UDEF_STEREO_COUNT>
0

> <PUBCHEM_ISOTOPIC_ATOM_COUNT>
0

> <PUBCHEM_COMPONENT_COUNT>
1

> <PUBCHEM_CACTVS_TAUTO_COUNT>
1

> <PUBCHEM_CONFORMER_ID>
0480993000000001

> <PUBCHEM_MMFF94_ENERGY>
48.0284

> <PUBCHEM_FEATURE_SELFOVERLAP>
66.01

> <PUBCHEM_SHAPE_FINGERPRINT>
10 15 15698276733054229632
10066227 49 18335701620188643555
10299344 5 18342460352518695357
10816530 90 8142078733131975174
11408170 132 16009297704975239661
12082328 90 18260543416941472549
125118 31 9799689303297209806
12539765 74 10737281329576309441
13533116 47 18342175541106808912
1361 4 18410292536361782414
13617811 41 16008749096197155476
13668630 136 17821728360481371673
13782708 43 18337386050648606364
14251757 52 9295287231426221350
14251764 18 18202284723453480493
15183329 4 17967814942250312906
15352257 5 18410856555371611786
15475509 35 18201991111152451338
16994733 274 9367339323632174879
17134984 74 18113899343489677034
1754908 1 14764344955710682911
1768 124 18411136918547898438
1818759 1 18041287629940175123
18335252 98 18410854378640844280
19301679 30 18130793300431227524
20165401 70 18410853231642334006
2026 5 18261954037908269387
20281389 69 11383837060361690025
21033648 29 13182729364554236396
21130935 74 18341894065349253128
21315759 40 18411706508578742521
21344244 181 18186522098914553890
21521239 73 17894912910650467808
21792934 111 12895078383811868666
22224240 67 13758357778345586485
23522609 53 18196965251581235912
23569943 247 18045499712356436906
23576562 1 13913191052755049663
33532 11 18410292506017124679
3918712 181 8286187332717787022
397638 26 14620793799566273687
397830 11 12031205369396734444
406291 66 18409165476407698458
5104073 3 15194740995010444997
5470011 282 17894914057095590629
5758199 1 12463573984861576365
60111433 81 11315470553552398038
6057620 51 18409737283591493076
9831232 110 18266739083116953422

> <PUBCHEM_SHAPE_MULTIPOLES>
559.33
30.4
2.88
1.38
27.18
2.16
0.21
21.85
0.11
-4.8
0
-0.39
-0.05
-0.17

> <PUBCHEM_SHAPE_SELFOVERLAP>
1150.774

> <PUBCHEM_SHAPE_VOLUME>
322.1

> <PUBCHEM_COORDINATE_TYPE>
2
5
10

$$$$
