26744730
  -OEChem-12032416373D

 50 54  0     1  0  0  0  0  0999 V2000
    1.8041   -2.0683    1.7994 O   0  0  0  0  0  0  0  0  0  0  0  0
   -1.4316   -1.0817    0.7722 N   0  0  1  0  0  0  0  0  0  0  0  0
   -4.1642   -3.2501   -0.6053 N   0  0  0  0  0  0  0  0  0  0  0  0
   -2.4986   -4.3839   -1.5740 N   0  0  0  0  0  0  0  0  0  0  0  0
    1.6572   -0.9126   -0.1136 N   0  0  0  0  0  0  0  0  0  0  0  0
    3.0644   -1.4923    1.5945 N   0  0  0  0  0  0  0  0  0  0  0  0
    5.1363   -0.0524    0.4769 N   0  0  0  0  0  0  0  0  0  0  0  0
    4.7329    1.3230   -1.9338 N   0  0  0  0  0  0  0  0  0  0  0  0
   -0.4041   -2.1788    0.7356 C   0  0  1  0  0  0  0  0  0  0  0  0
   -0.5746   -3.1192   -0.5101 C   0  0  0  0  0  0  0  0  0  0  0  0
   -2.8242   -1.6136    0.8344 C   0  0  0  0  0  0  0  0  0  0  0  0
   -1.2386   -0.1730    1.9104 C   0  0  0  0  0  0  0  0  0  0  0  0
   -3.0048   -2.7080   -0.1406 C   0  0  0  0  0  0  0  0  0  0  0  0
   -2.0014   -3.4221   -0.7415 C   0  0  0  0  0  0  0  0  0  0  0  0
   -1.8812    1.1827    1.6217 C   0  0  0  0  0  0  0  0  0  0  0  0
    1.0365   -1.6774    0.7486 C   0  0  0  0  0  0  0  0  0  0  0  0
   -1.2486    1.8420    0.3933 C   0  0  0  0  0  0  0  0  0  0  0  0
   -3.8069   -4.2573   -1.4676 C   0  0  0  0  0  0  0  0  0  0  0  0
   -1.8978    3.1642    0.0734 C   0  0  0  0  0  0  0  0  0  0  0  0
    2.8980   -0.8269    0.4477 C   0  0  0  0  0  0  0  0  0  0  0  0
   -2.9944    3.2132   -0.7870 C   0  0  0  0  0  0  0  0  0  0  0  0
   -1.4014    4.3392    0.6381 C   0  0  0  0  0  0  0  0  0  0  0  0
    3.9509   -0.0689   -0.1643 C   0  0  0  0  0  0  0  0  0  0  0  0
   -3.5948    4.4372   -1.0830 C   0  0  0  0  0  0  0  0  0  0  0  0
   -2.0018    5.5630    0.3426 C   0  0  0  0  0  0  0  0  0  0  0  0
   -3.0985    5.6119   -0.5182 C   0  0  0  0  0  0  0  0  0  0  0  0
    3.7527    0.6067   -1.3484 C   0  0  0  0  0  0  0  0  0  0  0  0
    6.1164    0.6639   -0.1086 C   0  0  0  0  0  0  0  0  0  0  0  0
    5.9183    1.3396   -1.2926 C   0  0  0  0  0  0  0  0  0  0  0  0
   -0.5475   -2.7930    1.6377 H   0  0  0  0  0  0  0  0  0  0  0  0
   -0.0094   -4.0459   -0.3552 H   0  0  0  0  0  0  0  0  0  0  0  0
   -0.1729   -2.6368   -1.4105 H   0  0  0  0  0  0  0  0  0  0  0  0
   -3.5415   -0.8184    0.6056 H   0  0  0  0  0  0  0  0  0  0  0  0
   -3.0510   -2.0044    1.8347 H   0  0  0  0  0  0  0  0  0  0  0  0
   -0.1778    0.0236    2.1009 H   0  0  0  0  0  0  0  0  0  0  0  0
   -1.6338   -0.5953    2.8429 H   0  0  0  0  0  0  0  0  0  0  0  0
   -1.7344    1.8297    2.4965 H   0  0  0  0  0  0  0  0  0  0  0  0
   -2.9665    1.0930    1.4986 H   0  0  0  0  0  0  0  0  0  0  0  0
   -5.1063   -2.9726   -0.3628 H   0  0  0  0  0  0  0  0  0  0  0  0
   -0.1735    1.9921    0.5566 H   0  0  0  0  0  0  0  0  0  0  0  0
   -1.3275    1.1959   -0.4898 H   0  0  0  0  0  0  0  0  0  0  0  0
   -4.5462   -4.8552   -1.9814 H   0  0  0  0  0  0  0  0  0  0  0  0
   -3.3916    2.3044   -1.2313 H   0  0  0  0  0  0  0  0  0  0  0  0
   -0.5486    4.3136    1.3113 H   0  0  0  0  0  0  0  0  0  0  0  0
   -4.4490    4.4753   -1.7526 H   0  0  0  0  0  0  0  0  0  0  0  0
   -1.6158    6.4778    0.7827 H   0  0  0  0  0  0  0  0  0  0  0  0
   -3.5661    6.5648   -0.7482 H   0  0  0  0  0  0  0  0  0  0  0  0
    2.8087    0.6083   -1.8815 H   0  0  0  0  0  0  0  0  0  0  0  0
    7.0691    0.6777    0.4061 H   0  0  0  0  0  0  0  0  0  0  0  0
    6.7063    1.9150   -1.7623 H   0  0  0  0  0  0  0  0  0  0  0  0
  1  6  1  0  0  0  0
  1 16  1  0  0  0  0
  2  9  1  0  0  0  0
  2 11  1  0  0  0  0
  2 12  1  0  0  0  0
  3 13  1  0  0  0  0
  3 18  1  0  0  0  0
  3 39  1  0  0  0  0
  4 14  1  0  0  0  0
  4 18  2  0  0  0  0
  5 16  2  0  0  0  0
  5 20  1  0  0  0  0
  6 20  2  0  0  0  0
  7 23  2  0  0  0  0
  7 28  1  0  0  0  0
  8 27  2  0  0  0  0
  8 29  1  0  0  0  0
  9 10  1  0  0  0  0
  9 16  1  0  0  0  0
  9 30  1  0  0  0  0
 10 14  1  0  0  0  0
 10 31  1  0  0  0  0
 10 32  1  0  0  0  0
 11 13  1  0  0  0  0
 11 33  1  0  0  0  0
 11 34  1  0  0  0  0
 12 15  1  0  0  0  0
 12 35  1  0  0  0  0
 12 36  1  0  0  0  0
 13 14  2  0  0  0  0
 15 17  1  0  0  0  0
 15 37  1  0  0  0  0
 15 38  1  0  0  0  0
 17 19  1  0  0  0  0
 17 40  1  0  0  0  0
 17 41  1  0  0  0  0
 18 42  1  0  0  0  0
 19 21  2  0  0  0  0
 19 22  1  0  0  0  0
 20 23  1  0  0  0  0
 21 24  1  0  0  0  0
 21 43  1  0  0  0  0
 22 25  2  0  0  0  0
 22 44  1  0  0  0  0
 23 27  1  0  0  0  0
 24 26  2  0  0  0  0
 24 45  1  0  0  0  0
 25 26  1  0  0  0  0
 25 46  1  0  0  0  0
 26 47  1  0  0  0  0
 27 48  1  0  0  0  0
 28 29  2  0  0  0  0
 28 49  1  0  0  0  0
 29 50  1  0  0  0  0
M  END
> <PUBCHEM_COMPOUND_CID>
26744730

> <PUBCHEM_CONFORMER_RMSD>
1

> <PUBCHEM_CONFORMER_DIVERSEORDER>
1
27
123
48
94
33
37
105
12
85
122
152
132
148
111
18
129
36
76
118
86
83
144
139
130
22
140
109
6
40
79
57
114
108
124
5
82
145
104
84
8
147
60
149
41
151
146
9
53
17
121
95
81
90
88
103
142
119
45
134
20
143
93
77
153
24
21
67
26
141
128
11
78
34
62
35
101
3
43
66
127
4
44
31
10
49
14
39
51
100
116
75
87
98
2
61
25
63
106
46
74
99
131
120
112
102
133
138
71
16
80
23
42
32
50
125
52
72
30
13
29
47
91
65
68
110
7
136
64
89
59
69
115
54
96
58
150
70
92
19
38
135
113
97
117
107
28
55
137
56
126
73
15

> <PUBCHEM_MMFF94_PARTIAL_CHARGES>
38
1 -0.02
10 0.18
11 0.45
12 0.27
13 -0.33
14 0.05
16 0.3
17 0.14
18 0.04
19 -0.14
2 -0.81
20 0.46
21 -0.15
22 -0.15
23 0.36
24 -0.15
25 -0.15
26 -0.15
27 0.16
28 0.16
29 0.16
3 0.03
39 0.27
4 -0.57
42 0.15
43 0.15
44 0.15
45 0.15
46 0.15
47 0.15
48 0.15
49 0.15
5 -0.57
50 0.15
6 -0.41
7 -0.62
8 -0.62
9 0.45

> <PUBCHEM_EFFECTIVE_ROTOR_COUNT>
6.8

> <PUBCHEM_PHARMACOPHORE_FEATURES>
11
1 2 cation
1 3 donor
1 7 acceptor
1 8 acceptor
3 3 4 18 cation
3 5 6 20 cation
5 1 5 6 16 20 rings
5 3 4 13 14 18 rings
6 19 21 22 24 25 26 rings
6 2 9 10 11 13 14 rings
6 7 8 23 27 28 29 rings

> <PUBCHEM_HEAVY_ATOM_COUNT>
29

> <PUBCHEM_ATOM_DEF_STEREO_COUNT>
1

> <PUBCHEM_ATOM_UDEF_STEREO_COUNT>
0

> <PUBCHEM_BOND_DEF_STEREO_COUNT>
0

> <PUBCHEM_BOND_UDEF_STEREO_COUNT>
0

> <PUBCHEM_ISOTOPIC_ATOM_COUNT>
0

> <PUBCHEM_COMPONENT_COUNT>
1

> <PUBCHEM_CACTVS_TAUTO_COUNT>
2

> <PUBCHEM_CONFORMER_ID>
0198179A00000001

> <PUBCHEM_MMFF94_ENERGY>
59.5507

> <PUBCHEM_FEATURE_SELFOVERLAP>
55.926

> <PUBCHEM_SHAPE_FINGERPRINT>
10871710 139 18335714878446315586
10937287 8 18122343471571809813
11045515 52 18196089060982415411
11477941 20 18126570248384097812
11513181 2 17979357464984248860
12788726 201 18335411374920044795
13540713 5 18041832923336108458
13761468 95 17907904701616981408
14114211 80 18055370036686913720
14294032 229 18340212907554065377
14556957 393 18189627218471824580
14910302 57 17702127874905412942
15198563 99 18341050817329851205
15420108 30 18118396247030443408
15538507 32 18411691093857377437
15664445 248 17546151360967199928
15705408 1 17545587311865823663
15878777 1 10229189481692392723
15961568 22 17837205253690028120
16067690 210 17542555855376828612
16992828 155 18261685787304739876
20642791 239 17976538635199359427
21033650 10 18190486959819758062
21641784 216 18268157624361575230
21792964 463 17676781919512346909
22907989 373 18410002217978428351
23576562 1 17980467190952480319
23929065 36 18268128994668730064
245318 6 17753913622453732428
24893989 43 16334061631836711909
24941158 1 16894535175169611421
3388396 114 17831314061582335268
376196 1 17610628509774474977
4066623 53 18124862714767249469
474 4 17469604010161136793
5081480 168 17911216632540073743
6608658 132 18121800558257749996
6677587 24 16959533994920634741

> <PUBCHEM_SHAPE_MULTIPOLES>
556.07
10.35
8.58
1.61
18.33
3.51
0.09
7.67
-3.84
-16.6
-3.38
0.3
-0.5
-2.22

> <PUBCHEM_SHAPE_SELFOVERLAP>
1218.596

> <PUBCHEM_SHAPE_VOLUME>
299.9

> <PUBCHEM_COORDINATE_TYPE>
2
5
10

$$$$
