75536585
  -OEChem-12032416333D

 40 41  0     1  0  0  0  0  0999 V2000
    0.8820   -1.2056    0.1227 O   0  0  0  0  0  0  0  0  0  0  0  0
   -0.0730    2.2559    0.0164 O   0  0  0  0  0  0  0  0  0  0  0  0
    4.5125    1.4057   -0.2577 O   0  0  0  0  0  0  0  0  0  0  0  0
    6.7087   -0.0910   -0.6867 O   0  0  0  0  0  0  0  0  0  0  0  0
   -2.4648    0.2193    0.1066 N   0  0  0  0  0  0  0  0  0  0  0  0
    3.4715   -0.2790    0.9640 N   0  0  0  0  0  0  0  0  0  0  0  0
   -5.3596   -1.0147    0.5140 N   0  0  0  0  0  0  0  0  0  0  0  0
   -5.6943    0.6550   -0.9114 N   0  0  0  0  0  0  0  0  0  0  0  0
   -1.0821    0.0573   -0.3125 C   0  0  1  0  0  0  0  0  0  0  0  0
   -0.1045    0.9160    0.4683 C   0  0  1  0  0  0  0  0  0  0  0  0
    1.2068    0.1928    0.1920 C   0  0  1  0  0  0  0  0  0  0  0  0
   -0.5410   -1.3369   -0.0411 C   0  0  0  0  0  0  0  0  0  0  0  0
    2.2571    0.4233    1.2638 C   0  0  0  0  0  0  0  0  0  0  0  0
   -3.3809   -0.3521   -0.8733 C   0  0  0  0  0  0  0  0  0  0  0  0
   -4.8179   -0.2081   -0.4478 C   0  0  0  0  0  0  0  0  0  0  0  0
    4.5096    0.2747    0.2209 C   0  0  0  0  0  0  0  0  0  0  0  0
    5.6682   -0.6861    0.0590 C   0  0  0  0  0  0  0  0  0  0  0  0
   -6.6645   -0.6421    0.6740 C   0  0  0  0  0  0  0  0  0  0  0  0
   -6.8476    0.3897   -0.2162 C   0  0  0  0  0  0  0  0  0  0  0  0
    7.8139   -0.9741   -0.8550 C   0  0  0  0  0  0  0  0  0  0  0  0
   -0.9771    0.3061   -1.3781 H   0  0  0  0  0  0  0  0  0  0  0  0
   -0.3416    0.9096    1.5395 H   0  0  0  0  0  0  0  0  0  0  0  0
    1.6115    0.4829   -0.7867 H   0  0  0  0  0  0  0  0  0  0  0  0
   -0.9348   -1.7629    0.8890 H   0  0  0  0  0  0  0  0  0  0  0  0
   -0.7486   -2.0370   -0.8560 H   0  0  0  0  0  0  0  0  0  0  0  0
    1.9117    0.0410    2.2306 H   0  0  0  0  0  0  0  0  0  0  0  0
    2.4735    1.4918    1.3691 H   0  0  0  0  0  0  0  0  0  0  0  0
   -2.6683    1.2140    0.2083 H   0  0  0  0  0  0  0  0  0  0  0  0
   -3.1745   -1.4186   -1.0248 H   0  0  0  0  0  0  0  0  0  0  0  0
   -3.2620    0.1462   -1.8436 H   0  0  0  0  0  0  0  0  0  0  0  0
    0.1364    2.2536   -0.9329 H   0  0  0  0  0  0  0  0  0  0  0  0
    3.5652   -1.2309    1.3067 H   0  0  0  0  0  0  0  0  0  0  0  0
   -4.8833   -1.7520    1.0166 H   0  0  0  0  0  0  0  0  0  0  0  0
    6.0327   -0.9609    1.0556 H   0  0  0  0  0  0  0  0  0  0  0  0
    5.3044   -1.5827   -0.4563 H   0  0  0  0  0  0  0  0  0  0  0  0
   -7.3192   -1.1289    1.3821 H   0  0  0  0  0  0  0  0  0  0  0  0
   -7.7511    0.9551   -0.3918 H   0  0  0  0  0  0  0  0  0  0  0  0
    8.5811   -0.4569   -1.4373 H   0  0  0  0  0  0  0  0  0  0  0  0
    8.2358   -1.2473    0.1169 H   0  0  0  0  0  0  0  0  0  0  0  0
    7.5059   -1.8719   -1.3995 H   0  0  0  0  0  0  0  0  0  0  0  0
  1 11  1  0  0  0  0
  1 12  1  0  0  0  0
  2 10  1  0  0  0  0
  2 31  1  0  0  0  0
  3 16  2  0  0  0  0
  4 17  1  0  0  0  0
  4 20  1  0  0  0  0
  5  9  1  0  0  0  0
  5 14  1  0  0  0  0
  5 28  1  0  0  0  0
  6 13  1  0  0  0  0
  6 16  1  0  0  0  0
  6 32  1  0  0  0  0
  7 15  1  0  0  0  0
  7 18  1  0  0  0  0
  7 33  1  0  0  0  0
  8 15  2  0  0  0  0
  8 19  1  0  0  0  0
  9 10  1  0  0  0  0
  9 12  1  0  0  0  0
  9 21  1  0  0  0  0
 10 11  1  0  0  0  0
 10 22  1  0  0  0  0
 11 13  1  0  0  0  0
 11 23  1  0  0  0  0
 12 24  1  0  0  0  0
 12 25  1  0  0  0  0
 13 26  1  0  0  0  0
 13 27  1  0  0  0  0
 14 15  1  0  0  0  0
 14 29  1  0  0  0  0
 14 30  1  0  0  0  0
 16 17  1  0  0  0  0
 17 34  1  0  0  0  0
 17 35  1  0  0  0  0
 18 19  2  0  0  0  0
 18 36  1  0  0  0  0
 19 37  1  0  0  0  0
 20 38  1  0  0  0  0
 20 39  1  0  0  0  0
 20 40  1  0  0  0  0
M  END
> <PUBCHEM_COMPOUND_CID>
75536585

> <PUBCHEM_CONFORMER_RMSD>
0.8

> <PUBCHEM_CONFORMER_DIVERSEORDER>
1
44
81
6
51
49
15
70
79
54
62
77
72
74
56
58
25
84
30
32
47
33
34
78
43
73
7
11
10
14
28
80
68
40
37
66
83
65
75
26
69
29
53
50
82
35
13
39
9
23
64
42
18
19
27
55
20
38
41
61
76
71
5
31
17
21
60
36
46
67
48
57
52
45
3
4
12
16
8
24
2
22
59
63

> <PUBCHEM_MMFF94_PARTIAL_CHARGES>
26
1 -0.56
10 0.28
11 0.28
12 0.28
13 0.3
14 0.45
15 0.01
16 0.57
17 0.34
18 -0.3
19 0.08
2 -0.68
20 0.28
28 0.36
3 -0.57
31 0.4
32 0.37
33 0.27
36 0.15
37 0.15
4 -0.56
5 -0.9
6 -0.73
7 0.03
8 -0.57
9 0.27

> <PUBCHEM_EFFECTIVE_ROTOR_COUNT>
9

> <PUBCHEM_PHARMACOPHORE_FEATURES>
12
1 1 acceptor
1 2 acceptor
1 2 donor
1 3 acceptor
1 4 acceptor
1 5 cation
1 5 donor
1 6 donor
1 7 donor
3 7 8 15 cation
5 1 9 10 11 12 rings
5 7 8 15 18 19 rings

> <PUBCHEM_HEAVY_ATOM_COUNT>
20

> <PUBCHEM_ATOM_DEF_STEREO_COUNT>
3

> <PUBCHEM_ATOM_UDEF_STEREO_COUNT>
0

> <PUBCHEM_BOND_DEF_STEREO_COUNT>
0

> <PUBCHEM_BOND_UDEF_STEREO_COUNT>
0

> <PUBCHEM_ISOTOPIC_ATOM_COUNT>
0

> <PUBCHEM_COMPONENT_COUNT>
1

> <PUBCHEM_CACTVS_TAUTO_COUNT>
2

> <PUBCHEM_CONFORMER_ID>
048098C900000001

> <PUBCHEM_MMFF94_ENERGY>
27.7037

> <PUBCHEM_FEATURE_SELFOVERLAP>
60.906

> <PUBCHEM_SHAPE_FINGERPRINT>
106641 1 8142076568198840868
10968037 39 14923944553150129675
11089746 13 15770052848358322515
11796584 16 14476957921476641909
12091667 2 18343580746852256711
12236239 1 17167857547826697970
13533116 47 7853590014982238200
14123256 10 17458345238872955372
14251718 22 15936405641751920867
14251752 14 18412540990152883260
14251764 18 16128658561541521624
14251764 46 18410572885645137099
14933364 13 17967532367619484541
15048467 5 15719390629125063362
15183329 4 17275384296002485903
17834076 25 15791729698276865066
18006028 8 16773795896447310232
21095086 128 18201999950105832783
21150785 3 17312827074155320766
21267235 1 18412267237379723248
220451 1 17022896852705372731
23035841 295 18412824689870087587
23402539 116 13973963216827790121
23559900 14 17560226059169535072
246663 6 18130793347833934798
28498 318 17346882217484344278
3004659 81 18409165515916452696
328311 84 18342742926732915606
34797466 226 15864075351566422470
4325135 7 15647053767898000215
4340502 62 16370718232012561554
4463277 17 18408882949348304729
5207 217 13912325685237029649
5486654 2 17385442124387743459
5758199 1 14634869734313546721
59682541 35 12396308058160077637
59755656 215 18272370841176249174
59755656 520 18260543446336739263

> <PUBCHEM_SHAPE_MULTIPOLES>
368.19
20.41
1.27
0.92
5.6
0.33
0.06
-4.3
-3.57
0.45
-0.03
0.07
-0.01
0.68

> <PUBCHEM_SHAPE_SELFOVERLAP>
749.516

> <PUBCHEM_SHAPE_VOLUME>
213.5

> <PUBCHEM_COORDINATE_TYPE>
2
5
10

$$$$
