45784200
  -OEChem-12032416243D

 38 40  0     1  0  0  0  0  0999 V2000
    1.0110   -1.4988   -0.3652 O   0  0  0  0  0  0  0  0  0  0  0  0
   -3.5068   -0.1713    0.0050 N   0  0  1  0  0  0  0  0  0  0  0  0
    0.6616    0.5816    0.4634 N   0  0  0  0  0  0  0  0  0  0  0  0
   -1.3156   -0.9930    0.1549 C   0  0  2  0  0  0  0  0  0  0  0  0
   -2.2268   -0.1054   -0.7035 C   0  0  0  0  0  0  0  0  0  0  0  0
   -1.9517   -0.9651    1.5555 C   0  0  0  0  0  0  0  0  0  0  0  0
   -3.1608   -0.0485    1.4210 C   0  0  0  0  0  0  0  0  0  0  0  0
   -4.4360    0.8611   -0.4300 C   0  0  0  0  0  0  0  0  0  0  0  0
    0.1343   -0.5691    0.1073 C   0  0  0  0  0  0  0  0  0  0  0  0
   -5.7247    0.7903    0.3844 C   0  0  0  0  0  0  0  0  0  0  0  0
   -4.7194    0.6943   -1.9195 C   0  0  0  0  0  0  0  0  0  0  0  0
    2.0005    0.4083    0.2084 C   0  0  0  0  0  0  0  0  0  0  0  0
    2.2182   -0.8642   -0.2989 C   0  0  0  0  0  0  0  0  0  0  0  0
    3.0957    1.2681    0.3747 C   0  0  0  0  0  0  0  0  0  0  0  0
    3.4599   -1.3690   -0.6643 C   0  0  0  0  0  0  0  0  0  0  0  0
    4.3660    0.7938    0.0167 C   0  0  0  0  0  0  0  0  0  0  0  0
    4.5419   -0.4988   -0.4922 C   0  0  0  0  0  0  0  0  0  0  0  0
    5.5526    1.6857    0.1822 C   0  0  0  0  0  0  0  0  0  0  0  0
   -1.3811   -2.0255   -0.2172 H   0  0  0  0  0  0  0  0  0  0  0  0
   -2.2864   -0.5079   -1.7204 H   0  0  0  0  0  0  0  0  0  0  0  0
   -1.8437    0.9224   -0.7575 H   0  0  0  0  0  0  0  0  0  0  0  0
   -2.2742   -1.9778    1.8284 H   0  0  0  0  0  0  0  0  0  0  0  0
   -1.2690   -0.6122    2.3357 H   0  0  0  0  0  0  0  0  0  0  0  0
   -2.8788    0.9784    1.6872 H   0  0  0  0  0  0  0  0  0  0  0  0
   -3.9604   -0.3822    2.0896 H   0  0  0  0  0  0  0  0  0  0  0  0
   -4.0047    1.8607   -0.2816 H   0  0  0  0  0  0  0  0  0  0  0  0
   -6.4715    1.4831   -0.0202 H   0  0  0  0  0  0  0  0  0  0  0  0
   -5.5709    1.0745    1.4304 H   0  0  0  0  0  0  0  0  0  0  0  0
   -6.1628   -0.2141    0.3597 H   0  0  0  0  0  0  0  0  0  0  0  0
   -5.5080    1.3858   -2.2381 H   0  0  0  0  0  0  0  0  0  0  0  0
   -3.8439    0.9170   -2.5380 H   0  0  0  0  0  0  0  0  0  0  0  0
   -5.0607   -0.3203   -2.1552 H   0  0  0  0  0  0  0  0  0  0  0  0
    2.9569    2.2702    0.7677 H   0  0  0  0  0  0  0  0  0  0  0  0
    3.5851   -2.3702   -1.0574 H   0  0  0  0  0  0  0  0  0  0  0  0
    5.5365   -0.8455   -0.7654 H   0  0  0  0  0  0  0  0  0  0  0  0
    6.4444    1.1084    0.4488 H   0  0  0  0  0  0  0  0  0  0  0  0
    5.3926    2.4153    0.9834 H   0  0  0  0  0  0  0  0  0  0  0  0
    5.7480    2.2264   -0.7491 H   0  0  0  0  0  0  0  0  0  0  0  0
  1  9  1  0  0  0  0
  1 13  1  0  0  0  0
  2  5  1  0  0  0  0
  2  7  1  0  0  0  0
  2  8  1  0  0  0  0
  3  9  2  0  0  0  0
  3 12  1  0  0  0  0
  4  5  1  0  0  0  0
  4  6  1  0  0  0  0
  4  9  1  0  0  0  0
  4 19  1  0  0  0  0
  5 20  1  0  0  0  0
  5 21  1  0  0  0  0
  6  7  1  0  0  0  0
  6 22  1  0  0  0  0
  6 23  1  0  0  0  0
  7 24  1  0  0  0  0
  7 25  1  0  0  0  0
  8 10  1  0  0  0  0
  8 11  1  0  0  0  0
  8 26  1  0  0  0  0
 10 27  1  0  0  0  0
 10 28  1  0  0  0  0
 10 29  1  0  0  0  0
 11 30  1  0  0  0  0
 11 31  1  0  0  0  0
 11 32  1  0  0  0  0
 12 13  2  0  0  0  0
 12 14  1  0  0  0  0
 13 15  1  0  0  0  0
 14 16  2  0  0  0  0
 14 33  1  0  0  0  0
 15 17  2  0  0  0  0
 15 34  1  0  0  0  0
 16 17  1  0  0  0  0
 16 18  1  0  0  0  0
 17 35  1  0  0  0  0
 18 36  1  0  0  0  0
 18 37  1  0  0  0  0
 18 38  1  0  0  0  0
M  END
> <PUBCHEM_COMPOUND_CID>
45784200

> <PUBCHEM_CONFORMER_RMSD>
0.6

> <PUBCHEM_CONFORMER_DIVERSEORDER>
1
12
22
9
13
20
14
19
15
21
16
6
2
18
11
17
10
3
7
4
8
5

> <PUBCHEM_MMFF94_PARTIAL_CHARGES>
18
1 -0.28
12 0.23
13 0.14
14 -0.15
15 -0.15
16 -0.14
17 -0.15
18 0.14
2 -0.81
3 -0.57
33 0.15
34 0.15
35 0.15
4 0.18
5 0.27
7 0.27
8 0.27
9 0.3

> <PUBCHEM_EFFECTIVE_ROTOR_COUNT>
3

> <PUBCHEM_PHARMACOPHORE_FEATURES>
5
1 2 cation
3 8 10 11 hydrophobe
5 1 3 9 12 13 rings
5 2 4 5 6 7 rings
6 12 13 14 15 16 17 rings

> <PUBCHEM_HEAVY_ATOM_COUNT>
18

> <PUBCHEM_ATOM_DEF_STEREO_COUNT>
1

> <PUBCHEM_ATOM_UDEF_STEREO_COUNT>
0

> <PUBCHEM_BOND_DEF_STEREO_COUNT>
0

> <PUBCHEM_BOND_UDEF_STEREO_COUNT>
0

> <PUBCHEM_ISOTOPIC_ATOM_COUNT>
0

> <PUBCHEM_COMPONENT_COUNT>
1

> <PUBCHEM_CACTVS_TAUTO_COUNT>
1

> <PUBCHEM_CONFORMER_ID>
02BA9C8800000001

> <PUBCHEM_MMFF94_ENERGY>
28.4281

> <PUBCHEM_FEATURE_SELFOVERLAP>
25.49

> <PUBCHEM_SHAPE_FINGERPRINT>
10014705 185 18336546105021067983
11089746 13 17418373610674448224
11471102 20 18272936020734226174
11543360 7 14836126589256407914
11796584 16 12822480917060024820
12236239 1 17203612566782668003
12500047 106 17821450178922079899
12730499 353 18335990783309768963
12916748 109 17748829588060363525
12969540 114 18334844009903695887
13675066 3 17968105239053049482
13760787 5 17917440808565754362
14251718 22 14333406774782275992
14252887 29 11602812485151772720
14528608 73 17418091044449041904
15238133 3 15864351311604464228
15375358 24 18333169466109937490
16988056 13 13526217591555877249
17834072 33 17131828776582884021
18186145 218 18408327670074579387
200 152 17489868228683007267
20279233 1 18260272953290152610
20300324 65 15913332394443044083
20612939 158 18202008716170487366
20645477 56 18040719181959031691
20645477 70 18271811177099779510
20871999 31 14549020970381718987
21033648 29 18187074053756938861
212916 134 17095518504687319611
221357 26 18272363136453527109
231179 274 18333167271592606882
23402539 116 17822284712600226351
23402655 69 18059853973852743070
23503953 91 15213019375216101922
23557571 272 18114188591697420571
23559900 14 17677058945336045894
2916195 48 18113333111690461949
29717793 49 16773805762150693372
300161 21 17632573859900054632
34797466 226 13830127325842557536
34934 24 18341327873027929874
3545911 37 18413111683869003267
4028521 119 18261106340623773821
4047638 21 18260831488407362702
4072396 5 18342164563080560810
42 15 11530480021385261695
495365 180 18409720747339273130
5104073 3 18259707782843914811
542803 24 17418095403909159281
573450 72 15430037685950626923
8272917 22 18130794399716093158

> <PUBCHEM_SHAPE_MULTIPOLES>
354.6
12.59
1.42
1.2
2.3
0.04
0.07
5.64
1.47
-1.16
0.01
1.47
-0.02
1.21

> <PUBCHEM_SHAPE_SELFOVERLAP>
759.471

> <PUBCHEM_SHAPE_VOLUME>
200.7

> <PUBCHEM_COORDINATE_TYPE>
2
5
10

$$$$
