45783997
  -OEChem-12032416273D

 69 71  0     1  0  0  0  0  0999 V2000
    3.6271    1.7046   -0.8441 O   0  0  0  0  0  0  0  0  0  0  0  0
   -8.1012    1.0780   -0.2288 O   0  0  0  0  0  0  0  0  0  0  0  0
   -1.7484   -0.1949    0.4726 N   0  0  0  0  0  0  0  0  0  0  0  0
   -4.4648    0.7771    0.2857 N   0  0  0  0  0  0  0  0  0  0  0  0
    3.4372    0.9084    1.2378 N   0  0  0  0  0  0  0  0  0  0  0  0
    3.2212    2.2732    1.2811 N   0  0  0  0  0  0  0  0  0  0  0  0
    0.2916   -1.9404   -0.7032 C   0  0  1  0  0  0  0  0  0  0  0  0
    0.0918   -1.7938    0.8233 C   0  0  2  0  0  0  0  0  0  0  0  0
    1.5717   -1.2200   -1.1497 C   0  0  0  0  0  0  0  0  0  0  0  0
    2.8379   -1.7121   -0.4164 C   0  0  2  0  0  0  0  0  0  0  0  0
    0.3089   -3.4156   -1.1260 C   0  0  0  0  0  0  0  0  0  0  0  0
   -0.4954   -0.4265    1.1884 C   0  0  0  0  0  0  0  0  0  0  0  0
    1.3673   -2.0082    1.5975 C   0  0  0  0  0  0  0  0  0  0  0  0
    2.6012   -1.9877    1.0608 C   0  0  0  0  0  0  0  0  0  0  0  0
    3.9681   -0.7046   -0.6616 C   0  0  0  0  0  0  0  0  0  0  0  0
   -2.8581   -0.9041    1.1212 C   0  0  0  0  0  0  0  0  0  0  0  0
   -2.0401    1.2412    0.3832 C   0  0  0  0  0  0  0  0  0  0  0  0
    0.9281   -3.5645   -2.5120 C   0  0  0  0  0  0  0  0  0  0  0  0
   -1.1027   -3.9933   -1.0993 C   0  0  0  0  0  0  0  0  0  0  0  0
   -4.1738   -0.6591    0.3743 C   0  0  0  0  0  0  0  0  0  0  0  0
   -3.3554    1.4852   -0.3645 C   0  0  0  0  0  0  0  0  0  0  0  0
    3.8025   -2.3007    1.9101 C   0  0  0  0  0  0  0  0  0  0  0  0
    3.6699    0.6210   -0.0216 C   0  0  0  0  0  0  0  0  0  0  0  0
   -5.7187    1.0096   -0.4284 C   0  0  0  0  0  0  0  0  0  0  0  0
   -6.9077    0.8263    0.5012 C   0  0  0  0  0  0  0  0  0  0  0  0
    3.3420    2.6956    0.0443 C   0  0  0  0  0  0  0  0  0  0  0  0
    3.2118    4.0542   -0.4970 C   0  0  0  0  0  0  0  0  0  0  0  0
    1.7435    4.5111   -0.6363 C   0  0  0  0  0  0  0  0  0  0  0  0
    0.9447    3.6400   -1.5928 C   0  0  0  0  0  0  0  0  0  0  0  0
   -0.5348   -1.4666   -1.2478 H   0  0  0  0  0  0  0  0  0  0  0  0
   -0.5967   -2.5670    1.1781 H   0  0  0  0  0  0  0  0  0  0  0  0
    1.7218   -1.2483   -2.2346 H   0  0  0  0  0  0  0  0  0  0  0  0
    1.4114   -0.1528   -0.9496 H   0  0  0  0  0  0  0  0  0  0  0  0
    3.1576   -2.6631   -0.8589 H   0  0  0  0  0  0  0  0  0  0  0  0
    0.9197   -4.0079   -0.4333 H   0  0  0  0  0  0  0  0  0  0  0  0
    0.2356    0.3490    0.9218 H   0  0  0  0  0  0  0  0  0  0  0  0
   -0.6352   -0.3349    2.2747 H   0  0  0  0  0  0  0  0  0  0  0  0
    1.2505   -2.2104    2.6602 H   0  0  0  0  0  0  0  0  0  0  0  0
    4.1145   -0.5675   -1.7405 H   0  0  0  0  0  0  0  0  0  0  0  0
    4.9215   -1.0776   -0.2701 H   0  0  0  0  0  0  0  0  0  0  0  0
   -2.6818   -1.9846    1.1264 H   0  0  0  0  0  0  0  0  0  0  0  0
   -2.9688   -0.5876    2.1674 H   0  0  0  0  0  0  0  0  0  0  0  0
   -2.0919    1.6926    1.3833 H   0  0  0  0  0  0  0  0  0  0  0  0
   -1.2389    1.7504   -0.1648 H   0  0  0  0  0  0  0  0  0  0  0  0
    2.0074   -3.4003   -2.5318 H   0  0  0  0  0  0  0  0  0  0  0  0
    0.7845   -4.5896   -2.8753 H   0  0  0  0  0  0  0  0  0  0  0  0
    0.4500   -2.9027   -3.2429 H   0  0  0  0  0  0  0  0  0  0  0  0
   -1.0975   -5.0353   -1.4384 H   0  0  0  0  0  0  0  0  0  0  0  0
   -1.5353   -3.9904   -0.0956 H   0  0  0  0  0  0  0  0  0  0  0  0
   -1.7756   -3.4355   -1.7599 H   0  0  0  0  0  0  0  0  0  0  0  0
   -4.9678   -1.1812    0.9193 H   0  0  0  0  0  0  0  0  0  0  0  0
   -4.1144   -1.1105   -0.6257 H   0  0  0  0  0  0  0  0  0  0  0  0
   -3.2508    1.1700   -1.4117 H   0  0  0  0  0  0  0  0  0  0  0  0
   -3.5506    2.5645   -0.3651 H   0  0  0  0  0  0  0  0  0  0  0  0
    4.3930   -3.0981    1.4466 H   0  0  0  0  0  0  0  0  0  0  0  0
    3.5182   -2.6501    2.9089 H   0  0  0  0  0  0  0  0  0  0  0  0
    4.4444   -1.4265    2.0448 H   0  0  0  0  0  0  0  0  0  0  0  0
   -5.8158    0.3799   -1.3227 H   0  0  0  0  0  0  0  0  0  0  0  0
   -5.7640    2.0430   -0.7992 H   0  0  0  0  0  0  0  0  0  0  0  0
   -6.8622    1.5277    1.3413 H   0  0  0  0  0  0  0  0  0  0  0  0
   -6.9682   -0.1923    0.8951 H   0  0  0  0  0  0  0  0  0  0  0  0
    3.7330    4.7532    0.1676 H   0  0  0  0  0  0  0  0  0  0  0  0
    3.7074    4.1240   -1.4728 H   0  0  0  0  0  0  0  0  0  0  0  0
   -8.8434    0.9620    0.3887 H   0  0  0  0  0  0  0  0  0  0  0  0
    1.7298    5.5463   -0.9967 H   0  0  0  0  0  0  0  0  0  0  0  0
    1.2571    4.5043    0.3466 H   0  0  0  0  0  0  0  0  0  0  0  0
    1.4093    3.6181   -2.5837 H   0  0  0  0  0  0  0  0  0  0  0  0
    0.8604    2.6115   -1.2294 H   0  0  0  0  0  0  0  0  0  0  0  0
   -0.0697    4.0366   -1.7038 H   0  0  0  0  0  0  0  0  0  0  0  0
  1 23  1  0  0  0  0
  1 26  1  0  0  0  0
  2 25  1  0  0  0  0
  2 64  1  0  0  0  0
  3 12  1  0  0  0  0
  3 16  1  0  0  0  0
  3 17  1  0  0  0  0
  4 20  1  0  0  0  0
  4 21  1  0  0  0  0
  4 24  1  0  0  0  0
  5  6  1  0  0  0  0
  5 23  2  0  0  0  0
  6 26  2  0  0  0  0
  7  8  1  0  0  0  0
  7  9  1  0  0  0  0
  7 11  1  0  0  0  0
  7 30  1  0  0  0  0
  8 12  1  0  0  0  0
  8 13  1  0  0  0  0
  8 31  1  0  0  0  0
  9 10  1  0  0  0  0
  9 32  1  0  0  0  0
  9 33  1  0  0  0  0
 10 14  1  0  0  0  0
 10 15  1  0  0  0  0
 10 34  1  0  0  0  0
 11 18  1  0  0  0  0
 11 19  1  0  0  0  0
 11 35  1  0  0  0  0
 12 36  1  0  0  0  0
 12 37  1  0  0  0  0
 13 14  2  0  0  0  0
 13 38  1  0  0  0  0
 14 22  1  0  0  0  0
 15 23  1  0  0  0  0
 15 39  1  0  0  0  0
 15 40  1  0  0  0  0
 16 20  1  0  0  0  0
 16 41  1  0  0  0  0
 16 42  1  0  0  0  0
 17 21  1  0  0  0  0
 17 43  1  0  0  0  0
 17 44  1  0  0  0  0
 18 45  1  0  0  0  0
 18 46  1  0  0  0  0
 18 47  1  0  0  0  0
 19 48  1  0  0  0  0
 19 49  1  0  0  0  0
 19 50  1  0  0  0  0
 20 51  1  0  0  0  0
 20 52  1  0  0  0  0
 21 53  1  0  0  0  0
 21 54  1  0  0  0  0
 22 55  1  0  0  0  0
 22 56  1  0  0  0  0
 22 57  1  0  0  0  0
 24 25  1  0  0  0  0
 24 58  1  0  0  0  0
 24 59  1  0  0  0  0
 25 60  1  0  0  0  0
 25 61  1  0  0  0  0
 26 27  1  0  0  0  0
 27 28  1  0  0  0  0
 27 62  1  0  0  0  0
 27 63  1  0  0  0  0
 28 29  1  0  0  0  0
 28 65  1  0  0  0  0
 28 66  1  0  0  0  0
 29 67  1  0  0  0  0
 29 68  1  0  0  0  0
 29 69  1  0  0  0  0
M  END
> <PUBCHEM_COMPOUND_CID>
45783997

> <PUBCHEM_CONFORMER_RMSD>
1

> <PUBCHEM_CONFORMER_DIVERSEORDER>
5
27
73
61
69
28
16
54
67
39
52
82
50
42
78
72
34
53
77
36
87
18
25
59
60
26
19
46
62
9
85
43
63
37
70
12
4
75
66
20
56
44
71
30
80
84
8
15
7
51
32
17
83
76
38
48
31
23
74
64
65
11
35
57
86
58
68
22
45
21
55
81
3
6
79
47
29
1
40
49
14
13
24
41
2
33
10

> <PUBCHEM_MMFF94_PARTIAL_CHARGES>
24
1 -0.28
10 0.14
12 0.27
13 -0.29
14 -0.28
15 0.18
16 0.27
17 0.27
2 -0.68
20 0.27
21 0.27
22 0.14
23 0.3
24 0.27
25 0.28
26 0.3
27 0.18
3 -0.81
38 0.15
4 -0.81
5 -0.34
6 -0.34
64 0.4
8 0.14

> <PUBCHEM_EFFECTIVE_ROTOR_COUNT>
11

> <PUBCHEM_PHARMACOPHORE_FEATURES>
9
1 2 acceptor
1 2 donor
1 29 hydrophobe
1 3 cation
1 4 cation
3 11 18 19 hydrophobe
5 1 5 6 23 26 rings
6 3 4 16 17 20 21 rings
6 7 8 9 10 13 14 rings

> <PUBCHEM_HEAVY_ATOM_COUNT>
29

> <PUBCHEM_ATOM_DEF_STEREO_COUNT>
3

> <PUBCHEM_ATOM_UDEF_STEREO_COUNT>
0

> <PUBCHEM_BOND_DEF_STEREO_COUNT>
0

> <PUBCHEM_BOND_UDEF_STEREO_COUNT>
0

> <PUBCHEM_ISOTOPIC_ATOM_COUNT>
0

> <PUBCHEM_COMPONENT_COUNT>
1

> <PUBCHEM_CACTVS_TAUTO_COUNT>
1

> <PUBCHEM_CONFORMER_ID>
02BA9BBD00000005

> <PUBCHEM_MMFF94_ENERGY>
42.6836

> <PUBCHEM_FEATURE_SELFOVERLAP>
45.672

> <PUBCHEM_SHAPE_FINGERPRINT>
10673678 19 18342179990460851537
10675989 125 18338803428274654921
10871710 139 17187013527437743228
10930396 42 18053932963196843026
12539745 222 16228000390889527674
13583140 156 17968084348211198810
1361 2 18412544319127201141
14117953 113 18413109433390744580
14787075 74 16678085926501983102
15475509 84 17680694935683250362
15664445 248 18267030449244843951
15849732 13 18271235012101992930
17980427 23 17771874291349219330
18681886 176 18340483357671798722
20715895 44 18343021116053980289
21344244 78 17825929456650664378
21475661 188 18261395615050038896
21716022 299 15121844434888213023
21860390 5 18337957787988941078
22149856 69 17775012259318023659
23227448 37 18195813087805900998
23558518 356 17905318886290615370
23559900 14 18340496568869738743
3060560 45 18201162057657356222
3298306 158 18264777742861191569
3388396 114 15962870156362442884
340366 18 18271813445301389174
394071 54 18339656542650626449

> <PUBCHEM_SHAPE_MULTIPOLES>
565.14
11.62
5.62
1.66
28.12
2.81
0.21
7.34
-1.59
-5.8
2.86
-1.23
-1.29
-0.66

> <PUBCHEM_SHAPE_SELFOVERLAP>
1148.485

> <PUBCHEM_SHAPE_VOLUME>
328.5

> <PUBCHEM_COORDINATE_TYPE>
2
5
10

$$$$
