7143796
  -OEChem-12032416233D

 52 56  0     1  0  0  0  0  0999 V2000
    1.8456   -1.4175   -0.9308 S   0  0  0  0  0  0  0  0  0  0  0  0
   -5.4597   -2.1432   -0.1294 S   0  0  0  0  0  0  0  0  0  0  0  0
    1.8165   -1.5919   -2.3676 O   0  0  0  0  0  0  0  0  0  0  0  0
    1.4173   -2.4780   -0.0431 O   0  0  0  0  0  0  0  0  0  0  0  0
   -3.7695    0.8506   -1.6644 O   0  0  0  0  0  0  0  0  0  0  0  0
    7.3362    0.1077    0.5863 O   0  0  0  0  0  0  0  0  0  0  0  0
    1.0116    0.0200   -0.5240 N   0  0  2  0  0  0  0  0  0  0  0  0
   -1.9127    1.1943   -0.2956 N   0  0  0  0  0  0  0  0  0  0  0  0
    0.2330    2.3119   -1.1364 C   0  0  1  0  0  0  0  0  0  0  0  0
    0.0844    1.5576    1.1959 C   0  0  2  0  0  0  0  0  0  0  0  0
    0.3989    2.7597    0.3097 C   0  0  0  0  0  0  0  0  0  0  0  0
    1.2024    1.1636   -1.4613 C   0  0  0  0  0  0  0  0  0  0  0  0
    1.0922    0.4295    0.9100 C   0  0  0  0  0  0  0  0  0  0  0  0
   -1.2323    1.9261   -1.3731 C   0  0  0  0  0  0  0  0  0  0  0  0
   -1.3338    1.0681    0.9693 C   0  0  0  0  0  0  0  0  0  0  0  0
   -2.0223    0.4978    1.9710 C   0  0  0  0  0  0  0  0  0  0  0  0
   -3.2124    0.7258   -0.5722 C   0  0  0  0  0  0  0  0  0  0  0  0
   -3.9452    0.0586    0.5605 C   0  0  0  0  0  0  0  0  0  0  0  0
   -3.3445   -0.0185    1.7575 C   0  0  0  0  0  0  0  0  0  0  0  0
    3.4895   -0.9606   -0.4766 C   0  0  0  0  0  0  0  0  0  0  0  0
   -5.2911   -0.5095    0.3697 C   0  0  0  0  0  0  0  0  0  0  0  0
    3.9310   -1.2106    0.8123 C   0  0  0  0  0  0  0  0  0  0  0  0
    4.3104   -0.3598   -1.4167 C   0  0  0  0  0  0  0  0  0  0  0  0
    5.2296   -0.8496    1.1714 C   0  0  0  0  0  0  0  0  0  0  0  0
    5.6092    0.0011   -1.0578 C   0  0  0  0  0  0  0  0  0  0  0  0
   -6.5213    0.0992    0.5380 C   0  0  0  0  0  0  0  0  0  0  0  0
    6.0687   -0.2438    0.2362 C   0  0  0  0  0  0  0  0  0  0  0  0
   -7.6044   -0.7823    0.2552 C   0  0  0  0  0  0  0  0  0  0  0  0
   -7.1685   -2.0341   -0.1194 C   0  0  0  0  0  0  0  0  0  0  0  0
    7.7413   -0.1725    1.9253 C   0  0  0  0  0  0  0  0  0  0  0  0
    0.4777    3.1462   -1.8059 H   0  0  0  0  0  0  0  0  0  0  0  0
    0.2030    1.8678    2.2425 H   0  0  0  0  0  0  0  0  0  0  0  0
   -0.2734    3.5970    0.5351 H   0  0  0  0  0  0  0  0  0  0  0  0
    1.4220    3.1126    0.4877 H   0  0  0  0  0  0  0  0  0  0  0  0
    1.0306    0.8360   -2.4921 H   0  0  0  0  0  0  0  0  0  0  0  0
    2.2288    1.5377   -1.3866 H   0  0  0  0  0  0  0  0  0  0  0  0
    2.0965    0.7976    1.1440 H   0  0  0  0  0  0  0  0  0  0  0  0
    0.8761   -0.4287    1.5562 H   0  0  0  0  0  0  0  0  0  0  0  0
   -1.8165    2.8452   -1.5195 H   0  0  0  0  0  0  0  0  0  0  0  0
   -1.3349    1.3535   -2.3035 H   0  0  0  0  0  0  0  0  0  0  0  0
   -1.5936    0.3810    2.9608 H   0  0  0  0  0  0  0  0  0  0  0  0
   -3.8288   -0.4901    2.6076 H   0  0  0  0  0  0  0  0  0  0  0  0
    3.2931   -1.6796    1.5553 H   0  0  0  0  0  0  0  0  0  0  0  0
    3.9715   -0.1576   -2.4282 H   0  0  0  0  0  0  0  0  0  0  0  0
    5.5218   -1.0682    2.1929 H   0  0  0  0  0  0  0  0  0  0  0  0
    6.2580    0.4735   -1.7902 H   0  0  0  0  0  0  0  0  0  0  0  0
   -6.6408    1.1296    0.8491 H   0  0  0  0  0  0  0  0  0  0  0  0
   -8.6501   -0.5118    0.3230 H   0  0  0  0  0  0  0  0  0  0  0  0
   -7.7718   -2.8898   -0.3878 H   0  0  0  0  0  0  0  0  0  0  0  0
    7.7412   -1.2487    2.1289 H   0  0  0  0  0  0  0  0  0  0  0  0
    7.1434    0.3877    2.6521 H   0  0  0  0  0  0  0  0  0  0  0  0
    8.7755    0.1721    2.0289 H   0  0  0  0  0  0  0  0  0  0  0  0
  1  3  2  0  0  0  0
  1  4  2  0  0  0  0
  1  7  1  0  0  0  0
  1 20  1  0  0  0  0
  2 21  1  0  0  0  0
  2 29  1  0  0  0  0
  5 17  2  0  0  0  0
  6 27  1  0  0  0  0
  6 30  1  0  0  0  0
  7 12  1  0  0  0  0
  7 13  1  0  0  0  0
  8 14  1  0  0  0  0
  8 15  1  0  0  0  0
  8 17  1  0  0  0  0
  9 11  1  0  0  0  0
  9 12  1  0  0  0  0
  9 14  1  0  0  0  0
  9 31  1  0  0  0  0
 10 11  1  0  0  0  0
 10 13  1  0  0  0  0
 10 15  1  0  0  0  0
 10 32  1  0  0  0  0
 11 33  1  0  0  0  0
 11 34  1  0  0  0  0
 12 35  1  0  0  0  0
 12 36  1  0  0  0  0
 13 37  1  0  0  0  0
 13 38  1  0  0  0  0
 14 39  1  0  0  0  0
 14 40  1  0  0  0  0
 15 16  2  0  0  0  0
 16 19  1  0  0  0  0
 16 41  1  0  0  0  0
 17 18  1  0  0  0  0
 18 19  2  0  0  0  0
 18 21  1  0  0  0  0
 19 42  1  0  0  0  0
 20 22  2  0  0  0  0
 20 23  1  0  0  0  0
 21 26  2  0  0  0  0
 22 24  1  0  0  0  0
 22 43  1  0  0  0  0
 23 25  2  0  0  0  0
 23 44  1  0  0  0  0
 24 27  2  0  0  0  0
 24 45  1  0  0  0  0
 25 27  1  0  0  0  0
 25 46  1  0  0  0  0
 26 28  1  0  0  0  0
 26 47  1  0  0  0  0
 28 29  2  0  0  0  0
 28 48  1  0  0  0  0
 29 49  1  0  0  0  0
 30 50  1  0  0  0  0
 30 51  1  0  0  0  0
 30 52  1  0  0  0  0
M  END
> <PUBCHEM_COMPOUND_CID>
7143796

> <PUBCHEM_CONFORMER_RMSD>
0.8

> <PUBCHEM_CONFORMER_DIVERSEORDER>
1
12
7
9
15
3
6
14
5
2
8
13
10
4
11

> <PUBCHEM_MMFF94_PARTIAL_CHARGES>
37
1 1.45
10 0.14
12 0.36
13 0.36
14 0.3
15 -0.03
16 -0.15
17 0.62
18 0.06
19 -0.15
2 -0.08
20 -0.01
21 -0.01
22 -0.15
23 -0.15
24 -0.15
25 -0.15
26 -0.15
27 0.08
28 -0.15
29 -0.11
3 -0.65
30 0.28
4 -0.65
41 0.15
42 0.15
43 0.15
44 0.15
45 0.15
46 0.15
47 0.15
48 0.15
49 0.15
5 -0.57
6 -0.36
7 -0.85
8 -0.47

> <PUBCHEM_EFFECTIVE_ROTOR_COUNT>
5

> <PUBCHEM_PHARMACOPHORE_FEATURES>
9
1 3 acceptor
1 4 acceptor
1 5 acceptor
1 6 acceptor
5 2 21 26 28 29 rings
6 20 22 23 24 25 27 rings
6 7 9 10 11 12 13 rings
6 8 15 16 17 18 19 rings
6 8 9 10 11 14 15 rings

> <PUBCHEM_HEAVY_ATOM_COUNT>
30

> <PUBCHEM_ATOM_DEF_STEREO_COUNT>
2

> <PUBCHEM_ATOM_UDEF_STEREO_COUNT>
0

> <PUBCHEM_BOND_DEF_STEREO_COUNT>
0

> <PUBCHEM_BOND_UDEF_STEREO_COUNT>
0

> <PUBCHEM_ISOTOPIC_ATOM_COUNT>
0

> <PUBCHEM_COMPONENT_COUNT>
1

> <PUBCHEM_CACTVS_TAUTO_COUNT>
1

> <PUBCHEM_CONFORMER_ID>
006D017400000001

> <PUBCHEM_MMFF94_ENERGY>
76.0934

> <PUBCHEM_FEATURE_SELFOVERLAP>
47.276

> <PUBCHEM_SHAPE_FINGERPRINT>
10 15 14908184157508694745
10165383 225 11743840265866969225
106641 1 15697998561592924719
10930396 42 17897141694262610528
11135609 99 17987798661002138383
11578080 2 17700138694793029408
11828532 37 14635736218939217315
11963148 33 18408598162926428970
1200032 147 11891871863459692279
12107698 1 17894631465796752029
12516196 113 18272937111128652209
12596602 18 16702031833306779195
12633257 1 13254792413659520263
12730499 353 16702306729116233358
12838862 33 18271794719090822271
12892183 10 16773527546906453989
13540713 4 16300656385419988961
13914758 101 15357972331239169196
14068700 675 18411139156157359417
14251751 18 18412546527046352807
14341114 176 15339123420256936058
1454969 45 18336273413811491214
15052358 14 11674879983447413368
15183329 4 14129053712111741577
15188451 53 17312817157434439616
15728490 51 17060334162700493711
15840311 113 14836400358966961528
15927050 60 17482265320589208660
17349148 13 16516266028437681516
17492 89 17972031436531806650
18335252 114 12540686068364999043
18393751 57 17917698133579643626
19958102 18 15502373387658418130
20028762 73 18272657869514389070
20511986 3 15213308581740574632
20567600 70 18342459283219746227
21365058 27 16056880247678254598
22079108 93 17418373584915011706
22149856 69 18201453432021741035
22224240 67 17775563148069418662
23559900 14 16733556051635797989
2747138 104 17917999386289772570
2838139 119 7781514789950345455
3004659 81 18412549842702972587
3009799 131 16660364796315500960
3633792 109 15213290894617006352
4058900 60 9655309146062678573
4066623 53 16225765246399659445
4098825 35 17458341932086034101
4149490 64 18194406813278176771
4280585 95 18114179774372310755
4325135 7 18412266133926555978
437795 51 16917062300433448114
439807 62 17749111110767095695
463206 1 18338520871561446259
474113 269 14346335876759196168
5104073 3 17630892595173945562
57724786 102 9871166325078686458
59682541 35 18060133276066690610
5969126 39 18040147401321150869
613672 6 18041861548391114579
6669772 16 17679025039519438292
9689198 14 14405185092777208106
9962374 69 18268428113735160559

> <PUBCHEM_SHAPE_MULTIPOLES>
591.65
18.83
2.22
1.77
0.23
0.36
0.03
-10.31
-4.84
1.2
0.53
-1.32
0.15
-0.08

> <PUBCHEM_SHAPE_SELFOVERLAP>
1272.86

> <PUBCHEM_SHAPE_VOLUME>
326.4

> <PUBCHEM_COORDINATE_TYPE>
2
5
10

$$$$
