11882971
  -OEChem-12032416313D

 65 68  0     1  0  0  0  0  0999 V2000
   -0.6104   -2.1994    0.4815 S   0  0  0  0  0  0  0  0  0  0  0  0
    6.9028   -0.3252   -0.8091 O   0  0  0  0  0  0  0  0  0  0  0  0
    6.5298   -1.9547    0.9085 O   0  0  0  0  0  0  0  0  0  0  0  0
   -1.1769    3.6728    0.5993 O   0  0  0  0  0  0  0  0  0  0  0  0
   -0.8248    2.6847   -1.4207 O   0  0  0  0  0  0  0  0  0  0  0  0
   -3.8521    1.1052   -0.1143 O   0  0  0  0  0  0  0  0  0  0  0  0
   -0.9872    0.3142   -0.0010 N   0  0  0  0  0  0  0  0  0  0  0  0
   -2.9567   -1.0439    0.2926 N   0  0  0  0  0  0  0  0  0  0  0  0
    2.8288    0.8029    0.2577 C   0  0  2  0  0  0  0  0  0  0  0  0
    3.1325   -0.6630   -0.2846 C   0  0  1  0  0  0  0  0  0  0  0  0
    4.6409   -1.1241   -0.2953 C   0  0  1  0  0  0  0  0  0  0  0  0
    1.3601    1.2114   -0.2214 C   0  0  1  0  0  0  0  0  0  0  0  0
    3.8404    1.8018   -0.3618 C   0  0  0  0  0  0  0  0  0  0  0  0
    5.5180    0.0070   -0.9031 C   0  0  1  0  0  0  0  0  0  0  0  0
    2.1611   -1.7106    0.3333 C   0  0  0  0  0  0  0  0  0  0  0  0
    5.2928    1.3626   -0.2424 C   0  0  0  0  0  0  0  0  0  0  0  0
    2.9133    0.9028    1.8008 C   0  0  0  0  0  0  0  0  0  0  0  0
    0.3777    0.0967    0.0319 C   0  0  0  0  0  0  0  0  0  0  0  0
    5.1861   -1.5644    1.0812 C   0  0  0  0  0  0  0  0  0  0  0  0
    4.7845   -2.3671   -1.2186 C   0  0  0  0  0  0  0  0  0  0  0  0
    0.7581   -1.2100    0.2605 C   0  0  0  0  0  0  0  0  0  0  0  0
    0.8532    2.5458    0.3422 C   0  0  0  0  0  0  0  0  0  0  0  0
   -1.6064   -0.8231    0.2301 C   0  0  0  0  0  0  0  0  0  0  0  0
   -0.4481    2.9490   -0.2889 C   0  0  0  0  0  0  0  0  0  0  0  0
   -5.3374   -0.7056    0.2578 C   0  0  0  0  0  0  0  0  0  0  0  0
   -3.9756   -0.0921    0.1214 C   0  0  0  0  0  0  0  0  0  0  0  0
   -6.3157    0.3194    0.8358 C   0  0  0  0  0  0  0  0  0  0  0  0
   -5.8119   -1.2293   -1.0996 C   0  0  0  0  0  0  0  0  0  0  0  0
   -7.7368   -0.2336    0.9045 C   0  0  0  0  0  0  0  0  0  0  0  0
   -7.2342   -1.7785   -1.0264 C   0  0  0  0  0  0  0  0  0  0  0  0
   -8.2054   -0.7516   -0.4520 C   0  0  0  0  0  0  0  0  0  0  0  0
    2.8617   -0.6104   -1.3536 H   0  0  0  0  0  0  0  0  0  0  0  0
    1.4011    1.3094   -1.3173 H   0  0  0  0  0  0  0  0  0  0  0  0
    3.6127    1.9409   -1.4270 H   0  0  0  0  0  0  0  0  0  0  0  0
    3.7403    2.7897    0.1029 H   0  0  0  0  0  0  0  0  0  0  0  0
    5.2887    0.1138   -1.9720 H   0  0  0  0  0  0  0  0  0  0  0  0
    2.4145   -1.9082    1.3803 H   0  0  0  0  0  0  0  0  0  0  0  0
    2.2334   -2.6590   -0.2092 H   0  0  0  0  0  0  0  0  0  0  0  0
    5.6170    1.3434    0.8040 H   0  0  0  0  0  0  0  0  0  0  0  0
    5.9380    2.1082   -0.7246 H   0  0  0  0  0  0  0  0  0  0  0  0
    2.1847    0.2609    2.3039 H   0  0  0  0  0  0  0  0  0  0  0  0
    3.8970    0.6531    2.1907 H   0  0  0  0  0  0  0  0  0  0  0  0
    2.7277    1.9275    2.1413 H   0  0  0  0  0  0  0  0  0  0  0  0
    4.6279   -2.4027    1.5098 H   0  0  0  0  0  0  0  0  0  0  0  0
    5.1940   -0.7600    1.8113 H   0  0  0  0  0  0  0  0  0  0  0  0
    4.2903   -3.2464   -0.7919 H   0  0  0  0  0  0  0  0  0  0  0  0
    4.3305   -2.1782   -2.1986 H   0  0  0  0  0  0  0  0  0  0  0  0
    5.8242   -2.6513   -1.4075 H   0  0  0  0  0  0  0  0  0  0  0  0
    1.5639    3.3577    0.1636 H   0  0  0  0  0  0  0  0  0  0  0  0
    0.6888    2.4557    1.4226 H   0  0  0  0  0  0  0  0  0  0  0  0
    7.0989   -0.9915   -1.4882 H   0  0  0  0  0  0  0  0  0  0  0  0
    6.5416   -2.8953    0.6636 H   0  0  0  0  0  0  0  0  0  0  0  0
   -3.2214   -2.0079    0.4782 H   0  0  0  0  0  0  0  0  0  0  0  0
   -5.2831   -1.5477    0.9613 H   0  0  0  0  0  0  0  0  0  0  0  0
   -2.0380    3.9537    0.2227 H   0  0  0  0  0  0  0  0  0  0  0  0
   -6.3276    1.2304    0.2229 H   0  0  0  0  0  0  0  0  0  0  0  0
   -5.9921    0.6247    1.8385 H   0  0  0  0  0  0  0  0  0  0  0  0
   -5.1369   -2.0158   -1.4585 H   0  0  0  0  0  0  0  0  0  0  0  0
   -5.7710   -0.4255   -1.8464 H   0  0  0  0  0  0  0  0  0  0  0  0
   -8.4199    0.5474    1.2570 H   0  0  0  0  0  0  0  0  0  0  0  0
   -7.7760   -1.0473    1.6392 H   0  0  0  0  0  0  0  0  0  0  0  0
   -7.2449   -2.6803   -0.4018 H   0  0  0  0  0  0  0  0  0  0  0  0
   -7.5649   -2.0794   -2.0269 H   0  0  0  0  0  0  0  0  0  0  0  0
   -9.2001   -1.2003   -0.3519 H   0  0  0  0  0  0  0  0  0  0  0  0
   -8.3025    0.0892   -1.1499 H   0  0  0  0  0  0  0  0  0  0  0  0
  1 21  1  0  0  0  0
  1 23  1  0  0  0  0
  2 14  1  0  0  0  0
  2 51  1  0  0  0  0
  3 19  1  0  0  0  0
  3 52  1  0  0  0  0
  4 24  1  0  0  0  0
  4 55  1  0  0  0  0
  5 24  2  0  0  0  0
  6 26  2  0  0  0  0
  7 18  1  0  0  0  0
  7 23  2  0  0  0  0
  8 23  1  0  0  0  0
  8 26  1  0  0  0  0
  8 53  1  0  0  0  0
  9 10  1  0  0  0  0
  9 12  1  0  0  0  0
  9 13  1  0  0  0  0
  9 17  1  0  0  0  0
 10 11  1  0  0  0  0
 10 15  1  0  0  0  0
 10 32  1  0  0  0  0
 11 14  1  0  0  0  0
 11 19  1  0  0  0  0
 11 20  1  0  0  0  0
 12 18  1  0  0  0  0
 12 22  1  0  0  0  0
 12 33  1  0  0  0  0
 13 16  1  0  0  0  0
 13 34  1  0  0  0  0
 13 35  1  0  0  0  0
 14 16  1  0  0  0  0
 14 36  1  0  0  0  0
 15 21  1  0  0  0  0
 15 37  1  0  0  0  0
 15 38  1  0  0  0  0
 16 39  1  0  0  0  0
 16 40  1  0  0  0  0
 17 41  1  0  0  0  0
 17 42  1  0  0  0  0
 17 43  1  0  0  0  0
 18 21  2  0  0  0  0
 19 44  1  0  0  0  0
 19 45  1  0  0  0  0
 20 46  1  0  0  0  0
 20 47  1  0  0  0  0
 20 48  1  0  0  0  0
 22 24  1  0  0  0  0
 22 49  1  0  0  0  0
 22 50  1  0  0  0  0
 25 26  1  0  0  0  0
 25 27  1  0  0  0  0
 25 28  1  0  0  0  0
 25 54  1  0  0  0  0
 27 29  1  0  0  0  0
 27 56  1  0  0  0  0
 27 57  1  0  0  0  0
 28 30  1  0  0  0  0
 28 58  1  0  0  0  0
 28 59  1  0  0  0  0
 29 31  1  0  0  0  0
 29 60  1  0  0  0  0
 29 61  1  0  0  0  0
 30 31  1  0  0  0  0
 30 62  1  0  0  0  0
 30 63  1  0  0  0  0
 31 64  1  0  0  0  0
 31 65  1  0  0  0  0
M  END
> <PUBCHEM_COMPOUND_CID>
11882971

> <PUBCHEM_CONFORMER_RMSD>
1

> <PUBCHEM_CONFORMER_DIVERSEORDER>
1
13
12
10
4
8
6
2
11
5
3
7
9

> <PUBCHEM_MMFF94_PARTIAL_CHARGES>
23
1 -0.08
12 0.18
14 0.28
15 0.18
18 0.05
19 0.28
2 -0.68
21 -0.14
22 0.06
23 0.44
24 0.66
25 0.06
26 0.57
3 -0.68
4 -0.65
5 -0.57
51 0.4
52 0.4
53 0.37
55 0.5
6 -0.57
7 -0.57
8 -0.49

> <PUBCHEM_EFFECTIVE_ROTOR_COUNT>
8.4

> <PUBCHEM_PHARMACOPHORE_FEATURES>
13
1 2 acceptor
1 2 donor
1 3 acceptor
1 3 donor
1 4 acceptor
1 5 acceptor
1 6 acceptor
1 8 donor
3 4 5 24 anion
5 1 7 18 21 23 rings
6 25 27 28 29 30 31 rings
6 9 10 11 13 14 16 rings
6 9 10 12 15 18 21 rings

> <PUBCHEM_HEAVY_ATOM_COUNT>
31

> <PUBCHEM_ATOM_DEF_STEREO_COUNT>
5

> <PUBCHEM_ATOM_UDEF_STEREO_COUNT>
0

> <PUBCHEM_BOND_DEF_STEREO_COUNT>
0

> <PUBCHEM_BOND_UDEF_STEREO_COUNT>
0

> <PUBCHEM_ISOTOPIC_ATOM_COUNT>
0

> <PUBCHEM_COMPONENT_COUNT>
1

> <PUBCHEM_CACTVS_TAUTO_COUNT>
3

> <PUBCHEM_CONFORMER_ID>
00B551DB00000001

> <PUBCHEM_MMFF94_ENERGY>
88.3406

> <PUBCHEM_FEATURE_SELFOVERLAP>
66.174

> <PUBCHEM_SHAPE_FINGERPRINT>
10076449 9 18413113853307665732
10299344 5 18202567289573742207
11421498 54 12757691142057427117
11578080 2 12902701414345174196
11646440 116 18410863174501531073
11719270 70 16988849367102864215
12166972 35 18113057147119927661
12236239 1 18060702810421241027
12516196 113 18412825802466979821
12788726 201 18409174277570589672
13402501 40 18334295379350055445
13533116 47 18131917056911928130
1361 2 18343867709911897038
13862211 1 18409445873436989755
14068700 675 18060140951173774953
14170010 4 18409729603651208961
14251764 18 18412546517633478883
14347332 77 18336542703697087476
14681490 219 18410011027204467037
14849402 71 18339930441105041025
15131766 46 15193566880570852730
15183329 4 18413392046650027495
15198563 99 17822007558646064053
15419008 47 17313096472027082221
15439362 3 18046910660663712637
1577012 14 18201723981313566403
15849732 13 17917993893095426191
17492 89 18049439249982248986
18681886 176 18272644693308793275
19319366 153 17749102292624958730
20028762 73 18272651233916432591
21267235 1 18410016515613274795
21279426 13 18336826373038375717
21285901 2 18270972245532747390
21641784 216 17895771598803474284
21792934 111 18337098004124052336
21792961 116 17749105565373472738
221357 26 18409445895222926269
23522609 53 18196121939005253649
23559900 14 18263640839859429987
23569943 247 18268995285051376459
24771293 8 18199738310089536416
249057 3 18341893026737755471
255183 451 17985278383105014774
283562 15 18263928747863804145
3004659 81 18333453145153976822
3178227 256 18261406563481047491
335352 9 18409173234046673382
350125 39 18337674114295183096
397830 11 14620215520975319119
4073 2 18042973253325698403
4340502 62 15719389555499414546
5219985 9 18410292506265258869
59755656 215 18333449829133626387
6009941 240 17168150090929090162

> <PUBCHEM_SHAPE_MULTIPOLES>
602.51
19.85
2.95
1.1
27.79
2.01
-0.06
-9.53
1.82
-1.64
0.2
-0.26
-0.08
-0.68

> <PUBCHEM_SHAPE_SELFOVERLAP>
1263.761

> <PUBCHEM_SHAPE_VOLUME>
342.5

> <PUBCHEM_COORDINATE_TYPE>
2
5
10

$$$$
