75536728
  -OEChem-12032416333D

 46 47  0     1  0  0  0  0  0999 V2000
    0.8888   -1.1922    0.1736 O   0  0  0  0  0  0  0  0  0  0  0  0
   -0.1005    2.2539   -0.0528 O   0  0  0  0  0  0  0  0  0  0  0  0
    4.4861    1.4421   -0.2928 O   0  0  0  0  0  0  0  0  0  0  0  0
   -2.4719    0.1980    0.1073 N   0  0  0  0  0  0  0  0  0  0  0  0
    3.4685   -0.2112    0.9830 N   0  0  0  0  0  0  0  0  0  0  0  0
    5.5751   -0.5668    0.1099 N   0  0  0  0  0  0  0  0  0  0  0  0
   -5.5510    0.6611   -1.0832 N   0  0  0  0  0  0  0  0  0  0  0  0
   -1.0874    0.0353   -0.3055 C   0  0  1  0  0  0  0  0  0  0  0  0
   -0.1189    0.9303    0.4453 C   0  0  1  0  0  0  0  0  0  0  0  0
    1.1996    0.2110    0.1944 C   0  0  1  0  0  0  0  0  0  0  0  0
   -0.5328   -1.3432    0.0142 C   0  0  0  0  0  0  0  0  0  0  0  0
    2.2470    0.4890    1.2579 C   0  0  0  0  0  0  0  0  0  0  0  0
   -3.3818   -0.4161   -0.8524 C   0  0  0  0  0  0  0  0  0  0  0  0
   -4.8203   -0.2718   -0.4325 C   0  0  0  0  0  0  0  0  0  0  0  0
    4.5097    0.3234    0.2188 C   0  0  0  0  0  0  0  0  0  0  0  0
    6.7784   -0.2608   -0.6272 C   0  0  0  0  0  0  0  0  0  0  0  0
   -5.3174   -1.0820    0.5756 C   0  0  0  0  0  0  0  0  0  0  0  0
    7.7893    0.4444    0.2684 C   0  0  0  0  0  0  0  0  0  0  0  0
    7.3664   -1.5295   -1.2310 C   0  0  0  0  0  0  0  0  0  0  0  0
   -6.6502   -0.9248    0.9391 C   0  0  0  0  0  0  0  0  0  0  0  0
   -6.8424    0.7853   -0.7027 C   0  0  0  0  0  0  0  0  0  0  0  0
   -7.4341    0.0245    0.2925 C   0  0  0  0  0  0  0  0  0  0  0  0
   -0.9841    0.2481   -1.3791 H   0  0  0  0  0  0  0  0  0  0  0  0
   -0.3566    0.9587    1.5160 H   0  0  0  0  0  0  0  0  0  0  0  0
    1.6021    0.4710   -0.7935 H   0  0  0  0  0  0  0  0  0  0  0  0
   -0.9228   -1.7406    0.9584 H   0  0  0  0  0  0  0  0  0  0  0  0
   -0.7330   -2.0731   -0.7760 H   0  0  0  0  0  0  0  0  0  0  0  0
    1.9050    0.1368    2.2373 H   0  0  0  0  0  0  0  0  0  0  0  0
    2.4530    1.5624    1.3261 H   0  0  0  0  0  0  0  0  0  0  0  0
   -2.6853    1.1936    0.1742 H   0  0  0  0  0  0  0  0  0  0  0  0
    0.1095    2.2208   -1.0015 H   0  0  0  0  0  0  0  0  0  0  0  0
   -3.1653   -1.4847   -0.9740 H   0  0  0  0  0  0  0  0  0  0  0  0
   -3.2584    0.0465   -1.8402 H   0  0  0  0  0  0  0  0  0  0  0  0
    3.5759   -1.1512    1.3516 H   0  0  0  0  0  0  0  0  0  0  0  0
    5.5317   -1.4372    0.6315 H   0  0  0  0  0  0  0  0  0  0  0  0
    6.5130    0.4191   -1.4458 H   0  0  0  0  0  0  0  0  0  0  0  0
   -4.6979   -1.8203    1.0735 H   0  0  0  0  0  0  0  0  0  0  0  0
    7.3731    1.3730    0.6740 H   0  0  0  0  0  0  0  0  0  0  0  0
    8.6971    0.6972   -0.2892 H   0  0  0  0  0  0  0  0  0  0  0  0
    8.0745   -0.1864    1.1178 H   0  0  0  0  0  0  0  0  0  0  0  0
    8.2599   -1.3044   -1.8223 H   0  0  0  0  0  0  0  0  0  0  0  0
    6.6396   -2.0194   -1.8883 H   0  0  0  0  0  0  0  0  0  0  0  0
    7.6444   -2.2494   -0.4530 H   0  0  0  0  0  0  0  0  0  0  0  0
   -7.0775   -1.5409    1.7246 H   0  0  0  0  0  0  0  0  0  0  0  0
   -7.4106    1.5393   -1.2374 H   0  0  0  0  0  0  0  0  0  0  0  0
   -8.4754    0.1643    0.5594 H   0  0  0  0  0  0  0  0  0  0  0  0
  1 10  1  0  0  0  0
  1 11  1  0  0  0  0
  2  9  1  0  0  0  0
  2 31  1  0  0  0  0
  3 15  2  0  0  0  0
  4  8  1  0  0  0  0
  4 13  1  0  0  0  0
  4 30  1  0  0  0  0
  5 12  1  0  0  0  0
  5 15  1  0  0  0  0
  5 34  1  0  0  0  0
  6 15  1  0  0  0  0
  6 16  1  0  0  0  0
  6 35  1  0  0  0  0
  7 14  1  0  0  0  0
  7 21  2  0  0  0  0
  8  9  1  0  0  0  0
  8 11  1  0  0  0  0
  8 23  1  0  0  0  0
  9 10  1  0  0  0  0
  9 24  1  0  0  0  0
 10 12  1  0  0  0  0
 10 25  1  0  0  0  0
 11 26  1  0  0  0  0
 11 27  1  0  0  0  0
 12 28  1  0  0  0  0
 12 29  1  0  0  0  0
 13 14  1  0  0  0  0
 13 32  1  0  0  0  0
 13 33  1  0  0  0  0
 14 17  2  0  0  0  0
 16 18  1  0  0  0  0
 16 19  1  0  0  0  0
 16 36  1  0  0  0  0
 17 20  1  0  0  0  0
 17 37  1  0  0  0  0
 18 38  1  0  0  0  0
 18 39  1  0  0  0  0
 18 40  1  0  0  0  0
 19 41  1  0  0  0  0
 19 42  1  0  0  0  0
 19 43  1  0  0  0  0
 20 22  2  0  0  0  0
 20 44  1  0  0  0  0
 21 22  1  0  0  0  0
 21 45  1  0  0  0  0
 22 46  1  0  0  0  0
M  END
> <PUBCHEM_COMPOUND_CID>
75536728

> <PUBCHEM_CONFORMER_RMSD>
0.8

> <PUBCHEM_CONFORMER_DIVERSEORDER>
1
245
137
232
269
192
167
200
256
163
248
149
207
40
59
243
262
158
66
14
112
108
61
240
33
190
184
153
162
221
9
78
145
140
202
34
119
230
265
253
74
46
274
172
174
95
146
21
109
54
100
251
252
261
53
50
171
110
237
169
84
191
32
225
208
175
255
161
20
264
98
183
143
238
266
164
242
155
218
197
90
260
22
170
227
86
273
68
114
63
154
83
268
85
205
142
37
28
179
150
224
16
151
216
91
189
272
8
276
70
195
156
177
76
231
160
126
87
30
122
19
234
77
209
75
257
204
129
228
96
42
130
250
92
47
10
180
249
220
15
267
185
25
275
235
113
31
24
236
241
212
214
198
132
259
194
187
39
12
107
101
271
82
116
141
193
219
244
97
117
72
229
201
254
123
51
138
7
80
99
133
89
71
165
206
233
270
148
81
58
41
67
94
115
168
135
203
29
45
35
69
210
65
102
222
166
178
182
213
223
125
131
64
4
127
186
105
5
79
181
124
55
173
13
48
147
49
246
43
11
196
159
26
136
134
139
3
176
217
38
121
111
263
144
247
18
211
73
118
104
17
120
27
239
2
44
152
88
93
36
62
215
258
6
226
128
60
103
23
57
157
199
106
188
56
52

> <PUBCHEM_MMFF94_PARTIAL_CHARGES>
28
1 -0.56
10 0.28
11 0.28
12 0.3
13 0.41
14 0.17
15 0.69
16 0.3
17 -0.15
2 -0.68
20 -0.15
21 0.16
22 -0.15
3 -0.57
30 0.36
31 0.4
34 0.37
35 0.37
37 0.15
4 -0.9
44 0.15
45 0.15
46 0.15
5 -0.73
6 -0.73
7 -0.62
8 0.27
9 0.28

> <PUBCHEM_EFFECTIVE_ROTOR_COUNT>
9

> <PUBCHEM_PHARMACOPHORE_FEATURES>
12
1 1 acceptor
1 2 acceptor
1 2 donor
1 3 acceptor
1 4 cation
1 4 donor
1 5 donor
1 6 donor
1 7 acceptor
3 16 18 19 hydrophobe
5 1 8 9 10 11 rings
6 7 14 17 20 21 22 rings

> <PUBCHEM_HEAVY_ATOM_COUNT>
22

> <PUBCHEM_ATOM_DEF_STEREO_COUNT>
3

> <PUBCHEM_ATOM_UDEF_STEREO_COUNT>
0

> <PUBCHEM_BOND_DEF_STEREO_COUNT>
0

> <PUBCHEM_BOND_UDEF_STEREO_COUNT>
0

> <PUBCHEM_ISOTOPIC_ATOM_COUNT>
0

> <PUBCHEM_COMPONENT_COUNT>
1

> <PUBCHEM_CACTVS_TAUTO_COUNT>
3

> <PUBCHEM_CONFORMER_ID>
0480995800000001

> <PUBCHEM_MMFF94_ENERGY>
37.7961

> <PUBCHEM_FEATURE_SELFOVERLAP>
60.946

> <PUBCHEM_SHAPE_FINGERPRINT>
10299344 5 17060621101012579286
10319688 140 18058453093583390358
106641 1 8214134162189302516
10968037 39 14779265320004405875
11089746 13 15841831170785254947
11315181 36 15267340756393696139
11638347 137 8935006975610080268
12091667 2 18410570700398327087
13533116 47 16487259838187657654
13685833 64 17846781802314311434
13914758 101 14908189633154608587
14123256 10 17821446859254815736
14251764 18 16487258772644916840
14251764 46 18410292514475008547
14933364 13 18040433295771391685
15183329 4 16630808806948228214
15849732 13 18334576858299915574
18006028 8 16917348138743483776
20157964 124 13262394454481688024
21095086 128 18131068256048568023
21150785 3 16805326595744711566
21267235 1 18411141337467644832
21792961 116 18335130947619747373
220451 1 16949994833858593123
22224240 67 11818995188545142760
23035841 295 18408884048817695635
23402539 116 14117516554514561033
23559900 14 17559944579845051088
246663 6 18202006516952260758
28498 318 17632296748515125878
328311 84 18412548716635797734
335352 9 18341890822785925863
34797466 226 15430038734239508786
4325135 7 15430035465626841815
4463277 17 18334855034863289041
5207 217 13623531259699390129
5283156 175 18187641380782714386
5758199 1 15285358414081755529
59755656 215 18341612585893277126

> <PUBCHEM_SHAPE_MULTIPOLES>
415.22
24.08
1.35
1
8.43
0.15
0
-3.45
-2.99
0.67
-0.12
-0.16
-0.07
1.4

> <PUBCHEM_SHAPE_SELFOVERLAP>
844.631

> <PUBCHEM_SHAPE_VOLUME>
241.7

> <PUBCHEM_COORDINATE_TYPE>
2
5
10

$$$$
