75537049
  -OEChem-12032416323D

 48 51  0     1  0  0  0  0  0999 V2000
   -3.5473   -2.3175   -0.0137 O   0  0  0  0  0  0  0  0  0  0  0  0
    5.2117    2.5952    0.7041 O   0  0  0  0  0  0  0  0  0  0  0  0
   -1.3183   -1.6606   -0.1975 N   0  0  0  0  0  0  0  0  0  0  0  0
    1.4616   -1.6518    0.2369 N   0  0  2  0  0  0  0  0  0  0  0  0
   -2.8803   -0.0223   -0.1427 N   0  0  0  0  0  0  0  0  0  0  0  0
   -0.5749   -0.4499   -0.4417 C   0  0  2  0  0  0  0  0  0  0  0  0
    0.6853   -0.4094    0.4217 C   0  0  0  0  0  0  0  0  0  0  0  0
   -1.5870    0.6524   -0.1533 C   0  0  0  0  0  0  0  0  0  0  0  0
   -0.6217   -2.9313   -0.2055 C   0  0  0  0  0  0  0  0  0  0  0  0
    0.6622   -2.8322    0.6216 C   0  0  0  0  0  0  0  0  0  0  0  0
   -2.7021   -1.4376   -0.1122 C   0  0  0  0  0  0  0  0  0  0  0  0
    2.7001   -1.5993    1.0133 C   0  0  0  0  0  0  0  0  0  0  0  0
   -4.1132    0.6895   -0.0856 C   0  0  0  0  0  0  0  0  0  0  0  0
    3.7407   -0.7357    0.3512 C   0  0  0  0  0  0  0  0  0  0  0  0
   -5.3172   -0.0083    0.0113 C   0  0  0  0  0  0  0  0  0  0  0  0
   -4.1165    2.0837   -0.1278 C   0  0  0  0  0  0  0  0  0  0  0  0
    3.9981    0.5449    0.8405 C   0  0  0  0  0  0  0  0  0  0  0  0
    4.4468   -1.2160   -0.7519 C   0  0  0  0  0  0  0  0  0  0  0  0
   -6.5246    0.6882    0.0661 C   0  0  0  0  0  0  0  0  0  0  0  0
   -5.3240    2.7803   -0.0730 C   0  0  0  0  0  0  0  0  0  0  0  0
    4.9617    1.3454    0.2270 C   0  0  0  0  0  0  0  0  0  0  0  0
    5.4101   -0.4155   -1.3656 C   0  0  0  0  0  0  0  0  0  0  0  0
   -6.5279    2.0824    0.0242 C   0  0  0  0  0  0  0  0  0  0  0  0
    5.6678    0.8651   -0.8761 C   0  0  0  0  0  0  0  0  0  0  0  0
    6.2088    3.3605    0.0287 C   0  0  0  0  0  0  0  0  0  0  0  0
   -0.3091   -0.4471   -1.5072 H   0  0  0  0  0  0  0  0  0  0  0  0
    1.2641    0.4707    0.1215 H   0  0  0  0  0  0  0  0  0  0  0  0
    0.4183   -0.2842    1.4800 H   0  0  0  0  0  0  0  0  0  0  0  0
   -1.4305    1.1163    0.8270 H   0  0  0  0  0  0  0  0  0  0  0  0
   -1.5453    1.4147   -0.9378 H   0  0  0  0  0  0  0  0  0  0  0  0
   -0.3898   -3.1679   -1.2504 H   0  0  0  0  0  0  0  0  0  0  0  0
   -1.2818   -3.7148    0.1799 H   0  0  0  0  0  0  0  0  0  0  0  0
    1.2410   -3.7503    0.4651 H   0  0  0  0  0  0  0  0  0  0  0  0
    0.4055   -2.7818    1.6883 H   0  0  0  0  0  0  0  0  0  0  0  0
    2.5193   -1.2764    2.0477 H   0  0  0  0  0  0  0  0  0  0  0  0
    3.1387   -2.6036    1.0994 H   0  0  0  0  0  0  0  0  0  0  0  0
   -5.3874   -1.0867    0.0471 H   0  0  0  0  0  0  0  0  0  0  0  0
   -3.2041    2.6674   -0.1964 H   0  0  0  0  0  0  0  0  0  0  0  0
    3.4516    0.9263    1.6996 H   0  0  0  0  0  0  0  0  0  0  0  0
    4.2551   -2.2119   -1.1426 H   0  0  0  0  0  0  0  0  0  0  0  0
   -7.4627    0.1460    0.1413 H   0  0  0  0  0  0  0  0  0  0  0  0
   -5.3272    3.8659   -0.1043 H   0  0  0  0  0  0  0  0  0  0  0  0
    5.9592   -0.7902   -2.2246 H   0  0  0  0  0  0  0  0  0  0  0  0
   -7.4679    2.6248    0.0672 H   0  0  0  0  0  0  0  0  0  0  0  0
    6.4288    1.4332   -1.4002 H   0  0  0  0  0  0  0  0  0  0  0  0
    6.2769    4.3261    0.5404 H   0  0  0  0  0  0  0  0  0  0  0  0
    5.9232    3.5676   -1.0082 H   0  0  0  0  0  0  0  0  0  0  0  0
    7.1951    2.8898    0.1015 H   0  0  0  0  0  0  0  0  0  0  0  0
  1 11  2  0  0  0  0
  2 21  1  0  0  0  0
  2 25  1  0  0  0  0
  3  6  1  0  0  0  0
  3  9  1  0  0  0  0
  3 11  1  0  0  0  0
  4  7  1  0  0  0  0
  4 10  1  0  0  0  0
  4 12  1  0  0  0  0
  5  8  1  0  0  0  0
  5 11  1  0  0  0  0
  5 13  1  0  0  0  0
  6  7  1  0  0  0  0
  6  8  1  0  0  0  0
  6 26  1  0  0  0  0
  7 27  1  0  0  0  0
  7 28  1  0  0  0  0
  8 29  1  0  0  0  0
  8 30  1  0  0  0  0
  9 10  1  0  0  0  0
  9 31  1  0  0  0  0
  9 32  1  0  0  0  0
 10 33  1  0  0  0  0
 10 34  1  0  0  0  0
 12 14  1  0  0  0  0
 12 35  1  0  0  0  0
 12 36  1  0  0  0  0
 13 15  2  0  0  0  0
 13 16  1  0  0  0  0
 14 17  2  0  0  0  0
 14 18  1  0  0  0  0
 15 19  1  0  0  0  0
 15 37  1  0  0  0  0
 16 20  2  0  0  0  0
 16 38  1  0  0  0  0
 17 21  1  0  0  0  0
 17 39  1  0  0  0  0
 18 22  2  0  0  0  0
 18 40  1  0  0  0  0
 19 23  2  0  0  0  0
 19 41  1  0  0  0  0
 20 23  1  0  0  0  0
 20 42  1  0  0  0  0
 21 24  2  0  0  0  0
 22 24  1  0  0  0  0
 22 43  1  0  0  0  0
 23 44  1  0  0  0  0
 24 45  1  0  0  0  0
 25 46  1  0  0  0  0
 25 47  1  0  0  0  0
 25 48  1  0  0  0  0
M  END
> <PUBCHEM_COMPOUND_CID>
75537049

> <PUBCHEM_CONFORMER_RMSD>
0.8

> <PUBCHEM_CONFORMER_DIVERSEORDER>
1
49
47
33
12
27
41
8
19
17
45
26
40
29
48
31
39
11
16
13
9
18
34
35
5
25
30
28
22
21
37
32
14
24
43
3
20
36
46
15
10
38
23
44
4
42
2
6
7

> <PUBCHEM_MMFF94_PARTIAL_CHARGES>
34
1 -0.57
10 0.27
11 0.69
12 0.41
13 0.12
14 -0.14
15 -0.15
16 -0.15
17 -0.15
18 -0.15
19 -0.15
2 -0.36
20 -0.15
21 0.08
22 -0.15
23 -0.15
24 -0.15
25 0.28
3 -0.66
37 0.15
38 0.15
39 0.15
4 -0.81
40 0.15
41 0.15
42 0.15
43 0.15
44 0.15
45 0.15
5 -0.48
6 0.3
7 0.27
8 0.3
9 0.3

> <PUBCHEM_EFFECTIVE_ROTOR_COUNT>
5.2

> <PUBCHEM_PHARMACOPHORE_FEATURES>
7
1 1 acceptor
1 2 acceptor
1 4 cation
5 3 5 6 8 11 rings
6 13 15 16 19 20 23 rings
6 14 17 18 21 22 24 rings
6 3 4 6 7 9 10 rings

> <PUBCHEM_HEAVY_ATOM_COUNT>
25

> <PUBCHEM_ATOM_DEF_STEREO_COUNT>
1

> <PUBCHEM_ATOM_UDEF_STEREO_COUNT>
0

> <PUBCHEM_BOND_DEF_STEREO_COUNT>
0

> <PUBCHEM_BOND_UDEF_STEREO_COUNT>
0

> <PUBCHEM_ISOTOPIC_ATOM_COUNT>
0

> <PUBCHEM_COMPONENT_COUNT>
1

> <PUBCHEM_CACTVS_TAUTO_COUNT>
1

> <PUBCHEM_CONFORMER_ID>
04809A9900000001

> <PUBCHEM_MMFF94_ENERGY>
83.1351

> <PUBCHEM_FEATURE_SELFOVERLAP>
35.615

> <PUBCHEM_SHAPE_FINGERPRINT>
10 15 18186523215647709289
10050765 1 18410291415217699306
10280341 67 18126555963708922016
10411042 1 17545600518944115963
10670039 82 17916873387451385416
11720765 8 18058736776673664702
11991303 11 17131824387685471535
1200032 147 16806186474721861244
12390115 104 18341059561915063035
12422481 6 17023181570308448397
12788726 201 17631451159802260457
13885169 86 18408892857769622681
13944108 23 17910957937511062761
13955234 65 18042680598871084314
14020679 6 17313394451988208481
14251740 57 8646773305213041288
14341114 328 16805327694939984322
14347332 77 10447927261383541699
14528608 73 18411698759882357325
14537116 161 17418087681558741145
1454969 45 18411975859300431927
14790565 3 18339643322171531401
14840074 17 17676494938250516677
14933364 13 18412830166132731541
15183329 4 14979954748656994497
15188451 53 10087641468668182236
15419008 145 18043517340706032216
15510800 12 11383827208118592700
18222031 100 11455892477383981538
19611394 137 18041577931027206747
20058555 10 18336262337023191981
20281389 69 18334011657952630577
20715895 44 18412260654044262648
21033648 29 18341607165992241792
21049683 118 17967802873587592178
21304253 335 18261116278924694718
21315763 87 11025807508804671836
23559900 14 18271526373808517358
245318 6 17823153365467795236
25122255 55 9439406851760841321
2747138 104 17971208151272567403
2748736 6 18337098025477738029
2838139 119 18411130308028565127
316301 35 9510923448467793748
3472631 163 18413389847721256726
34797466 226 18060145331549169575
4073 2 18187369878372106866
4340502 62 16370730296581224027
44249763 50 17630871888972684866
465052 167 8142080983504407472
5104073 3 18040710377149864866
54583773 228 18410285901776787125
5718773 13 9439412319607825352
59682541 35 18187660102803568953
59682541 52 16271644481802137940
633830 44 18341040861654077070
636775 72 17979911933106267456
6898599 12 18271239534148174343
7808743 9 18338791312096968442
7970288 3 9511462221153747216
8988823 20 12540708023973981446

> <PUBCHEM_SHAPE_MULTIPOLES>
487.81
17.75
3.49
0.87
3.06
0.69
0.06
16.19
1.46
-1.16
-0.34
-1.06
-0.08
0.32

> <PUBCHEM_SHAPE_SELFOVERLAP>
1051.426

> <PUBCHEM_SHAPE_VOLUME>
267.7

> <PUBCHEM_COORDINATE_TYPE>
2
5
10

$$$$
