71693635
  -OEChem-12032416233D

 46 47  0     1  0  0  0  0  0999 V2000
    2.8974   -1.6298    0.0824 O   0  0  0  0  0  0  0  0  0  0  0  0
    3.1575    2.3349    1.2584 O   0  0  0  0  0  0  0  0  0  0  0  0
    6.4263   -1.1403    0.0988 O   0  0  0  0  0  0  0  0  0  0  0  0
   -4.1068    0.2746    1.3664 O   0  0  0  0  0  0  0  0  0  0  0  0
    4.7361    0.4132   -0.3046 N   0  0  0  0  0  0  0  0  0  0  0  0
   -3.1417   -0.1632   -0.7331 N   0  0  0  0  0  0  0  0  0  0  0  0
   -5.4362    0.0184   -0.5074 N   0  0  0  0  0  0  0  0  0  0  0  0
    3.2847    0.6783   -0.4584 C   0  0  1  0  0  0  0  0  0  0  0  0
    2.4465   -0.3073    0.3786 C   0  0  1  0  0  0  0  0  0  0  0  0
    0.9617   -0.2685    0.0828 C   0  0  0  0  0  0  0  0  0  0  0  0
    2.9124    2.1285   -0.1177 C   0  0  0  0  0  0  0  0  0  0  0  0
    4.2027   -1.8338    0.5673 C   0  0  0  0  0  0  0  0  0  0  0  0
    5.2321   -0.8343    0.0789 C   0  0  0  0  0  0  0  0  0  0  0  0
    5.6743    1.4159   -0.8020 C   0  0  0  0  0  0  0  0  0  0  0  0
    0.5037   -0.4736   -1.2187 C   0  0  0  0  0  0  0  0  0  0  0  0
    0.0520   -0.0279    1.1124 C   0  0  0  0  0  0  0  0  0  0  0  0
   -0.8639   -0.4385   -1.4905 C   0  0  0  0  0  0  0  0  0  0  0  0
   -1.3157    0.0073    0.8408 C   0  0  0  0  0  0  0  0  0  0  0  0
   -1.7736   -0.1980   -0.4608 C   0  0  0  0  0  0  0  0  0  0  0  0
   -6.7032    0.2162    0.1581 C   0  0  0  0  0  0  0  0  0  0  0  0
   -4.2080    0.0633    0.1602 C   0  0  0  0  0  0  0  0  0  0  0  0
   -7.7050    0.8728   -0.7834 C   0  0  0  0  0  0  0  0  0  0  0  0
   -7.2333   -1.1084    0.6916 C   0  0  0  0  0  0  0  0  0  0  0  0
    3.0997    0.5161   -1.5277 H   0  0  0  0  0  0  0  0  0  0  0  0
    2.6024   -0.1311    1.4519 H   0  0  0  0  0  0  0  0  0  0  0  0
    1.8536    2.3226   -0.3165 H   0  0  0  0  0  0  0  0  0  0  0  0
    3.4892    2.8544   -0.6982 H   0  0  0  0  0  0  0  0  0  0  0  0
    4.5201   -2.8305    0.2437 H   0  0  0  0  0  0  0  0  0  0  0  0
    4.1995   -1.8242    1.6634 H   0  0  0  0  0  0  0  0  0  0  0  0
    5.3925    1.6927   -1.8221 H   0  0  0  0  0  0  0  0  0  0  0  0
    6.7001    1.0382   -0.8159 H   0  0  0  0  0  0  0  0  0  0  0  0
    5.6442    2.2926   -0.1499 H   0  0  0  0  0  0  0  0  0  0  0  0
    1.1941   -0.6743   -2.0331 H   0  0  0  0  0  0  0  0  0  0  0  0
    0.3949    0.1343    2.1309 H   0  0  0  0  0  0  0  0  0  0  0  0
   -1.2070   -0.6027   -2.5088 H   0  0  0  0  0  0  0  0  0  0  0  0
   -1.9568    0.1989    1.6895 H   0  0  0  0  0  0  0  0  0  0  0  0
    2.9074    3.2524    1.4608 H   0  0  0  0  0  0  0  0  0  0  0  0
   -3.4006   -0.3209   -1.7039 H   0  0  0  0  0  0  0  0  0  0  0  0
   -6.5397    0.8881    1.0093 H   0  0  0  0  0  0  0  0  0  0  0  0
   -5.4412   -0.2365   -1.4904 H   0  0  0  0  0  0  0  0  0  0  0  0
   -7.9011    0.2431   -1.6585 H   0  0  0  0  0  0  0  0  0  0  0  0
   -8.6572    1.0576   -0.2756 H   0  0  0  0  0  0  0  0  0  0  0  0
   -7.3229    1.8328   -1.1476 H   0  0  0  0  0  0  0  0  0  0  0  0
   -8.1838   -0.9668    1.2165 H   0  0  0  0  0  0  0  0  0  0  0  0
   -6.5245   -1.5604    1.3941 H   0  0  0  0  0  0  0  0  0  0  0  0
   -7.3949   -1.8268   -0.1198 H   0  0  0  0  0  0  0  0  0  0  0  0
  1  9  1  0  0  0  0
  1 12  1  0  0  0  0
  2 11  1  0  0  0  0
  2 37  1  0  0  0  0
  3 13  2  0  0  0  0
  4 21  2  0  0  0  0
  5  8  1  0  0  0  0
  5 13  1  0  0  0  0
  5 14  1  0  0  0  0
  6 19  1  0  0  0  0
  6 21  1  0  0  0  0
  6 38  1  0  0  0  0
  7 20  1  0  0  0  0
  7 21  1  0  0  0  0
  7 40  1  0  0  0  0
  8  9  1  0  0  0  0
  8 11  1  0  0  0  0
  8 24  1  0  0  0  0
  9 10  1  0  0  0  0
  9 25  1  0  0  0  0
 10 15  2  0  0  0  0
 10 16  1  0  0  0  0
 11 26  1  0  0  0  0
 11 27  1  0  0  0  0
 12 13  1  0  0  0  0
 12 28  1  0  0  0  0
 12 29  1  0  0  0  0
 14 30  1  0  0  0  0
 14 31  1  0  0  0  0
 14 32  1  0  0  0  0
 15 17  1  0  0  0  0
 15 33  1  0  0  0  0
 16 18  2  0  0  0  0
 16 34  1  0  0  0  0
 17 19  2  0  0  0  0
 17 35  1  0  0  0  0
 18 19  1  0  0  0  0
 18 36  1  0  0  0  0
 20 22  1  0  0  0  0
 20 23  1  0  0  0  0
 20 39  1  0  0  0  0
 22 41  1  0  0  0  0
 22 42  1  0  0  0  0
 22 43  1  0  0  0  0
 23 44  1  0  0  0  0
 23 45  1  0  0  0  0
 23 46  1  0  0  0  0
M  END
> <PUBCHEM_COMPOUND_CID>
71693635

> <PUBCHEM_CONFORMER_RMSD>
0.8

> <PUBCHEM_CONFORMER_DIVERSEORDER>
1
47
39
10
28
8
23
43
34
48
6
27
19
25
38
9
51
40
12
49
24
35
18
41
26
29
20
5
45
37
42
32
15
46
21
14
11
16
36
4
50
17
13
22
2
44
33
31
3
7
30

> <PUBCHEM_MMFF94_PARTIAL_CHARGES>
28
1 -0.56
10 -0.14
11 0.28
12 0.34
13 0.57
14 0.3
15 -0.15
16 -0.15
17 -0.15
18 -0.15
19 0.12
2 -0.68
20 0.3
21 0.69
3 -0.57
33 0.15
34 0.15
35 0.15
36 0.15
37 0.4
38 0.37
4 -0.57
40 0.37
5 -0.66
6 -0.55
7 -0.73
8 0.3
9 0.42

> <PUBCHEM_EFFECTIVE_ROTOR_COUNT>
7

> <PUBCHEM_PHARMACOPHORE_FEATURES>
10
1 1 acceptor
1 2 acceptor
1 2 donor
1 3 acceptor
1 4 acceptor
1 6 donor
1 7 donor
3 20 22 23 hydrophobe
6 1 5 8 9 12 13 rings
6 10 15 16 17 18 19 rings

> <PUBCHEM_HEAVY_ATOM_COUNT>
23

> <PUBCHEM_ATOM_DEF_STEREO_COUNT>
2

> <PUBCHEM_ATOM_UDEF_STEREO_COUNT>
0

> <PUBCHEM_BOND_DEF_STEREO_COUNT>
0

> <PUBCHEM_BOND_UDEF_STEREO_COUNT>
0

> <PUBCHEM_ISOTOPIC_ATOM_COUNT>
0

> <PUBCHEM_COMPONENT_COUNT>
1

> <PUBCHEM_CACTVS_TAUTO_COUNT>
6

> <PUBCHEM_CONFORMER_ID>
0445F54300000001

> <PUBCHEM_MMFF94_ENERGY>
59.6696

> <PUBCHEM_FEATURE_SELFOVERLAP>
50.795

> <PUBCHEM_SHAPE_FINGERPRINT>
10354089 29 18342458149263561708
10411042 1 18047468921377808354
11045977 3 18187087290719012315
11646440 116 14979960289666330531
12166972 35 18411420635413498761
12236239 1 18131912671660355702
12516196 113 17240202140654556773
12616971 3 17917421051821649197
12730499 353 18040152920528062914
12741549 16 17749380444061580972
12916748 109 14908184140218276747
13167372 99 18271529706549891857
13533116 47 18408884005778507978
14170010 4 18410290324764640600
14251764 18 17988925573982757129
14251764 46 18272087179971370766
14294032 229 16772134452947936617
14341114 176 18261114075369211588
14933364 13 18259985968498038253
15183329 4 17632861932231745257
21033648 29 17895459393446529901
21267235 1 18340489972464409014
21781051 124 17059784437167863023
221357 26 18261108547989284484
22224240 67 16805602607122069265
23035841 295 15357696379479501659
23536379 177 18335138670556540339
23559900 14 17458068187338084648
23569943 247 16734941225669901675
3004659 81 17275107253759150296
3411729 13 15286503105024277228
3545911 37 18333732437728027973
4073 2 17749397008927352843
4325135 7 17489869324385185477
4340502 62 18410577283929674863
465052 167 18343023280791759950
54446538 1 18060701684813034993
59755656 215 16515404045306950931
59755656 520 18259700121440312075

> <PUBCHEM_SHAPE_MULTIPOLES>
434.91
18.81
1.57
1.13
26.05
0.39
0
0.14
0.26
-2.52
-0.25
0.36
0.13
0.32

> <PUBCHEM_SHAPE_SELFOVERLAP>
897.709

> <PUBCHEM_SHAPE_VOLUME>
248.2

> <PUBCHEM_COORDINATE_TYPE>
2
5
10

$$$$
