75368465
  -OEChem-12032416403D

 54 57  0     1  0  0  0  0  0999 V2000
   -4.1029   -0.7219    0.8911 S   0  0  0  0  0  0  0  0  0  0  0  0
    1.5098   -2.7533   -2.1327 O   0  0  0  0  0  0  0  0  0  0  0  0
   -4.1193   -0.6793    2.3370 O   0  0  0  0  0  0  0  0  0  0  0  0
   -5.2530   -1.1833    0.1445 O   0  0  0  0  0  0  0  0  0  0  0  0
    5.2055    2.9724   -0.2015 O   0  0  0  0  0  0  0  0  0  0  0  0
   -0.2717   -2.5049   -0.6212 N   0  0  0  0  0  0  0  0  0  0  0  0
   -2.7198   -1.5924    0.3742 N   0  0  2  0  0  0  0  0  0  0  0  0
    1.8259   -2.3746    0.1731 N   0  0  0  0  0  0  0  0  0  0  0  0
   -0.4335   -2.3879    0.8155 C   0  0  2  0  0  0  0  0  0  0  0  0
   -1.4647   -1.3156    1.1496 C   0  0  0  0  0  0  0  0  0  0  0  0
    0.9779   -2.0913    1.3177 C   0  0  0  0  0  0  0  0  0  0  0  0
   -1.4418   -2.6450   -1.4656 C   0  0  0  0  0  0  0  0  0  0  0  0
   -2.4749   -1.5817   -1.1069 C   0  0  0  0  0  0  0  0  0  0  0  0
    1.0755   -2.5709   -1.0029 C   0  0  0  0  0  0  0  0  0  0  0  0
    3.2685   -2.3177    0.2561 C   0  0  0  0  0  0  0  0  0  0  0  0
   -3.6865    0.8908    0.3068 C   0  0  0  0  0  0  0  0  0  0  0  0
    3.7834   -0.9126    0.1340 C   0  0  0  0  0  0  0  0  0  0  0  0
   -2.9754    1.7677    1.1260 C   0  0  0  0  0  0  0  0  0  0  0  0
   -4.0665    1.2873   -0.9755 C   0  0  0  0  0  0  0  0  0  0  0  0
    4.2348   -0.2349    1.2666 C   0  0  0  0  0  0  0  0  0  0  0  0
    3.8100   -0.2847   -1.1113 C   0  0  0  0  0  0  0  0  0  0  0  0
   -2.6441    3.0409    0.6628 C   0  0  0  0  0  0  0  0  0  0  0  0
   -3.7353    2.5605   -1.4385 C   0  0  0  0  0  0  0  0  0  0  0  0
   -3.0242    3.4375   -0.6194 C   0  0  0  0  0  0  0  0  0  0  0  0
    4.7130    1.0705    1.1539 C   0  0  0  0  0  0  0  0  0  0  0  0
    4.2882    1.0207   -1.2241 C   0  0  0  0  0  0  0  0  0  0  0  0
    4.7397    1.6983   -0.0915 C   0  0  0  0  0  0  0  0  0  0  0  0
   -2.6701    4.7990   -1.1147 C   0  0  0  0  0  0  0  0  0  0  0  0
    5.6516    3.6062    0.9967 C   0  0  0  0  0  0  0  0  0  0  0  0
   -0.7695   -3.3682    1.1772 H   0  0  0  0  0  0  0  0  0  0  0  0
   -1.6613   -1.3352    2.2259 H   0  0  0  0  0  0  0  0  0  0  0  0
   -1.0801   -0.3261    0.8786 H   0  0  0  0  0  0  0  0  0  0  0  0
    1.2564   -2.7352    2.1574 H   0  0  0  0  0  0  0  0  0  0  0  0
    1.1132   -1.0427    1.6015 H   0  0  0  0  0  0  0  0  0  0  0  0
   -1.8464   -3.6481   -1.2890 H   0  0  0  0  0  0  0  0  0  0  0  0
   -1.1490   -2.5762   -2.5179 H   0  0  0  0  0  0  0  0  0  0  0  0
   -2.0890   -0.6038   -1.4133 H   0  0  0  0  0  0  0  0  0  0  0  0
   -3.4012   -1.7896   -1.6511 H   0  0  0  0  0  0  0  0  0  0  0  0
    3.6899   -2.9206   -0.5576 H   0  0  0  0  0  0  0  0  0  0  0  0
    3.5834   -2.7862    1.1955 H   0  0  0  0  0  0  0  0  0  0  0  0
   -2.6666    1.4793    2.1267 H   0  0  0  0  0  0  0  0  0  0  0  0
   -4.6199    0.6213   -1.6315 H   0  0  0  0  0  0  0  0  0  0  0  0
    4.2168   -0.7126    2.2426 H   0  0  0  0  0  0  0  0  0  0  0  0
    3.4680   -0.8007   -2.0038 H   0  0  0  0  0  0  0  0  0  0  0  0
   -2.0905    3.7155    1.3106 H   0  0  0  0  0  0  0  0  0  0  0  0
   -4.0380    2.8584   -2.4389 H   0  0  0  0  0  0  0  0  0  0  0  0
    5.0474    1.5384    2.0735 H   0  0  0  0  0  0  0  0  0  0  0  0
    4.3076    1.5043   -2.1969 H   0  0  0  0  0  0  0  0  0  0  0  0
   -3.4650    5.5084   -0.8641 H   0  0  0  0  0  0  0  0  0  0  0  0
   -1.7330    5.1501   -0.6693 H   0  0  0  0  0  0  0  0  0  0  0  0
   -2.5283    4.7999   -2.2008 H   0  0  0  0  0  0  0  0  0  0  0  0
    5.9881    4.6119    0.7243 H   0  0  0  0  0  0  0  0  0  0  0  0
    6.5134    3.0871    1.4296 H   0  0  0  0  0  0  0  0  0  0  0  0
    4.8347    3.7264    1.7164 H   0  0  0  0  0  0  0  0  0  0  0  0
  1  3  2  0  0  0  0
  1  4  2  0  0  0  0
  1  7  1  0  0  0  0
  1 16  1  0  0  0  0
  2 14  2  0  0  0  0
  5 27  1  0  0  0  0
  5 29  1  0  0  0  0
  6  9  1  0  0  0  0
  6 12  1  0  0  0  0
  6 14  1  0  0  0  0
  7 10  1  0  0  0  0
  7 13  1  0  0  0  0
  8 11  1  0  0  0  0
  8 14  1  0  0  0  0
  8 15  1  0  0  0  0
  9 10  1  0  0  0  0
  9 11  1  0  0  0  0
  9 30  1  0  0  0  0
 10 31  1  0  0  0  0
 10 32  1  0  0  0  0
 11 33  1  0  0  0  0
 11 34  1  0  0  0  0
 12 13  1  0  0  0  0
 12 35  1  0  0  0  0
 12 36  1  0  0  0  0
 13 37  1  0  0  0  0
 13 38  1  0  0  0  0
 15 17  1  0  0  0  0
 15 39  1  0  0  0  0
 15 40  1  0  0  0  0
 16 18  2  0  0  0  0
 16 19  1  0  0  0  0
 17 20  2  0  0  0  0
 17 21  1  0  0  0  0
 18 22  1  0  0  0  0
 18 41  1  0  0  0  0
 19 23  2  0  0  0  0
 19 42  1  0  0  0  0
 20 25  1  0  0  0  0
 20 43  1  0  0  0  0
 21 26  2  0  0  0  0
 21 44  1  0  0  0  0
 22 24  2  0  0  0  0
 22 45  1  0  0  0  0
 23 24  1  0  0  0  0
 23 46  1  0  0  0  0
 24 28  1  0  0  0  0
 25 27  2  0  0  0  0
 25 47  1  0  0  0  0
 26 27  1  0  0  0  0
 26 48  1  0  0  0  0
 28 49  1  0  0  0  0
 28 50  1  0  0  0  0
 28 51  1  0  0  0  0
 29 52  1  0  0  0  0
 29 53  1  0  0  0  0
 29 54  1  0  0  0  0
M  END
> <PUBCHEM_COMPOUND_CID>
75368465

> <PUBCHEM_CONFORMER_RMSD>
0.8

> <PUBCHEM_CONFORMER_DIVERSEORDER>
1
73
112
90
99
60
45
115
63
62
110
50
39
93
104
13
72
114
83
66
81
88
53
65
9
86
32
40
26
64
80
108
84
75
103
20
98
44
68
106
35
54
46
58
22
116
61
85
105
109
34
74
28
51
36
47
71
96
91
77
14
79
31
59
87
56
95
29
69
27
4
67
12
102
107
38
57
30
55
52
100
10
82
43
111
97
92
6
76
94
21
113
70
25
19
18
17
7
16
49
41
37
23
5
2
78
101
33
48
8
15
42
89
24
11
3

> <PUBCHEM_MMFF94_PARTIAL_CHARGES>
37
1 1.45
10 0.36
11 0.3
12 0.3
13 0.36
14 0.69
15 0.44
16 -0.01
17 -0.14
18 -0.15
19 -0.15
2 -0.57
20 -0.15
21 -0.15
22 -0.15
23 -0.15
24 -0.14
25 -0.15
26 -0.15
27 0.08
28 0.14
29 0.28
3 -0.65
4 -0.65
41 0.15
42 0.15
43 0.15
44 0.15
45 0.15
46 0.15
47 0.15
48 0.15
5 -0.36
6 -0.66
7 -0.85
8 -0.66
9 0.3

> <PUBCHEM_EFFECTIVE_ROTOR_COUNT>
6.2

> <PUBCHEM_PHARMACOPHORE_FEATURES>
8
1 2 acceptor
1 3 acceptor
1 4 acceptor
1 5 acceptor
5 6 8 9 11 14 rings
6 16 18 19 22 23 24 rings
6 17 20 21 25 26 27 rings
6 6 7 9 10 12 13 rings

> <PUBCHEM_HEAVY_ATOM_COUNT>
29

> <PUBCHEM_ATOM_DEF_STEREO_COUNT>
1

> <PUBCHEM_ATOM_UDEF_STEREO_COUNT>
0

> <PUBCHEM_BOND_DEF_STEREO_COUNT>
0

> <PUBCHEM_BOND_UDEF_STEREO_COUNT>
0

> <PUBCHEM_ISOTOPIC_ATOM_COUNT>
0

> <PUBCHEM_COMPONENT_COUNT>
1

> <PUBCHEM_CACTVS_TAUTO_COUNT>
1

> <PUBCHEM_CONFORMER_ID>
047E081100000001

> <PUBCHEM_MMFF94_ENERGY>
71.4066

> <PUBCHEM_FEATURE_SELFOVERLAP>
40.714

> <PUBCHEM_SHAPE_FINGERPRINT>
10439779 11 17758947130919012248
10670039 82 18337125509505806316
10928967 22 11455900178097060172
11059048 146 17984717614377677488
11135609 149 17057263047084647382
12422481 6 18191569888404938666
12596602 18 16733549441364176946
12633257 1 16081650114422380878
12925494 130 18045780088022329853
12978246 48 18409728482432934960
13583140 156 17972608684299565699
13627167 48 18341065081132733124
14251764 38 18264769861342560613
14289585 56 15104120041302928705
14739800 52 18042396950566568411
14840074 17 18341622563518536905
14848178 5 9079122128935723006
14950920 106 17530676598342514978
15163728 17 17987811820681752086
15320291 9 18266171721948120068
15575132 122 18410574015485397093
15961568 22 18337114569728256837
16067690 210 17970615518895011600
16992787 43 18409724038181274021
17868525 174 17901099721004993234
20764821 26 18052244387295912488
21033648 144 18342463689882714974
21095088 737 18339633431162438357
21315764 268 18263925432386499635
21388113 180 18412823564900178364
21458453 9 17544521524786324209
21475661 188 18118682123678901390
21623110 236 18339365167484226041
21734292 116 18410855486135784200
21859007 373 18413108390673722172
21860390 5 17694497044780037598
22864921 10 18334015008560502196
22907989 373 18058715919932452663
23398203 216 17837229077494175001
23559900 14 17838897027774362163
2838139 119 18411976992786831814
325973 47 18122903131976414808
3459 39 18058149787482021248
4144715 1 18188781522237569778
4573279 150 17904159756923607024
469060 322 18191043376658320089
474144 1 17388274586790403076
4742675 86 18189311568271651468
5081480 168 17199411208272868830
508706 21 18044662996749838053
6036956 94 18188771772535292005
6086070 43 17976819783421127159
6608658 132 18125712646082832150
7808743 9 18126846221523376682

> <PUBCHEM_SHAPE_MULTIPOLES>
562.24
12.4
5.46
1.69
8.64
4.81
-0.03
10.15
1.66
-0.51
-1.3
-0.45
-0.41
1.82

> <PUBCHEM_SHAPE_SELFOVERLAP>
1191.263

> <PUBCHEM_SHAPE_VOLUME>
316.9

> <PUBCHEM_COORDINATE_TYPE>
2
5
10

$$$$
