45783641
  -OEChem-12032416273D

 55 58  0     1  0  0  0  0  0999 V2000
   -2.7549   -1.5308    1.8614 O   0  0  0  0  0  0  0  0  0  0  0  0
    7.6020    0.1385   -1.4449 O   0  0  0  0  0  0  0  0  0  0  0  0
    5.0102   -0.0310   -1.6640 O   0  0  0  0  0  0  0  0  0  0  0  0
   -4.2949   -0.3145   -1.2457 N   0  0  1  0  0  0  0  0  0  0  0  0
   -1.6612   -1.0023   -0.0205 N   0  0  0  0  0  0  0  0  0  0  0  0
   -1.3965   -1.4857    2.2000 N   0  0  0  0  0  0  0  0  0  0  0  0
    2.7922   -1.0467    1.9262 N   0  0  0  0  0  0  0  0  0  0  0  0
    4.6972   -0.5753    0.6062 N   0  0  0  0  0  0  0  0  0  0  0  0
   -4.2050   -1.2174   -0.0808 C   0  0  1  0  0  0  0  0  0  0  0  0
   -4.6326   -2.5950   -0.6197 C   0  0  0  0  0  0  0  0  0  0  0  0
   -5.0017   -2.3551   -2.0768 C   0  0  0  0  0  0  0  0  0  0  0  0
   -5.3218   -0.8747   -2.1245 C   0  0  0  0  0  0  0  0  0  0  0  0
   -4.5799    1.0672   -0.8809 C   0  0  0  0  0  0  0  0  0  0  0  0
   -2.8226   -1.2348    0.5370 C   0  0  0  0  0  0  0  0  0  0  0  0
   -3.3463    1.7871   -0.4045 C   0  0  0  0  0  0  0  0  0  0  0  0
   -3.3144    2.3451    0.8735 C   0  0  0  0  0  0  0  0  0  0  0  0
   -2.2365    1.8986   -1.2422 C   0  0  0  0  0  0  0  0  0  0  0  0
   -0.8168   -1.1679    1.0386 C   0  0  0  0  0  0  0  0  0  0  0  0
   -2.1728    3.0146    1.3138 C   0  0  0  0  0  0  0  0  0  0  0  0
   -1.0948    2.5681   -0.8018 C   0  0  0  0  0  0  0  0  0  0  0  0
   -1.0628    3.1260    0.4762 C   0  0  0  0  0  0  0  0  0  0  0  0
    0.6025   -1.0101    0.9023 C   0  0  0  0  0  0  0  0  0  0  0  0
    0.1575    3.8425    0.9474 C   0  0  0  0  0  0  0  0  0  0  0  0
    1.1724   -0.6804   -0.3224 C   0  0  0  0  0  0  0  0  0  0  0  0
    1.4483   -1.1809    1.9863 C   0  0  0  0  0  0  0  0  0  0  0  0
    2.5515   -0.5337   -0.4241 C   0  0  0  0  0  0  0  0  0  0  0  0
    3.3102   -0.7258    0.7194 C   0  0  0  0  0  0  0  0  0  0  0  0
    5.4375   -0.2494   -0.5345 C   0  0  0  0  0  0  0  0  0  0  0  0
    6.9227   -0.1891   -0.2504 C   0  0  0  0  0  0  0  0  0  0  0  0
    9.0111    0.2127   -1.2505 C   0  0  0  0  0  0  0  0  0  0  0  0
   -4.9274   -0.9256    0.6945 H   0  0  0  0  0  0  0  0  0  0  0  0
   -3.8562   -3.3633   -0.5365 H   0  0  0  0  0  0  0  0  0  0  0  0
   -5.5148   -2.9476   -0.0715 H   0  0  0  0  0  0  0  0  0  0  0  0
   -5.8422   -2.9770   -2.3985 H   0  0  0  0  0  0  0  0  0  0  0  0
   -4.1430   -2.5819   -2.7209 H   0  0  0  0  0  0  0  0  0  0  0  0
   -5.2525   -0.4810   -3.1433 H   0  0  0  0  0  0  0  0  0  0  0  0
   -6.3325   -0.6913   -1.7383 H   0  0  0  0  0  0  0  0  0  0  0  0
   -4.9321    1.6207   -1.7628 H   0  0  0  0  0  0  0  0  0  0  0  0
   -5.3943    1.1345   -0.1477 H   0  0  0  0  0  0  0  0  0  0  0  0
   -4.1709    2.2641    1.5374 H   0  0  0  0  0  0  0  0  0  0  0  0
   -2.2477    1.4730   -2.2421 H   0  0  0  0  0  0  0  0  0  0  0  0
   -2.1594    3.4426    2.3126 H   0  0  0  0  0  0  0  0  0  0  0  0
   -0.2356    2.6467   -1.4626 H   0  0  0  0  0  0  0  0  0  0  0  0
   -0.0921    4.6048    1.6933 H   0  0  0  0  0  0  0  0  0  0  0  0
    0.6563    4.3562    0.1186 H   0  0  0  0  0  0  0  0  0  0  0  0
    0.8598    3.1320    1.3948 H   0  0  0  0  0  0  0  0  0  0  0  0
    0.5657   -0.5319   -1.2121 H   0  0  0  0  0  0  0  0  0  0  0  0
    1.0834   -1.4384    2.9763 H   0  0  0  0  0  0  0  0  0  0  0  0
    2.9204   -0.2773   -1.4035 H   0  0  0  0  0  0  0  0  0  0  0  0
    5.2084   -0.7268    1.4724 H   0  0  0  0  0  0  0  0  0  0  0  0
    7.2524   -1.1674    0.1169 H   0  0  0  0  0  0  0  0  0  0  0  0
    7.1057    0.5766    0.5118 H   0  0  0  0  0  0  0  0  0  0  0  0
    9.2553    0.9914   -0.5216 H   0  0  0  0  0  0  0  0  0  0  0  0
    9.4018   -0.7534   -0.9168 H   0  0  0  0  0  0  0  0  0  0  0  0
    9.4767    0.4682   -2.2060 H   0  0  0  0  0  0  0  0  0  0  0  0
  1  6  1  0  0  0  0
  1 14  1  0  0  0  0
  2 29  1  0  0  0  0
  2 30  1  0  0  0  0
  3 28  2  0  0  0  0
  4  9  1  0  0  0  0
  4 12  1  0  0  0  0
  4 13  1  0  0  0  0
  5 14  2  0  0  0  0
  5 18  1  0  0  0  0
  6 18  2  0  0  0  0
  7 25  1  0  0  0  0
  7 27  2  0  0  0  0
  8 27  1  0  0  0  0
  8 28  1  0  0  0  0
  8 50  1  0  0  0  0
  9 10  1  0  0  0  0
  9 14  1  0  0  0  0
  9 31  1  0  0  0  0
 10 11  1  0  0  0  0
 10 32  1  0  0  0  0
 10 33  1  0  0  0  0
 11 12  1  0  0  0  0
 11 34  1  0  0  0  0
 11 35  1  0  0  0  0
 12 36  1  0  0  0  0
 12 37  1  0  0  0  0
 13 15  1  0  0  0  0
 13 38  1  0  0  0  0
 13 39  1  0  0  0  0
 15 16  2  0  0  0  0
 15 17  1  0  0  0  0
 16 19  1  0  0  0  0
 16 40  1  0  0  0  0
 17 20  2  0  0  0  0
 17 41  1  0  0  0  0
 18 22  1  0  0  0  0
 19 21  2  0  0  0  0
 19 42  1  0  0  0  0
 20 21  1  0  0  0  0
 20 43  1  0  0  0  0
 21 23  1  0  0  0  0
 22 24  1  0  0  0  0
 22 25  2  0  0  0  0
 23 44  1  0  0  0  0
 23 45  1  0  0  0  0
 23 46  1  0  0  0  0
 24 26  2  0  0  0  0
 24 47  1  0  0  0  0
 25 48  1  0  0  0  0
 26 27  1  0  0  0  0
 26 49  1  0  0  0  0
 28 29  1  0  0  0  0
 29 51  1  0  0  0  0
 29 52  1  0  0  0  0
 30 53  1  0  0  0  0
 30 54  1  0  0  0  0
 30 55  1  0  0  0  0
M  END
> <PUBCHEM_COMPOUND_CID>
45783641

> <PUBCHEM_CONFORMER_RMSD>
1

> <PUBCHEM_CONFORMER_DIVERSEORDER>
1
32
21
20
5
18
39
4
12
3
34
25
24
40
15
11
38
14
16
13
2
27
36
33
35
41
10
26
7
9
8
37
6
29
19
17
28
23
30
22
31

> <PUBCHEM_MMFF94_PARTIAL_CHARGES>
36
1 -0.02
12 0.27
13 0.41
14 0.3
15 -0.14
16 -0.15
17 -0.15
18 0.46
19 -0.15
2 -0.56
20 -0.15
21 -0.14
22 0.05
23 0.14
24 -0.15
25 0.16
26 -0.15
27 0.43
28 0.57
29 0.34
3 -0.57
30 0.28
4 -0.81
40 0.15
41 0.15
42 0.15
43 0.15
47 0.15
48 0.15
49 0.15
5 -0.57
50 0.37
6 -0.41
7 -0.62
8 -0.55
9 0.45

> <PUBCHEM_EFFECTIVE_ROTOR_COUNT>
9

> <PUBCHEM_PHARMACOPHORE_FEATURES>
9
1 2 acceptor
1 3 acceptor
1 4 cation
1 8 donor
3 5 6 18 cation
5 1 5 6 14 18 rings
5 4 9 10 11 12 rings
6 15 16 17 19 20 21 rings
6 7 22 24 25 26 27 rings

> <PUBCHEM_HEAVY_ATOM_COUNT>
30

> <PUBCHEM_ATOM_DEF_STEREO_COUNT>
1

> <PUBCHEM_ATOM_UDEF_STEREO_COUNT>
0

> <PUBCHEM_BOND_DEF_STEREO_COUNT>
0

> <PUBCHEM_BOND_UDEF_STEREO_COUNT>
0

> <PUBCHEM_ISOTOPIC_ATOM_COUNT>
0

> <PUBCHEM_COMPONENT_COUNT>
1

> <PUBCHEM_CACTVS_TAUTO_COUNT>
11

> <PUBCHEM_CONFORMER_ID>
02BA9A5900000001

> <PUBCHEM_MMFF94_ENERGY>
68.3467

> <PUBCHEM_FEATURE_SELFOVERLAP>
45.683

> <PUBCHEM_SHAPE_FINGERPRINT>
10454371 7 18411426098885829284
10670039 82 18407760327092066808
11477941 20 18342733035745201140
11578080 2 17558850393855389351
12107698 1 18412263965289974692
12788726 201 18335129852556093907
13782708 43 17489586749760021958
13947920 75 18410854339141704062
14931854 50 18186791465934773447
15021287 119 13039183715112249778
15183329 4 17968098574202997722
15289351 153 18262243331255156668
15876981 60 18411425015989568765
17492 54 18041263384712697237
19438510 23 13841087150717165503
20775438 99 17188097620524278527
21057603 43 17771906310483294299
21236236 1 18333740096129509320
21304303 64 16950841406736720565
21344244 246 17838043068247954423
255183 451 17981878959328997183
484985 159 13110670615550212581
5171179 24 18200587124291920993
531348 171 18129384795871353958
6608658 132 18335698317353187036
999808 66 14620801509248997214

> <PUBCHEM_SHAPE_MULTIPOLES>
574.87
16.38
3.46
1.97
41.4
3.64
0.23
-5.42
-11.63
-5.31
0.55
-0.39
-0.73
-1.41

> <PUBCHEM_SHAPE_SELFOVERLAP>
1235.103

> <PUBCHEM_SHAPE_VOLUME>
318.2

> <PUBCHEM_COORDINATE_TYPE>
2
5
10

$$$$
