7127917
  -OEChem-12032416153D

 64 66  0     1  0  0  0  0  0999 V2000
   -5.6751    2.9519   -0.4280 Br  0  0  0  0  0  0  0  0  0  0  0  0
   -1.1655    3.5056    1.4038 O   0  0  0  0  0  0  0  0  0  0  0  0
    1.0111    4.2616   -1.4377 O   0  0  0  0  0  0  0  0  0  0  0  0
    2.7266    0.6112    2.2141 O   0  0  0  0  0  0  0  0  0  0  0  0
   -3.1173    1.8004   -1.9665 O   0  0  0  0  0  0  0  0  0  0  0  0
    6.0375    1.7700   -0.7528 O   0  0  0  0  0  0  0  0  0  0  0  0
   -4.8794   -2.9456    0.6501 O   0  0  0  0  0  0  0  0  0  0  0  0
    0.4347   -4.6994   -0.1385 O   0  0  0  0  0  0  0  0  0  0  0  0
   -1.8928    1.2783   -0.0676 N   0  0  0  0  0  0  0  0  0  0  0  0
    3.6154    0.7580    0.0640 N   0  0  0  0  0  0  0  0  0  0  0  0
    7.0297    0.5950    0.9535 N   0  0  0  0  0  0  0  0  0  0  0  0
   -0.7383    3.4577    0.0407 C   0  0  2  0  0  0  0  0  0  0  0  0
   -0.6956    1.9934   -0.4366 C   0  0  1  0  0  0  0  0  0  0  0  0
    0.6384    4.1250   -0.0679 C   0  0  1  0  0  0  0  0  0  0  0  0
    1.7213    3.3462    0.6984 C   0  0  0  0  0  0  0  0  0  0  0  0
    1.5737    1.8551    0.5883 C   0  0  0  0  0  0  0  0  0  0  0  0
    0.5003    1.2361    0.0742 C   0  0  0  0  0  0  0  0  0  0  0  0
    2.6817    1.0153    1.0527 C   0  0  0  0  0  0  0  0  0  0  0  0
    4.7972   -0.0446    0.2836 C   0  0  1  0  0  0  0  0  0  0  0  0
   -3.0190    1.2423   -0.8769 C   0  0  0  0  0  0  0  0  0  0  0  0
    4.8657   -1.2469   -0.6649 C   0  0  0  0  0  0  0  0  0  0  0  0
   -4.1795    0.4844   -0.3422 C   0  0  0  0  0  0  0  0  0  0  0  0
    3.6802   -2.1702   -0.5237 C   0  0  0  0  0  0  0  0  0  0  0  0
    6.0003    0.8636    0.0760 C   0  0  0  0  0  0  0  0  0  0  0  0
   -3.9864   -0.8625   -0.0993 C   0  0  0  0  0  0  0  0  0  0  0  0
   -5.3890    1.1046   -0.1025 C   0  0  0  0  0  0  0  0  0  0  0  0
    2.5547   -1.9543   -1.3033 C   0  0  0  0  0  0  0  0  0  0  0  0
    3.7387   -3.2175    0.3818 C   0  0  0  0  0  0  0  0  0  0  0  0
   -5.0462   -1.6173    0.4033 C   0  0  0  0  0  0  0  0  0  0  0  0
    1.4593   -2.8080   -1.1736 C   0  0  0  0  0  0  0  0  0  0  0  0
    2.6431   -4.0713    0.5114 C   0  0  0  0  0  0  0  0  0  0  0  0
   -6.4488    0.3496    0.4001 C   0  0  0  0  0  0  0  0  0  0  0  0
    1.5035   -3.8665   -0.2663 C   0  0  0  0  0  0  0  0  0  0  0  0
   -6.2774   -1.0114    0.6530 C   0  0  0  0  0  0  0  0  0  0  0  0
   -6.0047   -3.6568    1.1633 C   0  0  0  0  0  0  0  0  0  0  0  0
   -0.6983   -4.4333   -0.9639 C   0  0  0  0  0  0  0  0  0  0  0  0
   -1.4761    4.0107   -0.5521 H   0  0  0  0  0  0  0  0  0  0  0  0
   -0.6252    1.9886   -1.5323 H   0  0  0  0  0  0  0  0  0  0  0  0
    0.5835    5.1373    0.3508 H   0  0  0  0  0  0  0  0  0  0  0  0
    1.6696    3.6106    1.7621 H   0  0  0  0  0  0  0  0  0  0  0  0
    2.7134    3.6415    0.3358 H   0  0  0  0  0  0  0  0  0  0  0  0
    0.4795    0.1512    0.0002 H   0  0  0  0  0  0  0  0  0  0  0  0
   -1.9243    0.8253    0.8421 H   0  0  0  0  0  0  0  0  0  0  0  0
   -0.6078    2.9088    1.9295 H   0  0  0  0  0  0  0  0  0  0  0  0
    1.8642    4.7273   -1.4655 H   0  0  0  0  0  0  0  0  0  0  0  0
    4.7905   -0.3999    1.3214 H   0  0  0  0  0  0  0  0  0  0  0  0
    3.4893    1.1704   -0.8567 H   0  0  0  0  0  0  0  0  0  0  0  0
    5.7927   -1.8095   -0.4907 H   0  0  0  0  0  0  0  0  0  0  0  0
    4.9333   -0.9046   -1.7072 H   0  0  0  0  0  0  0  0  0  0  0  0
   -3.0314   -1.3425   -0.2966 H   0  0  0  0  0  0  0  0  0  0  0  0
    2.5108   -1.1341   -2.0142 H   0  0  0  0  0  0  0  0  0  0  0  0
    4.6210   -3.3833    0.9932 H   0  0  0  0  0  0  0  0  0  0  0  0
    7.8860    1.1388    0.9326 H   0  0  0  0  0  0  0  0  0  0  0  0
    6.9844   -0.1546    1.6362 H   0  0  0  0  0  0  0  0  0  0  0  0
    0.6062   -2.5909   -1.8072 H   0  0  0  0  0  0  0  0  0  0  0  0
    2.6831   -4.8937    1.2205 H   0  0  0  0  0  0  0  0  0  0  0  0
   -7.4153    0.8053    0.6007 H   0  0  0  0  0  0  0  0  0  0  0  0
   -7.1418   -1.5379    1.0428 H   0  0  0  0  0  0  0  0  0  0  0  0
   -6.3039   -3.2806    2.1475 H   0  0  0  0  0  0  0  0  0  0  0  0
   -6.8363   -3.6628    0.4505 H   0  0  0  0  0  0  0  0  0  0  0  0
   -5.6939   -4.6977    1.3002 H   0  0  0  0  0  0  0  0  0  0  0  0
   -1.1431   -3.4589   -0.7345 H   0  0  0  0  0  0  0  0  0  0  0  0
   -1.4533   -5.1914   -0.7313 H   0  0  0  0  0  0  0  0  0  0  0  0
   -0.4557   -4.5387   -2.0267 H   0  0  0  0  0  0  0  0  0  0  0  0
  1 26  1  0  0  0  0
  2 12  1  0  0  0  0
  2 44  1  0  0  0  0
  3 14  1  0  0  0  0
  3 45  1  0  0  0  0
  4 18  2  0  0  0  0
  5 20  2  0  0  0  0
  6 24  2  0  0  0  0
  7 29  1  0  0  0  0
  7 35  1  0  0  0  0
  8 33  1  0  0  0  0
  8 36  1  0  0  0  0
  9 13  1  0  0  0  0
  9 20  1  0  0  0  0
  9 43  1  0  0  0  0
 10 18  1  0  0  0  0
 10 19  1  0  0  0  0
 10 47  1  0  0  0  0
 11 24  1  0  0  0  0
 11 53  1  0  0  0  0
 11 54  1  0  0  0  0
 12 13  1  0  0  0  0
 12 14  1  0  0  0  0
 12 37  1  0  0  0  0
 13 17  1  0  0  0  0
 13 38  1  0  0  0  0
 14 15  1  0  0  0  0
 14 39  1  0  0  0  0
 15 16  1  0  0  0  0
 15 40  1  0  0  0  0
 15 41  1  0  0  0  0
 16 17  2  0  0  0  0
 16 18  1  0  0  0  0
 17 42  1  0  0  0  0
 19 21  1  0  0  0  0
 19 24  1  0  0  0  0
 19 46  1  0  0  0  0
 20 22  1  0  0  0  0
 21 23  1  0  0  0  0
 21 48  1  0  0  0  0
 21 49  1  0  0  0  0
 22 25  1  0  0  0  0
 22 26  2  0  0  0  0
 23 27  2  0  0  0  0
 23 28  1  0  0  0  0
 25 29  2  0  0  0  0
 25 50  1  0  0  0  0
 26 32  1  0  0  0  0
 27 30  1  0  0  0  0
 27 51  1  0  0  0  0
 28 31  2  0  0  0  0
 28 52  1  0  0  0  0
 29 34  1  0  0  0  0
 30 33  2  0  0  0  0
 30 55  1  0  0  0  0
 31 33  1  0  0  0  0
 31 56  1  0  0  0  0
 32 34  2  0  0  0  0
 32 57  1  0  0  0  0
 34 58  1  0  0  0  0
 35 59  1  0  0  0  0
 35 60  1  0  0  0  0
 35 61  1  0  0  0  0
 36 62  1  0  0  0  0
 36 63  1  0  0  0  0
 36 64  1  0  0  0  0
M  END
> <PUBCHEM_COMPOUND_CID>
7127917

> <PUBCHEM_CONFORMER_RMSD>
1.2

> <PUBCHEM_CONFORMER_DIVERSEORDER>
1
94
71
131
92
54
25
101
69
55
2
81
70
59
3
41
137
67
76
127
57
119
46
31
103
114
23
88
50
44
108
134
140
74
47
107
98
77
43
30
95
29
38
80
91
143
100
60
27
37
51
130
110
42
15
62
112
142
56
93
28
115
138
97
82
73
123
149
24
52
32
135
26
113
141
36
49
90
116
66
132
22
7
89
61
118
65
104
136
83
6
19
145
63
78
17
35
11
79
96
48
84
150
72
21
102
117
39
86
146
12
13
34
125
68
139
133
64
18
106
75
33
126
121
16
20
111
105
120
14
129
99
9
5
144
109
122
87
8
147
45
124
10
40
85
4
148
53
128
58

> <PUBCHEM_MMFF94_PARTIAL_CHARGES>
50
1 -0.11
10 -0.73
11 -0.8
12 0.28
13 0.44
14 0.28
15 0.14
16 -0.12
17 -0.29
18 0.62
19 0.36
2 -0.68
20 0.54
21 0.14
22 0.09
23 -0.14
24 0.57
25 -0.15
26 0.11
27 -0.15
28 -0.15
29 0.08
3 -0.68
30 -0.15
31 -0.15
32 -0.15
33 0.08
34 -0.15
35 0.28
36 0.28
4 -0.57
42 0.15
43 0.37
44 0.4
45 0.4
47 0.37
5 -0.57
50 0.15
51 0.15
52 0.15
53 0.37
54 0.37
55 0.15
56 0.15
57 0.15
58 0.15
6 -0.57
7 -0.36
8 -0.36
9 -0.73

> <PUBCHEM_EFFECTIVE_ROTOR_COUNT>
11.8

> <PUBCHEM_PHARMACOPHORE_FEATURES>
16
1 1 hydrophobe
1 10 donor
1 11 donor
1 2 acceptor
1 2 donor
1 3 acceptor
1 3 donor
1 4 acceptor
1 5 acceptor
1 6 acceptor
1 7 acceptor
1 8 acceptor
1 9 donor
6 12 13 14 15 16 17 rings
6 22 25 26 29 32 34 rings
6 23 27 28 30 31 33 rings

> <PUBCHEM_HEAVY_ATOM_COUNT>
36

> <PUBCHEM_ATOM_DEF_STEREO_COUNT>
4

> <PUBCHEM_ATOM_UDEF_STEREO_COUNT>
0

> <PUBCHEM_BOND_DEF_STEREO_COUNT>
0

> <PUBCHEM_BOND_UDEF_STEREO_COUNT>
0

> <PUBCHEM_ISOTOPIC_ATOM_COUNT>
0

> <PUBCHEM_COMPONENT_COUNT>
1

> <PUBCHEM_CACTVS_TAUTO_COUNT>
8

> <PUBCHEM_CONFORMER_ID>
006CC36D00000001

> <PUBCHEM_MMFF94_ENERGY>
109.5841

> <PUBCHEM_FEATURE_SELFOVERLAP>
81.208

> <PUBCHEM_SHAPE_FINGERPRINT>
10864689 126 18269282257163719863
11963148 33 18335412478901311010
13402501 40 18410858763064014187
1361 2 18410857702570939728
14840074 17 17703502212457153933
15064986 96 17775018868971719431
15320467 1 18338799047681760455
15537594 2 17917419922055534796
15927050 60 17692533733957557492
15968369 26 17904453256843179482
20764821 26 18268404906898226086
23559900 14 18411412926195031441
3737641 26 18271527477202947492
4073 2 18409451358474119705
437795 96 18409726228128888583
484989 97 18340216211180935910
5265222 85 18265901452366394492
5309563 4 18341332206343814143
5776283 40 18048894179940342260

> <PUBCHEM_SHAPE_MULTIPOLES>
690.78
15.66
6.93
1.23
7.61
3.46
0.02
2.68
2.3
0.01
-0.3
-0.14
-0.16
2.17

> <PUBCHEM_SHAPE_SELFOVERLAP>
1453.561

> <PUBCHEM_SHAPE_VOLUME>
394.6

> <PUBCHEM_COORDINATE_TYPE>
2
5
10

$$$$
