26742981
  -OEChem-12032416183D

 60 62  0     1  0  0  0  0  0999 V2000
    3.1511    0.7609   -2.0827 O   0  0  0  0  0  0  0  0  0  0  0  0
   -4.4222   -1.2366   -1.3638 O   0  0  0  0  0  0  0  0  0  0  0  0
   -0.6487    2.8161    1.0047 N   0  0  0  0  0  0  0  0  0  0  0  0
    4.2158   -0.4746   -0.4287 N   0  0  0  0  0  0  0  0  0  0  0  0
    6.6527   -1.1474    0.9192 N   0  0  0  0  0  0  0  0  0  0  0  0
   -3.0802   -1.0377   -1.6648 N   0  0  0  0  0  0  0  0  0  0  0  0
    0.7968    1.0674   -0.8819 C   0  0  1  0  0  0  0  0  0  0  0  0
   -0.6455    0.7724   -0.4057 C   0  0  2  0  0  0  0  0  0  0  0  0
    1.0687    2.5757   -0.7545 C   0  0  0  0  0  0  0  0  0  0  0  0
   -0.9212    1.3786    0.9806 C   0  0  0  0  0  0  0  0  0  0  0  0
    1.8732    0.2555   -0.1517 C   0  0  0  0  0  0  0  0  0  0  0  0
    0.7338    3.1134    0.6361 C   0  0  0  0  0  0  0  0  0  0  0  0
   -0.9875   -0.7181   -0.4179 C   0  0  0  0  0  0  0  0  0  0  0  0
    3.1319    0.2068   -0.9807 C   0  0  0  0  0  0  0  0  0  0  0  0
   -2.4712   -0.9385   -0.4798 C   0  0  0  0  0  0  0  0  0  0  0  0
    5.4740   -0.5626   -1.1683 C   0  0  0  0  0  0  0  0  0  0  0  0
    4.1846   -1.2531    0.8129 C   0  0  0  0  0  0  0  0  0  0  0  0
    6.6710   -0.2737   -0.2630 C   0  0  0  0  0  0  0  0  0  0  0  0
    5.4093   -0.9565    1.6803 C   0  0  0  0  0  0  0  0  0  0  0  0
   -3.3692   -1.0656    0.5941 C   0  0  0  0  0  0  0  0  0  0  0  0
   -4.5817   -1.2512   -0.0158 C   0  0  0  0  0  0  0  0  0  0  0  0
    7.8173   -0.8907    1.7654 C   0  0  0  0  0  0  0  0  0  0  0  0
   -5.9485   -1.4526    0.4802 C   0  0  0  0  0  0  0  0  0  0  0  0
   -6.8223   -0.1821    0.3796 C   0  0  0  0  0  0  0  0  0  0  0  0
   -8.2289   -0.3906    0.9404 C   0  0  0  0  0  0  0  0  0  0  0  0
   -9.0534    0.8847    0.8658 C   0  0  0  0  0  0  0  0  0  0  0  0
    0.8164    0.8125   -1.9507 H   0  0  0  0  0  0  0  0  0  0  0  0
   -1.3124    1.2825   -1.1187 H   0  0  0  0  0  0  0  0  0  0  0  0
    0.4548    3.1064   -1.4950 H   0  0  0  0  0  0  0  0  0  0  0  0
    2.1093    2.8198   -0.9937 H   0  0  0  0  0  0  0  0  0  0  0  0
   -1.9725    1.2481    1.2530 H   0  0  0  0  0  0  0  0  0  0  0  0
   -0.3276    0.8736    1.7528 H   0  0  0  0  0  0  0  0  0  0  0  0
    1.5526   -0.7820   -0.0198 H   0  0  0  0  0  0  0  0  0  0  0  0
    2.0957    0.6757    0.8327 H   0  0  0  0  0  0  0  0  0  0  0  0
    1.4223    2.7191    1.3914 H   0  0  0  0  0  0  0  0  0  0  0  0
    0.8656    4.2012    0.6336 H   0  0  0  0  0  0  0  0  0  0  0  0
   -0.5312   -1.2030   -1.2909 H   0  0  0  0  0  0  0  0  0  0  0  0
   -0.5899   -1.2254    0.4697 H   0  0  0  0  0  0  0  0  0  0  0  0
   -0.8341    3.1791    1.9392 H   0  0  0  0  0  0  0  0  0  0  0  0
    5.4746    0.1326   -2.0142 H   0  0  0  0  0  0  0  0  0  0  0  0
    5.5376   -1.5777   -1.5794 H   0  0  0  0  0  0  0  0  0  0  0  0
    4.1686   -2.3115    0.5244 H   0  0  0  0  0  0  0  0  0  0  0  0
    3.2796   -1.0662    1.3934 H   0  0  0  0  0  0  0  0  0  0  0  0
    7.5889   -0.4407   -0.8391 H   0  0  0  0  0  0  0  0  0  0  0  0
    6.6567    0.7825    0.0376 H   0  0  0  0  0  0  0  0  0  0  0  0
    5.3453    0.0712    2.0625 H   0  0  0  0  0  0  0  0  0  0  0  0
    5.3921   -1.6314    2.5444 H   0  0  0  0  0  0  0  0  0  0  0  0
   -3.1678   -1.0309    1.6546 H   0  0  0  0  0  0  0  0  0  0  0  0
    7.8259   -1.5713    2.6240 H   0  0  0  0  0  0  0  0  0  0  0  0
    7.8389    0.1388    2.1409 H   0  0  0  0  0  0  0  0  0  0  0  0
    8.7437   -1.0748    1.2101 H   0  0  0  0  0  0  0  0  0  0  0  0
   -6.4262   -2.2645   -0.0819 H   0  0  0  0  0  0  0  0  0  0  0  0
   -5.9121   -1.7796    1.5268 H   0  0  0  0  0  0  0  0  0  0  0  0
   -6.8883    0.1326   -0.6699 H   0  0  0  0  0  0  0  0  0  0  0  0
   -6.3309    0.6366    0.9213 H   0  0  0  0  0  0  0  0  0  0  0  0
   -8.7370   -1.1842    0.3807 H   0  0  0  0  0  0  0  0  0  0  0  0
   -8.1673   -0.7179    1.9846 H   0  0  0  0  0  0  0  0  0  0  0  0
   -8.5868    1.6882    1.4448 H   0  0  0  0  0  0  0  0  0  0  0  0
  -10.0555    0.7123    1.2707 H   0  0  0  0  0  0  0  0  0  0  0  0
   -9.1588    1.2235   -0.1698 H   0  0  0  0  0  0  0  0  0  0  0  0
  1 14  2  0  0  0  0
  2  6  1  0  0  0  0
  2 21  1  0  0  0  0
  3 10  1  0  0  0  0
  3 12  1  0  0  0  0
  3 39  1  0  0  0  0
  4 14  1  0  0  0  0
  4 16  1  0  0  0  0
  4 17  1  0  0  0  0
  5 18  1  0  0  0  0
  5 19  1  0  0  0  0
  5 22  1  0  0  0  0
  6 15  2  0  0  0  0
  7  8  1  0  0  0  0
  7  9  1  0  0  0  0
  7 11  1  0  0  0  0
  7 27  1  0  0  0  0
  8 10  1  0  0  0  0
  8 13  1  0  0  0  0
  8 28  1  0  0  0  0
  9 12  1  0  0  0  0
  9 29  1  0  0  0  0
  9 30  1  0  0  0  0
 10 31  1  0  0  0  0
 10 32  1  0  0  0  0
 11 14  1  0  0  0  0
 11 33  1  0  0  0  0
 11 34  1  0  0  0  0
 12 35  1  0  0  0  0
 12 36  1  0  0  0  0
 13 15  1  0  0  0  0
 13 37  1  0  0  0  0
 13 38  1  0  0  0  0
 15 20  1  0  0  0  0
 16 18  1  0  0  0  0
 16 40  1  0  0  0  0
 16 41  1  0  0  0  0
 17 19  1  0  0  0  0
 17 42  1  0  0  0  0
 17 43  1  0  0  0  0
 18 44  1  0  0  0  0
 18 45  1  0  0  0  0
 19 46  1  0  0  0  0
 19 47  1  0  0  0  0
 20 21  2  0  0  0  0
 20 48  1  0  0  0  0
 21 23  1  0  0  0  0
 22 49  1  0  0  0  0
 22 50  1  0  0  0  0
 22 51  1  0  0  0  0
 23 24  1  0  0  0  0
 23 52  1  0  0  0  0
 23 53  1  0  0  0  0
 24 25  1  0  0  0  0
 24 54  1  0  0  0  0
 24 55  1  0  0  0  0
 25 26  1  0  0  0  0
 25 56  1  0  0  0  0
 25 57  1  0  0  0  0
 26 58  1  0  0  0  0
 26 59  1  0  0  0  0
 26 60  1  0  0  0  0
M  END
> <PUBCHEM_COMPOUND_CID>
26742981

> <PUBCHEM_CONFORMER_RMSD>
1.4

> <PUBCHEM_CONFORMER_DIVERSEORDER>
1
35
60
5
56
44
67
37
65
10
8
50
59
34
41
46
55
39
18
42
29
20
70
2
9
32
33
62
68
47
12
23
49
11
71
51
24
21
38
4
31
3
36
14
13
52
19
61
43
6
66
53
45
27
28
26
58
54
64
63
30
40
48
22
16
57
15
69
7
25
17
72

> <PUBCHEM_MMFF94_PARTIAL_CHARGES>
22
1 -0.57
10 0.27
11 0.06
12 0.27
13 0.18
14 0.57
15 0.11
16 0.3
17 0.3
18 0.27
19 0.27
2 -0.02
20 -0.15
21 -0.04
22 0.27
23 0.18
3 -0.9
39 0.36
4 -0.66
48 0.15
5 -0.81
6 -0.41

> <PUBCHEM_EFFECTIVE_ROTOR_COUNT>
10.4

> <PUBCHEM_PHARMACOPHORE_FEATURES>
9
1 1 acceptor
1 26 hydrophobe
1 3 cation
1 3 donor
1 5 cation
1 6 acceptor
5 2 6 15 20 21 rings
6 3 7 8 9 10 12 rings
6 4 5 16 17 18 19 rings

> <PUBCHEM_HEAVY_ATOM_COUNT>
26

> <PUBCHEM_ATOM_DEF_STEREO_COUNT>
2

> <PUBCHEM_ATOM_UDEF_STEREO_COUNT>
0

> <PUBCHEM_BOND_DEF_STEREO_COUNT>
0

> <PUBCHEM_BOND_UDEF_STEREO_COUNT>
0

> <PUBCHEM_ISOTOPIC_ATOM_COUNT>
0

> <PUBCHEM_COMPONENT_COUNT>
1

> <PUBCHEM_CACTVS_TAUTO_COUNT>
1

> <PUBCHEM_CONFORMER_ID>
019810C500000001

> <PUBCHEM_MMFF94_ENERGY>
30.9173

> <PUBCHEM_FEATURE_SELFOVERLAP>
45.671

> <PUBCHEM_SHAPE_FINGERPRINT>
10299344 5 17530687619487110547
10429389 143 14189298128427097715
10674148 151 16225761913579155645
10753850 27 18040995137934369938
11265709 11 18413387648671964884
12166972 35 17894629271274107524
12516196 113 18341893013240514470
12592606 108 18409729591167668931
12838862 33 17917985050068772311
13673619 4 17240760692461350807
13685833 64 17603585235633605134
13782708 43 17823420577480607603
14028597 1 18260830341709104875
14123256 10 8070027753643816755
14251764 18 18333734624182996799
14257110 125 8935004762915542936
14429380 56 13398623931645320899
15131766 46 14691135129532372226
15183329 4 13695860407866933066
15301273 46 16988569000427577764
15419008 145 18410578341446457681
15849732 13 17632860828588485959
17134984 74 15213012735840312978
19301679 30 18266460914779984458
19841028 212 17531240605243396626
20105231 36 13984666954235000673
20567600 234 14620794920558083755
20832881 197 18409171047454450585
21095086 128 16298390184765141139
21150785 3 8214141858997738499
21344244 181 14923945643465448089
21344244 246 13118545313596733312
21403212 168 12967128307312512370
21781051 124 12396301465158912113
21792934 111 18201716249634468873
21859007 373 17775004549524653553
22224240 67 15841551877193105446
23559900 14 17532372152356369173
23845131 108 16909773383981002064
2838139 119 18272937129622142341
3004659 81 18261682540530068270
335352 9 18271813445411684949
3411729 13 17843961679570277880
3472631 163 9294994792036586970
4098825 35 16950280698001775541
439807 62 17022620870765207418
5047190 69 17203051773367567385
5104073 3 17915188038596070651
5207 217 8430315723680345879
5219985 9 18407757049494313740
57035037 87 15769779031492885083
57527293 21 17345734379591513542
58260988 647 16443343122531906650
6081469 158 17060348387811376494

> <PUBCHEM_SHAPE_MULTIPOLES>
503.41
22.91
2.25
1.52
18.94
2.16
0.1
-10.63
-9.32
-0.08
-0.5
-1.45
-0.07
-1.83

> <PUBCHEM_SHAPE_SELFOVERLAP>
1022.07

> <PUBCHEM_SHAPE_VOLUME>
292.2

> <PUBCHEM_COORDINATE_TYPE>
2
5
10

$$$$
