75536608
  -OEChem-12032416383D

 43 45  0     1  0  0  0  0  0999 V2000
    6.6162   -0.6986    0.8168 S   0  0  0  0  0  0  0  0  0  0  0  0
    0.5402    0.9055    0.0593 O   0  0  0  0  0  0  0  0  0  0  0  0
   -0.5466   -2.4972   -0.3224 O   0  0  0  0  0  0  0  0  0  0  0  0
    4.0429   -1.8751   -0.0172 O   0  0  0  0  0  0  0  0  0  0  0  0
   -2.8587   -0.3834   -0.0735 N   0  0  0  0  0  0  0  0  0  0  0  0
    3.0817    0.0178   -0.9531 N   0  0  0  0  0  0  0  0  0  0  0  0
   -5.7256    0.9924   -0.2462 N   0  0  0  0  0  0  0  0  0  0  0  0
   -6.0772   -0.8538    0.9368 N   0  0  0  0  0  0  0  0  0  0  0  0
   -1.4658   -0.3348    0.3404 C   0  0  1  0  0  0  0  0  0  0  0  0
   -0.5316   -1.1055   -0.5740 C   0  0  1  0  0  0  0  0  0  0  0  0
    0.8098   -0.4787   -0.2183 C   0  0  1  0  0  0  0  0  0  0  0  0
   -0.8746    1.0633    0.2653 C   0  0  0  0  0  0  0  0  0  0  0  0
    1.8375   -0.5885   -1.3305 C   0  0  0  0  0  0  0  0  0  0  0  0
   -3.7402    0.0719    0.9949 C   0  0  0  0  0  0  0  0  0  0  0  0
   -5.1867    0.0442    0.5783 C   0  0  0  0  0  0  0  0  0  0  0  0
    4.1001   -0.6855   -0.3168 C   0  0  0  0  0  0  0  0  0  0  0  0
   -7.0435    0.6790   -0.4246 C   0  0  0  0  0  0  0  0  0  0  0  0
   -5.0433    2.1230   -0.8302 C   0  0  0  0  0  0  0  0  0  0  0  0
   -7.2370   -0.4638    0.3151 C   0  0  0  0  0  0  0  0  0  0  0  0
    5.3165    0.0930    0.0316 C   0  0  0  0  0  0  0  0  0  0  0  0
    5.5809    1.4269   -0.1887 C   0  0  0  0  0  0  0  0  0  0  0  0
    6.8676    1.8039    0.2932 C   0  0  0  0  0  0  0  0  0  0  0  0
    7.5375    0.7440    0.8636 C   0  0  0  0  0  0  0  0  0  0  0  0
   -1.3579   -0.7402    1.3565 H   0  0  0  0  0  0  0  0  0  0  0  0
   -0.7812   -0.9340   -1.6285 H   0  0  0  0  0  0  0  0  0  0  0  0
    1.2146   -0.9232    0.7005 H   0  0  0  0  0  0  0  0  0  0  0  0
   -1.2630    1.6347   -0.5858 H   0  0  0  0  0  0  0  0  0  0  0  0
   -1.0452    1.6441    1.1767 H   0  0  0  0  0  0  0  0  0  0  0  0
    1.4953   -0.0557   -2.2246 H   0  0  0  0  0  0  0  0  0  0  0  0
    2.0095   -1.6371   -1.5960 H   0  0  0  0  0  0  0  0  0  0  0  0
   -3.1021   -1.3441   -0.3162 H   0  0  0  0  0  0  0  0  0  0  0  0
   -3.4824    1.0878    1.3161 H   0  0  0  0  0  0  0  0  0  0  0  0
   -3.6320   -0.5773    1.8733 H   0  0  0  0  0  0  0  0  0  0  0  0
   -0.3259   -2.6412    0.6134 H   0  0  0  0  0  0  0  0  0  0  0  0
    3.1934    1.0049   -1.1575 H   0  0  0  0  0  0  0  0  0  0  0  0
   -7.7083    1.2708   -1.0385 H   0  0  0  0  0  0  0  0  0  0  0  0
   -5.7569    2.7205   -1.4037 H   0  0  0  0  0  0  0  0  0  0  0  0
   -4.2584    1.7537   -1.4942 H   0  0  0  0  0  0  0  0  0  0  0  0
   -4.6215    2.7318   -0.0269 H   0  0  0  0  0  0  0  0  0  0  0  0
   -8.1522   -1.0256    0.4315 H   0  0  0  0  0  0  0  0  0  0  0  0
    4.9030    2.1199   -0.6692 H   0  0  0  0  0  0  0  0  0  0  0  0
    7.2810    2.8017    0.2251 H   0  0  0  0  0  0  0  0  0  0  0  0
    8.5238    0.7478    1.3057 H   0  0  0  0  0  0  0  0  0  0  0  0
  1 20  1  0  0  0  0
  1 23  1  0  0  0  0
  2 11  1  0  0  0  0
  2 12  1  0  0  0  0
  3 10  1  0  0  0  0
  3 34  1  0  0  0  0
  4 16  2  0  0  0  0
  5  9  1  0  0  0  0
  5 14  1  0  0  0  0
  5 31  1  0  0  0  0
  6 13  1  0  0  0  0
  6 16  1  0  0  0  0
  6 35  1  0  0  0  0
  7 15  1  0  0  0  0
  7 17  1  0  0  0  0
  7 18  1  0  0  0  0
  8 15  2  0  0  0  0
  8 19  1  0  0  0  0
  9 10  1  0  0  0  0
  9 12  1  0  0  0  0
  9 24  1  0  0  0  0
 10 11  1  0  0  0  0
 10 25  1  0  0  0  0
 11 13  1  0  0  0  0
 11 26  1  0  0  0  0
 12 27  1  0  0  0  0
 12 28  1  0  0  0  0
 13 29  1  0  0  0  0
 13 30  1  0  0  0  0
 14 15  1  0  0  0  0
 14 32  1  0  0  0  0
 14 33  1  0  0  0  0
 16 20  1  0  0  0  0
 17 19  2  0  0  0  0
 17 36  1  0  0  0  0
 18 37  1  0  0  0  0
 18 38  1  0  0  0  0
 18 39  1  0  0  0  0
 19 40  1  0  0  0  0
 20 21  2  0  0  0  0
 21 22  1  0  0  0  0
 21 41  1  0  0  0  0
 22 23  2  0  0  0  0
 22 42  1  0  0  0  0
 23 43  1  0  0  0  0
M  END
> <PUBCHEM_COMPOUND_CID>
75536608

> <PUBCHEM_CONFORMER_RMSD>
1

> <PUBCHEM_CONFORMER_DIVERSEORDER>
1
134
19
27
142
130
77
175
28
181
166
122
31
189
129
90
156
33
135
153
183
6
92
36
68
196
101
23
107
136
125
118
91
96
132
53
41
193
172
39
144
105
133
151
35
147
163
94
98
20
93
52
191
149
7
116
157
137
80
120
174
192
38
123
159
164
82
169
165
106
117
58
188
84
87
121
179
63
194
29
109
178
138
186
145
131
51
2
88
110
197
168
112
148
40
60
8
71
128
43
18
22
62
79
184
173
78
195
32
10
154
34
102
182
86
46
161
75
50
54
59
64
162
65
85
42
167
180
185
73
100
11
111
26
158
141
114
30
146
95
74
103
119
171
127
56
99
104
57
89
72
15
97
190
70
152
44
176
69
126
108
160
3
113
37
24
25
48
4
177
61
155
47
49
81
83
16
199
140
14
5
45
198
67
66
150
143
55
12
9
13
21
139
76
115
124
187
170
17

> <PUBCHEM_MMFF94_PARTIAL_CHARGES>
31
1 -0.08
10 0.28
11 0.28
12 0.28
13 0.3
14 0.45
15 0.01
16 0.71
17 -0.3
18 0.26
19 0.08
2 -0.56
20 -0.05
21 -0.15
22 -0.15
23 -0.11
3 -0.68
31 0.36
34 0.4
35 0.37
36 0.15
4 -0.57
40 0.15
41 0.15
42 0.15
43 0.15
5 -0.9
6 -0.73
7 0.05
8 -0.57
9 0.27

> <PUBCHEM_EFFECTIVE_ROTOR_COUNT>
8

> <PUBCHEM_PHARMACOPHORE_FEATURES>
11
1 2 acceptor
1 3 acceptor
1 3 donor
1 4 acceptor
1 5 cation
1 5 donor
1 6 donor
3 7 8 15 cation
5 1 20 21 22 23 rings
5 2 9 10 11 12 rings
5 7 8 15 17 19 rings

> <PUBCHEM_HEAVY_ATOM_COUNT>
23

> <PUBCHEM_ATOM_DEF_STEREO_COUNT>
3

> <PUBCHEM_ATOM_UDEF_STEREO_COUNT>
0

> <PUBCHEM_BOND_DEF_STEREO_COUNT>
0

> <PUBCHEM_BOND_UDEF_STEREO_COUNT>
0

> <PUBCHEM_ISOTOPIC_ATOM_COUNT>
0

> <PUBCHEM_COMPONENT_COUNT>
1

> <PUBCHEM_CACTVS_TAUTO_COUNT>
2

> <PUBCHEM_CONFORMER_ID>
048098E000000001

> <PUBCHEM_MMFF94_ENERGY>
31.7366

> <PUBCHEM_FEATURE_SELFOVERLAP>
55.823

> <PUBCHEM_SHAPE_FINGERPRINT>
10 15 18335140912207605010
10299344 5 7925914785353941921
10835480 77 18337950083145075333
11315181 36 17988926670328221273
11524674 6 14129063625313454409
11638347 137 18186239511630724210
125118 31 18334579027454241156
13073987 5 18335422309922481097
13403585 85 18260266339504818445
13533116 47 17749387006481237986
13673619 4 12540690431914713150
13914758 101 16588021286394726013
14123256 10 16845855693581895168
14251764 18 16515408477823671220
14856354 85 11815893471092022433
15183329 4 17203609297943440472
15849732 13 18334295378912147446
18006028 8 13406793332851318238
19489759 90 17603590712413057865
20157964 124 18131072615419092542
20281389 69 18409448089903819524
21150785 3 17131830984475694549
21315763 28 18260547818454470048
220451 1 14045743695017036477
221357 26 10519991457213776818
22224240 67 17846495946054506966
23035841 295 10231756682503474237
23081809 10 16128381419780974623
23559900 14 17275096284058937083
28498 318 12252175277502278442
300161 21 18343582949637989542
34797466 226 13758355587816852024
4325135 7 14764628612240518809
4340502 62 17748826311111372634
5207 217 16917349242528921111
5758199 1 16558756710901059759
6438161 24 10807948033738007212

> <PUBCHEM_SHAPE_MULTIPOLES>
439.65
23.33
1.72
0.96
0.42
0.02
0.03
6.78
-4.73
-0.59
0.22
-0.05
-0.03
0.92

> <PUBCHEM_SHAPE_SELFOVERLAP>
912.904

> <PUBCHEM_SHAPE_VOLUME>
253.6

> <PUBCHEM_COORDINATE_TYPE>
2
5
10

$$$$
