45783615
  -OEChem-12032416263D

 52 55  0     1  0  0  0  0  0999 V2000
   -1.3332    1.2975    2.3306 O   0  0  0  0  0  0  0  0  0  0  0  0
    1.2752   -3.7264   -2.5809 O   0  0  0  0  0  0  0  0  0  0  0  0
    3.2743   -2.2250   -1.6196 O   0  0  0  0  0  0  0  0  0  0  0  0
   -3.1615   -0.8847    0.2705 N   0  0  1  0  0  0  0  0  0  0  0  0
   -0.2927   -0.5006    1.4932 N   0  0  0  0  0  0  0  0  0  0  0  0
    0.0363    1.5894    2.3636 N   0  0  0  0  0  0  0  0  0  0  0  0
    1.7508   -1.1141   -0.2092 N   0  0  0  0  0  0  0  0  0  0  0  0
    3.9120   -0.5902    0.5524 N   0  0  0  0  0  0  0  0  0  0  0  0
    4.2199    0.8518    2.4584 N   0  0  0  0  0  0  0  0  0  0  0  0
    1.4564    4.2651   -2.7541 N   0  0  0  0  0  0  0  0  0  0  0  0
   -2.8409   -0.5059    1.6612 C   0  0  1  0  0  0  0  0  0  0  0  0
   -3.0570   -1.7938    2.4771 C   0  0  0  0  0  0  0  0  0  0  0  0
   -3.5560   -2.8224    1.4721 C   0  0  0  0  0  0  0  0  0  0  0  0
   -4.1304   -1.9778    0.3527 C   0  0  0  0  0  0  0  0  0  0  0  0
   -3.6575    0.2286   -0.5283 C   0  0  0  0  0  0  0  0  0  0  0  0
   -1.4392    0.0489    1.8051 C   0  0  0  0  0  0  0  0  0  0  0  0
   -2.5392    1.1114   -1.0151 C   0  0  0  0  0  0  0  0  0  0  0  0
   -2.5216    2.4647   -0.6776 C   0  0  0  0  0  0  0  0  0  0  0  0
   -1.5208    0.5759   -1.8037 C   0  0  0  0  0  0  0  0  0  0  0  0
    0.5830    0.4817    1.8538 C   0  0  0  0  0  0  0  0  0  0  0  0
   -1.4855    3.2824   -1.1285 C   0  0  0  0  0  0  0  0  0  0  0  0
   -0.4848    1.3937   -2.2547 C   0  0  0  0  0  0  0  0  0  0  0  0
    1.9997    0.3242    1.6929 C   0  0  0  0  0  0  0  0  0  0  0  0
   -0.4670    2.7469   -1.9170 C   0  0  0  0  0  0  0  0  0  0  0  0
    2.5793   -0.4429    0.7029 C   0  0  0  0  0  0  0  0  0  0  0  0
    2.8778    0.9549    2.5505 C   0  0  0  0  0  0  0  0  0  0  0  0
    0.5944    3.5847   -2.3790 C   0  0  0  0  0  0  0  0  0  0  0  0
    4.6624    0.0750    1.4513 C   0  0  0  0  0  0  0  0  0  0  0  0
    2.1337   -1.9326   -1.2736 C   0  0  0  0  0  0  0  0  0  0  0  0
    0.9398   -2.4682   -2.0336 C   0  0  0  0  0  0  0  0  0  0  0  0
    0.1923   -4.2921   -3.3133 C   0  0  0  0  0  0  0  0  0  0  0  0
   -3.5552    0.2410    2.0356 H   0  0  0  0  0  0  0  0  0  0  0  0
   -2.1577   -2.1537    2.9884 H   0  0  0  0  0  0  0  0  0  0  0  0
   -3.8285   -1.6223    3.2378 H   0  0  0  0  0  0  0  0  0  0  0  0
   -4.2948   -3.5018    1.9071 H   0  0  0  0  0  0  0  0  0  0  0  0
   -2.7144   -3.4229    1.1048 H   0  0  0  0  0  0  0  0  0  0  0  0
   -5.1305   -1.6161    0.6237 H   0  0  0  0  0  0  0  0  0  0  0  0
   -4.1964   -2.5416   -0.5829 H   0  0  0  0  0  0  0  0  0  0  0  0
   -4.1569   -0.1529   -1.4302 H   0  0  0  0  0  0  0  0  0  0  0  0
   -4.4218    0.8055    0.0087 H   0  0  0  0  0  0  0  0  0  0  0  0
   -3.3071    2.8948   -0.0621 H   0  0  0  0  0  0  0  0  0  0  0  0
   -1.5260   -0.4749   -2.0801 H   0  0  0  0  0  0  0  0  0  0  0  0
   -1.4849    4.3351   -0.8561 H   0  0  0  0  0  0  0  0  0  0  0  0
    0.3019    0.9617   -2.8687 H   0  0  0  0  0  0  0  0  0  0  0  0
    2.5403    1.5797    3.3722 H   0  0  0  0  0  0  0  0  0  0  0  0
    0.7511   -0.9789   -0.0910 H   0  0  0  0  0  0  0  0  0  0  0  0
    5.7363   -0.0257    1.3537 H   0  0  0  0  0  0  0  0  0  0  0  0
    0.6993   -1.7583   -2.8322 H   0  0  0  0  0  0  0  0  0  0  0  0
    0.0784   -2.5756   -1.3649 H   0  0  0  0  0  0  0  0  0  0  0  0
   -0.6686   -4.4544   -2.6576 H   0  0  0  0  0  0  0  0  0  0  0  0
   -0.0857   -3.6409   -4.1476 H   0  0  0  0  0  0  0  0  0  0  0  0
    0.5150   -5.2568   -3.7136 H   0  0  0  0  0  0  0  0  0  0  0  0
  1  6  1  0  0  0  0
  1 16  1  0  0  0  0
  2 30  1  0  0  0  0
  2 31  1  0  0  0  0
  3 29  2  0  0  0  0
  4 11  1  0  0  0  0
  4 14  1  0  0  0  0
  4 15  1  0  0  0  0
  5 16  2  0  0  0  0
  5 20  1  0  0  0  0
  6 20  2  0  0  0  0
  7 25  1  0  0  0  0
  7 29  1  0  0  0  0
  7 46  1  0  0  0  0
  8 25  2  0  0  0  0
  8 28  1  0  0  0  0
  9 26  1  0  0  0  0
  9 28  2  0  0  0  0
 10 27  3  0  0  0  0
 11 12  1  0  0  0  0
 11 16  1  0  0  0  0
 11 32  1  0  0  0  0
 12 13  1  0  0  0  0
 12 33  1  0  0  0  0
 12 34  1  0  0  0  0
 13 14  1  0  0  0  0
 13 35  1  0  0  0  0
 13 36  1  0  0  0  0
 14 37  1  0  0  0  0
 14 38  1  0  0  0  0
 15 17  1  0  0  0  0
 15 39  1  0  0  0  0
 15 40  1  0  0  0  0
 17 18  2  0  0  0  0
 17 19  1  0  0  0  0
 18 21  1  0  0  0  0
 18 41  1  0  0  0  0
 19 22  2  0  0  0  0
 19 42  1  0  0  0  0
 20 23  1  0  0  0  0
 21 24  2  0  0  0  0
 21 43  1  0  0  0  0
 22 24  1  0  0  0  0
 22 44  1  0  0  0  0
 23 25  1  0  0  0  0
 23 26  2  0  0  0  0
 24 27  1  0  0  0  0
 26 45  1  0  0  0  0
 28 47  1  0  0  0  0
 29 30  1  0  0  0  0
 30 48  1  0  0  0  0
 30 49  1  0  0  0  0
 31 50  1  0  0  0  0
 31 51  1  0  0  0  0
 31 52  1  0  0  0  0
M  END
> <PUBCHEM_COMPOUND_CID>
45783615

> <PUBCHEM_CONFORMER_RMSD>
1

> <PUBCHEM_CONFORMER_DIVERSEORDER>
1
17
81
84
62
51
69
55
36
31
32
30
70
90
39
5
56
34
67
58
10
76
3
18
64
2
60
79
33
54
8
37
35
59
23
68
9
28
65
45
74
50
19
16
73
40
41
77
48
52
85
21
78
27
46
24
42
29
89
82
66
6
71
11
4
12
57
63
26
25
22
7
15
88
44
49
83
80
38
75
61
20
43
87
14
13
53
47
72
86

> <PUBCHEM_MMFF94_PARTIAL_CHARGES>
36
1 -0.02
10 -0.56
11 0.45
14 0.27
15 0.41
16 0.3
17 -0.14
18 -0.15
19 -0.15
2 -0.56
20 0.46
21 -0.15
22 -0.15
23 0.05
24 0.07
25 0.43
26 0.16
27 0.48
28 0.47
29 0.57
3 -0.57
30 0.34
31 0.28
4 -0.81
41 0.15
42 0.15
43 0.15
44 0.15
45 0.15
46 0.37
47 0.15
5 -0.57
6 -0.41
7 -0.55
8 -0.62
9 -0.62

> <PUBCHEM_EFFECTIVE_ROTOR_COUNT>
9

> <PUBCHEM_PHARMACOPHORE_FEATURES>
11
1 10 acceptor
1 2 acceptor
1 3 acceptor
1 4 cation
1 7 donor
3 5 6 20 cation
3 8 9 28 cation
5 1 5 6 16 20 rings
5 4 11 12 13 14 rings
6 17 18 19 21 22 24 rings
6 8 9 23 25 26 28 rings

> <PUBCHEM_HEAVY_ATOM_COUNT>
31

> <PUBCHEM_ATOM_DEF_STEREO_COUNT>
1

> <PUBCHEM_ATOM_UDEF_STEREO_COUNT>
0

> <PUBCHEM_BOND_DEF_STEREO_COUNT>
0

> <PUBCHEM_BOND_UDEF_STEREO_COUNT>
0

> <PUBCHEM_ISOTOPIC_ATOM_COUNT>
0

> <PUBCHEM_COMPONENT_COUNT>
1

> <PUBCHEM_CACTVS_TAUTO_COUNT>
14

> <PUBCHEM_CONFORMER_ID>
02BA9A3F00000001

> <PUBCHEM_MMFF94_ENERGY>
64.2281

> <PUBCHEM_FEATURE_SELFOVERLAP>
55.83

> <PUBCHEM_SHAPE_FINGERPRINT>
1100329 8 17676476255881763293
11578080 2 18195823872627147224
11582403 64 16753453754412584872
12655364 131 16547285536528454716
133893 2 17389127807876756273
13583140 156 17975375193272799632
13911987 19 17845073216884670504
15664445 248 18115043986243415691
15876981 60 17312821568022967494
17818456 19 16809504628161177368
1813 80 18188507872832950427
20600515 1 17895177888710750165
20905425 154 17316208218318488989
23557571 272 18260543403127765769
35225 105 17247184000361845159
469060 322 17903882846637599190
550186 7 17971450941852537552

> <PUBCHEM_SHAPE_MULTIPOLES>
585.49
6.7
4.77
3.89
2.15
2.2
-1.24
-3.2
4.15
-0.82
-6.07
1.7
-1.84
2.11

> <PUBCHEM_SHAPE_SELFOVERLAP>
1262.138

> <PUBCHEM_SHAPE_VOLUME>
319.2

> <PUBCHEM_COORDINATE_TYPE>
2
5
10

$$$$
