56774055
  -OEChem-12032416323D

 55 57  0     1  0  0  0  0  0999 V2000
   -6.5673   -1.6274    0.1057 O   0  0  0  0  0  0  0  0  0  0  0  0
    4.4209    0.7228    0.8705 O   0  0  0  0  0  0  0  0  0  0  0  0
   -2.6255   -0.3489   -0.5686 N   0  0  0  0  0  0  0  0  0  0  0  0
    3.3408    1.5963    0.8341 N   0  0  0  0  0  0  0  0  0  0  0  0
   -1.3230    1.6694    0.0619 C   0  0  0  0  0  0  0  0  0  0  0  0
    0.1185    1.2709    0.4416 C   0  0  1  0  0  0  0  0  0  0  0  0
   -1.7388    0.2334    0.4430 C   0  0  2  0  0  0  0  0  0  0  0  0
   -0.2861   -0.1866    0.1366 C   0  0  0  0  0  0  0  0  0  0  0  0
    1.2334    1.8092   -0.4257 C   0  0  0  0  0  0  0  0  0  0  0  0
   -1.4820    2.0859   -1.3848 C   0  0  0  0  0  0  0  0  0  0  0  0
   -1.9748    2.7101    0.9563 C   0  0  0  0  0  0  0  0  0  0  0  0
   -3.9983   -0.3395   -0.0690 C   0  0  0  0  0  0  0  0  0  0  0  0
    2.5311    1.1056   -0.1086 C   0  0  0  0  0  0  0  0  0  0  0  0
   -4.2570   -1.5338    0.8547 C   0  0  0  0  0  0  0  0  0  0  0  0
   -4.9898   -0.3551   -1.2360 C   0  0  0  0  0  0  0  0  0  0  0  0
   -5.7265   -1.5828    1.2587 C   0  0  0  0  0  0  0  0  0  0  0  0
   -6.4186   -0.4695   -0.7162 C   0  0  0  0  0  0  0  0  0  0  0  0
    3.0429   -0.0646   -0.6955 C   0  0  0  0  0  0  0  0  0  0  0  0
    4.2320   -0.2619   -0.0447 C   0  0  0  0  0  0  0  0  0  0  0  0
    5.2861   -1.2789   -0.1402 C   0  0  0  0  0  0  0  0  0  0  0  0
    6.5111   -1.1038    0.8343 C   0  0  0  0  0  0  0  0  0  0  0  0
    4.7446   -2.7197    0.1636 C   0  0  0  0  0  0  0  0  0  0  0  0
    5.9264   -1.3311   -1.5716 C   0  0  0  0  0  0  0  0  0  0  0  0
    0.3267    1.4238    1.5118 H   0  0  0  0  0  0  0  0  0  0  0  0
   -2.0014    0.0698    1.4953 H   0  0  0  0  0  0  0  0  0  0  0  0
   -0.0910   -0.5120   -0.8934 H   0  0  0  0  0  0  0  0  0  0  0  0
    0.1312   -0.9375    0.8151 H   0  0  0  0  0  0  0  0  0  0  0  0
    1.3527    2.8873   -0.2616 H   0  0  0  0  0  0  0  0  0  0  0  0
    1.0459    1.6709   -1.4961 H   0  0  0  0  0  0  0  0  0  0  0  0
   -2.5392    2.2279   -1.6409 H   0  0  0  0  0  0  0  0  0  0  0  0
   -1.0838    1.3527   -2.0949 H   0  0  0  0  0  0  0  0  0  0  0  0
   -0.9847    3.0427   -1.5829 H   0  0  0  0  0  0  0  0  0  0  0  0
   -3.0439    2.8104    0.7398 H   0  0  0  0  0  0  0  0  0  0  0  0
   -1.5107    3.6931    0.8181 H   0  0  0  0  0  0  0  0  0  0  0  0
   -1.8770    2.4521    2.0169 H   0  0  0  0  0  0  0  0  0  0  0  0
   -2.3758   -1.2956   -0.8536 H   0  0  0  0  0  0  0  0  0  0  0  0
   -4.1877    0.5867    0.4913 H   0  0  0  0  0  0  0  0  0  0  0  0
   -3.6345   -1.4916    1.7546 H   0  0  0  0  0  0  0  0  0  0  0  0
   -4.0093   -2.4645    0.3270 H   0  0  0  0  0  0  0  0  0  0  0  0
   -4.7795   -1.2176   -1.8822 H   0  0  0  0  0  0  0  0  0  0  0  0
   -4.8849    0.5487   -1.8472 H   0  0  0  0  0  0  0  0  0  0  0  0
   -5.9205   -2.4852    1.8471 H   0  0  0  0  0  0  0  0  0  0  0  0
   -5.9997   -0.7194    1.8767 H   0  0  0  0  0  0  0  0  0  0  0  0
   -6.7093    0.4215   -0.1474 H   0  0  0  0  0  0  0  0  0  0  0  0
   -7.1133   -0.5662   -1.5566 H   0  0  0  0  0  0  0  0  0  0  0  0
    2.6123   -0.6745   -1.4759 H   0  0  0  0  0  0  0  0  0  0  0  0
    6.1786   -1.1189    1.8787 H   0  0  0  0  0  0  0  0  0  0  0  0
    7.0094   -0.1432    0.6592 H   0  0  0  0  0  0  0  0  0  0  0  0
    7.2528   -1.8996    0.7028 H   0  0  0  0  0  0  0  0  0  0  0  0
    3.9452   -2.9917   -0.5354 H   0  0  0  0  0  0  0  0  0  0  0  0
    4.3289   -2.7707    1.1767 H   0  0  0  0  0  0  0  0  0  0  0  0
    5.5340   -3.4749    0.0794 H   0  0  0  0  0  0  0  0  0  0  0  0
    6.3763   -0.3653   -1.8294 H   0  0  0  0  0  0  0  0  0  0  0  0
    5.1679   -1.5553   -2.3306 H   0  0  0  0  0  0  0  0  0  0  0  0
    6.7045   -2.0997   -1.6391 H   0  0  0  0  0  0  0  0  0  0  0  0
  1 16  1  0  0  0  0
  1 17  1  0  0  0  0
  2  4  1  0  0  0  0
  2 19  1  0  0  0  0
  3  7  1  0  0  0  0
  3 12  1  0  0  0  0
  3 36  1  0  0  0  0
  4 13  2  0  0  0  0
  5  6  1  0  0  0  0
  5  7  1  0  0  0  0
  5 10  1  0  0  0  0
  5 11  1  0  0  0  0
  6  8  1  0  0  0  0
  6  9  1  0  0  0  0
  6 24  1  0  0  0  0
  7  8  1  0  0  0  0
  7 25  1  0  0  0  0
  8 26  1  0  0  0  0
  8 27  1  0  0  0  0
  9 13  1  0  0  0  0
  9 28  1  0  0  0  0
  9 29  1  0  0  0  0
 10 30  1  0  0  0  0
 10 31  1  0  0  0  0
 10 32  1  0  0  0  0
 11 33  1  0  0  0  0
 11 34  1  0  0  0  0
 11 35  1  0  0  0  0
 12 14  1  0  0  0  0
 12 15  1  0  0  0  0
 12 37  1  0  0  0  0
 13 18  1  0  0  0  0
 14 16  1  0  0  0  0
 14 38  1  0  0  0  0
 14 39  1  0  0  0  0
 15 17  1  0  0  0  0
 15 40  1  0  0  0  0
 15 41  1  0  0  0  0
 16 42  1  0  0  0  0
 16 43  1  0  0  0  0
 17 44  1  0  0  0  0
 17 45  1  0  0  0  0
 18 19  2  0  0  0  0
 18 46  1  0  0  0  0
 19 20  1  0  0  0  0
 20 21  1  0  0  0  0
 20 22  1  0  0  0  0
 20 23  1  0  0  0  0
 21 47  1  0  0  0  0
 21 48  1  0  0  0  0
 21 49  1  0  0  0  0
 22 50  1  0  0  0  0
 22 51  1  0  0  0  0
 22 52  1  0  0  0  0
 23 53  1  0  0  0  0
 23 54  1  0  0  0  0
 23 55  1  0  0  0  0
M  END
> <PUBCHEM_COMPOUND_CID>
56774055

> <PUBCHEM_CONFORMER_RMSD>
0.8

> <PUBCHEM_CONFORMER_DIVERSEORDER>
1
21
108
49
37
91
15
90
62
51
56
58
66
13
19
47
84
48
33
101
80
82
105
107
24
81
35
61
93
34
92
25
39
83
9
89
6
100
4
63
86
70
10
12
67
53
32
54
78
88
102
64
46
68
43
28
87
44
74
95
40
71
60
5
65
14
27
29
96
98
7
41
85
69
3
106
26
16
57
36
73
76
59
55
72
50
2
75
104
94
20
99
52
22
17
97
30
79
31
42
103
77
18
8
109
45
23
38
11

> <PUBCHEM_MMFF94_PARTIAL_CHARGES>
15
1 -0.56
12 0.27
13 0.11
16 0.28
17 0.28
18 -0.15
19 -0.04
2 -0.02
20 0.18
3 -0.84
36 0.36
4 -0.41
46 0.15
7 0.21
9 0.18

> <PUBCHEM_EFFECTIVE_ROTOR_COUNT>
7

> <PUBCHEM_PHARMACOPHORE_FEATURES>
9
1 1 acceptor
1 3 cation
1 3 donor
1 4 acceptor
3 5 10 11 hydrophobe
4 20 21 22 23 hydrophobe
4 5 6 7 8 rings
5 2 4 13 18 19 rings
6 1 12 14 15 16 17 rings

> <PUBCHEM_HEAVY_ATOM_COUNT>
23

> <PUBCHEM_ATOM_DEF_STEREO_COUNT>
2

> <PUBCHEM_ATOM_UDEF_STEREO_COUNT>
0

> <PUBCHEM_BOND_DEF_STEREO_COUNT>
0

> <PUBCHEM_BOND_UDEF_STEREO_COUNT>
0

> <PUBCHEM_ISOTOPIC_ATOM_COUNT>
0

> <PUBCHEM_COMPONENT_COUNT>
1

> <PUBCHEM_CACTVS_TAUTO_COUNT>
1

> <PUBCHEM_CONFORMER_ID>
03624DA700000001

> <PUBCHEM_MMFF94_ENERGY>
48.3085

> <PUBCHEM_FEATURE_SELFOVERLAP>
45.671

> <PUBCHEM_SHAPE_FINGERPRINT>
10014705 185 9007051366158709464
10498660 4 11169921576205033068
10753850 27 18335137596223872747
11796584 16 17822001064723427267
11809386 21 18115864109963366968
12166972 35 17821453477456690636
12403259 118 13758358890646637939
12422481 6 17275110504917226447
12596602 18 14476962280837363518
12633257 1 16487253308934839070
12760667 363 18342175562043347595
13533116 47 18272932764869753056
13685833 64 18410855464887456786
13862211 1 18343300401167303231
13955234 65 18199746028462486440
14123256 34 18342466928108519966
14216079 64 18410573985747952863
14251764 30 18335138739286865351
14347332 77 18335417924623845284
15183329 4 16370719327461472855
15188451 53 18410285887862677994
17492 89 18198343944999701382
17857418 61 18411980230785945610
18222031 100 17967253104899415668
193927 3 18413394220013885404
19784866 140 18333446543451516043
19784866 240 18333455343660423757
20028762 73 18060418019313820246
20281389 69 10159697988769269694
20403669 9 18341897376869460038
21033650 10 16298661673331238373
21150785 3 17168150048517259750
21267235 1 18412832382114167350
21279426 13 18335132086408800317
21315764 119 17313099705615378391
21682296 61 18410578396784867447
22061861 79 18334010618702426991
22079108 93 12319735877704711277
23198884 109 14706926228982141847
23522609 53 18052856669217646880
23559900 14 18187644768573277528
25122255 55 18334300876713340483
2871803 45 18259981570092642616
3004659 81 17749106716450795958
312423 11 18338811064989601252
3472631 163 8646764500023338354
34797466 226 16950568838941672829
4340502 62 14045750330556983629
46194498 28 17603584166650836612
463206 1 18340764956875649558
465052 167 18340774826673026983
5104073 3 18131348566914893320
5207 123 18260830405817303925
543368 44 12179846117541934543
559249 180 18411417272680342053
56616090 284 17603870004955532217
5718773 13 18263076635702393826
59682541 35 18272358790616030610
59755656 215 18113614573481915267
59755656 520 18048594824967909597
7970288 3 18339080496835932955

> <PUBCHEM_SHAPE_MULTIPOLES>
451.63
17.26
2.53
1.18
0.33
0.44
0.18
-14.06
0.56
-0.07
-0.36
0.14
0.01
0.89

> <PUBCHEM_SHAPE_SELFOVERLAP>
931.863

> <PUBCHEM_SHAPE_VOLUME>
263.6

> <PUBCHEM_COORDINATE_TYPE>
2
5
10

$$$$
