75536125
  -OEChem-12032416293D

 54 57  0     1  0  0  0  0  0999 V2000
    7.4049    3.4683    0.3689 Cl  0  0  0  0  0  0  0  0  0  0  0  0
    0.5457   -3.8200   -1.6183 O   0  0  0  0  0  0  0  0  0  0  0  0
    1.2593   -5.2360    0.6546 O   0  0  0  0  0  0  0  0  0  0  0  0
   -6.9678    2.4195   -0.1387 O   0  0  0  0  0  0  0  0  0  0  0  0
    2.5103   -1.0399   -0.3721 N   0  0  0  0  0  0  0  0  0  0  0  0
   -2.4383    0.8493    1.0604 N   0  0  0  0  0  0  0  0  0  0  0  0
   -4.5253    1.0325   -0.0402 N   0  0  0  0  0  0  0  0  0  0  0  0
    0.3703   -1.6727    0.6898 C   0  0  2  0  0  0  0  0  0  0  0  0
    1.2581   -1.7673   -0.5896 C   0  0  2  0  0  0  0  0  0  0  0  0
    1.5479   -3.2662   -0.7670 C   0  0  1  0  0  0  0  0  0  0  0  0
    0.2064   -3.1189    1.1960 C   0  0  0  0  0  0  0  0  0  0  0  0
    1.4316   -3.8336    0.6445 C   0  0  1  0  0  0  0  0  0  0  0  0
   -0.9494   -0.9631    0.4747 C   0  0  0  0  0  0  0  0  0  0  0  0
    2.3150    0.3930   -0.5421 C   0  0  0  0  0  0  0  0  0  0  0  0
   -1.8705   -1.4284   -0.4572 C   0  0  0  0  0  0  0  0  0  0  0  0
   -1.2782    0.1698    1.2015 C   0  0  0  0  0  0  0  0  0  0  0  0
   -3.0753   -0.7562   -0.6311 C   0  0  0  0  0  0  0  0  0  0  0  0
   -3.3089    0.3674    0.1453 C   0  0  0  0  0  0  0  0  0  0  0  0
    3.5885    1.1633   -0.3148 C   0  0  0  0  0  0  0  0  0  0  0  0
   -4.5664    2.4821    0.1962 C   0  0  0  0  0  0  0  0  0  0  0  0
   -5.7890    0.3253    0.1947 C   0  0  0  0  0  0  0  0  0  0  0  0
    3.9071    1.6219    0.9635 C   0  0  0  0  0  0  0  0  0  0  0  0
    4.4498    1.4182   -1.3820 C   0  0  0  0  0  0  0  0  0  0  0  0
   -5.7663    3.0874   -0.5235 C   0  0  0  0  0  0  0  0  0  0  0  0
   -6.9242    1.0461   -0.5241 C   0  0  0  0  0  0  0  0  0  0  0  0
    5.0868    2.3355    1.1745 C   0  0  0  0  0  0  0  0  0  0  0  0
    5.6296    2.1319   -1.1711 C   0  0  0  0  0  0  0  0  0  0  0  0
    5.9480    2.5906    0.1072 C   0  0  0  0  0  0  0  0  0  0  0  0
    0.9182   -1.1330    1.4765 H   0  0  0  0  0  0  0  0  0  0  0  0
    0.7525   -1.3812   -1.4837 H   0  0  0  0  0  0  0  0  0  0  0  0
    2.5181   -3.4952   -1.2200 H   0  0  0  0  0  0  0  0  0  0  0  0
    0.1709   -3.1658    2.2903 H   0  0  0  0  0  0  0  0  0  0  0  0
   -0.7130   -3.5994    0.8399 H   0  0  0  0  0  0  0  0  0  0  0  0
    2.3214   -3.5810    1.2337 H   0  0  0  0  0  0  0  0  0  0  0  0
    3.2036   -1.3571   -1.0502 H   0  0  0  0  0  0  0  0  0  0  0  0
    0.6539   -3.4170   -2.4966 H   0  0  0  0  0  0  0  0  0  0  0  0
    1.5571    0.7771    0.1504 H   0  0  0  0  0  0  0  0  0  0  0  0
    1.9436    0.6153   -1.5514 H   0  0  0  0  0  0  0  0  0  0  0  0
    1.1026   -5.5046    1.5759 H   0  0  0  0  0  0  0  0  0  0  0  0
   -1.6681   -2.3091   -1.0588 H   0  0  0  0  0  0  0  0  0  0  0  0
   -0.6028    0.5836    1.9439 H   0  0  0  0  0  0  0  0  0  0  0  0
   -3.7869   -1.1118   -1.3690 H   0  0  0  0  0  0  0  0  0  0  0  0
   -4.6491    2.6642    1.2747 H   0  0  0  0  0  0  0  0  0  0  0  0
   -3.6534    2.9681   -0.1678 H   0  0  0  0  0  0  0  0  0  0  0  0
   -5.9834    0.3109    1.2743 H   0  0  0  0  0  0  0  0  0  0  0  0
   -5.7539   -0.7129   -0.1521 H   0  0  0  0  0  0  0  0  0  0  0  0
   -5.8678    4.1440   -0.2567 H   0  0  0  0  0  0  0  0  0  0  0  0
   -5.6501    3.0294   -1.6126 H   0  0  0  0  0  0  0  0  0  0  0  0
   -6.8156    0.9759   -1.6132 H   0  0  0  0  0  0  0  0  0  0  0  0
   -7.8833    0.5914   -0.2565 H   0  0  0  0  0  0  0  0  0  0  0  0
    3.2452    1.4280    1.8034 H   0  0  0  0  0  0  0  0  0  0  0  0
    4.2137    1.0646   -2.3821 H   0  0  0  0  0  0  0  0  0  0  0  0
    5.3226    2.6861    2.1760 H   0  0  0  0  0  0  0  0  0  0  0  0
    6.2917    2.3225   -2.0118 H   0  0  0  0  0  0  0  0  0  0  0  0
  1 28  1  0  0  0  0
  2 10  1  0  0  0  0
  2 36  1  0  0  0  0
  3 12  1  0  0  0  0
  3 39  1  0  0  0  0
  4 24  1  0  0  0  0
  4 25  1  0  0  0  0
  5  9  1  0  0  0  0
  5 14  1  0  0  0  0
  5 35  1  0  0  0  0
  6 16  1  0  0  0  0
  6 18  2  0  0  0  0
  7 18  1  0  0  0  0
  7 20  1  0  0  0  0
  7 21  1  0  0  0  0
  8  9  1  0  0  0  0
  8 11  1  0  0  0  0
  8 13  1  0  0  0  0
  8 29  1  0  0  0  0
  9 10  1  0  0  0  0
  9 30  1  0  0  0  0
 10 12  1  0  0  0  0
 10 31  1  0  0  0  0
 11 12  1  0  0  0  0
 11 32  1  0  0  0  0
 11 33  1  0  0  0  0
 12 34  1  0  0  0  0
 13 15  1  0  0  0  0
 13 16  2  0  0  0  0
 14 19  1  0  0  0  0
 14 37  1  0  0  0  0
 14 38  1  0  0  0  0
 15 17  2  0  0  0  0
 15 40  1  0  0  0  0
 16 41  1  0  0  0  0
 17 18  1  0  0  0  0
 17 42  1  0  0  0  0
 19 22  2  0  0  0  0
 19 23  1  0  0  0  0
 20 24  1  0  0  0  0
 20 43  1  0  0  0  0
 20 44  1  0  0  0  0
 21 25  1  0  0  0  0
 21 45  1  0  0  0  0
 21 46  1  0  0  0  0
 22 26  1  0  0  0  0
 22 51  1  0  0  0  0
 23 27  2  0  0  0  0
 23 52  1  0  0  0  0
 24 47  1  0  0  0  0
 24 48  1  0  0  0  0
 25 49  1  0  0  0  0
 25 50  1  0  0  0  0
 26 28  2  0  0  0  0
 26 53  1  0  0  0  0
 27 28  1  0  0  0  0
 27 54  1  0  0  0  0
M  END
> <PUBCHEM_COMPOUND_CID>
75536125

> <PUBCHEM_CONFORMER_RMSD>
0.8

> <PUBCHEM_CONFORMER_DIVERSEORDER>
2
125
104
42
103
77
108
93
43
61
12
105
120
126
95
54
109
25
40
94
15
90
88
114
74
56
89
87
67
123
5
124
28
98
24
20
59
97
127
33
116
96
36
64
14
99
111
49
106
102
69
17
23
46
100
91
22
82
27
113
35
115
4
118
85
66
57
51
16
107
80
112
119
68
78
32
39
63
83
21
65
30
58
53
117
73
47
79
52
50
60
110
75
19
84
45
121
44
48
7
37
70
55
34
122
76
26
92
8
86
31
9
3
18
101
6
72
81
38
62
13
11
41
71
1
10
29

> <PUBCHEM_MMFF94_PARTIAL_CHARGES>
37
1 -0.18
10 0.28
12 0.28
13 -0.14
14 0.41
15 -0.15
16 0.16
17 -0.15
18 0.41
19 -0.14
2 -0.68
20 0.37
21 0.37
22 -0.15
23 -0.15
24 0.28
25 0.28
26 -0.15
27 -0.15
28 0.18
3 -0.68
35 0.36
36 0.4
39 0.4
4 -0.56
40 0.15
41 0.15
42 0.15
5 -0.9
51 0.15
52 0.15
53 0.15
54 0.15
6 -0.62
7 -0.84
8 0.14
9 0.27

> <PUBCHEM_EFFECTIVE_ROTOR_COUNT>
7.2

> <PUBCHEM_PHARMACOPHORE_FEATURES>
12
1 2 acceptor
1 2 donor
1 3 acceptor
1 3 donor
1 4 acceptor
1 5 cation
1 5 donor
3 6 7 18 cation
5 8 9 10 11 12 rings
6 19 22 23 26 27 28 rings
6 4 7 20 21 24 25 rings
6 6 13 15 16 17 18 rings

> <PUBCHEM_HEAVY_ATOM_COUNT>
28

> <PUBCHEM_ATOM_DEF_STEREO_COUNT>
4

> <PUBCHEM_ATOM_UDEF_STEREO_COUNT>
0

> <PUBCHEM_BOND_DEF_STEREO_COUNT>
0

> <PUBCHEM_BOND_UDEF_STEREO_COUNT>
0

> <PUBCHEM_ISOTOPIC_ATOM_COUNT>
0

> <PUBCHEM_COMPONENT_COUNT>
1

> <PUBCHEM_CACTVS_TAUTO_COUNT>
1

> <PUBCHEM_CONFORMER_ID>
048096FD00000002

> <PUBCHEM_MMFF94_ENERGY>
89.6246

> <PUBCHEM_FEATURE_SELFOVERLAP>
60.905

> <PUBCHEM_SHAPE_FINGERPRINT>
10190206 1 18127395964315330375
10369192 42 18334855060680832293
105312 117 18337392772446225166
10721379 63 18197506112332431822
11135609 127 18265604387175143109
12107183 9 18261661646168132184
12293681 160 17917998303826256032
12633257 1 16009035028754060404
12788726 201 17394459438844880490
12988421 55 18041543841338975950
13150687 139 18131358518322320182
13540713 4 18262822712381971275
13726171 33 17918002676772882131
13955234 65 18190746328004359899
14251764 30 9367358028394577228
14294032 229 18197783408327218531
14461889 52 18040726874746729907
14931854 50 17775013388050741224
15198563 99 17695623348171707071
15439362 3 18410575072664783654
15803439 3 17131838706937553406
16120349 189 18336829800897187500
17844677 252 18048322142220847809
17980427 26 18338504271296920910
20165401 70 8646182850453483257
20238998 120 17689149012070852618
20554085 129 18130494306509452080
21033648 29 18335990869361874796
21304303 282 18197208355383031774
21424621 283 18339077193984632424
23522609 53 17630617730816958033
23559900 14 18125717881964781835
23569914 2 17099423884570961261
249999 5 18335701581349256818
2748736 6 18408317808766981573
2838139 119 18342733039902810276
3246875 12 18336550508011282731
3411729 13 18334010554029770315
34797466 226 18269840805745619229
3627633 1 16897364210225140954
376196 1 18271807960395920166
4058900 60 18336838523743202376
474 4 18408889507726624530
5219985 13 18409730698772937292
5265222 85 18265616661443335720
56633871 153 11386364872028175657
57091435 61 18409449159150359077
57124632 79 18337103467348605522
59755656 520 18338791338504815926
6327066 14 18339079397424252660
6695519 79 18194433106656851107
6697151 62 17394987878757255271
67856867 119 18265610992433878763
7288768 16 18187082892424990411
77188 2 17616812137515639314
9849439 229 18335985354360070724
9896288 288 17970914599143219698
9981440 41 18335144236317568730

> <PUBCHEM_SHAPE_MULTIPOLES>
545.55
17.02
5.63
1.18
3.3
6.38
-0.05
-28.52
-1.33
-2.95
0.22
-0.86
0.26
0.64

> <PUBCHEM_SHAPE_SELFOVERLAP>
1155.011

> <PUBCHEM_SHAPE_VOLUME>
306.4

> <PUBCHEM_COORDINATE_TYPE>
2
5
10

$$$$
