51136828
  -OEChem-12032416403D

 63 67  0     1  0  0  0  0  0999 V2000
   -3.5603    1.6476    1.1956 O   0  0  0  0  0  0  0  0  0  0  0  0
    7.2749   -1.9753   -1.0925 O   0  0  0  0  0  0  0  0  0  0  0  0
   -3.5859   -1.9793    0.6042 N   0  0  1  0  0  0  0  0  0  0  0  0
    3.2471    0.7704    0.2570 N   0  0  0  0  0  0  0  0  0  0  0  0
    5.4266   -1.1205    0.0271 N   0  0  0  0  0  0  0  0  0  0  0  0
   -1.7511    0.3489    0.9569 N   0  0  0  0  0  0  0  0  0  0  0  0
   -2.4745    2.5178    1.0351 N   0  0  0  0  0  0  0  0  0  0  0  0
    2.5279    3.0185    0.3321 N   0  0  0  0  0  0  0  0  0  0  0  0
   -4.0333   -0.7485    1.2861 C   0  0  1  0  0  0  0  0  0  0  0  0
   -4.2409   -1.1675    2.7533 C   0  0  0  0  0  0  0  0  0  0  0  0
   -3.9457   -2.6604    2.7861 C   0  0  0  0  0  0  0  0  0  0  0  0
   -4.1607   -3.0981    1.3514 C   0  0  0  0  0  0  0  0  0  0  0  0
   -3.9483   -2.0185   -0.8067 C   0  0  0  0  0  0  0  0  0  0  0  0
   -3.0470    0.3909    1.1374 C   0  0  0  0  0  0  0  0  0  0  0  0
   -3.0093   -1.1972   -1.6498 C   0  0  0  0  0  0  0  0  0  0  0  0
    3.1717   -0.5357    0.9161 C   0  0  0  0  0  0  0  0  0  0  0  0
    4.4159    1.0574   -0.5795 C   0  0  0  0  0  0  0  0  0  0  0  0
    4.5708   -1.0745    1.2147 C   0  0  0  0  0  0  0  0  0  0  0  0
    5.0552   -0.2377   -1.0757 C   0  0  0  0  0  0  0  0  0  0  0  0
   -3.4820   -0.1421   -2.4300 C   0  0  0  0  0  0  0  0  0  0  0  0
   -1.4445    1.6773    0.9001 C   0  0  0  0  0  0  0  0  0  0  0  0
   -1.6488   -1.5048   -1.6429 C   0  0  0  0  0  0  0  0  0  0  0  0
    2.2211    1.7031    0.3890 C   0  0  0  0  0  0  0  0  0  0  0  0
   -0.0963    2.1323    0.7085 C   0  0  0  0  0  0  0  0  0  0  0  0
    0.9382    1.2132    0.5735 C   0  0  0  0  0  0  0  0  0  0  0  0
    6.5530   -1.9351   -0.0934 C   0  0  0  0  0  0  0  0  0  0  0  0
   -2.5941    0.6056   -3.2035 C   0  0  0  0  0  0  0  0  0  0  0  0
   -4.9342    0.2058   -2.4536 C   0  0  0  0  0  0  0  0  0  0  0  0
   -0.7609   -0.7570   -2.4163 C   0  0  0  0  0  0  0  0  0  0  0  0
    0.1798    3.4942    0.6555 C   0  0  0  0  0  0  0  0  0  0  0  0
   -1.2335    0.2982   -3.1966 C   0  0  0  0  0  0  0  0  0  0  0  0
    1.4965    3.8821    0.4673 C   0  0  0  0  0  0  0  0  0  0  0  0
    6.8723   -2.8107    1.0935 C   0  0  0  0  0  0  0  0  0  0  0  0
   -5.0066   -0.4193    0.8964 H   0  0  0  0  0  0  0  0  0  0  0  0
   -3.6022   -0.6291    3.4619 H   0  0  0  0  0  0  0  0  0  0  0  0
   -5.2847   -0.9938    3.0421 H   0  0  0  0  0  0  0  0  0  0  0  0
   -2.9035   -2.8277    3.0852 H   0  0  0  0  0  0  0  0  0  0  0  0
   -4.5915   -3.1945    3.4893 H   0  0  0  0  0  0  0  0  0  0  0  0
   -5.2323   -3.2174    1.1469 H   0  0  0  0  0  0  0  0  0  0  0  0
   -3.6499   -4.0423    1.1385 H   0  0  0  0  0  0  0  0  0  0  0  0
   -3.8490   -3.0490   -1.1784 H   0  0  0  0  0  0  0  0  0  0  0  0
   -5.0062   -1.7763   -0.9483 H   0  0  0  0  0  0  0  0  0  0  0  0
    2.6358   -1.2398    0.2673 H   0  0  0  0  0  0  0  0  0  0  0  0
    2.6326   -0.4695    1.8692 H   0  0  0  0  0  0  0  0  0  0  0  0
    5.1405    1.6373    0.0048 H   0  0  0  0  0  0  0  0  0  0  0  0
    4.1272    1.6582   -1.4504 H   0  0  0  0  0  0  0  0  0  0  0  0
    5.0776   -0.4281    1.9417 H   0  0  0  0  0  0  0  0  0  0  0  0
    4.4901   -2.0713    1.6580 H   0  0  0  0  0  0  0  0  0  0  0  0
    4.3512   -0.7955   -1.7054 H   0  0  0  0  0  0  0  0  0  0  0  0
    5.9335   -0.0115   -1.6897 H   0  0  0  0  0  0  0  0  0  0  0  0
   -1.2639   -2.3263   -1.0444 H   0  0  0  0  0  0  0  0  0  0  0  0
    0.7298    0.1483    0.5915 H   0  0  0  0  0  0  0  0  0  0  0  0
   -2.9450    1.4314   -3.8166 H   0  0  0  0  0  0  0  0  0  0  0  0
   -5.1298    1.0667   -3.1030 H   0  0  0  0  0  0  0  0  0  0  0  0
   -5.2874    0.4789   -1.4543 H   0  0  0  0  0  0  0  0  0  0  0  0
   -5.5269   -0.6274   -2.8450 H   0  0  0  0  0  0  0  0  0  0  0  0
    0.2988   -0.9954   -2.4096 H   0  0  0  0  0  0  0  0  0  0  0  0
   -0.5858    4.2567    0.7540 H   0  0  0  0  0  0  0  0  0  0  0  0
   -0.5416    0.8811   -3.7974 H   0  0  0  0  0  0  0  0  0  0  0  0
    1.7650    4.9322    0.4184 H   0  0  0  0  0  0  0  0  0  0  0  0
    7.8528   -3.2747    0.9485 H   0  0  0  0  0  0  0  0  0  0  0  0
    6.9113   -2.2189    2.0117 H   0  0  0  0  0  0  0  0  0  0  0  0
    6.1247   -3.6030    1.1837 H   0  0  0  0  0  0  0  0  0  0  0  0
  1  7  1  0  0  0  0
  1 14  1  0  0  0  0
  2 26  2  0  0  0  0
  3  9  1  0  0  0  0
  3 12  1  0  0  0  0
  3 13  1  0  0  0  0
  4 16  1  0  0  0  0
  4 17  1  0  0  0  0
  4 23  1  0  0  0  0
  5 18  1  0  0  0  0
  5 19  1  0  0  0  0
  5 26  1  0  0  0  0
  6 14  2  0  0  0  0
  6 21  1  0  0  0  0
  7 21  2  0  0  0  0
  8 23  2  0  0  0  0
  8 32  1  0  0  0  0
  9 10  1  0  0  0  0
  9 14  1  0  0  0  0
  9 34  1  0  0  0  0
 10 11  1  0  0  0  0
 10 35  1  0  0  0  0
 10 36  1  0  0  0  0
 11 12  1  0  0  0  0
 11 37  1  0  0  0  0
 11 38  1  0  0  0  0
 12 39  1  0  0  0  0
 12 40  1  0  0  0  0
 13 15  1  0  0  0  0
 13 41  1  0  0  0  0
 13 42  1  0  0  0  0
 15 20  1  0  0  0  0
 15 22  2  0  0  0  0
 16 18  1  0  0  0  0
 16 43  1  0  0  0  0
 16 44  1  0  0  0  0
 17 19  1  0  0  0  0
 17 45  1  0  0  0  0
 17 46  1  0  0  0  0
 18 47  1  0  0  0  0
 18 48  1  0  0  0  0
 19 49  1  0  0  0  0
 19 50  1  0  0  0  0
 20 27  2  0  0  0  0
 20 28  1  0  0  0  0
 21 24  1  0  0  0  0
 22 29  1  0  0  0  0
 22 51  1  0  0  0  0
 23 25  1  0  0  0  0
 24 25  2  0  0  0  0
 24 30  1  0  0  0  0
 25 52  1  0  0  0  0
 26 33  1  0  0  0  0
 27 31  1  0  0  0  0
 27 53  1  0  0  0  0
 28 54  1  0  0  0  0
 28 55  1  0  0  0  0
 28 56  1  0  0  0  0
 29 31  2  0  0  0  0
 29 57  1  0  0  0  0
 30 32  2  0  0  0  0
 30 58  1  0  0  0  0
 31 59  1  0  0  0  0
 32 60  1  0  0  0  0
 33 61  1  0  0  0  0
 33 62  1  0  0  0  0
 33 63  1  0  0  0  0
M  END
> <PUBCHEM_COMPOUND_CID>
51136828

> <PUBCHEM_CONFORMER_RMSD>
1

> <PUBCHEM_CONFORMER_DIVERSEORDER>
11
86
171
17
167
51
119
91
108
180
34
183
194
129
136
215
118
155
147
195
4
152
72
78
139
197
117
88
206
54
115
85
178
130
23
191
211
29
18
45
135
148
94
138
33
153
122
184
204
124
1
196
218
53
112
16
47
111
190
161
80
35
83
192
142
207
121
172
168
57
166
73
170
145
12
56
159
149
176
198
182
40
87
104
203
175
113
116
49
143
21
114
76
99
186
144
156
24
10
67
185
77
213
82
28
70
210
36
216
141
26
102
7
173
181
174
81
38
52
132
68
126
58
137
97
48
169
27
202
101
214
74
212
64
32
13
90
95
20
179
59
205
9
39
217
162
75
92
188
201
208
157
125
61
93
44
131
187
46
98
106
100
31
19
42
43
154
69
151
62
127
15
50
158
164
63
89
165
193
109
123
163
66
84
3
96
41
60
133
200
37
105
5
199
160
189
65
140
128
25
2
71
30
150
110
120
107
22
55
103
8
79
177
134
14
6
209
146

> <PUBCHEM_MMFF94_PARTIAL_CHARGES>
38
1 -0.02
12 0.27
13 0.41
14 0.3
15 -0.14
16 0.37
17 0.37
18 0.3
19 0.3
2 -0.57
20 -0.14
21 0.46
22 -0.15
23 0.41
24 0.05
25 -0.15
26 0.57
27 -0.15
28 0.14
29 -0.15
3 -0.81
30 -0.15
31 -0.15
32 0.16
33 0.06
4 -0.84
5 -0.66
51 0.15
52 0.15
53 0.15
57 0.15
58 0.15
59 0.15
6 -0.57
60 0.15
7 -0.41
8 -0.62
9 0.45

> <PUBCHEM_EFFECTIVE_ROTOR_COUNT>
8.2

> <PUBCHEM_PHARMACOPHORE_FEATURES>
9
1 2 acceptor
1 3 cation
3 4 8 23 cation
3 6 7 21 cation
5 1 6 7 14 21 rings
5 3 9 10 11 12 rings
6 15 20 22 27 29 31 rings
6 4 5 16 17 18 19 rings
6 8 23 24 25 30 32 rings

> <PUBCHEM_HEAVY_ATOM_COUNT>
33

> <PUBCHEM_ATOM_DEF_STEREO_COUNT>
1

> <PUBCHEM_ATOM_UDEF_STEREO_COUNT>
0

> <PUBCHEM_BOND_DEF_STEREO_COUNT>
0

> <PUBCHEM_BOND_UDEF_STEREO_COUNT>
0

> <PUBCHEM_ISOTOPIC_ATOM_COUNT>
0

> <PUBCHEM_COMPONENT_COUNT>
1

> <PUBCHEM_CACTVS_TAUTO_COUNT>
1

> <PUBCHEM_CONFORMER_ID>
030C493C0000000B

> <PUBCHEM_MMFF94_ENERGY>
85.9191

> <PUBCHEM_FEATURE_SELFOVERLAP>
45.674

> <PUBCHEM_SHAPE_FINGERPRINT>
10305334 12 18268166266268233795
10622 236 17414702469998279207
11477941 20 15864362350045097854
11607047 141 16302081344331708115
12422481 6 17274282585377691855
12633046 712 18260834820954078444
131258 38 16692445500952391839
13782708 43 17676206909739560458
14114206 34 18115579336647432472
14279260 333 18263084310904124946
14910302 57 17531797073705291971
14950920 106 18268721678153512631
17809404 112 17979315902380101034
208703 8 18341895199484733378
21796203 349 17914925199223754432
21987440 362 15551111362278929610
23536364 44 18114456782519905682
484985 159 18411133628608445103
5937810 71 8356815656994212066
613672 6 18337653279387491424
6431902 208 18411136905805486330
6700243 42 16879068748875668731
7064713 232 16199607864690431901
7970288 3 18410860979705242634
86090 222 14240757895940872478

> <PUBCHEM_SHAPE_MULTIPOLES>
637.5
14.29
3.88
3.03
25.55
1.35
-1.88
-14.25
-0.03
1.42
2.39
-5.09
-0.63
1.75

> <PUBCHEM_SHAPE_SELFOVERLAP>
1376.71

> <PUBCHEM_SHAPE_VOLUME>
350.8

> <PUBCHEM_COORDINATE_TYPE>
2
5
10

$$$$
