7144200
  -OEChem-12032416233D

 60 64  0     1  0  0  0  0  0999 V2000
    6.9206    1.3979    1.1364 F   0  0  0  0  0  0  0  0  0  0  0  0
    5.5003   -0.2485    1.3549 F   0  0  0  0  0  0  0  0  0  0  0  0
    6.9670   -0.2500   -0.2982 F   0  0  0  0  0  0  0  0  0  0  0  0
   -3.4543   -2.5764   -2.3063 O   0  0  0  0  0  0  0  0  0  0  0  0
   -3.8462   -0.2310    1.9842 O   0  0  0  0  0  0  0  0  0  0  0  0
    5.2358    1.2435   -0.3581 O   0  0  0  0  0  0  0  0  0  0  0  0
   -0.6683    3.3747    0.5111 O   0  0  0  0  0  0  0  0  0  0  0  0
   -1.6846   -2.3900   -0.7832 N   0  0  0  0  0  0  0  0  0  0  0  0
   -1.7252   -1.1486    2.1066 N   0  0  0  0  0  0  0  0  0  0  0  0
   -2.0386    1.0411    1.2874 N   0  0  0  0  0  0  0  0  0  0  0  0
   -1.7539   -3.5581    1.4961 C   0  0  2  0  0  0  0  0  0  0  0  0
    0.1808   -2.1621    0.8922 C   0  0  2  0  0  0  0  0  0  0  0  0
   -0.2360   -3.5483    1.3843 C   0  0  0  0  0  0  0  0  0  0  0  0
   -2.3367   -3.3721    0.0950 C   0  0  0  0  0  0  0  0  0  0  0  0
   -2.2366   -2.4709    2.4737 C   0  0  0  0  0  0  0  0  0  0  0  0
   -0.2652   -1.1035    1.9259 C   0  0  0  0  0  0  0  0  0  0  0  0
   -0.4197   -1.8440   -0.4824 C   0  0  0  0  0  0  0  0  0  0  0  0
    0.1991   -1.0369   -1.3833 C   0  0  0  0  0  0  0  0  0  0  0  0
   -2.3582   -2.1153   -1.9866 C   0  0  0  0  0  0  0  0  0  0  0  0
   -2.6320   -0.1104    1.8015 C   0  0  0  0  0  0  0  0  0  0  0  0
   -0.4675   -0.7288   -2.6343 C   0  0  0  0  0  0  0  0  0  0  0  0
   -1.6728   -1.2106   -2.9366 C   0  0  0  0  0  0  0  0  0  0  0  0
    1.5241   -0.4371   -1.1130 C   0  0  0  0  0  0  0  0  0  0  0  0
    1.6070    0.7928   -0.4673 C   0  0  0  0  0  0  0  0  0  0  0  0
    2.6785   -1.1068   -1.5070 C   0  0  0  0  0  0  0  0  0  0  0  0
   -2.6388    2.0073    0.4443 C   0  0  0  0  0  0  0  0  0  0  0  0
    2.8566    1.3583   -0.2132 C   0  0  0  0  0  0  0  0  0  0  0  0
    3.9280   -0.5412   -1.2527 C   0  0  0  0  0  0  0  0  0  0  0  0
    4.0170    0.6914   -0.6059 C   0  0  0  0  0  0  0  0  0  0  0  0
   -1.9403    3.1537    0.0732 C   0  0  0  0  0  0  0  0  0  0  0  0
   -3.9382    1.7979   -0.0118 C   0  0  0  0  0  0  0  0  0  0  0  0
   -2.5446    4.0963   -0.7587 C   0  0  0  0  0  0  0  0  0  0  0  0
   -4.5426    2.7406   -0.8436 C   0  0  0  0  0  0  0  0  0  0  0  0
   -3.8458    3.8898   -1.2171 C   0  0  0  0  0  0  0  0  0  0  0  0
    6.1517    0.5183    0.4550 C   0  0  0  0  0  0  0  0  0  0  0  0
   -0.5206    4.0870    1.7373 C   0  0  0  0  0  0  0  0  0  0  0  0
   -2.0884   -4.5275    1.8856 H   0  0  0  0  0  0  0  0  0  0  0  0
    1.2757   -2.1593    0.8463 H   0  0  0  0  0  0  0  0  0  0  0  0
    0.2198   -3.7620    2.3588 H   0  0  0  0  0  0  0  0  0  0  0  0
    0.1086   -4.3265    0.6918 H   0  0  0  0  0  0  0  0  0  0  0  0
   -2.2762   -4.3301   -0.4397 H   0  0  0  0  0  0  0  0  0  0  0  0
   -3.4057   -3.1315    0.1582 H   0  0  0  0  0  0  0  0  0  0  0  0
   -3.3302   -2.4696    2.5241 H   0  0  0  0  0  0  0  0  0  0  0  0
   -1.8675   -2.6869    3.4838 H   0  0  0  0  0  0  0  0  0  0  0  0
    0.1792   -1.3306    2.9035 H   0  0  0  0  0  0  0  0  0  0  0  0
    0.1020   -0.1192    1.6516 H   0  0  0  0  0  0  0  0  0  0  0  0
    0.0361   -0.0712   -3.3367 H   0  0  0  0  0  0  0  0  0  0  0  0
   -2.1656   -0.9698   -3.8710 H   0  0  0  0  0  0  0  0  0  0  0  0
   -1.0831    1.2549    1.5459 H   0  0  0  0  0  0  0  0  0  0  0  0
    0.7127    1.3252   -0.1662 H   0  0  0  0  0  0  0  0  0  0  0  0
    2.6242   -2.0675   -2.0129 H   0  0  0  0  0  0  0  0  0  0  0  0
    2.9190    2.3196    0.2896 H   0  0  0  0  0  0  0  0  0  0  0  0
    4.8235   -1.0683   -1.5700 H   0  0  0  0  0  0  0  0  0  0  0  0
   -4.5205    0.9118    0.2050 H   0  0  0  0  0  0  0  0  0  0  0  0
   -2.0075    4.9932   -1.0550 H   0  0  0  0  0  0  0  0  0  0  0  0
   -5.5522    2.5762   -1.2088 H   0  0  0  0  0  0  0  0  0  0  0  0
   -4.3155    4.6225   -1.8668 H   0  0  0  0  0  0  0  0  0  0  0  0
   -1.0320    3.5682    2.5542 H   0  0  0  0  0  0  0  0  0  0  0  0
    0.5456    4.1436    1.9733 H   0  0  0  0  0  0  0  0  0  0  0  0
   -0.9112    5.1046    1.6366 H   0  0  0  0  0  0  0  0  0  0  0  0
  1 35  1  0  0  0  0
  2 35  1  0  0  0  0
  3 35  1  0  0  0  0
  4 19  2  0  0  0  0
  5 20  2  0  0  0  0
  6 29  1  0  0  0  0
  6 35  1  0  0  0  0
  7 30  1  0  0  0  0
  7 36  1  0  0  0  0
  8 14  1  0  0  0  0
  8 17  1  0  0  0  0
  8 19  1  0  0  0  0
  9 15  1  0  0  0  0
  9 16  1  0  0  0  0
  9 20  1  0  0  0  0
 10 20  1  0  0  0  0
 10 26  1  0  0  0  0
 10 49  1  0  0  0  0
 11 13  1  0  0  0  0
 11 14  1  0  0  0  0
 11 15  1  0  0  0  0
 11 37  1  0  0  0  0
 12 13  1  0  0  0  0
 12 16  1  0  0  0  0
 12 17  1  0  0  0  0
 12 38  1  0  0  0  0
 13 39  1  0  0  0  0
 13 40  1  0  0  0  0
 14 41  1  0  0  0  0
 14 42  1  0  0  0  0
 15 43  1  0  0  0  0
 15 44  1  0  0  0  0
 16 45  1  0  0  0  0
 16 46  1  0  0  0  0
 17 18  2  0  0  0  0
 18 21  1  0  0  0  0
 18 23  1  0  0  0  0
 19 22  1  0  0  0  0
 21 22  2  0  0  0  0
 21 47  1  0  0  0  0
 22 48  1  0  0  0  0
 23 24  2  0  0  0  0
 23 25  1  0  0  0  0
 24 27  1  0  0  0  0
 24 50  1  0  0  0  0
 25 28  2  0  0  0  0
 25 51  1  0  0  0  0
 26 30  1  0  0  0  0
 26 31  2  0  0  0  0
 27 29  2  0  0  0  0
 27 52  1  0  0  0  0
 28 29  1  0  0  0  0
 28 53  1  0  0  0  0
 30 32  2  0  0  0  0
 31 33  1  0  0  0  0
 31 54  1  0  0  0  0
 32 34  1  0  0  0  0
 32 55  1  0  0  0  0
 33 34  2  0  0  0  0
 33 56  1  0  0  0  0
 34 57  1  0  0  0  0
 36 58  1  0  0  0  0
 36 59  1  0  0  0  0
 36 60  1  0  0  0  0
M  END
> <PUBCHEM_COMPOUND_CID>
7144200

> <PUBCHEM_CONFORMER_RMSD>
1

> <PUBCHEM_CONFORMER_DIVERSEORDER>
1
25
12
22
30
32
29
8
17
10
14
13
28
5
18
6
36
37
20
21
31
7
11
34
23
24
15
27
19
16
9
4
2
35
33
3
26

> <PUBCHEM_MMFF94_PARTIAL_CHARGES>
45
1 -0.34
10 -0.55
12 0.14
14 0.3
15 0.3
16 0.3
17 -0.03
18 -0.03
19 0.62
2 -0.34
20 0.69
21 -0.15
22 -0.14
23 0.03
24 -0.15
25 -0.15
26 0.12
27 -0.15
28 -0.15
29 0.08
3 -0.34
30 0.08
31 -0.15
32 -0.15
33 -0.15
34 -0.15
35 1.3
36 0.28
4 -0.57
47 0.15
48 0.15
49 0.37
5 -0.57
50 0.15
51 0.15
52 0.15
53 0.15
54 0.15
55 0.15
56 0.15
57 0.15
6 -0.36
7 -0.36
8 -0.47
9 -0.66

> <PUBCHEM_EFFECTIVE_ROTOR_COUNT>
8

> <PUBCHEM_PHARMACOPHORE_FEATURES>
10
1 10 donor
1 4 acceptor
1 5 acceptor
1 6 acceptor
1 7 acceptor
6 23 24 25 27 28 29 rings
6 26 30 31 32 33 34 rings
6 8 11 12 13 14 17 rings
6 8 17 18 19 21 22 rings
6 9 11 12 13 15 16 rings

> <PUBCHEM_HEAVY_ATOM_COUNT>
36

> <PUBCHEM_ATOM_DEF_STEREO_COUNT>
2

> <PUBCHEM_ATOM_UDEF_STEREO_COUNT>
0

> <PUBCHEM_BOND_DEF_STEREO_COUNT>
0

> <PUBCHEM_BOND_UDEF_STEREO_COUNT>
0

> <PUBCHEM_ISOTOPIC_ATOM_COUNT>
0

> <PUBCHEM_COMPONENT_COUNT>
1

> <PUBCHEM_CACTVS_TAUTO_COUNT>
2

> <PUBCHEM_CONFORMER_ID>
006D030800000001

> <PUBCHEM_MMFF94_ENERGY>
125.5835

> <PUBCHEM_FEATURE_SELFOVERLAP>
52.335

> <PUBCHEM_SHAPE_FINGERPRINT>
10032420 55 18264182791575933461
11399939 17 10813629200843321561
11578080 2 16772933917938548546
11582403 64 18195529194994789543
12156800 1 17911195599631284393
12293681 4 18265048205346330023
12655364 131 17462256094285368042
12788726 201 18337936974297985959
131258 38 15873970109907695539
13150687 139 18126563427411432092
13726171 33 18057600963819181449
14856354 85 17977130142870139678
15324884 4 17267000516231892447
15513586 35 17909281513408105960
16114785 44 18409727356908371086
17492 54 18200574914390618237
21033648 29 18190760655677291668
21304303 282 18262223457079837967
21860390 5 17109594173748007135
238 59 17839469886569990357
35225 105 17900015769958678599
376196 1 17834682595251497293
4112364 45 17902223413282671645
445580 44 17987517177160802866
469060 322 17773882084874157926
484985 159 17895470427307294402
4938544 92 18334016116714226816
5171179 24 17771611627928637432
5895379 119 16542983898831321753
59755656 520 18114739339754255588
9981440 41 18115595816347153449

> <PUBCHEM_SHAPE_MULTIPOLES>
680.62
10.13
5.4
2.57
22.63
1.94
-0.5
7.47
0.77
-7.05
1.14
-1.71
-1.65
0.94

> <PUBCHEM_SHAPE_SELFOVERLAP>
1494.382

> <PUBCHEM_SHAPE_VOLUME>
365.4

> <PUBCHEM_COORDINATE_TYPE>
2
5
10

$$$$
