45361702
  -OEChem-12032416233D

 79 82  0     1  0  0  0  0  0999 V2000
    1.1692    1.7852   -1.8980 S   0  0  0  0  0  0  0  0  0  0  0  0
    2.4466   -1.4623   -2.2151 O   0  0  0  0  0  0  0  0  0  0  0  0
    0.9985    2.3831   -3.2009 O   0  0  0  0  0  0  0  0  0  0  0  0
    2.4725    1.6614   -1.2896 O   0  0  0  0  0  0  0  0  0  0  0  0
    3.1426   -4.1935    0.6199 O   0  0  0  0  0  0  0  0  0  0  0  0
   -2.3023   -3.0007    0.9503 O   0  0  0  0  0  0  0  0  0  0  0  0
    0.4205    0.2442   -1.9002 N   0  0  1  0  0  0  0  0  0  0  0  0
    2.8244   -1.4790    0.0819 N   0  0  0  0  0  0  0  0  0  0  0  0
   -1.6287   -1.2477   -0.4382 N   0  0  0  0  0  0  0  0  0  0  0  0
    5.0218   -4.1798   -0.7001 N   0  0  0  0  0  0  0  0  0  0  0  0
   -7.8289    0.0584    0.7691 N   0  0  0  0  0  0  0  0  0  0  0  0
    5.1390   -0.0328    1.2993 C   0  0  0  0  0  0  0  0  0  0  0  0
    5.9849    0.3802    2.5114 C   0  0  0  0  0  0  0  0  0  0  0  0
    5.7314    0.5325    0.0015 C   0  0  0  0  0  0  0  0  0  0  0  0
    5.0175   -1.5534    1.2194 C   0  0  0  0  0  0  0  0  0  0  0  0
    6.1655    1.8948    2.5829 C   0  0  0  0  0  0  0  0  0  0  0  0
    5.9126    2.0469    0.0772 C   0  0  0  0  0  0  0  0  0  0  0  0
    6.7463    2.4543    1.2880 C   0  0  0  0  0  0  0  0  0  0  0  0
    4.1500   -2.0541    0.0603 C   0  0  1  0  0  0  0  0  0  0  0  0
    0.7436   -0.6596   -0.7578 C   0  0  1  0  0  0  0  0  0  0  0  0
   -0.2797   -1.7805   -0.6204 C   0  0  0  0  0  0  0  0  0  0  0  0
   -1.0041    0.2029   -2.3456 C   0  0  0  0  0  0  0  0  0  0  0  0
    2.0867   -1.2329   -1.0634 C   0  0  0  0  0  0  0  0  0  0  0  0
   -1.9366   -0.0069   -1.1602 C   0  0  0  0  0  0  0  0  0  0  0  0
    4.0234   -3.5716    0.0308 C   0  0  0  0  0  0  0  0  0  0  0  0
   -2.5457   -1.9605    0.3402 C   0  0  0  0  0  0  0  0  0  0  0  0
    0.1117    2.6281   -0.7661 C   0  0  0  0  0  0  0  0  0  0  0  0
   -3.9168   -1.4361    0.4508 C   0  0  0  0  0  0  0  0  0  0  0  0
    0.4002    2.6169    0.5986 C   0  0  0  0  0  0  0  0  0  0  0  0
   -1.0135    3.3057   -1.2355 C   0  0  0  0  0  0  0  0  0  0  0  0
   -4.1370   -0.1672    0.9865 C   0  0  0  0  0  0  0  0  0  0  0  0
   -4.9959   -2.2084    0.0208 C   0  0  0  0  0  0  0  0  0  0  0  0
   -0.4366    3.2832    1.4939 C   0  0  0  0  0  0  0  0  0  0  0  0
   -1.8502    3.9722   -0.3402 C   0  0  0  0  0  0  0  0  0  0  0  0
   -1.5618    3.9608    1.0245 C   0  0  0  0  0  0  0  0  0  0  0  0
   -5.4360    0.3294    1.0925 C   0  0  0  0  0  0  0  0  0  0  0  0
   -6.2950   -1.7118    0.1269 C   0  0  0  0  0  0  0  0  0  0  0  0
   -6.5151   -0.4430    0.6627 C   0  0  0  0  0  0  0  0  0  0  0  0
   -8.9558   -0.7339    0.3180 C   0  0  0  0  0  0  0  0  0  0  0  0
   -8.0692    1.3757    1.3238 C   0  0  0  0  0  0  0  0  0  0  0  0
    4.1379    0.3982    1.4356 H   0  0  0  0  0  0  0  0  0  0  0  0
    6.9717   -0.0976    2.4589 H   0  0  0  0  0  0  0  0  0  0  0  0
    5.5110    0.0296    3.4359 H   0  0  0  0  0  0  0  0  0  0  0  0
    5.0828    0.3232   -0.8547 H   0  0  0  0  0  0  0  0  0  0  0  0
    6.7006    0.0613   -0.2056 H   0  0  0  0  0  0  0  0  0  0  0  0
    6.0151   -2.0058    1.1413 H   0  0  0  0  0  0  0  0  0  0  0  0
    4.5954   -1.9250    2.1633 H   0  0  0  0  0  0  0  0  0  0  0  0
    5.1964    2.3684    2.7829 H   0  0  0  0  0  0  0  0  0  0  0  0
    6.8237    2.1481    3.4217 H   0  0  0  0  0  0  0  0  0  0  0  0
    6.3935    2.4070   -0.8393 H   0  0  0  0  0  0  0  0  0  0  0  0
    4.9297    2.5306    0.1335 H   0  0  0  0  0  0  0  0  0  0  0  0
    6.7989    3.5471    1.3490 H   0  0  0  0  0  0  0  0  0  0  0  0
    7.7737    2.0910    1.1622 H   0  0  0  0  0  0  0  0  0  0  0  0
    4.6127   -1.7650   -0.8909 H   0  0  0  0  0  0  0  0  0  0  0  0
    0.7639   -0.0887    0.1752 H   0  0  0  0  0  0  0  0  0  0  0  0
   -0.3032   -2.4137   -1.5169 H   0  0  0  0  0  0  0  0  0  0  0  0
   -0.0219   -2.4385    0.2177 H   0  0  0  0  0  0  0  0  0  0  0  0
    2.3920   -1.3278    0.9889 H   0  0  0  0  0  0  0  0  0  0  0  0
   -1.0979   -0.6319   -3.0523 H   0  0  0  0  0  0  0  0  0  0  0  0
   -1.2829    1.0941   -2.9126 H   0  0  0  0  0  0  0  0  0  0  0  0
   -1.8634    0.8024   -0.4336 H   0  0  0  0  0  0  0  0  0  0  0  0
   -2.9668   -0.0413   -1.5277 H   0  0  0  0  0  0  0  0  0  0  0  0
    5.0574   -5.1897   -0.7920 H   0  0  0  0  0  0  0  0  0  0  0  0
    5.7555   -3.6553   -1.1656 H   0  0  0  0  0  0  0  0  0  0  0  0
    1.2730    2.1005    0.9878 H   0  0  0  0  0  0  0  0  0  0  0  0
   -1.2558    3.3390   -2.2935 H   0  0  0  0  0  0  0  0  0  0  0  0
   -3.3121    0.4387    1.3521 H   0  0  0  0  0  0  0  0  0  0  0  0
   -4.8363   -3.1977   -0.4004 H   0  0  0  0  0  0  0  0  0  0  0  0
   -0.2118    3.2749    2.5564 H   0  0  0  0  0  0  0  0  0  0  0  0
   -2.7255    4.5011   -0.7056 H   0  0  0  0  0  0  0  0  0  0  0  0
   -2.2134    4.4795    1.7215 H   0  0  0  0  0  0  0  0  0  0  0  0
   -5.5552    1.3196    1.5211 H   0  0  0  0  0  0  0  0  0  0  0  0
   -7.1001   -2.3510   -0.2219 H   0  0  0  0  0  0  0  0  0  0  0  0
   -8.8836   -0.9510   -0.7536 H   0  0  0  0  0  0  0  0  0  0  0  0
   -9.0300   -1.6722    0.8791 H   0  0  0  0  0  0  0  0  0  0  0  0
   -9.9056   -0.2077    0.4655 H   0  0  0  0  0  0  0  0  0  0  0  0
   -7.7204    1.4383    2.3606 H   0  0  0  0  0  0  0  0  0  0  0  0
   -7.5814    2.1526    0.7245 H   0  0  0  0  0  0  0  0  0  0  0  0
   -9.1373    1.6197    1.3399 H   0  0  0  0  0  0  0  0  0  0  0  0
  1  3  2  0  0  0  0
  1  4  2  0  0  0  0
  1  7  1  0  0  0  0
  1 27  1  0  0  0  0
  2 23  2  0  0  0  0
  5 25  2  0  0  0  0
  6 26  2  0  0  0  0
  7 20  1  0  0  0  0
  7 22  1  0  0  0  0
  8 19  1  0  0  0  0
  8 23  1  0  0  0  0
  8 58  1  0  0  0  0
  9 21  1  0  0  0  0
  9 24  1  0  0  0  0
  9 26  1  0  0  0  0
 10 25  1  0  0  0  0
 10 63  1  0  0  0  0
 10 64  1  0  0  0  0
 11 38  1  0  0  0  0
 11 39  1  0  0  0  0
 11 40  1  0  0  0  0
 12 13  1  0  0  0  0
 12 14  1  0  0  0  0
 12 15  1  0  0  0  0
 12 41  1  0  0  0  0
 13 16  1  0  0  0  0
 13 42  1  0  0  0  0
 13 43  1  0  0  0  0
 14 17  1  0  0  0  0
 14 44  1  0  0  0  0
 14 45  1  0  0  0  0
 15 19  1  0  0  0  0
 15 46  1  0  0  0  0
 15 47  1  0  0  0  0
 16 18  1  0  0  0  0
 16 48  1  0  0  0  0
 16 49  1  0  0  0  0
 17 18  1  0  0  0  0
 17 50  1  0  0  0  0
 17 51  1  0  0  0  0
 18 52  1  0  0  0  0
 18 53  1  0  0  0  0
 19 25  1  0  0  0  0
 19 54  1  0  0  0  0
 20 21  1  0  0  0  0
 20 23  1  0  0  0  0
 20 55  1  0  0  0  0
 21 56  1  0  0  0  0
 21 57  1  0  0  0  0
 22 24  1  0  0  0  0
 22 59  1  0  0  0  0
 22 60  1  0  0  0  0
 24 61  1  0  0  0  0
 24 62  1  0  0  0  0
 26 28  1  0  0  0  0
 27 29  2  0  0  0  0
 27 30  1  0  0  0  0
 28 31  2  0  0  0  0
 28 32  1  0  0  0  0
 29 33  1  0  0  0  0
 29 65  1  0  0  0  0
 30 34  2  0  0  0  0
 30 66  1  0  0  0  0
 31 36  1  0  0  0  0
 31 67  1  0  0  0  0
 32 37  2  0  0  0  0
 32 68  1  0  0  0  0
 33 35  2  0  0  0  0
 33 69  1  0  0  0  0
 34 35  1  0  0  0  0
 34 70  1  0  0  0  0
 35 71  1  0  0  0  0
 36 38  2  0  0  0  0
 36 72  1  0  0  0  0
 37 38  1  0  0  0  0
 37 73  1  0  0  0  0
 39 74  1  0  0  0  0
 39 75  1  0  0  0  0
 39 76  1  0  0  0  0
 40 77  1  0  0  0  0
 40 78  1  0  0  0  0
 40 79  1  0  0  0  0
M  END
> <PUBCHEM_COMPOUND_CID>
45361702

> <PUBCHEM_CONFORMER_RMSD>
1.2

> <PUBCHEM_CONFORMER_DIVERSEORDER>
2
12
154
97
146
57
80
44
140
60
128
151
89
136
212
69
93
234
197
176
5
101
215
222
144
112
211
72
92
162
172
55
86
52
118
194
132
58
201
160
166
98
127
35
193
223
141
17
204
190
149
214
217
133
77
135
108
181
41
155
183
95
159
123
198
62
235
171
7
168
14
116
64
46
213
110
28
182
37
68
94
3
81
38
103
145
186
167
104
143
188
120
230
32
187
233
76
157
49
114
221
207
117
209
48
85
138
238
227
107
206
79
40
84
96
216
21
25
34
180
102
6
10
229
153
236
124
175
184
42
65
196
111
121
23
74
173
228
51
199
202
156
203
226
219
70
200
239
178
45
88
105
231
47
20
24
67
73
63
16
192
148
218
54
150
61
195
147
30
36
39
210
53
113
29
71
240
22
91
87
26
119
78
83
130
161
185
174
11
90
33
164
179
126
122
59
139
205
189
27
115
125
100
50
225
224
220
191
232
31
82
19
109
99
43
152
18
8
158
129
170
169
177
142
163
137
106
165
134
131
75
56
9
1
208
66
237
13
15
4

> <PUBCHEM_MMFF94_PARTIAL_CHARGES>
45
1 1.45
10 -0.8
11 -0.84
19 0.36
2 -0.57
20 0.42
21 0.3
22 0.36
23 0.57
24 0.3
25 0.57
26 0.54
27 -0.01
28 0.09
29 -0.15
3 -0.65
30 -0.15
31 -0.15
32 -0.15
33 -0.15
34 -0.15
35 -0.15
36 -0.15
37 -0.15
38 0.1
39 0.37
4 -0.65
40 0.37
5 -0.57
58 0.37
6 -0.57
63 0.37
64 0.37
65 0.15
66 0.15
67 0.15
68 0.15
69 0.15
7 -0.85
70 0.15
71 0.15
72 0.15
73 0.15
8 -0.73
9 -0.66

> <PUBCHEM_EFFECTIVE_ROTOR_COUNT>
13.4

> <PUBCHEM_PHARMACOPHORE_FEATURES>
12
1 10 donor
1 11 cation
1 2 acceptor
1 3 acceptor
1 4 acceptor
1 5 acceptor
1 6 acceptor
1 8 donor
6 12 13 14 16 17 18 rings
6 27 29 30 33 34 35 rings
6 28 31 32 36 37 38 rings
6 7 9 20 21 22 24 rings

> <PUBCHEM_HEAVY_ATOM_COUNT>
40

> <PUBCHEM_ATOM_DEF_STEREO_COUNT>
2

> <PUBCHEM_ATOM_UDEF_STEREO_COUNT>
0

> <PUBCHEM_BOND_DEF_STEREO_COUNT>
0

> <PUBCHEM_BOND_UDEF_STEREO_COUNT>
0

> <PUBCHEM_ISOTOPIC_ATOM_COUNT>
0

> <PUBCHEM_COMPONENT_COUNT>
1

> <PUBCHEM_CACTVS_TAUTO_COUNT>
4

> <PUBCHEM_CONFORMER_ID>
02B42A2600000002

> <PUBCHEM_MMFF94_ENERGY>
106.7543

> <PUBCHEM_FEATURE_SELFOVERLAP>
60.916

> <PUBCHEM_SHAPE_FINGERPRINT>
10006869 2 18059856130179662924
10439779 11 18196376042423613119
11456790 92 18261971682883382033
12422481 6 18412548686792780856
12677640 9 17836358629019280426
13150687 139 9583511023493444498
13636023 51 16486992699463239046
14040221 97 18186516635869270724
14068700 675 18263936444888336175
14705955 166 18268985397993300682
15131766 46 17058911433746441210
15347590 135 18261379053998979290
15975801 100 12103304684867931602
1979834 28 18335135423804273574
21344244 181 11241971468802655681
22889206 1 17982168134512182552
244849 19 16841075923415750502
24771293 8 18337666524486733674
24893992 56 18262243339654478979
4112364 45 17273981435693849265
469060 322 17168708501471246644
6004065 56 18192141814334151643
6523845 18 12463575045549277824

> <PUBCHEM_SHAPE_MULTIPOLES>
772.78
19.39
5.08
2.15
21.15
0.35
0.69
-3.29
-13.29
-3.88
-0.14
-2.18
1.28
0.98

> <PUBCHEM_SHAPE_SELFOVERLAP>
1615.258

> <PUBCHEM_SHAPE_VOLUME>
437.2

> <PUBCHEM_COORDINATE_TYPE>
2
5
10

$$$$
