7161541
  -OEChem-12032416363D

 52 54  0     1  0  0  0  0  0999 V2000
    5.5742   -0.2315   -2.4218 F   0  0  0  0  0  0  0  0  0  0  0  0
   -2.5846   -2.1338   -1.4329 O   0  0  0  0  0  0  0  0  0  0  0  0
   -0.7941    2.9253    0.1022 O   0  0  0  0  0  0  0  0  0  0  0  0
   -0.7698    1.5104   -1.7238 O   0  0  0  0  0  0  0  0  0  0  0  0
    2.5821    1.7666    1.6481 O   0  0  0  0  0  0  0  0  0  0  0  0
   -1.2670   -0.6202   -0.2545 N   0  0  0  0  0  0  0  0  0  0  0  0
    1.2023   -0.0096    1.0149 N   0  0  0  0  0  0  0  0  0  0  0  0
   -3.7309   -0.4800   -0.1972 C   0  0  0  0  0  0  0  0  0  0  0  0
   -4.8377   -0.5988   -1.2472 C   0  0  0  0  0  0  0  0  0  0  0  0
   -4.1598   -1.0886    1.1398 C   0  0  0  0  0  0  0  0  0  0  0  0
   -6.1537   -0.0073   -0.7490 C   0  0  0  0  0  0  0  0  0  0  0  0
   -5.4774   -0.4963    1.6325 C   0  0  0  0  0  0  0  0  0  0  0  0
   -6.5777   -0.6197    0.5826 C   0  0  0  0  0  0  0  0  0  0  0  0
   -2.4848   -1.1541   -0.6894 C   0  0  0  0  0  0  0  0  0  0  0  0
   -1.1302    0.6416    0.4952 C   0  0  1  0  0  0  0  0  0  0  0  0
   -0.0182   -1.2539   -0.7023 C   0  0  0  0  0  0  0  0  0  0  0  0
   -0.0182    0.5949    1.5457 C   0  0  0  0  0  0  0  0  0  0  0  0
    1.0054   -1.3346    0.4214 C   0  0  0  0  0  0  0  0  0  0  0  0
   -0.8785    1.7163   -0.5226 C   0  0  0  0  0  0  0  0  0  0  0  0
    2.4229    0.6539    1.1487 C   0  0  0  0  0  0  0  0  0  0  0  0
    3.6306   -0.0098    0.6414 C   0  0  0  0  0  0  0  0  0  0  0  0
    4.0349    0.1997   -0.6746 C   0  0  0  0  0  0  0  0  0  0  0  0
    4.3661   -0.8446    1.4787 C   0  0  0  0  0  0  0  0  0  0  0  0
   -0.5541    4.0454   -0.7557 C   0  0  0  0  0  0  0  0  0  0  0  0
    5.1825   -0.4299   -1.1565 C   0  0  0  0  0  0  0  0  0  0  0  0
    5.5136   -1.4744    0.9969 C   0  0  0  0  0  0  0  0  0  0  0  0
    5.9218   -1.2670   -0.3207 C   0  0  0  0  0  0  0  0  0  0  0  0
   -3.5817    0.5964   -0.0860 H   0  0  0  0  0  0  0  0  0  0  0  0
   -4.5356   -0.0938   -2.1731 H   0  0  0  0  0  0  0  0  0  0  0  0
   -5.0110   -1.6506   -1.5103 H   0  0  0  0  0  0  0  0  0  0  0  0
   -4.2690   -2.1764    1.0366 H   0  0  0  0  0  0  0  0  0  0  0  0
   -3.3850   -0.9312    1.8995 H   0  0  0  0  0  0  0  0  0  0  0  0
   -6.0454    1.0782   -0.6337 H   0  0  0  0  0  0  0  0  0  0  0  0
   -6.9381   -0.1715   -1.4964 H   0  0  0  0  0  0  0  0  0  0  0  0
   -5.7881   -1.0032    2.5530 H   0  0  0  0  0  0  0  0  0  0  0  0
   -5.3297    0.5611    1.8843 H   0  0  0  0  0  0  0  0  0  0  0  0
   -6.8243   -1.6784    0.4354 H   0  0  0  0  0  0  0  0  0  0  0  0
   -7.4877   -0.1265    0.9423 H   0  0  0  0  0  0  0  0  0  0  0  0
   -2.0510    0.8952    1.0210 H   0  0  0  0  0  0  0  0  0  0  0  0
   -0.2188   -2.2604   -1.0841 H   0  0  0  0  0  0  0  0  0  0  0  0
    0.3799   -0.6693   -1.5383 H   0  0  0  0  0  0  0  0  0  0  0  0
   -0.3354   -0.0418    2.3815 H   0  0  0  0  0  0  0  0  0  0  0  0
    0.1910    1.5843    1.9645 H   0  0  0  0  0  0  0  0  0  0  0  0
    1.9372   -1.7569    0.0401 H   0  0  0  0  0  0  0  0  0  0  0  0
    0.6478   -1.9959    1.2197 H   0  0  0  0  0  0  0  0  0  0  0  0
    3.4651    0.8491   -1.3338 H   0  0  0  0  0  0  0  0  0  0  0  0
    4.0560   -1.0128    2.5067 H   0  0  0  0  0  0  0  0  0  0  0  0
    0.4039    3.9281   -1.2711 H   0  0  0  0  0  0  0  0  0  0  0  0
   -1.3707    4.1526   -1.4759 H   0  0  0  0  0  0  0  0  0  0  0  0
   -0.5115    4.9451   -0.1362 H   0  0  0  0  0  0  0  0  0  0  0  0
    6.0891   -2.1263    1.6474 H   0  0  0  0  0  0  0  0  0  0  0  0
    6.8150   -1.7574   -0.6962 H   0  0  0  0  0  0  0  0  0  0  0  0
  1 25  1  0  0  0  0
  2 14  2  0  0  0  0
  3 19  1  0  0  0  0
  3 24  1  0  0  0  0
  4 19  2  0  0  0  0
  5 20  2  0  0  0  0
  6 14  1  0  0  0  0
  6 15  1  0  0  0  0
  6 16  1  0  0  0  0
  7 17  1  0  0  0  0
  7 18  1  0  0  0  0
  7 20  1  0  0  0  0
  8  9  1  0  0  0  0
  8 10  1  0  0  0  0
  8 14  1  0  0  0  0
  8 28  1  0  0  0  0
  9 11  1  0  0  0  0
  9 29  1  0  0  0  0
  9 30  1  0  0  0  0
 10 12  1  0  0  0  0
 10 31  1  0  0  0  0
 10 32  1  0  0  0  0
 11 13  1  0  0  0  0
 11 33  1  0  0  0  0
 11 34  1  0  0  0  0
 12 13  1  0  0  0  0
 12 35  1  0  0  0  0
 12 36  1  0  0  0  0
 13 37  1  0  0  0  0
 13 38  1  0  0  0  0
 15 17  1  0  0  0  0
 15 19  1  0  0  0  0
 15 39  1  0  0  0  0
 16 18  1  0  0  0  0
 16 40  1  0  0  0  0
 16 41  1  0  0  0  0
 17 42  1  0  0  0  0
 17 43  1  0  0  0  0
 18 44  1  0  0  0  0
 18 45  1  0  0  0  0
 20 21  1  0  0  0  0
 21 22  2  0  0  0  0
 21 23  1  0  0  0  0
 22 25  1  0  0  0  0
 22 46  1  0  0  0  0
 23 26  2  0  0  0  0
 23 47  1  0  0  0  0
 24 48  1  0  0  0  0
 24 49  1  0  0  0  0
 24 50  1  0  0  0  0
 25 27  2  0  0  0  0
 26 27  1  0  0  0  0
 26 51  1  0  0  0  0
 27 52  1  0  0  0  0
M  END
> <PUBCHEM_COMPOUND_CID>
7161541

> <PUBCHEM_CONFORMER_RMSD>
1

> <PUBCHEM_CONFORMER_DIVERSEORDER>
2
64
87
101
69
83
29
113
105
40
44
118
52
61
80
65
106
95
31
104
68
85
41
13
108
109
97
123
35
45
37
33
103
102
17
125
120
34
90
24
67
27
121
20
82
114
53
122
94
91
92
22
8
99
126
100
25
56
111
38
86
36
62
19
32
18
127
6
116
63
7
39
98
107
57
79
54
59
23
51
78
77
66
50
30
9
112
81
12
21
47
72
76
115
26
75
49
4
119
84
96
28
14
16
60
93
46
70
1
11
89
88
58
74
55
117
42
73
5
110
10
48
124
71
3
43
15

> <PUBCHEM_MMFF94_PARTIAL_CHARGES>
26
1 -0.19
14 0.57
15 0.36
16 0.3
17 0.3
18 0.3
19 0.66
2 -0.57
20 0.54
21 0.09
22 -0.15
23 -0.15
24 0.28
25 0.19
26 -0.15
27 -0.15
3 -0.43
4 -0.57
46 0.15
47 0.15
5 -0.57
51 0.15
52 0.15
6 -0.66
7 -0.66
8 0.06

> <PUBCHEM_EFFECTIVE_ROTOR_COUNT>
8.4

> <PUBCHEM_PHARMACOPHORE_FEATURES>
6
1 2 acceptor
1 4 acceptor
1 5 acceptor
6 21 22 23 25 26 27 rings
6 6 7 15 16 17 18 rings
6 8 9 10 11 12 13 rings

> <PUBCHEM_HEAVY_ATOM_COUNT>
27

> <PUBCHEM_ATOM_DEF_STEREO_COUNT>
1

> <PUBCHEM_ATOM_UDEF_STEREO_COUNT>
0

> <PUBCHEM_BOND_DEF_STEREO_COUNT>
0

> <PUBCHEM_BOND_UDEF_STEREO_COUNT>
0

> <PUBCHEM_ISOTOPIC_ATOM_COUNT>
0

> <PUBCHEM_COMPONENT_COUNT>
1

> <PUBCHEM_CACTVS_TAUTO_COUNT>
1

> <PUBCHEM_CONFORMER_ID>
006D46C500000002

> <PUBCHEM_MMFF94_ENERGY>
64.5333

> <PUBCHEM_FEATURE_SELFOVERLAP>
30.448

> <PUBCHEM_SHAPE_FINGERPRINT>
10764073 3 16700916885582521085
12011746 2 18343576335773105173
12166972 35 17095248016390011094
12236239 1 16153425034871217995
12633257 1 17775565363987557482
12788726 201 18187358779590869776
13533116 47 15195289716265138174
13899415 154 18260272966538953737
14251764 30 18187646942153757803
14294032 229 18048885099773492244
14347332 77 18264482893693697426
14528608 73 14562528483608561202
14787075 74 11891327651689025087
14840074 17 18341898497708237807
14856354 85 17895202116880086467
14955137 171 18336834203401767217
15183329 4 17632861927467253615
15484559 13 14959946257310273766
15537594 2 18410571790545294370
15840311 113 17917432064603404809
15849732 13 18202283620021464471
16994733 274 13623521351636957535
1813 80 18411418448778785733
18222031 100 18409441522851175953
19141452 34 17560513001413091215
20197701 30 11671787069997235605
20511986 3 12463273783953802182
20554085 129 8934724344949115565
21033648 29 18059558197484419257
21521721 280 15068628188648037417
21641784 216 18115034008754910076
22849341 161 18339368551908055209
22950370 63 18261394481036365051
23559900 14 17489302052971828578
23569943 247 17058386785653178166
23845131 108 17479460036819779657
2838139 119 14333130733240018883
3004659 81 17988927790839873050
314173 85 18413103974402811033
34797466 226 16153712024274875738
404807 14 14328397236281134319
4325135 7 15068341224487032939
4340502 62 9943811088105287384
5104073 3 17773868877807771939
59755656 215 17917715656403068574

> <PUBCHEM_SHAPE_MULTIPOLES>
514.93
14.77
2.43
1.71
1.34
3.28
0.15
-7.51
0.98
0.32
0.37
-0.68
-0.08
0.1

> <PUBCHEM_SHAPE_SELFOVERLAP>
1084.885

> <PUBCHEM_SHAPE_VOLUME>
288.9

> <PUBCHEM_COORDINATE_TYPE>
2
5
10

$$$$
