75368545
  -OEChem-12032416393D

 40 42  0     1  0  0  0  0  0999 V2000
   -5.5708   -1.8384   -0.0510 O   0  0  0  0  0  0  0  0  0  0  0  0
   -3.6411   -0.5160   -0.3064 N   0  0  0  0  0  0  0  0  0  0  0  0
   -1.0172    0.4124    0.0931 N   0  0  2  0  0  0  0  0  0  0  0  0
   -5.6349    0.5059   -0.1436 N   0  0  0  0  0  0  0  0  0  0  0  0
   -3.3519    0.8857   -0.5248 C   0  0  2  0  0  0  0  0  0  0  0  0
   -2.1589    1.3204    0.3256 C   0  0  0  0  0  0  0  0  0  0  0  0
   -2.5629   -1.4806   -0.3643 C   0  0  0  0  0  0  0  0  0  0  0  0
   -1.3679   -0.9775    0.4496 C   0  0  0  0  0  0  0  0  0  0  0  0
   -4.6688    1.5803   -0.1880 C   0  0  0  0  0  0  0  0  0  0  0  0
    0.1491    0.8551    0.8568 C   0  0  0  0  0  0  0  0  0  0  0  0
   -5.0110   -0.7559   -0.1581 C   0  0  0  0  0  0  0  0  0  0  0  0
    1.4340    0.3466    0.2052 C   0  0  0  0  0  0  0  0  0  0  0  0
    2.6682    0.8178    0.9787 C   0  0  0  0  0  0  0  0  0  0  0  0
    3.9428    0.2928    0.3689 C   0  0  0  0  0  0  0  0  0  0  0  0
    4.4659   -0.9296    0.7902 C   0  0  0  0  0  0  0  0  0  0  0  0
    4.5992    1.0298   -0.6167 C   0  0  0  0  0  0  0  0  0  0  0  0
    5.6456   -1.4152    0.2258 C   0  0  0  0  0  0  0  0  0  0  0  0
    5.7787    0.5444   -1.1812 C   0  0  0  0  0  0  0  0  0  0  0  0
    6.3019   -0.6781   -0.7599 C   0  0  0  0  0  0  0  0  0  0  0  0
   -3.1259    1.0045   -1.5927 H   0  0  0  0  0  0  0  0  0  0  0  0
   -1.8929    2.3478    0.0487 H   0  0  0  0  0  0  0  0  0  0  0  0
   -2.4255    1.3231    1.3912 H   0  0  0  0  0  0  0  0  0  0  0  0
   -2.2885   -1.5995   -1.4187 H   0  0  0  0  0  0  0  0  0  0  0  0
   -2.9168   -2.4480    0.0058 H   0  0  0  0  0  0  0  0  0  0  0  0
   -1.6114   -1.0427    1.5188 H   0  0  0  0  0  0  0  0  0  0  0  0
   -0.5307   -1.6583    0.2645 H   0  0  0  0  0  0  0  0  0  0  0  0
   -4.9666    2.3081   -0.9477 H   0  0  0  0  0  0  0  0  0  0  0  0
   -4.6611    2.0638    0.7936 H   0  0  0  0  0  0  0  0  0  0  0  0
    0.0882    0.5493    1.9092 H   0  0  0  0  0  0  0  0  0  0  0  0
    0.2031    1.9520    0.8554 H   0  0  0  0  0  0  0  0  0  0  0  0
   -6.6347    0.6396   -0.0298 H   0  0  0  0  0  0  0  0  0  0  0  0
    1.4901    0.7021   -0.8323 H   0  0  0  0  0  0  0  0  0  0  0  0
    1.4415   -0.7487    0.1613 H   0  0  0  0  0  0  0  0  0  0  0  0
    2.7006    1.9145    1.0077 H   0  0  0  0  0  0  0  0  0  0  0  0
    2.6050    0.4925    2.0252 H   0  0  0  0  0  0  0  0  0  0  0  0
    3.9626   -1.5138    1.5559 H   0  0  0  0  0  0  0  0  0  0  0  0
    4.2004    1.9827   -0.9545 H   0  0  0  0  0  0  0  0  0  0  0  0
    6.0527   -2.3674    0.5533 H   0  0  0  0  0  0  0  0  0  0  0  0
    6.2896    1.1180   -1.9490 H   0  0  0  0  0  0  0  0  0  0  0  0
    7.2203   -1.0562   -1.1995 H   0  0  0  0  0  0  0  0  0  0  0  0
  1 11  2  0  0  0  0
  2  5  1  0  0  0  0
  2  7  1  0  0  0  0
  2 11  1  0  0  0  0
  3  6  1  0  0  0  0
  3  8  1  0  0  0  0
  3 10  1  0  0  0  0
  4  9  1  0  0  0  0
  4 11  1  0  0  0  0
  4 31  1  0  0  0  0
  5  6  1  0  0  0  0
  5  9  1  0  0  0  0
  5 20  1  0  0  0  0
  6 21  1  0  0  0  0
  6 22  1  0  0  0  0
  7  8  1  0  0  0  0
  7 23  1  0  0  0  0
  7 24  1  0  0  0  0
  8 25  1  0  0  0  0
  8 26  1  0  0  0  0
  9 27  1  0  0  0  0
  9 28  1  0  0  0  0
 10 12  1  0  0  0  0
 10 29  1  0  0  0  0
 10 30  1  0  0  0  0
 12 13  1  0  0  0  0
 12 32  1  0  0  0  0
 12 33  1  0  0  0  0
 13 14  1  0  0  0  0
 13 34  1  0  0  0  0
 13 35  1  0  0  0  0
 14 15  2  0  0  0  0
 14 16  1  0  0  0  0
 15 17  1  0  0  0  0
 15 36  1  0  0  0  0
 16 18  2  0  0  0  0
 16 37  1  0  0  0  0
 17 19  2  0  0  0  0
 17 38  1  0  0  0  0
 18 19  1  0  0  0  0
 18 39  1  0  0  0  0
 19 40  1  0  0  0  0
M  END
> <PUBCHEM_COMPOUND_CID>
75368545

> <PUBCHEM_CONFORMER_RMSD>
0.8

> <PUBCHEM_CONFORMER_DIVERSEORDER>
1
33
22
21
12
27
25
2
8
9
10
6
18
28
15
5
30
23
13
16
14
17
32
3
20
11
31
29
4
26
24
19
7

> <PUBCHEM_MMFF94_PARTIAL_CHARGES>
24
1 -0.57
10 0.27
11 0.69
13 0.14
14 -0.14
15 -0.15
16 -0.15
17 -0.15
18 -0.15
19 -0.15
2 -0.66
3 -0.81
31 0.37
36 0.15
37 0.15
38 0.15
39 0.15
4 -0.73
40 0.15
5 0.3
6 0.27
7 0.3
8 0.27
9 0.3

> <PUBCHEM_EFFECTIVE_ROTOR_COUNT>
5.2

> <PUBCHEM_PHARMACOPHORE_FEATURES>
6
1 1 acceptor
1 3 cation
1 4 donor
5 2 4 5 9 11 rings
6 14 15 16 17 18 19 rings
6 2 3 5 6 7 8 rings

> <PUBCHEM_HEAVY_ATOM_COUNT>
19

> <PUBCHEM_ATOM_DEF_STEREO_COUNT>
1

> <PUBCHEM_ATOM_UDEF_STEREO_COUNT>
0

> <PUBCHEM_BOND_DEF_STEREO_COUNT>
0

> <PUBCHEM_BOND_UDEF_STEREO_COUNT>
0

> <PUBCHEM_ISOTOPIC_ATOM_COUNT>
0

> <PUBCHEM_COMPONENT_COUNT>
1

> <PUBCHEM_CACTVS_TAUTO_COUNT>
2

> <PUBCHEM_CONFORMER_ID>
047E086100000001

> <PUBCHEM_MMFF94_ENERGY>
39.8966

> <PUBCHEM_FEATURE_SELFOVERLAP>
30.542

> <PUBCHEM_SHAPE_FINGERPRINT>
10595046 47 18260831497092424820
10670039 82 13118557378413048598
11128504 68 17603303760989008924
11315181 36 18131354111132135528
11524674 6 16702303481809890759
11724838 91 9439107750981750344
11796584 16 18273216400489404590
12107183 9 17541935391342025712
12166972 35 18334862744071596940
12236239 1 18040716961091797940
12516196 113 17775564256540168616
12616971 3 14620511263585168593
12730499 353 15068625959670748680
12916748 109 13190337950922178878
13167823 11 18408600357832883082
13288520 33 18342175575060215721
13533116 47 18187643570905091298
13668630 136 18131358496989934110
1420 363 17418376891549271140
14251718 22 18335702758512816732
14251731 8 18343300357732209977
14251752 14 18336543828635751044
14528608 73 17749108898484183824
15183329 4 18409729534609855396
15348495 7 14620502471697572502
15575132 122 16805595937349056485
17834072 33 18260547822986755584
17844677 252 18343586260841860856
18927931 339 18342174497271565599
19489759 90 15195288612236633579
200 152 16271927107872353256
20374829 77 18202561778486843872
20645477 70 18260547780501592370
21150785 3 17313107483494877614
21267235 1 18337392742793144523
220451 1 18335143063690847441
221357 26 17603583019879023292
2215653 11 18060413603733270900
22224240 67 14261339247223594270
2297311 6 18413673521811244057
23035841 295 18410575076547969681
23175994 123 17060054874173425321
23198884 109 17603305951100427249
23402539 116 18341888580839747677
23522609 53 18125752120901065153
23536379 177 18260829280657029016
23559900 14 18200867474255894088
239999 70 17917711323482101848
2767999 5 12685090397532866022
29717793 49 18411424982378513430
300161 21 18260545637228314104
3004659 81 18408040689820012418
314173 85 16200153192430130440
32948 21 18411417298181244064
34797466 226 18201728405104033956
351380 3 18273212006468627374
4214541 1 18411416194005377305
44062 13 18059570351435141319
465052 167 17917715708327122340
5374978 207 10519985967997054920
542803 24 17603585222843434400
559249 180 18339637850114144970
59755656 215 18131354076978262014
8863177 126 18057883743632169187
960060 61 18260553325293503540

> <PUBCHEM_SHAPE_MULTIPOLES>
370.2
17.18
1.6
0.92
5.81
0.27
0.01
3.17
3.87
-1.1
0.01
0.95
-0.1
-0.36

> <PUBCHEM_SHAPE_SELFOVERLAP>
774.737

> <PUBCHEM_SHAPE_VOLUME>
210.2

> <PUBCHEM_COORDINATE_TYPE>
2
5
10

$$$$
