45783723
  -OEChem-12032416263D

 47 50  0     1  0  0  0  0  0999 V2000
   -0.0404   -2.7239    0.6177 O   0  0  0  0  0  0  0  0  0  0  0  0
    2.0326    1.3276   -0.2760 O   0  0  0  0  0  0  0  0  0  0  0  0
    0.0669    3.2626    0.0825 O   0  0  0  0  0  0  0  0  0  0  0  0
   -2.4546   -0.6297   -0.8892 N   0  0  0  0  0  0  0  0  0  0  0  0
    0.6726   -0.9820   -0.5964 N   0  0  0  0  0  0  0  0  0  0  0  0
   -2.8871   -0.8793    1.3780 N   0  0  0  0  0  0  0  0  0  0  0  0
   -3.9190    0.8798    0.0942 N   0  0  0  0  0  0  0  0  0  0  0  0
    1.2668   -2.4598    1.0458 N   0  0  0  0  0  0  0  0  0  0  0  0
    4.2913    1.1750    0.1736 N   0  0  0  0  0  0  0  0  0  0  0  0
   -1.6896   -1.8836   -0.9847 C   0  0  1  0  0  0  0  0  0  0  0  0
   -1.6081   -2.1372   -2.5004 C   0  0  0  0  0  0  0  0  0  0  0  0
   -1.6399   -0.7439   -3.1076 C   0  0  0  0  0  0  0  0  0  0  0  0
   -2.6004    0.0149   -2.1968 C   0  0  0  0  0  0  0  0  0  0  0  0
   -0.3116   -1.8092   -0.3498 C   0  0  0  0  0  0  0  0  0  0  0  0
   -3.1156   -0.1906    0.2435 C   0  0  0  0  0  0  0  0  0  0  0  0
    1.6189   -1.4200    0.2837 C   0  0  0  0  0  0  0  0  0  0  0  0
    2.9078   -0.7973    0.3758 C   0  0  0  0  0  0  0  0  0  0  0  0
   -4.5476    1.2812    1.2184 C   0  0  0  0  0  0  0  0  0  0  0  0
   -3.5475   -0.4240    2.4630 C   0  0  0  0  0  0  0  0  0  0  0  0
   -4.3987    0.6619    2.4427 C   0  0  0  0  0  0  0  0  0  0  0  0
    3.0962    0.5474    0.0996 C   0  0  0  0  0  0  0  0  0  0  0  0
    4.0172   -1.5460    0.7524 C   0  0  0  0  0  0  0  0  0  0  0  0
    5.2636   -0.9358    0.8399 C   0  0  0  0  0  0  0  0  0  0  0  0
    2.3078    2.6973   -0.5420 C   0  0  0  0  0  0  0  0  0  0  0  0
    5.3467    0.4150    0.5428 C   0  0  0  0  0  0  0  0  0  0  0  0
    1.0243    3.3874   -0.9621 C   0  0  0  0  0  0  0  0  0  0  0  0
   -1.1525    3.9122   -0.2487 C   0  0  0  0  0  0  0  0  0  0  0  0
   -2.2478   -2.7101   -0.5261 H   0  0  0  0  0  0  0  0  0  0  0  0
   -0.7257   -2.7079   -2.8067 H   0  0  0  0  0  0  0  0  0  0  0  0
   -2.4985   -2.6895   -2.8272 H   0  0  0  0  0  0  0  0  0  0  0  0
   -1.9662   -0.7426   -4.1514 H   0  0  0  0  0  0  0  0  0  0  0  0
   -0.6428   -0.2900   -3.0635 H   0  0  0  0  0  0  0  0  0  0  0  0
   -3.6305   -0.0958   -2.5552 H   0  0  0  0  0  0  0  0  0  0  0  0
   -2.3448    1.0792   -2.1628 H   0  0  0  0  0  0  0  0  0  0  0  0
   -5.1956    2.1436    1.1044 H   0  0  0  0  0  0  0  0  0  0  0  0
   -3.3672   -0.9748    3.3800 H   0  0  0  0  0  0  0  0  0  0  0  0
   -4.9153    1.0056    3.3287 H   0  0  0  0  0  0  0  0  0  0  0  0
    3.9425   -2.6072    0.9765 H   0  0  0  0  0  0  0  0  0  0  0  0
    6.1427   -1.4998    1.1298 H   0  0  0  0  0  0  0  0  0  0  0  0
    3.0452    2.7923   -1.3480 H   0  0  0  0  0  0  0  0  0  0  0  0
    2.6866    3.1740    0.3707 H   0  0  0  0  0  0  0  0  0  0  0  0
    6.2959    0.9380    0.5956 H   0  0  0  0  0  0  0  0  0  0  0  0
    1.2184    4.4456   -1.1688 H   0  0  0  0  0  0  0  0  0  0  0  0
    0.6249    2.9083   -1.8638 H   0  0  0  0  0  0  0  0  0  0  0  0
   -0.9883    4.9835   -0.3989 H   0  0  0  0  0  0  0  0  0  0  0  0
   -1.5927    3.4680   -1.1467 H   0  0  0  0  0  0  0  0  0  0  0  0
   -1.8499    3.7790    0.5827 H   0  0  0  0  0  0  0  0  0  0  0  0
  1  8  1  0  0  0  0
  1 14  1  0  0  0  0
  2 21  1  0  0  0  0
  2 24  1  0  0  0  0
  3 26  1  0  0  0  0
  3 27  1  0  0  0  0
  4 10  1  0  0  0  0
  4 13  1  0  0  0  0
  4 15  1  0  0  0  0
  5 14  2  0  0  0  0
  5 16  1  0  0  0  0
  6 15  2  0  0  0  0
  6 19  1  0  0  0  0
  7 15  1  0  0  0  0
  7 18  2  0  0  0  0
  8 16  2  0  0  0  0
  9 21  1  0  0  0  0
  9 25  2  0  0  0  0
 10 11  1  0  0  0  0
 10 14  1  0  0  0  0
 10 28  1  0  0  0  0
 11 12  1  0  0  0  0
 11 29  1  0  0  0  0
 11 30  1  0  0  0  0
 12 13  1  0  0  0  0
 12 31  1  0  0  0  0
 12 32  1  0  0  0  0
 13 33  1  0  0  0  0
 13 34  1  0  0  0  0
 16 17  1  0  0  0  0
 17 21  2  0  0  0  0
 17 22  1  0  0  0  0
 18 20  1  0  0  0  0
 18 35  1  0  0  0  0
 19 20  2  0  0  0  0
 19 36  1  0  0  0  0
 20 37  1  0  0  0  0
 22 23  2  0  0  0  0
 22 38  1  0  0  0  0
 23 25  1  0  0  0  0
 23 39  1  0  0  0  0
 24 26  1  0  0  0  0
 24 40  1  0  0  0  0
 24 41  1  0  0  0  0
 25 42  1  0  0  0  0
 26 43  1  0  0  0  0
 26 44  1  0  0  0  0
 27 45  1  0  0  0  0
 27 46  1  0  0  0  0
 27 47  1  0  0  0  0
M  END
> <PUBCHEM_COMPOUND_CID>
45783723

> <PUBCHEM_CONFORMER_RMSD>
1

> <PUBCHEM_CONFORMER_DIVERSEORDER>
1
53
3
38
11
63
61
16
54
14
2
31
52
55
22
42
32
29
56
34
59
10
39
17
13
51
26
60
40
37
45
4
33
48
58
20
6
12
47
7
44
5
24
30
28
21
27
25
18
35
50
46
23
8
57
43
9
15
19
41
62
36
49

> <PUBCHEM_MMFF94_PARTIAL_CHARGES>
31
1 -0.02
10 0.55
13 0.37
14 0.3
15 0.72
16 0.46
17 0.05
18 0.16
19 0.16
2 -0.36
20 -0.15
21 0.39
22 -0.15
23 -0.15
24 0.28
25 0.16
26 0.28
27 0.28
3 -0.56
35 0.15
36 0.15
37 0.15
38 0.15
39 0.15
4 -0.84
42 0.15
5 -0.57
6 -0.62
7 -0.62
8 -0.41
9 -0.62

> <PUBCHEM_EFFECTIVE_ROTOR_COUNT>
8

> <PUBCHEM_PHARMACOPHORE_FEATURES>
10
1 2 acceptor
1 3 acceptor
1 7 acceptor
1 9 acceptor
3 5 8 16 cation
4 4 6 7 15 cation
5 1 5 8 14 16 rings
5 4 10 11 12 13 rings
6 6 7 15 18 19 20 rings
6 9 17 21 22 23 25 rings

> <PUBCHEM_HEAVY_ATOM_COUNT>
27

> <PUBCHEM_ATOM_DEF_STEREO_COUNT>
1

> <PUBCHEM_ATOM_UDEF_STEREO_COUNT>
0

> <PUBCHEM_BOND_DEF_STEREO_COUNT>
0

> <PUBCHEM_BOND_UDEF_STEREO_COUNT>
0

> <PUBCHEM_ISOTOPIC_ATOM_COUNT>
0

> <PUBCHEM_COMPONENT_COUNT>
1

> <PUBCHEM_CACTVS_TAUTO_COUNT>
1

> <PUBCHEM_CONFORMER_ID>
02BA9AAB00000001

> <PUBCHEM_MMFF94_ENERGY>
71.8012

> <PUBCHEM_FEATURE_SELFOVERLAP>
50.801

> <PUBCHEM_SHAPE_FINGERPRINT>
10006869 2 17977093570558702617
10366900 7 17023447716568360911
10721379 63 15111650188862980703
11370993 144 17677049014923109187
11640471 11 17846776278617538939
12156800 1 17545923375692438292
12422481 6 18127699218743826144
12539773 59 17773321347124163029
12553582 1 18408881871897063012
12633257 1 18114197340709261779
13583140 156 16009569361767786194
13965767 371 17844260527203650457
14765038 42 18269285710776452304
14790565 3 17685783823801405516
14840074 17 18342464720205348312
15238133 3 18042421148222318653
17980427 23 17916859248946404992
18219364 16 17968645129195209398
20261772 1 18342176635653510904
21197605 99 17836363753669840053
25265897 201 16342038665061072420
3459 110 17895764018386545899
392239 28 18191324856178606667
445580 8 18272944803425804101
6438718 38 17917990598607512292

> <PUBCHEM_SHAPE_MULTIPOLES>
508.15
9.46
3.69
2.29
5.58
3.58
-0.78
0.83
5.53
0.49
-1
-3.53
-0.87
-1.74

> <PUBCHEM_SHAPE_SELFOVERLAP>
1094.697

> <PUBCHEM_SHAPE_VOLUME>
279.2

> <PUBCHEM_COORDINATE_TYPE>
2
5
10

$$$$
