11884103
  -OEChem-12032416283D

 61 64  0     1  0  0  0  0  0999 V2000
   -0.3426    2.1934    1.1588 O   0  0  0  0  0  0  0  0  0  0  0  0
   -1.5156    2.9607   -1.5687 O   0  0  0  0  0  0  0  0  0  0  0  0
    1.7958    1.9961   -0.6004 O   0  0  0  0  0  0  0  0  0  0  0  0
   -5.3644    1.6363    0.0415 O   0  0  0  0  0  0  0  0  0  0  0  0
    2.2863   -0.1799   -1.1043 O   0  0  0  0  0  0  0  0  0  0  0  0
   -3.3509    1.3372    1.1592 N   0  0  0  0  0  0  0  0  0  0  0  0
   -5.1377   -0.0317    1.6384 N   0  0  0  0  0  0  0  0  0  0  0  0
    3.8663    1.2406   -0.1216 N   0  0  0  0  0  0  0  0  0  0  0  0
   -1.8262    1.8800   -0.6644 C   0  0  1  0  0  0  0  0  0  0  0  0
   -0.5159    1.4325   -0.0483 C   0  0  1  0  0  0  0  0  0  0  0  0
   -2.6207    2.3992    0.5111 C   0  0  2  0  0  0  0  0  0  0  0  0
    0.4908    1.8212   -1.1042 C   0  0  1  0  0  0  0  0  0  0  0  0
   -1.5333    2.9540    1.4151 C   0  0  0  0  0  0  0  0  0  0  0  0
   -0.0900    3.1105   -1.6397 C   0  0  0  0  0  0  0  0  0  0  0  0
   -4.6809    1.0362    0.8701 C   0  0  0  0  0  0  0  0  0  0  0  0
    2.6352    0.9025   -0.6494 C   0  0  0  0  0  0  0  0  0  0  0  0
   -6.4820   -0.5493    1.5381 C   0  0  0  0  0  0  0  0  0  0  0  0
    5.0086    0.4199    0.0179 C   0  0  0  0  0  0  0  0  0  0  0  0
   -6.5891   -1.6394    0.5113 C   0  0  0  0  0  0  0  0  0  0  0  0
    4.9692   -0.9084   -0.4063 C   0  0  0  0  0  0  0  0  0  0  0  0
    6.1754    0.9386    0.5793 C   0  0  0  0  0  0  0  0  0  0  0  0
    7.2635   -1.1994    0.2929 C   0  0  0  0  0  0  0  0  0  0  0  0
    8.4691   -2.0645    0.4393 C   0  0  0  0  0  0  0  0  0  0  0  0
    6.0968   -1.7182   -0.2686 C   0  0  0  0  0  0  0  0  0  0  0  0
    7.3027    0.1290    0.7169 C   0  0  0  0  0  0  0  0  0  0  0  0
   -6.8922   -1.3227   -0.8130 C   0  0  0  0  0  0  0  0  0  0  0  0
   -6.3853   -2.9688    0.8813 C   0  0  0  0  0  0  0  0  0  0  0  0
    9.0079   -2.5585   -0.9169 C   0  0  0  0  0  0  0  0  0  0  0  0
    8.2229   -3.2656    1.3720 C   0  0  0  0  0  0  0  0  0  0  0  0
   -6.9915   -2.3353   -1.7672 C   0  0  0  0  0  0  0  0  0  0  0  0
   -6.4846   -3.9814   -0.0730 C   0  0  0  0  0  0  0  0  0  0  0  0
   -6.7877   -3.6646   -1.3972 C   0  0  0  0  0  0  0  0  0  0  0  0
   -2.3238    1.0953   -1.2430 H   0  0  0  0  0  0  0  0  0  0  0  0
   -0.4858    0.3724    0.2197 H   0  0  0  0  0  0  0  0  0  0  0  0
   -3.3260    3.1887    0.2300 H   0  0  0  0  0  0  0  0  0  0  0  0
    0.4634    1.0877   -1.9219 H   0  0  0  0  0  0  0  0  0  0  0  0
   -1.7748    2.9017    2.4812 H   0  0  0  0  0  0  0  0  0  0  0  0
   -1.3099    3.9966    1.1633 H   0  0  0  0  0  0  0  0  0  0  0  0
    0.2078    3.3030   -2.6749 H   0  0  0  0  0  0  0  0  0  0  0  0
    0.2046    3.9800   -1.0416 H   0  0  0  0  0  0  0  0  0  0  0  0
   -2.8555    0.7380    1.8129 H   0  0  0  0  0  0  0  0  0  0  0  0
   -4.4938   -0.4810    2.2824 H   0  0  0  0  0  0  0  0  0  0  0  0
    3.9665    2.1973    0.2086 H   0  0  0  0  0  0  0  0  0  0  0  0
   -6.7644   -0.9250    2.5282 H   0  0  0  0  0  0  0  0  0  0  0  0
   -7.1727    0.2684    1.3002 H   0  0  0  0  0  0  0  0  0  0  0  0
    4.1025   -1.3785   -0.8497 H   0  0  0  0  0  0  0  0  0  0  0  0
    6.2192    1.9720    0.9137 H   0  0  0  0  0  0  0  0  0  0  0  0
    9.2750   -1.4752    0.8978 H   0  0  0  0  0  0  0  0  0  0  0  0
    6.0451   -2.7499   -0.6053 H   0  0  0  0  0  0  0  0  0  0  0  0
    8.2035    0.5491    1.1564 H   0  0  0  0  0  0  0  0  0  0  0  0
   -7.0571   -0.2923   -1.1154 H   0  0  0  0  0  0  0  0  0  0  0  0
   -6.1469   -3.2283    1.9093 H   0  0  0  0  0  0  0  0  0  0  0  0
    8.2997   -3.2250   -1.4208 H   0  0  0  0  0  0  0  0  0  0  0  0
    9.9446   -3.1096   -0.7798 H   0  0  0  0  0  0  0  0  0  0  0  0
    9.2090   -1.7146   -1.5861 H   0  0  0  0  0  0  0  0  0  0  0  0
    7.4834   -3.9600    0.9591 H   0  0  0  0  0  0  0  0  0  0  0  0
    7.8594   -2.9306    2.3498 H   0  0  0  0  0  0  0  0  0  0  0  0
    9.1517   -3.8239    1.5317 H   0  0  0  0  0  0  0  0  0  0  0  0
   -7.2283   -2.0888   -2.7981 H   0  0  0  0  0  0  0  0  0  0  0  0
   -6.3255   -5.0165    0.2148 H   0  0  0  0  0  0  0  0  0  0  0  0
   -6.8651   -4.4530   -2.1401 H   0  0  0  0  0  0  0  0  0  0  0  0
  1 10  1  0  0  0  0
  1 13  1  0  0  0  0
  2  9  1  0  0  0  0
  2 14  1  0  0  0  0
  3 12  1  0  0  0  0
  3 16  1  0  0  0  0
  4 15  2  0  0  0  0
  5 16  2  0  0  0  0
  6 11  1  0  0  0  0
  6 15  1  0  0  0  0
  6 41  1  0  0  0  0
  7 15  1  0  0  0  0
  7 17  1  0  0  0  0
  7 42  1  0  0  0  0
  8 16  1  0  0  0  0
  8 18  1  0  0  0  0
  8 43  1  0  0  0  0
  9 10  1  0  0  0  0
  9 11  1  0  0  0  0
  9 33  1  0  0  0  0
 10 12  1  0  0  0  0
 10 34  1  0  0  0  0
 11 13  1  0  0  0  0
 11 35  1  0  0  0  0
 12 14  1  0  0  0  0
 12 36  1  0  0  0  0
 13 37  1  0  0  0  0
 13 38  1  0  0  0  0
 14 39  1  0  0  0  0
 14 40  1  0  0  0  0
 17 19  1  0  0  0  0
 17 44  1  0  0  0  0
 17 45  1  0  0  0  0
 18 20  2  0  0  0  0
 18 21  1  0  0  0  0
 19 26  2  0  0  0  0
 19 27  1  0  0  0  0
 20 24  1  0  0  0  0
 20 46  1  0  0  0  0
 21 25  2  0  0  0  0
 21 47  1  0  0  0  0
 22 23  1  0  0  0  0
 22 24  2  0  0  0  0
 22 25  1  0  0  0  0
 23 28  1  0  0  0  0
 23 29  1  0  0  0  0
 23 48  1  0  0  0  0
 24 49  1  0  0  0  0
 25 50  1  0  0  0  0
 26 30  1  0  0  0  0
 26 51  1  0  0  0  0
 27 31  2  0  0  0  0
 27 52  1  0  0  0  0
 28 53  1  0  0  0  0
 28 54  1  0  0  0  0
 28 55  1  0  0  0  0
 29 56  1  0  0  0  0
 29 57  1  0  0  0  0
 29 58  1  0  0  0  0
 30 32  2  0  0  0  0
 30 59  1  0  0  0  0
 31 32  1  0  0  0  0
 31 60  1  0  0  0  0
 32 61  1  0  0  0  0
M  END
> <PUBCHEM_COMPOUND_CID>
11884103

> <PUBCHEM_CONFORMER_RMSD>
1

> <PUBCHEM_CONFORMER_DIVERSEORDER>
1
70
42
157
172
94
115
96
131
99
112
67
173
25
121
117
65
105
87
101
34
197
32
178
114
148
90
169
84
51
184
181
152
74
91
142
192
168
123
113
29
36
125
4
57
177
77
134
127
35
176
159
106
190
194
147
78
166
170
58
30
161
185
138
69
119
24
165
144
98
171
187
191
189
130
59
9
124
193
199
10
75
175
72
76
182
102
137
135
146
174
200
41
63
52
128
132
133
183
48
108
60
50
22
140
86
126
136
163
61
49
156
141
179
79
62
80
95
196
143
151
46
92
116
198
13
68
37
64
103
26
12
188
88
54
27
118
111
31
153
155
6
18
7
66
56
82
186
23
71
81
38
19
55
139
3
73
107
53
104
158
5
28
45
97
145
17
150
16
149
120
164
33
39
83
43
20
44
129
85
162
21
40
100
47
110
89
109
15
167
180
154
2
93
122
11
160
8
195
14

> <PUBCHEM_MMFF94_PARTIAL_CHARGES>
42
1 -0.56
10 0.28
11 0.3
12 0.28
13 0.28
14 0.28
15 0.69
16 0.78
17 0.44
18 0.12
19 -0.14
2 -0.56
20 -0.15
21 -0.15
22 -0.14
23 0.14
24 -0.15
25 -0.15
26 -0.15
27 -0.15
3 -0.43
30 -0.15
31 -0.15
32 -0.15
4 -0.57
41 0.37
42 0.37
43 0.37
46 0.15
47 0.15
49 0.15
5 -0.57
50 0.15
51 0.15
52 0.15
59 0.15
6 -0.73
60 0.15
61 0.15
7 -0.73
8 -0.55
9 0.28

> <PUBCHEM_EFFECTIVE_ROTOR_COUNT>
11.2

> <PUBCHEM_PHARMACOPHORE_FEATURES>
12
1 1 acceptor
1 2 acceptor
1 4 acceptor
1 5 acceptor
1 6 donor
1 7 donor
1 8 donor
3 23 28 29 hydrophobe
5 1 9 10 11 13 rings
5 2 9 10 12 14 rings
6 18 20 21 22 24 25 rings
6 19 26 27 30 31 32 rings

> <PUBCHEM_HEAVY_ATOM_COUNT>
32

> <PUBCHEM_ATOM_DEF_STEREO_COUNT>
4

> <PUBCHEM_ATOM_UDEF_STEREO_COUNT>
0

> <PUBCHEM_BOND_DEF_STEREO_COUNT>
0

> <PUBCHEM_BOND_UDEF_STEREO_COUNT>
0

> <PUBCHEM_ISOTOPIC_ATOM_COUNT>
0

> <PUBCHEM_COMPONENT_COUNT>
1

> <PUBCHEM_CACTVS_TAUTO_COUNT>
6

> <PUBCHEM_CONFORMER_ID>
00B5564700000001

> <PUBCHEM_MMFF94_ENERGY>
83.8255

> <PUBCHEM_FEATURE_SELFOVERLAP>
61.664

> <PUBCHEM_SHAPE_FINGERPRINT>
10049733 167 15912182374654236135
10100884 174 18410292540551826762
10258705 36 17912938193283546014
11135609 201 9655305848034067373
11408170 132 8142087590076907274
11497681 19 18408604751890251980
11828042 74 17750231418331003933
11963148 33 18188206486457017938
12013929 27 17897446323339480687
12120059 9 18263622053134647368
12218070 45 18130791174570453695
12522641 68 17392463408592171797
12539747 164 18335419002798391245
12717326 120 18271259278540446470
13165053 182 9438817535526261262
13512321 179 12391217354306251706
13782708 43 18409448093967081328
14344974 204 18412267228943464830
14428016 167 18335136475596579018
14918687 75 18410011036533022874
14931854 50 16226047778017646912
15183329 4 12540698124037648432
15519825 34 18202843245211315066
16067689 391 18044942518213658419
16126227 98 10087641507096417667
16989713 51 18261956254226536140
16992727 255 8358260349734906406
16992779 147 17058914741304575576
16993427 108 18271805761261635217
16994733 274 9943803379044958924
17324776 126 17698990006460102111
18603816 31 18410578379984352065
19303781 99 18261117430535508003
19304152 47 12679196998719603995
20028762 73 18411986879242624910
2026 5 18333450945999463603
21424621 283 10303818682977758101
21585483 132 18262789787410606611
21987483 16 18056474182483252763
22864921 47 18342738546008659967
23389318 12 17967819396817370236
23569943 247 18196379328939590051
24983565 74 18117831110971584522
25025965 108 17751067021710033634
2747138 104 17203338796972550992
3504750 166 18337112272364676941
393628 194 10375576105961979442
406291 66 18410293639983865047
4173938 188 13254793552522225509
4339292 15 17894627020996022258
44802255 64 12396592822818428849
4516262 110 10375603555957564129
45377200 153 17845950605894547414
4616759 239 17274549733108258545
4756088 132 17395847675165032346
50009960 94 17773873276592377847
5718773 13 18409166631769257608
5719381 36 18261105228164558258
57634706 229 11527941287723562364
5937810 71 8070027774596862067
636775 72 9871451115806747710
6703917 75 10303805502018921901
6712543 237 17632028472379454855
96874 4 18340205297341573255
9689198 14 9583527533474304753
9962374 69 18114183043433273164
9980921 221 14129331863116361335

> <PUBCHEM_SHAPE_MULTIPOLES>
614.26
29.82
4.87
1.53
27.33
2.07
0.07
39.91
-3.09
-5.04
0.72
-1.73
-0.1
-2.4

> <PUBCHEM_SHAPE_SELFOVERLAP>
1310.67

> <PUBCHEM_SHAPE_VOLUME>
341.4

> <PUBCHEM_COORDINATE_TYPE>
2
5
10

$$$$
