45783983
  -OEChem-12032416253D

 76 79  0     1  0  0  0  0  0999 V2000
   -2.5925    1.1686    0.9218 O   0  0  0  0  0  0  0  0  0  0  0  0
    7.5629   -2.3338    0.4290 O   0  0  0  0  0  0  0  0  0  0  0  0
    3.9257   -0.6256    0.2005 N   0  0  0  0  0  0  0  0  0  0  0  0
   -2.8699    3.2748    0.2206 N   0  0  0  0  0  0  0  0  0  0  0  0
    6.7125   -4.3606    1.1092 N   0  0  0  0  0  0  0  0  0  0  0  0
   -3.9820    2.5475   -0.1609 N   0  0  0  0  0  0  0  0  0  0  0  0
   -6.9803   -3.2901   -0.1609 N   0  0  0  0  0  0  0  0  0  0  0  0
    1.9544    1.2361   -0.9143 C   0  0  1  0  0  0  0  0  0  0  0  0
    3.1493    1.6995   -0.0488 C   0  0  2  0  0  0  0  0  0  0  0  0
    0.6445    1.3346   -0.1199 C   0  0  0  0  0  0  0  0  0  0  0  0
    0.3648    2.7516    0.4250 C   0  0  2  0  0  0  0  0  0  0  0  0
    1.8703    2.0319   -2.2240 C   0  0  0  0  0  0  0  0  0  0  0  0
    3.6025    0.6049    0.9228 C   0  0  0  0  0  0  0  0  0  0  0  0
    2.8494    2.9572    0.7263 C   0  0  0  0  0  0  0  0  0  0  0  0
    1.6151    3.4497    0.9384 C   0  0  0  0  0  0  0  0  0  0  0  0
   -0.7435    2.6599    1.4813 C   0  0  0  0  0  0  0  0  0  0  0  0
    5.2291   -0.5026   -0.4644 C   0  0  0  0  0  0  0  0  0  0  0  0
    3.9095   -1.7755    1.1137 C   0  0  0  0  0  0  0  0  0  0  0  0
    5.4609   -3.0383   -0.4698 C   0  0  0  0  0  0  0  0  0  0  0  0
    5.5473   -1.7520   -1.2902 C   0  0  0  0  0  0  0  0  0  0  0  0
    4.1826   -3.0842    0.3664 C   0  0  0  0  0  0  0  0  0  0  0  0
    0.4858    1.8861   -2.8471 C   0  0  0  0  0  0  0  0  0  0  0  0
    2.9522    1.5725   -3.1962 C   0  0  0  0  0  0  0  0  0  0  0  0
    1.4348    4.7611    1.6527 C   0  0  0  0  0  0  0  0  0  0  0  0
   -2.0863    2.4300    0.8492 C   0  0  0  0  0  0  0  0  0  0  0  0
    6.6798   -3.1871    0.3936 C   0  0  0  0  0  0  0  0  0  0  0  0
   -3.7766    1.3245    0.2691 C   0  0  0  0  0  0  0  0  0  0  0  0
   -4.5921    0.1498    0.1595 C   0  0  0  0  0  0  0  0  0  0  0  0
   -5.8235    0.2139   -0.4926 C   0  0  0  0  0  0  0  0  0  0  0  0
   -4.1536   -1.0568    0.7048 C   0  0  0  0  0  0  0  0  0  0  0  0
   -6.6164   -0.9286   -0.5993 C   0  0  0  0  0  0  0  0  0  0  0  0
   -4.9464   -2.1994    0.5982 C   0  0  0  0  0  0  0  0  0  0  0  0
   -6.1779   -2.1353   -0.0539 C   0  0  0  0  0  0  0  0  0  0  0  0
   -8.2618   -3.2335   -0.8356 C   0  0  0  0  0  0  0  0  0  0  0  0
   -6.5306   -4.5507    0.3956 C   0  0  0  0  0  0  0  0  0  0  0  0
    2.0668    0.1809   -1.1932 H   0  0  0  0  0  0  0  0  0  0  0  0
    3.9912    1.9603   -0.6967 H   0  0  0  0  0  0  0  0  0  0  0  0
    0.7265    0.6422    0.7302 H   0  0  0  0  0  0  0  0  0  0  0  0
   -0.2135    0.9477   -0.6795 H   0  0  0  0  0  0  0  0  0  0  0  0
    0.0012    3.3815   -0.3972 H   0  0  0  0  0  0  0  0  0  0  0  0
    2.0295    3.1011   -2.0363 H   0  0  0  0  0  0  0  0  0  0  0  0
    2.7916    0.4156    1.6390 H   0  0  0  0  0  0  0  0  0  0  0  0
    4.4560    0.9447    1.5263 H   0  0  0  0  0  0  0  0  0  0  0  0
    3.7122    3.4945    1.1145 H   0  0  0  0  0  0  0  0  0  0  0  0
   -0.8404    3.5924    2.0476 H   0  0  0  0  0  0  0  0  0  0  0  0
   -0.5302    1.8755    2.2178 H   0  0  0  0  0  0  0  0  0  0  0  0
    6.0246   -0.3128    0.2665 H   0  0  0  0  0  0  0  0  0  0  0  0
    5.2383    0.3399   -1.1625 H   0  0  0  0  0  0  0  0  0  0  0  0
    4.6451   -1.6463    1.9184 H   0  0  0  0  0  0  0  0  0  0  0  0
    2.9234   -1.8613    1.5869 H   0  0  0  0  0  0  0  0  0  0  0  0
    5.4649   -3.8920   -1.1607 H   0  0  0  0  0  0  0  0  0  0  0  0
    4.8219   -1.8166   -2.1129 H   0  0  0  0  0  0  0  0  0  0  0  0
    6.5316   -1.6428   -1.7617 H   0  0  0  0  0  0  0  0  0  0  0  0
    4.1787   -3.9113    1.0840 H   0  0  0  0  0  0  0  0  0  0  0  0
    3.3388   -3.2724   -0.3119 H   0  0  0  0  0  0  0  0  0  0  0  0
   -0.2996    2.4176   -2.3056 H   0  0  0  0  0  0  0  0  0  0  0  0
    0.4846    2.3171   -3.8558 H   0  0  0  0  0  0  0  0  0  0  0  0
    0.1987    0.8340   -2.9550 H   0  0  0  0  0  0  0  0  0  0  0  0
    2.8692    0.5013   -3.4104 H   0  0  0  0  0  0  0  0  0  0  0  0
    3.9597    1.7655   -2.8192 H   0  0  0  0  0  0  0  0  0  0  0  0
    2.8641    2.1065   -4.1490 H   0  0  0  0  0  0  0  0  0  0  0  0
    1.0430    4.6052    2.6623 H   0  0  0  0  0  0  0  0  0  0  0  0
    2.3802    5.3062    1.7507 H   0  0  0  0  0  0  0  0  0  0  0  0
    0.7470    5.4079    1.0983 H   0  0  0  0  0  0  0  0  0  0  0  0
    5.9998   -5.0778    1.0245 H   0  0  0  0  0  0  0  0  0  0  0  0
    7.4893   -4.5687    1.7280 H   0  0  0  0  0  0  0  0  0  0  0  0
   -6.1846    1.1440   -0.9250 H   0  0  0  0  0  0  0  0  0  0  0  0
   -3.2002   -1.1457    1.2196 H   0  0  0  0  0  0  0  0  0  0  0  0
   -7.5657   -0.8272   -1.1159 H   0  0  0  0  0  0  0  0  0  0  0  0
   -4.5615   -3.1137    1.0388 H   0  0  0  0  0  0  0  0  0  0  0  0
   -8.9408   -2.5322   -0.3377 H   0  0  0  0  0  0  0  0  0  0  0  0
   -8.1436   -2.9473   -1.8866 H   0  0  0  0  0  0  0  0  0  0  0  0
   -8.7643   -4.2073   -0.8328 H   0  0  0  0  0  0  0  0  0  0  0  0
   -7.2610   -5.3503    0.2293 H   0  0  0  0  0  0  0  0  0  0  0  0
   -6.3913   -4.4774    1.4800 H   0  0  0  0  0  0  0  0  0  0  0  0
   -5.5967   -4.8799   -0.0735 H   0  0  0  0  0  0  0  0  0  0  0  0
  1 25  1  0  0  0  0
  1 27  1  0  0  0  0
  2 26  2  0  0  0  0
  3 13  1  0  0  0  0
  3 17  1  0  0  0  0
  3 18  1  0  0  0  0
  4  6  1  0  0  0  0
  4 25  2  0  0  0  0
  5 26  1  0  0  0  0
  5 65  1  0  0  0  0
  5 66  1  0  0  0  0
  6 27  2  0  0  0  0
  7 33  1  0  0  0  0
  7 34  1  0  0  0  0
  7 35  1  0  0  0  0
  8  9  1  0  0  0  0
  8 10  1  0  0  0  0
  8 12  1  0  0  0  0
  8 36  1  0  0  0  0
  9 13  1  0  0  0  0
  9 14  1  0  0  0  0
  9 37  1  0  0  0  0
 10 11  1  0  0  0  0
 10 38  1  0  0  0  0
 10 39  1  0  0  0  0
 11 15  1  0  0  0  0
 11 16  1  0  0  0  0
 11 40  1  0  0  0  0
 12 22  1  0  0  0  0
 12 23  1  0  0  0  0
 12 41  1  0  0  0  0
 13 42  1  0  0  0  0
 13 43  1  0  0  0  0
 14 15  2  0  0  0  0
 14 44  1  0  0  0  0
 15 24  1  0  0  0  0
 16 25  1  0  0  0  0
 16 45  1  0  0  0  0
 16 46  1  0  0  0  0
 17 20  1  0  0  0  0
 17 47  1  0  0  0  0
 17 48  1  0  0  0  0
 18 21  1  0  0  0  0
 18 49  1  0  0  0  0
 18 50  1  0  0  0  0
 19 20  1  0  0  0  0
 19 21  1  0  0  0  0
 19 26  1  0  0  0  0
 19 51  1  0  0  0  0
 20 52  1  0  0  0  0
 20 53  1  0  0  0  0
 21 54  1  0  0  0  0
 21 55  1  0  0  0  0
 22 56  1  0  0  0  0
 22 57  1  0  0  0  0
 22 58  1  0  0  0  0
 23 59  1  0  0  0  0
 23 60  1  0  0  0  0
 23 61  1  0  0  0  0
 24 62  1  0  0  0  0
 24 63  1  0  0  0  0
 24 64  1  0  0  0  0
 27 28  1  0  0  0  0
 28 29  2  0  0  0  0
 28 30  1  0  0  0  0
 29 31  1  0  0  0  0
 29 67  1  0  0  0  0
 30 32  2  0  0  0  0
 30 68  1  0  0  0  0
 31 33  2  0  0  0  0
 31 69  1  0  0  0  0
 32 33  1  0  0  0  0
 32 70  1  0  0  0  0
 34 71  1  0  0  0  0
 34 72  1  0  0  0  0
 34 73  1  0  0  0  0
 35 74  1  0  0  0  0
 35 75  1  0  0  0  0
 35 76  1  0  0  0  0
M  END
> <PUBCHEM_COMPOUND_CID>
45783983

> <PUBCHEM_CONFORMER_RMSD>
1

> <PUBCHEM_CONFORMER_DIVERSEORDER>
43
14
17
20
105
166
170
38
174
48
34
50
46
98
132
151
26
74
193
157
109
197
92
15
153
24
45
141
6
177
61
134
122
108
10
110
19
202
145
171
63
129
28
80
39
55
66
201
127
133
27
163
204
111
87
121
117
57
186
198
113
165
51
95
116
90
112
179
54
96
178
148
72
152
47
192
91
205
183
44
173
189
140
194
97
181
30
78
94
144
100
150
56
58
137
190
161
114
70
52
31
67
125
77
172
40
176
136
120
103
11
164
139
155
49
119
118
159
104
81
16
22
195
162
135
106
99
188
18
8
86
208
36
82
84
160
169
200
185
154
206
68
128
88
75
59
175
60
64
23
196
207
102
32
191
101
53
7
156
203
89
2
107
71
126
35
13
130
29
37
76
158
142
83
182
69
42
85
147
187
65
12
184
33
73
93
199
21
143
9
123
115
4
62
180
25
167
149
138
3
5
41
124
131
146
1
79
168

> <PUBCHEM_MMFF94_PARTIAL_CHARGES>
35
1 -0.28
11 0.14
13 0.27
14 -0.29
15 -0.28
16 0.18
17 0.27
18 0.27
19 0.06
2 -0.57
24 0.14
25 0.3
26 0.57
27 0.43
28 0.05
29 -0.15
3 -0.81
30 -0.15
31 -0.15
32 -0.15
33 0.1
34 0.37
35 0.37
4 -0.34
44 0.15
5 -0.8
6 -0.34
65 0.37
66 0.37
67 0.15
68 0.15
69 0.15
7 -0.84
70 0.15
9 0.14

> <PUBCHEM_EFFECTIVE_ROTOR_COUNT>
10

> <PUBCHEM_PHARMACOPHORE_FEATURES>
9
1 2 acceptor
1 3 cation
1 5 donor
1 7 cation
3 12 22 23 hydrophobe
5 1 4 6 25 27 rings
6 28 29 30 31 32 33 rings
6 3 17 18 19 20 21 rings
6 8 9 10 11 14 15 rings

> <PUBCHEM_HEAVY_ATOM_COUNT>
35

> <PUBCHEM_ATOM_DEF_STEREO_COUNT>
3

> <PUBCHEM_ATOM_UDEF_STEREO_COUNT>
0

> <PUBCHEM_BOND_DEF_STEREO_COUNT>
0

> <PUBCHEM_BOND_UDEF_STEREO_COUNT>
0

> <PUBCHEM_ISOTOPIC_ATOM_COUNT>
0

> <PUBCHEM_COMPONENT_COUNT>
1

> <PUBCHEM_CACTVS_TAUTO_COUNT>
2

> <PUBCHEM_CONFORMER_ID>
02BA9BAF0000002B

> <PUBCHEM_MMFF94_ENERGY>
84.975

> <PUBCHEM_FEATURE_SELFOVERLAP>
45.671

> <PUBCHEM_SHAPE_FINGERPRINT>
10169797 241 18057338373032209399
10622 236 18334296452786151863
10985338 8 8430315706379599308
11135609 99 18341891862342227686
11409948 35 18269832181821287675
11497681 19 18335709278943033542
117089 54 18342179946699236827
11963148 33 18054784245917174039
12166972 35 18334017185317103925
12422481 6 16342851032904070364
12758862 65 17346593067285239018
131258 38 18266167525553231142
1361 4 18411418457727208601
13782708 43 18408321099191354589
13947947 140 18338522945714359919
14068700 675 18263648364489573784
14664723 55 7925639937707558583
15950262 2 10087640407532003797
16990366 60 18411128118244286074
17492 89 18412542132735951825
18393751 57 17409628283707926177
19303781 99 18341034281511166967
19304671 126 15285647637274304263
19315092 285 18059863921356054625
208703 8 18412256229574203051
21130935 74 18126566958956081131
21315764 119 18113610193411663685
22956985 138 18341326769232690320
23559900 14 18411974763393422097
23569914 2 14059285435282035782
23569943 247 18412547631212346179
24893989 43 17413878961057738759
25222932 49 18201161069604089492
260245 28 18118682119448283883
2748736 6 8502375495061315371
2838139 119 8645613299044435888
32027 91 18413101780281424609
3504750 166 17759524374929555376
4017518 198 16679789537752776284
437795 139 18410862022985915830
439807 62 18411421748183808245
4756088 132 17981313810094441727
49967989 163 18053676771947896444
50009960 94 18343009000088771879
5104073 3 17775575251540857025
5718773 13 18413386540554350819
7808743 9 8430302520550756721
7970288 3 18268429032093024162
96874 4 18335420127963595782
9831232 110 17904199575549731879

> <PUBCHEM_SHAPE_MULTIPOLES>
683.64
20.88
6.64
1.8
20.19
2.07
-1.66
35.2
-0.53
-2.39
2.31
-1.9
-1.49
-1.61

> <PUBCHEM_SHAPE_SELFOVERLAP>
1438.486

> <PUBCHEM_SHAPE_VOLUME>
384.4

> <PUBCHEM_COORDINATE_TYPE>
2
5
10

$$$$
