75537062
  -OEChem-12032416303D

 44 47  0     1  0  0  0  0  0999 V2000
   -2.8551   -2.3937   -0.1552 O   0  0  0  0  0  0  0  0  0  0  0  0
   -0.6976   -1.5196   -0.2771 N   0  0  0  0  0  0  0  0  0  0  0  0
    2.0672   -1.2755    0.1840 N   0  0  2  0  0  0  0  0  0  0  0  0
   -2.4080   -0.0423   -0.1381 N   0  0  0  0  0  0  0  0  0  0  0  0
    5.4374    1.6238   -0.0555 N   0  0  0  0  0  0  0  0  0  0  0  0
    5.8117    0.7600   -1.0146 N   0  0  0  0  0  0  0  0  0  0  0  0
   -0.0712   -0.2315   -0.4401 C   0  0  2  0  0  0  0  0  0  0  0  0
    1.1761   -0.1254    0.4364 C   0  0  0  0  0  0  0  0  0  0  0  0
   -1.1843    0.7507   -0.0951 C   0  0  0  0  0  0  0  0  0  0  0  0
    0.1162   -2.7160   -0.3555 C   0  0  0  0  0  0  0  0  0  0  0  0
    1.3817   -2.5473    0.4885 C   0  0  0  0  0  0  0  0  0  0  0  0
   -2.0966   -1.4337   -0.1919 C   0  0  0  0  0  0  0  0  0  0  0  0
    3.2921   -1.1541    0.9741 C   0  0  0  0  0  0  0  0  0  0  0  0
   -3.7029    0.5453   -0.0499 C   0  0  0  0  0  0  0  0  0  0  0  0
    4.2488   -0.1573    0.3759 C   0  0  0  0  0  0  0  0  0  0  0  0
   -4.8359   -0.2673   -0.0073 C   0  0  0  0  0  0  0  0  0  0  0  0
   -3.8378    1.9328   -0.0062 C   0  0  0  0  0  0  0  0  0  0  0  0
    4.5032    1.1231    0.8031 C   0  0  0  0  0  0  0  0  0  0  0  0
    5.0824   -0.3262   -0.7460 C   0  0  0  0  0  0  0  0  0  0  0  0
   -6.1039    0.3079    0.0788 C   0  0  0  0  0  0  0  0  0  0  0  0
   -5.1056    2.5080    0.0799 C   0  0  0  0  0  0  0  0  0  0  0  0
   -6.2386    1.6955    0.1224 C   0  0  0  0  0  0  0  0  0  0  0  0
    6.0207    2.9429   -0.0107 C   0  0  0  0  0  0  0  0  0  0  0  0
    0.1973   -0.1382   -1.5008 H   0  0  0  0  0  0  0  0  0  0  0  0
    1.6731    0.8217    0.1993 H   0  0  0  0  0  0  0  0  0  0  0  0
    0.8935   -0.0924    1.4975 H   0  0  0  0  0  0  0  0  0  0  0  0
   -1.0762    1.1663    0.9130 H   0  0  0  0  0  0  0  0  0  0  0  0
   -1.2119    1.5603   -0.8315 H   0  0  0  0  0  0  0  0  0  0  0  0
    0.3735   -2.8652   -1.4105 H   0  0  0  0  0  0  0  0  0  0  0  0
   -0.4682   -3.5804   -0.0248 H   0  0  0  0  0  0  0  0  0  0  0  0
    1.1172   -2.5868    1.5537 H   0  0  0  0  0  0  0  0  0  0  0  0
    2.0453   -3.3956    0.2822 H   0  0  0  0  0  0  0  0  0  0  0  0
    3.0795   -0.9043    2.0220 H   0  0  0  0  0  0  0  0  0  0  0  0
    3.8242   -2.1154    0.9922 H   0  0  0  0  0  0  0  0  0  0  0  0
   -4.8041   -1.3476   -0.0383 H   0  0  0  0  0  0  0  0  0  0  0  0
   -2.9843    2.6029   -0.0301 H   0  0  0  0  0  0  0  0  0  0  0  0
    4.1061    1.7032    1.6250 H   0  0  0  0  0  0  0  0  0  0  0  0
    5.1900   -1.1945   -1.3805 H   0  0  0  0  0  0  0  0  0  0  0  0
   -6.9869   -0.3238    0.1119 H   0  0  0  0  0  0  0  0  0  0  0  0
   -5.2112    3.5884    0.1154 H   0  0  0  0  0  0  0  0  0  0  0  0
   -7.2258    2.1434    0.1898 H   0  0  0  0  0  0  0  0  0  0  0  0
    7.1009    2.8372    0.1162 H   0  0  0  0  0  0  0  0  0  0  0  0
    5.7915    3.4523   -0.9500 H   0  0  0  0  0  0  0  0  0  0  0  0
    5.5990    3.5008    0.8290 H   0  0  0  0  0  0  0  0  0  0  0  0
  1 12  2  0  0  0  0
  2  7  1  0  0  0  0
  2 10  1  0  0  0  0
  2 12  1  0  0  0  0
  3  8  1  0  0  0  0
  3 11  1  0  0  0  0
  3 13  1  0  0  0  0
  4  9  1  0  0  0  0
  4 12  1  0  0  0  0
  4 14  1  0  0  0  0
  5  6  1  0  0  0  0
  5 18  1  0  0  0  0
  5 23  1  0  0  0  0
  6 19  2  0  0  0  0
  7  8  1  0  0  0  0
  7  9  1  0  0  0  0
  7 24  1  0  0  0  0
  8 25  1  0  0  0  0
  8 26  1  0  0  0  0
  9 27  1  0  0  0  0
  9 28  1  0  0  0  0
 10 11  1  0  0  0  0
 10 29  1  0  0  0  0
 10 30  1  0  0  0  0
 11 31  1  0  0  0  0
 11 32  1  0  0  0  0
 13 15  1  0  0  0  0
 13 33  1  0  0  0  0
 13 34  1  0  0  0  0
 14 16  2  0  0  0  0
 14 17  1  0  0  0  0
 15 18  2  0  0  0  0
 15 19  1  0  0  0  0
 16 20  1  0  0  0  0
 16 35  1  0  0  0  0
 17 21  2  0  0  0  0
 17 36  1  0  0  0  0
 18 37  1  0  0  0  0
 19 38  1  0  0  0  0
 20 22  2  0  0  0  0
 20 39  1  0  0  0  0
 21 22  1  0  0  0  0
 21 40  1  0  0  0  0
 22 41  1  0  0  0  0
 23 42  1  0  0  0  0
 23 43  1  0  0  0  0
 23 44  1  0  0  0  0
M  END
> <PUBCHEM_COMPOUND_CID>
75537062

> <PUBCHEM_CONFORMER_RMSD>
0.8

> <PUBCHEM_CONFORMER_DIVERSEORDER>
2
24
20
7
18
6
11
9
5
19
15
13
21
14
10
8
16
12
22
23
17
3
4
1

> <PUBCHEM_MMFF94_PARTIAL_CHARGES>
30
1 -0.57
10 0.3
11 0.27
12 0.69
13 0.45
14 0.12
15 -0.18
16 -0.15
17 -0.15
18 -0.3
19 0.14
2 -0.66
20 -0.15
21 -0.15
22 -0.15
23 0.26
3 -0.81
35 0.15
36 0.15
37 0.15
38 0.15
39 0.15
4 -0.48
40 0.15
41 0.15
5 0.31
6 -0.71
7 0.3
8 0.27
9 0.3

> <PUBCHEM_EFFECTIVE_ROTOR_COUNT>
4.2

> <PUBCHEM_PHARMACOPHORE_FEATURES>
7
1 1 acceptor
1 3 cation
1 6 acceptor
5 2 4 7 9 12 rings
5 5 6 15 18 19 rings
6 14 16 17 20 21 22 rings
6 2 3 7 8 10 11 rings

> <PUBCHEM_HEAVY_ATOM_COUNT>
23

> <PUBCHEM_ATOM_DEF_STEREO_COUNT>
1

> <PUBCHEM_ATOM_UDEF_STEREO_COUNT>
0

> <PUBCHEM_BOND_DEF_STEREO_COUNT>
0

> <PUBCHEM_BOND_UDEF_STEREO_COUNT>
0

> <PUBCHEM_ISOTOPIC_ATOM_COUNT>
0

> <PUBCHEM_COMPONENT_COUNT>
1

> <PUBCHEM_CACTVS_TAUTO_COUNT>
1

> <PUBCHEM_CONFORMER_ID>
04809AA600000002

> <PUBCHEM_MMFF94_ENERGY>
56.9517

> <PUBCHEM_FEATURE_SELFOVERLAP>
35.615

> <PUBCHEM_SHAPE_FINGERPRINT>
10 15 18186805790025264913
10280341 67 18054218007159488736
10411042 1 17618783995861998247
10493431 412 18407759244238302647
10554248 39 18193257625473164279
10670039 82 17774448170412259328
10693767 8 8573843738314669801
10906281 52 18059868225171461697
11796584 16 13182726044433701548
12236239 1 18186802473909695763
12390115 104 18341905098951535339
12422481 6 17168140096587639476
12516196 113 8142079862465260382
12596602 18 17603866672456640841
12760667 363 8502654805506195617
12788726 201 17632015217693674865
13540713 5 18266436807049872474
13782708 43 12031490100301598445
13785724 45 17689429391694142962
13885169 86 18336272335342871552
13955234 65 18041836187084239162
14020679 6 17458350783386039601
14211702 104 9439398064326754309
14251732 16 18333452054084421843
14257110 125 18409729560558935796
14341114 328 17603300457969319650
14347332 77 10303816471148403635
14528608 73 18412823573173159948
1454969 45 18413101780550216247
14790565 3 18411139121338567944
14840074 17 17749113304883519828
15142526 21 18113898294863237058
15183329 4 15267344007035040716
15196674 1 18339640015373813027
15475509 35 15864904302177703170
15961568 22 18261959544071868597
17980427 23 18186804707899462415
18222031 100 9799691524016822090
19611394 137 18042139802759213955
19784866 170 18335141960206206851
20281389 69 18333730195554990121
20374829 77 9151165459576879203
20642791 178 17969513782067825124
21033648 29 18271236240113817672
21304253 335 18261115196819841428
22079108 93 17022905661545997250
23272321 79 18410572873382681929
23559900 14 18057036904957141270
245318 6 17751095788857740812
25122255 55 8862950502004761128
270888 7 18410009974990305016
2747138 104 17972050394053331883
2838139 119 18411411787326415422
293599 30 18412545409600436198
3472631 163 18340771528734210260
34797466 226 18060145335759864229
350125 39 18339641243739422649
4340502 62 16732985305889174674
5104073 3 18040990765716023538
550186 72 18408318878999886893
56616090 163 18342742892367980534
59682541 35 18260561039360697041
59682541 52 16128377017344369220
633830 44 18412537713573306950
636775 72 18125154090509422936
7808743 9 18411412942704506962
7970288 3 9439407921556292828
8988823 20 12757158986977378262
960060 61 12967122848440682392

> <PUBCHEM_SHAPE_MULTIPOLES>
442.55
16.23
2.95
0.78
1.58
0.02
-0.02
-13.59
0.48
0.82
-0.02
0.65
0.03
-0.45

> <PUBCHEM_SHAPE_SELFOVERLAP>
953.451

> <PUBCHEM_SHAPE_VOLUME>
244.8

> <PUBCHEM_COORDINATE_TYPE>
2
5
10

$$$$
