26742380
  -OEChem-12032416183D

 57 60  0     1  0  0  0  0  0999 V2000
   -5.5454    0.5404    1.6826 O   0  0  0  0  0  0  0  0  0  0  0  0
   -1.7425   -2.0033    1.2659 N   0  0  2  0  0  0  0  0  0  0  0  0
   -3.6069    1.1873    0.5767 N   0  0  0  0  0  0  0  0  0  0  0  0
    0.9793   -0.0814   -1.8517 N   0  0  0  0  0  0  0  0  0  0  0  0
    3.0787    1.0490   -1.5016 N   0  0  0  0  0  0  0  0  0  0  0  0
   -5.6261    2.1756    0.0384 N   0  0  0  0  0  0  0  0  0  0  0  0
   -1.0779   -1.9857   -1.2523 C   0  0  2  0  0  0  0  0  0  0  0  0
    0.1835   -1.8453   -0.3559 C   0  0  2  0  0  0  0  0  0  0  0  0
   -2.5831   -1.0261    0.5251 C   0  0  2  0  0  0  0  0  0  0  0  0
   -2.0688   -0.8502   -0.9198 C   0  0  0  0  0  0  0  0  0  0  0  0
   -1.7597   -3.3130   -0.8566 C   0  0  0  0  0  0  0  0  0  0  0  0
   -0.3069   -1.6609    1.1087 C   0  0  0  0  0  0  0  0  0  0  0  0
   -1.9673   -3.3412    0.6678 C   0  0  0  0  0  0  0  0  0  0  0  0
   -2.7006    0.3133    1.2556 C   0  0  0  0  0  0  0  0  0  0  0  0
    1.2324   -0.8144   -0.7477 C   0  0  0  0  0  0  0  0  0  0  0  0
    2.3703   -0.6757    0.0205 C   0  0  0  0  0  0  0  0  0  0  0  0
    3.2675    0.2812   -0.4084 C   0  0  0  0  0  0  0  0  0  0  0  0
    1.9306    0.8185   -2.1666 C   0  0  0  0  0  0  0  0  0  0  0  0
   -4.9808    1.2388    0.8416 C   0  0  0  0  0  0  0  0  0  0  0  0
    4.4976    0.5235    0.3069 C   0  0  0  0  0  0  0  0  0  0  0  0
    1.6873    1.6469   -3.3825 C   0  0  0  0  0  0  0  0  0  0  0  0
   -7.0464    2.4247    0.1133 C   0  0  0  0  0  0  0  0  0  0  0  0
    4.4601    0.9299    1.6407 C   0  0  0  0  0  0  0  0  0  0  0  0
    5.7235    0.3513   -0.3355 C   0  0  0  0  0  0  0  0  0  0  0  0
    5.6487    1.1642    2.3322 C   0  0  0  0  0  0  0  0  0  0  0  0
    6.9121    0.5855    0.3558 C   0  0  0  0  0  0  0  0  0  0  0  0
   -7.8341    1.3748   -0.6428 C   0  0  0  0  0  0  0  0  0  0  0  0
    6.8747    0.9920    1.6897 C   0  0  0  0  0  0  0  0  0  0  0  0
   -0.8267   -1.9880   -2.3182 H   0  0  0  0  0  0  0  0  0  0  0  0
    0.7123   -2.8095   -0.4136 H   0  0  0  0  0  0  0  0  0  0  0  0
   -3.6022   -1.4377    0.4728 H   0  0  0  0  0  0  0  0  0  0  0  0
   -1.5816    0.1209   -1.0616 H   0  0  0  0  0  0  0  0  0  0  0  0
   -2.9165   -0.8870   -1.6153 H   0  0  0  0  0  0  0  0  0  0  0  0
   -1.1440   -4.1663   -1.1641 H   0  0  0  0  0  0  0  0  0  0  0  0
   -2.7235   -3.4052   -1.3719 H   0  0  0  0  0  0  0  0  0  0  0  0
    0.2849   -2.3078    1.7702 H   0  0  0  0  0  0  0  0  0  0  0  0
   -0.1250   -0.6440    1.4750 H   0  0  0  0  0  0  0  0  0  0  0  0
   -2.9812   -3.6898    0.8995 H   0  0  0  0  0  0  0  0  0  0  0  0
   -1.2925   -4.0730    1.1301 H   0  0  0  0  0  0  0  0  0  0  0  0
   -1.7410    0.8370    1.3105 H   0  0  0  0  0  0  0  0  0  0  0  0
   -3.0563    0.1567    2.2806 H   0  0  0  0  0  0  0  0  0  0  0  0
   -3.2348    1.8017   -0.1410 H   0  0  0  0  0  0  0  0  0  0  0  0
    2.5499   -1.2883    0.8962 H   0  0  0  0  0  0  0  0  0  0  0  0
    2.1504    1.1712   -4.2519 H   0  0  0  0  0  0  0  0  0  0  0  0
    0.6148    1.7557   -3.5721 H   0  0  0  0  0  0  0  0  0  0  0  0
    2.1135    2.6476   -3.2608 H   0  0  0  0  0  0  0  0  0  0  0  0
   -5.0782    2.6994   -0.6371 H   0  0  0  0  0  0  0  0  0  0  0  0
    3.5149    1.0753    2.1586 H   0  0  0  0  0  0  0  0  0  0  0  0
    5.7732    0.0315   -1.3738 H   0  0  0  0  0  0  0  0  0  0  0  0
   -7.3488    2.4369    1.1657 H   0  0  0  0  0  0  0  0  0  0  0  0
   -7.2291    3.4170   -0.3107 H   0  0  0  0  0  0  0  0  0  0  0  0
    5.6196    1.4818    3.3704 H   0  0  0  0  0  0  0  0  0  0  0  0
    7.8669    0.4508   -0.1440 H   0  0  0  0  0  0  0  0  0  0  0  0
   -7.5360    1.3455   -1.6963 H   0  0  0  0  0  0  0  0  0  0  0  0
   -7.6724    0.3761   -0.2243 H   0  0  0  0  0  0  0  0  0  0  0  0
   -8.9052    1.5943   -0.5959 H   0  0  0  0  0  0  0  0  0  0  0  0
    7.8002    1.1745    2.2280 H   0  0  0  0  0  0  0  0  0  0  0  0
  1 19  2  0  0  0  0
  2  9  1  0  0  0  0
  2 12  1  0  0  0  0
  2 13  1  0  0  0  0
  3 14  1  0  0  0  0
  3 19  1  0  0  0  0
  3 42  1  0  0  0  0
  4 15  2  0  0  0  0
  4 18  1  0  0  0  0
  5 17  1  0  0  0  0
  5 18  2  0  0  0  0
  6 19  1  0  0  0  0
  6 22  1  0  0  0  0
  6 47  1  0  0  0  0
  7  8  1  0  0  0  0
  7 10  1  0  0  0  0
  7 11  1  0  0  0  0
  7 29  1  0  0  0  0
  8 12  1  0  0  0  0
  8 15  1  0  0  0  0
  8 30  1  0  0  0  0
  9 10  1  0  0  0  0
  9 14  1  0  0  0  0
  9 31  1  0  0  0  0
 10 32  1  0  0  0  0
 10 33  1  0  0  0  0
 11 13  1  0  0  0  0
 11 34  1  0  0  0  0
 11 35  1  0  0  0  0
 12 36  1  0  0  0  0
 12 37  1  0  0  0  0
 13 38  1  0  0  0  0
 13 39  1  0  0  0  0
 14 40  1  0  0  0  0
 14 41  1  0  0  0  0
 15 16  1  0  0  0  0
 16 17  2  0  0  0  0
 16 43  1  0  0  0  0
 17 20  1  0  0  0  0
 18 21  1  0  0  0  0
 20 23  2  0  0  0  0
 20 24  1  0  0  0  0
 21 44  1  0  0  0  0
 21 45  1  0  0  0  0
 21 46  1  0  0  0  0
 22 27  1  0  0  0  0
 22 50  1  0  0  0  0
 22 51  1  0  0  0  0
 23 25  1  0  0  0  0
 23 48  1  0  0  0  0
 24 26  2  0  0  0  0
 24 49  1  0  0  0  0
 25 28  2  0  0  0  0
 25 52  1  0  0  0  0
 26 28  1  0  0  0  0
 26 53  1  0  0  0  0
 27 54  1  0  0  0  0
 27 55  1  0  0  0  0
 27 56  1  0  0  0  0
 28 57  1  0  0  0  0
M  END
> <PUBCHEM_COMPOUND_CID>
26742380

> <PUBCHEM_CONFORMER_RMSD>
1

> <PUBCHEM_CONFORMER_DIVERSEORDER>
1
33
64
32
2
51
73
53
72
16
20
55
66
42
57
62
9
17
39
48
65
80
75
52
38
81
29
18
34
71
50
28
45
60
40
68
23
31
61
22
4
77
35
63
47
12
74
19
14
76
78
10
24
67
69
25
6
30
7
13
26
56
3
41
49
79
59
37
11
27
44
21
36
46
58
15
70
5
43
8
54

> <PUBCHEM_MMFF94_PARTIAL_CHARGES>
31
1 -0.57
12 0.27
13 0.27
14 0.3
15 0.17
16 -0.15
17 0.31
18 0.48
19 0.69
2 -0.81
21 0.14
22 0.3
23 -0.15
24 -0.15
25 -0.15
26 -0.15
28 -0.15
3 -0.73
4 -0.62
42 0.37
43 0.15
47 0.37
48 0.15
49 0.15
5 -0.62
52 0.15
53 0.15
57 0.15
6 -0.73
8 0.14
9 0.27

> <PUBCHEM_EFFECTIVE_ROTOR_COUNT>
8.2

> <PUBCHEM_PHARMACOPHORE_FEATURES>
9
1 1 acceptor
1 2 cation
1 3 donor
1 4 acceptor
1 6 donor
3 4 5 18 cation
6 20 23 24 25 26 28 rings
6 4 5 15 16 17 18 rings
8 2 7 8 9 10 11 12 13 rings

> <PUBCHEM_HEAVY_ATOM_COUNT>
28

> <PUBCHEM_ATOM_DEF_STEREO_COUNT>
3

> <PUBCHEM_ATOM_UDEF_STEREO_COUNT>
0

> <PUBCHEM_BOND_DEF_STEREO_COUNT>
0

> <PUBCHEM_BOND_UDEF_STEREO_COUNT>
0

> <PUBCHEM_ISOTOPIC_ATOM_COUNT>
0

> <PUBCHEM_COMPONENT_COUNT>
1

> <PUBCHEM_CACTVS_TAUTO_COUNT>
3

> <PUBCHEM_CONFORMER_ID>
01980E6C00000001

> <PUBCHEM_MMFF94_ENERGY>
69.5594

> <PUBCHEM_FEATURE_SELFOVERLAP>
45.719

> <PUBCHEM_SHAPE_FINGERPRINT>
10042902 136 11098156494920123313
10692045 39 18267585715222789474
11069576 57 13253973221209157180
11135609 12 12251900395532715810
11374522 165 17678999523171948653
11823591 26 18409724033221083491
11961588 58 17489863830504880763
12107183 9 17458065975445907448
12403259 118 18041010561362416067
12553582 1 16878209966523973890
12633257 1 17022910081057055010
12760667 363 11674880004985540731
13103583 49 17095244756546834346
13150687 139 18060140890938374007
13402501 40 17632295683474598064
13540713 5 17533510172798247070
13583140 156 17346037896129799814
13911987 19 14764349400964625024
14123256 34 8718819899612890401
14251764 30 10809349940363275441
14765038 42 17023470862858924936
14767858 380 13758071900452059109
14950920 106 16733560436660010617
15238133 3 18334305287776518460
15669420 48 16056872551318561073
15684973 49 18193846066216223422
15721738 202 11746943079507616278
16994733 274 16630250200045397201
173720 79 18260274070598867067
17980427 23 18336263569641155532
20554085 129 18341327812766486921
20567600 254 18341048536934311833
21033648 29 17917419991381335218
21304303 282 18200583800525395239
21403212 168 17822286856184376867
23522609 53 16879091778622289462
23559900 14 17915485898856840798
25147074 1 17678188298032331942
2838139 119 17346599642806478752
33382 64 13334730224766433080
3472631 163 17917988390804489224
54728670 133 17024283281371352484
5969126 39 17558819831470206351
6058803 2 17316495199216576310
6371009 1 18259706675481408461
9981440 41 18272091625352868707
999808 66 13767920213422804240

> <PUBCHEM_SHAPE_MULTIPOLES>
545.45
17.66
2.89
2.25
6.3
2.12
-1.25
-17.17
7.44
4.73
-0.02
-2.24
-0.97
0.39

> <PUBCHEM_SHAPE_SELFOVERLAP>
1164.871

> <PUBCHEM_SHAPE_VOLUME>
297.5

> <PUBCHEM_COORDINATE_TYPE>
2
5
10

$$$$
