38028604
  -OEChem-12032416413D

 61 62  0     1  0  0  0  0  0999 V2000
    2.4249    0.3331   -0.4249 S   0  0  0  0  0  0  0  0  0  0  0  0
   -5.2826    0.1427   -0.0584 O   0  0  0  0  0  0  0  0  0  0  0  0
    2.3162    0.9303    0.8917 O   0  0  0  0  0  0  0  0  0  0  0  0
    2.5094    1.1630   -1.6114 O   0  0  0  0  0  0  0  0  0  0  0  0
    1.1648   -0.8359   -0.6167 N   0  0  0  0  0  0  0  0  0  0  0  0
   -4.4457    1.8997   -1.3287 N   0  0  0  0  0  0  0  0  0  0  0  0
   -1.2609   -1.2415    1.1139 C   0  0  1  0  0  0  0  0  0  0  0  0
   -0.4191   -2.3567    0.4449 C   0  0  1  0  0  0  0  0  0  0  0  0
   -2.7592   -1.4862    0.8784 C   0  0  0  0  0  0  0  0  0  0  0  0
   -3.1134   -1.5328   -0.6199 C   0  0  2  0  0  0  0  0  0  0  0  0
   -0.9816   -1.1421    2.6168 C   0  0  0  0  0  0  0  0  0  0  0  0
   -2.1539   -2.4098   -1.3984 C   0  0  0  0  0  0  0  0  0  0  0  0
   -0.9601   -2.7788   -0.9010 C   0  0  0  0  0  0  0  0  0  0  0  0
    1.0456   -1.9298    0.2955 C   0  0  0  0  0  0  0  0  0  0  0  0
   -3.1752   -0.1225   -1.2170 C   0  0  0  0  0  0  0  0  0  0  0  0
   -1.3115    0.2566    3.1281 C   0  0  0  0  0  0  0  0  0  0  0  0
   -1.7781   -2.1978    3.3769 C   0  0  0  0  0  0  0  0  0  0  0  0
   -2.6176   -2.8915   -2.7450 C   0  0  0  0  0  0  0  0  0  0  0  0
   -4.4192    0.6224   -0.7882 C   0  0  0  0  0  0  0  0  0  0  0  0
    3.8442   -0.7382   -0.4242 C   0  0  0  0  0  0  0  0  0  0  0  0
    5.0620    0.1184   -0.2635 C   0  0  0  0  0  0  0  0  0  0  0  0
   -5.5195    2.8360   -1.0887 C   0  0  0  0  0  0  0  0  0  0  0  0
    5.3555    0.6875    0.9758 C   0  0  0  0  0  0  0  0  0  0  0  0
    5.9028    0.3470   -1.3526 C   0  0  0  0  0  0  0  0  0  0  0  0
   -5.2509    3.6544    0.0935 C   0  0  0  0  0  0  0  0  0  0  0  0
    6.4897    1.4855    1.1258 C   0  0  0  0  0  0  0  0  0  0  0  0
    7.0371    1.1449   -1.2027 C   0  0  0  0  0  0  0  0  0  0  0  0
    7.3306    1.7141    0.0365 C   0  0  0  0  0  0  0  0  0  0  0  0
   -5.0342    4.3279    1.0634 C   0  0  0  0  0  0  0  0  0  0  0  0
   -0.9947   -0.2815    0.6549 H   0  0  0  0  0  0  0  0  0  0  0  0
   -0.4343   -3.2547    1.0753 H   0  0  0  0  0  0  0  0  0  0  0  0
   -3.3662   -0.7325    1.3893 H   0  0  0  0  0  0  0  0  0  0  0  0
   -3.0610   -2.4607    1.2839 H   0  0  0  0  0  0  0  0  0  0  0  0
   -4.1076   -1.9958   -0.6935 H   0  0  0  0  0  0  0  0  0  0  0  0
    0.0807   -1.3087    2.8219 H   0  0  0  0  0  0  0  0  0  0  0  0
   -0.3316   -3.4485   -1.4850 H   0  0  0  0  0  0  0  0  0  0  0  0
    1.6337   -2.7730   -0.0880 H   0  0  0  0  0  0  0  0  0  0  0  0
    1.4686   -1.6752    1.2709 H   0  0  0  0  0  0  0  0  0  0  0  0
   -3.2062   -0.1658   -2.3125 H   0  0  0  0  0  0  0  0  0  0  0  0
   -2.2951    0.4725   -0.9494 H   0  0  0  0  0  0  0  0  0  0  0  0
   -2.3692    0.5076    3.0021 H   0  0  0  0  0  0  0  0  0  0  0  0
   -0.7183    1.0145    2.6050 H   0  0  0  0  0  0  0  0  0  0  0  0
   -1.0794    0.3379    4.1958 H   0  0  0  0  0  0  0  0  0  0  0  0
   -2.8481   -1.9717    3.4334 H   0  0  0  0  0  0  0  0  0  0  0  0
   -1.4268   -2.2343    4.4157 H   0  0  0  0  0  0  0  0  0  0  0  0
   -1.6423   -3.2042    2.9701 H   0  0  0  0  0  0  0  0  0  0  0  0
   -3.5818   -3.4022   -2.6547 H   0  0  0  0  0  0  0  0  0  0  0  0
   -1.9130   -3.6010   -3.1923 H   0  0  0  0  0  0  0  0  0  0  0  0
   -2.7289   -2.0577   -3.4438 H   0  0  0  0  0  0  0  0  0  0  0  0
    0.9325   -1.0619   -1.5927 H   0  0  0  0  0  0  0  0  0  0  0  0
    3.7702   -1.4447    0.4071 H   0  0  0  0  0  0  0  0  0  0  0  0
    3.8551   -1.2923   -1.3678 H   0  0  0  0  0  0  0  0  0  0  0  0
   -3.6715    2.2089   -1.9097 H   0  0  0  0  0  0  0  0  0  0  0  0
   -5.6069    3.4642   -1.9806 H   0  0  0  0  0  0  0  0  0  0  0  0
   -6.4574    2.2840   -0.9681 H   0  0  0  0  0  0  0  0  0  0  0  0
    4.7249    0.5040    1.8412 H   0  0  0  0  0  0  0  0  0  0  0  0
    5.6854   -0.0887   -2.3241 H   0  0  0  0  0  0  0  0  0  0  0  0
    6.7210    1.9248    2.0918 H   0  0  0  0  0  0  0  0  0  0  0  0
    7.6918    1.3231   -2.0508 H   0  0  0  0  0  0  0  0  0  0  0  0
    8.2143    2.3345    0.1536 H   0  0  0  0  0  0  0  0  0  0  0  0
   -4.8416    4.9249    1.9239 H   0  0  0  0  0  0  0  0  0  0  0  0
  1  3  2  0  0  0  0
  1  4  2  0  0  0  0
  1  5  1  0  0  0  0
  1 20  1  0  0  0  0
  2 19  2  0  0  0  0
  5 14  1  0  0  0  0
  5 50  1  0  0  0  0
  6 19  1  0  0  0  0
  6 22  1  0  0  0  0
  6 53  1  0  0  0  0
  7  8  1  0  0  0  0
  7  9  1  0  0  0  0
  7 11  1  0  0  0  0
  7 30  1  0  0  0  0
  8 13  1  0  0  0  0
  8 14  1  0  0  0  0
  8 31  1  0  0  0  0
  9 10  1  0  0  0  0
  9 32  1  0  0  0  0
  9 33  1  0  0  0  0
 10 12  1  0  0  0  0
 10 15  1  0  0  0  0
 10 34  1  0  0  0  0
 11 16  1  0  0  0  0
 11 17  1  0  0  0  0
 11 35  1  0  0  0  0
 12 13  2  0  0  0  0
 12 18  1  0  0  0  0
 13 36  1  0  0  0  0
 14 37  1  0  0  0  0
 14 38  1  0  0  0  0
 15 19  1  0  0  0  0
 15 39  1  0  0  0  0
 15 40  1  0  0  0  0
 16 41  1  0  0  0  0
 16 42  1  0  0  0  0
 16 43  1  0  0  0  0
 17 44  1  0  0  0  0
 17 45  1  0  0  0  0
 17 46  1  0  0  0  0
 18 47  1  0  0  0  0
 18 48  1  0  0  0  0
 18 49  1  0  0  0  0
 20 21  1  0  0  0  0
 20 51  1  0  0  0  0
 20 52  1  0  0  0  0
 21 23  2  0  0  0  0
 21 24  1  0  0  0  0
 22 25  1  0  0  0  0
 22 54  1  0  0  0  0
 22 55  1  0  0  0  0
 23 26  1  0  0  0  0
 23 56  1  0  0  0  0
 24 27  2  0  0  0  0
 24 57  1  0  0  0  0
 25 29  3  0  0  0  0
 26 28  2  0  0  0  0
 26 58  1  0  0  0  0
 27 28  1  0  0  0  0
 27 59  1  0  0  0  0
 28 60  1  0  0  0  0
 29 61  1  0  0  0  0
M  END
> <PUBCHEM_COMPOUND_CID>
38028604

> <PUBCHEM_CONFORMER_RMSD>
1.2

> <PUBCHEM_CONFORMER_DIVERSEORDER>
1
64
92
29
103
63
108
72
69
20
59
17
91
90
115
87
93
100
111
31
45
32
96
105
84
26
62
102
39
113
70
85
15
86
34
52
77
76
8
97
89
27
46
11
30
88
33
71
42
49
47
112
65
58
23
94
80
9
22
44
110
99
107
48
75
60
57
14
109
51
55
54
12
7
61
38
78
40
106
68
43
74
114
36
53
83
81
73
50
19
98
101
37
10
79
3
82
21
16
95
13
25
41
35
104
28
18
56
66
5
4
67
24
6
2

> <PUBCHEM_MMFF94_PARTIAL_CHARGES>
33
1 1.33
10 0.14
12 -0.28
13 -0.29
14 0.36
15 0.06
18 0.14
19 0.57
2 -0.57
20 0.25
21 -0.14
22 0.5
23 -0.15
24 -0.15
25 -0.2
26 -0.15
27 -0.15
28 -0.15
29 -0.18
3 -0.65
36 0.15
4 -0.65
5 -0.91
50 0.42
53 0.37
56 0.15
57 0.15
58 0.15
59 0.15
6 -0.73
60 0.15
61 0.18
8 0.14

> <PUBCHEM_EFFECTIVE_ROTOR_COUNT>
10.8

> <PUBCHEM_PHARMACOPHORE_FEATURES>
9
1 2 acceptor
1 29 hydrophobe
1 3 acceptor
1 4 acceptor
1 5 donor
1 6 donor
3 11 16 17 hydrophobe
6 21 23 24 26 27 28 rings
6 7 8 9 10 12 13 rings

> <PUBCHEM_HEAVY_ATOM_COUNT>
29

> <PUBCHEM_ATOM_DEF_STEREO_COUNT>
3

> <PUBCHEM_ATOM_UDEF_STEREO_COUNT>
0

> <PUBCHEM_BOND_DEF_STEREO_COUNT>
0

> <PUBCHEM_BOND_UDEF_STEREO_COUNT>
0

> <PUBCHEM_ISOTOPIC_ATOM_COUNT>
0

> <PUBCHEM_COMPONENT_COUNT>
1

> <PUBCHEM_CACTVS_TAUTO_COUNT>
2

> <PUBCHEM_CONFORMER_ID>
0244453C00000001

> <PUBCHEM_MMFF94_ENERGY>
52.1317

> <PUBCHEM_FEATURE_SELFOVERLAP>
45.688

> <PUBCHEM_SHAPE_FINGERPRINT>
10165383 225 17917715717292148703
10577160 103 15266763465423226706
10906281 52 17894638054508517054
11135609 201 18200036132545082449
1200032 147 18267589001204761993
12895836 83 18272363149448607943
12895837 130 18411136973812709493
12988421 55 17022892437473957643
131258 38 8715393765240691073
14068700 675 13110963136829101746
15513586 35 17315933327268408732
15803439 3 16988267695581620445
19438510 23 18335704884463599825
20511986 3 18059847403413168798
21033648 29 18337665447224980592
21033650 10 18339913917848414699
21315759 148 12035718800567949628
21401589 2 17967820397196492769
21424621 283 18261674783465787977
21756936 100 17967808375303488747
22122407 14 17968668240973521756
23559900 14 16701454710235763258
23569914 152 16984076215781164596
2838139 119 18341322319017823325
392239 28 16660660548438801801
4112364 45 17461711797886784545
5283173 99 18201993369851710944
6712543 237 14273746092886426473
7288768 16 17821729399526003179
999808 66 11746928781439973840

> <PUBCHEM_SHAPE_MULTIPOLES>
573.09
16.83
4.07
2.59
25.86
2.81
1.97
18.66
-4.47
-8.65
-0.35
-2
-1.51
-0.15

> <PUBCHEM_SHAPE_SELFOVERLAP>
1157.757

> <PUBCHEM_SHAPE_VOLUME>
334.7

> <PUBCHEM_COORDINATE_TYPE>
2
5
10

$$$$
