45360959
  -OEChem-12032416233D

 60 63  0     1  0  0  0  0  0999 V2000
    2.4670   -1.8268   -0.8806 O   0  0  0  0  0  0  0  0  0  0  0  0
   -3.8965    1.0829   -1.4675 O   0  0  0  0  0  0  0  0  0  0  0  0
    1.0640    1.7372   -0.3160 N   0  0  1  0  0  0  0  0  0  0  0  0
    4.2371   -0.0377    0.0984 N   0  0  1  0  0  0  0  0  0  0  0  0
    0.6962   -1.0477    0.3414 N   0  0  0  0  0  0  0  0  0  0  0  0
    6.7449   -1.7836   -0.7206 N   0  0  0  0  0  0  0  0  0  0  0  0
    7.5539   -0.4179    0.8324 N   0  0  0  0  0  0  0  0  0  0  0  0
   -5.0033    1.3884    0.5500 N   0  0  0  0  0  0  0  0  0  0  0  0
    2.3935    1.5283    0.2991 C   0  0  1  0  0  0  0  0  0  0  0  0
    2.8525    0.0702    0.5950 C   0  0  1  0  0  0  0  0  0  0  0  0
    3.5638    2.0680   -0.5440 C   0  0  0  0  0  0  0  0  0  0  0  0
    4.7631    1.3191   -0.0022 C   0  0  0  0  0  0  0  0  0  0  0  0
   -0.0817    1.2965    0.5280 C   0  0  2  0  0  0  0  0  0  0  0  0
    2.0148   -1.0183   -0.0711 C   0  0  0  0  0  0  0  0  0  0  0  0
    0.1141   -0.0616    1.2300 C   0  0  0  0  0  0  0  0  0  0  0  0
    5.0812   -0.8934    0.9224 C   0  0  0  0  0  0  0  0  0  0  0  0
   -1.3691    1.2005   -0.3174 C   0  0  0  0  0  0  0  0  0  0  0  0
    0.8888    3.1426   -0.7201 C   0  0  0  0  0  0  0  0  0  0  0  0
   -2.5990    1.3470    0.5594 C   0  0  0  0  0  0  0  0  0  0  0  0
    6.4732   -1.0077    0.3717 C   0  0  0  0  0  0  0  0  0  0  0  0
   -3.8790    1.2545   -0.2516 C   0  0  0  0  0  0  0  0  0  0  0  0
    8.0841   -1.6820   -0.9725 C   0  0  0  0  0  0  0  0  0  0  0  0
    8.5616   -0.8340   -0.0012 C   0  0  0  0  0  0  0  0  0  0  0  0
   -6.3428    1.3371    0.0140 C   0  0  0  0  0  0  0  0  0  0  0  0
   -6.8894   -0.0611    0.0003 C   0  0  0  0  0  0  0  0  0  0  0  0
   -6.6931   -0.8754   -1.1151 C   0  0  0  0  0  0  0  0  0  0  0  0
   -7.5933   -0.5460    1.1025 C   0  0  0  0  0  0  0  0  0  0  0  0
   -7.2008   -2.1746   -1.1282 C   0  0  0  0  0  0  0  0  0  0  0  0
   -8.1010   -1.8450    1.0895 C   0  0  0  0  0  0  0  0  0  0  0  0
   -7.9047   -2.6593   -0.0259 C   0  0  0  0  0  0  0  0  0  0  0  0
    2.4202    2.0747    1.2548 H   0  0  0  0  0  0  0  0  0  0  0  0
    2.8294   -0.0933    1.6806 H   0  0  0  0  0  0  0  0  0  0  0  0
    3.4240    1.8351   -1.6081 H   0  0  0  0  0  0  0  0  0  0  0  0
    3.6913    3.1504   -0.4391 H   0  0  0  0  0  0  0  0  0  0  0  0
    5.0540    1.7270    0.9743 H   0  0  0  0  0  0  0  0  0  0  0  0
    5.6104    1.3972   -0.6905 H   0  0  0  0  0  0  0  0  0  0  0  0
   -0.2309    2.0444    1.3196 H   0  0  0  0  0  0  0  0  0  0  0  0
   -0.8226   -0.4867    1.6002 H   0  0  0  0  0  0  0  0  0  0  0  0
    0.7565    0.0539    2.1089 H   0  0  0  0  0  0  0  0  0  0  0  0
    4.6519   -1.9016    0.9806 H   0  0  0  0  0  0  0  0  0  0  0  0
    5.1413   -0.5171    1.9523 H   0  0  0  0  0  0  0  0  0  0  0  0
   -1.4005    0.2485   -0.8639 H   0  0  0  0  0  0  0  0  0  0  0  0
   -1.4315    1.9666   -1.0938 H   0  0  0  0  0  0  0  0  0  0  0  0
    0.0893   -1.7635   -0.0466 H   0  0  0  0  0  0  0  0  0  0  0  0
    0.9926    3.8195    0.1361 H   0  0  0  0  0  0  0  0  0  0  0  0
    1.6257    3.4305   -1.4769 H   0  0  0  0  0  0  0  0  0  0  0  0
   -0.0726    3.3535   -1.1915 H   0  0  0  0  0  0  0  0  0  0  0  0
   -2.5902    2.3218    1.0622 H   0  0  0  0  0  0  0  0  0  0  0  0
   -2.6441    0.5723    1.3311 H   0  0  0  0  0  0  0  0  0  0  0  0
    6.0783   -2.3320   -1.2477 H   0  0  0  0  0  0  0  0  0  0  0  0
    8.5567   -2.2043   -1.7916 H   0  0  0  0  0  0  0  0  0  0  0  0
    9.5797   -0.5019    0.1402 H   0  0  0  0  0  0  0  0  0  0  0  0
   -4.8925    1.5101    1.5526 H   0  0  0  0  0  0  0  0  0  0  0  0
   -6.3508    1.7602   -0.9976 H   0  0  0  0  0  0  0  0  0  0  0  0
   -6.9699    1.9881    0.6339 H   0  0  0  0  0  0  0  0  0  0  0  0
   -6.1503   -0.5105   -1.9827 H   0  0  0  0  0  0  0  0  0  0  0  0
   -7.7513    0.0780    1.9781 H   0  0  0  0  0  0  0  0  0  0  0  0
   -7.0487   -2.8085   -1.9969 H   0  0  0  0  0  0  0  0  0  0  0  0
   -8.6488   -2.2228    1.9478 H   0  0  0  0  0  0  0  0  0  0  0  0
   -8.3001   -3.6708   -0.0361 H   0  0  0  0  0  0  0  0  0  0  0  0
  1 14  2  0  0  0  0
  2 21  2  0  0  0  0
  3  9  1  0  0  0  0
  3 13  1  0  0  0  0
  3 18  1  0  0  0  0
  4 10  1  0  0  0  0
  4 12  1  0  0  0  0
  4 16  1  0  0  0  0
  5 14  1  0  0  0  0
  5 15  1  0  0  0  0
  5 44  1  0  0  0  0
  6 20  1  0  0  0  0
  6 22  1  0  0  0  0
  6 50  1  0  0  0  0
  7 20  2  0  0  0  0
  7 23  1  0  0  0  0
  8 21  1  0  0  0  0
  8 24  1  0  0  0  0
  8 53  1  0  0  0  0
  9 10  1  0  0  0  0
  9 11  1  0  0  0  0
  9 31  1  0  0  0  0
 10 14  1  0  0  0  0
 10 32  1  0  0  0  0
 11 12  1  0  0  0  0
 11 33  1  0  0  0  0
 11 34  1  0  0  0  0
 12 35  1  0  0  0  0
 12 36  1  0  0  0  0
 13 15  1  0  0  0  0
 13 17  1  0  0  0  0
 13 37  1  0  0  0  0
 15 38  1  0  0  0  0
 15 39  1  0  0  0  0
 16 20  1  0  0  0  0
 16 40  1  0  0  0  0
 16 41  1  0  0  0  0
 17 19  1  0  0  0  0
 17 42  1  0  0  0  0
 17 43  1  0  0  0  0
 18 45  1  0  0  0  0
 18 46  1  0  0  0  0
 18 47  1  0  0  0  0
 19 21  1  0  0  0  0
 19 48  1  0  0  0  0
 19 49  1  0  0  0  0
 22 23  2  0  0  0  0
 22 51  1  0  0  0  0
 23 52  1  0  0  0  0
 24 25  1  0  0  0  0
 24 54  1  0  0  0  0
 24 55  1  0  0  0  0
 25 26  2  0  0  0  0
 25 27  1  0  0  0  0
 26 28  1  0  0  0  0
 26 56  1  0  0  0  0
 27 29  2  0  0  0  0
 27 57  1  0  0  0  0
 28 30  2  0  0  0  0
 28 58  1  0  0  0  0
 29 30  1  0  0  0  0
 29 59  1  0  0  0  0
 30 60  1  0  0  0  0
M  END
> <PUBCHEM_COMPOUND_CID>
45360959

> <PUBCHEM_CONFORMER_RMSD>
1

> <PUBCHEM_CONFORMER_DIVERSEORDER>
2
196
22
114
31
224
74
32
220
178
75
190
72
141
222
1
110
132
76
57
165
129
184
149
161
80
92
125
229
12
4
137
99
131
128
187
16
206
230
40
58
163
167
162
98
59
176
139
44
210
30
217
136
195
120
20
157
51
173
144
202
154
28
108
62
155
33
231
25
211
127
226
14
48
69
153
71
152
138
39
148
56
143
95
115
96
124
118
197
232
164
134
166
205
3
203
78
100
234
77
84
36
107
177
228
88
147
201
193
121
105
68
117
29
42
37
171
10
172
212
199
86
223
111
43
126
15
112
175
133
52
218
35
189
21
204
158
168
65
8
45
26
102
215
170
122
227
64
9
181
89
140
150
185
221
24
219
50
179
61
81
113
47
145
17
200
169
73
192
123
116
67
146
87
103
207
160
93
188
142
19
233
5
208
106
180
213
79
198
53
11
209
27
94
159
216
91
6
70
55
119
191
130
41
54
109
83
60
104
225
214
194
13
156
183
18
151
182
63
46
66
186
82
7
23
135
49
101
38
90
97
174
85
34

> <PUBCHEM_MMFF94_PARTIAL_CHARGES>
38
1 -0.57
10 0.33
12 0.27
13 0.27
14 0.57
15 0.3
16 0.45
18 0.27
19 0.06
2 -0.57
20 0.01
21 0.57
22 -0.3
23 0.08
24 0.44
25 -0.14
26 -0.15
27 -0.15
28 -0.15
29 -0.15
3 -0.81
30 -0.15
4 -0.81
44 0.37
5 -0.73
50 0.27
51 0.15
52 0.15
53 0.37
56 0.15
57 0.15
58 0.15
59 0.15
6 0.03
60 0.15
7 -0.57
8 -0.73
9 0.27

> <PUBCHEM_EFFECTIVE_ROTOR_COUNT>
9.4

> <PUBCHEM_PHARMACOPHORE_FEATURES>
12
1 1 acceptor
1 2 acceptor
1 3 cation
1 4 cation
1 5 donor
1 6 donor
1 8 donor
3 6 7 20 cation
5 4 9 10 11 12 rings
5 6 7 20 22 23 rings
6 25 26 27 28 29 30 rings
7 3 5 9 10 13 14 15 rings

> <PUBCHEM_HEAVY_ATOM_COUNT>
30

> <PUBCHEM_ATOM_DEF_STEREO_COUNT>
3

> <PUBCHEM_ATOM_UDEF_STEREO_COUNT>
0

> <PUBCHEM_BOND_DEF_STEREO_COUNT>
0

> <PUBCHEM_BOND_UDEF_STEREO_COUNT>
0

> <PUBCHEM_ISOTOPIC_ATOM_COUNT>
0

> <PUBCHEM_COMPONENT_COUNT>
1

> <PUBCHEM_CACTVS_TAUTO_COUNT>
6

> <PUBCHEM_CONFORMER_ID>
02B4273F00000002

> <PUBCHEM_MMFF94_ENERGY>
66.4593

> <PUBCHEM_FEATURE_SELFOVERLAP>
60.935

> <PUBCHEM_SHAPE_FINGERPRINT>
10 15 12535634864485792219
10299344 5 18341614837014893385
11135609 99 18342175604539548183
11386260 185 16588312726059509380
11621639 148 18340196497523679704
11963148 33 18335975376840585202
12539765 74 9006771034345180360
12645989 146 18187649124282078029
13668630 136 18410572864318162568
13782708 43 17894904123268907057
14202775 3 18200035028913314302
15297060 5 16271919415649854030
15350500 55 10519993651693710075
15461852 350 16443347572492805011
1577012 14 8430319026447412537
16991971 28 18409172099721405532
16994733 274 10087921865460480501
1754908 1 17131827681424590474
1818759 1 18131356302108626006
195137 175 8070031077647855999
20028762 73 18413388722113355318
2026 5 18336829693375617178
21150785 3 15863791681755564810
21267235 1 18411139121354333744
21781051 124 18272942639105152774
23522609 53 18124908835192463833
23569917 315 18342465820255565998
23569943 247 17765443041796504682
23576562 1 13551772793449969243
2747138 104 18201149988466887016
3178227 256 16773795909337447610
335352 9 18260553321146144828
4169191 19 9871752386682994579
4340502 62 15195562382443292828
437795 83 13840255967213801287
4461854 278 17917714621163437775
44802255 64 13118001107249532113
4625314 4 18407758149559920429
484989 97 18041006193059150611
54039377 194 18413108364017740695
5937810 71 12757421723397178175
59682541 35 17989481927256659314
6328613 192 8935005876082160357
636775 72 9655576310308799563
636775 8 18411987931904809790
999808 66 18130786759554569479

> <PUBCHEM_SHAPE_MULTIPOLES>
575.76
28.5
2.72
1.09
10.56
0.35
0.05
-21.94
0.49
1.26
0.62
0.73
-0.21
0.18

> <PUBCHEM_SHAPE_SELFOVERLAP>
1218.079

> <PUBCHEM_SHAPE_VOLUME>
321.1

> <PUBCHEM_COORDINATE_TYPE>
2
5
10

$$$$
