11885248
  -OEChem-12032416253D

 61 64  0     1  0  0  0  0  0999 V2000
   -2.4664   -1.9587    0.3954 S   0  0  0  0  0  0  0  0  0  0  0  0
    1.1553    1.3787    1.6176 O   0  0  0  0  0  0  0  0  0  0  0  0
   -3.9956    0.1976    2.4367 O   0  0  0  0  0  0  0  0  0  0  0  0
   -1.8220   -5.1425   -1.7411 O   0  0  0  0  0  0  0  0  0  0  0  0
   -0.7146   -4.3101    0.0606 O   0  0  0  0  0  0  0  0  0  0  0  0
   -3.7061    1.2213    0.3711 N   0  0  0  0  0  0  0  0  0  0  0  0
   -0.5587    1.6633    0.0618 N   0  0  0  0  0  0  0  0  0  0  0  0
    4.9710    1.6934   -0.4259 N   0  0  0  0  0  0  0  0  0  0  0  0
   -2.4379    3.3729    0.3806 C   0  0  1  0  0  0  0  0  0  0  0  0
   -2.4091    1.9487   -1.6235 C   0  0  2  0  0  0  0  0  0  0  0  0
   -2.4867    3.3960   -1.1423 C   0  0  0  0  0  0  0  0  0  0  0  0
   -3.6189    2.5649    0.9462 C   0  0  0  0  0  0  0  0  0  0  0  0
   -1.0852    2.8037    0.8243 C   0  0  0  0  0  0  0  0  0  0  0  0
   -3.6260    1.1633   -1.0962 C   0  0  0  0  0  0  0  0  0  0  0  0
   -1.1274    1.2848   -1.1566 C   0  0  0  0  0  0  0  0  0  0  0  0
   -0.5575    0.3190   -1.8944 C   0  0  0  0  0  0  0  0  0  0  0  0
    0.6052    1.0495    0.5652 C   0  0  0  0  0  0  0  0  0  0  0  0
   -3.9319    0.1274    1.2067 C   0  0  0  0  0  0  0  0  0  0  0  0
    1.1997   -0.0550   -0.2665 C   0  0  0  0  0  0  0  0  0  0  0  0
    0.6201   -0.3619   -1.4366 C   0  0  0  0  0  0  0  0  0  0  0  0
   -4.0970   -1.2127    0.5356 C   0  0  0  0  0  0  0  0  0  0  0  0
    2.3891   -0.7965    0.1873 C   0  0  0  0  0  0  0  0  0  0  0  0
    3.6796   -0.3759   -0.1426 C   0  0  0  0  0  0  0  0  0  0  0  0
    2.2116   -1.9437    0.9639 C   0  0  0  0  0  0  0  0  0  0  0  0
    3.9110    0.8464   -0.9716 C   0  0  0  0  0  0  0  0  0  0  0  0
    4.7866   -1.0989    0.3020 C   0  0  0  0  0  0  0  0  0  0  0  0
    3.3187   -2.6667    1.4083 C   0  0  0  0  0  0  0  0  0  0  0  0
   -2.9361   -3.5062   -0.4174 C   0  0  0  0  0  0  0  0  0  0  0  0
    4.6061   -2.2443    1.0773 C   0  0  0  0  0  0  0  0  0  0  0  0
    5.2047    2.8446   -1.2969 C   0  0  0  0  0  0  0  0  0  0  0  0
    4.6271    2.1359    0.9249 C   0  0  0  0  0  0  0  0  0  0  0  0
   -1.7086   -4.3382   -0.6539 C   0  0  0  0  0  0  0  0  0  0  0  0
   -2.5227    4.3964    0.7664 H   0  0  0  0  0  0  0  0  0  0  0  0
   -2.4470    1.9510   -2.7207 H   0  0  0  0  0  0  0  0  0  0  0  0
   -3.4144    3.8669   -1.4891 H   0  0  0  0  0  0  0  0  0  0  0  0
   -1.6552    3.9864   -1.5471 H   0  0  0  0  0  0  0  0  0  0  0  0
   -4.5624    3.0702    0.7051 H   0  0  0  0  0  0  0  0  0  0  0  0
   -3.5543    2.5157    2.0383 H   0  0  0  0  0  0  0  0  0  0  0  0
   -1.1129    2.5311    1.8869 H   0  0  0  0  0  0  0  0  0  0  0  0
   -0.3263    3.5933    0.7355 H   0  0  0  0  0  0  0  0  0  0  0  0
   -3.5792    0.1438   -1.4790 H   0  0  0  0  0  0  0  0  0  0  0  0
   -4.5542    1.6043   -1.4802 H   0  0  0  0  0  0  0  0  0  0  0  0
   -0.9844   -0.0011   -2.8392 H   0  0  0  0  0  0  0  0  0  0  0  0
    1.0080   -1.1512   -2.0739 H   0  0  0  0  0  0  0  0  0  0  0  0
   -4.6302   -1.1541   -0.4143 H   0  0  0  0  0  0  0  0  0  0  0  0
   -4.7123   -1.8362    1.1946 H   0  0  0  0  0  0  0  0  0  0  0  0
    1.2153   -2.2865    1.2331 H   0  0  0  0  0  0  0  0  0  0  0  0
    3.0046    1.4481   -1.0985 H   0  0  0  0  0  0  0  0  0  0  0  0
    4.1944    0.5034   -1.9759 H   0  0  0  0  0  0  0  0  0  0  0  0
    5.7999   -0.8016    0.0450 H   0  0  0  0  0  0  0  0  0  0  0  0
    3.1781   -3.5588    2.0116 H   0  0  0  0  0  0  0  0  0  0  0  0
   -3.6319   -4.0755    0.2046 H   0  0  0  0  0  0  0  0  0  0  0  0
   -3.4002   -3.2674   -1.3789 H   0  0  0  0  0  0  0  0  0  0  0  0
    5.4678   -2.8095    1.4204 H   0  0  0  0  0  0  0  0  0  0  0  0
    5.4942    2.5154   -2.3012 H   0  0  0  0  0  0  0  0  0  0  0  0
    4.3201    3.4859   -1.3854 H   0  0  0  0  0  0  0  0  0  0  0  0
    6.0335    3.4524   -0.9168 H   0  0  0  0  0  0  0  0  0  0  0  0
    5.4081    2.8019    1.3111 H   0  0  0  0  0  0  0  0  0  0  0  0
    3.6800    2.6879    0.9493 H   0  0  0  0  0  0  0  0  0  0  0  0
    4.5674    1.3138    1.6445 H   0  0  0  0  0  0  0  0  0  0  0  0
   -1.0167   -5.6851   -1.8804 H   0  0  0  0  0  0  0  0  0  0  0  0
  1 21  1  0  0  0  0
  1 28  1  0  0  0  0
  2 17  2  0  0  0  0
  3 18  2  0  0  0  0
  4 32  1  0  0  0  0
  4 61  1  0  0  0  0
  5 32  2  0  0  0  0
  6 12  1  0  0  0  0
  6 14  1  0  0  0  0
  6 18  1  0  0  0  0
  7 13  1  0  0  0  0
  7 15  1  0  0  0  0
  7 17  1  0  0  0  0
  8 25  1  0  0  0  0
  8 30  1  0  0  0  0
  8 31  1  0  0  0  0
  9 11  1  0  0  0  0
  9 12  1  0  0  0  0
  9 13  1  0  0  0  0
  9 33  1  0  0  0  0
 10 11  1  0  0  0  0
 10 14  1  0  0  0  0
 10 15  1  0  0  0  0
 10 34  1  0  0  0  0
 11 35  1  0  0  0  0
 11 36  1  0  0  0  0
 12 37  1  0  0  0  0
 12 38  1  0  0  0  0
 13 39  1  0  0  0  0
 13 40  1  0  0  0  0
 14 41  1  0  0  0  0
 14 42  1  0  0  0  0
 15 16  2  0  0  0  0
 16 20  1  0  0  0  0
 16 43  1  0  0  0  0
 17 19  1  0  0  0  0
 18 21  1  0  0  0  0
 19 20  2  0  0  0  0
 19 22  1  0  0  0  0
 20 44  1  0  0  0  0
 21 45  1  0  0  0  0
 21 46  1  0  0  0  0
 22 23  1  0  0  0  0
 22 24  2  0  0  0  0
 23 25  1  0  0  0  0
 23 26  2  0  0  0  0
 24 27  1  0  0  0  0
 24 47  1  0  0  0  0
 25 48  1  0  0  0  0
 25 49  1  0  0  0  0
 26 29  1  0  0  0  0
 26 50  1  0  0  0  0
 27 29  2  0  0  0  0
 27 51  1  0  0  0  0
 28 32  1  0  0  0  0
 28 52  1  0  0  0  0
 28 53  1  0  0  0  0
 29 54  1  0  0  0  0
 30 55  1  0  0  0  0
 30 56  1  0  0  0  0
 30 57  1  0  0  0  0
 31 58  1  0  0  0  0
 31 59  1  0  0  0  0
 31 60  1  0  0  0  0
M  END
> <PUBCHEM_COMPOUND_CID>
11885248

> <PUBCHEM_CONFORMER_RMSD>
1

> <PUBCHEM_CONFORMER_DIVERSEORDER>
2
38
43
22
32
27
6
39
41
52
29
44
5
42
51
13
23
16
10
18
21
30
35
4
37
8
45
40
48
49
1
20
34
19
15
14
9
47
46
36
11
50
24
3
28
33
26
17
25
31
12
7

> <PUBCHEM_MMFF94_PARTIAL_CHARGES>
37
1 -0.46
10 0.14
12 0.3
13 0.3
14 0.3
15 -0.03
16 -0.15
17 0.62
18 0.57
19 -0.01
2 -0.57
20 -0.15
21 0.29
22 0.03
23 -0.14
24 -0.15
25 0.41
26 -0.15
27 -0.15
28 0.29
29 -0.15
3 -0.57
30 0.27
31 0.27
32 0.66
4 -0.65
43 0.15
44 0.15
47 0.15
5 -0.57
50 0.15
51 0.15
54 0.15
6 -0.66
61 0.5
7 -0.47
8 -0.81

> <PUBCHEM_EFFECTIVE_ROTOR_COUNT>
9

> <PUBCHEM_PHARMACOPHORE_FEATURES>
10
1 2 acceptor
1 3 acceptor
1 4 acceptor
1 5 acceptor
1 8 cation
3 4 5 32 anion
6 22 23 24 26 27 29 rings
6 6 9 10 11 12 14 rings
6 7 15 16 17 19 20 rings
6 7 9 10 11 13 15 rings

> <PUBCHEM_HEAVY_ATOM_COUNT>
32

> <PUBCHEM_ATOM_DEF_STEREO_COUNT>
2

> <PUBCHEM_ATOM_UDEF_STEREO_COUNT>
0

> <PUBCHEM_BOND_DEF_STEREO_COUNT>
0

> <PUBCHEM_BOND_UDEF_STEREO_COUNT>
0

> <PUBCHEM_ISOTOPIC_ATOM_COUNT>
0

> <PUBCHEM_COMPONENT_COUNT>
1

> <PUBCHEM_CACTVS_TAUTO_COUNT>
1

> <PUBCHEM_CONFORMER_ID>
00B55AC000000002

> <PUBCHEM_MMFF94_ENERGY>
88.9774

> <PUBCHEM_FEATURE_SELFOVERLAP>
52.37

> <PUBCHEM_SHAPE_FINGERPRINT>
11014199 57 17690849281647880267
11552529 35 18200031896810425579
12422481 6 17755891644214259153
12633257 1 18130796629178172585
12788726 201 18270662264642088359
13224815 77 17987789709915857176
13583140 156 18189892028880915724
14068700 675 17915732279693322303
144659 178 17400081271402929996
144659 39 18273209799214107702
14787075 74 18048320239080960972
14955137 171 18054225428719232290
15484559 13 16016576355786624973
18608769 82 18126287678381000316
18681886 176 18192423070810356082
20775530 9 17910105047643449839
21304303 282 14132101554038531510
23559900 14 17981611468369571910
283562 15 18046905167847926764
350125 39 18260552230224549106
392239 28 18265614467152254432
469060 322 18044085989474283036
5265222 85 18265065638829470630

> <PUBCHEM_SHAPE_MULTIPOLES>
623.97
10.09
5.64
1.68
9.1
5.7
0.02
-2.76
-1.81
-2.98
1.38
-0.69
-0.09
-1.74

> <PUBCHEM_SHAPE_SELFOVERLAP>
1321.281

> <PUBCHEM_SHAPE_VOLUME>
351.4

> <PUBCHEM_COORDINATE_TYPE>
2
5
10

$$$$
