45783459
  -OEChem-12032416203D

 59 62  0     1  0  0  0  0  0999 V2000
   -3.0520    1.4502   -1.6660 O   0  0  0  0  0  0  0  0  0  0  0  0
    3.1936    1.9322    1.3227 O   0  0  0  0  0  0  0  0  0  0  0  0
    3.0495   -2.1007    0.1096 O   0  0  0  0  0  0  0  0  0  0  0  0
    5.0030   -0.1676    1.7275 O   0  0  0  0  0  0  0  0  0  0  0  0
   -3.7735   -0.6462    1.2647 N   0  0  1  0  0  0  0  0  0  0  0  0
   -1.6781    1.1127    0.0704 N   0  0  0  0  0  0  0  0  0  0  0  0
   -1.8027    1.9500   -2.0550 N   0  0  0  0  0  0  0  0  0  0  0  0
    1.5648   -2.5407   -1.6682 N   0  0  0  0  0  0  0  0  0  0  0  0
    0.8437    2.6602   -2.0266 N   0  0  0  0  0  0  0  0  0  0  0  0
   -4.1156    0.3734    0.2529 C   0  0  1  0  0  0  0  0  0  0  0  0
   -4.9555    1.4147    1.0153 C   0  0  0  0  0  0  0  0  0  0  0  0
   -5.0830    0.8650    2.4290 C   0  0  0  0  0  0  0  0  0  0  0  0
   -4.8494   -0.6222    2.2558 C   0  0  0  0  0  0  0  0  0  0  0  0
   -3.5793   -1.9749    0.6985 C   0  0  0  0  0  0  0  0  0  0  0  0
   -2.8910    0.9766   -0.4027 C   0  0  0  0  0  0  0  0  0  0  0  0
   -2.2182   -2.1240    0.0724 C   0  0  0  0  0  0  0  0  0  0  0  0
   -2.1045   -2.4566   -1.2775 C   0  0  0  0  0  0  0  0  0  0  0  0
   -1.0710   -1.9301    0.8419 C   0  0  0  0  0  0  0  0  0  0  0  0
   -1.0464    1.7146   -0.9787 C   0  0  0  0  0  0  0  0  0  0  0  0
   -0.8438   -2.5954   -1.8578 C   0  0  0  0  0  0  0  0  0  0  0  0
    0.1899   -2.0690    0.2617 C   0  0  0  0  0  0  0  0  0  0  0  0
    0.3034   -2.4017   -1.0882 C   0  0  0  0  0  0  0  0  0  0  0  0
    0.3422    2.0697   -0.9187 C   0  0  0  0  0  0  0  0  0  0  0  0
    1.0827    1.8052    0.2222 C   0  0  0  0  0  0  0  0  0  0  0  0
    2.4244    2.1702    0.2263 C   0  0  0  0  0  0  0  0  0  0  0  0
    2.8180   -2.3866   -1.0606 C   0  0  0  0  0  0  0  0  0  0  0  0
    2.1515    3.0007   -1.9856 C   0  0  0  0  0  0  0  0  0  0  0  0
    2.9768    2.7798   -0.8947 C   0  0  0  0  0  0  0  0  0  0  0  0
    3.9445   -2.6235   -2.0350 C   0  0  0  0  0  0  0  0  0  0  0  0
    2.8506    0.8024    2.1244 C   0  0  0  0  0  0  0  0  0  0  0  0
    4.1108    0.2432    2.7564 C   0  0  0  0  0  0  0  0  0  0  0  0
    6.2143   -0.6814    2.2636 C   0  0  0  0  0  0  0  0  0  0  0  0
   -4.7530   -0.0564   -0.5326 H   0  0  0  0  0  0  0  0  0  0  0  0
   -4.5142    2.4172    1.0261 H   0  0  0  0  0  0  0  0  0  0  0  0
   -5.9506    1.4901    0.5603 H   0  0  0  0  0  0  0  0  0  0  0  0
   -6.0574    1.0880    2.8734 H   0  0  0  0  0  0  0  0  0  0  0  0
   -4.3074    1.3021    3.0701 H   0  0  0  0  0  0  0  0  0  0  0  0
   -5.7589   -1.1091    1.8814 H   0  0  0  0  0  0  0  0  0  0  0  0
   -4.5536   -1.0951    3.1974 H   0  0  0  0  0  0  0  0  0  0  0  0
   -4.3786   -2.2371   -0.0070 H   0  0  0  0  0  0  0  0  0  0  0  0
   -3.6308   -2.7307    1.4949 H   0  0  0  0  0  0  0  0  0  0  0  0
   -2.9895   -2.6085   -1.8894 H   0  0  0  0  0  0  0  0  0  0  0  0
   -1.1444   -1.6763    1.8962 H   0  0  0  0  0  0  0  0  0  0  0  0
   -0.7700   -2.8540   -2.9111 H   0  0  0  0  0  0  0  0  0  0  0  0
    1.0302   -1.9106    0.9221 H   0  0  0  0  0  0  0  0  0  0  0  0
    1.5638   -2.7842   -2.6566 H   0  0  0  0  0  0  0  0  0  0  0  0
    0.6138    1.3550    1.0907 H   0  0  0  0  0  0  0  0  0  0  0  0
    2.5338    3.4728   -2.8846 H   0  0  0  0  0  0  0  0  0  0  0  0
    4.0201    3.0745   -0.9195 H   0  0  0  0  0  0  0  0  0  0  0  0
    4.9046   -2.4588   -1.5379 H   0  0  0  0  0  0  0  0  0  0  0  0
    3.9051   -3.6530   -2.4017 H   0  0  0  0  0  0  0  0  0  0  0  0
    3.8589   -1.9311   -2.8772 H   0  0  0  0  0  0  0  0  0  0  0  0
    2.4032    0.0083    1.5179 H   0  0  0  0  0  0  0  0  0  0  0  0
    2.1472    1.1139    2.9041 H   0  0  0  0  0  0  0  0  0  0  0  0
    4.5975    1.0189    3.3589 H   0  0  0  0  0  0  0  0  0  0  0  0
    3.8620   -0.6106    3.3963 H   0  0  0  0  0  0  0  0  0  0  0  0
    6.7340    0.0872    2.8438 H   0  0  0  0  0  0  0  0  0  0  0  0
    6.0161   -1.5572    2.8890 H   0  0  0  0  0  0  0  0  0  0  0  0
    6.8567   -0.9848    1.4325 H   0  0  0  0  0  0  0  0  0  0  0  0
  1  7  1  0  0  0  0
  1 15  1  0  0  0  0
  2 25  1  0  0  0  0
  2 30  1  0  0  0  0
  3 26  2  0  0  0  0
  4 31  1  0  0  0  0
  4 32  1  0  0  0  0
  5 10  1  0  0  0  0
  5 13  1  0  0  0  0
  5 14  1  0  0  0  0
  6 15  2  0  0  0  0
  6 19  1  0  0  0  0
  7 19  2  0  0  0  0
  8 22  1  0  0  0  0
  8 26  1  0  0  0  0
  8 46  1  0  0  0  0
  9 23  2  0  0  0  0
  9 27  1  0  0  0  0
 10 11  1  0  0  0  0
 10 15  1  0  0  0  0
 10 33  1  0  0  0  0
 11 12  1  0  0  0  0
 11 34  1  0  0  0  0
 11 35  1  0  0  0  0
 12 13  1  0  0  0  0
 12 36  1  0  0  0  0
 12 37  1  0  0  0  0
 13 38  1  0  0  0  0
 13 39  1  0  0  0  0
 14 16  1  0  0  0  0
 14 40  1  0  0  0  0
 14 41  1  0  0  0  0
 16 17  2  0  0  0  0
 16 18  1  0  0  0  0
 17 20  1  0  0  0  0
 17 42  1  0  0  0  0
 18 21  2  0  0  0  0
 18 43  1  0  0  0  0
 19 23  1  0  0  0  0
 20 22  2  0  0  0  0
 20 44  1  0  0  0  0
 21 22  1  0  0  0  0
 21 45  1  0  0  0  0
 23 24  1  0  0  0  0
 24 25  2  0  0  0  0
 24 47  1  0  0  0  0
 25 28  1  0  0  0  0
 26 29  1  0  0  0  0
 27 28  2  0  0  0  0
 27 48  1  0  0  0  0
 28 49  1  0  0  0  0
 29 50  1  0  0  0  0
 29 51  1  0  0  0  0
 29 52  1  0  0  0  0
 30 31  1  0  0  0  0
 30 53  1  0  0  0  0
 30 54  1  0  0  0  0
 31 55  1  0  0  0  0
 31 56  1  0  0  0  0
 32 57  1  0  0  0  0
 32 58  1  0  0  0  0
 32 59  1  0  0  0  0
M  END
> <PUBCHEM_COMPOUND_CID>
45783459

> <PUBCHEM_CONFORMER_RMSD>
1

> <PUBCHEM_CONFORMER_DIVERSEORDER>
1
66
47
109
95
60
127
170
63
142
121
167
132
88
126
100
110
123
85
93
78
67
72
152
113
102
172
10
79
41
149
6
52
114
75
138
117
134
59
71
163
69
99
119
22
137
151
159
145
5
129
97
105
174
135
94
133
118
36
7
62
125
115
87
73
4
176
70
168
17
150
46
162
64
112
39
131
166
124
165
92
89
136
143
175
96
103
108
141
171
31
49
90
101
77
61
144
147
104
43
74
107
48
35
37
76
45
161
140
98
106
50
58
120
28
19
160
157
8
82
44
139
116
26
81
42
32
51
56
146
173
169
25
2
154
40
55
65
38
24
53
86
68
111
83
54
21
11
164
130
122
33
3
13
12
153
128
84
9
158
156
148
18
30
20
57
155
16
34
91
80
15
27
23
14
29

> <PUBCHEM_MMFF94_PARTIAL_CHARGES>
38
1 -0.02
10 0.45
13 0.27
14 0.41
15 0.3
16 -0.14
17 -0.15
18 -0.15
19 0.46
2 -0.36
20 -0.15
21 -0.15
22 0.12
23 0.36
24 -0.15
25 0.08
26 0.57
27 0.16
28 -0.15
29 0.06
3 -0.57
30 0.28
31 0.28
32 0.28
4 -0.56
42 0.15
43 0.15
44 0.15
45 0.15
46 0.37
47 0.15
48 0.15
49 0.15
5 -0.81
6 -0.57
7 -0.41
8 -0.55
9 -0.62

> <PUBCHEM_EFFECTIVE_ROTOR_COUNT>
11

> <PUBCHEM_PHARMACOPHORE_FEATURES>
11
1 2 acceptor
1 3 acceptor
1 4 acceptor
1 5 cation
1 8 donor
1 9 acceptor
3 6 7 19 cation
5 1 6 7 15 19 rings
5 5 10 11 12 13 rings
6 16 17 18 20 21 22 rings
6 9 23 24 25 27 28 rings

> <PUBCHEM_HEAVY_ATOM_COUNT>
32

> <PUBCHEM_ATOM_DEF_STEREO_COUNT>
1

> <PUBCHEM_ATOM_UDEF_STEREO_COUNT>
0

> <PUBCHEM_BOND_DEF_STEREO_COUNT>
0

> <PUBCHEM_BOND_UDEF_STEREO_COUNT>
0

> <PUBCHEM_ISOTOPIC_ATOM_COUNT>
0

> <PUBCHEM_COMPONENT_COUNT>
1

> <PUBCHEM_CACTVS_TAUTO_COUNT>
2

> <PUBCHEM_CONFORMER_ID>
02BA99A300000001

> <PUBCHEM_MMFF94_ENERGY>
77.8825

> <PUBCHEM_FEATURE_SELFOVERLAP>
55.826

> <PUBCHEM_SHAPE_FINGERPRINT>
11112241 14 17559933515909219144
12035758 1 18339361868701267090
12156800 1 15334376687205701496
12422481 6 18410567392767042434
12633257 1 18260826029140049923
12788726 201 17263292129561382797
13165053 68 17274241934535498511
13726171 33 17679044633002228252
15064986 96 18335714844577187857
15274700 242 17245264464542456988
16110190 28 18335128839503286680
19319366 153 16023950200279491692
20554085 129 17918002668183298897
20691752 17 17895489132148077879
20764821 26 18410574032739022670
22182313 1 18265043644022158341
4112364 45 16916239741445428009
513532 50 16916801672879598220
5265222 85 17691438581711064244
581034 39 18057883752549034478
6287921 2 18130235848157127871
7064713 232 18201434826196898089

> <PUBCHEM_SHAPE_MULTIPOLES>
610.16
10.32
4.19
2.74
0.84
0.76
-0.85
-0.33
-9
2.19
2.87
1.73
-0.45
0.29

> <PUBCHEM_SHAPE_SELFOVERLAP>
1302.906

> <PUBCHEM_SHAPE_VOLUME>
339.5

> <PUBCHEM_COORDINATE_TYPE>
2
5
10

$$$$
