40778211
  -OEChem-12032416173D

 65 68  0     1  0  0  0  0  0999 V2000
    1.7137   -3.9975    1.2706 F   0  0  0  0  0  0  0  0  0  0  0  0
   -4.0592    0.9225    0.8697 O   0  0  0  0  0  0  0  0  0  0  0  0
   -5.6289    2.8588   -0.8742 O   0  0  0  0  0  0  0  0  0  0  0  0
   -6.2320    0.3959   -1.9413 O   0  0  0  0  0  0  0  0  0  0  0  0
   -1.6717    2.4789    1.7705 O   0  0  0  0  0  0  0  0  0  0  0  0
    4.1464   -1.1361   -0.3589 O   0  0  0  0  0  0  0  0  0  0  0  0
   -2.5858   -1.4094    2.0430 O   0  0  0  0  0  0  0  0  0  0  0  0
    0.1322    1.7010    0.5293 N   0  0  0  0  0  0  0  0  0  0  0  0
    2.9782    1.3682    0.1190 N   0  0  0  0  0  0  0  0  0  0  0  0
   -3.7378   -1.7799    0.0634 N   0  0  0  0  0  0  0  0  0  0  0  0
   -3.5866    1.9706   -0.0073 C   0  0  2  0  0  0  0  0  0  0  0  0
   -4.5389    1.9964   -1.1978 C   0  0  1  0  0  0  0  0  0  0  0  0
   -5.0073    0.5572   -1.2581 C   0  0  1  0  0  0  0  0  0  0  0  0
   -5.1277    0.2140    0.2172 C   0  0  1  0  0  0  0  0  0  0  0  0
   -2.1526    1.6398   -0.3980 C   0  0  0  0  0  0  0  0  0  0  0  0
   -5.0042   -1.2722    0.5016 C   0  0  0  0  0  0  0  0  0  0  0  0
   -1.2186    1.9826    0.7366 C   0  0  0  0  0  0  0  0  0  0  0  0
    0.6680    1.1116   -0.6997 C   0  0  0  0  0  0  0  0  0  0  0  0
    1.1014    2.0111    1.5770 C   0  0  0  0  0  0  0  0  0  0  0  0
    2.0247    0.4384   -0.4913 C   0  0  0  0  0  0  0  0  0  0  0  0
    2.4557    2.4167    0.9998 C   0  0  0  0  0  0  0  0  0  0  0  0
    4.3479    1.2405   -0.0996 C   0  0  0  0  0  0  0  0  0  0  0  0
   -2.6117   -1.8086    0.8817 C   0  0  0  0  0  0  0  0  0  0  0  0
    4.9155   -0.0112   -0.3375 C   0  0  0  0  0  0  0  0  0  0  0  0
    5.1532    2.3793   -0.0806 C   0  0  0  0  0  0  0  0  0  0  0  0
   -1.3676   -2.3416    0.2696 C   0  0  0  0  0  0  0  0  0  0  0  0
    6.2884   -0.1243   -0.5564 C   0  0  0  0  0  0  0  0  0  0  0  0
    6.5262    2.2663   -0.2997 C   0  0  0  0  0  0  0  0  0  0  0  0
    7.0939    1.0144   -0.5373 C   0  0  0  0  0  0  0  0  0  0  0  0
   -0.3917   -2.9309    1.0735 C   0  0  0  0  0  0  0  0  0  0  0  0
   -1.1752   -2.2530   -1.1092 C   0  0  0  0  0  0  0  0  0  0  0  0
    4.8132   -2.3715   -0.6098 C   0  0  0  0  0  0  0  0  0  0  0  0
    0.7765   -3.4315    0.4987 C   0  0  0  0  0  0  0  0  0  0  0  0
   -0.0068   -2.7533   -1.6840 C   0  0  0  0  0  0  0  0  0  0  0  0
    0.9690   -3.3429   -0.8800 C   0  0  0  0  0  0  0  0  0  0  0  0
   -3.6490    2.9154    0.5446 H   0  0  0  0  0  0  0  0  0  0  0  0
   -4.0992    2.3504   -2.1345 H   0  0  0  0  0  0  0  0  0  0  0  0
   -4.2455   -0.0487   -1.7610 H   0  0  0  0  0  0  0  0  0  0  0  0
   -6.0781    0.5757    0.6291 H   0  0  0  0  0  0  0  0  0  0  0  0
   -1.8508    2.2338   -1.2679 H   0  0  0  0  0  0  0  0  0  0  0  0
   -2.0632    0.5787   -0.6335 H   0  0  0  0  0  0  0  0  0  0  0  0
   -5.7889   -1.8355   -0.0135 H   0  0  0  0  0  0  0  0  0  0  0  0
   -5.0981   -1.4543    1.5779 H   0  0  0  0  0  0  0  0  0  0  0  0
    0.7651    1.9339   -1.4196 H   0  0  0  0  0  0  0  0  0  0  0  0
   -0.0344    0.3939   -1.1238 H   0  0  0  0  0  0  0  0  0  0  0  0
    1.2018    1.1086    2.1926 H   0  0  0  0  0  0  0  0  0  0  0  0
    0.7154    2.8059    2.2240 H   0  0  0  0  0  0  0  0  0  0  0  0
    1.8880   -0.4288    0.1646 H   0  0  0  0  0  0  0  0  0  0  0  0
    2.3669    0.0996   -1.4766 H   0  0  0  0  0  0  0  0  0  0  0  0
    2.3513    3.3492    0.4316 H   0  0  0  0  0  0  0  0  0  0  0  0
    3.1395    2.5999    1.8376 H   0  0  0  0  0  0  0  0  0  0  0  0
   -5.2779    3.7642   -0.8221 H   0  0  0  0  0  0  0  0  0  0  0  0
   -6.1145    0.7513   -2.8388 H   0  0  0  0  0  0  0  0  0  0  0  0
   -3.7025   -2.1768   -0.8696 H   0  0  0  0  0  0  0  0  0  0  0  0
    4.7421    3.3711    0.0863 H   0  0  0  0  0  0  0  0  0  0  0  0
    6.8001   -1.0607   -0.7495 H   0  0  0  0  0  0  0  0  0  0  0  0
    7.1531    3.1531   -0.2888 H   0  0  0  0  0  0  0  0  0  0  0  0
    8.1630    0.9280   -0.7088 H   0  0  0  0  0  0  0  0  0  0  0  0
   -0.5248   -3.0123    2.1489 H   0  0  0  0  0  0  0  0  0  0  0  0
   -1.8959   -1.7763   -1.7667 H   0  0  0  0  0  0  0  0  0  0  0  0
    4.0599   -3.1631   -0.5716 H   0  0  0  0  0  0  0  0  0  0  0  0
    5.5457   -2.6018    0.1716 H   0  0  0  0  0  0  0  0  0  0  0  0
    5.2511   -2.3959   -1.6135 H   0  0  0  0  0  0  0  0  0  0  0  0
    0.1465   -2.6787   -2.7566 H   0  0  0  0  0  0  0  0  0  0  0  0
    1.8740   -3.7372   -1.3308 H   0  0  0  0  0  0  0  0  0  0  0  0
  1 33  1  0  0  0  0
  2 11  1  0  0  0  0
  2 14  1  0  0  0  0
  3 12  1  0  0  0  0
  3 52  1  0  0  0  0
  4 13  1  0  0  0  0
  4 53  1  0  0  0  0
  5 17  2  0  0  0  0
  6 24  1  0  0  0  0
  6 32  1  0  0  0  0
  7 23  2  0  0  0  0
  8 17  1  0  0  0  0
  8 18  1  0  0  0  0
  8 19  1  0  0  0  0
  9 20  1  0  0  0  0
  9 21  1  0  0  0  0
  9 22  1  0  0  0  0
 10 16  1  0  0  0  0
 10 23  1  0  0  0  0
 10 54  1  0  0  0  0
 11 12  1  0  0  0  0
 11 15  1  0  0  0  0
 11 36  1  0  0  0  0
 12 13  1  0  0  0  0
 12 37  1  0  0  0  0
 13 14  1  0  0  0  0
 13 38  1  0  0  0  0
 14 16  1  0  0  0  0
 14 39  1  0  0  0  0
 15 17  1  0  0  0  0
 15 40  1  0  0  0  0
 15 41  1  0  0  0  0
 16 42  1  0  0  0  0
 16 43  1  0  0  0  0
 18 20  1  0  0  0  0
 18 44  1  0  0  0  0
 18 45  1  0  0  0  0
 19 21  1  0  0  0  0
 19 46  1  0  0  0  0
 19 47  1  0  0  0  0
 20 48  1  0  0  0  0
 20 49  1  0  0  0  0
 21 50  1  0  0  0  0
 21 51  1  0  0  0  0
 22 24  1  0  0  0  0
 22 25  2  0  0  0  0
 23 26  1  0  0  0  0
 24 27  2  0  0  0  0
 25 28  1  0  0  0  0
 25 55  1  0  0  0  0
 26 30  2  0  0  0  0
 26 31  1  0  0  0  0
 27 29  1  0  0  0  0
 27 56  1  0  0  0  0
 28 29  2  0  0  0  0
 28 57  1  0  0  0  0
 29 58  1  0  0  0  0
 30 33  1  0  0  0  0
 30 59  1  0  0  0  0
 31 34  2  0  0  0  0
 31 60  1  0  0  0  0
 32 61  1  0  0  0  0
 32 62  1  0  0  0  0
 32 63  1  0  0  0  0
 33 35  2  0  0  0  0
 34 35  1  0  0  0  0
 34 64  1  0  0  0  0
 35 65  1  0  0  0  0
M  END
> <PUBCHEM_COMPOUND_CID>
40778211

> <PUBCHEM_CONFORMER_RMSD>
1.2

> <PUBCHEM_CONFORMER_DIVERSEORDER>
8
171
103
158
156
236
222
7
86
223
221
227
136
234
19
237
57
135
125
239
231
150
10
15
79
159
89
228
181
35
47
94
178
176
72
165
226
174
232
129
242
96
224
54
55
193
205
23
87
157
197
229
25
164
52
145
104
31
33
218
124
39
144
183
114
100
186
118
133
167
169
18
235
98
65
233
194
201
113
154
200
238
219
143
107
30
110
56
109
101
76
139
141
106
241
162
48
62
243
225
97
184
189
155
213
208
137
182
68
240
122
82
142
28
95
121
206
70
105
27
151
160
138
53
244
50
215
214
207
198
211
80
93
36
85
177
220
172
132
111
196
49
173
146
32
6
131
119
216
112
180
195
202
26
161
123
66
11
217
90
153
203
152
115
175
91
9
149
67
71
88
34
77
74
134
166
117
42
210
168
83
21
199
127
170
45
204
24
188
59
116
61
60
187
128
20
29
63
126
147
75
185
108
179
78
58
92
13
212
209
37
64
148
22
191
140
14
120
46
2
69
81
230
12
1
102
190
5
99
41
84
17
73
43
163
192
16
130
40
3
44
51
4
38

> <PUBCHEM_MMFF94_PARTIAL_CHARGES>
46
1 -0.19
10 -0.73
11 0.28
12 0.28
13 0.28
14 0.28
15 0.06
16 0.3
17 0.57
18 0.3
19 0.3
2 -0.56
20 0.37
21 0.37
22 0.1
23 0.54
24 0.08
25 -0.15
26 0.09
27 -0.15
28 -0.15
29 -0.15
3 -0.68
30 -0.15
31 -0.15
32 0.28
33 0.19
34 -0.15
35 -0.15
4 -0.68
5 -0.57
52 0.4
53 0.4
54 0.37
55 0.15
56 0.15
57 0.15
58 0.15
59 0.15
6 -0.36
60 0.15
64 0.15
65 0.15
7 -0.57
8 -0.66
9 -0.84

> <PUBCHEM_EFFECTIVE_ROTOR_COUNT>
11.2

> <PUBCHEM_PHARMACOPHORE_FEATURES>
14
1 10 donor
1 2 acceptor
1 3 acceptor
1 3 donor
1 4 acceptor
1 4 donor
1 5 acceptor
1 6 acceptor
1 7 acceptor
1 9 cation
5 2 11 12 13 14 rings
6 22 24 25 27 28 29 rings
6 26 30 31 33 34 35 rings
6 8 9 18 19 20 21 rings

> <PUBCHEM_HEAVY_ATOM_COUNT>
35

> <PUBCHEM_ATOM_DEF_STEREO_COUNT>
4

> <PUBCHEM_ATOM_UDEF_STEREO_COUNT>
0

> <PUBCHEM_BOND_DEF_STEREO_COUNT>
0

> <PUBCHEM_BOND_UDEF_STEREO_COUNT>
0

> <PUBCHEM_ISOTOPIC_ATOM_COUNT>
0

> <PUBCHEM_COMPONENT_COUNT>
1

> <PUBCHEM_CACTVS_TAUTO_COUNT>
2

> <PUBCHEM_CONFORMER_ID>
026E39E300000008

> <PUBCHEM_MMFF94_ENERGY>
115.6494

> <PUBCHEM_FEATURE_SELFOVERLAP>
71.062

> <PUBCHEM_SHAPE_FINGERPRINT>
10675989 125 17398385335280054005
107951 10 17749389282323132147
11007060 377 18273218625124475104
11135609 187 18340764853849201472
11135926 11 18410573946940201421
11578080 2 17314774219291462103
12788726 201 17774725264559199288
13402501 40 18412831308298405790
14747281 78 17535739699566182557
14931854 50 18343017761779721556
15183329 4 18410572898698922216
15274700 242 17677873778315704840
15351339 4 18410849923978868379
15439362 3 18044932368973373765
16067689 134 17045148489576847680
16067689 302 18412546522999916175
16112460 7 18200048269352469568
16719943 64 18336546126934066546
17627616 140 18335700490480408786
18608769 82 18263649635710456779
19958102 18 18335420170965522876
20197701 30 18409729551884663844
21133410 230 17824851016164669131
21279426 13 18411142394335678470
21585483 110 18412544314584313814
22899556 105 18056170653794307991
23559900 14 18340764961165420312
249057 3 18335703884306516740
3298306 158 18411411796106260433
3383291 50 18131068247205471206
338550 245 18335146444521257980
4015057 19 17488740223836794440
5085150 59 18341321245962068234
5265222 85 18264212585252408236
6036956 94 18338245881205131045
6437827 68 18411704313681350356

> <PUBCHEM_SHAPE_MULTIPOLES>
662.85
15.02
4.6
1.42
9.85
3.22
-0.11
-8.57
4.77
0.22
-0.55
-1.34
0.16
1.23

> <PUBCHEM_SHAPE_SELFOVERLAP>
1417.444

> <PUBCHEM_SHAPE_VOLUME>
366.7

> <PUBCHEM_COORDINATE_TYPE>
2
5
10

$$$$
