75537121
  -OEChem-12032416333D

 50 53  0     1  0  0  0  0  0999 V2000
   -7.7739    0.2428   -0.9144 F   0  0  0  0  0  0  0  0  0  0  0  0
    2.5509    2.6065   -0.0376 O   0  0  0  0  0  0  0  0  0  0  0  0
    2.9822    0.2923   -0.1858 N   0  0  0  0  0  0  0  0  0  0  0  0
    0.8506    0.9976   -0.2366 N   0  0  0  0  0  0  0  0  0  0  0  0
   -1.5824   -0.3248    0.2558 N   0  0  2  0  0  0  0  0  0  0  0  0
    0.7668   -0.4288   -0.4710 C   0  0  1  0  0  0  0  0  0  0  0  0
    4.4201    0.2639   -0.0686 C   0  0  0  0  0  0  0  0  0  0  0  0
    2.1872   -0.9238   -0.2060 C   0  0  0  0  0  0  0  0  0  0  0  0
   -0.3074   -1.0520    0.4199 C   0  0  0  0  0  0  0  0  0  0  0  0
    5.0515   -0.2978   -1.3447 C   0  0  0  0  0  0  0  0  0  0  0  0
    4.8478   -0.5374    1.1639 C   0  0  0  0  0  0  0  0  0  0  0  0
    2.1748    1.4467   -0.1443 C   0  0  0  0  0  0  0  0  0  0  0  0
   -0.3634    1.7869   -0.2272 C   0  0  0  0  0  0  0  0  0  0  0  0
   -1.4297    1.0965    0.6270 C   0  0  0  0  0  0  0  0  0  0  0  0
    6.5708   -0.3884   -1.2281 C   0  0  0  0  0  0  0  0  0  0  0  0
    6.3674   -0.6260    1.2772 C   0  0  0  0  0  0  0  0  0  0  0  0
    6.9948   -1.1842    0.0030 C   0  0  0  0  0  0  0  0  0  0  0  0
   -2.6326   -0.9510    1.0585 C   0  0  0  0  0  0  0  0  0  0  0  0
   -4.0065   -0.6322    0.5313 C   0  0  0  0  0  0  0  0  0  0  0  0
   -4.6864    0.4947    0.9935 C   0  0  0  0  0  0  0  0  0  0  0  0
   -4.5994   -1.4633   -0.4191 C   0  0  0  0  0  0  0  0  0  0  0  0
   -5.9591    0.7903    0.5055 C   0  0  0  0  0  0  0  0  0  0  0  0
   -5.8721   -1.1678   -0.9072 C   0  0  0  0  0  0  0  0  0  0  0  0
   -6.5520   -0.0410   -0.4449 C   0  0  0  0  0  0  0  0  0  0  0  0
    0.5129   -0.5643   -1.5306 H   0  0  0  0  0  0  0  0  0  0  0  0
    4.7655    1.2984    0.0557 H   0  0  0  0  0  0  0  0  0  0  0  0
    2.2636   -1.4167    0.7679 H   0  0  0  0  0  0  0  0  0  0  0  0
    2.5255   -1.6057   -0.9901 H   0  0  0  0  0  0  0  0  0  0  0  0
   -0.4276   -2.1037    0.1330 H   0  0  0  0  0  0  0  0  0  0  0  0
    0.0041   -1.0294    1.4731 H   0  0  0  0  0  0  0  0  0  0  0  0
    4.6616   -1.2991   -1.5637 H   0  0  0  0  0  0  0  0  0  0  0  0
    4.7863    0.3319   -2.2029 H   0  0  0  0  0  0  0  0  0  0  0  0
    4.4363   -0.0806    2.0722 H   0  0  0  0  0  0  0  0  0  0  0  0
    4.4542   -1.5602    1.1211 H   0  0  0  0  0  0  0  0  0  0  0  0
   -0.7005    1.8771   -1.2663 H   0  0  0  0  0  0  0  0  0  0  0  0
   -0.1443    2.7920    0.1468 H   0  0  0  0  0  0  0  0  0  0  0  0
   -1.1566    1.1863    1.6870 H   0  0  0  0  0  0  0  0  0  0  0  0
   -2.3575    1.6541    0.4747 H   0  0  0  0  0  0  0  0  0  0  0  0
    6.9927    0.6227   -1.1718 H   0  0  0  0  0  0  0  0  0  0  0  0
    6.9829   -0.8560   -2.1295 H   0  0  0  0  0  0  0  0  0  0  0  0
    6.6378   -1.2595    2.1294 H   0  0  0  0  0  0  0  0  0  0  0  0
    6.7765    0.3717    1.4786 H   0  0  0  0  0  0  0  0  0  0  0  0
    8.0868   -1.1704    0.0930 H   0  0  0  0  0  0  0  0  0  0  0  0
    6.6973   -2.2328   -0.1206 H   0  0  0  0  0  0  0  0  0  0  0  0
   -2.5282   -2.0450    1.0360 H   0  0  0  0  0  0  0  0  0  0  0  0
   -2.5548   -0.6834    2.1214 H   0  0  0  0  0  0  0  0  0  0  0  0
   -4.2473    1.1430    1.7469 H   0  0  0  0  0  0  0  0  0  0  0  0
   -4.0798   -2.3430   -0.7896 H   0  0  0  0  0  0  0  0  0  0  0  0
   -6.4904    1.6653    0.8679 H   0  0  0  0  0  0  0  0  0  0  0  0
   -6.3338   -1.8143   -1.6476 H   0  0  0  0  0  0  0  0  0  0  0  0
  1 24  1  0  0  0  0
  2 12  2  0  0  0  0
  3  7  1  0  0  0  0
  3  8  1  0  0  0  0
  3 12  1  0  0  0  0
  4  6  1  0  0  0  0
  4 12  1  0  0  0  0
  4 13  1  0  0  0  0
  5  9  1  0  0  0  0
  5 14  1  0  0  0  0
  5 18  1  0  0  0  0
  6  8  1  0  0  0  0
  6  9  1  0  0  0  0
  6 25  1  0  0  0  0
  7 10  1  0  0  0  0
  7 11  1  0  0  0  0
  7 26  1  0  0  0  0
  8 27  1  0  0  0  0
  8 28  1  0  0  0  0
  9 29  1  0  0  0  0
  9 30  1  0  0  0  0
 10 15  1  0  0  0  0
 10 31  1  0  0  0  0
 10 32  1  0  0  0  0
 11 16  1  0  0  0  0
 11 33  1  0  0  0  0
 11 34  1  0  0  0  0
 13 14  1  0  0  0  0
 13 35  1  0  0  0  0
 13 36  1  0  0  0  0
 14 37  1  0  0  0  0
 14 38  1  0  0  0  0
 15 17  1  0  0  0  0
 15 39  1  0  0  0  0
 15 40  1  0  0  0  0
 16 17  1  0  0  0  0
 16 41  1  0  0  0  0
 16 42  1  0  0  0  0
 17 43  1  0  0  0  0
 17 44  1  0  0  0  0
 18 19  1  0  0  0  0
 18 45  1  0  0  0  0
 18 46  1  0  0  0  0
 19 20  2  0  0  0  0
 19 21  1  0  0  0  0
 20 22  1  0  0  0  0
 20 47  1  0  0  0  0
 21 23  2  0  0  0  0
 21 48  1  0  0  0  0
 22 24  2  0  0  0  0
 22 49  1  0  0  0  0
 23 24  1  0  0  0  0
 23 50  1  0  0  0  0
M  END
> <PUBCHEM_COMPOUND_CID>
75537121

> <PUBCHEM_CONFORMER_RMSD>
0.8

> <PUBCHEM_CONFORMER_DIVERSEORDER>
2
35
26
19
32
36
27
25
20
13
21
7
16
28
23
34
24
22
33
11
8
1
5
15
30
6
3
12
9
31
18
4
10
17
29
14

> <PUBCHEM_MMFF94_PARTIAL_CHARGES>
23
1 -0.19
12 0.69
13 0.3
14 0.27
18 0.41
19 -0.14
2 -0.57
20 -0.15
21 -0.15
22 -0.15
23 -0.15
24 0.19
3 -0.66
4 -0.66
47 0.15
48 0.15
49 0.15
5 -0.81
50 0.15
6 0.3
7 0.3
8 0.3
9 0.27

> <PUBCHEM_EFFECTIVE_ROTOR_COUNT>
5.4

> <PUBCHEM_PHARMACOPHORE_FEATURES>
6
1 2 acceptor
1 5 cation
5 3 4 6 8 12 rings
6 19 20 21 22 23 24 rings
6 4 5 6 9 13 14 rings
6 7 10 11 15 16 17 rings

> <PUBCHEM_HEAVY_ATOM_COUNT>
24

> <PUBCHEM_ATOM_DEF_STEREO_COUNT>
1

> <PUBCHEM_ATOM_UDEF_STEREO_COUNT>
0

> <PUBCHEM_BOND_DEF_STEREO_COUNT>
0

> <PUBCHEM_BOND_UDEF_STEREO_COUNT>
0

> <PUBCHEM_ISOTOPIC_ATOM_COUNT>
0

> <PUBCHEM_COMPONENT_COUNT>
1

> <PUBCHEM_CACTVS_TAUTO_COUNT>
1

> <PUBCHEM_CONFORMER_ID>
04809AE100000002

> <PUBCHEM_MMFF94_ENERGY>
47.6587

> <PUBCHEM_FEATURE_SELFOVERLAP>
30.543

> <PUBCHEM_SHAPE_FINGERPRINT>
10 15 12967123922129894942
10066227 112 16226051119080014870
106641 1 14620787215254931282
10906281 52 18189637001996049306
11089746 13 18409729577817919929
11315181 36 17275106146142670435
11719270 70 18060420209572768918
11724838 91 12967122826844591328
11796584 16 17095248038076214586
12011746 2 18334863818203226170
12166972 35 17917714617004990152
12236239 1 17846500356975052095
12516196 113 17561365075753538057
12596602 18 15841557353408627010
12916748 109 9655584006647107226
13073987 5 9078850579733571367
13533116 47 17895469242297085338
13668630 136 18130790074942378479
13862211 1 18410575085095803482
13914758 101 18413107230415282881
14251752 14 17313100834758812100
14251764 18 18413390947649810408
14848160 23 16845575322585878715
14933364 13 13912324581435858719
15119646 104 18041276565614200026
15183329 4 18187082849585658395
15188451 53 17846779594294907168
15716309 27 13326855526529794711
15849732 13 17418092122264125060
17834072 8 18187366541044990605
17857418 61 18408323284955005872
18006028 8 18411700980575965944
18222031 100 18341900697190188512
18681886 176 17988639726660936411
19489759 90 17704076183697362235
20028762 73 18131351921084228966
20567600 234 15841547492548265888
21236236 1 18187364277529238749
21267235 1 18411708711923111827
21521721 280 8358246043583673038
21792934 111 18336536171711590312
22079108 93 15626218022899707134
22149856 69 10087373282542098167
22224240 67 17704067396337036830
23198884 109 14418134006746887697
23402539 116 18343019999663215679
23522609 53 18118435932080944252
23559900 14 18188492504902115384
23569943 247 17628656158522433070
29717793 49 18202289116693425532
3004659 81 18335703866250544580
3009799 131 18259982673635506403
335352 9 18408324401572682359
3411729 13 18197493133970301784
397830 11 16271066263551722234
4017518 198 17775291564846224646
4098825 35 15357688652601409282
4340502 62 14620800396683773036
465052 167 18335710468179729018
5104073 3 18268439095137991937
542803 24 13912321313086851203
559249 180 18413387661878905927
59755656 215 18341336608749096398
59755656 520 17385439947646796795
6328613 192 17749963253104599372

> <PUBCHEM_SHAPE_MULTIPOLES>
465.82
20.28
1.59
1.11
4.62
0.71
-0.04
-5.24
2.46
-0.09
0.05
-0.62
-0.18
-0.59

> <PUBCHEM_SHAPE_SELFOVERLAP>
987.434

> <PUBCHEM_SHAPE_VOLUME>
262.3

> <PUBCHEM_COORDINATE_TYPE>
2
5
10

$$$$
