75536694
  -OEChem-12032416303D

 44 46  0     1  0  0  0  0  0999 V2000
    4.1714   -1.4101   -0.0650 S   0  0  0  0  0  0  0  0  0  0  0  0
   -6.6256    0.5317    1.5153 S   0  0  0  0  0  0  0  0  0  0  0  0
   -0.1974   -1.3118    1.2660 O   0  0  0  0  0  0  0  0  0  0  0  0
   -0.9904   -0.8858   -2.2118 O   0  0  0  0  0  0  0  0  0  0  0  0
    4.2023   -1.8138   -1.4578 O   0  0  0  0  0  0  0  0  0  0  0  0
    4.9885   -2.1021    0.9133 O   0  0  0  0  0  0  0  0  0  0  0  0
   -3.2974   -0.1220   -0.2192 N   0  0  0  0  0  0  0  0  0  0  0  0
    2.5596   -1.3847    0.4787 N   0  0  0  0  0  0  0  0  0  0  0  0
   -2.1408   -0.9885   -0.0609 C   0  0  1  0  0  0  0  0  0  0  0  0
   -0.9247   -0.5302   -0.8444 C   0  0  1  0  0  0  0  0  0  0  0  0
    0.1890   -1.2720   -0.1178 C   0  0  1  0  0  0  0  0  0  0  0  0
   -1.5980   -0.9974    1.3588 C   0  0  0  0  0  0  0  0  0  0  0  0
    1.5446   -0.6017   -0.2531 C   0  0  0  0  0  0  0  0  0  0  0  0
   -4.5100   -0.7710    0.2650 C   0  0  0  0  0  0  0  0  0  0  0  0
   -5.7164    0.1186    0.1242 C   0  0  0  0  0  0  0  0  0  0  0  0
    4.6076    0.3011    0.0160 C   0  0  0  0  0  0  0  0  0  0  0  0
   -6.2345    0.6859   -1.0192 C   0  0  0  0  0  0  0  0  0  0  0  0
    5.1605    0.8250    1.1844 C   0  0  0  0  0  0  0  0  0  0  0  0
    4.3952    1.1280   -1.0870 C   0  0  0  0  0  0  0  0  0  0  0  0
   -7.3930    1.4702   -0.7497 C   0  0  0  0  0  0  0  0  0  0  0  0
   -7.7164    1.4724    0.5894 C   0  0  0  0  0  0  0  0  0  0  0  0
    5.5012    2.1762    1.2499 C   0  0  0  0  0  0  0  0  0  0  0  0
    4.7358    2.4789   -1.0217 C   0  0  0  0  0  0  0  0  0  0  0  0
    5.2888    3.0032    0.1468 C   0  0  0  0  0  0  0  0  0  0  0  0
   -2.3862   -2.0109   -0.3816 H   0  0  0  0  0  0  0  0  0  0  0  0
   -0.7921    0.5562   -0.7677 H   0  0  0  0  0  0  0  0  0  0  0  0
    0.2601   -2.3104   -0.4679 H   0  0  0  0  0  0  0  0  0  0  0  0
   -1.6770   -0.0164    1.8414 H   0  0  0  0  0  0  0  0  0  0  0  0
   -2.0929   -1.7362    1.9963 H   0  0  0  0  0  0  0  0  0  0  0  0
    1.5176    0.4015    0.1866 H   0  0  0  0  0  0  0  0  0  0  0  0
    1.8092   -0.5222   -1.3118 H   0  0  0  0  0  0  0  0  0  0  0  0
   -3.4110    0.1006   -1.2084 H   0  0  0  0  0  0  0  0  0  0  0  0
    2.3793   -1.5225    1.4810 H   0  0  0  0  0  0  0  0  0  0  0  0
   -4.3853   -1.0682    1.3134 H   0  0  0  0  0  0  0  0  0  0  0  0
   -4.7030   -1.6878   -0.3074 H   0  0  0  0  0  0  0  0  0  0  0  0
   -1.1088   -1.8489   -2.2719 H   0  0  0  0  0  0  0  0  0  0  0  0
   -5.8089    0.5468   -2.0049 H   0  0  0  0  0  0  0  0  0  0  0  0
    5.3272    0.2014    2.0580 H   0  0  0  0  0  0  0  0  0  0  0  0
    3.9633    0.7419   -2.0058 H   0  0  0  0  0  0  0  0  0  0  0  0
   -7.9608    2.0051   -1.4998 H   0  0  0  0  0  0  0  0  0  0  0  0
   -8.5411    1.9813    1.0681 H   0  0  0  0  0  0  0  0  0  0  0  0
    5.9299    2.5849    2.1603 H   0  0  0  0  0  0  0  0  0  0  0  0
    4.5696    3.1232   -1.8801 H   0  0  0  0  0  0  0  0  0  0  0  0
    5.5533    4.0553    0.1979 H   0  0  0  0  0  0  0  0  0  0  0  0
  1  5  2  0  0  0  0
  1  6  2  0  0  0  0
  1  8  1  0  0  0  0
  1 16  1  0  0  0  0
  2 15  1  0  0  0  0
  2 21  1  0  0  0  0
  3 11  1  0  0  0  0
  3 12  1  0  0  0  0
  4 10  1  0  0  0  0
  4 36  1  0  0  0  0
  7  9  1  0  0  0  0
  7 14  1  0  0  0  0
  7 32  1  0  0  0  0
  8 13  1  0  0  0  0
  8 33  1  0  0  0  0
  9 10  1  0  0  0  0
  9 12  1  0  0  0  0
  9 25  1  0  0  0  0
 10 11  1  0  0  0  0
 10 26  1  0  0  0  0
 11 13  1  0  0  0  0
 11 27  1  0  0  0  0
 12 28  1  0  0  0  0
 12 29  1  0  0  0  0
 13 30  1  0  0  0  0
 13 31  1  0  0  0  0
 14 15  1  0  0  0  0
 14 34  1  0  0  0  0
 14 35  1  0  0  0  0
 15 17  2  0  0  0  0
 16 18  2  0  0  0  0
 16 19  1  0  0  0  0
 17 20  1  0  0  0  0
 17 37  1  0  0  0  0
 18 22  1  0  0  0  0
 18 38  1  0  0  0  0
 19 23  2  0  0  0  0
 19 39  1  0  0  0  0
 20 21  2  0  0  0  0
 20 40  1  0  0  0  0
 21 41  1  0  0  0  0
 22 24  2  0  0  0  0
 22 42  1  0  0  0  0
 23 24  1  0  0  0  0
 23 43  1  0  0  0  0
 24 44  1  0  0  0  0
M  END
> <PUBCHEM_COMPOUND_CID>
75536694

> <PUBCHEM_CONFORMER_RMSD>
1.2

> <PUBCHEM_CONFORMER_DIVERSEORDER>
1
107
9
81
61
53
101
119
23
143
69
123
59
122
65
41
128
86
37
62
56
80
85
115
55
34
137
12
71
136
38
132
76
98
45
5
60
73
17
145
28
91
140
48
20
135
114
33
32
42
52
129
82
127
44
25
68
79
27
93
83
24
67
97
118
141
77
26
35
87
43
112
102
130
63
116
106
99
36
74
109
70
22
131
7
126
49
4
54
46
15
39
51
31
50
58
103
18
3
40
10
133
117
124
108
138
6
88
72
95
105
13
30
29
64
11
142
75
2
90
78
92
94
113
144
8
21
121
139
16
14
125
96
19
111
89
134
120
47
84
66
57
100
110
104

> <PUBCHEM_MMFF94_PARTIAL_CHARGES>
35
1 1.45
10 0.28
11 0.28
12 0.28
13 0.36
14 0.45
15 -0.14
16 -0.01
17 -0.15
18 -0.15
19 -0.15
2 -0.08
20 -0.15
21 -0.11
22 -0.15
23 -0.15
24 -0.15
3 -0.56
32 0.36
33 0.42
36 0.4
37 0.15
38 0.15
39 0.15
4 -0.68
40 0.15
41 0.15
42 0.15
43 0.15
44 0.15
5 -0.65
6 -0.65
7 -0.9
8 -0.91
9 0.27

> <PUBCHEM_EFFECTIVE_ROTOR_COUNT>
8

> <PUBCHEM_PHARMACOPHORE_FEATURES>
11
1 3 acceptor
1 4 acceptor
1 4 donor
1 5 acceptor
1 6 acceptor
1 7 cation
1 7 donor
1 8 donor
5 2 15 17 20 21 rings
5 3 9 10 11 12 rings
6 16 18 19 22 23 24 rings

> <PUBCHEM_HEAVY_ATOM_COUNT>
24

> <PUBCHEM_ATOM_DEF_STEREO_COUNT>
3

> <PUBCHEM_ATOM_UDEF_STEREO_COUNT>
0

> <PUBCHEM_BOND_DEF_STEREO_COUNT>
0

> <PUBCHEM_BOND_UDEF_STEREO_COUNT>
0

> <PUBCHEM_ISOTOPIC_ATOM_COUNT>
0

> <PUBCHEM_COMPONENT_COUNT>
1

> <PUBCHEM_CACTVS_TAUTO_COUNT>
1

> <PUBCHEM_CONFORMER_ID>
0480993600000001

> <PUBCHEM_MMFF94_ENERGY>
33.8191

> <PUBCHEM_FEATURE_SELFOVERLAP>
55.84

> <PUBCHEM_SHAPE_FINGERPRINT>
10 15 17240205452069307229
10316853 100 9727638310624691540
10554248 39 17846493682648823799
10638233 991 18272092669509274649
11408170 132 13685750355826953609
11719270 70 12829201175004740529
11991303 11 17489862761485436119
125118 31 18336266760844450081
13533116 47 18040996185801519178
13668630 136 8502385442163381568
13782708 43 8790888467313053265
13878862 14 18339348717558950868
13955234 65 18042116579534200826
14251757 52 18202282498576298145
14347332 77 10519722067473040827
15183329 4 16774080670175266537
15348495 7 17603874437546255315
15352257 5 9367339341245053969
155225 6 17972325272472290484
15840311 113 18335986389858457557
17134984 74 11239996763521181828
18222031 100 13398631653711903067
18335252 114 17917714608963596668
20157964 124 18341895177682563398
20281389 69 18334576820262439833
20397935 70 8070028861492126068
21298829 104 18342174526761843056
21344244 181 11167940277421474869
21521239 73 11384113033923196717
21637258 2 8070032138578481723
21641784 216 16486984959784491497
21792934 111 16443613615825867447
220451 1 11674890982626796939
22061861 79 11312060933037521073
2215653 11 12967134929677283542
22224240 67 17603867798181294211
23081809 10 16988847146963259595
23559900 14 17313112960327805470
249057 25 17560245712818737795
2748736 6 18410288134078248361
2838139 119 18343014480852241149
328310 630 18131075931223476993
33382 64 8718830890038289109
33532 11 8790879684427186441
3472631 163 17703508908574976956
34797466 226 18272375243923766551
397830 11 18187376475468202003
4340502 62 17167579384280504475
44555599 121 18201726098585290145
465052 167 7925641007443987768
5104073 3 15647634366272759369
5364581 5 17532665722757855969
5718773 13 10735618868348461708
59682541 52 17060349500155146060
6328613 192 18273214201582018273
6898599 12 17844806082523978439

> <PUBCHEM_SHAPE_MULTIPOLES>
468.17
21.75
2.49
1.46
27.21
1.15
0.12
14.39
-2.35
-4.6
-0.04
0.05
-0.01
0.33

> <PUBCHEM_SHAPE_SELFOVERLAP>
957.766

> <PUBCHEM_SHAPE_VOLUME>
271.1

> <PUBCHEM_COORDINATE_TYPE>
2
5
10

$$$$
