71693177
  -OEChem-12032416303D

 68 70  0     1  0  0  0  0  0999 V2000
    4.8761   -1.5585   -1.4029 O   0  0  0  0  0  0  0  0  0  0  0  0
   -6.9807    0.7455    0.1185 O   0  0  0  0  0  0  0  0  0  0  0  0
   -7.3105   -1.4499   -0.4901 O   0  0  0  0  0  0  0  0  0  0  0  0
    4.6935    0.0576    0.2569 N   0  0  0  0  0  0  0  0  0  0  0  0
   -1.9989    0.6881    1.4069 N   0  0  0  0  0  0  0  0  0  0  0  0
   -0.9600   -0.7419    0.0594 N   0  0  0  0  0  0  0  0  0  0  0  0
    4.6404   -2.1852    0.8187 N   0  0  0  0  0  0  0  0  0  0  0  0
    2.2761    1.3171   -1.0131 C   0  0  1  0  0  0  0  0  0  0  0  0
    3.5166    2.0674   -0.4671 C   0  0  1  0  0  0  0  0  0  0  0  0
    0.9844    1.9823   -0.5137 C   0  0  0  0  0  0  0  0  0  0  0  0
    0.9003    2.0100    1.0241 C   0  0  2  0  0  0  0  0  0  0  0  0
    2.2728    1.2622   -2.5439 C   0  0  0  0  0  0  0  0  0  0  0  0
    2.1942    2.4896    1.6503 C   0  0  0  0  0  0  0  0  0  0  0  0
    3.3506    2.5207    0.9644 C   0  0  0  0  0  0  0  0  0  0  0  0
    4.7802    1.2077   -0.5872 C   0  0  0  0  0  0  0  0  0  0  0  0
    0.4965    0.6399    1.5800 C   0  0  0  0  0  0  0  0  0  0  0  0
    1.7362    2.5678   -3.1220 C   0  0  0  0  0  0  0  0  0  0  0  0
    1.4484    0.0753   -3.0321 C   0  0  0  0  0  0  0  0  0  0  0  0
    2.1194    2.9761    3.0708 C   0  0  0  0  0  0  0  0  0  0  0  0
   -0.8034    0.1707    0.9920 C   0  0  0  0  0  0  0  0  0  0  0  0
    4.7480   -1.2597   -0.2163 C   0  0  0  0  0  0  0  0  0  0  0  0
   -2.9932    0.0681    0.6944 C   0  0  0  0  0  0  0  0  0  0  0  0
   -2.3193   -0.8197   -0.1396 C   0  0  0  0  0  0  0  0  0  0  0  0
   -4.3817    0.2037    0.7075 C   0  0  0  0  0  0  0  0  0  0  0  0
   -3.0585   -1.6284   -1.0192 C   0  0  0  0  0  0  0  0  0  0  0  0
   -5.1018   -0.6090   -0.1744 C   0  0  0  0  0  0  0  0  0  0  0  0
    4.6682   -3.6120    0.5987 C   0  0  0  0  0  0  0  0  0  0  0  0
   -4.4540   -1.5094   -1.0232 C   0  0  0  0  0  0  0  0  0  0  0  0
    3.2783   -4.1898    0.3607 C   0  0  0  0  0  0  0  0  0  0  0  0
   -6.5534   -0.5128   -0.2060 C   0  0  0  0  0  0  0  0  0  0  0  0
    2.3301   -3.9401    1.5249 C   0  0  0  0  0  0  0  0  0  0  0  0
   -8.3952    0.9666    0.1226 C   0  0  0  0  0  0  0  0  0  0  0  0
    2.2890    0.2883   -0.6334 H   0  0  0  0  0  0  0  0  0  0  0  0
    3.6845    2.9767   -1.0578 H   0  0  0  0  0  0  0  0  0  0  0  0
    0.0947    1.5287   -0.9583 H   0  0  0  0  0  0  0  0  0  0  0  0
    0.9627    3.0371   -0.8205 H   0  0  0  0  0  0  0  0  0  0  0  0
    0.1144    2.7356    1.2790 H   0  0  0  0  0  0  0  0  0  0  0  0
    3.2895    1.1165   -2.9230 H   0  0  0  0  0  0  0  0  0  0  0  0
    4.2391    2.9193    1.4504 H   0  0  0  0  0  0  0  0  0  0  0  0
    5.6568    1.7760   -0.2533 H   0  0  0  0  0  0  0  0  0  0  0  0
    4.9767    0.9109   -1.6209 H   0  0  0  0  0  0  0  0  0  0  0  0
    0.3858    0.6825    2.6708 H   0  0  0  0  0  0  0  0  0  0  0  0
    1.2694   -0.1127    1.3814 H   0  0  0  0  0  0  0  0  0  0  0  0
    1.9131    2.5810   -4.2047 H   0  0  0  0  0  0  0  0  0  0  0  0
    2.2419    3.4491   -2.7164 H   0  0  0  0  0  0  0  0  0  0  0  0
    0.6544    2.6824   -2.9968 H   0  0  0  0  0  0  0  0  0  0  0  0
    1.4769    0.0139   -4.1256 H   0  0  0  0  0  0  0  0  0  0  0  0
    0.3977    0.1475   -2.7347 H   0  0  0  0  0  0  0  0  0  0  0  0
    1.8476   -0.8665   -2.6401 H   0  0  0  0  0  0  0  0  0  0  0  0
    1.3698    3.7688    3.1620 H   0  0  0  0  0  0  0  0  0  0  0  0
    3.0744    3.3855    3.4170 H   0  0  0  0  0  0  0  0  0  0  0  0
    1.8480    2.1598    3.7467 H   0  0  0  0  0  0  0  0  0  0  0  0
    4.6552    0.1959    1.2622 H   0  0  0  0  0  0  0  0  0  0  0  0
   -2.1292    1.4012    2.1123 H   0  0  0  0  0  0  0  0  0  0  0  0
    4.5285   -1.8442    1.7685 H   0  0  0  0  0  0  0  0  0  0  0  0
   -4.8583    0.9027    1.3861 H   0  0  0  0  0  0  0  0  0  0  0  0
   -2.5640   -2.3302   -1.6832 H   0  0  0  0  0  0  0  0  0  0  0  0
    5.1241   -4.0664    1.4847 H   0  0  0  0  0  0  0  0  0  0  0  0
    5.3116   -3.8304   -0.2605 H   0  0  0  0  0  0  0  0  0  0  0  0
   -5.0249   -2.1338   -1.7070 H   0  0  0  0  0  0  0  0  0  0  0  0
    2.8444   -3.7556   -0.5480 H   0  0  0  0  0  0  0  0  0  0  0  0
    3.3643   -5.2695    0.1933 H   0  0  0  0  0  0  0  0  0  0  0  0
    2.7373   -4.3455    2.4566 H   0  0  0  0  0  0  0  0  0  0  0  0
    2.1402   -2.8714    1.6663 H   0  0  0  0  0  0  0  0  0  0  0  0
    1.3676   -4.4262    1.3360 H   0  0  0  0  0  0  0  0  0  0  0  0
   -8.5761    2.0089    0.3980 H   0  0  0  0  0  0  0  0  0  0  0  0
   -8.8758    0.3181    0.8610 H   0  0  0  0  0  0  0  0  0  0  0  0
   -8.8075    0.7885   -0.8750 H   0  0  0  0  0  0  0  0  0  0  0  0
  1 21  2  0  0  0  0
  2 30  1  0  0  0  0
  2 32  1  0  0  0  0
  3 30  2  0  0  0  0
  4 15  1  0  0  0  0
  4 21  1  0  0  0  0
  4 53  1  0  0  0  0
  5 20  1  0  0  0  0
  5 22  1  0  0  0  0
  5 54  1  0  0  0  0
  6 20  2  0  0  0  0
  6 23  1  0  0  0  0
  7 21  1  0  0  0  0
  7 27  1  0  0  0  0
  7 55  1  0  0  0  0
  8  9  1  0  0  0  0
  8 10  1  0  0  0  0
  8 12  1  0  0  0  0
  8 33  1  0  0  0  0
  9 14  1  0  0  0  0
  9 15  1  0  0  0  0
  9 34  1  0  0  0  0
 10 11  1  0  0  0  0
 10 35  1  0  0  0  0
 10 36  1  0  0  0  0
 11 13  1  0  0  0  0
 11 16  1  0  0  0  0
 11 37  1  0  0  0  0
 12 17  1  0  0  0  0
 12 18  1  0  0  0  0
 12 38  1  0  0  0  0
 13 14  2  0  0  0  0
 13 19  1  0  0  0  0
 14 39  1  0  0  0  0
 15 40  1  0  0  0  0
 15 41  1  0  0  0  0
 16 20  1  0  0  0  0
 16 42  1  0  0  0  0
 16 43  1  0  0  0  0
 17 44  1  0  0  0  0
 17 45  1  0  0  0  0
 17 46  1  0  0  0  0
 18 47  1  0  0  0  0
 18 48  1  0  0  0  0
 18 49  1  0  0  0  0
 19 50  1  0  0  0  0
 19 51  1  0  0  0  0
 19 52  1  0  0  0  0
 22 23  2  0  0  0  0
 22 24  1  0  0  0  0
 23 25  1  0  0  0  0
 24 26  2  0  0  0  0
 24 56  1  0  0  0  0
 25 28  2  0  0  0  0
 25 57  1  0  0  0  0
 26 28  1  0  0  0  0
 26 30  1  0  0  0  0
 27 29  1  0  0  0  0
 27 58  1  0  0  0  0
 27 59  1  0  0  0  0
 28 60  1  0  0  0  0
 29 31  1  0  0  0  0
 29 61  1  0  0  0  0
 29 62  1  0  0  0  0
 31 63  1  0  0  0  0
 31 64  1  0  0  0  0
 31 65  1  0  0  0  0
 32 66  1  0  0  0  0
 32 67  1  0  0  0  0
 32 68  1  0  0  0  0
M  END
> <PUBCHEM_COMPOUND_CID>
71693177

> <PUBCHEM_CONFORMER_RMSD>
1.2

> <PUBCHEM_CONFORMER_DIVERSEORDER>
1
14
18
20
25
8
28
23
21
27
9
15
12
19
17
26
6
13
10
4
22
2
24
7
11
5
16
3

> <PUBCHEM_MMFF94_PARTIAL_CHARGES>
32
1 -0.57
11 0.14
13 -0.28
14 -0.29
15 0.3
16 0.18
19 0.14
2 -0.43
20 0.01
21 0.69
22 -0.15
23 0.23
24 -0.15
25 -0.15
26 0.09
27 0.3
28 -0.15
3 -0.57
30 0.63
32 0.28
39 0.15
4 -0.73
5 0.03
53 0.37
54 0.27
55 0.37
56 0.15
57 0.15
6 -0.57
60 0.15
7 -0.73
9 0.14

> <PUBCHEM_EFFECTIVE_ROTOR_COUNT>
11.8

> <PUBCHEM_PHARMACOPHORE_FEATURES>
11
1 1 acceptor
1 3 acceptor
1 31 hydrophobe
1 4 donor
1 5 donor
1 7 donor
3 12 17 18 hydrophobe
3 5 6 20 cation
5 5 6 20 22 23 rings
6 22 23 24 25 26 28 rings
6 8 9 10 11 13 14 rings

> <PUBCHEM_HEAVY_ATOM_COUNT>
32

> <PUBCHEM_ATOM_DEF_STEREO_COUNT>
3

> <PUBCHEM_ATOM_UDEF_STEREO_COUNT>
0

> <PUBCHEM_BOND_DEF_STEREO_COUNT>
0

> <PUBCHEM_BOND_UDEF_STEREO_COUNT>
0

> <PUBCHEM_ISOTOPIC_ATOM_COUNT>
0

> <PUBCHEM_COMPONENT_COUNT>
1

> <PUBCHEM_CACTVS_TAUTO_COUNT>
21

> <PUBCHEM_CONFORMER_ID>
0445F37900000001

> <PUBCHEM_MMFF94_ENERGY>
55.2188

> <PUBCHEM_FEATURE_SELFOVERLAP>
55.975

> <PUBCHEM_SHAPE_FINGERPRINT>
10816530 23 17391649048184346748
11796584 16 17774446104173851895
13165053 137 13717793048620932667
13533116 47 18411980269145161307
13947947 73 18116140087530041079
14068700 675 18270124496883360370
15183329 4 17846225466679429289
18681886 176 15840716339115298176
20511986 3 17917421081617401148
20775530 9 17899987024086022922
21285901 2 17603299324567315534
21315764 119 18259704506416603397
23559900 14 18113338622360401899
27425 322 17980751963482540625
3004659 81 17489597808778523865
345986 75 18199181798682105186
4073 2 18125155189323627049
4093350 32 17749676293534091500
46194498 28 17530684333362122678
463206 1 18411983589677536418
5081480 168 17677322806319157519
8509985 295 18060701706124035796

> <PUBCHEM_SHAPE_MULTIPOLES>
621.01
15.95
4.19
2.41
36.26
3.91
-1.02
4.95
-1
-8.03
1.58
-2.62
-1.99
-1.25

> <PUBCHEM_SHAPE_SELFOVERLAP>
1295.956

> <PUBCHEM_SHAPE_VOLUME>
352.4

> <PUBCHEM_COORDINATE_TYPE>
2
5
10

$$$$
