11941985
  -OEChem-12032416153D

 52 55  0     1  0  0  0  0  0999 V2000
    2.0535    1.5681   -0.5822 O   0  0  0  0  0  0  0  0  0  0  0  0
    6.7228    0.5207    0.6671 O   0  0  0  0  0  0  0  0  0  0  0  0
   -6.6174   -0.4285    0.7547 O   0  0  0  0  0  0  0  0  0  0  0  0
   -0.6563   -0.9760    0.4409 N   0  0  2  0  0  0  0  0  0  0  0  0
    4.0138    0.4204   -0.1021 N   0  0  0  0  0  0  0  0  0  0  0  0
   -2.6987    0.7853   -0.6547 N   0  0  0  0  0  0  0  0  0  0  0  0
   -2.6918    1.3703    0.5468 N   0  0  0  0  0  0  0  0  0  0  0  0
   -3.9557    1.4309    0.9515 N   0  0  0  0  0  0  0  0  0  0  0  0
    1.5403   -1.6140   -0.8000 C   0  0  2  0  0  0  0  0  0  0  0  0
    1.8124   -0.6056    0.3327 C   0  0  2  0  0  0  0  0  0  0  0  0
   -0.8282   -0.7874   -1.0244 C   0  0  2  0  0  0  0  0  0  0  0  0
    0.5051   -1.0119   -1.7708 C   0  0  0  0  0  0  0  0  0  0  0  0
    0.8930   -2.8495   -0.1487 C   0  0  0  0  0  0  0  0  0  0  0  0
    0.4723   -0.1502    0.9372 C   0  0  0  0  0  0  0  0  0  0  0  0
   -0.3254   -2.4031    0.6809 C   0  0  0  0  0  0  0  0  0  0  0  0
   -1.4514    0.5672   -1.3684 C   0  0  0  0  0  0  0  0  0  0  0  0
    2.6291    0.5616   -0.1611 C   0  0  0  0  0  0  0  0  0  0  0  0
    4.7292   -0.8042    0.2716 C   0  0  0  0  0  0  0  0  0  0  0  0
    4.8808    1.5074   -0.5568 C   0  0  0  0  0  0  0  0  0  0  0  0
   -3.9452    0.4526   -1.0625 C   0  0  0  0  0  0  0  0  0  0  0  0
    5.8679   -0.4782    1.2296 C   0  0  0  0  0  0  0  0  0  0  0  0
    6.0085    1.7383    0.4389 C   0  0  0  0  0  0  0  0  0  0  0  0
   -4.7360    0.8729   -0.0226 C   0  0  0  0  0  0  0  0  0  0  0  0
   -6.1946    0.7872    0.1241 C   0  0  0  0  0  0  0  0  0  0  0  0
   -8.0281   -0.4746    0.8784 C   0  0  0  0  0  0  0  0  0  0  0  0
    2.4534   -1.8888   -1.3380 H   0  0  0  0  0  0  0  0  0  0  0  0
    2.3325   -1.0967    1.1595 H   0  0  0  0  0  0  0  0  0  0  0  0
   -1.5431   -1.5485   -1.3711 H   0  0  0  0  0  0  0  0  0  0  0  0
    0.3385   -1.7074   -2.6031 H   0  0  0  0  0  0  0  0  0  0  0  0
    0.8856   -0.0848   -2.2127 H   0  0  0  0  0  0  0  0  0  0  0  0
    1.6152   -3.3631    0.4967 H   0  0  0  0  0  0  0  0  0  0  0  0
    0.5823   -3.5621   -0.9222 H   0  0  0  0  0  0  0  0  0  0  0  0
    0.5196   -0.2559    2.0299 H   0  0  0  0  0  0  0  0  0  0  0  0
    0.2580    0.9124    0.7873 H   0  0  0  0  0  0  0  0  0  0  0  0
   -0.1350   -2.5648    1.7495 H   0  0  0  0  0  0  0  0  0  0  0  0
   -1.1911   -3.0324    0.4400 H   0  0  0  0  0  0  0  0  0  0  0  0
   -1.6814    0.6188   -2.4396 H   0  0  0  0  0  0  0  0  0  0  0  0
   -0.7904    1.4110   -1.1416 H   0  0  0  0  0  0  0  0  0  0  0  0
    4.1026   -1.5872    0.6923 H   0  0  0  0  0  0  0  0  0  0  0  0
    5.1439   -1.2005   -0.6640 H   0  0  0  0  0  0  0  0  0  0  0  0
    4.3111    2.4291   -0.7092 H   0  0  0  0  0  0  0  0  0  0  0  0
    5.2885    1.1954   -1.5255 H   0  0  0  0  0  0  0  0  0  0  0  0
   -4.1585   -0.0310   -2.0053 H   0  0  0  0  0  0  0  0  0  0  0  0
    6.4730   -1.3719    1.4115 H   0  0  0  0  0  0  0  0  0  0  0  0
    5.4879   -0.1272    2.1964 H   0  0  0  0  0  0  0  0  0  0  0  0
    5.6274    2.1183    1.3943 H   0  0  0  0  0  0  0  0  0  0  0  0
    6.7153    2.4742    0.0431 H   0  0  0  0  0  0  0  0  0  0  0  0
   -6.6673    0.8572   -0.8636 H   0  0  0  0  0  0  0  0  0  0  0  0
   -6.5482    1.6366    0.7215 H   0  0  0  0  0  0  0  0  0  0  0  0
   -8.5035   -0.4417   -0.1068 H   0  0  0  0  0  0  0  0  0  0  0  0
   -8.3013   -1.4156    1.3634 H   0  0  0  0  0  0  0  0  0  0  0  0
   -8.3888    0.3522    1.4982 H   0  0  0  0  0  0  0  0  0  0  0  0
  1 17  2  0  0  0  0
  2 21  1  0  0  0  0
  2 22  1  0  0  0  0
  3 24  1  0  0  0  0
  3 25  1  0  0  0  0
  4 11  1  0  0  0  0
  4 14  1  0  0  0  0
  4 15  1  0  0  0  0
  5 17  1  0  0  0  0
  5 18  1  0  0  0  0
  5 19  1  0  0  0  0
  6  7  1  0  0  0  0
  6 16  1  0  0  0  0
  6 20  1  0  0  0  0
  7  8  2  0  0  0  0
  8 23  1  0  0  0  0
  9 10  1  0  0  0  0
  9 12  1  0  0  0  0
  9 13  1  0  0  0  0
  9 26  1  0  0  0  0
 10 14  1  0  0  0  0
 10 17  1  0  0  0  0
 10 27  1  0  0  0  0
 11 12  1  0  0  0  0
 11 16  1  0  0  0  0
 11 28  1  0  0  0  0
 12 29  1  0  0  0  0
 12 30  1  0  0  0  0
 13 15  1  0  0  0  0
 13 31  1  0  0  0  0
 13 32  1  0  0  0  0
 14 33  1  0  0  0  0
 14 34  1  0  0  0  0
 15 35  1  0  0  0  0
 15 36  1  0  0  0  0
 16 37  1  0  0  0  0
 16 38  1  0  0  0  0
 18 21  1  0  0  0  0
 18 39  1  0  0  0  0
 18 40  1  0  0  0  0
 19 22  1  0  0  0  0
 19 41  1  0  0  0  0
 19 42  1  0  0  0  0
 20 23  2  0  0  0  0
 20 43  1  0  0  0  0
 21 44  1  0  0  0  0
 21 45  1  0  0  0  0
 22 46  1  0  0  0  0
 22 47  1  0  0  0  0
 23 24  1  0  0  0  0
 24 48  1  0  0  0  0
 24 49  1  0  0  0  0
 25 50  1  0  0  0  0
 25 51  1  0  0  0  0
 25 52  1  0  0  0  0
M  END
> <PUBCHEM_COMPOUND_CID>
11941985

> <PUBCHEM_CONFORMER_RMSD>
1

> <PUBCHEM_CONFORMER_DIVERSEORDER>
2
12
18
20
6
9
4
24
7
15
1
16
5
8
19
13
22
14
10
11
23
3
17
21

> <PUBCHEM_MMFF94_PARTIAL_CHARGES>
23
1 -0.57
10 0.06
11 0.27
14 0.27
15 0.27
16 0.26
17 0.57
18 0.3
19 0.3
2 -0.56
20 -0.3
21 0.28
22 0.28
23 0.05
24 0.46
25 0.28
3 -0.56
4 -0.81
43 0.15
5 -0.66
6 0.31
7 -0.42
8 -0.23

> <PUBCHEM_EFFECTIVE_ROTOR_COUNT>
8.4

> <PUBCHEM_PHARMACOPHORE_FEATURES>
7
1 1 acceptor
1 2 acceptor
1 3 acceptor
1 4 cation
5 6 7 8 20 23 rings
6 2 5 18 19 21 22 rings
8 4 9 10 11 12 13 14 15 rings

> <PUBCHEM_HEAVY_ATOM_COUNT>
25

> <PUBCHEM_ATOM_DEF_STEREO_COUNT>
3

> <PUBCHEM_ATOM_UDEF_STEREO_COUNT>
0

> <PUBCHEM_BOND_DEF_STEREO_COUNT>
0

> <PUBCHEM_BOND_UDEF_STEREO_COUNT>
0

> <PUBCHEM_ISOTOPIC_ATOM_COUNT>
0

> <PUBCHEM_COMPONENT_COUNT>
1

> <PUBCHEM_CACTVS_TAUTO_COUNT>
1

> <PUBCHEM_CONFORMER_ID>
00B6386100000002

> <PUBCHEM_MMFF94_ENERGY>
58.6396

> <PUBCHEM_FEATURE_SELFOVERLAP>
35.522

> <PUBCHEM_SHAPE_FINGERPRINT>
10 15 18040715900662338704
106641 1 17749110023349039889
10835480 77 18262232211162496173
11646440 116 17989490727165127353
11724838 91 18410292540825119767
12011746 2 8718825405359985044
12236239 1 18060414681733060924
12516196 113 8934995975607575742
12730499 353 18341619195847951991
12916748 109 18272373053231949940
13004483 165 9439411190020428940
13533116 47 17703786969611940766
13631057 29 18200018681929682175
13914758 101 13190332457980851743
14251752 14 11167949043480574665
14251764 18 18260826025477864172
14341114 328 18272652325285797235
14849402 71 18270118049104377425
15183329 4 9943813279176638895
15295992 7 18270394018333116200
15475509 8 12535632669599612491
18006028 8 12540693725690028383
18222031 100 11530484411342952790
20028762 73 13045944599337579104
20567600 234 17821732753494424444
20735858 18 18187365432932976155
21033648 29 17386265654407910948
21236236 1 18337387253092087447
21304304 249 16660366987028539963
21424621 283 16702023067030406818
21521721 280 17988643038017411992
21637258 2 12973600045459207588
22079108 93 18408603668909776942
22224240 67 18335419084623600907
23622692 88 13118004400740114305
2838139 119 18131059437958495676
3004659 81 11527952253318121180
3009799 131 10952047857665591086
3178227 256 18342745143452934097
347723 3 15267342907375726606
350125 39 18337672034934659483
392239 28 18339092574668266585
4098825 35 13829866676940991505
4325135 7 18410573999001736647
4340502 62 18409451366695042527
474 4 18411419496708406660
5283173 99 12463302379487538578
5758199 1 18343868822771688761
58260988 393 17346325851769016537
59682541 35 18339645642028618363
59755656 520 18411692210010271726
6081469 158 13190329171724358209
6328613 192 10375867498366361587

> <PUBCHEM_SHAPE_MULTIPOLES>
471.98
17
2.05
1.22
13.39
0.99
-0.25
-6.4
6.65
-1.15
0.01
0.22
0.13
0.06

> <PUBCHEM_SHAPE_SELFOVERLAP>
992.547

> <PUBCHEM_SHAPE_VOLUME>
263.1

> <PUBCHEM_COORDINATE_TYPE>
2
5
10

$$$$
