11879618
  -OEChem-12032416373D

 59 64  0     1  0  0  0  0  0999 V2000
    6.5628   -1.1372    0.1354 S   0  0  0  0  0  0  0  0  0  0  0  0
    7.7165    0.8526   -1.6695 S   0  0  0  0  0  0  0  0  0  0  0  0
    2.4435    0.7472   -1.1784 O   0  0  0  0  0  0  0  0  0  0  0  0
    2.3720    0.3244    1.9506 O   0  0  0  0  0  0  0  0  0  0  0  0
   -2.2229   -0.0583   -0.6685 O   0  0  0  0  0  0  0  0  0  0  0  0
    7.2092   -2.0651   -0.7721 O   0  0  0  0  0  0  0  0  0  0  0  0
    6.5638   -1.3596    1.5680 O   0  0  0  0  0  0  0  0  0  0  0  0
   -9.1833    1.3282    1.5062 O   0  0  0  0  0  0  0  0  0  0  0  0
    4.9547   -0.8648   -0.3792 N   0  0  0  0  0  0  0  0  0  0  0  0
   -0.3479   -0.8431    0.5542 N   0  0  0  0  0  0  0  0  0  0  0  0
   -0.0335   -1.9076    1.2984 N   0  0  0  0  0  0  0  0  0  0  0  0
   -2.1232   -2.0753    0.5398 N   0  0  0  0  0  0  0  0  0  0  0  0
   -1.1263   -2.6609    1.2869 N   0  0  0  0  0  0  0  0  0  0  0  0
   -6.9389    0.6014   -0.0215 N   0  0  0  0  0  0  0  0  0  0  0  0
    2.8741   -0.4376    0.8416 C   0  0  1  0  0  0  0  0  0  0  0  0
    1.9041   -0.2673   -0.3119 C   0  0  1  0  0  0  0  0  0  0  0  0
    4.1644    0.1639    0.3389 C   0  0  2  0  0  0  0  0  0  0  0  0
    0.6230    0.2311    0.3299 C   0  0  2  0  0  0  0  0  0  0  0  0
    3.6882    1.2156   -0.6416 C   0  0  0  0  0  0  0  0  0  0  0  0
    1.1202    0.9249    1.5929 C   0  0  0  0  0  0  0  0  0  0  0  0
   -1.6171   -0.9480    0.0956 C   0  0  0  0  0  0  0  0  0  0  0  0
    7.4486    0.4100   -0.0520 C   0  0  0  0  0  0  0  0  0  0  0  0
    7.9428    1.2887    0.8523 C   0  0  0  0  0  0  0  0  0  0  0  0
   -3.5283   -0.2190   -1.1121 C   0  0  0  0  0  0  0  0  0  0  0  0
   -5.8755    0.1118   -0.7868 C   0  0  0  0  0  0  0  0  0  0  0  0
   -4.5636    0.2735   -0.3411 C   0  0  0  0  0  0  0  0  0  0  0  0
   -7.1091    0.0816    1.3423 C   0  0  0  0  0  0  0  0  0  0  0  0
   -8.1736    1.0405   -0.6811 C   0  0  0  0  0  0  0  0  0  0  0  0
    8.5766    2.3871    0.2027 C   0  0  0  0  0  0  0  0  0  0  0  0
    8.5258    2.2763   -1.1693 C   0  0  0  0  0  0  0  0  0  0  0  0
   -3.7540   -0.8665   -2.3114 C   0  0  0  0  0  0  0  0  0  0  0  0
   -7.9461    1.0556    2.1638 C   0  0  0  0  0  0  0  0  0  0  0  0
   -8.9541    1.9630    0.2486 C   0  0  0  0  0  0  0  0  0  0  0  0
   -6.1267   -0.5390   -1.9945 C   0  0  0  0  0  0  0  0  0  0  0  0
   -5.0659   -1.0282   -2.7569 C   0  0  0  0  0  0  0  0  0  0  0  0
    2.9663   -1.4768    1.1730 H   0  0  0  0  0  0  0  0  0  0  0  0
    1.7887   -1.1754   -0.9124 H   0  0  0  0  0  0  0  0  0  0  0  0
    4.7521    0.6196    1.1414 H   0  0  0  0  0  0  0  0  0  0  0  0
    0.1121    0.9655   -0.3042 H   0  0  0  0  0  0  0  0  0  0  0  0
    3.4858    2.1631   -0.1301 H   0  0  0  0  0  0  0  0  0  0  0  0
    4.3843    1.4116   -1.4622 H   0  0  0  0  0  0  0  0  0  0  0  0
    0.4280    0.8505    2.4370 H   0  0  0  0  0  0  0  0  0  0  0  0
    1.3147    1.9857    1.4004 H   0  0  0  0  0  0  0  0  0  0  0  0
    4.7334   -0.9843   -1.3759 H   0  0  0  0  0  0  0  0  0  0  0  0
    7.8666    1.1746    1.9256 H   0  0  0  0  0  0  0  0  0  0  0  0
   -6.1510   -0.0741    1.8499 H   0  0  0  0  0  0  0  0  0  0  0  0
   -7.6190   -0.8881    1.2836 H   0  0  0  0  0  0  0  0  0  0  0  0
   -8.7878    0.1630   -0.9181 H   0  0  0  0  0  0  0  0  0  0  0  0
   -7.9582    1.5804   -1.6107 H   0  0  0  0  0  0  0  0  0  0  0  0
   -4.3491    0.7899    0.5906 H   0  0  0  0  0  0  0  0  0  0  0  0
    9.0457    3.2165    0.7158 H   0  0  0  0  0  0  0  0  0  0  0  0
    8.9250    2.9634   -1.9020 H   0  0  0  0  0  0  0  0  0  0  0  0
   -7.4096    1.9964    2.3365 H   0  0  0  0  0  0  0  0  0  0  0  0
   -8.1741    0.6193    3.1414 H   0  0  0  0  0  0  0  0  0  0  0  0
   -8.4239    2.9095    0.4096 H   0  0  0  0  0  0  0  0  0  0  0  0
   -9.9280    2.1997   -0.1915 H   0  0  0  0  0  0  0  0  0  0  0  0
   -2.9298   -1.2480   -2.9064 H   0  0  0  0  0  0  0  0  0  0  0  0
   -7.1358   -0.6951   -2.3651 H   0  0  0  0  0  0  0  0  0  0  0  0
   -5.2611   -1.5378   -3.6959 H   0  0  0  0  0  0  0  0  0  0  0  0
  1  6  2  0  0  0  0
  1  7  2  0  0  0  0
  1  9  1  0  0  0  0
  1 22  1  0  0  0  0
  2 22  1  0  0  0  0
  2 30  1  0  0  0  0
  3 16  1  0  0  0  0
  3 19  1  0  0  0  0
  4 15  1  0  0  0  0
  4 20  1  0  0  0  0
  5 21  1  0  0  0  0
  5 24  1  0  0  0  0
  8 32  1  0  0  0  0
  8 33  1  0  0  0  0
  9 17  1  0  0  0  0
  9 44  1  0  0  0  0
 10 11  1  0  0  0  0
 10 18  1  0  0  0  0
 10 21  1  0  0  0  0
 11 13  2  0  0  0  0
 12 13  1  0  0  0  0
 12 21  2  0  0  0  0
 14 25  1  0  0  0  0
 14 27  1  0  0  0  0
 14 28  1  0  0  0  0
 15 16  1  0  0  0  0
 15 17  1  0  0  0  0
 15 36  1  0  0  0  0
 16 18  1  0  0  0  0
 16 37  1  0  0  0  0
 17 19  1  0  0  0  0
 17 38  1  0  0  0  0
 18 20  1  0  0  0  0
 18 39  1  0  0  0  0
 19 40  1  0  0  0  0
 19 41  1  0  0  0  0
 20 42  1  0  0  0  0
 20 43  1  0  0  0  0
 22 23  2  0  0  0  0
 23 29  1  0  0  0  0
 23 45  1  0  0  0  0
 24 26  1  0  0  0  0
 24 31  2  0  0  0  0
 25 26  2  0  0  0  0
 25 34  1  0  0  0  0
 26 50  1  0  0  0  0
 27 32  1  0  0  0  0
 27 46  1  0  0  0  0
 27 47  1  0  0  0  0
 28 33  1  0  0  0  0
 28 48  1  0  0  0  0
 28 49  1  0  0  0  0
 29 30  2  0  0  0  0
 29 51  1  0  0  0  0
 30 52  1  0  0  0  0
 31 35  1  0  0  0  0
 31 57  1  0  0  0  0
 32 53  1  0  0  0  0
 32 54  1  0  0  0  0
 33 55  1  0  0  0  0
 33 56  1  0  0  0  0
 34 35  2  0  0  0  0
 34 58  1  0  0  0  0
 35 59  1  0  0  0  0
M  END
> <PUBCHEM_COMPOUND_CID>
11879618

> <PUBCHEM_CONFORMER_RMSD>
1

> <PUBCHEM_CONFORMER_DIVERSEORDER>
1
187
334
285
314
229
64
40
280
206
26
109
273
195
249
162
205
152
200
298
136
203
171
153
158
47
274
315
65
270
214
286
255
50
245
221
349
219
271
237
317
211
149
235
329
148
251
17
247
88
73
347
254
167
85
129
173
269
142
179
291
118
217
54
325
44
163
116
225
123
110
67
70
331
43
295
231
125
170
175
75
310
342
266
141
104
5
246
252
117
56
108
243
303
230
209
233
90
282
192
49
57
244
14
218
316
89
94
119
29
348
31
345
339
308
300
161
112
155
265
189
28
39
215
248
240
139
250
275
297
227
20
133
346
124
140
37
309
81
193
137
332
128
120
7
343
135
313
69
181
284
290
182
127
72
264
174
208
34
114
305
107
257
59
95
115
138
344
350
61
122
253
312
268
223
45
198
186
222
8
86
294
258
177
21
207
159
146
324
84
76
340
283
25
259
106
224
9
98
318
185
22
299
92
36
78
96
322
201
319
260
256
241
66
6
306
164
113
77
196
311
41
327
330
143
176
180
333
100
165
38
301
212
103
232
99
46
262
87
166
281
144
323
101
63
105
202
320
10
184
213
27
287
24
326
335
341
238
169
62
178
48
293
33
220
32
145
60
121
242
51
30
131
210
272
321
278
199
58
18
154
55
11
204
304
151
19
156
42
239
4
93
74
228
168
226
111
79
147
91
52
289
102
234
216
157
53
134
191
97
338
263
337
150
292
194
80
132
172
288
296
190
328
336
83
23
236
267
302
183
160
71
15
261
188
2
130
197
307
276
12
16
279
126
3
13
68
277
35
82

> <PUBCHEM_MMFF94_PARTIAL_CHARGES>
42
1 1.5
10 0.31
11 -0.42
12 -0.34
14 -0.84
15 0.28
16 0.28
17 0.36
18 0.26
19 0.28
2 -0.08
20 0.28
21 0.25
22 -0.02
23 -0.15
24 0.08
25 0.1
26 -0.15
27 0.37
28 0.37
29 -0.15
3 -0.56
30 -0.11
31 -0.15
32 0.28
33 0.28
34 -0.15
35 -0.15
4 -0.56
44 0.42
45 0.15
5 -0.15
50 0.15
51 0.15
52 0.15
57 0.15
58 0.15
59 0.15
6 -0.65
7 -0.65
8 -0.56
9 -0.91

> <PUBCHEM_EFFECTIVE_ROTOR_COUNT>
9.4

> <PUBCHEM_PHARMACOPHORE_FEATURES>
14
1 14 cation
1 3 acceptor
1 4 acceptor
1 6 acceptor
1 7 acceptor
1 8 acceptor
1 9 donor
3 10 12 21 cation
5 10 11 12 13 21 rings
5 2 22 23 29 30 rings
5 3 15 16 17 19 rings
5 4 15 16 18 20 rings
6 24 25 26 31 34 35 rings
6 8 14 27 28 32 33 rings

> <PUBCHEM_HEAVY_ATOM_COUNT>
35

> <PUBCHEM_ATOM_DEF_STEREO_COUNT>
4

> <PUBCHEM_ATOM_UDEF_STEREO_COUNT>
0

> <PUBCHEM_BOND_DEF_STEREO_COUNT>
0

> <PUBCHEM_BOND_UDEF_STEREO_COUNT>
0

> <PUBCHEM_ISOTOPIC_ATOM_COUNT>
0

> <PUBCHEM_COMPONENT_COUNT>
1

> <PUBCHEM_CACTVS_TAUTO_COUNT>
1

> <PUBCHEM_CONFORMER_ID>
00B544C200000001

> <PUBCHEM_MMFF94_ENERGY>
91.8597

> <PUBCHEM_FEATURE_SELFOVERLAP>
71.755

> <PUBCHEM_SHAPE_FINGERPRINT>
10 15 16226041210622195445
10369192 42 17822006493900063303
10674148 151 17917988373587521555
10835480 77 18261108630458287108
11115154 58 18131354116060508584
11181472 205 17560531616260002040
11408170 132 17203326736936544912
11672396 167 13110422126434090780
12089408 11 18272929414921557447
12098696 120 17676200260486172566
12144603 126 17989489628048884420
12539765 74 18342741797647485150
13383668 1 10519713258395500664
13422730 43 13767925728208408013
14117953 113 15195567905180462712
15183329 4 16917349221486562171
15419008 91 15267044944120027978
15728490 51 14201405980404828635
1577012 14 18342451556177701782
16992787 43 18408605846626910170
18608769 82 15719395053231587129
19302320 297 16009036129204640524
19315958 150 18113618989509758882
195137 175 17989771111209393360
19611394 137 15285652005836571477
20105231 36 17240486879253122323
22224240 67 11458426829783822712
23559900 14 18263918999052985176
23576562 1 17559382772316448788
3178227 256 17313106345228362845
3633792 109 18060423530199036486
3711267 37 18408893918990964133
4112364 45 17023197062799174366
4339292 15 11527957733865117956
44575985 287 18198348553690047160
4516262 110 18341045204567048647
4625314 4 8574709092187333427
59682541 35 15791735213210383229
6081469 158 11239998940578418650
6698420 124 18261398819190899643
9663363 56 14562531787741138869
9953998 17 16660365879628467449

> <PUBCHEM_SHAPE_MULTIPOLES>
662.88
32.85
2.05
1.98
2.97
0.23
0.53
-11.27
-14.88
3.45
-0.31
-2.53
0.13
-1.7

> <PUBCHEM_SHAPE_SELFOVERLAP>
1416.456

> <PUBCHEM_SHAPE_VOLUME>
370.1

> <PUBCHEM_COORDINATE_TYPE>
2
5
10

$$$$
