38026845
  -OEChem-12032416143D

 77 79  0     1  0  0  0  0  0999 V2000
   -3.1573   -0.5412    2.7379 S   0  0  0  0  0  0  0  0  0  0  0  0
    2.2978   -1.7508   -2.4253 O   0  0  0  0  0  0  0  0  0  0  0  0
   -2.4309   -0.5245    3.9932 O   0  0  0  0  0  0  0  0  0  0  0  0
   -4.6074   -0.5657    2.7345 O   0  0  0  0  0  0  0  0  0  0  0  0
    6.3764    1.7424    2.2917 O   0  0  0  0  0  0  0  0  0  0  0  0
   -3.3293    4.6306   -1.8312 O   0  0  0  0  0  0  0  0  0  0  0  0
   -2.5752   -1.8157    1.7686 N   0  0  0  0  0  0  0  0  0  0  0  0
    3.1738   -0.5227   -0.6593 N   0  0  0  0  0  0  0  0  0  0  0  0
    5.5426    0.4648    0.5405 N   0  0  0  0  0  0  0  0  0  0  0  0
   -1.4928    4.2302   -0.4079 N   0  0  0  0  0  0  0  0  0  0  0  0
   -1.8088   -1.7432   -1.1274 C   0  0  1  0  0  0  0  0  0  0  0  0
   -2.5412   -2.9107   -0.4197 C   0  0  1  0  0  0  0  0  0  0  0  0
   -0.6295   -2.2740   -1.9566 C   0  0  0  0  0  0  0  0  0  0  0  0
    0.3916   -3.0392   -1.0938 C   0  0  2  0  0  0  0  0  0  0  0  0
   -2.7547   -0.9398   -2.0257 C   0  0  0  0  0  0  0  0  0  0  0  0
   -0.2840   -4.0294   -0.1671 C   0  0  0  0  0  0  0  0  0  0  0  0
   -1.5980   -3.9644    0.1117 C   0  0  0  0  0  0  0  0  0  0  0  0
   -3.4281   -2.3974    0.7203 C   0  0  0  0  0  0  0  0  0  0  0  0
    1.2845   -2.0729   -0.3075 C   0  0  0  0  0  0  0  0  0  0  0  0
   -2.0291    0.2623   -2.6219 C   0  0  0  0  0  0  0  0  0  0  0  0
   -3.3250   -1.8281   -3.1268 C   0  0  0  0  0  0  0  0  0  0  0  0
    0.5771   -5.1253    0.3967 C   0  0  0  0  0  0  0  0  0  0  0  0
    2.2928   -1.4387   -1.2318 C   0  0  0  0  0  0  0  0  0  0  0  0
    4.1860    0.1353   -1.4893 C   0  0  0  0  0  0  0  0  0  0  0  0
    3.1459   -0.0744    0.7392 C   0  0  0  0  0  0  0  0  0  0  0  0
    5.5707    0.0166   -0.8580 C   0  0  0  0  0  0  0  0  0  0  0  0
    4.5306   -0.1935    1.3703 C   0  0  0  0  0  0  0  0  0  0  0  0
   -2.6630    0.8757    1.8036 C   0  0  0  0  0  0  0  0  0  0  0  0
    6.4220    1.3825    1.1126 C   0  0  0  0  0  0  0  0  0  0  0  0
   -3.5185    1.4082    0.8390 C   0  0  0  0  0  0  0  0  0  0  0  0
   -1.4176    1.4613    2.0309 C   0  0  0  0  0  0  0  0  0  0  0  0
    7.4819    1.9561    0.2066 C   0  0  0  0  0  0  0  0  0  0  0  0
   -3.1285    2.5263    0.1019 C   0  0  0  0  0  0  0  0  0  0  0  0
   -1.0275    2.5792    1.2938 C   0  0  0  0  0  0  0  0  0  0  0  0
   -1.8829    3.1118    0.3293 C   0  0  0  0  0  0  0  0  0  0  0  0
   -2.2094    4.8995   -1.4091 C   0  0  0  0  0  0  0  0  0  0  0  0
   -1.4351    6.0688   -1.9640 C   0  0  0  0  0  0  0  0  0  0  0  0
   -1.4073   -1.0554   -0.3742 H   0  0  0  0  0  0  0  0  0  0  0  0
   -3.1884   -3.4524   -1.1139 H   0  0  0  0  0  0  0  0  0  0  0  0
   -0.1278   -1.4702   -2.4992 H   0  0  0  0  0  0  0  0  0  0  0  0
   -0.9837   -2.9827   -2.7149 H   0  0  0  0  0  0  0  0  0  0  0  0
    1.0063   -3.6342   -1.7841 H   0  0  0  0  0  0  0  0  0  0  0  0
   -3.5891   -0.5535   -1.4320 H   0  0  0  0  0  0  0  0  0  0  0  0
   -2.0386   -4.7301    0.7474 H   0  0  0  0  0  0  0  0  0  0  0  0
   -3.9953   -3.2248    1.1634 H   0  0  0  0  0  0  0  0  0  0  0  0
   -4.1536   -1.6686    0.3509 H   0  0  0  0  0  0  0  0  0  0  0  0
    1.8500   -2.6088    0.4628 H   0  0  0  0  0  0  0  0  0  0  0  0
    0.6931   -1.2936    0.1825 H   0  0  0  0  0  0  0  0  0  0  0  0
   -1.4427    0.7970   -1.8685 H   0  0  0  0  0  0  0  0  0  0  0  0
   -2.7590    0.9702   -3.0316 H   0  0  0  0  0  0  0  0  0  0  0  0
   -1.3656   -0.0105   -3.4487 H   0  0  0  0  0  0  0  0  0  0  0  0
   -3.9918   -1.2239   -3.7558 H   0  0  0  0  0  0  0  0  0  0  0  0
   -3.9453   -2.6461   -2.7568 H   0  0  0  0  0  0  0  0  0  0  0  0
   -2.5689   -2.2308   -3.8054 H   0  0  0  0  0  0  0  0  0  0  0  0
    1.0758   -5.6709   -0.4111 H   0  0  0  0  0  0  0  0  0  0  0  0
   -0.0074   -5.8530    0.9699 H   0  0  0  0  0  0  0  0  0  0  0  0
    1.3407   -4.7198    1.0665 H   0  0  0  0  0  0  0  0  0  0  0  0
   -1.8486   -2.4238    2.1655 H   0  0  0  0  0  0  0  0  0  0  0  0
    3.8944    1.1892   -1.5727 H   0  0  0  0  0  0  0  0  0  0  0  0
    4.1990   -0.2862   -2.4993 H   0  0  0  0  0  0  0  0  0  0  0  0
    2.4253   -0.6307    1.3402 H   0  0  0  0  0  0  0  0  0  0  0  0
    2.8231    0.9737    0.7275 H   0  0  0  0  0  0  0  0  0  0  0  0
    5.8948   -1.0310   -0.8475 H   0  0  0  0  0  0  0  0  0  0  0  0
    6.2916    0.5777   -1.4549 H   0  0  0  0  0  0  0  0  0  0  0  0
    4.5180    0.2264    2.3808 H   0  0  0  0  0  0  0  0  0  0  0  0
    4.8216   -1.2476    1.4526 H   0  0  0  0  0  0  0  0  0  0  0  0
   -4.4901    0.9644    0.6418 H   0  0  0  0  0  0  0  0  0  0  0  0
   -0.7333    1.0572    2.7716 H   0  0  0  0  0  0  0  0  0  0  0  0
    7.0178    2.5362   -0.5954 H   0  0  0  0  0  0  0  0  0  0  0  0
    8.1015    1.1560   -0.2071 H   0  0  0  0  0  0  0  0  0  0  0  0
    8.1296    2.6247    0.7820 H   0  0  0  0  0  0  0  0  0  0  0  0
   -3.8424    2.8792   -0.6291 H   0  0  0  0  0  0  0  0  0  0  0  0
   -0.0530    3.0236    1.4796 H   0  0  0  0  0  0  0  0  0  0  0  0
   -0.5706    4.5981   -0.1834 H   0  0  0  0  0  0  0  0  0  0  0  0
   -0.4821    5.7222   -2.3737 H   0  0  0  0  0  0  0  0  0  0  0  0
   -1.2487    6.7981   -1.1708 H   0  0  0  0  0  0  0  0  0  0  0  0
   -2.0094    6.5489   -2.7611 H   0  0  0  0  0  0  0  0  0  0  0  0
  1  3  2  0  0  0  0
  1  4  2  0  0  0  0
  1  7  1  0  0  0  0
  1 28  1  0  0  0  0
  2 23  2  0  0  0  0
  5 29  2  0  0  0  0
  6 36  2  0  0  0  0
  7 18  1  0  0  0  0
  7 58  1  0  0  0  0
  8 23  1  0  0  0  0
  8 24  1  0  0  0  0
  8 25  1  0  0  0  0
  9 26  1  0  0  0  0
  9 27  1  0  0  0  0
  9 29  1  0  0  0  0
 10 35  1  0  0  0  0
 10 36  1  0  0  0  0
 10 74  1  0  0  0  0
 11 12  1  0  0  0  0
 11 13  1  0  0  0  0
 11 15  1  0  0  0  0
 11 38  1  0  0  0  0
 12 17  1  0  0  0  0
 12 18  1  0  0  0  0
 12 39  1  0  0  0  0
 13 14  1  0  0  0  0
 13 40  1  0  0  0  0
 13 41  1  0  0  0  0
 14 16  1  0  0  0  0
 14 19  1  0  0  0  0
 14 42  1  0  0  0  0
 15 20  1  0  0  0  0
 15 21  1  0  0  0  0
 15 43  1  0  0  0  0
 16 17  2  0  0  0  0
 16 22  1  0  0  0  0
 17 44  1  0  0  0  0
 18 45  1  0  0  0  0
 18 46  1  0  0  0  0
 19 23  1  0  0  0  0
 19 47  1  0  0  0  0
 19 48  1  0  0  0  0
 20 49  1  0  0  0  0
 20 50  1  0  0  0  0
 20 51  1  0  0  0  0
 21 52  1  0  0  0  0
 21 53  1  0  0  0  0
 21 54  1  0  0  0  0
 22 55  1  0  0  0  0
 22 56  1  0  0  0  0
 22 57  1  0  0  0  0
 24 26  1  0  0  0  0
 24 59  1  0  0  0  0
 24 60  1  0  0  0  0
 25 27  1  0  0  0  0
 25 61  1  0  0  0  0
 25 62  1  0  0  0  0
 26 63  1  0  0  0  0
 26 64  1  0  0  0  0
 27 65  1  0  0  0  0
 27 66  1  0  0  0  0
 28 30  2  0  0  0  0
 28 31  1  0  0  0  0
 29 32  1  0  0  0  0
 30 33  1  0  0  0  0
 30 67  1  0  0  0  0
 31 34  2  0  0  0  0
 31 68  1  0  0  0  0
 32 69  1  0  0  0  0
 32 70  1  0  0  0  0
 32 71  1  0  0  0  0
 33 35  2  0  0  0  0
 33 72  1  0  0  0  0
 34 35  1  0  0  0  0
 34 73  1  0  0  0  0
 36 37  1  0  0  0  0
 37 75  1  0  0  0  0
 37 76  1  0  0  0  0
 37 77  1  0  0  0  0
M  END
> <PUBCHEM_COMPOUND_CID>
38026845

> <PUBCHEM_CONFORMER_RMSD>
1.4

> <PUBCHEM_CONFORMER_DIVERSEORDER>
2
104
31
164
167
180
37
103
179
54
168
68
53
69
30
90
50
142
88
45
7
72
154
21
55
158
39
23
159
171
95
106
176
16
63
105
46
14
162
43
113
112
33
82
101
141
177
20
40
150
73
178
134
13
29
144
5
146
140
165
161
132
166
119
38
124
136
67
175
11
118
151
97
102
83
114
163
59
157
27
76
137
64
127
32
160
44
183
56
87
91
74
96
47
41
170
36
65
49
25
77
117
78
75
138
70
86
109
181
10
156
122
116
22
139
129
85
89
99
115
79
149
135
19
153
58
15
121
12
92
173
51
94
133
34
128
8
57
172
147
120
3
98
100
152
145
60
155
125
126
9
148
18
111
169
48
80
110
143
182
17
42
174
66
81
107
28
4
93
131
71
108
61
52
123
35
130
24
1
62
6
84
26

> <PUBCHEM_MMFF94_PARTIAL_CHARGES>
39
1 1.45
10 -0.55
12 0.14
14 0.14
16 -0.28
17 -0.29
18 0.36
19 0.06
2 -0.57
22 0.14
23 0.57
24 0.3
25 0.3
26 0.3
27 0.3
28 -0.01
29 0.57
3 -0.65
30 -0.15
31 -0.15
32 0.06
33 -0.15
34 -0.15
35 0.12
36 0.57
37 0.06
4 -0.65
44 0.15
5 -0.57
58 0.42
6 -0.57
67 0.15
68 0.15
7 -0.91
72 0.15
73 0.15
74 0.37
8 -0.66
9 -0.66

> <PUBCHEM_EFFECTIVE_ROTOR_COUNT>
13

> <PUBCHEM_PHARMACOPHORE_FEATURES>
11
1 10 donor
1 2 acceptor
1 3 acceptor
1 4 acceptor
1 5 acceptor
1 6 acceptor
1 7 donor
3 15 20 21 hydrophobe
6 11 12 13 14 16 17 rings
6 28 30 31 33 34 35 rings
6 8 9 24 25 26 27 rings

> <PUBCHEM_HEAVY_ATOM_COUNT>
37

> <PUBCHEM_ATOM_DEF_STEREO_COUNT>
3

> <PUBCHEM_ATOM_UDEF_STEREO_COUNT>
0

> <PUBCHEM_BOND_DEF_STEREO_COUNT>
0

> <PUBCHEM_BOND_UDEF_STEREO_COUNT>
0

> <PUBCHEM_ISOTOPIC_ATOM_COUNT>
0

> <PUBCHEM_COMPONENT_COUNT>
1

> <PUBCHEM_CACTVS_TAUTO_COUNT>
2

> <PUBCHEM_CONFORMER_ID>
02443E5D00000002

> <PUBCHEM_MMFF94_ENERGY>
76.9907

> <PUBCHEM_FEATURE_SELFOVERLAP>
55.841

> <PUBCHEM_SHAPE_FINGERPRINT>
10256941 240 18264762177962943008
10816530 145 18047186638224247922
10842077 115 18049733922981503580
12156800 1 17263783284894147067
14040221 304 17173744183587268565
15513586 35 17769651233319529312
17974551 9 17177185624526668355
19304152 47 18335709308391009260
19309040 13 14906807521542939130
19315092 285 15291885282961809347
21716022 299 14901112343543175495
21792965 158 17628315429664527529
21927370 108 18124320672715326431
238 59 17336743423233062293
25019877 29 16342599412144924815
3418910 222 17759242191616401148
376196 1 17542503834527456797
469060 322 18338806701376337291
508706 21 18201434835477831592
56638632 33 16812105291110019787

> <PUBCHEM_SHAPE_MULTIPOLES>
716.02
11.61
7.25
3.21
30.32
6.17
0.86
6.74
4.29
-6.9
-3.91
-3.35
0.31
2.03

> <PUBCHEM_SHAPE_SELFOVERLAP>
1464.985

> <PUBCHEM_SHAPE_VOLUME>
414.9

> <PUBCHEM_COORDINATE_TYPE>
2
5
10

$$$$
