11882867
  -OEChem-12032416133D

 70 74  0     1  0  0  0  0  0999 V2000
   -0.4928    2.8134    0.3214 S   0  0  0  0  0  0  0  0  0  0  0  0
    8.0420    3.5885    0.0321 F   0  0  0  0  0  0  0  0  0  0  0  0
   -7.7990    0.1325   -0.7075 O   0  0  0  0  0  0  0  0  0  0  0  0
   -7.5508    1.8222    0.9743 O   0  0  0  0  0  0  0  0  0  0  0  0
    0.1553   -2.0244   -1.5027 O   0  0  0  0  0  0  0  0  0  0  0  0
    3.0459   -0.1411   -0.3277 O   0  0  0  0  0  0  0  0  0  0  0  0
    0.1347    0.3458   -0.1367 N   0  0  0  0  0  0  0  0  0  0  0  0
    0.7350   -2.9774    0.5645 N   0  0  0  0  0  0  0  0  0  0  0  0
    1.9565    1.9096    0.0760 N   0  0  0  0  0  0  0  0  0  0  0  0
   -3.5985   -0.5394    0.2478 C   0  0  2  0  0  0  0  0  0  0  0  0
   -4.0721    0.8766   -0.3056 C   0  0  1  0  0  0  0  0  0  0  0  0
   -5.6206    1.1752   -0.2759 C   0  0  1  0  0  0  0  0  0  0  0  0
   -2.1094   -0.7985   -0.2710 C   0  0  1  0  0  0  0  0  0  0  0  0
   -4.5160   -1.6504   -0.3257 C   0  0  0  0  0  0  0  0  0  0  0  0
   -6.3901   -0.0528   -0.8398 C   0  0  1  0  0  0  0  0  0  0  0  0
   -3.1997    2.0316    0.2667 C   0  0  0  0  0  0  0  0  0  0  0  0
   -6.0028   -1.3652   -0.1673 C   0  0  0  0  0  0  0  0  0  0  0  0
   -3.6264   -0.6207    1.7940 C   0  0  0  0  0  0  0  0  0  0  0  0
   -1.2441    0.4181   -0.0644 C   0  0  0  0  0  0  0  0  0  0  0  0
   -6.1687    1.5793    1.1106 C   0  0  0  0  0  0  0  0  0  0  0  0
   -5.9227    2.3797   -1.2119 C   0  0  0  0  0  0  0  0  0  0  0  0
   -1.7542    1.6811    0.1573 C   0  0  0  0  0  0  0  0  0  0  0  0
   -1.4473   -2.0616    0.2955 C   0  0  0  0  0  0  0  0  0  0  0  0
   -0.1026   -2.3388   -0.3455 C   0  0  0  0  0  0  0  0  0  0  0  0
    0.6361    1.5460    0.0587 C   0  0  0  0  0  0  0  0  0  0  0  0
    2.0682   -3.4045    0.3573 C   0  0  0  0  0  0  0  0  0  0  0  0
    3.0630    1.0660   -0.1137 C   0  0  0  0  0  0  0  0  0  0  0  0
    2.7483   -4.0281    1.3901 C   0  0  0  0  0  0  0  0  0  0  0  0
    2.6641   -3.1908   -0.8745 C   0  0  0  0  0  0  0  0  0  0  0  0
    4.3893    1.7373   -0.0741 C   0  0  0  0  0  0  0  0  0  0  0  0
    4.0620   -4.4500    1.1853 C   0  0  0  0  0  0  0  0  0  0  0  0
    3.9777   -3.6127   -1.0794 C   0  0  0  0  0  0  0  0  0  0  0  0
    5.4382    1.1784   -0.7728 C   0  0  0  0  0  0  0  0  0  0  0  0
    4.5258    2.8971    0.6591 C   0  0  0  0  0  0  0  0  0  0  0  0
    4.6767   -4.2423   -0.0494 C   0  0  0  0  0  0  0  0  0  0  0  0
    6.6819    1.8089   -0.7369 C   0  0  0  0  0  0  0  0  0  0  0  0
    5.7696    3.5276    0.6949 C   0  0  0  0  0  0  0  0  0  0  0  0
    6.8476    2.9834   -0.0030 C   0  0  0  0  0  0  0  0  0  0  0  0
   -3.8289    0.8341   -1.3817 H   0  0  0  0  0  0  0  0  0  0  0  0
   -2.1723   -0.9196   -1.3635 H   0  0  0  0  0  0  0  0  0  0  0  0
   -4.3064   -1.7831   -1.3953 H   0  0  0  0  0  0  0  0  0  0  0  0
   -4.2976   -2.6140    0.1496 H   0  0  0  0  0  0  0  0  0  0  0  0
   -6.1824   -0.1535   -1.9137 H   0  0  0  0  0  0  0  0  0  0  0  0
   -3.4415    2.2190    1.3182 H   0  0  0  0  0  0  0  0  0  0  0  0
   -3.3884    2.9576   -0.2865 H   0  0  0  0  0  0  0  0  0  0  0  0
   -6.5791   -2.1832   -0.6183 H   0  0  0  0  0  0  0  0  0  0  0  0
   -6.2958   -1.3619    0.8885 H   0  0  0  0  0  0  0  0  0  0  0  0
   -2.9466    0.0953    2.2645 H   0  0  0  0  0  0  0  0  0  0  0  0
   -4.6166   -0.4571    2.2116 H   0  0  0  0  0  0  0  0  0  0  0  0
   -3.3367   -1.6177    2.1434 H   0  0  0  0  0  0  0  0  0  0  0  0
   -6.0707    0.7914    1.8518 H   0  0  0  0  0  0  0  0  0  0  0  0
   -5.6903    2.4791    1.5097 H   0  0  0  0  0  0  0  0  0  0  0  0
   -5.5125    3.3136   -0.8133 H   0  0  0  0  0  0  0  0  0  0  0  0
   -5.4804    2.2228   -2.2028 H   0  0  0  0  0  0  0  0  0  0  0  0
   -6.9919    2.5489   -1.3723 H   0  0  0  0  0  0  0  0  0  0  0  0
   -1.3084   -1.9534    1.3775 H   0  0  0  0  0  0  0  0  0  0  0  0
   -2.0679   -2.9466    0.1220 H   0  0  0  0  0  0  0  0  0  0  0  0
   -8.0848    0.7623   -1.3895 H   0  0  0  0  0  0  0  0  0  0  0  0
   -7.6697    2.7519    0.7166 H   0  0  0  0  0  0  0  0  0  0  0  0
    0.3648   -3.1783    1.4909 H   0  0  0  0  0  0  0  0  0  0  0  0
    2.0972    2.9072    0.1998 H   0  0  0  0  0  0  0  0  0  0  0  0
    2.2791   -4.1947    2.3557 H   0  0  0  0  0  0  0  0  0  0  0  0
    2.1909   -2.7127   -1.7193 H   0  0  0  0  0  0  0  0  0  0  0  0
    4.6064   -4.9399    1.9872 H   0  0  0  0  0  0  0  0  0  0  0  0
    4.4578   -3.4508   -2.0402 H   0  0  0  0  0  0  0  0  0  0  0  0
    5.3260    0.2680   -1.3541 H   0  0  0  0  0  0  0  0  0  0  0  0
    3.7270    3.3330    1.2493 H   0  0  0  0  0  0  0  0  0  0  0  0
    5.6997   -4.5704   -0.2089 H   0  0  0  0  0  0  0  0  0  0  0  0
    7.5213    1.3863   -1.2811 H   0  0  0  0  0  0  0  0  0  0  0  0
    5.9019    4.4372    1.2735 H   0  0  0  0  0  0  0  0  0  0  0  0
  1 22  1  0  0  0  0
  1 25  1  0  0  0  0
  2 38  1  0  0  0  0
  3 15  1  0  0  0  0
  3 58  1  0  0  0  0
  4 20  1  0  0  0  0
  4 59  1  0  0  0  0
  5 24  2  0  0  0  0
  6 27  2  0  0  0  0
  7 19  1  0  0  0  0
  7 25  2  0  0  0  0
  8 24  1  0  0  0  0
  8 26  1  0  0  0  0
  8 60  1  0  0  0  0
  9 25  1  0  0  0  0
  9 27  1  0  0  0  0
  9 61  1  0  0  0  0
 10 11  1  0  0  0  0
 10 13  1  0  0  0  0
 10 14  1  0  0  0  0
 10 18  1  0  0  0  0
 11 12  1  0  0  0  0
 11 16  1  0  0  0  0
 11 39  1  0  0  0  0
 12 15  1  0  0  0  0
 12 20  1  0  0  0  0
 12 21  1  0  0  0  0
 13 19  1  0  0  0  0
 13 23  1  0  0  0  0
 13 40  1  0  0  0  0
 14 17  1  0  0  0  0
 14 41  1  0  0  0  0
 14 42  1  0  0  0  0
 15 17  1  0  0  0  0
 15 43  1  0  0  0  0
 16 22  1  0  0  0  0
 16 44  1  0  0  0  0
 16 45  1  0  0  0  0
 17 46  1  0  0  0  0
 17 47  1  0  0  0  0
 18 48  1  0  0  0  0
 18 49  1  0  0  0  0
 18 50  1  0  0  0  0
 19 22  2  0  0  0  0
 20 51  1  0  0  0  0
 20 52  1  0  0  0  0
 21 53  1  0  0  0  0
 21 54  1  0  0  0  0
 21 55  1  0  0  0  0
 23 24  1  0  0  0  0
 23 56  1  0  0  0  0
 23 57  1  0  0  0  0
 26 28  2  0  0  0  0
 26 29  1  0  0  0  0
 27 30  1  0  0  0  0
 28 31  1  0  0  0  0
 28 62  1  0  0  0  0
 29 32  2  0  0  0  0
 29 63  1  0  0  0  0
 30 33  2  0  0  0  0
 30 34  1  0  0  0  0
 31 35  2  0  0  0  0
 31 64  1  0  0  0  0
 32 35  1  0  0  0  0
 32 65  1  0  0  0  0
 33 36  1  0  0  0  0
 33 66  1  0  0  0  0
 34 37  2  0  0  0  0
 34 67  1  0  0  0  0
 35 68  1  0  0  0  0
 36 38  2  0  0  0  0
 36 69  1  0  0  0  0
 37 38  1  0  0  0  0
 37 70  1  0  0  0  0
M  END
> <PUBCHEM_COMPOUND_CID>
11882867

> <PUBCHEM_CONFORMER_RMSD>
1

> <PUBCHEM_CONFORMER_DIVERSEORDER>
1
6
5
7
8
9
2
3
4

> <PUBCHEM_MMFF94_PARTIAL_CHARGES>
44
1 -0.08
13 0.18
15 0.28
16 0.18
19 0.05
2 -0.19
20 0.28
22 -0.14
23 0.06
24 0.57
25 0.44
26 0.12
27 0.54
28 -0.15
29 -0.15
3 -0.68
30 0.09
31 -0.15
32 -0.15
33 -0.15
34 -0.15
35 -0.15
36 -0.15
37 -0.15
38 0.19
4 -0.68
5 -0.57
58 0.4
59 0.4
6 -0.57
60 0.37
61 0.37
62 0.15
63 0.15
64 0.15
65 0.15
66 0.15
67 0.15
68 0.15
69 0.15
7 -0.57
70 0.15
8 -0.55
9 -0.49

> <PUBCHEM_EFFECTIVE_ROTOR_COUNT>
9.2

> <PUBCHEM_PHARMACOPHORE_FEATURES>
13
1 3 acceptor
1 3 donor
1 4 acceptor
1 4 donor
1 5 acceptor
1 6 acceptor
1 8 donor
1 9 donor
5 1 7 19 22 25 rings
6 10 11 12 14 15 17 rings
6 10 11 13 16 19 22 rings
6 26 28 29 31 32 35 rings
6 30 33 34 36 37 38 rings

> <PUBCHEM_HEAVY_ATOM_COUNT>
38

> <PUBCHEM_ATOM_DEF_STEREO_COUNT>
5

> <PUBCHEM_ATOM_UDEF_STEREO_COUNT>
0

> <PUBCHEM_BOND_DEF_STEREO_COUNT>
0

> <PUBCHEM_BOND_UDEF_STEREO_COUNT>
0

> <PUBCHEM_ISOTOPIC_ATOM_COUNT>
0

> <PUBCHEM_COMPONENT_COUNT>
1

> <PUBCHEM_CACTVS_TAUTO_COUNT>
6

> <PUBCHEM_CONFORMER_ID>
00B5517300000001

> <PUBCHEM_MMFF94_ENERGY>
130.6479

> <PUBCHEM_FEATURE_SELFOVERLAP>
66.119

> <PUBCHEM_SHAPE_FINGERPRINT>
10050765 1 18266739078495282381
11007060 377 18127693952897792737
11135609 187 18411417340672091616
11135926 11 18409158922366511956
11136131 41 18261666030855916626
11578080 2 17677597680215841455
11719270 70 18410568514196851880
12107698 1 18194399992073836923
12522641 33 18335420183739641732
12977781 61 17822593658246103851
13533116 47 18339643339092807784
14394314 77 18341901788249870153
14659021 117 17334479997481002866
14790565 3 18121221145557792300
15001296 14 18410290268460911431
15347591 1 18337669716723061823
15400415 2 18266176330695571720
15439362 3 18408602543786536171
15815584 197 18265075654540288951
15927050 60 18340764961408071742
16067689 302 18412548734876373015
16719943 64 18193555799883737634
17627616 140 18410570704208316066
20554085 129 18058999692774488128
20609170 92 18187632580595445437
20642791 35 18411707552103152710
20721686 56 18336551516706683210
21133665 82 18267305525537863828
21360443 120 18335702780087815092
21781055 127 16486424170996308291
22311459 1 18266458892171673649
23559900 14 18266732477219888059
244849 19 17823439165766379083
249999 5 18410290286078143490
3411729 13 18410855460550609806
4073 2 18336551602864030675
5265222 85 18048602805043168396
5385378 56 18409169904571396904
5776283 40 18337686278354527182
58083652 198 18267022761770687033
59755656 215 18410858780190824364
6371380 46 18198621236804853576
6669772 16 18333732411842576042
99344 41 18411135848810884796

> <PUBCHEM_SHAPE_MULTIPOLES>
740.18
19.49
6.03
1.1
6.72
4.62
0.13
-14.66
-1.15
-13.65
0.95
0.34
0.43
-0.22

> <PUBCHEM_SHAPE_SELFOVERLAP>
1597.682

> <PUBCHEM_SHAPE_VOLUME>
410.3

> <PUBCHEM_COORDINATE_TYPE>
2
5
10

$$$$
