26744570
  -OEChem-12032416293D

 49 52  0     1  0  0  0  0  0999 V2000
    1.9127    0.4360    2.6623 Cl  0  0  0  0  0  0  0  0  0  0  0  0
    5.6433   -1.8687    0.1457 F   0  0  0  0  0  0  0  0  0  0  0  0
   -5.7219    1.3347    1.1234 O   0  0  0  0  0  0  0  0  0  0  0  0
   -0.8845    2.1483   -1.7803 O   0  0  0  0  0  0  0  0  0  0  0  0
   -2.6797   -0.3285    0.2577 N   0  0  1  0  0  0  0  0  0  0  0  0
   -0.2903    1.4615    0.2670 N   0  0  0  0  0  0  0  0  0  0  0  0
    0.4167    2.6230   -1.5727 N   0  0  0  0  0  0  0  0  0  0  0  0
   -2.2805   -1.5669   -0.4081 C   0  0  0  0  0  0  0  0  0  0  0  0
   -2.6058    0.8556   -0.6222 C   0  0  1  0  0  0  0  0  0  0  0  0
   -4.0527   -0.3891    0.7554 C   0  0  0  0  0  0  0  0  0  0  0  0
   -0.8367   -1.4473   -0.9083 C   0  0  0  0  0  0  0  0  0  0  0  0
   -2.4358   -2.7493    0.5547 C   0  0  0  0  0  0  0  0  0  0  0  0
   -3.6800    1.8167   -0.0801 C   0  0  0  0  0  0  0  0  0  0  0  0
   -4.3341    1.0669    1.0736 C   0  0  1  0  0  0  0  0  0  0  0  0
   -0.3577   -2.7519   -1.5429 C   0  0  0  0  0  0  0  0  0  0  0  0
   -1.9554   -4.0522   -0.0822 C   0  0  0  0  0  0  0  0  0  0  0  0
   -0.5217   -3.9340   -0.5919 C   0  0  0  0  0  0  0  0  0  0  0  0
   -1.2248    1.4762   -0.6496 C   0  0  0  0  0  0  0  0  0  0  0  0
    0.6973    2.1774   -0.3445 C   0  0  0  0  0  0  0  0  0  0  0  0
    1.9872    2.4418    0.3025 C   0  0  0  0  0  0  0  0  0  0  0  0
    2.9618    1.2682    0.2883 C   0  0  0  0  0  0  0  0  0  0  0  0
    2.9876    0.3256    1.3163 C   0  0  0  0  0  0  0  0  0  0  0  0
    3.8414    1.1507   -0.7880 C   0  0  0  0  0  0  0  0  0  0  0  0
    3.8933   -0.7343    1.2680 C   0  0  0  0  0  0  0  0  0  0  0  0
    4.7472    0.0910   -0.8361 C   0  0  0  0  0  0  0  0  0  0  0  0
    4.7731   -0.8516    0.1920 C   0  0  0  0  0  0  0  0  0  0  0  0
   -2.9301   -1.7494   -1.2766 H   0  0  0  0  0  0  0  0  0  0  0  0
   -2.8914    0.5909   -1.6504 H   0  0  0  0  0  0  0  0  0  0  0  0
   -4.1573   -0.9874    1.6663 H   0  0  0  0  0  0  0  0  0  0  0  0
   -4.7622   -0.7688    0.0083 H   0  0  0  0  0  0  0  0  0  0  0  0
   -0.1587   -1.1918   -0.0843 H   0  0  0  0  0  0  0  0  0  0  0  0
   -0.7358   -0.6931   -1.6927 H   0  0  0  0  0  0  0  0  0  0  0  0
   -3.4813   -2.9010    0.8449 H   0  0  0  0  0  0  0  0  0  0  0  0
   -1.8660   -2.5681    1.4758 H   0  0  0  0  0  0  0  0  0  0  0  0
   -3.2711    2.7713    0.2709 H   0  0  0  0  0  0  0  0  0  0  0  0
   -4.4137    2.0465   -0.8630 H   0  0  0  0  0  0  0  0  0  0  0  0
   -3.8781    1.3524    2.0296 H   0  0  0  0  0  0  0  0  0  0  0  0
    0.6951   -2.6563   -1.8328 H   0  0  0  0  0  0  0  0  0  0  0  0
   -0.9262   -2.9424   -2.4618 H   0  0  0  0  0  0  0  0  0  0  0  0
   -2.6180   -4.3180   -0.9152 H   0  0  0  0  0  0  0  0  0  0  0  0
   -2.0197   -4.8658    0.6492 H   0  0  0  0  0  0  0  0  0  0  0  0
   -0.2339   -4.8603   -1.1017 H   0  0  0  0  0  0  0  0  0  0  0  0
    0.1589   -3.8130    0.2599 H   0  0  0  0  0  0  0  0  0  0  0  0
   -5.8302    2.2923    1.2537 H   0  0  0  0  0  0  0  0  0  0  0  0
    1.8258    2.7937    1.3282 H   0  0  0  0  0  0  0  0  0  0  0  0
    2.4772    3.2962   -0.1862 H   0  0  0  0  0  0  0  0  0  0  0  0
    3.8317    1.8760   -1.5974 H   0  0  0  0  0  0  0  0  0  0  0  0
    3.9260   -1.4775    2.0605 H   0  0  0  0  0  0  0  0  0  0  0  0
    5.4320   -0.0010   -1.6739 H   0  0  0  0  0  0  0  0  0  0  0  0
  1 22  1  0  0  0  0
  2 26  1  0  0  0  0
  3 14  1  0  0  0  0
  3 44  1  0  0  0  0
  4  7  1  0  0  0  0
  4 18  1  0  0  0  0
  5  8  1  0  0  0  0
  5  9  1  0  0  0  0
  5 10  1  0  0  0  0
  6 18  2  0  0  0  0
  6 19  1  0  0  0  0
  7 19  2  0  0  0  0
  8 11  1  0  0  0  0
  8 12  1  0  0  0  0
  8 27  1  0  0  0  0
  9 13  1  0  0  0  0
  9 18  1  0  0  0  0
  9 28  1  0  0  0  0
 10 14  1  0  0  0  0
 10 29  1  0  0  0  0
 10 30  1  0  0  0  0
 11 15  1  0  0  0  0
 11 31  1  0  0  0  0
 11 32  1  0  0  0  0
 12 16  1  0  0  0  0
 12 33  1  0  0  0  0
 12 34  1  0  0  0  0
 13 14  1  0  0  0  0
 13 35  1  0  0  0  0
 13 36  1  0  0  0  0
 14 37  1  0  0  0  0
 15 17  1  0  0  0  0
 15 38  1  0  0  0  0
 15 39  1  0  0  0  0
 16 17  1  0  0  0  0
 16 40  1  0  0  0  0
 16 41  1  0  0  0  0
 17 42  1  0  0  0  0
 17 43  1  0  0  0  0
 19 20  1  0  0  0  0
 20 21  1  0  0  0  0
 20 45  1  0  0  0  0
 20 46  1  0  0  0  0
 21 22  2  0  0  0  0
 21 23  1  0  0  0  0
 22 24  1  0  0  0  0
 23 25  2  0  0  0  0
 23 47  1  0  0  0  0
 24 26  2  0  0  0  0
 24 48  1  0  0  0  0
 25 26  1  0  0  0  0
 25 49  1  0  0  0  0
M  END
> <PUBCHEM_COMPOUND_CID>
26744570

> <PUBCHEM_CONFORMER_RMSD>
1

> <PUBCHEM_CONFORMER_DIVERSEORDER>
1
99
82
8
94
43
77
40
71
50
83
36
87
53
54
102
11
37
96
4
59
24
58
57
98
33
55
46
88
19
70
27
62
9
48
101
80
103
81
66
60
76
73
28
52
89
86
68
85
49
79
74
56
12
5
84
42
64
10
32
93
78
75
91
100
65
21
90
97
38
44
35
95
23
45
7
16
47
67
30
39
61
14
72
13
29
18
26
22
31
3
63
15
25
2
6
17
41
34
69
20
92
51

> <PUBCHEM_MMFF94_PARTIAL_CHARGES>
24
1 -0.18
10 0.27
14 0.28
18 0.3
19 0.34
2 -0.19
20 0.32
21 -0.14
22 0.18
23 -0.15
24 -0.15
25 -0.15
26 0.19
3 -0.68
4 -0.02
44 0.4
47 0.15
48 0.15
49 0.15
5 -0.81
6 -0.57
7 -0.41
8 0.27
9 0.45

> <PUBCHEM_EFFECTIVE_ROTOR_COUNT>
6.2

> <PUBCHEM_PHARMACOPHORE_FEATURES>
8
1 3 acceptor
1 3 donor
1 5 cation
3 6 7 19 cation
5 4 6 7 18 19 rings
5 5 9 10 13 14 rings
6 21 22 23 24 25 26 rings
6 8 11 12 15 16 17 rings

> <PUBCHEM_HEAVY_ATOM_COUNT>
26

> <PUBCHEM_ATOM_DEF_STEREO_COUNT>
2

> <PUBCHEM_ATOM_UDEF_STEREO_COUNT>
0

> <PUBCHEM_BOND_DEF_STEREO_COUNT>
0

> <PUBCHEM_BOND_UDEF_STEREO_COUNT>
0

> <PUBCHEM_ISOTOPIC_ATOM_COUNT>
0

> <PUBCHEM_COMPONENT_COUNT>
1

> <PUBCHEM_CACTVS_TAUTO_COUNT>
1

> <PUBCHEM_CONFORMER_ID>
019816FA00000001

> <PUBCHEM_MMFF94_ENERGY>
43.692

> <PUBCHEM_FEATURE_SELFOVERLAP>
40.597

> <PUBCHEM_SHAPE_FINGERPRINT>
11014199 57 17761209217269574346
11552529 35 17913770784411731004
12156800 1 16592296230426852003
12403259 327 17632576084498273280
12553582 1 18041265626079139824
12596599 1 18044920497050226026
12633257 1 18343582936668503100
13122387 1 18049995899091845134
13402501 40 18199473164815913910
13726171 33 17981640300585770244
14178342 30 17835789069206064808
150020 26 17834088876310760146
15295992 7 17418368129573414200
15403338 16 16879616091034091515
15420108 30 18057882447147891495
15537594 2 17967536783146616672
16110190 28 18410290337686160360
16728300 4 17390492018397195706
17349148 13 18270675506495207951
17809404 112 17544994606231697090
17818456 19 18197222662192790055
17859628 97 18338234868945309667
1813 80 17167860902175668300
19141452 34 18410012164790597280
19319366 153 17748825211705084242
20291156 8 18119806065365448206
21304304 249 18408890663732222991
21403212 168 18200032825072124281
23379529 103 18411426077564058022
235170 7 13190331357751942520
23559900 14 17917159380944986516
23598288 3 17315046914574316672
3298306 158 18194955254103909309
463206 1 16680906173252098758
465052 167 18113913658103861049
469060 322 13407641150742415187
508706 21 18271815647928704391
5283178 26 18343295946874533116
532947 4 18124314909458954799
5385378 56 18053956043975811641
6371380 46 18200871777665528952
7097593 13 18120936363197891925
9953998 17 18199446871695404712

> <PUBCHEM_SHAPE_MULTIPOLES>
502.98
9.8
4.19
1.59
4.16
4.07
-0.5
-0.55
-2.73
-2.63
1.2
0.57
-0.38
-0.57

> <PUBCHEM_SHAPE_SELFOVERLAP>
1066.923

> <PUBCHEM_SHAPE_VOLUME>
283.9

> <PUBCHEM_COORDINATE_TYPE>
2
5
10

$$$$
