40777644
  -OEChem-12032416413D

 41 43  0     1  0  0  0  0  0999 V2000
   -4.3434    2.3185   -1.4930 Cl  0  0  0  0  0  0  0  0  0  0  0  0
   -0.5397   -0.7773   -0.0795 N   0  0  0  0  0  0  0  0  0  0  0  0
    5.8746    1.2810   -0.5270 N   0  0  0  0  0  0  0  0  0  0  0  0
   -0.2250   -2.0204   -0.4818 N   0  0  0  0  0  0  0  0  0  0  0  0
    3.1000   -0.3668   -0.0111 C   0  0  2  0  0  0  0  0  0  0  0  0
    3.4675    0.8399   -0.8991 C   0  0  0  0  0  0  0  0  0  0  0  0
    4.5361    1.6207   -0.1241 C   0  0  1  0  0  0  0  0  0  0  0  0
    1.6443   -0.7610   -0.1112 C   0  0  0  0  0  0  0  0  0  0  0  0
    3.5340    0.0915    1.3510 C   0  0  0  0  0  0  0  0  0  0  0  0
    4.3189    1.1721    1.2835 C   0  0  0  0  0  0  0  0  0  0  0  0
    0.5441    0.0169    0.1555 C   0  0  0  0  0  0  0  0  0  0  0  0
    1.1105   -2.0045   -0.4993 C   0  0  0  0  0  0  0  0  0  0  0  0
    0.4390    1.4203    0.6038 C   0  0  0  0  0  0  0  0  0  0  0  0
    1.8442   -3.2178   -0.9003 C   0  0  0  0  0  0  0  0  0  0  0  0
   -1.8794   -0.4133    0.0597 C   0  0  0  0  0  0  0  0  0  0  0  0
   -2.3979    0.6419   -0.6908 C   0  0  0  0  0  0  0  0  0  0  0  0
   -2.6997   -1.1035    0.9522 C   0  0  0  0  0  0  0  0  0  0  0  0
   -3.7366    1.0070   -0.5490 C   0  0  0  0  0  0  0  0  0  0  0  0
   -4.0384   -0.7384    1.0940 C   0  0  0  0  0  0  0  0  0  0  0  0
   -4.5569    0.3168    0.3434 C   0  0  0  0  0  0  0  0  0  0  0  0
   -5.9964    0.6763    0.5232 C   0  0  0  0  0  0  0  0  0  0  0  0
    3.7263   -1.2244   -0.2893 H   0  0  0  0  0  0  0  0  0  0  0  0
    3.8122    0.5110   -1.8876 H   0  0  0  0  0  0  0  0  0  0  0  0
    2.6105    1.4968   -1.0911 H   0  0  0  0  0  0  0  0  0  0  0  0
    4.3659    2.6973   -0.2288 H   0  0  0  0  0  0  0  0  0  0  0  0
    3.2777   -0.4129    2.2721 H   0  0  0  0  0  0  0  0  0  0  0  0
    4.7662    1.6476    2.1453 H   0  0  0  0  0  0  0  0  0  0  0  0
    5.9923    1.4501   -1.5252 H   0  0  0  0  0  0  0  0  0  0  0  0
    6.5461    1.8886   -0.0585 H   0  0  0  0  0  0  0  0  0  0  0  0
    0.2482    2.0839   -0.2456 H   0  0  0  0  0  0  0  0  0  0  0  0
   -0.3645    1.5537    1.3357 H   0  0  0  0  0  0  0  0  0  0  0  0
    1.3526    1.7682    1.0912 H   0  0  0  0  0  0  0  0  0  0  0  0
    2.4691   -3.0168   -1.7766 H   0  0  0  0  0  0  0  0  0  0  0  0
    1.1665   -4.0393   -1.1557 H   0  0  0  0  0  0  0  0  0  0  0  0
    2.4923   -3.5609   -0.0873 H   0  0  0  0  0  0  0  0  0  0  0  0
   -1.7663    1.1739   -1.3994 H   0  0  0  0  0  0  0  0  0  0  0  0
   -2.3109   -1.9253    1.5487 H   0  0  0  0  0  0  0  0  0  0  0  0
   -4.6622   -1.2869    1.7948 H   0  0  0  0  0  0  0  0  0  0  0  0
   -6.0941    1.7072    0.8792 H   0  0  0  0  0  0  0  0  0  0  0  0
   -6.5423    0.5618   -0.4192 H   0  0  0  0  0  0  0  0  0  0  0  0
   -6.4886    0.0327    1.2608 H   0  0  0  0  0  0  0  0  0  0  0  0
  1 18  1  0  0  0  0
  2  4  1  0  0  0  0
  2 11  1  0  0  0  0
  2 15  1  0  0  0  0
  3  7  1  0  0  0  0
  3 28  1  0  0  0  0
  3 29  1  0  0  0  0
  4 12  2  0  0  0  0
  5  6  1  0  0  0  0
  5  8  1  0  0  0  0
  5  9  1  0  0  0  0
  5 22  1  0  0  0  0
  6  7  1  0  0  0  0
  6 23  1  0  0  0  0
  6 24  1  0  0  0  0
  7 10  1  0  0  0  0
  7 25  1  0  0  0  0
  8 11  2  0  0  0  0
  8 12  1  0  0  0  0
  9 10  2  0  0  0  0
  9 26  1  0  0  0  0
 10 27  1  0  0  0  0
 11 13  1  0  0  0  0
 12 14  1  0  0  0  0
 13 30  1  0  0  0  0
 13 31  1  0  0  0  0
 13 32  1  0  0  0  0
 14 33  1  0  0  0  0
 14 34  1  0  0  0  0
 14 35  1  0  0  0  0
 15 16  2  0  0  0  0
 15 17  1  0  0  0  0
 16 18  1  0  0  0  0
 16 36  1  0  0  0  0
 17 19  2  0  0  0  0
 17 37  1  0  0  0  0
 18 20  2  0  0  0  0
 19 20  1  0  0  0  0
 19 38  1  0  0  0  0
 20 21  1  0  0  0  0
 21 39  1  0  0  0  0
 21 40  1  0  0  0  0
 21 41  1  0  0  0  0
M  END
> <PUBCHEM_COMPOUND_CID>
40777644

> <PUBCHEM_CONFORMER_RMSD>
0.6

> <PUBCHEM_CONFORMER_DIVERSEORDER>
1
8
20
16
10
11
19
17
9
21
15
4
2
18
12
5
3
13
7
6
14

> <PUBCHEM_MMFF94_PARTIAL_CHARGES>
27
1 -0.18
10 -0.29
11 -0.33
12 0.11
13 0.18
14 0.18
15 -0.02
16 -0.15
17 -0.15
18 0.18
19 -0.15
2 0.59
20 -0.14
21 0.14
26 0.15
27 0.15
28 0.36
29 0.36
3 -0.99
36 0.15
37 0.15
38 0.15
4 -0.71
5 0.32
7 0.41
8 -0.18
9 -0.29

> <PUBCHEM_EFFECTIVE_ROTOR_COUNT>
2.6

> <PUBCHEM_PHARMACOPHORE_FEATURES>
6
1 3 cation
1 3 donor
1 4 acceptor
5 2 4 8 11 12 rings
5 5 6 7 9 10 rings
6 15 16 17 18 19 20 rings

> <PUBCHEM_HEAVY_ATOM_COUNT>
21

> <PUBCHEM_ATOM_DEF_STEREO_COUNT>
2

> <PUBCHEM_ATOM_UDEF_STEREO_COUNT>
0

> <PUBCHEM_BOND_DEF_STEREO_COUNT>
0

> <PUBCHEM_BOND_UDEF_STEREO_COUNT>
0

> <PUBCHEM_ISOTOPIC_ATOM_COUNT>
0

> <PUBCHEM_COMPONENT_COUNT>
1

> <PUBCHEM_CACTVS_TAUTO_COUNT>
1

> <PUBCHEM_CONFORMER_ID>
026E37AC00000001

> <PUBCHEM_MMFF94_ENERGY>
56.9984

> <PUBCHEM_FEATURE_SELFOVERLAP>
30.446

> <PUBCHEM_SHAPE_FINGERPRINT>
10319926 262 17822282436483844258
10498660 4 18201997759218499760
10670039 82 18341626875835345116
11543360 7 14117513281153382450
11796584 16 11959737065988074596
12107183 9 17026817560577524680
12236239 1 17968095374214744952
12403259 118 18041551537778237596
12403259 415 18261960626809146119
12507560 40 18186519873656886815
12596602 18 16153423969614113225
12633257 1 15140958517472917204
12670546 56 16950552281658208089
12730499 353 18343591728524950483
12769317 202 18272080587291614608
12892183 10 17385439925274732635
12895836 83 18193849365019742172
12969540 114 17988920089272642492
13583140 156 16951387949165821822
13955234 65 18271247105970236674
14341114 176 17458346333757520952
14341114 328 17167859790105880544
14528608 73 17918272065083770281
14790565 3 18270973447865757368
15188451 53 14707498052849797721
15375358 24 18334854987808305971
15961568 22 17821737138793756124
1601671 61 18409167727366070408
17980427 23 17822577221706714655
1813 80 12685085939446899530
18186145 218 17703789266807105330
18222031 100 11963389626704143882
19784866 170 18408044013196187127
19784866 34 18131063861748047026
200 152 10231767677635511128
204376 136 18343582970849153130
20645477 56 18408042910043700411
20645477 70 17916871209644548951
20715895 44 17752752551107117269
21033648 29 18270390711351061088
21065198 48 17313095358828581640
21756936 100 17824263937553638224
23402539 116 17749103444007768603
23557571 272 17895204242418847821
23558518 356 17837499548378758713
23559900 14 18119247259786961710
293599 30 18341896333324106720
314173 85 11674867880097795310
34934 24 18343019991168544939
350125 39 18341053996038068506
3545911 37 18409453578523617373
474 4 17917710244427296912
495365 180 18200867388251059106
5104073 3 18188778219728504833
59755656 520 17918278679070039294
633830 44 17203335536907295936
7808743 9 18122063371754779996
7970288 3 7925643201893474288
81539 233 18411980243660492846
960060 61 12247676088917253144

> <PUBCHEM_SHAPE_MULTIPOLES>
419.1
11.98
2.39
1.19
2.69
1.22
0.07
-7.26
0.92
-0.96
-0.93
0.08
-0.18
1.48

> <PUBCHEM_SHAPE_SELFOVERLAP>
897.566

> <PUBCHEM_SHAPE_VOLUME>
235.6

> <PUBCHEM_COORDINATE_TYPE>
2
5
10

$$$$
