11880092
  -OEChem-12032416153D

 66 68  0     1  0  0  0  0  0999 V2000
   -3.0010    1.7189   -1.6505 O   0  0  0  0  0  0  0  0  0  0  0  0
   -0.3485    4.8432    0.2756 O   0  0  0  0  0  0  0  0  0  0  0  0
   -3.1006    5.1589    0.9341 O   0  0  0  0  0  0  0  0  0  0  0  0
   -4.8970    0.5449    0.7686 O   0  0  0  0  0  0  0  0  0  0  0  0
    1.5399    1.1325   -1.2763 O   0  0  0  0  0  0  0  0  0  0  0  0
   -5.1489   -1.5197   -2.6263 O   0  0  0  0  0  0  0  0  0  0  0  0
    8.6478   -1.1862    0.0760 O   0  0  0  0  0  0  0  0  0  0  0  0
    0.6733    2.1389    0.6155 N   0  0  0  0  0  0  0  0  0  0  0  0
   -3.4955   -0.7410   -0.5735 N   0  0  0  0  0  0  0  0  0  0  0  0
    2.8135    1.3206    0.6867 N   0  0  0  0  0  0  0  0  0  0  0  0
   -6.4068   -2.7069   -1.1147 N   0  0  0  0  0  0  0  0  0  0  0  0
   -2.9906    1.5768   -0.2348 C   0  0  1  0  0  0  0  0  0  0  0  0
   -0.6234    2.4536    0.0568 C   0  0  1  0  0  0  0  0  0  0  0  0
   -1.5763    1.2712    0.2623 C   0  0  0  0  0  0  0  0  0  0  0  0
   -1.1768    3.7463    0.6710 C   0  0  2  0  0  0  0  0  0  0  0  0
   -3.5372    2.8542    0.3993 C   0  0  0  0  0  0  0  0  0  0  0  0
   -2.6001    4.0454    0.1937 C   0  0  1  0  0  0  0  0  0  0  0  0
   -3.9104    0.4249    0.0469 C   0  0  0  0  0  0  0  0  0  0  0  0
   -4.1955   -1.9984   -0.4426 C   0  0  2  0  0  0  0  0  0  0  0  0
    1.6765    1.4893   -0.1085 C   0  0  0  0  0  0  0  0  0  0  0  0
   -3.2617   -3.2041   -0.6033 C   0  0  0  0  0  0  0  0  0  0  0  0
   -5.2787   -2.0200   -1.5116 C   0  0  0  0  0  0  0  0  0  0  0  0
   -2.1510   -3.2105    0.4204 C   0  0  0  0  0  0  0  0  0  0  0  0
    4.0396    0.7122    0.3303 C   0  0  0  0  0  0  0  0  0  0  0  0
   -0.9556   -2.5739    0.1284 C   0  0  0  0  0  0  0  0  0  0  0  0
   -2.3486   -3.8529    1.6320 C   0  0  0  0  0  0  0  0  0  0  0  0
    4.1976    0.2020   -0.9479 C   0  0  0  0  0  0  0  0  0  0  0  0
    5.0582    0.6408    1.2665 C   0  0  0  0  0  0  0  0  0  0  0  0
    0.0700   -2.5797    1.0737 C   0  0  0  0  0  0  0  0  0  0  0  0
   -1.3228   -3.8587    2.5772 C   0  0  0  0  0  0  0  0  0  0  0  0
   -0.1134   -3.2220    2.2981 C   0  0  0  0  0  0  0  0  0  0  0  0
    5.4076   -0.3961   -1.2996 C   0  0  0  0  0  0  0  0  0  0  0  0
    6.2682    0.0427    0.9147 C   0  0  0  0  0  0  0  0  0  0  0  0
    6.4430   -0.4757   -0.3683 C   0  0  0  0  0  0  0  0  0  0  0  0
    7.7040   -1.1007   -0.7348 C   0  0  0  0  0  0  0  0  0  0  0  0
    7.9011   -1.6708   -2.1353 C   0  0  0  0  0  0  0  0  0  0  0  0
   -0.4797    2.6129   -1.0202 H   0  0  0  0  0  0  0  0  0  0  0  0
   -1.1532    0.4109   -0.2692 H   0  0  0  0  0  0  0  0  0  0  0  0
   -1.6045    0.9947    1.3254 H   0  0  0  0  0  0  0  0  0  0  0  0
   -1.1425    3.6971    1.7671 H   0  0  0  0  0  0  0  0  0  0  0  0
   -4.5208    3.1132   -0.0156 H   0  0  0  0  0  0  0  0  0  0  0  0
   -3.6995    2.7136    1.4772 H   0  0  0  0  0  0  0  0  0  0  0  0
   -2.5962    4.3394   -0.8632 H   0  0  0  0  0  0  0  0  0  0  0  0
    0.8353    2.3318    1.5992 H   0  0  0  0  0  0  0  0  0  0  0  0
   -3.8889    2.0064   -1.9242 H   0  0  0  0  0  0  0  0  0  0  0  0
   -0.6081    5.6150    0.8062 H   0  0  0  0  0  0  0  0  0  0  0  0
   -2.5946    5.9439    0.6652 H   0  0  0  0  0  0  0  0  0  0  0  0
   -2.7421   -0.6921   -1.2530 H   0  0  0  0  0  0  0  0  0  0  0  0
   -4.6680   -2.0186    0.5477 H   0  0  0  0  0  0  0  0  0  0  0  0
   -3.8353   -4.1377   -0.5299 H   0  0  0  0  0  0  0  0  0  0  0  0
   -2.8244   -3.2163   -1.6114 H   0  0  0  0  0  0  0  0  0  0  0  0
    2.7610    1.6765    1.6379 H   0  0  0  0  0  0  0  0  0  0  0  0
   -6.4910   -3.1345   -0.1981 H   0  0  0  0  0  0  0  0  0  0  0  0
   -7.2005   -2.8086   -1.7385 H   0  0  0  0  0  0  0  0  0  0  0  0
   -0.7972   -2.0777   -0.8245 H   0  0  0  0  0  0  0  0  0  0  0  0
   -3.2877   -4.3492    1.8589 H   0  0  0  0  0  0  0  0  0  0  0  0
    3.4456    0.2251   -1.7225 H   0  0  0  0  0  0  0  0  0  0  0  0
    4.9324    1.0417    2.2685 H   0  0  0  0  0  0  0  0  0  0  0  0
    1.0116   -2.0839    0.8558 H   0  0  0  0  0  0  0  0  0  0  0  0
   -1.4659   -4.3582    3.5309 H   0  0  0  0  0  0  0  0  0  0  0  0
    0.6852   -3.2261    3.0341 H   0  0  0  0  0  0  0  0  0  0  0  0
    5.5024   -0.7871   -2.3080 H   0  0  0  0  0  0  0  0  0  0  0  0
    7.0597   -0.0075    1.6578 H   0  0  0  0  0  0  0  0  0  0  0  0
    8.9079   -2.0940   -2.2109 H   0  0  0  0  0  0  0  0  0  0  0  0
    7.1830   -2.4736   -2.3213 H   0  0  0  0  0  0  0  0  0  0  0  0
    7.8115   -0.8780   -2.8824 H   0  0  0  0  0  0  0  0  0  0  0  0
  1 12  1  0  0  0  0
  1 45  1  0  0  0  0
  2 15  1  0  0  0  0
  2 46  1  0  0  0  0
  3 17  1  0  0  0  0
  3 47  1  0  0  0  0
  4 18  2  0  0  0  0
  5 20  2  0  0  0  0
  6 22  2  0  0  0  0
  7 35  2  0  0  0  0
  8 13  1  0  0  0  0
  8 20  1  0  0  0  0
  8 44  1  0  0  0  0
  9 18  1  0  0  0  0
  9 19  1  0  0  0  0
  9 48  1  0  0  0  0
 10 20  1  0  0  0  0
 10 24  1  0  0  0  0
 10 52  1  0  0  0  0
 11 22  1  0  0  0  0
 11 53  1  0  0  0  0
 11 54  1  0  0  0  0
 12 14  1  0  0  0  0
 12 16  1  0  0  0  0
 12 18  1  0  0  0  0
 13 14  1  0  0  0  0
 13 15  1  0  0  0  0
 13 37  1  0  0  0  0
 14 38  1  0  0  0  0
 14 39  1  0  0  0  0
 15 17  1  0  0  0  0
 15 40  1  0  0  0  0
 16 17  1  0  0  0  0
 16 41  1  0  0  0  0
 16 42  1  0  0  0  0
 17 43  1  0  0  0  0
 19 21  1  0  0  0  0
 19 22  1  0  0  0  0
 19 49  1  0  0  0  0
 21 23  1  0  0  0  0
 21 50  1  0  0  0  0
 21 51  1  0  0  0  0
 23 25  2  0  0  0  0
 23 26  1  0  0  0  0
 24 27  2  0  0  0  0
 24 28  1  0  0  0  0
 25 29  1  0  0  0  0
 25 55  1  0  0  0  0
 26 30  2  0  0  0  0
 26 56  1  0  0  0  0
 27 32  1  0  0  0  0
 27 57  1  0  0  0  0
 28 33  2  0  0  0  0
 28 58  1  0  0  0  0
 29 31  2  0  0  0  0
 29 59  1  0  0  0  0
 30 31  1  0  0  0  0
 30 60  1  0  0  0  0
 31 61  1  0  0  0  0
 32 34  2  0  0  0  0
 32 62  1  0  0  0  0
 33 34  1  0  0  0  0
 33 63  1  0  0  0  0
 34 35  1  0  0  0  0
 35 36  1  0  0  0  0
 36 64  1  0  0  0  0
 36 65  1  0  0  0  0
 36 66  1  0  0  0  0
M  END
> <PUBCHEM_COMPOUND_CID>
11880092

> <PUBCHEM_CONFORMER_RMSD>
1.2

> <PUBCHEM_CONFORMER_DIVERSEORDER>
1
19
91
62
28
31
44
38
103
89
122
124
87
118
113
54
6
11
101
24
84
18
33
51
8
109
23
116
107
77
117
25
80
49
78
10
34
121
95
104
64
115
71
94
108
16
127
120
46
69
7
42
5
36
53
86
99
92
15
72
48
30
74
102
114
3
39
35
70
85
29
93
37
60
50
123
61
97
90
110
126
57
21
56
14
105
58
20
27
13
63
100
79
76
112
22
98
66
47
43
106
9
96
67
26
125
32
45
68
82
59
88
65
111
4
52
73
41
40
83
2
17
75
119
81
12
55

> <PUBCHEM_MMFF94_PARTIAL_CHARGES>
51
1 -0.68
10 -0.55
11 -0.8
12 0.34
13 0.3
15 0.28
17 0.28
18 0.57
19 0.36
2 -0.68
20 0.69
21 0.14
22 0.57
23 -0.14
24 0.12
25 -0.15
26 -0.15
27 -0.15
28 -0.15
29 -0.15
3 -0.68
30 -0.15
31 -0.15
32 -0.15
33 -0.15
34 0.09
35 0.42
36 0.06
4 -0.57
44 0.37
45 0.4
46 0.4
47 0.4
48 0.37
5 -0.57
52 0.37
53 0.37
54 0.37
55 0.15
56 0.15
57 0.15
58 0.15
59 0.15
6 -0.57
60 0.15
61 0.15
62 0.15
63 0.15
7 -0.57
8 -0.73
9 -0.73

> <PUBCHEM_EFFECTIVE_ROTOR_COUNT>
12.2

> <PUBCHEM_PHARMACOPHORE_FEATURES>
17
1 1 acceptor
1 1 donor
1 10 donor
1 11 donor
1 2 acceptor
1 2 donor
1 3 acceptor
1 3 donor
1 4 acceptor
1 5 acceptor
1 6 acceptor
1 7 acceptor
1 8 donor
1 9 donor
6 12 13 14 15 16 17 rings
6 23 25 26 29 30 31 rings
6 24 27 28 32 33 34 rings

> <PUBCHEM_HEAVY_ATOM_COUNT>
36

> <PUBCHEM_ATOM_DEF_STEREO_COUNT>
5

> <PUBCHEM_ATOM_UDEF_STEREO_COUNT>
0

> <PUBCHEM_BOND_DEF_STEREO_COUNT>
0

> <PUBCHEM_BOND_UDEF_STEREO_COUNT>
0

> <PUBCHEM_ISOTOPIC_ATOM_COUNT>
0

> <PUBCHEM_COMPONENT_COUNT>
1

> <PUBCHEM_CACTVS_TAUTO_COUNT>
64

> <PUBCHEM_CONFORMER_ID>
00B5469C00000001

> <PUBCHEM_MMFF94_ENERGY>
97.2746

> <PUBCHEM_FEATURE_SELFOVERLAP>
86.348

> <PUBCHEM_SHAPE_FINGERPRINT>
10119406 146 18264501585729434606
10305334 12 18272095946769878625
10670039 82 18335415764324127010
11513181 2 18197776609378489678
11828532 37 17974568297720368183
12128747 34 18341056203752207230
12645989 146 18128816524258339462
12788726 201 18335410283655720498
13782708 43 17847059974603616126
14279260 333 18337663145202391078
14659021 117 18410851087947017632
14931854 50 18261940921341573359
15160629 131 18273487975482817039
15183329 4 18113894979629018978
15351339 4 18115005451728517715
15361156 5 18342182202300404916
15927050 60 18124314895930506843
17627616 140 18115577141534204563
19301676 85 18195238039183587727
19311894 1 18338517568373029763
19611394 137 18269825571523709344
19958102 18 18186514415312765886
21133410 230 17313396681847070315
23536364 44 18337654400416049725
23559900 14 18050839220109328361
24771750 20 17255956776455860269
24893992 56 18115862070909754655
3383291 50 18337950215788460347
395649 100 18333740131148877702
4073 2 18272371911493433180
437795 70 18411417349647252178
49967989 163 18190199995891219478
508706 21 18335991929981744690
563151 40 18196383519466089728
57676310 188 18042127558356806394
57828716 94 16662042514423115770
6376802 137 17775007915876765072
9896288 288 18268441131348765505
9980921 221 18262818314967865382

> <PUBCHEM_SHAPE_MULTIPOLES>
679.85
17.6
6.36
1.82
40.15
3.6
-0.1
-9.41
-8.79
-10.08
2.99
-0.38
-1.86
-0.14

> <PUBCHEM_SHAPE_SELFOVERLAP>
1442.85

> <PUBCHEM_SHAPE_VOLUME>
375

> <PUBCHEM_COORDINATE_TYPE>
2
5
10

$$$$
