28961644
  -OEChem-12032416133D

 50 52  0     1  0  0  0  0  0999 V2000
    2.6618    1.2130   -1.4696 S   0  0  0  0  0  0  0  0  0  0  0  0
    4.4492    0.0043    0.5145 S   0  0  0  0  0  0  0  0  0  0  0  0
   -0.1032   -2.6064   -0.9315 O   0  0  0  0  0  0  0  0  0  0  0  0
   -1.2110   -1.8108    1.7347 O   0  0  0  0  0  0  0  0  0  0  0  0
    0.1947   -5.2805   -0.1160 O   0  0  0  0  0  0  0  0  0  0  0  0
    1.7839    2.3579   -1.6201 O   0  0  0  0  0  0  0  0  0  0  0  0
    3.7919    1.0382   -2.3617 O   0  0  0  0  0  0  0  0  0  0  0  0
   -2.2526    0.2307    0.0034 N   0  0  0  0  0  0  0  0  0  0  0  0
   -3.9311    2.5839    0.0655 N   0  0  0  0  0  0  0  0  0  0  0  0
    1.6992   -0.2166   -1.4396 N   0  0  0  0  0  0  0  0  0  0  0  0
   -1.8896   -1.0964   -0.4897 C   0  0  1  0  0  0  0  0  0  0  0  0
   -0.4964   -1.2286   -1.1183 C   0  0  1  0  0  0  0  0  0  0  0  0
   -1.9007   -2.2020    0.5547 C   0  0  1  0  0  0  0  0  0  0  0  0
   -1.1242   -3.2892   -0.1787 C   0  0  2  0  0  0  0  0  0  0  0  0
   -2.2230    1.2170   -1.0835 C   0  0  0  0  0  0  0  0  0  0  0  0
   -3.5759    0.2070    0.6385 C   0  0  0  0  0  0  0  0  0  0  0  0
    0.6066   -0.3595   -0.5245 C   0  0  0  0  0  0  0  0  0  0  0  0
   -2.6075    2.6085   -0.5690 C   0  0  0  0  0  0  0  0  0  0  0  0
   -3.9592    1.5987    1.1533 C   0  0  0  0  0  0  0  0  0  0  0  0
   -0.4764   -4.3389    0.7058 C   0  0  0  0  0  0  0  0  0  0  0  0
   -4.2958    3.9110    0.5573 C   0  0  0  0  0  0  0  0  0  0  0  0
    3.3024    1.2305    0.1778 C   0  0  0  0  0  0  0  0  0  0  0  0
    3.0712    2.0364    1.2708 C   0  0  0  0  0  0  0  0  0  0  0  0
    3.8460    1.6420    2.3996 C   0  0  0  0  0  0  0  0  0  0  0  0
    4.6397    0.5499    2.1264 C   0  0  0  0  0  0  0  0  0  0  0  0
   -2.6122   -1.3969   -1.2657 H   0  0  0  0  0  0  0  0  0  0  0  0
   -0.5670   -1.0476   -2.1985 H   0  0  0  0  0  0  0  0  0  0  0  0
   -2.9062   -2.5366    0.8297 H   0  0  0  0  0  0  0  0  0  0  0  0
   -1.7666   -3.7769   -0.9234 H   0  0  0  0  0  0  0  0  0  0  0  0
   -2.9216    0.9257   -1.8809 H   0  0  0  0  0  0  0  0  0  0  0  0
   -1.2407    1.3019   -1.5559 H   0  0  0  0  0  0  0  0  0  0  0  0
   -3.5851   -0.4625    1.5053 H   0  0  0  0  0  0  0  0  0  0  0  0
   -4.3426   -0.1512   -0.0620 H   0  0  0  0  0  0  0  0  0  0  0  0
    0.9934   -0.8273    0.3890 H   0  0  0  0  0  0  0  0  0  0  0  0
    0.2511    0.6313   -0.2404 H   0  0  0  0  0  0  0  0  0  0  0  0
   -1.8415    2.9670    0.1319 H   0  0  0  0  0  0  0  0  0  0  0  0
   -2.6201    3.2995   -1.4208 H   0  0  0  0  0  0  0  0  0  0  0  0
   -4.9694    1.5437    1.5768 H   0  0  0  0  0  0  0  0  0  0  0  0
   -3.2798    1.8921    1.9653 H   0  0  0  0  0  0  0  0  0  0  0  0
   -1.2254   -4.8635    1.3066 H   0  0  0  0  0  0  0  0  0  0  0  0
    0.2769   -3.8957    1.3648 H   0  0  0  0  0  0  0  0  0  0  0  0
   -1.3432   -2.5093    2.3979 H   0  0  0  0  0  0  0  0  0  0  0  0
    2.1968   -1.0927   -1.6464 H   0  0  0  0  0  0  0  0  0  0  0  0
   -5.3024    3.8974    0.9895 H   0  0  0  0  0  0  0  0  0  0  0  0
   -4.3172    4.6334   -0.2662 H   0  0  0  0  0  0  0  0  0  0  0  0
   -3.5982    4.2773    1.3192 H   0  0  0  0  0  0  0  0  0  0  0  0
    0.5958   -5.9412    0.4742 H   0  0  0  0  0  0  0  0  0  0  0  0
    2.3795    2.8688    1.2643 H   0  0  0  0  0  0  0  0  0  0  0  0
    3.8221    2.1343    3.3631 H   0  0  0  0  0  0  0  0  0  0  0  0
    5.3220    0.0460    2.7963 H   0  0  0  0  0  0  0  0  0  0  0  0
  1  6  2  0  0  0  0
  1  7  2  0  0  0  0
  1 10  1  0  0  0  0
  1 22  1  0  0  0  0
  2 22  1  0  0  0  0
  2 25  1  0  0  0  0
  3 12  1  0  0  0  0
  3 14  1  0  0  0  0
  4 13  1  0  0  0  0
  4 42  1  0  0  0  0
  5 20  1  0  0  0  0
  5 47  1  0  0  0  0
  8 11  1  0  0  0  0
  8 15  1  0  0  0  0
  8 16  1  0  0  0  0
  9 18  1  0  0  0  0
  9 19  1  0  0  0  0
  9 21  1  0  0  0  0
 10 17  1  0  0  0  0
 10 43  1  0  0  0  0
 11 12  1  0  0  0  0
 11 13  1  0  0  0  0
 11 26  1  0  0  0  0
 12 17  1  0  0  0  0
 12 27  1  0  0  0  0
 13 14  1  0  0  0  0
 13 28  1  0  0  0  0
 14 20  1  0  0  0  0
 14 29  1  0  0  0  0
 15 18  1  0  0  0  0
 15 30  1  0  0  0  0
 15 31  1  0  0  0  0
 16 19  1  0  0  0  0
 16 32  1  0  0  0  0
 16 33  1  0  0  0  0
 17 34  1  0  0  0  0
 17 35  1  0  0  0  0
 18 36  1  0  0  0  0
 18 37  1  0  0  0  0
 19 38  1  0  0  0  0
 19 39  1  0  0  0  0
 20 40  1  0  0  0  0
 20 41  1  0  0  0  0
 21 44  1  0  0  0  0
 21 45  1  0  0  0  0
 21 46  1  0  0  0  0
 22 23  2  0  0  0  0
 23 24  1  0  0  0  0
 23 48  1  0  0  0  0
 24 25  2  0  0  0  0
 24 49  1  0  0  0  0
 25 50  1  0  0  0  0
M  END
> <PUBCHEM_COMPOUND_CID>
28961644

> <PUBCHEM_CONFORMER_RMSD>
0.8

> <PUBCHEM_CONFORMER_DIVERSEORDER>
1
94
75
147
111
126
128
129
131
105
61
154
134
47
115
62
15
78
27
100
130
152
139
81
24
127
145
64
96
88
98
79
42
89
71
107
31
65
153
124
69
19
138
93
159
49
146
16
101
91
136
143
103
156
108
83
151
7
36
28
99
85
90
82
119
109
55
22
20
84
97
149
161
21
114
117
150
39
133
116
122
2
35
50
87
53
148
121
125
66
41
123
30
56
9
11
80
70
51
157
13
92
141
3
29
112
155
120
137
110
52
63
135
45
158
33
67
17
14
57
144
113
77
140
25
58
104
59
34
6
54
73
37
40
160
132
32
142
106
5
76
46
60
38
68
4
44
10
118
8
12
74
102
86
43
95
48
23
26
72
18

> <PUBCHEM_MMFF94_PARTIAL_CHARGES>
31
1 1.5
10 -0.91
11 0.27
12 0.28
13 0.28
14 0.28
15 0.27
16 0.27
17 0.36
18 0.27
19 0.27
2 -0.08
20 0.28
21 0.27
22 -0.02
23 -0.15
24 -0.15
25 -0.11
3 -0.56
4 -0.68
42 0.4
43 0.42
47 0.4
48 0.15
49 0.15
5 -0.68
50 0.15
6 -0.65
7 -0.65
8 -0.81
9 -0.81

> <PUBCHEM_EFFECTIVE_ROTOR_COUNT>
8.2

> <PUBCHEM_PHARMACOPHORE_FEATURES>
13
1 10 donor
1 3 acceptor
1 4 acceptor
1 4 donor
1 5 acceptor
1 5 donor
1 6 acceptor
1 7 acceptor
1 8 cation
1 9 cation
5 2 22 23 24 25 rings
5 3 11 12 13 14 rings
6 8 9 15 16 18 19 rings

> <PUBCHEM_HEAVY_ATOM_COUNT>
25

> <PUBCHEM_ATOM_DEF_STEREO_COUNT>
4

> <PUBCHEM_ATOM_UDEF_STEREO_COUNT>
0

> <PUBCHEM_BOND_DEF_STEREO_COUNT>
0

> <PUBCHEM_BOND_UDEF_STEREO_COUNT>
0

> <PUBCHEM_ISOTOPIC_ATOM_COUNT>
0

> <PUBCHEM_COMPONENT_COUNT>
1

> <PUBCHEM_CACTVS_TAUTO_COUNT>
1

> <PUBCHEM_CONFORMER_ID>
01B9EB6C00000001

> <PUBCHEM_MMFF94_ENERGY>
50.7321

> <PUBCHEM_FEATURE_SELFOVERLAP>
65.997

> <PUBCHEM_SHAPE_FINGERPRINT>
10074138 170 18265049322507527147
11049842 53 18335436642624149854
11552529 35 17976239546787822034
11582403 64 17702927180744638150
11725454 13 17560788949003898260
12160290 23 18057054711948851927
12173636 292 18411415146212776663
12539773 59 17607492985842470786
12549972 3 17917163796434708030
12553582 1 17615135820190499622
12633257 1 17240486870831946897
12788726 201 17899990626671741563
13004483 165 17903076977650099523
13583140 156 17701811314498720170
13878862 14 17542784206230978789
13965767 371 18118674435634992784
14178342 30 18264761246281931370
14932701 244 17630580488664800477
15295992 7 17988653994790051020
15403338 16 16443059478882275337
15475509 8 7853584509076147377
15842332 3 17751078226989050932
17974551 9 18199162127800455042
17980427 23 16691595037245130513
20600515 1 17759784232861183383
21033648 29 18342733001527868112
212916 134 18412259515060361865
21304303 282 18054757746486091639
21524375 3 18342745083217760351
21703447 108 16103046885224212619
21731228 192 18410569561488182037
23557571 272 17985273129726001260
23559900 14 17538579712420009677
238918 7 17755279202630564332
3187 122 17551216793914068641
5385378 56 18051979121631181433
57124632 79 18120097173943559637
58807428 26 18337946788335076593
6371380 46 18270953537150986930
7097593 13 18114733954044633580
7808743 9 18266193892505492332
79837 15 18408882958054648011
84936 182 17982741774749414217
90316 7 17907022029475427979
9981440 41 18410006607820133739

> <PUBCHEM_SHAPE_MULTIPOLES>
477.9
8.69
5.37
1.93
4.05
6.25
-0.03
-9.41
-3.52
-4.91
-0.78
2.41
-0.83
0.1

> <PUBCHEM_SHAPE_SELFOVERLAP>
962.796

> <PUBCHEM_SHAPE_VOLUME>
281.6

> <PUBCHEM_COORDINATE_TYPE>
2
5
10

$$$$
