11941842
  -OEChem-12032416253D

 54 58  0     1  0  0  0  0  0999 V2000
    4.2886   -0.4986    2.1592 S   0  0  0  0  0  0  0  0  0  0  0  0
   -0.2956    3.0454   -1.6980 O   0  0  0  0  0  0  0  0  0  0  0  0
    0.8751    2.4215    1.1264 O   0  0  0  0  0  0  0  0  0  0  0  0
   -4.1493    1.9986    0.0142 O   0  0  0  0  0  0  0  0  0  0  0  0
    1.9182    0.9078   -2.0279 N   0  0  0  0  0  0  0  0  0  0  0  0
   -2.1493    1.7050    1.1568 N   0  0  0  0  0  0  0  0  0  0  0  0
   -3.9854    0.4404    1.7255 N   0  0  0  0  0  0  0  0  0  0  0  0
    3.4543   -0.1948   -0.6380 N   0  0  0  0  0  0  0  0  0  0  0  0
    2.8237   -1.1257   -2.7695 N   0  0  0  0  0  0  0  0  0  0  0  0
    0.7008    1.6329   -0.0628 C   0  0  1  0  0  0  0  0  0  0  0  0
   -0.6076    2.0607   -0.6986 C   0  0  1  0  0  0  0  0  0  0  0  0
    1.7469    1.9958   -1.0901 C   0  0  2  0  0  0  0  0  0  0  0  0
   -1.3798    2.6913    0.4376 C   0  0  2  0  0  0  0  0  0  0  0  0
    1.1292    3.1954   -1.7848 C   0  0  0  0  0  0  0  0  0  0  0  0
   -0.2727    3.2648    1.3041 C   0  0  0  0  0  0  0  0  0  0  0  0
    2.7571   -0.1696   -1.8051 C   0  0  0  0  0  0  0  0  0  0  0  0
   -3.4890    1.4337    0.8852 C   0  0  0  0  0  0  0  0  0  0  0  0
   -5.3478   -0.0332    1.6577 C   0  0  0  0  0  0  0  0  0  0  0  0
    4.2617   -1.2597   -0.4537 C   0  0  0  0  0  0  0  0  0  0  0  0
    3.6506   -2.1622   -2.5197 C   0  0  0  0  0  0  0  0  0  0  0  0
    4.4013   -2.2836   -1.3684 C   0  0  0  0  0  0  0  0  0  0  0  0
   -5.4945   -1.1884    0.7100 C   0  0  0  0  0  0  0  0  0  0  0  0
    4.9864   -1.2581    0.7891 C   0  0  0  0  0  0  0  0  0  0  0  0
   -5.7839   -0.9475   -0.6280 C   0  0  0  0  0  0  0  0  0  0  0  0
   -5.3391   -2.4874    1.1799 C   0  0  0  0  0  0  0  0  0  0  0  0
    6.2237   -1.7985    1.0791 C   0  0  0  0  0  0  0  0  0  0  0  0
   -5.9200   -2.0206   -1.5086 C   0  0  0  0  0  0  0  0  0  0  0  0
   -5.4751   -3.5605    0.2991 C   0  0  0  0  0  0  0  0  0  0  0  0
    6.5993   -1.5863    2.4370 C   0  0  0  0  0  0  0  0  0  0  0  0
   -5.7656   -3.3270   -1.0452 C   0  0  0  0  0  0  0  0  0  0  0  0
    5.6379   -0.8919    3.1375 C   0  0  0  0  0  0  0  0  0  0  0  0
    0.6997    0.5817    0.2430 H   0  0  0  0  0  0  0  0  0  0  0  0
   -1.1296    1.2389   -1.1993 H   0  0  0  0  0  0  0  0  0  0  0  0
    2.7096    2.2887   -0.6556 H   0  0  0  0  0  0  0  0  0  0  0  0
   -2.0554    3.4852    0.1013 H   0  0  0  0  0  0  0  0  0  0  0  0
    1.4188    3.2995   -2.8351 H   0  0  0  0  0  0  0  0  0  0  0  0
    1.3884    4.1241   -1.2646 H   0  0  0  0  0  0  0  0  0  0  0  0
   -0.5246    3.3156    2.3678 H   0  0  0  0  0  0  0  0  0  0  0  0
    0.0073    4.2692    0.9677 H   0  0  0  0  0  0  0  0  0  0  0  0
    1.3642    0.8898   -2.8767 H   0  0  0  0  0  0  0  0  0  0  0  0
   -1.6766    1.1353    1.8522 H   0  0  0  0  0  0  0  0  0  0  0  0
   -3.3590    0.0144    2.4017 H   0  0  0  0  0  0  0  0  0  0  0  0
   -5.6444   -0.3265    2.6713 H   0  0  0  0  0  0  0  0  0  0  0  0
   -6.0076    0.7910    1.3614 H   0  0  0  0  0  0  0  0  0  0  0  0
    3.6930   -2.9184   -3.2962 H   0  0  0  0  0  0  0  0  0  0  0  0
    5.0455   -3.1401   -1.2143 H   0  0  0  0  0  0  0  0  0  0  0  0
   -5.9105    0.0645   -1.0015 H   0  0  0  0  0  0  0  0  0  0  0  0
   -5.1109   -2.6807    2.2244 H   0  0  0  0  0  0  0  0  0  0  0  0
    6.8428   -2.3194    0.3591 H   0  0  0  0  0  0  0  0  0  0  0  0
   -6.1470   -1.8390   -2.5550 H   0  0  0  0  0  0  0  0  0  0  0  0
   -5.3545   -4.5778    0.6597 H   0  0  0  0  0  0  0  0  0  0  0  0
    7.5282   -1.9246    2.8773 H   0  0  0  0  0  0  0  0  0  0  0  0
   -5.8716   -4.1625   -1.7309 H   0  0  0  0  0  0  0  0  0  0  0  0
    5.6633   -0.5963    4.1768 H   0  0  0  0  0  0  0  0  0  0  0  0
  1 23  1  0  0  0  0
  1 31  1  0  0  0  0
  2 11  1  0  0  0  0
  2 14  1  0  0  0  0
  3 10  1  0  0  0  0
  3 15  1  0  0  0  0
  4 17  2  0  0  0  0
  5 12  1  0  0  0  0
  5 16  1  0  0  0  0
  5 40  1  0  0  0  0
  6 13  1  0  0  0  0
  6 17  1  0  0  0  0
  6 41  1  0  0  0  0
  7 17  1  0  0  0  0
  7 18  1  0  0  0  0
  7 42  1  0  0  0  0
  8 16  1  0  0  0  0
  8 19  2  0  0  0  0
  9 16  2  0  0  0  0
  9 20  1  0  0  0  0
 10 11  1  0  0  0  0
 10 12  1  0  0  0  0
 10 32  1  0  0  0  0
 11 13  1  0  0  0  0
 11 33  1  0  0  0  0
 12 14  1  0  0  0  0
 12 34  1  0  0  0  0
 13 15  1  0  0  0  0
 13 35  1  0  0  0  0
 14 36  1  0  0  0  0
 14 37  1  0  0  0  0
 15 38  1  0  0  0  0
 15 39  1  0  0  0  0
 18 22  1  0  0  0  0
 18 43  1  0  0  0  0
 18 44  1  0  0  0  0
 19 21  1  0  0  0  0
 19 23  1  0  0  0  0
 20 21  2  0  0  0  0
 20 45  1  0  0  0  0
 21 46  1  0  0  0  0
 22 24  2  0  0  0  0
 22 25  1  0  0  0  0
 23 26  2  0  0  0  0
 24 27  1  0  0  0  0
 24 47  1  0  0  0  0
 25 28  2  0  0  0  0
 25 48  1  0  0  0  0
 26 29  1  0  0  0  0
 26 49  1  0  0  0  0
 27 30  2  0  0  0  0
 27 50  1  0  0  0  0
 28 30  1  0  0  0  0
 28 51  1  0  0  0  0
 29 31  2  0  0  0  0
 29 52  1  0  0  0  0
 30 53  1  0  0  0  0
 31 54  1  0  0  0  0
M  END
> <PUBCHEM_COMPOUND_CID>
11941842

> <PUBCHEM_CONFORMER_RMSD>
1

> <PUBCHEM_CONFORMER_DIVERSEORDER>
1
174
287
107
213
308
114
216
197
327
39
269
263
264
235
164
211
43
58
81
155
106
159
232
109
72
325
110
49
201
130
20
320
306
104
329
177
271
280
180
310
284
270
260
317
305
240
170
26
334
149
128
224
304
204
178
125
296
184
24
77
267
268
341
314
318
279
217
276
152
102
254
120
266
95
23
256
340
315
273
32
121
288
126
176
251
237
167
285
294
151
299
295
42
241
96
131
169
249
141
259
286
246
227
69
333
250
60
328
335
277
99
64
301
332
185
242
53
98
139
117
62
200
196
203
154
274
108
323
195
47
214
265
307
171
90
115
160
245
67
37
162
10
187
124
74
247
222
225
182
186
215
302
330
65
30
183
118
158
150
228
34
199
321
133
342
191
189
38
309
311
331
135
123
73
19
145
272
127
15
231
41
233
111
87
85
46
281
13
116
236
207
253
29
12
48
316
297
137
326
55
290
101
324
119
35
229
166
261
7
122
336
31
220
156
339
66
138
100
319
292
68
83
84
59
86
56
45
338
181
219
9
78
313
54
322
226
93
262
278
275
173
113
210
258
18
148
61
303
283
82
337
11
14
103
134
190
198
257
40
16
188
22
289
132
252
52
75
218
51
143
244
71
312
17
194
6
25
291
168
206
89
129
223
282
193
4
70
2
179
205
298
136
208
163
172
76
112
165
255
243
147
300
157
36
21
91
88
293
230
105
212
238
63
27
161
209
79
28
175
140
97
80
144
57
239
153
50
33
248
94
234
142
5
221
202
44
92
146
8
192
3

> <PUBCHEM_MMFF94_PARTIAL_CHARGES>
44
1 -0.08
10 0.28
11 0.28
12 0.37
13 0.3
14 0.28
15 0.28
16 0.72
17 0.69
18 0.44
19 0.36
2 -0.56
20 0.16
21 -0.15
22 -0.14
23 -0.01
24 -0.15
25 -0.15
26 -0.15
27 -0.15
28 -0.15
29 -0.15
3 -0.56
30 -0.15
31 -0.11
4 -0.57
40 0.4
41 0.37
42 0.37
45 0.15
46 0.15
47 0.15
48 0.15
49 0.15
5 -0.87
50 0.15
51 0.15
52 0.15
53 0.15
54 0.15
6 -0.73
7 -0.73
8 -0.62
9 -0.62

> <PUBCHEM_EFFECTIVE_ROTOR_COUNT>
9.2

> <PUBCHEM_PHARMACOPHORE_FEATURES>
13
1 2 acceptor
1 3 acceptor
1 4 acceptor
1 5 donor
1 6 donor
1 7 donor
1 8 acceptor
4 5 8 9 16 cation
5 1 23 26 29 31 rings
5 2 10 11 12 14 rings
5 3 10 11 13 15 rings
6 22 24 25 27 28 30 rings
6 8 9 16 19 20 21 rings

> <PUBCHEM_HEAVY_ATOM_COUNT>
31

> <PUBCHEM_ATOM_DEF_STEREO_COUNT>
4

> <PUBCHEM_ATOM_UDEF_STEREO_COUNT>
0

> <PUBCHEM_BOND_DEF_STEREO_COUNT>
0

> <PUBCHEM_BOND_UDEF_STEREO_COUNT>
0

> <PUBCHEM_ISOTOPIC_ATOM_COUNT>
0

> <PUBCHEM_COMPONENT_COUNT>
1

> <PUBCHEM_CACTVS_TAUTO_COUNT>
9

> <PUBCHEM_CONFORMER_ID>
00B637D200000001

> <PUBCHEM_MMFF94_ENERGY>
74.6812

> <PUBCHEM_FEATURE_SELFOVERLAP>
66.73

> <PUBCHEM_SHAPE_FINGERPRINT>
10622 236 18186524306295141097
10928967 22 17627536027172341519
11135609 149 17022903488140006797
11135609 201 11023822924976902421
11211813 140 18114451293372658827
12120059 20 18266478649021274478
12373685 5 17417806280165848457
12390115 104 10663807586083841713
12422481 6 17131288882641694887
12559416 39 18408317809073579955
13782708 43 17986115102715903270
14848178 5 18341901779310970301
14950920 106 16844175519582092522
15419009 47 16589690272215466799
16989378 47 18187090597506297763
20156587 161 17823111506632743514
20156587 76 18266433538852988549
20567600 9 7853580080078713223
21458453 9 17417513779100734506
21585480 29 17346307224290268303
23572383 38 18130790006333372751
2838139 119 7925627752742512317
312425 54 17560249015975538483
312425 83 13841134557954183242
38570 142 9833817521532052016
437795 139 18040707091520825775
4394409 98 18041828542253552131
4408954 87 16916775348778155230
444735 79 17917700319227542618
4756261 7 17627208385212176010
50009960 94 18267286811337499387
50742298 180 18339361993103519923
636783 38 17699549635702157014
6636735 143 17916862401141411449
9831354 38 17313937657919182451

> <PUBCHEM_SHAPE_MULTIPOLES>
599.3
17.9
4.54
2.87
8.05
1.31
0.05
-21.55
-7.5
3.83
0.93
-4.32
-0.77
-1.77

> <PUBCHEM_SHAPE_SELFOVERLAP>
1294.072

> <PUBCHEM_SHAPE_VOLUME>
330.2

> <PUBCHEM_COORDINATE_TYPE>
2
5
10

$$$$
