40533390
  -OEChem-12032416213D

 61 67  0     1  0  0  0  0  0999 V2000
   -3.1445    0.7013    0.7007 S   0  0  0  0  0  0  0  0  0  0  0  0
   -1.4170   -1.8695    1.6921 O   0  0  0  0  0  0  0  0  0  0  0  0
    3.3922   -1.2108    0.4304 N   0  0  2  0  0  0  0  0  0  0  0  0
    0.4058   -2.3253    0.3112 N   0  0  0  0  0  0  0  0  0  0  0  0
    3.8544    3.0693   -1.0030 N   0  0  0  0  0  0  0  0  0  0  0  0
    2.5429   -3.4519    1.1668 C   0  0  1  0  0  0  0  0  0  0  0  0
    2.3669   -2.8123   -1.1902 C   0  0  2  0  0  0  0  0  0  0  0  0
    2.6554   -3.9841   -0.2557 C   0  0  0  0  0  0  0  0  0  0  0  0
    3.5598   -2.3118    1.3868 C   0  0  0  0  0  0  0  0  0  0  0  0
    3.4116   -1.6969   -0.9574 C   0  0  0  0  0  0  0  0  0  0  0  0
    1.0954   -3.0072    1.4158 C   0  0  0  0  0  0  0  0  0  0  0  0
    0.9634   -2.2793   -0.9687 C   0  0  0  0  0  0  0  0  0  0  0  0
    4.4048   -0.1782    0.6371 C   0  0  0  0  0  0  0  0  0  0  0  0
    0.2680   -1.7508   -1.9880 C   0  0  0  0  0  0  0  0  0  0  0  0
   -0.8790   -1.8166    0.5846 C   0  0  0  0  0  0  0  0  0  0  0  0
    3.9471    1.1647    0.1330 C   0  0  0  0  0  0  0  0  0  0  0  0
   -1.6206   -1.1987   -0.5705 C   0  0  0  0  0  0  0  0  0  0  0  0
   -1.0403   -1.1981   -1.7800 C   0  0  0  0  0  0  0  0  0  0  0  0
    2.7910    1.8788    0.5555 C   0  0  0  0  0  0  0  0  0  0  0  0
    4.5800    1.9221   -0.8256 C   0  0  0  0  0  0  0  0  0  0  0  0
   -2.9527   -0.5962   -0.3881 C   0  0  0  0  0  0  0  0  0  0  0  0
    2.7563    3.0701   -0.1726 C   0  0  0  0  0  0  0  0  0  0  0  0
    1.7676    1.6253    1.4902 C   0  0  0  0  0  0  0  0  0  0  0  0
   -4.1372   -0.9390   -0.9956 C   0  0  0  0  0  0  0  0  0  0  0  0
    1.7454    4.0242   -0.0119 C   0  0  0  0  0  0  0  0  0  0  0  0
    4.2067    4.1214   -1.9323 C   0  0  0  0  0  0  0  0  0  0  0  0
    0.7500    2.5708    1.6615 C   0  0  0  0  0  0  0  0  0  0  0  0
   -5.2401   -0.1256   -0.5684 C   0  0  0  0  0  0  0  0  0  0  0  0
   -4.8327    0.8256    0.3721 C   0  0  0  0  0  0  0  0  0  0  0  0
    0.7409    3.7511    0.9210 C   0  0  0  0  0  0  0  0  0  0  0  0
   -6.6045   -0.1521   -0.9460 C   0  0  0  0  0  0  0  0  0  0  0  0
   -5.7437    1.7394    0.9376 C   0  0  0  0  0  0  0  0  0  0  0  0
   -7.5107    0.7528   -0.3869 C   0  0  0  0  0  0  0  0  0  0  0  0
   -7.0827    1.6877    0.5448 C   0  0  0  0  0  0  0  0  0  0  0  0
    2.7848   -4.2518    1.8777 H   0  0  0  0  0  0  0  0  0  0  0  0
    2.4675   -3.1685   -2.2239 H   0  0  0  0  0  0  0  0  0  0  0  0
    1.9470   -4.8051   -0.4229 H   0  0  0  0  0  0  0  0  0  0  0  0
    3.6605   -4.3832   -0.4384 H   0  0  0  0  0  0  0  0  0  0  0  0
    3.4397   -1.9323    2.4094 H   0  0  0  0  0  0  0  0  0  0  0  0
    4.5754   -2.7246    1.3150 H   0  0  0  0  0  0  0  0  0  0  0  0
    4.4065   -2.0855   -1.2151 H   0  0  0  0  0  0  0  0  0  0  0  0
    3.2037   -0.8712   -1.6496 H   0  0  0  0  0  0  0  0  0  0  0  0
    0.4902   -3.8971    1.6370 H   0  0  0  0  0  0  0  0  0  0  0  0
    1.0351   -2.3727    2.3090 H   0  0  0  0  0  0  0  0  0  0  0  0
    5.3690   -0.4582    0.1929 H   0  0  0  0  0  0  0  0  0  0  0  0
    4.5952   -0.0451    1.7114 H   0  0  0  0  0  0  0  0  0  0  0  0
    0.6806   -1.6969   -2.9900 H   0  0  0  0  0  0  0  0  0  0  0  0
   -1.5281   -0.7617   -2.6468 H   0  0  0  0  0  0  0  0  0  0  0  0
    5.4831    1.7363   -1.3920 H   0  0  0  0  0  0  0  0  0  0  0  0
    1.7578    0.7116    2.0776 H   0  0  0  0  0  0  0  0  0  0  0  0
   -4.2258   -1.7406   -1.7196 H   0  0  0  0  0  0  0  0  0  0  0  0
    1.7324    4.9449   -0.5855 H   0  0  0  0  0  0  0  0  0  0  0  0
    3.3901    4.2350   -2.6498 H   0  0  0  0  0  0  0  0  0  0  0  0
    4.3582    5.0443   -1.3669 H   0  0  0  0  0  0  0  0  0  0  0  0
    5.1269    3.8543   -2.4583 H   0  0  0  0  0  0  0  0  0  0  0  0
   -0.0424    2.3801    2.3806 H   0  0  0  0  0  0  0  0  0  0  0  0
   -0.0597    4.4712    1.0698 H   0  0  0  0  0  0  0  0  0  0  0  0
   -6.9549   -0.8789   -1.6748 H   0  0  0  0  0  0  0  0  0  0  0  0
   -5.4175    2.4748    1.6676 H   0  0  0  0  0  0  0  0  0  0  0  0
   -8.5550    0.7223   -0.6848 H   0  0  0  0  0  0  0  0  0  0  0  0
   -7.7947    2.3875    0.9741 H   0  0  0  0  0  0  0  0  0  0  0  0
  1 21  1  0  0  0  0
  1 29  1  0  0  0  0
  2 15  2  0  0  0  0
  3  9  1  0  0  0  0
  3 10  1  0  0  0  0
  3 13  1  0  0  0  0
  4 11  1  0  0  0  0
  4 12  1  0  0  0  0
  4 15  1  0  0  0  0
  5 20  1  0  0  0  0
  5 22  1  0  0  0  0
  5 26  1  0  0  0  0
  6  8  1  0  0  0  0
  6  9  1  0  0  0  0
  6 11  1  0  0  0  0
  6 35  1  0  0  0  0
  7  8  1  0  0  0  0
  7 10  1  0  0  0  0
  7 12  1  0  0  0  0
  7 36  1  0  0  0  0
  8 37  1  0  0  0  0
  8 38  1  0  0  0  0
  9 39  1  0  0  0  0
  9 40  1  0  0  0  0
 10 41  1  0  0  0  0
 10 42  1  0  0  0  0
 11 43  1  0  0  0  0
 11 44  1  0  0  0  0
 12 14  2  0  0  0  0
 13 16  1  0  0  0  0
 13 45  1  0  0  0  0
 13 46  1  0  0  0  0
 14 18  1  0  0  0  0
 14 47  1  0  0  0  0
 15 17  1  0  0  0  0
 16 19  1  0  0  0  0
 16 20  2  0  0  0  0
 17 18  2  0  0  0  0
 17 21  1  0  0  0  0
 18 48  1  0  0  0  0
 19 22  1  0  0  0  0
 19 23  2  0  0  0  0
 20 49  1  0  0  0  0
 21 24  2  0  0  0  0
 22 25  2  0  0  0  0
 23 27  1  0  0  0  0
 23 50  1  0  0  0  0
 24 28  1  0  0  0  0
 24 51  1  0  0  0  0
 25 30  1  0  0  0  0
 25 52  1  0  0  0  0
 26 53  1  0  0  0  0
 26 54  1  0  0  0  0
 26 55  1  0  0  0  0
 27 30  2  0  0  0  0
 27 56  1  0  0  0  0
 28 29  1  0  0  0  0
 28 31  2  0  0  0  0
 29 32  2  0  0  0  0
 30 57  1  0  0  0  0
 31 33  1  0  0  0  0
 31 58  1  0  0  0  0
 32 34  1  0  0  0  0
 32 59  1  0  0  0  0
 33 34  2  0  0  0  0
 33 60  1  0  0  0  0
 34 61  1  0  0  0  0
M  END
> <PUBCHEM_COMPOUND_CID>
40533390

> <PUBCHEM_CONFORMER_RMSD>
0.8

> <PUBCHEM_CONFORMER_DIVERSEORDER>
1
25
40
33
28
27
60
22
57
62
46
30
49
58
19
31
53
16
56
52
55
17
32
7
20
26
59
24
54
21
50
48
43
39
41
9
13
23
61
18
51
12
37
45
10
6
5
29
11
38
47
35
34
8
2
36
4
15
42
3
44
14

> <PUBCHEM_MMFF94_PARTIAL_CHARGES>
42
1 -0.08
10 0.27
11 0.3
12 -0.03
13 0.45
14 -0.15
15 0.62
16 -0.18
17 0.06
18 -0.15
2 -0.57
20 -0.3
21 -0.01
22 -0.15
23 -0.15
24 -0.15
25 -0.15
26 0.26
27 -0.15
29 0.04
3 -0.81
30 -0.15
31 -0.15
32 -0.15
33 -0.15
34 -0.15
4 -0.47
47 0.15
48 0.15
49 0.15
5 0.05
50 0.15
51 0.15
52 0.15
56 0.15
57 0.15
58 0.15
59 0.15
60 0.15
61 0.15
7 0.14
9 0.27

> <PUBCHEM_EFFECTIVE_ROTOR_COUNT>
4

> <PUBCHEM_PHARMACOPHORE_FEATURES>
10
1 2 acceptor
1 3 cation
1 5 cation
5 1 21 24 28 29 rings
5 5 16 19 20 22 rings
6 19 22 23 25 27 30 rings
6 28 29 31 32 33 34 rings
6 3 6 7 8 9 10 rings
6 4 12 14 15 17 18 rings
6 4 6 7 8 11 12 rings

> <PUBCHEM_HEAVY_ATOM_COUNT>
34

> <PUBCHEM_ATOM_DEF_STEREO_COUNT>
2

> <PUBCHEM_ATOM_UDEF_STEREO_COUNT>
0

> <PUBCHEM_BOND_DEF_STEREO_COUNT>
0

> <PUBCHEM_BOND_UDEF_STEREO_COUNT>
0

> <PUBCHEM_ISOTOPIC_ATOM_COUNT>
0

> <PUBCHEM_COMPONENT_COUNT>
1

> <PUBCHEM_CACTVS_TAUTO_COUNT>
3

> <PUBCHEM_CONFORMER_ID>
026A7D8E00000001

> <PUBCHEM_MMFF94_ENERGY>
82.0139

> <PUBCHEM_FEATURE_SELFOVERLAP>
52.455

> <PUBCHEM_SHAPE_FINGERPRINT>
10165383 225 17821734931776618926
10190108 129 18266162947999335058
10439779 11 17909810361463180416
10483366 6 18339940255547625476
10675989 125 18341054102927896464
11578080 2 18115604750074359731
12156800 1 15883850304752350242
12786520 15 17242990592016143804
12925494 130 18339357578376805563
13944108 23 18409733936978500468
14114211 80 18193003831381237164
14705955 166 16951110786405368453
14849402 71 18333733485848098502
15082195 135 18199729467263531503
151778 21 18262231256772284532
15238133 3 18339920541273540556
15264996 154 18339934722533210358
16992727 255 17974582587393275196
19315092 285 16808688734656912922
21298829 104 18201434804764818304
21344244 78 18048576163129040346
21475661 188 18335702779681873474
21860390 5 18341895169161428246
21927370 108 17829315905610554970
22122407 14 18412270527983964489
22223350 30 17458639912543286659
23559900 14 17345759560568649655
24893992 56 18408605881277285971
27425 322 17023747969052438657
3298306 158 18269274728206875049
3411729 13 18411420618032377205
397830 11 18187378644880328147
4058900 60 18189907576572485884
474 4 18410570716718645447
513532 50 17346598577933969076
5265222 85 18048889781345893573
60111433 81 17130401653472087793
6086070 43 18335995185414351594
9849439 229 18053088803546277032

> <PUBCHEM_SHAPE_MULTIPOLES>
682.74
13.86
5.61
1.66
30.25
2.13
0.17
7.06
1.51
-8.93
0.05
-0.81
-0.12
-2.23

> <PUBCHEM_SHAPE_SELFOVERLAP>
1524.537

> <PUBCHEM_SHAPE_VOLUME>
365.6

> <PUBCHEM_COORDINATE_TYPE>
2
5
10

$$$$
