7144125
  -OEChem-12032416113D

 47 51  0     1  0  0  0  0  0999 V2000
   -6.1132   -1.5104    0.7037 Cl  0  0  0  0  0  0  0  0  0  0  0  0
    2.3007    3.3618   -1.8448 O   0  0  0  0  0  0  0  0  0  0  0  0
    3.5894   -0.8558   -0.5295 O   0  0  0  0  0  0  0  0  0  0  0  0
    1.3394   -3.2547    0.5199 O   0  0  0  0  0  0  0  0  0  0  0  0
    1.1467    2.1550   -0.2024 N   0  0  0  0  0  0  0  0  0  0  0  0
    1.9818   -0.5758    1.1451 N   0  0  0  0  0  0  0  0  0  0  0  0
    2.1773    1.7050    2.1038 C   0  0  2  0  0  0  0  0  0  0  0  0
   -0.0449    0.8052    1.5512 C   0  0  2  0  0  0  0  0  0  0  0  0
    0.7320    1.6337    2.5737 C   0  0  0  0  0  0  0  0  0  0  0  0
    2.2161    2.4438    0.7647 C   0  0  0  0  0  0  0  0  0  0  0  0
    2.7839    0.2952    2.0019 C   0  0  0  0  0  0  0  0  0  0  0  0
    0.5508   -0.6177    1.4800 C   0  0  0  0  0  0  0  0  0  0  0  0
   -0.0189    1.4529    0.1645 C   0  0  0  0  0  0  0  0  0  0  0  0
   -1.0491    1.3440   -0.7145 C   0  0  0  0  0  0  0  0  0  0  0  0
    1.3115    2.7281   -1.4758 C   0  0  0  0  0  0  0  0  0  0  0  0
    2.5903   -1.2396    0.0770 C   0  0  0  0  0  0  0  0  0  0  0  0
   -0.9130    1.9188   -2.0391 C   0  0  0  0  0  0  0  0  0  0  0  0
    0.1895    2.5596   -2.4270 C   0  0  0  0  0  0  0  0  0  0  0  0
   -2.3010    0.6378   -0.3636 C   0  0  0  0  0  0  0  0  0  0  0  0
    1.9929   -2.4958   -0.3911 C   0  0  0  0  0  0  0  0  0  0  0  0
   -2.4136   -0.7287   -0.6008 C   0  0  0  0  0  0  0  0  0  0  0  0
   -3.3578    1.3454    0.2015 C   0  0  0  0  0  0  0  0  0  0  0  0
    1.9678   -3.0755   -1.6304 C   0  0  0  0  0  0  0  0  0  0  0  0
   -3.5942   -1.3940   -0.2701 C   0  0  0  0  0  0  0  0  0  0  0  0
   -4.5383    0.6801    0.5324 C   0  0  0  0  0  0  0  0  0  0  0  0
    1.2456   -4.2829   -1.4766 C   0  0  0  0  0  0  0  0  0  0  0  0
   -4.6565   -0.6897    0.2967 C   0  0  0  0  0  0  0  0  0  0  0  0
    0.8849   -4.3458   -0.1508 C   0  0  0  0  0  0  0  0  0  0  0  0
    2.7736    2.2706    2.8303 H   0  0  0  0  0  0  0  0  0  0  0  0
   -1.0726    0.7271    1.9229 H   0  0  0  0  0  0  0  0  0  0  0  0
    0.3030    2.6393    2.6662 H   0  0  0  0  0  0  0  0  0  0  0  0
    0.6754    1.1680    3.5653 H   0  0  0  0  0  0  0  0  0  0  0  0
    2.1492    3.5230    0.9608 H   0  0  0  0  0  0  0  0  0  0  0  0
    3.1850    2.2894    0.2729 H   0  0  0  0  0  0  0  0  0  0  0  0
    3.8162    0.3440    1.6385 H   0  0  0  0  0  0  0  0  0  0  0  0
    2.8132   -0.1721    2.9938 H   0  0  0  0  0  0  0  0  0  0  0  0
    0.4589   -1.1188    2.4510 H   0  0  0  0  0  0  0  0  0  0  0  0
    0.0083   -1.2151    0.7460 H   0  0  0  0  0  0  0  0  0  0  0  0
   -1.7385    1.8061   -2.7358 H   0  0  0  0  0  0  0  0  0  0  0  0
    0.2848    2.9807   -3.4207 H   0  0  0  0  0  0  0  0  0  0  0  0
   -1.5988   -1.2902   -1.0508 H   0  0  0  0  0  0  0  0  0  0  0  0
   -3.2794    2.4129    0.3914 H   0  0  0  0  0  0  0  0  0  0  0  0
    2.4091   -2.6863   -2.5369 H   0  0  0  0  0  0  0  0  0  0  0  0
   -3.6726   -2.4611   -0.4614 H   0  0  0  0  0  0  0  0  0  0  0  0
   -5.3578    1.2418    0.9734 H   0  0  0  0  0  0  0  0  0  0  0  0
    1.0158   -5.0151   -2.2370 H   0  0  0  0  0  0  0  0  0  0  0  0
    0.3331   -5.0614    0.4410 H   0  0  0  0  0  0  0  0  0  0  0  0
  1 27  1  0  0  0  0
  2 15  2  0  0  0  0
  3 16  2  0  0  0  0
  4 20  1  0  0  0  0
  4 28  1  0  0  0  0
  5 10  1  0  0  0  0
  5 13  1  0  0  0  0
  5 15  1  0  0  0  0
  6 11  1  0  0  0  0
  6 12  1  0  0  0  0
  6 16  1  0  0  0  0
  7  9  1  0  0  0  0
  7 10  1  0  0  0  0
  7 11  1  0  0  0  0
  7 29  1  0  0  0  0
  8  9  1  0  0  0  0
  8 12  1  0  0  0  0
  8 13  1  0  0  0  0
  8 30  1  0  0  0  0
  9 31  1  0  0  0  0
  9 32  1  0  0  0  0
 10 33  1  0  0  0  0
 10 34  1  0  0  0  0
 11 35  1  0  0  0  0
 11 36  1  0  0  0  0
 12 37  1  0  0  0  0
 12 38  1  0  0  0  0
 13 14  2  0  0  0  0
 14 17  1  0  0  0  0
 14 19  1  0  0  0  0
 15 18  1  0  0  0  0
 16 20  1  0  0  0  0
 17 18  2  0  0  0  0
 17 39  1  0  0  0  0
 18 40  1  0  0  0  0
 19 21  2  0  0  0  0
 19 22  1  0  0  0  0
 20 23  2  0  0  0  0
 21 24  1  0  0  0  0
 21 41  1  0  0  0  0
 22 25  2  0  0  0  0
 22 42  1  0  0  0  0
 23 26  1  0  0  0  0
 23 43  1  0  0  0  0
 24 27  2  0  0  0  0
 24 44  1  0  0  0  0
 25 27  1  0  0  0  0
 25 45  1  0  0  0  0
 26 28  2  0  0  0  0
 26 46  1  0  0  0  0
 28 47  1  0  0  0  0
M  END
> <PUBCHEM_COMPOUND_CID>
7144125

> <PUBCHEM_CONFORMER_RMSD>
0.8

> <PUBCHEM_CONFORMER_DIVERSEORDER>
1
3
4
2

> <PUBCHEM_MMFF94_PARTIAL_CHARGES>
35
1 -0.18
10 0.3
11 0.3
12 0.3
13 -0.03
14 -0.03
15 0.62
16 0.71
17 -0.15
18 -0.14
19 0.03
2 -0.57
20 0.05
21 -0.15
22 -0.15
23 -0.15
24 -0.15
25 -0.15
26 -0.15
27 0.18
28 -0.01
3 -0.57
39 0.15
4 -0.28
40 0.15
41 0.15
42 0.15
43 0.15
44 0.15
45 0.15
46 0.15
47 0.15
5 -0.47
6 -0.66
8 0.14

> <PUBCHEM_EFFECTIVE_ROTOR_COUNT>
4

> <PUBCHEM_PHARMACOPHORE_FEATURES>
8
1 2 acceptor
1 3 acceptor
1 4 acceptor
5 4 20 23 26 28 rings
6 19 21 22 24 25 27 rings
6 5 13 14 15 17 18 rings
6 5 7 8 9 10 13 rings
6 6 7 8 9 11 12 rings

> <PUBCHEM_HEAVY_ATOM_COUNT>
28

> <PUBCHEM_ATOM_DEF_STEREO_COUNT>
2

> <PUBCHEM_ATOM_UDEF_STEREO_COUNT>
0

> <PUBCHEM_BOND_DEF_STEREO_COUNT>
0

> <PUBCHEM_BOND_UDEF_STEREO_COUNT>
0

> <PUBCHEM_ISOTOPIC_ATOM_COUNT>
0

> <PUBCHEM_COMPONENT_COUNT>
1

> <PUBCHEM_CACTVS_TAUTO_COUNT>
1

> <PUBCHEM_CONFORMER_ID>
006D02BD00000001

> <PUBCHEM_MMFF94_ENERGY>
74.5666

> <PUBCHEM_FEATURE_SELFOVERLAP>
42.182

> <PUBCHEM_SHAPE_FINGERPRINT>
10064457 181 17984407809579592472
10764073 3 15186292116077531817
11421498 54 18198930126230741185
12035758 1 18128512995399511058
12156800 1 15119051632409236639
12422481 6 18193246742078549960
12778500 126 17917165909737635299
13135754 10 16051263701465140734
13533116 47 18202843258723963939
13583140 156 17703208694856745321
14863182 85 18267867357765871801
15324884 4 17831252269877044272
15664445 248 18113904805838413557
17492 54 17823440325575983542
17974551 9 17200219332202562657
1813 80 18041569022927436769
18681886 176 17829614207757323989
1979834 28 18338515356744011931
20600515 1 17695084196968916053
20775530 9 18052822446833557135
21756936 100 16479623978624619816
22149856 69 18196668487633561155
23559900 14 18409730656266122325
25222932 49 16662896014434033811
3117164 225 17985283885062583145
35225 105 17053300775606358143
38695281 34 18118412970958335485
46194498 28 18260557744566989783
469060 322 18048337556478937942
57527585 21 16451572919942925030
6287921 2 18411982502865986143

> <PUBCHEM_SHAPE_MULTIPOLES>
550.53
7.14
4.97
2.22
13.55
4.99
-0.05
2.48
1.89
-4.39
-2.6
-1.51
-1.63
0.88

> <PUBCHEM_SHAPE_SELFOVERLAP>
1215.301

> <PUBCHEM_SHAPE_VOLUME>
294

> <PUBCHEM_COORDINATE_TYPE>
2
5
10

$$$$
