75536692
  -OEChem-12032416313D

 48 50  0     1  0  0  0  0  0999 V2000
    5.1323   -1.1640    0.3939 S   0  0  0  0  0  0  0  0  0  0  0  0
    0.7240   -1.1064    1.5904 O   0  0  0  0  0  0  0  0  0  0  0  0
    0.0357   -1.8957   -1.8460 O   0  0  0  0  0  0  0  0  0  0  0  0
    5.2589   -1.9846   -0.7955 O   0  0  0  0  0  0  0  0  0  0  0  0
    5.9722   -1.4187    1.5485 O   0  0  0  0  0  0  0  0  0  0  0  0
   -2.4138   -0.7839   -0.2210 N   0  0  0  0  0  0  0  0  0  0  0  0
    3.5049   -1.1362    0.8887 N   0  0  0  0  0  0  0  0  0  0  0  0
   -7.0077    3.5007    1.0554 N   0  0  0  0  0  0  0  0  0  0  0  0
   -1.1859   -1.4284    0.2155 C   0  0  1  0  0  0  0  0  0  0  0  0
    0.0108   -1.1183   -0.6646 C   0  0  1  0  0  0  0  0  0  0  0  0
    1.1608   -1.4689    0.2699 C   0  0  1  0  0  0  0  0  0  0  0  0
   -0.7030   -0.9277    1.5670 C   0  0  0  0  0  0  0  0  0  0  0  0
    2.4493   -0.7381   -0.0632 C   0  0  0  0  0  0  0  0  0  0  0  0
   -3.5763   -1.3685    0.4368 C   0  0  0  0  0  0  0  0  0  0  0  0
   -4.8566   -0.7019    0.0090 C   0  0  0  0  0  0  0  0  0  0  0  0
    5.3966    0.5197   -0.0753 C   0  0  0  0  0  0  0  0  0  0  0  0
   -5.1942    0.5533    0.5153 C   0  0  0  0  0  0  0  0  0  0  0  0
   -5.7052   -1.3400   -0.8959 C   0  0  0  0  0  0  0  0  0  0  0  0
    5.8481    1.4441    0.8667 C   0  0  0  0  0  0  0  0  0  0  0  0
    5.1517    0.9241   -1.3877 C   0  0  0  0  0  0  0  0  0  0  0  0
   -6.3801    1.1703    0.1172 C   0  0  0  0  0  0  0  0  0  0  0  0
   -6.8910   -0.7228   -1.2944 C   0  0  0  0  0  0  0  0  0  0  0  0
   -7.2286    0.5322   -0.7878 C   0  0  0  0  0  0  0  0  0  0  0  0
    6.0548    2.7731    0.4963 C   0  0  0  0  0  0  0  0  0  0  0  0
    5.3583    2.2530   -1.7580 C   0  0  0  0  0  0  0  0  0  0  0  0
    5.8102    3.1773   -0.8161 C   0  0  0  0  0  0  0  0  0  0  0  0
   -6.7263    2.4563    0.6348 C   0  0  0  0  0  0  0  0  0  0  0  0
   -1.3170   -2.5196    0.2380 H   0  0  0  0  0  0  0  0  0  0  0  0
    0.0341   -0.0564   -0.9395 H   0  0  0  0  0  0  0  0  0  0  0  0
    1.3465   -2.5512    0.2721 H   0  0  0  0  0  0  0  0  0  0  0  0
   -0.8966    0.1419    1.7086 H   0  0  0  0  0  0  0  0  0  0  0  0
   -1.1500   -1.4727    2.4039 H   0  0  0  0  0  0  0  0  0  0  0  0
    2.3072    0.3442    0.0311 H   0  0  0  0  0  0  0  0  0  0  0  0
    2.7478   -0.9725   -1.0894 H   0  0  0  0  0  0  0  0  0  0  0  0
   -2.5113   -0.9021   -1.2299 H   0  0  0  0  0  0  0  0  0  0  0  0
   -3.4954   -1.2756    1.5274 H   0  0  0  0  0  0  0  0  0  0  0  0
   -3.6368   -2.4435    0.2228 H   0  0  0  0  0  0  0  0  0  0  0  0
    0.0139   -2.8346   -1.5947 H   0  0  0  0  0  0  0  0  0  0  0  0
    3.2982   -0.9659    1.8809 H   0  0  0  0  0  0  0  0  0  0  0  0
   -4.5301    1.0483    1.2212 H   0  0  0  0  0  0  0  0  0  0  0  0
   -5.4540   -2.3168   -1.3006 H   0  0  0  0  0  0  0  0  0  0  0  0
    6.0378    1.1530    1.8958 H   0  0  0  0  0  0  0  0  0  0  0  0
    4.7971    0.2221   -2.1369 H   0  0  0  0  0  0  0  0  0  0  0  0
   -7.5512   -1.2194   -1.9995 H   0  0  0  0  0  0  0  0  0  0  0  0
   -8.1564    1.0003   -1.1081 H   0  0  0  0  0  0  0  0  0  0  0  0
    6.4046    3.4934    1.2300 H   0  0  0  0  0  0  0  0  0  0  0  0
    5.1668    2.5683   -2.7795 H   0  0  0  0  0  0  0  0  0  0  0  0
    5.9705    4.2121   -1.1044 H   0  0  0  0  0  0  0  0  0  0  0  0
  1  4  2  0  0  0  0
  1  5  2  0  0  0  0
  1  7  1  0  0  0  0
  1 16  1  0  0  0  0
  2 11  1  0  0  0  0
  2 12  1  0  0  0  0
  3 10  1  0  0  0  0
  3 38  1  0  0  0  0
  6  9  1  0  0  0  0
  6 14  1  0  0  0  0
  6 35  1  0  0  0  0
  7 13  1  0  0  0  0
  7 39  1  0  0  0  0
  8 27  3  0  0  0  0
  9 10  1  0  0  0  0
  9 12  1  0  0  0  0
  9 28  1  0  0  0  0
 10 11  1  0  0  0  0
 10 29  1  0  0  0  0
 11 13  1  0  0  0  0
 11 30  1  0  0  0  0
 12 31  1  0  0  0  0
 12 32  1  0  0  0  0
 13 33  1  0  0  0  0
 13 34  1  0  0  0  0
 14 15  1  0  0  0  0
 14 36  1  0  0  0  0
 14 37  1  0  0  0  0
 15 17  2  0  0  0  0
 15 18  1  0  0  0  0
 16 19  2  0  0  0  0
 16 20  1  0  0  0  0
 17 21  1  0  0  0  0
 17 40  1  0  0  0  0
 18 22  2  0  0  0  0
 18 41  1  0  0  0  0
 19 24  1  0  0  0  0
 19 42  1  0  0  0  0
 20 25  2  0  0  0  0
 20 43  1  0  0  0  0
 21 23  2  0  0  0  0
 21 27  1  0  0  0  0
 22 23  1  0  0  0  0
 22 44  1  0  0  0  0
 23 45  1  0  0  0  0
 24 26  2  0  0  0  0
 24 46  1  0  0  0  0
 25 26  1  0  0  0  0
 25 47  1  0  0  0  0
 26 48  1  0  0  0  0
M  END
> <PUBCHEM_COMPOUND_CID>
75536692

> <PUBCHEM_CONFORMER_RMSD>
1.4

> <PUBCHEM_CONFORMER_DIVERSEORDER>
1
25
77
40
79
26
39
58
93
19
76
83
70
52
63
23
88
78
69
46
12
109
61
108
14
85
86
43
15
30
2
56
22
53
42
16
71
50
91
75
73
3
13
100
6
103
47
17
28
66
60
48
33
37
65
96
4
44
55
82
67
94
9
74
87
68
7
84
104
8
18
95
54
36
35
5
24
101
34
106
89
20
57
107
59
31
102
80
72
105
98
51
38
32
45
11
21
92
90
81
99
49
62
64
41
10
97
27
29

> <PUBCHEM_MMFF94_PARTIAL_CHARGES>
39
1 1.45
10 0.28
11 0.28
12 0.28
13 0.36
14 0.41
15 -0.14
16 -0.01
17 -0.15
18 -0.15
19 -0.15
2 -0.56
20 -0.15
21 0.07
22 -0.15
23 -0.15
24 -0.15
25 -0.15
26 -0.15
27 0.48
3 -0.68
35 0.36
38 0.4
39 0.42
4 -0.65
40 0.15
41 0.15
42 0.15
43 0.15
44 0.15
45 0.15
46 0.15
47 0.15
48 0.15
5 -0.65
6 -0.9
7 -0.91
8 -0.56
9 0.27

> <PUBCHEM_EFFECTIVE_ROTOR_COUNT>
8

> <PUBCHEM_PHARMACOPHORE_FEATURES>
12
1 2 acceptor
1 3 acceptor
1 3 donor
1 4 acceptor
1 5 acceptor
1 6 cation
1 6 donor
1 7 donor
1 8 acceptor
5 2 9 10 11 12 rings
6 15 17 18 21 22 23 rings
6 16 19 20 24 25 26 rings

> <PUBCHEM_HEAVY_ATOM_COUNT>
27

> <PUBCHEM_ATOM_DEF_STEREO_COUNT>
3

> <PUBCHEM_ATOM_UDEF_STEREO_COUNT>
0

> <PUBCHEM_BOND_DEF_STEREO_COUNT>
0

> <PUBCHEM_BOND_UDEF_STEREO_COUNT>
0

> <PUBCHEM_ISOTOPIC_ATOM_COUNT>
0

> <PUBCHEM_COMPONENT_COUNT>
1

> <PUBCHEM_CACTVS_TAUTO_COUNT>
1

> <PUBCHEM_CONFORMER_ID>
0480993400000001

> <PUBCHEM_MMFF94_ENERGY>
46.7188

> <PUBCHEM_FEATURE_SELFOVERLAP>
60.916

> <PUBCHEM_SHAPE_FINGERPRINT>
10 15 15068623803069690439
10319926 262 12612756830904122847
10554248 39 18200866288465171047
10638233 991 18407759240001110741
10906281 52 18342750589598020243
11408170 253 18058455305560139369
11456790 92 17096075897670751352
11991303 11 16630238220959550967
125118 31 18410292505938081456
12895837 130 18342741794016733281
13167372 99 18409166593225237312
13533116 47 17458900449633530690
13782708 43 9943530691254902291
14211702 104 10231751210551972541
14251757 52 18411697703320642840
14347332 77 11671519871396910306
15183329 4 17989209265088843737
15840311 113 18186520990717564895
16994733 274 18410290320132219473
20157964 124 18408040732506233498
20281389 69 17967809440571286303
20567600 247 10519988145086772165
20691028 202 18408041806021269209
21298829 104 18335425711653312796
21344244 181 12751244730773954412
21424621 283 18334016086227436971
21521239 73 12751521777496691086
21641784 216 16988574480336544728
21792934 111 15285899365360698223
22122407 14 18262809578118363136
2303208 19 11959739247884020210
23081809 10 18412257346365796855
249057 25 18059299764495600714
2748736 6 18334010622670456809
2838139 119 18340768234220097625
328310 630 18408608063373620077
3504750 166 9295022258373595747
3711267 37 18271532984137856257
394071 54 17240483641417006044
397830 11 16878237466503134499
4169191 19 18260266386638702205
44555599 121 18410013208715661297
465052 167 8862675598934148784
5104073 3 15502954050093683059
6328613 192 18408884053455404769
6898599 12 18196936793058828422
9962374 69 10735882760119043308

> <PUBCHEM_SHAPE_MULTIPOLES>
521.08
24.6
3.18
1.45
15.69
2.99
0.17
17
1.78
-1.36
-0.21
-0.68
-0.01
-2.96

> <PUBCHEM_SHAPE_SELFOVERLAP>
1088.482

> <PUBCHEM_SHAPE_VOLUME>
294.5

> <PUBCHEM_COORDINATE_TYPE>
2
5
10

$$$$
