38030644
  -OEChem-12032416263D

 68 71  0     1  0  0  0  0  0999 V2000
   -6.4201    3.7379    0.3463 O   0  0  0  0  0  0  0  0  0  0  0  0
    2.4945   -0.8967    0.6716 O   0  0  0  0  0  0  0  0  0  0  0  0
   -4.7093   -0.1335    0.4754 N   0  0  0  0  0  0  0  0  0  0  0  0
    3.0230   -2.9773    0.0425 N   0  0  0  0  0  0  0  0  0  0  0  0
    4.1351   -2.1783   -0.1467 N   0  0  0  0  0  0  0  0  0  0  0  0
   -1.0400   -0.2639   -0.6270 C   0  0  1  0  0  0  0  0  0  0  0  0
   -2.5150   -0.7154   -0.4848 C   0  0  2  0  0  0  0  0  0  0  0  0
   -0.1833   -1.4034   -1.1995 C   0  0  0  0  0  0  0  0  0  0  0  0
   -0.2248   -2.6642   -0.3156 C   0  0  2  0  0  0  0  0  0  0  0  0
   -0.9085    0.9791   -1.5126 C   0  0  0  0  0  0  0  0  0  0  0  0
   -3.2911    0.2171    0.4524 C   0  0  0  0  0  0  0  0  0  0  0  0
   -2.6533   -2.1410   -0.0042 C   0  0  0  0  0  0  0  0  0  0  0  0
   -1.6403   -3.0205    0.0912 C   0  0  0  0  0  0  0  0  0  0  0  0
    0.6763   -2.5064    0.9143 C   0  0  0  0  0  0  0  0  0  0  0  0
   -5.3885    0.3779    1.6735 C   0  0  0  0  0  0  0  0  0  0  0  0
   -5.4039    0.2813   -0.7512 C   0  0  0  0  0  0  0  0  0  0  0  0
    0.3686    1.7413   -1.1736 C   0  0  0  0  0  0  0  0  0  0  0  0
   -0.9294    0.5868   -2.9864 C   0  0  0  0  0  0  0  0  0  0  0  0
   -5.6298    1.8883    1.6567 C   0  0  0  0  0  0  0  0  0  0  0  0
   -5.6463    1.7882   -0.8515 C   0  0  0  0  0  0  0  0  0  0  0  0
   -6.3620    2.3177    0.3888 C   0  0  0  0  0  0  0  0  0  0  0  0
   -1.8743   -4.4270    0.5676 C   0  0  0  0  0  0  0  0  0  0  0  0
    2.0902   -2.1877    0.5213 C   0  0  0  0  0  0  0  0  0  0  0  0
    3.7807   -0.9731    0.2335 C   0  0  0  0  0  0  0  0  0  0  0  0
    4.5258    0.2522    0.2582 C   0  0  0  0  0  0  0  0  0  0  0  0
    5.8526    0.2703   -0.1719 C   0  0  0  0  0  0  0  0  0  0  0  0
    3.9235    1.4259    0.7113 C   0  0  0  0  0  0  0  0  0  0  0  0
    6.5771    1.4618   -0.1487 C   0  0  0  0  0  0  0  0  0  0  0  0
    4.6479    2.6176    0.7346 C   0  0  0  0  0  0  0  0  0  0  0  0
    5.9747    2.6356    0.3046 C   0  0  0  0  0  0  0  0  0  0  0  0
    6.7498    3.9095    0.3299 C   0  0  0  0  0  0  0  0  0  0  0  0
   -0.6679   -0.0171    0.3767 H   0  0  0  0  0  0  0  0  0  0  0  0
   -2.9611   -0.6976   -1.4841 H   0  0  0  0  0  0  0  0  0  0  0  0
    0.8433   -1.0828   -1.3955 H   0  0  0  0  0  0  0  0  0  0  0  0
   -0.5838   -1.7223   -2.1717 H   0  0  0  0  0  0  0  0  0  0  0  0
    0.1698   -3.4869   -0.9294 H   0  0  0  0  0  0  0  0  0  0  0  0
   -1.7427    1.6660   -1.3366 H   0  0  0  0  0  0  0  0  0  0  0  0
   -2.8679    0.0975    1.4603 H   0  0  0  0  0  0  0  0  0  0  0  0
   -3.1437    1.2703    0.1980 H   0  0  0  0  0  0  0  0  0  0  0  0
   -3.6523   -2.4880    0.2503 H   0  0  0  0  0  0  0  0  0  0  0  0
    0.6980   -3.4369    1.4942 H   0  0  0  0  0  0  0  0  0  0  0  0
    0.2983   -1.7301    1.5906 H   0  0  0  0  0  0  0  0  0  0  0  0
   -6.3570   -0.1320    1.7601 H   0  0  0  0  0  0  0  0  0  0  0  0
   -4.8351    0.0990    2.5785 H   0  0  0  0  0  0  0  0  0  0  0  0
   -4.9001   -0.0680   -1.6571 H   0  0  0  0  0  0  0  0  0  0  0  0
   -6.3783   -0.2259   -0.7678 H   0  0  0  0  0  0  0  0  0  0  0  0
    1.2686    1.1495   -1.3659 H   0  0  0  0  0  0  0  0  0  0  0  0
    0.3781    2.0422   -0.1206 H   0  0  0  0  0  0  0  0  0  0  0  0
    0.4410    2.6533   -1.7763 H   0  0  0  0  0  0  0  0  0  0  0  0
   -1.7851   -0.0432   -3.2460 H   0  0  0  0  0  0  0  0  0  0  0  0
   -1.0177    1.4936   -3.5978 H   0  0  0  0  0  0  0  0  0  0  0  0
   -0.0069    0.0967   -3.3154 H   0  0  0  0  0  0  0  0  0  0  0  0
   -6.2139    2.1841    2.5366 H   0  0  0  0  0  0  0  0  0  0  0  0
   -4.6782    2.4289    1.7410 H   0  0  0  0  0  0  0  0  0  0  0  0
   -6.2513    2.0065   -1.7404 H   0  0  0  0  0  0  0  0  0  0  0  0
   -4.7042    2.3289   -1.0041 H   0  0  0  0  0  0  0  0  0  0  0  0
   -7.3910    1.9397    0.4160 H   0  0  0  0  0  0  0  0  0  0  0  0
   -1.5348   -5.1447   -0.1863 H   0  0  0  0  0  0  0  0  0  0  0  0
   -2.9339   -4.6278    0.7583 H   0  0  0  0  0  0  0  0  0  0  0  0
   -1.3318   -4.6162    1.4986 H   0  0  0  0  0  0  0  0  0  0  0  0
   -6.8827    3.9877   -0.4718 H   0  0  0  0  0  0  0  0  0  0  0  0
    6.3421   -0.6323   -0.5297 H   0  0  0  0  0  0  0  0  0  0  0  0
    2.8922    1.4516    1.0542 H   0  0  0  0  0  0  0  0  0  0  0  0
    7.6096    1.4637   -0.4878 H   0  0  0  0  0  0  0  0  0  0  0  0
    4.1673    3.5260    1.0880 H   0  0  0  0  0  0  0  0  0  0  0  0
    6.4078    4.5643    1.1386 H   0  0  0  0  0  0  0  0  0  0  0  0
    6.6348    4.4380   -0.6217 H   0  0  0  0  0  0  0  0  0  0  0  0
    7.8152    3.7205    0.5002 H   0  0  0  0  0  0  0  0  0  0  0  0
  1 21  1  0  0  0  0
  1 61  1  0  0  0  0
  2 23  1  0  0  0  0
  2 24  1  0  0  0  0
  3 11  1  0  0  0  0
  3 15  1  0  0  0  0
  3 16  1  0  0  0  0
  4  5  1  0  0  0  0
  4 23  2  0  0  0  0
  5 24  2  0  0  0  0
  6  7  1  0  0  0  0
  6  8  1  0  0  0  0
  6 10  1  0  0  0  0
  6 32  1  0  0  0  0
  7 11  1  0  0  0  0
  7 12  1  0  0  0  0
  7 33  1  0  0  0  0
  8  9  1  0  0  0  0
  8 34  1  0  0  0  0
  8 35  1  0  0  0  0
  9 13  1  0  0  0  0
  9 14  1  0  0  0  0
  9 36  1  0  0  0  0
 10 17  1  0  0  0  0
 10 18  1  0  0  0  0
 10 37  1  0  0  0  0
 11 38  1  0  0  0  0
 11 39  1  0  0  0  0
 12 13  2  0  0  0  0
 12 40  1  0  0  0  0
 13 22  1  0  0  0  0
 14 23  1  0  0  0  0
 14 41  1  0  0  0  0
 14 42  1  0  0  0  0
 15 19  1  0  0  0  0
 15 43  1  0  0  0  0
 15 44  1  0  0  0  0
 16 20  1  0  0  0  0
 16 45  1  0  0  0  0
 16 46  1  0  0  0  0
 17 47  1  0  0  0  0
 17 48  1  0  0  0  0
 17 49  1  0  0  0  0
 18 50  1  0  0  0  0
 18 51  1  0  0  0  0
 18 52  1  0  0  0  0
 19 21  1  0  0  0  0
 19 53  1  0  0  0  0
 19 54  1  0  0  0  0
 20 21  1  0  0  0  0
 20 55  1  0  0  0  0
 20 56  1  0  0  0  0
 21 57  1  0  0  0  0
 22 58  1  0  0  0  0
 22 59  1  0  0  0  0
 22 60  1  0  0  0  0
 24 25  1  0  0  0  0
 25 26  2  0  0  0  0
 25 27  1  0  0  0  0
 26 28  1  0  0  0  0
 26 62  1  0  0  0  0
 27 29  2  0  0  0  0
 27 63  1  0  0  0  0
 28 30  2  0  0  0  0
 28 64  1  0  0  0  0
 29 30  1  0  0  0  0
 29 65  1  0  0  0  0
 30 31  1  0  0  0  0
 31 66  1  0  0  0  0
 31 67  1  0  0  0  0
 31 68  1  0  0  0  0
M  END
> <PUBCHEM_COMPOUND_CID>
38030644

> <PUBCHEM_CONFORMER_RMSD>
1

> <PUBCHEM_CONFORMER_DIVERSEORDER>
1
112
192
43
154
42
249
50
300
75
274
212
293
121
135
143
256
248
156
238
69
138
55
36
122
105
205
110
308
160
25
216
297
284
96
215
247
91
290
95
97
298
196
195
264
28
84
12
304
101
47
198
301
114
89
252
217
306
289
130
188
137
210
49
179
14
207
187
116
280
61
299
9
66
68
223
171
100
186
117
168
87
24
267
64
309
141
98
183
145
292
34
310
53
102
152
268
162
13
163
199
131
134
23
202
164
125
108
232
178
27
165
155
67
123
291
219
58
88
307
272
266
263
239
35
119
303
211
157
38
221
149
20
17
245
7
8
139
255
193
294
82
285
151
244
243
214
236
71
41
246
241
295
228
111
271
250
230
93
144
240
175
251
203
11
74
194
173
190
107
220
153
2
204
208
51
120
146
48
133
279
265
305
161
172
273
200
140
225
18
174
159
206
275
81
54
169
76
90
278
296
60
229
182
72
4
45
32
52
242
259
56
148
80
106
277
104
19
262
302
254
62
79
70
224
176
129
109
73
118
261
227
6
253
180
85
83
92
40
235
39
132
124
10
166
128
276
136
231
44
189
270
142
113
147
258
26
269
167
94
16
127
150
181
46
257
59
234
22
226
86
233
37
237
57
63
115
15
184
185
287
33
201
99
222
283
213
281
218
21
5
177
78
158
286
209
103
197
65
29
126
31
30
282
77
170
288
3
260
191

> <PUBCHEM_MMFF94_PARTIAL_CHARGES>
30
1 -0.68
11 0.27
12 -0.29
13 -0.28
14 0.18
15 0.27
16 0.27
2 -0.28
21 0.28
22 0.14
23 0.3
24 0.43
25 0.05
26 -0.15
27 -0.15
28 -0.15
29 -0.15
3 -0.81
30 -0.14
31 0.14
4 -0.34
40 0.15
5 -0.34
61 0.4
62 0.15
63 0.15
64 0.15
65 0.15
7 0.14
9 0.14

> <PUBCHEM_EFFECTIVE_ROTOR_COUNT>
8

> <PUBCHEM_PHARMACOPHORE_FEATURES>
8
1 1 acceptor
1 1 donor
1 3 cation
3 10 17 18 hydrophobe
5 2 4 5 23 24 rings
6 25 26 27 28 29 30 rings
6 3 15 16 19 20 21 rings
6 6 7 8 9 12 13 rings

> <PUBCHEM_HEAVY_ATOM_COUNT>
31

> <PUBCHEM_ATOM_DEF_STEREO_COUNT>
3

> <PUBCHEM_ATOM_UDEF_STEREO_COUNT>
0

> <PUBCHEM_BOND_DEF_STEREO_COUNT>
0

> <PUBCHEM_BOND_UDEF_STEREO_COUNT>
0

> <PUBCHEM_ISOTOPIC_ATOM_COUNT>
0

> <PUBCHEM_COMPONENT_COUNT>
1

> <PUBCHEM_CACTVS_TAUTO_COUNT>
1

> <PUBCHEM_CONFORMER_ID>
02444D3400000001

> <PUBCHEM_MMFF94_ENERGY>
61.307

> <PUBCHEM_FEATURE_SELFOVERLAP>
40.597

> <PUBCHEM_SHAPE_FINGERPRINT>
11007060 377 18410856607486115755
11112241 14 18259988158931197339
11115154 58 17552051306931432679
11410812 94 14476693949304020002
12013929 29 18200600180913366417
12422481 6 17603303739350655829
12645989 146 8934462738903514360
12677640 9 18195810902142086481
12788726 201 17418100871154868024
12925494 130 18340764948327510473
13402501 40 18120366821223401964
13726171 33 18191300679934492536
13944108 23 18127694829393257800
14020679 6 17386011718666108441
14251764 75 18411420604857363994
14347332 77 9151181947450225250
14394314 77 18413396423533562585
14790565 3 18339078173305318913
14840074 17 17894348912466680324
15163728 17 16342878555022418891
15840311 113 18339084762154812653
19309040 13 18202281433492669214
20642791 178 17969791980311335244
20691028 202 18411135835630681352
20775438 99 8789159965798546857
21033648 29 17968098586633764361
21585483 110 18337946797363328749
22122407 14 18270971137304636593
23569914 2 17128699627026569576
2748736 6 18412254047582799216
3633792 109 18335687365872079631
4144715 1 18263091066581784762
4169191 19 18410008828033941005
469060 322 16806151306875688686
5104073 3 18114736140347064002
56638632 10 18410283744706510085
5718773 13 9079123245769625400
6608658 132 16773799160722994313

> <PUBCHEM_SHAPE_MULTIPOLES>
611.28
17.5
4.83
1.46
5.39
1.31
0.75
-21.47
-4.91
0.18
-1.12
-1.49
-0.52
-0.06

> <PUBCHEM_SHAPE_SELFOVERLAP>
1287.607

> <PUBCHEM_SHAPE_VOLUME>
344.8

> <PUBCHEM_COORDINATE_TYPE>
2
5
10

$$$$
