75536889
  -OEChem-12032416313D

 50 52  0     1  0  0  0  0  0999 V2000
   -4.4458    0.5531   -0.4174 S   0  0  0  0  0  0  0  0  0  0  0  0
    1.0840   -2.2229   -2.1101 F   0  0  0  0  0  0  0  0  0  0  0  0
   -0.5718   -3.5611   -1.6681 F   0  0  0  0  0  0  0  0  0  0  0  0
   -0.9546   -1.4670   -2.0831 F   0  0  0  0  0  0  0  0  0  0  0  0
    4.4997    2.3100   -0.4705 O   0  0  0  0  0  0  0  0  0  0  0  0
    0.9722    2.7342    0.4412 O   0  0  0  0  0  0  0  0  0  0  0  0
   -1.0791   -2.0476    0.7653 O   0  0  0  0  0  0  0  0  0  0  0  0
    3.0286   -2.4732   -0.1676 O   0  0  0  0  0  0  0  0  0  0  0  0
   -4.4753   -0.1442   -1.6958 O   0  0  0  0  0  0  0  0  0  0  0  0
   -4.8444   -0.1455    0.7962 O   0  0  0  0  0  0  0  0  0  0  0  0
    3.1237   -0.2259    0.4933 N   0  0  0  0  0  0  0  0  0  0  0  0
    2.0598    1.9407   -0.0304 C   0  0  2  0  0  0  0  0  0  0  0  0
    2.4661    0.9591    1.0670 C   0  0  0  0  0  0  0  0  0  0  0  0
    4.5015   -0.0453    0.0290 C   0  0  0  0  0  0  0  0  0  0  0  0
    3.1919    2.8684   -0.4816 C   0  0  0  0  0  0  0  0  0  0  0  0
    4.6158    1.0190   -1.0579 C   0  0  0  0  0  0  0  0  0  0  0  0
    2.5123   -1.4769    0.3364 C   0  0  0  0  0  0  0  0  0  0  0  0
    1.1304   -1.6362    0.8053 C   0  0  0  0  0  0  0  0  0  0  0  0
   -0.2833    2.2298    0.2423 C   0  0  0  0  0  0  0  0  0  0  0  0
    0.0565   -1.9881    0.0211 C   0  0  0  0  0  0  0  0  0  0  0  0
    0.6221   -1.4689    2.1156 C   0  0  0  0  0  0  0  0  0  0  0  0
   -0.7263   -1.7303    2.0385 C   0  0  0  0  0  0  0  0  0  0  0  0
   -1.1133    1.9745    1.3339 C   0  0  0  0  0  0  0  0  0  0  0  0
   -0.7338    1.9705   -1.0520 C   0  0  0  0  0  0  0  0  0  0  0  0
   -2.8443    1.2008   -0.1632 C   0  0  0  0  0  0  0  0  0  0  0  0
   -2.3938    1.4600    1.1312 C   0  0  0  0  0  0  0  0  0  0  0  0
   -2.0143    1.4560   -1.2549 C   0  0  0  0  0  0  0  0  0  0  0  0
   -0.0937   -2.2992   -1.4090 C   0  0  0  0  0  0  0  0  0  0  0  0
   -1.8090   -1.7328    3.0322 C   0  0  0  0  0  0  0  0  0  0  0  0
   -5.4817    1.9890   -0.5870 C   0  0  0  0  0  0  0  0  0  0  0  0
    1.7572    1.3589   -0.9112 H   0  0  0  0  0  0  0  0  0  0  0  0
    3.1630    1.4272    1.7737 H   0  0  0  0  0  0  0  0  0  0  0  0
    1.6003    0.6912    1.6645 H   0  0  0  0  0  0  0  0  0  0  0  0
    4.8895   -0.9931   -0.3572 H   0  0  0  0  0  0  0  0  0  0  0  0
    5.1005    0.2295    0.9050 H   0  0  0  0  0  0  0  0  0  0  0  0
    3.2231    3.7554    0.1621 H   0  0  0  0  0  0  0  0  0  0  0  0
    2.9784    3.2468   -1.4889 H   0  0  0  0  0  0  0  0  0  0  0  0
    5.6212    0.9656   -1.4888 H   0  0  0  0  0  0  0  0  0  0  0  0
    3.8998    0.8763   -1.8754 H   0  0  0  0  0  0  0  0  0  0  0  0
    1.1674   -1.2044    3.0110 H   0  0  0  0  0  0  0  0  0  0  0  0
   -0.7674    2.1741    2.3444 H   0  0  0  0  0  0  0  0  0  0  0  0
   -0.1091    2.1824   -1.9155 H   0  0  0  0  0  0  0  0  0  0  0  0
   -3.0249    1.2746    1.9957 H   0  0  0  0  0  0  0  0  0  0  0  0
   -2.3483    1.2698   -2.2717 H   0  0  0  0  0  0  0  0  0  0  0  0
   -1.6526   -0.9484    3.7793 H   0  0  0  0  0  0  0  0  0  0  0  0
   -2.7816   -1.5588    2.5617 H   0  0  0  0  0  0  0  0  0  0  0  0
   -1.8482   -2.6961    3.5497 H   0  0  0  0  0  0  0  0  0  0  0  0
   -6.5077    1.6498   -0.7453 H   0  0  0  0  0  0  0  0  0  0  0  0
   -5.4224    2.5796    0.3291 H   0  0  0  0  0  0  0  0  0  0  0  0
   -5.1449    2.5708   -1.4471 H   0  0  0  0  0  0  0  0  0  0  0  0
  1  9  2  0  0  0  0
  1 10  2  0  0  0  0
  1 25  1  0  0  0  0
  1 30  1  0  0  0  0
  2 28  1  0  0  0  0
  3 28  1  0  0  0  0
  4 28  1  0  0  0  0
  5 15  1  0  0  0  0
  5 16  1  0  0  0  0
  6 12  1  0  0  0  0
  6 19  1  0  0  0  0
  7 20  1  0  0  0  0
  7 22  1  0  0  0  0
  8 17  2  0  0  0  0
 11 13  1  0  0  0  0
 11 14  1  0  0  0  0
 11 17  1  0  0  0  0
 12 13  1  0  0  0  0
 12 15  1  0  0  0  0
 12 31  1  0  0  0  0
 13 32  1  0  0  0  0
 13 33  1  0  0  0  0
 14 16  1  0  0  0  0
 14 34  1  0  0  0  0
 14 35  1  0  0  0  0
 15 36  1  0  0  0  0
 15 37  1  0  0  0  0
 16 38  1  0  0  0  0
 16 39  1  0  0  0  0
 17 18  1  0  0  0  0
 18 20  2  0  0  0  0
 18 21  1  0  0  0  0
 19 23  2  0  0  0  0
 19 24  1  0  0  0  0
 20 28  1  0  0  0  0
 21 22  2  0  0  0  0
 21 40  1  0  0  0  0
 22 29  1  0  0  0  0
 23 26  1  0  0  0  0
 23 41  1  0  0  0  0
 24 27  2  0  0  0  0
 24 42  1  0  0  0  0
 25 26  2  0  0  0  0
 25 27  1  0  0  0  0
 26 43  1  0  0  0  0
 27 44  1  0  0  0  0
 29 45  1  0  0  0  0
 29 46  1  0  0  0  0
 29 47  1  0  0  0  0
 30 48  1  0  0  0  0
 30 49  1  0  0  0  0
 30 50  1  0  0  0  0
M  END
> <PUBCHEM_COMPOUND_CID>
75536889

> <PUBCHEM_CONFORMER_RMSD>
1

> <PUBCHEM_CONFORMER_DIVERSEORDER>
8
20
84
177
50
218
63
105
226
166
60
187
171
24
220
212
193
49
234
86
69
203
190
77
133
230
153
182
34
76
44
40
167
229
200
183
130
141
108
81
209
112
154
236
117
189
2
15
102
123
65
146
151
48
199
188
176
198
18
33
99
114
98
142
222
237
174
71
116
180
162
70
61
109
56
136
38
194
131
45
213
9
191
173
158
137
72
12
39
47
89
125
68
126
170
152
134
225
36
172
115
238
178
206
135
57
219
192
16
161
165
25
118
3
169
149
204
90
139
211
184
119
215
164
19
138
55
223
46
37
239
26
30
216
224
233
92
101
140
94
28
197
1
201
132
240
163
210
4
159
195
156
79
17
217
66
83
104
5
235
113
52
53
80
110
62
67
147
59
185
91
208
74
7
214
148
228
78
54
35
227
127
82
145
231
181
95
31
96
27
175
111
107
6
21
144
97
120
157
11
207
14
93
155
129
51
241
232
103
121
85
41
88
143
128
64
202
75
29
43
22
32
205
58
221
124
168
196
150
23
13
242
42
179
186
100
122
106
160
87
73
10

> <PUBCHEM_MMFF94_PARTIAL_CHARGES>
35
1 1.2
10 -0.65
11 -0.66
12 0.28
13 0.3
14 0.3
15 0.28
16 0.28
17 0.72
18 -0.09
19 0.08
2 -0.34
20 -0.04
21 -0.15
22 -0.04
23 -0.15
24 -0.15
25 -0.01
26 -0.15
27 -0.15
28 1.2
29 0.18
3 -0.34
30 0.11
4 -0.34
40 0.15
41 0.15
42 0.15
43 0.15
44 0.15
5 -0.56
6 -0.36
7 -0.28
8 -0.57
9 -0.65

> <PUBCHEM_EFFECTIVE_ROTOR_COUNT>
7.4

> <PUBCHEM_PHARMACOPHORE_FEATURES>
9
1 10 acceptor
1 5 acceptor
1 6 acceptor
1 7 acceptor
1 8 acceptor
1 9 acceptor
5 7 18 20 21 22 rings
6 19 23 24 25 26 27 rings
7 5 11 12 13 14 15 16 rings

> <PUBCHEM_HEAVY_ATOM_COUNT>
30

> <PUBCHEM_ATOM_DEF_STEREO_COUNT>
1

> <PUBCHEM_ATOM_UDEF_STEREO_COUNT>
0

> <PUBCHEM_BOND_DEF_STEREO_COUNT>
0

> <PUBCHEM_BOND_UDEF_STEREO_COUNT>
0

> <PUBCHEM_ISOTOPIC_ATOM_COUNT>
0

> <PUBCHEM_COMPONENT_COUNT>
1

> <PUBCHEM_CACTVS_TAUTO_COUNT>
1

> <PUBCHEM_CONFORMER_ID>
048099F900000008

> <PUBCHEM_MMFF94_ENERGY>
67.505

> <PUBCHEM_FEATURE_SELFOVERLAP>
45.694

> <PUBCHEM_SHAPE_FINGERPRINT>
104564 63 17902794398792563992
12156800 1 17482515948640814283
12788726 201 17703519830186772272
13402501 40 18187369856311688385
14787075 74 18260544528609605119
15664445 248 17761773967040437893
15721738 202 18202280347441293587
17492 54 18337658793956499261
19930381 70 18127697036689625070
20691752 17 17824276894531298385
20905425 154 17974557005622884889
21197605 99 18263934413611651835
23227448 37 18041846228237066016
23419403 2 17835289697510607563
238 59 18341336612911889592
27425 322 16081376292798206573
3298306 158 18334572460185455901
35225 105 18334296504541836300
392239 28 18040721329469021561
469060 322 14636265160888012080
5171179 24 17121416646693464616
6287921 2 17700421286175698487

> <PUBCHEM_SHAPE_MULTIPOLES>
559.22
8.31
3.84
2.05
3.19
0.55
0.22
-5
-1.87
-1.35
-0.3
1
1.69
0.37

> <PUBCHEM_SHAPE_SELFOVERLAP>
1180.552

> <PUBCHEM_SHAPE_VOLUME>
317.7

> <PUBCHEM_COORDINATE_TYPE>
2
5
10

$$$$
