40777671
  -OEChem-12032416183D

 51 54  0     1  0  0  0  0  0999 V2000
    5.7388    1.3175   -0.4923 S   0  0  0  0  0  0  0  0  0  0  0  0
    6.1289   -1.5776   -0.2485 S   0  0  0  0  0  0  0  0  0  0  0  0
   -7.1936    1.2946   -2.0714 F   0  0  0  0  0  0  0  0  0  0  0  0
   -7.8107   -0.7088   -1.4940 F   0  0  0  0  0  0  0  0  0  0  0  0
   -7.9722    0.9237   -0.0754 F   0  0  0  0  0  0  0  0  0  0  0  0
    7.0757    1.4051    0.0636 O   0  0  0  0  0  0  0  0  0  0  0  0
    5.2959    2.2809   -1.4819 O   0  0  0  0  0  0  0  0  0  0  0  0
    4.6039    1.2650    0.7725 N   0  0  0  0  0  0  0  0  0  0  0  0
   -1.8778   -0.6365    0.7665 N   0  0  0  0  0  0  0  0  0  0  0  0
   -1.5755   -1.8363    1.2912 N   0  0  0  0  0  0  0  0  0  0  0  0
    1.6502    0.0542    1.4720 C   0  0  2  0  0  0  0  0  0  0  0  0
    2.3273    0.5062    0.1612 C   0  0  0  0  0  0  0  0  0  0  0  0
    3.2113    1.7009    0.5346 C   0  0  1  0  0  0  0  0  0  0  0  0
    0.2384   -0.4482    1.2738 C   0  0  0  0  0  0  0  0  0  0  0  0
    1.7641    1.2772    2.3348 C   0  0  0  0  0  0  0  0  0  0  0  0
    2.6196    2.1679    1.8228 C   0  0  0  0  0  0  0  0  0  0  0  0
   -0.8258    0.2311    0.7330 C   0  0  0  0  0  0  0  0  0  0  0  0
   -0.2815   -1.7152    1.5992 C   0  0  0  0  0  0  0  0  0  0  0  0
   -0.9242    1.6045    0.1981 C   0  0  0  0  0  0  0  0  0  0  0  0
    0.4271   -2.8533    2.2107 C   0  0  0  0  0  0  0  0  0  0  0  0
   -3.1752   -0.3833    0.3200 C   0  0  0  0  0  0  0  0  0  0  0  0
    5.5526   -0.2856   -1.2135 C   0  0  0  0  0  0  0  0  0  0  0  0
   -3.3904    0.5079   -0.7312 C   0  0  0  0  0  0  0  0  0  0  0  0
   -4.2576   -1.0190    0.9283 C   0  0  0  0  0  0  0  0  0  0  0  0
    5.0324   -0.7265   -2.4104 C   0  0  0  0  0  0  0  0  0  0  0  0
   -4.6881    0.7633   -1.1743 C   0  0  0  0  0  0  0  0  0  0  0  0
   -5.5552   -0.7635    0.4852 C   0  0  0  0  0  0  0  0  0  0  0  0
   -5.7706    0.1276   -0.5661 C   0  0  0  0  0  0  0  0  0  0  0  0
    5.1077   -2.1437   -2.5368 C   0  0  0  0  0  0  0  0  0  0  0  0
    5.6826   -2.7319   -1.4319 C   0  0  0  0  0  0  0  0  0  0  0  0
   -7.1579    0.4017   -1.0397 C   0  0  0  0  0  0  0  0  0  0  0  0
    2.2540   -0.7370    1.9352 H   0  0  0  0  0  0  0  0  0  0  0  0
    2.8781   -0.3255   -0.2880 H   0  0  0  0  0  0  0  0  0  0  0  0
    1.5970    0.8249   -0.5918 H   0  0  0  0  0  0  0  0  0  0  0  0
    3.1547    2.4931   -0.2164 H   0  0  0  0  0  0  0  0  0  0  0  0
    1.2472    1.4074    3.2753 H   0  0  0  0  0  0  0  0  0  0  0  0
    2.8680    3.1084    2.2938 H   0  0  0  0  0  0  0  0  0  0  0  0
    4.7141    0.5260    1.4797 H   0  0  0  0  0  0  0  0  0  0  0  0
   -0.7548    1.6338   -0.8822 H   0  0  0  0  0  0  0  0  0  0  0  0
   -1.8525    2.1142    0.4712 H   0  0  0  0  0  0  0  0  0  0  0  0
   -0.1432    2.2390    0.6287 H   0  0  0  0  0  0  0  0  0  0  0  0
    1.2678   -3.1649    1.5822 H   0  0  0  0  0  0  0  0  0  0  0  0
   -0.2293   -3.7200    2.3428 H   0  0  0  0  0  0  0  0  0  0  0  0
    0.8179   -2.5779    3.1956 H   0  0  0  0  0  0  0  0  0  0  0  0
   -2.6037    0.9397   -1.3335 H   0  0  0  0  0  0  0  0  0  0  0  0
   -4.1240   -1.7098    1.7571 H   0  0  0  0  0  0  0  0  0  0  0  0
    4.6158   -0.0670   -3.1607 H   0  0  0  0  0  0  0  0  0  0  0  0
   -4.8336    1.4399   -2.0120 H   0  0  0  0  0  0  0  0  0  0  0  0
   -6.3928   -1.2613    0.9668 H   0  0  0  0  0  0  0  0  0  0  0  0
    4.7575   -2.7032   -3.3944 H   0  0  0  0  0  0  0  0  0  0  0  0
    5.8618   -3.7844   -1.2629 H   0  0  0  0  0  0  0  0  0  0  0  0
  1  6  2  0  0  0  0
  1  7  2  0  0  0  0
  1  8  1  0  0  0  0
  1 22  1  0  0  0  0
  2 22  1  0  0  0  0
  2 30  1  0  0  0  0
  3 31  1  0  0  0  0
  4 31  1  0  0  0  0
  5 31  1  0  0  0  0
  8 13  1  0  0  0  0
  8 38  1  0  0  0  0
  9 10  1  0  0  0  0
  9 17  1  0  0  0  0
  9 21  1  0  0  0  0
 10 18  2  0  0  0  0
 11 12  1  0  0  0  0
 11 14  1  0  0  0  0
 11 15  1  0  0  0  0
 11 32  1  0  0  0  0
 12 13  1  0  0  0  0
 12 33  1  0  0  0  0
 12 34  1  0  0  0  0
 13 16  1  0  0  0  0
 13 35  1  0  0  0  0
 14 17  2  0  0  0  0
 14 18  1  0  0  0  0
 15 16  2  0  0  0  0
 15 36  1  0  0  0  0
 16 37  1  0  0  0  0
 17 19  1  0  0  0  0
 18 20  1  0  0  0  0
 19 39  1  0  0  0  0
 19 40  1  0  0  0  0
 19 41  1  0  0  0  0
 20 42  1  0  0  0  0
 20 43  1  0  0  0  0
 20 44  1  0  0  0  0
 21 23  2  0  0  0  0
 21 24  1  0  0  0  0
 22 25  2  0  0  0  0
 23 26  1  0  0  0  0
 23 45  1  0  0  0  0
 24 27  2  0  0  0  0
 24 46  1  0  0  0  0
 25 29  1  0  0  0  0
 25 47  1  0  0  0  0
 26 28  2  0  0  0  0
 26 48  1  0  0  0  0
 27 28  1  0  0  0  0
 27 49  1  0  0  0  0
 28 31  1  0  0  0  0
 29 30  2  0  0  0  0
 29 50  1  0  0  0  0
 30 51  1  0  0  0  0
M  END
> <PUBCHEM_COMPOUND_CID>
40777671

> <PUBCHEM_CONFORMER_RMSD>
0.8

> <PUBCHEM_CONFORMER_DIVERSEORDER>
13
55
21
84
51
107
98
65
48
123
109
114
110
77
127
102
91
137
70
35
50
125
22
46
86
7
40
9
95
72
67
64
126
62
44
106
130
29
96
92
131
16
37
111
15
128
28
139
83
101
41
36
94
57
87
100
81
122
24
78
33
116
117
135
118
124
49
93
140
39
27
30
136
23
105
10
82
89
34
69
32
54
73
47
14
121
66
119
3
80
43
17
108
2
71
42
129
45
120
113
59
97
134
58
133
99
63
79
31
60
115
88
132
61
104
74
138
4
52
103
12
6
26
53
85
38
112
19
75
25
8
18
56
20
11
90
76
68
1
5

> <PUBCHEM_MMFF94_PARTIAL_CHARGES>
40
1 1.5
10 -0.71
11 0.32
13 0.49
14 -0.18
15 -0.29
16 -0.29
17 -0.33
18 0.11
19 0.18
2 -0.08
20 0.18
21 -0.02
22 -0.02
23 -0.15
24 -0.15
25 -0.15
26 -0.15
27 -0.15
28 -0.14
29 -0.15
3 -0.34
30 -0.11
31 1.16
36 0.15
37 0.15
38 0.42
4 -0.34
45 0.15
46 0.15
47 0.15
48 0.15
49 0.15
5 -0.34
50 0.15
51 0.15
6 -0.65
7 -0.65
8 -0.91
9 0.59

> <PUBCHEM_EFFECTIVE_ROTOR_COUNT>
6.6

> <PUBCHEM_PHARMACOPHORE_FEATURES>
8
1 10 acceptor
1 6 acceptor
1 7 acceptor
1 8 donor
5 11 12 13 15 16 rings
5 2 22 25 29 30 rings
5 9 10 14 17 18 rings
6 21 23 24 26 27 28 rings

> <PUBCHEM_HEAVY_ATOM_COUNT>
31

> <PUBCHEM_ATOM_DEF_STEREO_COUNT>
2

> <PUBCHEM_ATOM_UDEF_STEREO_COUNT>
0

> <PUBCHEM_BOND_DEF_STEREO_COUNT>
0

> <PUBCHEM_BOND_UDEF_STEREO_COUNT>
0

> <PUBCHEM_ISOTOPIC_ATOM_COUNT>
0

> <PUBCHEM_COMPONENT_COUNT>
1

> <PUBCHEM_CACTVS_TAUTO_COUNT>
1

> <PUBCHEM_CONFORMER_ID>
026E37C70000000D

> <PUBCHEM_MMFF94_ENERGY>
65.7717

> <PUBCHEM_FEATURE_SELFOVERLAP>
40.616

> <PUBCHEM_SHAPE_FINGERPRINT>
10 15 16443340971708384961
10670039 82 17894910672635416269
10693767 8 17989482996398203910
10906281 52 16588025676468175753
11135609 127 18265612272904488364
11720765 8 17989202664262778120
11828532 37 17822865293462936924
12166972 35 15123512535972167400
12717326 69 12390067268446079895
12838863 1 18128817444420876022
13533116 47 17132120134954641106
1361 2 17704078374220932214
13617811 41 17603587413250505740
13782708 43 17561083596782391047
14251764 75 12181000639454093302
14347332 77 17346323656676679208
14910700 183 9223230745580240976
15119646 104 17203618055566412142
15183329 4 17346884459119824773
15351334 14 18262501659650529943
15475509 8 18335989692361844877
15721738 15 18263376806751306698
17134984 74 17131549539732592998
190975 80 9871459920494596097
19315092 285 16271370665839604518
19958102 18 18410864243710809274
20567600 234 11746939793182031203
20567600 247 16917065555411977087
21033648 29 18042675285690441001
21521239 73 18059856159996774038
21792964 463 14996846477154526837
221357 26 18272650142910193992
23536364 44 18270117890242964640
23559900 14 18340205292545323033
23569914 152 17410482187877916485
23569943 247 17916874500038331855
27425 322 16733554961119792826
3004659 81 14908185278321229056
3418910 222 16588027875929723901
34797466 226 18115035207177099772
3729539 64 18202290177656225634
3886686 26 12818286172725306046
4058900 60 17168144482186864603
4066623 53 18335981970279776260
4098825 35 17917434168915735637
4173938 306 18342446085439198448
4340502 62 12468633924102603960
4625314 4 12396292669281674257
50009960 94 12390353086205153773
5104073 3 11167364211428767215
5951187 136 16154289316183993278
59682541 52 18131353012000010196

> <PUBCHEM_SHAPE_MULTIPOLES>
597.16
21.09
2.51
2.28
21.45
0.53
0.39
3.43
-15.16
-5.55
0.13
0.14
0.76
1.78

> <PUBCHEM_SHAPE_SELFOVERLAP>
1274.752

> <PUBCHEM_SHAPE_VOLUME>
335.9

> <PUBCHEM_COORDINATE_TYPE>
2
5
10

$$$$
