45783599
  -OEChem-12032416263D

 50 53  0     1  0  0  0  0  0999 V2000
    5.5043    0.0315    1.0704 S   0  0  0  0  0  0  0  0  0  0  0  0
   -2.3699   -1.4378   -1.2260 O   0  0  0  0  0  0  0  0  0  0  0  0
    6.2831    0.1474    2.2893 O   0  0  0  0  0  0  0  0  0  0  0  0
    6.1111   -0.4695   -0.1469 O   0  0  0  0  0  0  0  0  0  0  0  0
   -4.3289   -0.0579    0.5148 N   0  0  1  0  0  0  0  0  0  0  0  0
   -1.0049   -1.4011    0.5495 N   0  0  0  0  0  0  0  0  0  0  0  0
   -1.0687   -1.5471   -1.7328 N   0  0  0  0  0  0  0  0  0  0  0  0
    4.0527   -0.8220    1.4314 N   0  0  0  0  0  0  0  0  0  0  0  0
    3.9002   -1.7660   -0.7252 N   0  0  0  0  0  0  0  0  0  0  0  0
    1.6790    3.9852   -1.6185 N   0  0  0  0  0  0  0  0  0  0  0  0
   -3.5262   -1.2301    0.9172 C   0  0  1  0  0  0  0  0  0  0  0  0
   -4.4665   -2.4337    0.7217 C   0  0  0  0  0  0  0  0  0  0  0  0
   -5.7899   -1.8349    0.2671 C   0  0  0  0  0  0  0  0  0  0  0  0
   -5.7267   -0.4068    0.7698 C   0  0  0  0  0  0  0  0  0  0  0  0
   -3.9367    1.1686    1.1972 C   0  0  0  0  0  0  0  0  0  0  0  0
   -2.2423   -1.3564    0.1243 C   0  0  0  0  0  0  0  0  0  0  0  0
   -2.7086    1.7846    0.5815 C   0  0  0  0  0  0  0  0  0  0  0  0
   -1.5675    1.9897    1.3572 C   0  0  0  0  0  0  0  0  0  0  0  0
   -2.7120    2.1503   -0.7646 C   0  0  0  0  0  0  0  0  0  0  0  0
   -0.3211   -1.5183   -0.6256 C   0  0  0  0  0  0  0  0  0  0  0  0
    1.1104   -1.6031   -0.6587 C   0  0  0  0  0  0  0  0  0  0  0  0
   -0.4298    2.5603    0.7867 C   0  0  0  0  0  0  0  0  0  0  0  0
   -1.5742    2.7210   -1.3351 C   0  0  0  0  0  0  0  0  0  0  0  0
   -0.4331    2.9259   -0.5595 C   0  0  0  0  0  0  0  0  0  0  0  0
    1.8615   -1.1605    0.4246 C   0  0  0  0  0  0  0  0  0  0  0  0
    1.7526   -2.1270   -1.7752 C   0  0  0  0  0  0  0  0  0  0  0  0
    3.2409   -1.2628    0.3423 C   0  0  0  0  0  0  0  0  0  0  0  0
    3.1367   -2.1861   -1.7590 C   0  0  0  0  0  0  0  0  0  0  0  0
    0.7324    3.5105   -1.1439 C   0  0  0  0  0  0  0  0  0  0  0  0
    4.8420    1.6460    0.7258 C   0  0  0  0  0  0  0  0  0  0  0  0
   -3.2654   -1.1827    1.9836 H   0  0  0  0  0  0  0  0  0  0  0  0
   -4.1044   -3.1738    0.0000 H   0  0  0  0  0  0  0  0  0  0  0  0
   -4.6095   -2.9462    1.6810 H   0  0  0  0  0  0  0  0  0  0  0  0
   -6.6500   -2.3821    0.6643 H   0  0  0  0  0  0  0  0  0  0  0  0
   -5.8501   -1.8527   -0.8282 H   0  0  0  0  0  0  0  0  0  0  0  0
   -6.4198    0.2421    0.2255 H   0  0  0  0  0  0  0  0  0  0  0  0
   -5.9671   -0.3691    1.8399 H   0  0  0  0  0  0  0  0  0  0  0  0
   -4.7333    1.9199    1.1012 H   0  0  0  0  0  0  0  0  0  0  0  0
   -3.8106    1.0106    2.2764 H   0  0  0  0  0  0  0  0  0  0  0  0
   -1.5499    1.7071    2.4063 H   0  0  0  0  0  0  0  0  0  0  0  0
   -3.5950    2.0011   -1.3805 H   0  0  0  0  0  0  0  0  0  0  0  0
    0.4528    2.7117    1.4035 H   0  0  0  0  0  0  0  0  0  0  0  0
   -1.5923    3.0012   -2.3856 H   0  0  0  0  0  0  0  0  0  0  0  0
    1.3947   -0.7399    1.3105 H   0  0  0  0  0  0  0  0  0  0  0  0
    1.2156   -2.4916   -2.6448 H   0  0  0  0  0  0  0  0  0  0  0  0
    3.6859   -2.5872   -2.6044 H   0  0  0  0  0  0  0  0  0  0  0  0
    3.5405   -0.5274    2.2729 H   0  0  0  0  0  0  0  0  0  0  0  0
    4.2903    1.9980    1.5996 H   0  0  0  0  0  0  0  0  0  0  0  0
    4.1943    1.5897   -0.1509 H   0  0  0  0  0  0  0  0  0  0  0  0
    5.6795    2.3170    0.5225 H   0  0  0  0  0  0  0  0  0  0  0  0
  1  3  2  0  0  0  0
  1  4  2  0  0  0  0
  1  8  1  0  0  0  0
  1 30  1  0  0  0  0
  2  7  1  0  0  0  0
  2 16  1  0  0  0  0
  5 11  1  0  0  0  0
  5 14  1  0  0  0  0
  5 15  1  0  0  0  0
  6 16  2  0  0  0  0
  6 20  1  0  0  0  0
  7 20  2  0  0  0  0
  8 27  1  0  0  0  0
  8 47  1  0  0  0  0
  9 27  2  0  0  0  0
  9 28  1  0  0  0  0
 10 29  3  0  0  0  0
 11 12  1  0  0  0  0
 11 16  1  0  0  0  0
 11 31  1  0  0  0  0
 12 13  1  0  0  0  0
 12 32  1  0  0  0  0
 12 33  1  0  0  0  0
 13 14  1  0  0  0  0
 13 34  1  0  0  0  0
 13 35  1  0  0  0  0
 14 36  1  0  0  0  0
 14 37  1  0  0  0  0
 15 17  1  0  0  0  0
 15 38  1  0  0  0  0
 15 39  1  0  0  0  0
 17 18  2  0  0  0  0
 17 19  1  0  0  0  0
 18 22  1  0  0  0  0
 18 40  1  0  0  0  0
 19 23  2  0  0  0  0
 19 41  1  0  0  0  0
 20 21  1  0  0  0  0
 21 25  2  0  0  0  0
 21 26  1  0  0  0  0
 22 24  2  0  0  0  0
 22 42  1  0  0  0  0
 23 24  1  0  0  0  0
 23 43  1  0  0  0  0
 24 29  1  0  0  0  0
 25 27  1  0  0  0  0
 25 44  1  0  0  0  0
 26 28  2  0  0  0  0
 26 45  1  0  0  0  0
 28 46  1  0  0  0  0
 30 48  1  0  0  0  0
 30 49  1  0  0  0  0
 30 50  1  0  0  0  0
M  END
> <PUBCHEM_COMPOUND_CID>
45783599

> <PUBCHEM_CONFORMER_RMSD>
1

> <PUBCHEM_CONFORMER_DIVERSEORDER>
1
69
57
108
168
162
139
52
65
154
118
83
47
41
107
121
11
128
37
191
96
30
181
206
39
98
140
193
200
180
62
55
27
172
170
103
116
80
189
179
35
158
155
147
111
2
198
100
171
54
169
89
16
93
185
91
85
201
84
21
32
101
9
109
130
202
204
135
23
10
36
190
197
144
136
131
177
53
161
205
175
44
199
137
160
87
173
192
143
123
63
86
49
14
15
66
46
110
151
186
163
183
194
81
40
74
4
157
17
3
164
166
8
152
79
99
208
148
174
126
119
97
207
138
165
184
31
5
124
125
114
60
146
20
43
13
73
117
132
134
195
64
188
7
145
78
95
176
90
70
115
156
61
48
133
68
196
25
77
82
51
141
142
122
106
67
187
75
104
33
58
6
18
94
203
167
129
38
105
159
45
153
42
88
34
50
59
28
178
22
72
112
19
92
127
182
24
29
150
56
102
113
149
76
26
120
12
71

> <PUBCHEM_MMFF94_PARTIAL_CHARGES>
36
1 1.33
10 -0.56
11 0.45
14 0.27
15 0.41
16 0.3
17 -0.14
18 -0.15
19 -0.15
2 -0.02
20 0.46
21 0.05
22 -0.15
23 -0.15
24 0.07
25 -0.15
26 -0.15
27 0.51
28 0.16
29 0.48
3 -0.65
30 0.11
4 -0.65
40 0.15
41 0.15
42 0.15
43 0.15
44 0.15
45 0.15
46 0.15
47 0.42
5 -0.81
6 -0.57
7 -0.41
8 -0.76
9 -0.62

> <PUBCHEM_EFFECTIVE_ROTOR_COUNT>
7

> <PUBCHEM_PHARMACOPHORE_FEATURES>
11
1 10 acceptor
1 3 acceptor
1 4 acceptor
1 5 cation
1 8 donor
1 9 acceptor
3 6 7 20 cation
5 2 6 7 16 20 rings
5 5 11 12 13 14 rings
6 17 18 19 22 23 24 rings
6 9 21 25 26 27 28 rings

> <PUBCHEM_HEAVY_ATOM_COUNT>
30

> <PUBCHEM_ATOM_DEF_STEREO_COUNT>
1

> <PUBCHEM_ATOM_UDEF_STEREO_COUNT>
0

> <PUBCHEM_BOND_DEF_STEREO_COUNT>
0

> <PUBCHEM_BOND_UDEF_STEREO_COUNT>
0

> <PUBCHEM_ISOTOPIC_ATOM_COUNT>
0

> <PUBCHEM_COMPONENT_COUNT>
1

> <PUBCHEM_CACTVS_TAUTO_COUNT>
2

> <PUBCHEM_CONFORMER_ID>
02BA9A2F00000001

> <PUBCHEM_MMFF94_ENERGY>
58.9423

> <PUBCHEM_FEATURE_SELFOVERLAP>
55.85

> <PUBCHEM_SHAPE_FINGERPRINT>
10369192 42 17489582416195535600
10670039 82 18337405872497359710
10675989 125 16458243451142181837
11595378 159 18189047617025342962
11963148 33 17111572749482045187
12035758 1 18189912916082485825
12156800 1 15624535902952653029
12166972 35 17095240337268105742
12422481 6 18412826914631622208
12596602 18 17676201364788899802
13402501 40 18272087192956246642
14840074 17 18269557307122114424
15264996 154 18117013250371323830
15840311 113 17341829824770973425
15961568 22 18410017654333775732
16120349 306 17908144630953285176
17357779 13 18270954657973751943
18393751 57 18199737197988600562
19309040 13 14833854031934354186
20771845 171 17390229570636464541
21033648 29 17774715373054415843
21360443 120 17609506277996881396
21623110 236 18271812297927890905
23559900 14 17983304724428925422
25019877 29 17203326753752320222
3187 122 18335696126824978780
392239 28 18187363224992790938
4280585 95 18187357744973256137
445580 44 17458909232108044501
469060 322 18261683588111646385
474144 1 18117288162400609884
5265222 85 17255143640378193813
57527293 21 18266183841917386314
57527585 21 17416107387865288953
6287921 2 17914355484195941156
7399639 24 18202000988918446710
9925002 15 17487326286991974271

> <PUBCHEM_SHAPE_MULTIPOLES>
573.74
12.36
4.2
1.7
7.4
3.76
-0.17
-5.04
6.47
-0.63
-1.95
1.39
0.14
0.83

> <PUBCHEM_SHAPE_SELFOVERLAP>
1227.707

> <PUBCHEM_SHAPE_VOLUME>
320.5

> <PUBCHEM_COORDINATE_TYPE>
2
5
10

$$$$
