51138078
  -OEChem-12032416233D

 66 69  0     1  0  0  0  0  0999 V2000
   -1.8700    1.0571   -2.3814 O   0  0  0  0  0  0  0  0  0  0  0  0
   -3.8450    1.3609    2.1511 O   0  0  0  0  0  0  0  0  0  0  0  0
   -0.3270   -0.8432   -0.9589 N   0  0  0  0  0  0  0  0  0  0  0  0
    4.5077    0.6147   -0.8942 N   0  0  0  0  0  0  0  0  0  0  0  0
   -2.1544    1.8628   -0.2159 N   0  0  0  0  0  0  0  0  0  0  0  0
    0.3267   -1.6771    0.0586 C   0  0  2  0  0  0  0  0  0  0  0  0
    1.8515   -1.5557    0.1449 C   0  0  0  0  0  0  0  0  0  0  0  0
   -0.1965    0.5910   -0.7453 C   0  0  1  0  0  0  0  0  0  0  0  0
    2.6230   -0.4961   -0.4140 C   0  0  0  0  0  0  0  0  0  0  0  0
   -0.1339   -3.1112   -0.2587 C   0  0  0  0  0  0  0  0  0  0  0  0
    0.9500    1.1784   -1.5661 C   0  0  0  0  0  0  0  0  0  0  0  0
    2.2995    0.6945   -1.1526 C   0  0  0  0  0  0  0  0  0  0  0  0
   -1.5702   -3.3921    0.1937 C   0  0  0  0  0  0  0  0  0  0  0  0
    4.0133   -0.4958   -0.2520 C   0  0  0  0  0  0  0  0  0  0  0  0
    3.4868    1.3399   -1.4336 C   0  0  0  0  0  0  0  0  0  0  0  0
    2.5673   -2.5194    0.9000 C   0  0  0  0  0  0  0  0  0  0  0  0
   -1.4907    1.1782   -1.2196 C   0  0  0  0  0  0  0  0  0  0  0  0
    4.7049   -1.4799    0.4562 C   0  0  0  0  0  0  0  0  0  0  0  0
    3.9532   -2.4895    1.0432 C   0  0  0  0  0  0  0  0  0  0  0  0
   -1.9191   -4.8509   -0.1110 C   0  0  0  0  0  0  0  0  0  0  0  0
   -2.5895   -2.4670   -0.4728 C   0  0  0  0  0  0  0  0  0  0  0  0
    5.9037    0.9876   -0.9786 C   0  0  0  0  0  0  0  0  0  0  0  0
   -3.4146    2.5399   -0.4208 C   0  0  0  0  0  0  0  0  0  0  0  0
    6.3958    1.5674    0.2777 C   0  0  0  0  0  0  0  0  0  0  0  0
   -4.5858    1.6532   -0.1100 C   0  0  0  0  0  0  0  0  0  0  0  0
   -4.7468    1.1047    1.1622 C   0  0  0  0  0  0  0  0  0  0  0  0
   -5.5184    1.3799   -1.1106 C   0  0  0  0  0  0  0  0  0  0  0  0
    6.8005    2.0413    1.3043 C   0  0  0  0  0  0  0  0  0  0  0  0
   -5.8404    0.2827    1.4340 C   0  0  0  0  0  0  0  0  0  0  0  0
   -6.6121    0.5578   -0.8389 C   0  0  0  0  0  0  0  0  0  0  0  0
   -6.7732    0.0092    0.4334 C   0  0  0  0  0  0  0  0  0  0  0  0
    7.2915    2.6180    2.5549 C   0  0  0  0  0  0  0  0  0  0  0  0
   -4.0880    0.7587    3.4209 C   0  0  0  0  0  0  0  0  0  0  0  0
   -0.0584   -1.3997    1.0496 H   0  0  0  0  0  0  0  0  0  0  0  0
   -0.0501    0.8188    0.3182 H   0  0  0  0  0  0  0  0  0  0  0  0
    0.4946   -3.8610    0.2302 H   0  0  0  0  0  0  0  0  0  0  0  0
   -0.0222   -3.3220   -1.3327 H   0  0  0  0  0  0  0  0  0  0  0  0
    0.8163    0.9614   -2.6351 H   0  0  0  0  0  0  0  0  0  0  0  0
    0.9232    2.2734   -1.4785 H   0  0  0  0  0  0  0  0  0  0  0  0
   -0.0219   -1.1056   -1.8954 H   0  0  0  0  0  0  0  0  0  0  0  0
   -1.6387   -3.2542    1.2803 H   0  0  0  0  0  0  0  0  0  0  0  0
    3.6746    2.2604   -1.9709 H   0  0  0  0  0  0  0  0  0  0  0  0
    2.0405   -3.3101    1.4292 H   0  0  0  0  0  0  0  0  0  0  0  0
    5.7832   -1.4591    0.5710 H   0  0  0  0  0  0  0  0  0  0  0  0
    4.4500   -3.2582    1.6292 H   0  0  0  0  0  0  0  0  0  0  0  0
   -1.8835   -5.0525   -1.1872 H   0  0  0  0  0  0  0  0  0  0  0  0
   -2.9262   -5.0931    0.2450 H   0  0  0  0  0  0  0  0  0  0  0  0
   -1.2209   -5.5329    0.3859 H   0  0  0  0  0  0  0  0  0  0  0  0
   -2.4533   -2.4181   -1.5581 H   0  0  0  0  0  0  0  0  0  0  0  0
   -2.5640   -1.4600   -0.0477 H   0  0  0  0  0  0  0  0  0  0  0  0
   -3.6074   -2.8338   -0.2935 H   0  0  0  0  0  0  0  0  0  0  0  0
    6.0155    1.7045   -1.7999 H   0  0  0  0  0  0  0  0  0  0  0  0
    6.4730    0.0933   -1.2544 H   0  0  0  0  0  0  0  0  0  0  0  0
   -1.7611    1.8921    0.7199 H   0  0  0  0  0  0  0  0  0  0  0  0
   -3.4327    3.4181    0.2345 H   0  0  0  0  0  0  0  0  0  0  0  0
   -3.4544    2.9036   -1.4539 H   0  0  0  0  0  0  0  0  0  0  0  0
   -5.4068    1.7985   -2.1072 H   0  0  0  0  0  0  0  0  0  0  0  0
   -6.0308   -0.1787    2.3967 H   0  0  0  0  0  0  0  0  0  0  0  0
   -7.3380    0.3444   -1.6180 H   0  0  0  0  0  0  0  0  0  0  0  0
   -7.6250   -0.6311    0.6437 H   0  0  0  0  0  0  0  0  0  0  0  0
    7.2734    1.8761    3.3590 H   0  0  0  0  0  0  0  0  0  0  0  0
    6.6723    3.4663    2.8619 H   0  0  0  0  0  0  0  0  0  0  0  0
    8.3207    2.9720    2.4428 H   0  0  0  0  0  0  0  0  0  0  0  0
   -3.2745    1.0694    4.0848 H   0  0  0  0  0  0  0  0  0  0  0  0
   -4.0496   -0.3345    3.3630 H   0  0  0  0  0  0  0  0  0  0  0  0
   -5.0192    1.1216    3.8690 H   0  0  0  0  0  0  0  0  0  0  0  0
  1 17  2  0  0  0  0
  2 26  1  0  0  0  0
  2 33  1  0  0  0  0
  3  6  1  0  0  0  0
  3  8  1  0  0  0  0
  3 40  1  0  0  0  0
  4 14  1  0  0  0  0
  4 15  1  0  0  0  0
  4 22  1  0  0  0  0
  5 17  1  0  0  0  0
  5 23  1  0  0  0  0
  5 54  1  0  0  0  0
  6  7  1  0  0  0  0
  6 10  1  0  0  0  0
  6 34  1  0  0  0  0
  7  9  2  0  0  0  0
  7 16  1  0  0  0  0
  8 11  1  0  0  0  0
  8 17  1  0  0  0  0
  8 35  1  0  0  0  0
  9 12  1  0  0  0  0
  9 14  1  0  0  0  0
 10 13  1  0  0  0  0
 10 36  1  0  0  0  0
 10 37  1  0  0  0  0
 11 12  1  0  0  0  0
 11 38  1  0  0  0  0
 11 39  1  0  0  0  0
 12 15  2  0  0  0  0
 13 20  1  0  0  0  0
 13 21  1  0  0  0  0
 13 41  1  0  0  0  0
 14 18  2  0  0  0  0
 15 42  1  0  0  0  0
 16 19  2  0  0  0  0
 16 43  1  0  0  0  0
 18 19  1  0  0  0  0
 18 44  1  0  0  0  0
 19 45  1  0  0  0  0
 20 46  1  0  0  0  0
 20 47  1  0  0  0  0
 20 48  1  0  0  0  0
 21 49  1  0  0  0  0
 21 50  1  0  0  0  0
 21 51  1  0  0  0  0
 22 24  1  0  0  0  0
 22 52  1  0  0  0  0
 22 53  1  0  0  0  0
 23 25  1  0  0  0  0
 23 55  1  0  0  0  0
 23 56  1  0  0  0  0
 24 28  3  0  0  0  0
 25 26  1  0  0  0  0
 25 27  2  0  0  0  0
 26 29  2  0  0  0  0
 27 30  1  0  0  0  0
 27 57  1  0  0  0  0
 28 32  1  0  0  0  0
 29 31  1  0  0  0  0
 29 58  1  0  0  0  0
 30 31  2  0  0  0  0
 30 59  1  0  0  0  0
 31 60  1  0  0  0  0
 32 61  1  0  0  0  0
 32 62  1  0  0  0  0
 32 63  1  0  0  0  0
 33 64  1  0  0  0  0
 33 65  1  0  0  0  0
 33 66  1  0  0  0  0
M  END
> <PUBCHEM_COMPOUND_CID>
51138078

> <PUBCHEM_CONFORMER_RMSD>
1.4

> <PUBCHEM_CONFORMER_DIVERSEORDER>
1
53
18
58
61
81
28
65
84
11
97
93
23
40
68
69
77
42
47
90
14
75
49
43
72
98
70
9
87
3
15
56
10
66
54
51
63
60
24
32
71
88
29
33
95
64
16
76
73
82
52
5
30
17
59
37
20
2
96
25
48
85
39
74
62
22
35
41
55
4
34
94
26
12
38
78
19
83
8
27
92
67
50
13
6
31
89
46
80
7
79
57
21
36
86
91
45
44

> <PUBCHEM_MMFF94_PARTIAL_CHARGES>
38
1 -0.57
11 0.18
12 -0.18
14 -0.15
15 -0.3
16 -0.15
17 0.57
18 -0.15
19 -0.15
2 -0.36
22 0.46
23 0.44
24 -0.2
25 -0.14
26 0.08
27 -0.15
28 -0.2
29 -0.15
3 -0.9
30 -0.15
31 -0.15
32 0.2
33 0.28
4 0.05
40 0.36
42 0.15
43 0.15
44 0.15
45 0.15
5 -0.73
54 0.37
57 0.15
58 0.15
59 0.15
6 0.41
60 0.15
7 -0.14
8 0.33

> <PUBCHEM_EFFECTIVE_ROTOR_COUNT>
8.8

> <PUBCHEM_PHARMACOPHORE_FEATURES>
12
1 1 acceptor
1 2 acceptor
1 3 cation
1 3 donor
1 32 hydrophobe
1 4 cation
1 5 donor
3 13 20 21 hydrophobe
5 4 9 12 14 15 rings
6 25 26 27 29 30 31 rings
6 7 9 14 16 18 19 rings
7 3 6 7 8 9 11 12 rings

> <PUBCHEM_HEAVY_ATOM_COUNT>
33

> <PUBCHEM_ATOM_DEF_STEREO_COUNT>
2

> <PUBCHEM_ATOM_UDEF_STEREO_COUNT>
0

> <PUBCHEM_BOND_DEF_STEREO_COUNT>
0

> <PUBCHEM_BOND_UDEF_STEREO_COUNT>
0

> <PUBCHEM_ISOTOPIC_ATOM_COUNT>
0

> <PUBCHEM_COMPONENT_COUNT>
1

> <PUBCHEM_CACTVS_TAUTO_COUNT>
2

> <PUBCHEM_CONFORMER_ID>
030C4E1E00000001

> <PUBCHEM_MMFF94_ENERGY>
81.6817

> <PUBCHEM_FEATURE_SELFOVERLAP>
61.026

> <PUBCHEM_SHAPE_FINGERPRINT>
10 15 17822010939201997748
10074138 170 18188488119861858314
10319688 67 18339912818553012656
10554248 39 15553906450571607516
11007060 377 18272366486353691301
11135609 201 18130777997721078512
11136131 41 18114455661059376611
11578080 2 18129369549206484266
12202916 173 17603304852575256107
12422481 6 18040160595355071798
12596602 18 18060143098319630569
12838862 33 18335691759692487237
13540713 5 17679870585747018404
13782708 43 12396288280067969608
14394314 77 18411985741931074025
14461889 52 17894347765969108848
16112460 7 18409448064070835810
17913733 40 18409732841972173776
19438510 23 17632004356502156768
20028762 73 18268707221647263191
20511986 3 18408316692285993923
23572383 38 17241060829229133585
255183 313 18260542359498270238
354706 109 17823122459347070393
4340502 62 18409728457174691476
4403749 210 18334005095475062149
4616759 239 18197201762634294650
5104073 3 18115870685342655841

> <PUBCHEM_SHAPE_MULTIPOLES>
652.44
17.56
4.07
2.05
4.92
5.09
-1.47
-13.76
-7.43
0.26
-0.58
-0.54
-1.49
0.7

> <PUBCHEM_SHAPE_SELFOVERLAP>
1392.584

> <PUBCHEM_SHAPE_VOLUME>
361.6

> <PUBCHEM_COORDINATE_TYPE>
2
5
10

$$$$
