75536954
  -OEChem-12032416343D

 33 34  0     1  0  0  0  0  0999 V2000
   -3.9334   -0.1872   -0.4647 O   0  0  0  0  0  0  0  0  0  0  0  0
    3.1263    1.3151   -0.1646 O   0  0  0  0  0  0  0  0  0  0  0  0
    3.0223   -2.2754    0.0687 O   0  0  0  0  0  0  0  0  0  0  0  0
    0.2231    0.1896    0.0119 N   0  0  2  0  0  0  0  0  0  0  0  0
   -1.1851    0.0141    0.3690 C   0  0  0  0  0  0  0  0  0  0  0  0
   -2.0016    1.2334   -0.0688 C   0  0  0  0  0  0  0  0  0  0  0  0
   -1.7601   -1.2567   -0.2644 C   0  0  0  0  0  0  0  0  0  0  0  0
    0.9643   -1.0523    0.2580 C   0  0  0  0  0  0  0  0  0  0  0  0
    0.7960    1.3723    0.6562 C   0  0  0  0  0  0  0  0  0  0  0  0
    2.4977   -0.9713    0.3226 C   0  0  2  0  0  0  0  0  0  0  0  0
   -3.4855    0.9990    0.1914 C   0  0  0  0  0  0  0  0  0  0  0  0
   -3.2575   -1.3530    0.0067 C   0  0  0  0  0  0  0  0  0  0  0  0
    1.8746    1.9833   -0.2393 C   0  0  0  0  0  0  0  0  0  0  0  0
    3.1189   -0.0110   -0.6826 C   0  0  0  0  0  0  0  0  0  0  0  0
   -1.2753   -0.0828    1.4612 H   0  0  0  0  0  0  0  0  0  0  0  0
   -1.8534    1.4067   -1.1429 H   0  0  0  0  0  0  0  0  0  0  0  0
   -1.7506    2.1571    0.4555 H   0  0  0  0  0  0  0  0  0  0  0  0
   -1.3033   -2.1710    0.1280 H   0  0  0  0  0  0  0  0  0  0  0  0
   -1.6000   -1.2333   -1.3505 H   0  0  0  0  0  0  0  0  0  0  0  0
    0.7254   -1.7646   -0.5426 H   0  0  0  0  0  0  0  0  0  0  0  0
    0.6427   -1.5226    1.1985 H   0  0  0  0  0  0  0  0  0  0  0  0
    1.2001    1.1203    1.6450 H   0  0  0  0  0  0  0  0  0  0  0  0
    0.0865    2.1788    0.8319 H   0  0  0  0  0  0  0  0  0  0  0  0
    2.8058   -0.6831    1.3352 H   0  0  0  0  0  0  0  0  0  0  0  0
   -3.6970    0.9244    1.2646 H   0  0  0  0  0  0  0  0  0  0  0  0
   -4.0699    1.8366   -0.2031 H   0  0  0  0  0  0  0  0  0  0  0  0
   -3.6766   -2.2161   -0.5205 H   0  0  0  0  0  0  0  0  0  0  0  0
   -3.4627   -1.4864    1.0754 H   0  0  0  0  0  0  0  0  0  0  0  0
    1.5484    2.0555   -1.2844 H   0  0  0  0  0  0  0  0  0  0  0  0
    2.0607    3.0098    0.0968 H   0  0  0  0  0  0  0  0  0  0  0  0
    4.1666   -0.2858   -0.8511 H   0  0  0  0  0  0  0  0  0  0  0  0
    2.6304   -0.0522   -1.6639 H   0  0  0  0  0  0  0  0  0  0  0  0
    2.6508   -2.8755    0.7377 H   0  0  0  0  0  0  0  0  0  0  0  0
  1 11  1  0  0  0  0
  1 12  1  0  0  0  0
  2 13  1  0  0  0  0
  2 14  1  0  0  0  0
  3 10  1  0  0  0  0
  3 33  1  0  0  0  0
  4  5  1  0  0  0  0
  4  8  1  0  0  0  0
  4  9  1  0  0  0  0
  5  6  1  0  0  0  0
  5  7  1  0  0  0  0
  5 15  1  0  0  0  0
  6 11  1  0  0  0  0
  6 16  1  0  0  0  0
  6 17  1  0  0  0  0
  7 12  1  0  0  0  0
  7 18  1  0  0  0  0
  7 19  1  0  0  0  0
  8 10  1  0  0  0  0
  8 20  1  0  0  0  0
  8 21  1  0  0  0  0
  9 13  1  0  0  0  0
  9 22  1  0  0  0  0
  9 23  1  0  0  0  0
 10 14  1  0  0  0  0
 10 24  1  0  0  0  0
 11 25  1  0  0  0  0
 11 26  1  0  0  0  0
 12 27  1  0  0  0  0
 12 28  1  0  0  0  0
 13 29  1  0  0  0  0
 13 30  1  0  0  0  0
 14 31  1  0  0  0  0
 14 32  1  0  0  0  0
M  END
> <PUBCHEM_COMPOUND_CID>
75536954

> <PUBCHEM_CONFORMER_RMSD>
0.6

> <PUBCHEM_CONFORMER_DIVERSEORDER>
1
22
23
7
5
4
27
19
21
14
9
17
16
3
12
11
13
6
18
15
2
20
24
8
26
10
25

> <PUBCHEM_MMFF94_PARTIAL_CHARGES>
13
1 -0.56
10 0.28
11 0.28
12 0.28
13 0.28
14 0.28
2 -0.56
3 -0.68
33 0.4
4 -0.81
5 0.27
8 0.27
9 0.27

> <PUBCHEM_EFFECTIVE_ROTOR_COUNT>
3.6

> <PUBCHEM_PHARMACOPHORE_FEATURES>
7
1 1 acceptor
1 2 acceptor
1 3 acceptor
1 3 donor
1 4 cation
6 1 5 6 7 11 12 rings
7 2 4 8 9 10 13 14 rings

> <PUBCHEM_HEAVY_ATOM_COUNT>
14

> <PUBCHEM_ATOM_DEF_STEREO_COUNT>
1

> <PUBCHEM_ATOM_UDEF_STEREO_COUNT>
0

> <PUBCHEM_BOND_DEF_STEREO_COUNT>
0

> <PUBCHEM_BOND_UDEF_STEREO_COUNT>
0

> <PUBCHEM_ISOTOPIC_ATOM_COUNT>
0

> <PUBCHEM_COMPONENT_COUNT>
1

> <PUBCHEM_CACTVS_TAUTO_COUNT>
1

> <PUBCHEM_CONFORMER_ID>
04809A3A00000001

> <PUBCHEM_MMFF94_ENERGY>
37.7355

> <PUBCHEM_FEATURE_SELFOVERLAP>
35.522

> <PUBCHEM_SHAPE_FINGERPRINT>
10130415 120 18339357453253184682
10465860 71 18200048256472517294
10608611 8 18409163337798652685
10980938 120 18410294726705003824
11471102 20 18409444795326092140
11769659 78 18413665807749092231
12932764 1 18408895031038372433
13380535 21 18336835276753103611
13380535 76 18262234551033000786
14144814 61 18411982459757635433
14251717 144 18409444795410663478
14325111 11 18410856577067792993
15375462 6 18337110171760919005
15442244 35 18267586810164506368
15536298 74 18342738524776169296
15775835 57 18409736178818851869
16945 1 18266740366615465584
17834074 16 18410295856191770843
18186145 218 17676205745312623819
18619055 16 18413105056776637491
19422 9 18412827967104103811
20201158 50 18409450297311164522
20281475 54 18342738529140013739
20559304 39 18412542111302819402
20645477 70 18411133628333950399
21267235 1 18411709776431663235
21501502 16 18411982464158169089
21501925 9 18338786854210974522
221490 88 18335993046535948898
2255824 54 18113058225225270858
23402655 69 18410572873055991877
23463225 33 18340486677311798343
23552423 10 18337109063485166209
23559900 14 18342170017240757010
2748010 2 18338794627964590977
5104073 3 18410856560009049193
57096353 35 18267303308153039053
58051976 378 18268145533859448548
7364860 26 18342172293436156912
74978 22 18411699885300984395
93112 12 18410293622782292839
9709674 26 18409453625826949011
9939556 21 18412544301630586751

> <PUBCHEM_SHAPE_MULTIPOLES>
265.52
6.55
2.04
0.71
2.22
0.11
0.01
0.71
-0.77
-1
0.04
-0.08
-0.04
-0.26

> <PUBCHEM_SHAPE_SELFOVERLAP>
530.972

> <PUBCHEM_SHAPE_VOLUME>
153.8

> <PUBCHEM_COORDINATE_TYPE>
2
5
10

$$$$
