9424537
  -OEChem-12032416283D

 51 55  0     1  0  0  0  0  0999 V2000
    1.2075   -1.5451   -0.6400 F   0  0  0  0  0  0  0  0  0  0  0  0
    5.2063   -0.5262   -1.5588 F   0  0  0  0  0  0  0  0  0  0  0  0
   -3.3374    2.0383   -2.5488 O   0  0  0  0  0  0  0  0  0  0  0  0
    0.1243    2.1304    1.0382 N   0  0  2  0  0  0  0  0  0  0  0  0
   -2.4094    1.1251   -0.6022 N   0  0  0  0  0  0  0  0  0  0  0  0
   -2.2941    2.4544    1.5893 C   0  0  1  0  0  0  0  0  0  0  0  0
   -1.3829    0.1852    1.4896 C   0  0  2  0  0  0  0  0  0  0  0  0
   -2.3572    1.0853    2.2454 C   0  0  0  0  0  0  0  0  0  0  0  0
   -0.8610    3.0191    1.6644 C   0  0  0  0  0  0  0  0  0  0  0  0
    0.0450    0.7723    1.5941 C   0  0  0  0  0  0  0  0  0  0  0  0
   -2.7980    2.3268    0.1498 C   0  0  0  0  0  0  0  0  0  0  0  0
   -1.7983    0.0212    0.0248 C   0  0  0  0  0  0  0  0  0  0  0  0
    1.4751    2.6712    1.1692 C   0  0  0  0  0  0  0  0  0  0  0  0
   -1.5845   -1.1225   -0.6764 C   0  0  0  0  0  0  0  0  0  0  0  0
   -2.7886    1.1090   -1.9561 C   0  0  0  0  0  0  0  0  0  0  0  0
   -1.9582   -1.1747   -2.0770 C   0  0  0  0  0  0  0  0  0  0  0  0
   -2.5125   -0.1379   -2.7049 C   0  0  0  0  0  0  0  0  0  0  0  0
    2.4741    1.8150    0.4397 C   0  0  0  0  0  0  0  0  0  0  0  0
   -0.9652   -2.3130   -0.0543 C   0  0  0  0  0  0  0  0  0  0  0  0
    3.0953    0.7680    1.1067 C   0  0  0  0  0  0  0  0  0  0  0  0
    2.7613    2.0840   -0.8916 C   0  0  0  0  0  0  0  0  0  0  0  0
    0.4180   -2.4656   -0.0675 C   0  0  0  0  0  0  0  0  0  0  0  0
   -1.7752   -3.2749    0.5422 C   0  0  0  0  0  0  0  0  0  0  0  0
    4.0214   -0.0254    0.4295 C   0  0  0  0  0  0  0  0  0  0  0  0
    3.6874    1.2907   -1.5688 C   0  0  0  0  0  0  0  0  0  0  0  0
    0.9965   -3.5902    0.5209 C   0  0  0  0  0  0  0  0  0  0  0  0
   -1.1966   -4.3995    1.1307 C   0  0  0  0  0  0  0  0  0  0  0  0
    4.3176    0.2361   -0.9083 C   0  0  0  0  0  0  0  0  0  0  0  0
    0.1892   -4.5571    1.1200 C   0  0  0  0  0  0  0  0  0  0  0  0
   -2.9514    3.1497    2.1262 H   0  0  0  0  0  0  0  0  0  0  0  0
   -1.3907   -0.7830    2.0032 H   0  0  0  0  0  0  0  0  0  0  0  0
   -3.3759    0.6793    2.2101 H   0  0  0  0  0  0  0  0  0  0  0  0
   -2.0746    1.1538    3.3031 H   0  0  0  0  0  0  0  0  0  0  0  0
   -0.8421    3.9967    1.1666 H   0  0  0  0  0  0  0  0  0  0  0  0
   -0.6043    3.1919    2.7184 H   0  0  0  0  0  0  0  0  0  0  0  0
    0.3533    0.7668    2.6487 H   0  0  0  0  0  0  0  0  0  0  0  0
    0.6953    0.0834    1.0574 H   0  0  0  0  0  0  0  0  0  0  0  0
   -3.8969    2.3193    0.1667 H   0  0  0  0  0  0  0  0  0  0  0  0
   -2.5148    3.2116   -0.4345 H   0  0  0  0  0  0  0  0  0  0  0  0
    1.7696    2.7694    2.2233 H   0  0  0  0  0  0  0  0  0  0  0  0
    1.5153    3.6868    0.7531 H   0  0  0  0  0  0  0  0  0  0  0  0
   -1.7649   -2.0912   -2.6268 H   0  0  0  0  0  0  0  0  0  0  0  0
   -2.7840   -0.1842   -3.7528 H   0  0  0  0  0  0  0  0  0  0  0  0
    2.8878    0.5607    2.1527 H   0  0  0  0  0  0  0  0  0  0  0  0
    2.2746    2.9010   -1.4167 H   0  0  0  0  0  0  0  0  0  0  0  0
   -2.8567   -3.1653    0.5590 H   0  0  0  0  0  0  0  0  0  0  0  0
    4.5137   -0.8453    0.9440 H   0  0  0  0  0  0  0  0  0  0  0  0
    3.9174    1.4932   -2.6107 H   0  0  0  0  0  0  0  0  0  0  0  0
    2.0757   -3.7121    0.5128 H   0  0  0  0  0  0  0  0  0  0  0  0
   -1.8251   -5.1522    1.5977 H   0  0  0  0  0  0  0  0  0  0  0  0
    0.6398   -5.4325    1.5785 H   0  0  0  0  0  0  0  0  0  0  0  0
  1 22  1  0  0  0  0
  2 28  1  0  0  0  0
  3 15  2  0  0  0  0
  4  9  1  0  0  0  0
  4 10  1  0  0  0  0
  4 13  1  0  0  0  0
  5 11  1  0  0  0  0
  5 12  1  0  0  0  0
  5 15  1  0  0  0  0
  6  8  1  0  0  0  0
  6  9  1  0  0  0  0
  6 11  1  0  0  0  0
  6 30  1  0  0  0  0
  7  8  1  0  0  0  0
  7 10  1  0  0  0  0
  7 12  1  0  0  0  0
  7 31  1  0  0  0  0
  8 32  1  0  0  0  0
  8 33  1  0  0  0  0
  9 34  1  0  0  0  0
  9 35  1  0  0  0  0
 10 36  1  0  0  0  0
 10 37  1  0  0  0  0
 11 38  1  0  0  0  0
 11 39  1  0  0  0  0
 12 14  2  0  0  0  0
 13 18  1  0  0  0  0
 13 40  1  0  0  0  0
 13 41  1  0  0  0  0
 14 16  1  0  0  0  0
 14 19  1  0  0  0  0
 15 17  1  0  0  0  0
 16 17  2  0  0  0  0
 16 42  1  0  0  0  0
 17 43  1  0  0  0  0
 18 20  2  0  0  0  0
 18 21  1  0  0  0  0
 19 22  1  0  0  0  0
 19 23  2  0  0  0  0
 20 24  1  0  0  0  0
 20 44  1  0  0  0  0
 21 25  2  0  0  0  0
 21 45  1  0  0  0  0
 22 26  2  0  0  0  0
 23 27  1  0  0  0  0
 23 46  1  0  0  0  0
 24 28  2  0  0  0  0
 24 47  1  0  0  0  0
 25 28  1  0  0  0  0
 25 48  1  0  0  0  0
 26 29  1  0  0  0  0
 26 49  1  0  0  0  0
 27 29  2  0  0  0  0
 27 50  1  0  0  0  0
 29 51  1  0  0  0  0
M  END
> <PUBCHEM_COMPOUND_CID>
9424537

> <PUBCHEM_CONFORMER_RMSD>
0.8

> <PUBCHEM_CONFORMER_DIVERSEORDER>
1
5
4
2
6
3

> <PUBCHEM_MMFF94_PARTIAL_CHARGES>
37
1 -0.19
10 0.27
11 0.3
12 -0.03
13 0.41
14 -0.03
15 0.62
16 -0.15
17 -0.14
18 -0.14
19 0.03
2 -0.19
20 -0.15
21 -0.15
22 0.19
23 -0.15
24 -0.15
25 -0.15
26 -0.15
27 -0.15
28 0.19
29 -0.15
3 -0.57
4 -0.81
42 0.15
43 0.15
44 0.15
45 0.15
46 0.15
47 0.15
48 0.15
49 0.15
5 -0.47
50 0.15
51 0.15
7 0.14
9 0.27

> <PUBCHEM_EFFECTIVE_ROTOR_COUNT>
4

> <PUBCHEM_PHARMACOPHORE_FEATURES>
7
1 3 acceptor
1 4 cation
6 18 20 21 24 25 28 rings
6 19 22 23 26 27 29 rings
6 4 6 7 8 9 10 rings
6 5 12 14 15 16 17 rings
6 5 6 7 8 11 12 rings

> <PUBCHEM_HEAVY_ATOM_COUNT>
29

> <PUBCHEM_ATOM_DEF_STEREO_COUNT>
2

> <PUBCHEM_ATOM_UDEF_STEREO_COUNT>
0

> <PUBCHEM_BOND_DEF_STEREO_COUNT>
0

> <PUBCHEM_BOND_UDEF_STEREO_COUNT>
0

> <PUBCHEM_ISOTOPIC_ATOM_COUNT>
0

> <PUBCHEM_COMPONENT_COUNT>
1

> <PUBCHEM_CACTVS_TAUTO_COUNT>
1

> <PUBCHEM_CONFORMER_ID>
008FCE9900000001

> <PUBCHEM_MMFF94_ENERGY>
81.9472

> <PUBCHEM_FEATURE_SELFOVERLAP>
37.073

> <PUBCHEM_SHAPE_FINGERPRINT>
10190108 129 18409732898671580469
10675989 125 18127100057953839321
10764073 3 17840626783324744011
107951 10 17910434690092478612
10871710 139 17188123497253466618
11578080 2 17390250130387064173
11582403 64 13506974858333143555
12035759 4 17986373530269836117
12156800 1 10502372847834425524
12553582 1 17481148229549111376
133893 2 17905883682869003449
17899979 19 17467893191912458018
17974551 9 17124259936491139419
1813 80 16670484959215515515
20600515 1 17470194881522980070
20775530 9 17616822471238108222
21285901 2 17258181573650984199
21330990 113 18191024702357145115
22907989 373 18118406373882891388
23419403 2 13628879555087797307
26353 1 16959569630010223311
2818148 4 17691441858638435960
35225 105 17983610586197605893
469060 322 17176878194888306472
513532 50 16122684936380367205
57527585 103 18267866275281405210
9925002 15 17266627605284499369

> <PUBCHEM_SHAPE_MULTIPOLES>
566.43
6.3
5.21
2.37
9
5.39
1.03
-1.51
3.33
-3.06
-2.58
-1.55
-1.2
0.76

> <PUBCHEM_SHAPE_SELFOVERLAP>
1257.102

> <PUBCHEM_SHAPE_VOLUME>
301.6

> <PUBCHEM_COORDINATE_TYPE>
2
5
10

$$$$
