11883105
  -OEChem-12032416123D

 66 70  0     1  0  0  0  0  0999 V2000
   -0.1909    3.1650   -0.1273 S   0  0  0  0  0  0  0  0  0  0  0  0
    4.2611   -3.4010    1.4780 S   0  0  0  0  0  0  0  0  0  0  0  0
   -6.9553   -0.7978   -0.5333 O   0  0  0  0  0  0  0  0  0  0  0  0
   -6.9960    1.1684    0.8365 O   0  0  0  0  0  0  0  0  0  0  0  0
    0.7349   -2.3518   -1.3815 O   0  0  0  0  0  0  0  0  0  0  0  0
    3.7768    0.7570   -0.3502 O   0  0  0  0  0  0  0  0  0  0  0  0
    0.8337    0.7901   -0.1801 N   0  0  0  0  0  0  0  0  0  0  0  0
    2.3744    2.6414   -0.2717 N   0  0  0  0  0  0  0  0  0  0  0  0
    1.8850   -2.5823    0.6592 N   0  0  0  0  0  0  0  0  0  0  0  0
    3.4958   -3.3628   -0.9909 N   0  0  0  0  0  0  0  0  0  0  0  0
   -2.7070   -0.6102    0.4285 C   0  0  2  0  0  0  0  0  0  0  0  0
   -3.4023    0.5967   -0.3432 C   0  0  1  0  0  0  0  0  0  0  0  0
   -4.9790    0.6413   -0.3299 C   0  0  1  0  0  0  0  0  0  0  0  0
   -1.1927   -0.7084   -0.0721 C   0  0  1  0  0  0  0  0  0  0  0  0
   -3.4275   -1.9356    0.0692 C   0  0  0  0  0  0  0  0  0  0  0  0
   -5.5343   -0.7724   -0.6636 C   0  0  1  0  0  0  0  0  0  0  0  0
   -2.7336    1.9574    0.0088 C   0  0  0  0  0  0  0  0  0  0  0  0
   -4.9418   -1.8723    0.2102 C   0  0  0  0  0  0  0  0  0  0  0  0
   -2.7303   -0.4332    1.9669 C   0  0  0  0  0  0  0  0  0  0  0  0
   -0.5389    0.6493   -0.0908 C   0  0  0  0  0  0  0  0  0  0  0  0
   -5.5936    1.1792    0.9812 C   0  0  0  0  0  0  0  0  0  0  0  0
   -5.4682    1.6059   -1.4472 C   0  0  0  0  0  0  0  0  0  0  0  0
   -1.2496    1.8322   -0.0721 C   0  0  0  0  0  0  0  0  0  0  0  0
   -0.3364   -1.7340    0.6829 C   0  0  0  0  0  0  0  0  0  0  0  0
    0.8093   -2.2563   -0.1612 C   0  0  0  0  0  0  0  0  0  0  0  0
    1.1312    2.0712   -0.1991 C   0  0  0  0  0  0  0  0  0  0  0  0
    4.8146    2.9452   -0.4076 C   0  0  0  0  0  0  0  0  0  0  0  0
    3.6131    1.9798   -0.3424 C   0  0  0  0  0  0  0  0  0  0  0  0
    5.1304    3.7728    0.8558 C   0  0  0  0  0  0  0  0  0  0  0  0
    6.2241    2.3340   -0.2666 C   0  0  0  0  0  0  0  0  0  0  0  0
    6.6217    3.6182    0.4908 C   0  0  0  0  0  0  0  0  0  0  0  0
    3.1153   -3.0932    0.2382 C   0  0  0  0  0  0  0  0  0  0  0  0
    5.3683   -3.9439    0.2861 C   0  0  0  0  0  0  0  0  0  0  0  0
    4.7878   -3.8500   -0.9614 C   0  0  0  0  0  0  0  0  0  0  0  0
   -3.1497    0.4139   -1.4023 H   0  0  0  0  0  0  0  0  0  0  0  0
   -1.2476   -1.0067   -1.1294 H   0  0  0  0  0  0  0  0  0  0  0  0
   -3.1927   -2.2117   -0.9674 H   0  0  0  0  0  0  0  0  0  0  0  0
   -3.0632   -2.7587    0.6942 H   0  0  0  0  0  0  0  0  0  0  0  0
   -5.3105   -1.0041   -1.7134 H   0  0  0  0  0  0  0  0  0  0  0  0
   -3.0101    2.2800    1.0181 H   0  0  0  0  0  0  0  0  0  0  0  0
   -3.0676    2.7328   -0.6885 H   0  0  0  0  0  0  0  0  0  0  0  0
   -5.3704   -2.8388   -0.0849 H   0  0  0  0  0  0  0  0  0  0  0  0
   -5.2394   -1.7396    1.2562 H   0  0  0  0  0  0  0  0  0  0  0  0
   -2.2241   -1.2652    2.4687 H   0  0  0  0  0  0  0  0  0  0  0  0
   -3.7370   -0.4246    2.3792 H   0  0  0  0  0  0  0  0  0  0  0  0
   -2.2299    0.4832    2.2920 H   0  0  0  0  0  0  0  0  0  0  0  0
   -5.3567    0.5651    1.8462 H   0  0  0  0  0  0  0  0  0  0  0  0
   -5.2783    2.2065    1.1872 H   0  0  0  0  0  0  0  0  0  0  0  0
   -5.0004    1.3622   -2.4082 H   0  0  0  0  0  0  0  0  0  0  0  0
   -5.2296    2.6497   -1.2180 H   0  0  0  0  0  0  0  0  0  0  0  0
   -6.5517    1.5510   -1.6017 H   0  0  0  0  0  0  0  0  0  0  0  0
    0.0404   -1.2984    1.6168 H   0  0  0  0  0  0  0  0  0  0  0  0
   -0.9177   -2.6219    0.9512 H   0  0  0  0  0  0  0  0  0  0  0  0
   -7.2597   -1.6833   -0.7956 H   0  0  0  0  0  0  0  0  0  0  0  0
   -7.3752    1.5173    1.6611 H   0  0  0  0  0  0  0  0  0  0  0  0
    2.3813    3.6581   -0.2735 H   0  0  0  0  0  0  0  0  0  0  0  0
    1.8046   -2.4567    1.6649 H   0  0  0  0  0  0  0  0  0  0  0  0
    4.7479    3.5814   -1.3039 H   0  0  0  0  0  0  0  0  0  0  0  0
    4.7525    4.7985    0.8598 H   0  0  0  0  0  0  0  0  0  0  0  0
    4.8526    3.2862    1.7981 H   0  0  0  0  0  0  0  0  0  0  0  0
    6.2769    1.4299    0.3513 H   0  0  0  0  0  0  0  0  0  0  0  0
    6.7613    2.1564   -1.2019 H   0  0  0  0  0  0  0  0  0  0  0  0
    7.0028    4.4146   -0.1586 H   0  0  0  0  0  0  0  0  0  0  0  0
    7.3063    3.4830    1.3316 H   0  0  0  0  0  0  0  0  0  0  0  0
    6.3575   -4.2931    0.5453 H   0  0  0  0  0  0  0  0  0  0  0  0
    5.2681   -4.1267   -1.8902 H   0  0  0  0  0  0  0  0  0  0  0  0
  1 23  1  0  0  0  0
  1 26  1  0  0  0  0
  2 32  1  0  0  0  0
  2 33  1  0  0  0  0
  3 16  1  0  0  0  0
  3 54  1  0  0  0  0
  4 21  1  0  0  0  0
  4 55  1  0  0  0  0
  5 25  2  0  0  0  0
  6 28  2  0  0  0  0
  7 20  1  0  0  0  0
  7 26  2  0  0  0  0
  8 26  1  0  0  0  0
  8 28  1  0  0  0  0
  8 56  1  0  0  0  0
  9 25  1  0  0  0  0
  9 32  1  0  0  0  0
  9 57  1  0  0  0  0
 10 32  2  0  0  0  0
 10 34  1  0  0  0  0
 11 12  1  0  0  0  0
 11 14  1  0  0  0  0
 11 15  1  0  0  0  0
 11 19  1  0  0  0  0
 12 13  1  0  0  0  0
 12 17  1  0  0  0  0
 12 35  1  0  0  0  0
 13 16  1  0  0  0  0
 13 21  1  0  0  0  0
 13 22  1  0  0  0  0
 14 20  1  0  0  0  0
 14 24  1  0  0  0  0
 14 36  1  0  0  0  0
 15 18  1  0  0  0  0
 15 37  1  0  0  0  0
 15 38  1  0  0  0  0
 16 18  1  0  0  0  0
 16 39  1  0  0  0  0
 17 23  1  0  0  0  0
 17 40  1  0  0  0  0
 17 41  1  0  0  0  0
 18 42  1  0  0  0  0
 18 43  1  0  0  0  0
 19 44  1  0  0  0  0
 19 45  1  0  0  0  0
 19 46  1  0  0  0  0
 20 23  2  0  0  0  0
 21 47  1  0  0  0  0
 21 48  1  0  0  0  0
 22 49  1  0  0  0  0
 22 50  1  0  0  0  0
 22 51  1  0  0  0  0
 24 25  1  0  0  0  0
 24 52  1  0  0  0  0
 24 53  1  0  0  0  0
 27 28  1  0  0  0  0
 27 29  1  0  0  0  0
 27 30  1  0  0  0  0
 27 58  1  0  0  0  0
 29 31  1  0  0  0  0
 29 59  1  0  0  0  0
 29 60  1  0  0  0  0
 30 31  1  0  0  0  0
 30 61  1  0  0  0  0
 30 62  1  0  0  0  0
 31 63  1  0  0  0  0
 31 64  1  0  0  0  0
 33 34  2  0  0  0  0
 33 65  1  0  0  0  0
 34 66  1  0  0  0  0
M  END
> <PUBCHEM_COMPOUND_CID>
11883105

> <PUBCHEM_CONFORMER_RMSD>
1

> <PUBCHEM_CONFORMER_DIVERSEORDER>
1
22
27
8
28
32
23
12
33
21
10
15
18
4
16
30
11
17
13
31
9
26
34
29
5
24
19
3
2
25
7
35
14
6
20

> <PUBCHEM_MMFF94_PARTIAL_CHARGES>
30
1 -0.08
10 -0.57
14 0.18
16 0.28
17 0.18
2 -0.08
20 0.05
21 0.28
23 -0.14
24 0.06
25 0.57
26 0.44
27 0.05
28 0.58
3 -0.68
32 0.44
33 -0.11
34 0.08
4 -0.68
5 -0.57
54 0.4
55 0.4
56 0.37
57 0.37
6 -0.57
65 0.15
66 0.15
7 -0.57
8 -0.49
9 -0.49

> <PUBCHEM_EFFECTIVE_ROTOR_COUNT>
10

> <PUBCHEM_PHARMACOPHORE_FEATURES>
13
1 3 acceptor
1 3 donor
1 4 acceptor
1 4 donor
1 5 acceptor
1 6 acceptor
1 8 donor
1 9 donor
4 27 29 30 31 rings
5 1 7 20 23 26 rings
5 2 10 32 33 34 rings
6 11 12 13 15 16 18 rings
6 11 12 14 17 20 23 rings

> <PUBCHEM_HEAVY_ATOM_COUNT>
34

> <PUBCHEM_ATOM_DEF_STEREO_COUNT>
5

> <PUBCHEM_ATOM_UDEF_STEREO_COUNT>
0

> <PUBCHEM_BOND_DEF_STEREO_COUNT>
0

> <PUBCHEM_BOND_UDEF_STEREO_COUNT>
0

> <PUBCHEM_ISOTOPIC_ATOM_COUNT>
0

> <PUBCHEM_COMPONENT_COUNT>
1

> <PUBCHEM_CACTVS_TAUTO_COUNT>
9

> <PUBCHEM_CONFORMER_ID>
00B5526100000001

> <PUBCHEM_MMFF94_ENERGY>
96.0424

> <PUBCHEM_FEATURE_SELFOVERLAP>
66.119

> <PUBCHEM_SHAPE_FINGERPRINT>
10050765 1 18338233765682241421
10290309 65 18338223973515957364
1100329 8 17906173949412290529
11135926 11 18410285951828719453
11578080 2 17024562570362189775
11719270 70 18337666525262089752
11963148 33 18121211250228247815
12156800 1 15911896505488034206
12166972 35 18127970815454537826
12788726 201 17755300067929620579
12977781 61 17750533899565809658
13533116 47 18411139112996553240
14028597 1 17701845342949490291
140371 6 17983017738987490071
14790565 3 18192998346476423828
15400415 2 18122061177032396620
15815584 197 18191891078242667150
15927050 60 18268428113118248598
16067689 302 18338519750796911407
20554085 129 17987506178166432936
20609170 92 18114168710125457789
20642791 35 18335704888347376547
20721686 56 18335424530726866274
21133665 82 18193278727707824588
21344244 246 18337946887673297111
21360443 120 18335422426345742028
21781055 127 16701475455439206931
22311459 1 18121220046177727931
23559900 14 18337946775608638307
244849 19 17822593667025805843
249999 5 18410853266159496440
3298306 158 18337396057932780388
3411729 13 18408039637088905130
4017518 198 18198632223736683924
4280585 95 18192143794049941219
5104073 3 18336838524297304971
5171179 24 18264485075252227716
5265222 85 17975422631234848372
5385378 56 18410299128730400121
5776283 40 18338250366611386652
59755656 215 18409451427088173140
6669772 16 18335982051398455134

> <PUBCHEM_SHAPE_MULTIPOLES>
664
16.62
5.86
1.12
4.51
1.91
0.19
-4.4
0.19
-14.33
0.09
0.27
0.39
0.52

> <PUBCHEM_SHAPE_SELFOVERLAP>
1393.552

> <PUBCHEM_SHAPE_VOLUME>
378.6

> <PUBCHEM_COORDINATE_TYPE>
2
5
10

$$$$
