11886737
  -OEChem-12032416123D

 61 66  0     1  0  0  0  0  0999 V2000
    2.2624   -2.3228    2.0991 O   0  0  0  0  0  0  0  0  0  0  0  0
    2.5833   -3.4689   -0.8121 O   0  0  0  0  0  0  0  0  0  0  0  0
   -1.9356   -2.0532    1.1757 O   0  0  0  0  0  0  0  0  0  0  0  0
   -7.4546    0.4867   -1.1069 O   0  0  0  0  0  0  0  0  0  0  0  0
    4.5809   -0.6864    0.4554 N   0  0  0  0  0  0  0  0  0  0  0  0
   -0.3640   -2.6139   -0.4246 N   0  0  0  0  0  0  0  0  0  0  0  0
    3.8762    0.3571    0.9120 N   0  0  0  0  0  0  0  0  0  0  0  0
    4.6262    1.4394    0.7361 N   0  0  0  0  0  0  0  0  0  0  0  0
   -2.3608   -1.7061   -1.1068 N   0  0  0  0  0  0  0  0  0  0  0  0
    2.7058   -2.1551   -0.2374 C   0  0  1  0  0  0  0  0  0  0  0  0
    1.6419   -2.0347    0.8362 C   0  0  1  0  0  0  0  0  0  0  0  0
    4.0213   -2.0395    0.5091 C   0  0  2  0  0  0  0  0  0  0  0  0
    0.6370   -3.1099    0.4887 C   0  0  2  0  0  0  0  0  0  0  0  0
    3.6673   -2.5368    1.9063 C   0  0  0  0  0  0  0  0  0  0  0  0
    1.5065   -4.1651   -0.1692 C   0  0  0  0  0  0  0  0  0  0  0  0
    5.7940   -0.3133   -0.0239 C   0  0  0  0  0  0  0  0  0  0  0  0
   -1.6018   -2.1116   -0.0053 C   0  0  0  0  0  0  0  0  0  0  0  0
    5.8040    1.0461    0.1639 C   0  0  0  0  0  0  0  0  0  0  0  0
    6.8738    1.9261   -0.1814 C   0  0  0  0  0  0  0  0  0  0  0  0
   -3.6601   -1.1474   -1.1073 C   0  0  0  0  0  0  0  0  0  0  0  0
    6.7638    3.2997    0.0611 C   0  0  0  0  0  0  0  0  0  0  0  0
    8.0414    1.4227   -0.7650 C   0  0  0  0  0  0  0  0  0  0  0  0
   -4.2520   -0.8072   -2.3126 C   0  0  0  0  0  0  0  0  0  0  0  0
   -4.3135   -0.9503    0.0984 C   0  0  0  0  0  0  0  0  0  0  0  0
    7.8093    4.1594   -0.2760 C   0  0  0  0  0  0  0  0  0  0  0  0
    9.0868    2.2825   -1.1020 C   0  0  0  0  0  0  0  0  0  0  0  0
    8.9707    3.6508   -0.8576 C   0  0  0  0  0  0  0  0  0  0  0  0
   -5.5328   -0.2548   -2.3125 C   0  0  0  0  0  0  0  0  0  0  0  0
   -5.5945   -0.3980    0.0986 C   0  0  0  0  0  0  0  0  0  0  0  0
   -6.2042   -0.0503   -1.1069 C   0  0  0  0  0  0  0  0  0  0  0  0
   -7.7266    1.4850   -0.1865 C   0  0  0  0  0  0  0  0  0  0  0  0
   -8.9102    1.4382    0.5276 C   0  0  0  0  0  0  0  0  0  0  0  0
   -6.8075    2.5025   -0.0049 C   0  0  0  0  0  0  0  0  0  0  0  0
   -9.1838    2.4434    1.4552 C   0  0  0  0  0  0  0  0  0  0  0  0
   -7.0813    3.5076    0.9228 C   0  0  0  0  0  0  0  0  0  0  0  0
   -8.2693    3.4781    1.6527 C   0  0  0  0  0  0  0  0  0  0  0  0
    2.5783   -1.4337   -1.0511 H   0  0  0  0  0  0  0  0  0  0  0  0
    1.2148   -1.0290    0.9039 H   0  0  0  0  0  0  0  0  0  0  0  0
    4.7919   -2.6913    0.0788 H   0  0  0  0  0  0  0  0  0  0  0  0
    0.1345   -3.5214    1.3706 H   0  0  0  0  0  0  0  0  0  0  0  0
    3.8432   -3.6149    1.9890 H   0  0  0  0  0  0  0  0  0  0  0  0
    4.2228   -2.0361    2.7050 H   0  0  0  0  0  0  0  0  0  0  0  0
    1.9499   -4.8309    0.5795 H   0  0  0  0  0  0  0  0  0  0  0  0
    0.9783   -4.7776   -0.9062 H   0  0  0  0  0  0  0  0  0  0  0  0
   -0.1351   -2.5663   -1.4129 H   0  0  0  0  0  0  0  0  0  0  0  0
    6.4973   -1.0249   -0.4331 H   0  0  0  0  0  0  0  0  0  0  0  0
   -1.9344   -1.8255   -2.0223 H   0  0  0  0  0  0  0  0  0  0  0  0
    5.8704    3.7241    0.5132 H   0  0  0  0  0  0  0  0  0  0  0  0
    8.1789    0.3657   -0.9748 H   0  0  0  0  0  0  0  0  0  0  0  0
   -3.7379   -0.9621   -3.2571 H   0  0  0  0  0  0  0  0  0  0  0  0
   -3.9123   -1.1975    1.0699 H   0  0  0  0  0  0  0  0  0  0  0  0
    7.7193    5.2249   -0.0859 H   0  0  0  0  0  0  0  0  0  0  0  0
    9.9915    1.8872   -1.5548 H   0  0  0  0  0  0  0  0  0  0  0  0
    9.7846    4.3203   -1.1200 H   0  0  0  0  0  0  0  0  0  0  0  0
   -6.0027    0.0144   -3.2546 H   0  0  0  0  0  0  0  0  0  0  0  0
   -6.1039   -0.2717    1.0504 H   0  0  0  0  0  0  0  0  0  0  0  0
   -9.6226    0.6332    0.3752 H   0  0  0  0  0  0  0  0  0  0  0  0
   -5.8866    2.5610   -0.5776 H   0  0  0  0  0  0  0  0  0  0  0  0
  -10.1091    2.4206    2.0235 H   0  0  0  0  0  0  0  0  0  0  0  0
   -6.3718    4.3163    1.0729 H   0  0  0  0  0  0  0  0  0  0  0  0
   -8.4831    4.2613    2.3740 H   0  0  0  0  0  0  0  0  0  0  0  0
  1 11  1  0  0  0  0
  1 14  1  0  0  0  0
  2 10  1  0  0  0  0
  2 15  1  0  0  0  0
  3 17  2  0  0  0  0
  4 30  1  0  0  0  0
  4 31  1  0  0  0  0
  5  7  1  0  0  0  0
  5 12  1  0  0  0  0
  5 16  1  0  0  0  0
  6 13  1  0  0  0  0
  6 17  1  0  0  0  0
  6 45  1  0  0  0  0
  7  8  2  0  0  0  0
  8 18  1  0  0  0  0
  9 17  1  0  0  0  0
  9 20  1  0  0  0  0
  9 47  1  0  0  0  0
 10 11  1  0  0  0  0
 10 12  1  0  0  0  0
 10 37  1  0  0  0  0
 11 13  1  0  0  0  0
 11 38  1  0  0  0  0
 12 14  1  0  0  0  0
 12 39  1  0  0  0  0
 13 15  1  0  0  0  0
 13 40  1  0  0  0  0
 14 41  1  0  0  0  0
 14 42  1  0  0  0  0
 15 43  1  0  0  0  0
 15 44  1  0  0  0  0
 16 18  2  0  0  0  0
 16 46  1  0  0  0  0
 18 19  1  0  0  0  0
 19 21  2  0  0  0  0
 19 22  1  0  0  0  0
 20 23  2  0  0  0  0
 20 24  1  0  0  0  0
 21 25  1  0  0  0  0
 21 48  1  0  0  0  0
 22 26  2  0  0  0  0
 22 49  1  0  0  0  0
 23 28  1  0  0  0  0
 23 50  1  0  0  0  0
 24 29  2  0  0  0  0
 24 51  1  0  0  0  0
 25 27  2  0  0  0  0
 25 52  1  0  0  0  0
 26 27  1  0  0  0  0
 26 53  1  0  0  0  0
 27 54  1  0  0  0  0
 28 30  2  0  0  0  0
 28 55  1  0  0  0  0
 29 30  1  0  0  0  0
 29 56  1  0  0  0  0
 31 32  2  0  0  0  0
 31 33  1  0  0  0  0
 32 34  1  0  0  0  0
 32 57  1  0  0  0  0
 33 35  2  0  0  0  0
 33 58  1  0  0  0  0
 34 36  2  0  0  0  0
 34 59  1  0  0  0  0
 35 36  1  0  0  0  0
 35 60  1  0  0  0  0
 36 61  1  0  0  0  0
M  END
> <PUBCHEM_COMPOUND_CID>
11886737

> <PUBCHEM_CONFORMER_RMSD>
1

> <PUBCHEM_CONFORMER_DIVERSEORDER>
1
224
141
108
231
96
156
54
195
254
203
197
210
250
228
235
74
116
33
47
105
173
95
249
31
222
213
137
10
238
133
121
187
227
178
82
176
62
159
41
149
191
170
219
214
209
125
242
247
181
16
189
89
48
239
226
109
88
23
233
205
83
100
63
211
199
53
160
223
171
158
248
27
127
76
180
162
42
200
167
58
202
237
169
183
122
193
69
186
64
132
17
61
168
251
166
140
44
246
11
241
98
262
218
73
244
7
124
131
184
221
70
161
253
103
115
57
243
15
220
194
126
29
151
192
150
8
252
138
261
79
217
65
67
35
143
117
14
93
147
99
177
225
52
28
232
40
163
216
128
165
85
245
146
5
94
78
256
51
136
114
68
104
229
139
25
236
208
155
80
255
134
130
43
123
59
120
86
201
174
259
75
13
118
81
87
179
240
30
258
164
12
182
106
204
19
101
36
152
188
24
185
39
21
230
56
113
198
6
190
22
49
212
257
111
148
234
37
60
90
32
157
20
112
77
196
135
97
206
18
92
153
91
71
46
154
142
107
119
26
215
2
45
129
172
144
207
55
9
84
110
145
4
34
66
102
175
72
50
260
38
3

> <PUBCHEM_MMFF94_PARTIAL_CHARGES>
53
1 -0.56
10 0.28
11 0.28
12 0.26
13 0.3
14 0.28
15 0.28
16 -0.3
17 0.69
18 0.17
19 0.05
2 -0.56
20 0.12
21 -0.15
22 -0.15
23 -0.15
24 -0.15
25 -0.15
26 -0.15
27 -0.15
28 -0.15
29 -0.15
3 -0.57
30 0.08
31 0.08
32 -0.15
33 -0.15
34 -0.15
35 -0.15
36 -0.15
4 -0.17
45 0.37
46 0.15
47 0.37
48 0.15
49 0.15
5 0.31
50 0.15
51 0.15
52 0.15
53 0.15
54 0.15
55 0.15
56 0.15
57 0.15
58 0.15
59 0.15
6 -0.73
60 0.15
61 0.15
7 -0.42
8 -0.23
9 -0.55

> <PUBCHEM_EFFECTIVE_ROTOR_COUNT>
9.2

> <PUBCHEM_PHARMACOPHORE_FEATURES>
12
1 1 acceptor
1 2 acceptor
1 3 acceptor
1 4 acceptor
1 6 donor
1 9 donor
5 1 10 11 12 14 rings
5 2 10 11 13 15 rings
5 5 7 8 16 18 rings
6 19 21 22 25 26 27 rings
6 20 23 24 28 29 30 rings
6 31 32 33 34 35 36 rings

> <PUBCHEM_HEAVY_ATOM_COUNT>
36

> <PUBCHEM_ATOM_DEF_STEREO_COUNT>
4

> <PUBCHEM_ATOM_UDEF_STEREO_COUNT>
0

> <PUBCHEM_BOND_DEF_STEREO_COUNT>
0

> <PUBCHEM_BOND_UDEF_STEREO_COUNT>
0

> <PUBCHEM_ISOTOPIC_ATOM_COUNT>
0

> <PUBCHEM_COMPONENT_COUNT>
1

> <PUBCHEM_CACTVS_TAUTO_COUNT>
3

> <PUBCHEM_CONFORMER_ID>
00B5609100000001

> <PUBCHEM_MMFF94_ENERGY>
107.1074

> <PUBCHEM_FEATURE_SELFOVERLAP>
61.644

> <PUBCHEM_SHAPE_FINGERPRINT>
10055352 69 18270399520645294723
10838868 160 18341321253882382073
10920273 25 18411144649114627637
10939801 23 18412265004598622637
11227150 75 11097856284963830015
11399510 152 16227159298342157915
1200032 147 18260263062560764538
12013929 112 14692576481986683833
12013929 29 18340767052771483060
12061779 8 18342451547761678229
12124843 1 17774726471666535868
12125137 17 18412829071238247001
12539765 74 18201722833983234750
12559415 36 18129401332054730025
131240 88 18408611374424445904
13726171 33 18335137626463516619
13782708 43 10303803311822646539
13944108 23 18341895178363013096
13947947 74 18342174514182708296
14201967 126 18412263943283479265
14359421 15 12823307783520429165
14394314 77 18408604790181799253
14400156 260 18261106375627168752
14617042 71 18409730647650301293
14849402 71 18410291407423641513
14904525 67 18116425939484822837
14918687 75 8286199449389512952
14931854 50 17846782935953589136
15131766 46 18342450448566859827
15145343 16 18041570238704037940
15198563 99 17408513396350405502
15276724 80 18266172838918386605
15347591 1 18409166640898477282
15685185 35 18409169947901059921
15773879 343 18202002118932942785
16067689 68 11386903564100527372
16728433 281 18338233885888039348
17899979 129 18412826859129609870
19304671 126 18410860962962872438
20609170 45 9295018913211114873
20691028 202 18337387274951565084
20766409 102 18410855504286039277
208703 8 9439406796026460768
21033648 29 17313384556790162410
21298829 104 18410011052478522389
21307412 95 13542457701027375559
21585481 104 18060425690372564052
23522609 53 18059007277803146927
23528940 14 9799149418226224996
23569943 247 9367347051027530781
23729398 52 18192150396280695986
24203241 11 11025806431211355704
24771293 8 18260546749340098759
25025965 108 9727364501990460165
25269216 80 17417241169696406111
3711267 37 18341339941306088496
393628 194 18336545031258626381
3986486 107 18060143176293517956
4169191 19 18410567358956131557
4366758 26 18198628735738936649
4516262 110 18337100186805838751
474113 269 9151173143442177059
5718773 13 10015591614182725934
57303763 176 18413671315226812544
58083652 198 18044076983576287727
5874358 3 8070023346844185233
5911458 16 18272369733749776969
5937810 71 18412829105407860073
6201320 82 18117570724616340124
6289498 60 18041548174687398177
636783 98 17703803500414115009
6698420 124 18333732420659721570
96874 4 8286195059421129549

> <PUBCHEM_SHAPE_MULTIPOLES>
692.48
34.21
5.74
1.62
9.09
1.22
0.21
52.43
1.45
-5.95
-1.13
2.13
-0.31
-6.05

> <PUBCHEM_SHAPE_SELFOVERLAP>
1533.395

> <PUBCHEM_SHAPE_VOLUME>
370.2

> <PUBCHEM_COORDINATE_TYPE>
2
5
10

$$$$
