11883347
  -OEChem-12032416373D

 54 58  0     1  0  0  0  0  0999 V2000
    2.8738    2.5766   -0.8064 S   0  0  0  0  0  0  0  0  0  0  0  0
   -1.4585    1.4343    0.7666 O   0  0  0  0  0  0  0  0  0  0  0  0
    0.5231   -0.5590    1.9931 O   0  0  0  0  0  0  0  0  0  0  0  0
   -3.0055   -0.7777    1.4151 O   0  0  0  0  0  0  0  0  0  0  0  0
    3.0906    3.6511    0.1436 O   0  0  0  0  0  0  0  0  0  0  0  0
    3.0853    2.8017   -2.2234 O   0  0  0  0  0  0  0  0  0  0  0  0
   -3.4616   -0.8871   -0.8232 O   0  0  0  0  0  0  0  0  0  0  0  0
    1.3206    1.9278   -0.5809 N   0  0  0  0  0  0  0  0  0  0  0  0
   -5.1530   -0.5579    0.7615 N   0  0  0  0  0  0  0  0  0  0  0  0
    0.4500    0.0297    0.6778 C   0  0  1  0  0  0  0  0  0  0  0  0
   -1.0201    0.1382    0.3261 C   0  0  1  0  0  0  0  0  0  0  0  0
    0.9182    1.4654    0.7250 C   0  0  2  0  0  0  0  0  0  0  0  0
   -1.6348   -0.9695    1.1476 C   0  0  1  0  0  0  0  0  0  0  0  0
   -0.3233    2.1933    1.2108 C   0  0  0  0  0  0  0  0  0  0  0  0
   -0.7988   -0.9343    2.4071 C   0  0  0  0  0  0  0  0  0  0  0  0
    3.9070    1.2201   -0.3402 C   0  0  0  0  0  0  0  0  0  0  0  0
   -3.8555   -0.7519    0.3288 C   0  0  0  0  0  0  0  0  0  0  0  0
    4.3002    0.3078   -1.3044 C   0  0  0  0  0  0  0  0  0  0  0  0
    4.3020    1.0959    0.9771 C   0  0  0  0  0  0  0  0  0  0  0  0
    5.1204   -0.7758   -0.9501 C   0  0  0  0  0  0  0  0  0  0  0  0
    5.1172    0.0257    1.3469 C   0  0  0  0  0  0  0  0  0  0  0  0
    5.5352   -0.9189    0.3954 C   0  0  0  0  0  0  0  0  0  0  0  0
   -6.3271   -0.4691   -0.0204 C   0  0  0  0  0  0  0  0  0  0  0  0
    5.5387   -1.7200   -1.9018 C   0  0  0  0  0  0  0  0  0  0  0  0
    6.3554   -2.0026    0.7496 C   0  0  0  0  0  0  0  0  0  0  0  0
    6.3534   -2.7905   -1.5322 C   0  0  0  0  0  0  0  0  0  0  0  0
    6.7608   -2.9316   -0.2090 C   0  0  0  0  0  0  0  0  0  0  0  0
   -7.5471   -0.2703    0.6065 C   0  0  0  0  0  0  0  0  0  0  0  0
   -6.2359   -0.5818   -1.3987 C   0  0  0  0  0  0  0  0  0  0  0  0
   -8.7059   -0.1823   -0.1649 C   0  0  0  0  0  0  0  0  0  0  0  0
   -7.3948   -0.4936   -2.1701 C   0  0  0  0  0  0  0  0  0  0  0  0
   -8.6297   -0.2939   -1.5531 C   0  0  0  0  0  0  0  0  0  0  0  0
    1.0145   -0.6129   -0.0054 H   0  0  0  0  0  0  0  0  0  0  0  0
   -1.2028    0.0717   -0.7495 H   0  0  0  0  0  0  0  0  0  0  0  0
    1.7036    1.6218    1.4667 H   0  0  0  0  0  0  0  0  0  0  0  0
   -1.4796   -1.9374    0.6521 H   0  0  0  0  0  0  0  0  0  0  0  0
   -0.3614    2.2216    2.3053 H   0  0  0  0  0  0  0  0  0  0  0  0
   -0.4063    3.2185    0.8371 H   0  0  0  0  0  0  0  0  0  0  0  0
   -0.7638   -1.9055    2.9100 H   0  0  0  0  0  0  0  0  0  0  0  0
   -1.1661   -0.1977    3.1304 H   0  0  0  0  0  0  0  0  0  0  0  0
    0.7557    1.6493   -1.3920 H   0  0  0  0  0  0  0  0  0  0  0  0
    3.9737    0.4143   -2.3361 H   0  0  0  0  0  0  0  0  0  0  0  0
    4.0059    1.8111    1.7380 H   0  0  0  0  0  0  0  0  0  0  0  0
   -5.2819   -0.4673    1.7663 H   0  0  0  0  0  0  0  0  0  0  0  0
    5.4253   -0.0637    2.3866 H   0  0  0  0  0  0  0  0  0  0  0  0
    5.2324   -1.6298   -2.9420 H   0  0  0  0  0  0  0  0  0  0  0  0
    6.6861   -2.1325    1.7780 H   0  0  0  0  0  0  0  0  0  0  0  0
    6.6696   -3.5140   -2.2781 H   0  0  0  0  0  0  0  0  0  0  0  0
    7.3951   -3.7652    0.0781 H   0  0  0  0  0  0  0  0  0  0  0  0
   -7.6177   -0.1819    1.6871 H   0  0  0  0  0  0  0  0  0  0  0  0
   -5.3179   -0.7365   -1.9468 H   0  0  0  0  0  0  0  0  0  0  0  0
   -9.6676   -0.0267    0.3154 H   0  0  0  0  0  0  0  0  0  0  0  0
   -7.3370   -0.5803   -3.2513 H   0  0  0  0  0  0  0  0  0  0  0  0
   -9.5320   -0.2253   -2.1536 H   0  0  0  0  0  0  0  0  0  0  0  0
  1  5  2  0  0  0  0
  1  6  2  0  0  0  0
  1  8  1  0  0  0  0
  1 16  1  0  0  0  0
  2 11  1  0  0  0  0
  2 14  1  0  0  0  0
  3 10  1  0  0  0  0
  3 15  1  0  0  0  0
  4 13  1  0  0  0  0
  4 17  1  0  0  0  0
  7 17  2  0  0  0  0
  8 12  1  0  0  0  0
  8 41  1  0  0  0  0
  9 17  1  0  0  0  0
  9 23  1  0  0  0  0
  9 44  1  0  0  0  0
 10 11  1  0  0  0  0
 10 12  1  0  0  0  0
 10 33  1  0  0  0  0
 11 13  1  0  0  0  0
 11 34  1  0  0  0  0
 12 14  1  0  0  0  0
 12 35  1  0  0  0  0
 13 15  1  0  0  0  0
 13 36  1  0  0  0  0
 14 37  1  0  0  0  0
 14 38  1  0  0  0  0
 15 39  1  0  0  0  0
 15 40  1  0  0  0  0
 16 18  2  0  0  0  0
 16 19  1  0  0  0  0
 18 20  1  0  0  0  0
 18 42  1  0  0  0  0
 19 21  2  0  0  0  0
 19 43  1  0  0  0  0
 20 22  1  0  0  0  0
 20 24  2  0  0  0  0
 21 22  1  0  0  0  0
 21 45  1  0  0  0  0
 22 25  2  0  0  0  0
 23 28  2  0  0  0  0
 23 29  1  0  0  0  0
 24 26  1  0  0  0  0
 24 46  1  0  0  0  0
 25 27  1  0  0  0  0
 25 47  1  0  0  0  0
 26 27  2  0  0  0  0
 26 48  1  0  0  0  0
 27 49  1  0  0  0  0
 28 30  1  0  0  0  0
 28 50  1  0  0  0  0
 29 31  2  0  0  0  0
 29 51  1  0  0  0  0
 30 32  2  0  0  0  0
 30 52  1  0  0  0  0
 31 32  1  0  0  0  0
 31 53  1  0  0  0  0
 32 54  1  0  0  0  0
M  END
> <PUBCHEM_COMPOUND_CID>
11883347

> <PUBCHEM_CONFORMER_RMSD>
1

> <PUBCHEM_CONFORMER_DIVERSEORDER>
2
47
121
67
76
78
114
136
89
25
9
112
21
120
35
138
160
59
37
55
4
107
41
34
13
22
155
159
128
29
40
146
158
166
75
164
16
119
5
82
152
49
93
104
19
77
101
1
113
99
54
63
172
118
74
42
131
85
53
150
130
103
94
83
91
126
90
169
105
88
147
20
51
61
173
168
122
8
174
39
117
66
167
81
50
110
56
123
175
96
6
46
65
137
100
134
132
17
154
23
161
11
57
115
43
157
139
44
165
86
12
7
124
71
18
142
143
87
106
68
24
156
48
108
70
15
58
60
33
170
125
64
38
45
95
62
72
144
140
32
30
171
69
127
98
149
26
79
84
148
92
135
28
73
109
145
151
14
97
31
116
129
141
102
52
163
3
162
153
10
27
111
80
36
133

> <PUBCHEM_MMFF94_PARTIAL_CHARGES>
44
1 1.45
10 0.28
11 0.28
12 0.36
13 0.28
14 0.28
15 0.28
16 -0.01
17 0.78
18 -0.15
19 -0.15
2 -0.56
21 -0.15
23 0.12
24 -0.15
25 -0.15
26 -0.15
27 -0.15
28 -0.15
29 -0.15
3 -0.56
30 -0.15
31 -0.15
32 -0.15
4 -0.43
41 0.42
42 0.15
43 0.15
44 0.37
45 0.15
46 0.15
47 0.15
48 0.15
49 0.15
5 -0.65
50 0.15
51 0.15
52 0.15
53 0.15
54 0.15
6 -0.65
7 -0.57
8 -0.91
9 -0.55

> <PUBCHEM_EFFECTIVE_ROTOR_COUNT>
8.2

> <PUBCHEM_PHARMACOPHORE_FEATURES>
12
1 2 acceptor
1 3 acceptor
1 5 acceptor
1 6 acceptor
1 7 acceptor
1 8 donor
1 9 donor
5 2 10 11 12 14 rings
5 3 10 11 13 15 rings
6 16 18 19 20 21 22 rings
6 20 22 24 25 26 27 rings
6 23 28 29 30 31 32 rings

> <PUBCHEM_HEAVY_ATOM_COUNT>
32

> <PUBCHEM_ATOM_DEF_STEREO_COUNT>
4

> <PUBCHEM_ATOM_UDEF_STEREO_COUNT>
0

> <PUBCHEM_BOND_DEF_STEREO_COUNT>
0

> <PUBCHEM_BOND_UDEF_STEREO_COUNT>
0

> <PUBCHEM_ISOTOPIC_ATOM_COUNT>
0

> <PUBCHEM_COMPONENT_COUNT>
1

> <PUBCHEM_CACTVS_TAUTO_COUNT>
2

> <PUBCHEM_CONFORMER_ID>
00B5535300000002

> <PUBCHEM_MMFF94_ENERGY>
84.9455

> <PUBCHEM_FEATURE_SELFOVERLAP>
61.66

> <PUBCHEM_SHAPE_FINGERPRINT>
10 15 12103841263347783515
10258939 38 13398361148482619051
10554248 39 18337109076897894597
10981352 41 17775568603152703774
11386260 185 18186800322268731557
11719270 70 13758359994501088701
11991303 11 16226054426785536883
1200032 147 12107794008451212272
12013929 112 17822285722761885215
12373685 5 17702932768586935906
13533116 47 18341333374760002800
13782708 43 17970639695466302891
14117953 113 18412269415656740622
14251757 52 13695591052655312583
14461889 52 13254799053135491941
14537116 161 17530961375943334334
14565420 104 10231753367078898396
15119646 104 17846784009600584239
15183329 4 17894912919098048593
15188451 53 17632297843979972418
15350500 16 18337950092004223442
2026 5 17988081076207876791
20567600 234 12319735877504108250
21133410 58 18410570708298191846
21279426 13 17968098663653032201
21781051 124 17095536114280327419
22149856 69 12175356833009068835
22224240 67 9727632809013502849
23559900 14 18114755935808593600
24771293 8 10447631488070208978
249057 3 18334574654977054170
3986486 107 15140969409510305110
4339292 15 18339084762788328902
4340502 62 12391517481460387908
5085150 59 16128373801036532871
5109719 28 10447920698220410986
54076057 255 14201401594636629790
57359948 33 17603867832314270708
5758199 1 11241972568957348307
57676310 78 18269543963060003703
59682541 35 12463567383064000582
59682541 52 18271243919367707805
6441014 3 13249512467954265581
8988823 20 17203326749747294792
9689198 14 13767933403378301967
9831232 110 18260552242160736354

> <PUBCHEM_SHAPE_MULTIPOLES>
617.22
24.44
2.82
1.98
41.62
1.33
0.19
-15.62
9.98
-7.06
0.9
0.18
-0.2
-0.15

> <PUBCHEM_SHAPE_SELFOVERLAP>
1347.689

> <PUBCHEM_SHAPE_VOLUME>
334.9

> <PUBCHEM_COORDINATE_TYPE>
2
5
10

$$$$
