75367823
  -OEChem-12032416383D

 29 29  0     1  0  0  0  0  0999 V2000
   -0.8800    0.5242    0.0142 O   0  0  0  0  0  0  0  0  0  0  0  0
    2.6225    1.4388    0.0302 O   0  0  0  0  0  0  0  0  0  0  0  0
   -3.4963   -0.3806    0.4123 O   0  0  0  0  0  0  0  0  0  0  0  0
    2.1349   -1.6326    0.3212 N   0  0  0  0  0  0  0  0  0  0  0  0
    0.5061    0.2776   -0.2251 C   0  0  2  0  0  0  0  0  0  0  0  0
    0.7600   -1.2013    0.0930 C   0  0  0  0  0  0  0  0  0  0  0  0
    1.3369    1.2446    0.6119 C   0  0  0  0  0  0  0  0  0  0  0  0
    3.1431   -0.9202   -0.4515 C   0  0  0  0  0  0  0  0  0  0  0  0
    3.5382    0.3743    0.2535 C   0  0  0  0  0  0  0  0  0  0  0  0
   -1.6768    0.0821   -1.0731 C   0  0  0  0  0  0  0  0  0  0  0  0
   -3.1363    0.3459   -0.7564 C   0  0  0  0  0  0  0  0  0  0  0  0
   -4.8524   -0.1528    0.7698 C   0  0  0  0  0  0  0  0  0  0  0  0
    0.7382    0.4676   -1.2824 H   0  0  0  0  0  0  0  0  0  0  0  0
    0.1705   -1.4960    0.9704 H   0  0  0  0  0  0  0  0  0  0  0  0
    0.3653   -1.8066   -0.7322 H   0  0  0  0  0  0  0  0  0  0  0  0
    0.8476    2.2253    0.6235 H   0  0  0  0  0  0  0  0  0  0  0  0
    1.4191    0.9308    1.6597 H   0  0  0  0  0  0  0  0  0  0  0  0
    2.8208   -0.7501   -1.4848 H   0  0  0  0  0  0  0  0  0  0  0  0
    4.0329   -1.5593   -0.4929 H   0  0  0  0  0  0  0  0  0  0  0  0
    2.2007   -2.6339    0.1397 H   0  0  0  0  0  0  0  0  0  0  0  0
    3.6890    0.2296    1.3306 H   0  0  0  0  0  0  0  0  0  0  0  0
    4.4996    0.7082   -0.1526 H   0  0  0  0  0  0  0  0  0  0  0  0
   -1.3986    0.6208   -1.9858 H   0  0  0  0  0  0  0  0  0  0  0  0
   -1.5452   -0.9923   -1.2325 H   0  0  0  0  0  0  0  0  0  0  0  0
   -3.2866    1.4156   -0.5696 H   0  0  0  0  0  0  0  0  0  0  0  0
   -3.7649    0.0328   -1.5974 H   0  0  0  0  0  0  0  0  0  0  0  0
   -5.0744   -0.7362    1.6674 H   0  0  0  0  0  0  0  0  0  0  0  0
   -5.5209   -0.4793   -0.0327 H   0  0  0  0  0  0  0  0  0  0  0  0
   -5.0183    0.9057    0.9920 H   0  0  0  0  0  0  0  0  0  0  0  0
  1  5  1  0  0  0  0
  1 10  1  0  0  0  0
  2  7  1  0  0  0  0
  2  9  1  0  0  0  0
  3 11  1  0  0  0  0
  3 12  1  0  0  0  0
  4  6  1  0  0  0  0
  4  8  1  0  0  0  0
  4 20  1  0  0  0  0
  5  6  1  0  0  0  0
  5  7  1  0  0  0  0
  5 13  1  0  0  0  0
  6 14  1  0  0  0  0
  6 15  1  0  0  0  0
  7 16  1  0  0  0  0
  7 17  1  0  0  0  0
  8  9  1  0  0  0  0
  8 18  1  0  0  0  0
  8 19  1  0  0  0  0
  9 21  1  0  0  0  0
  9 22  1  0  0  0  0
 10 11  1  0  0  0  0
 10 23  1  0  0  0  0
 10 24  1  0  0  0  0
 11 25  1  0  0  0  0
 11 26  1  0  0  0  0
 12 27  1  0  0  0  0
 12 28  1  0  0  0  0
 12 29  1  0  0  0  0
M  END
> <PUBCHEM_COMPOUND_CID>
75367823

> <PUBCHEM_CONFORMER_RMSD>
0.6

> <PUBCHEM_CONFORMER_DIVERSEORDER>
1
59
73
30
112
5
10
33
32
21
110
40
111
72
69
92
106
56
41
11
19
103
98
82
85
42
29
97
89
105
93
3
90
48
95
43
47
51
44
81
74
16
94
28
108
113
7
83
64
25
15
104
31
60
23
96
107
68
91
101
62
4
102
79
50
20
78
24
70
18
26
76
80
17
49
109
86
2
46
36
75
13
87
27
8
65
71
45
53
38
6
67
66
52
39
34
9
14
22
63
58
84
57
99
61
77
37
88
55
54
12
100
35

> <PUBCHEM_MMFF94_PARTIAL_CHARGES>
13
1 -0.56
10 0.28
11 0.28
12 0.28
2 -0.56
20 0.36
3 -0.56
4 -0.9
5 0.28
6 0.27
7 0.28
8 0.27
9 0.28

> <PUBCHEM_EFFECTIVE_ROTOR_COUNT>
5.4

> <PUBCHEM_PHARMACOPHORE_FEATURES>
6
1 1 acceptor
1 2 acceptor
1 3 acceptor
1 4 cation
1 4 donor
7 2 4 5 6 7 8 9 rings

> <PUBCHEM_HEAVY_ATOM_COUNT>
12

> <PUBCHEM_ATOM_DEF_STEREO_COUNT>
1

> <PUBCHEM_ATOM_UDEF_STEREO_COUNT>
0

> <PUBCHEM_BOND_DEF_STEREO_COUNT>
0

> <PUBCHEM_BOND_UDEF_STEREO_COUNT>
0

> <PUBCHEM_ISOTOPIC_ATOM_COUNT>
0

> <PUBCHEM_COMPONENT_COUNT>
1

> <PUBCHEM_CACTVS_TAUTO_COUNT>
1

> <PUBCHEM_CONFORMER_ID>
047E058F00000001

> <PUBCHEM_MMFF94_ENERGY>
31.0162

> <PUBCHEM_FEATURE_SELFOVERLAP>
30.45

> <PUBCHEM_SHAPE_FINGERPRINT>
11062470 55 11384116353510767117
11471102 20 18412821386934495156
12932764 1 17917134066191056733
14252887 29 18131354072857146726
14325111 11 18410005550567159917
15219456 202 18260260833166535517
17834072 33 18202278143827372775
17834074 16 18333735740690085315
17844478 74 18186798063263178181
18186145 218 18272366481710155404
190213 19 17775282763945446159
19422 9 17774998029157272927
20279233 1 17894623752072261759
20645477 70 18267850723410542175
20871998 22 17986675857661013182
21730867 7 18334573546774602335
22485316 2 18187363221199054427
23402539 116 15719385122929712318
23402655 69 18342170051199620877
23557571 272 16588293961025268925
25610 137 18408324375882175053

> <PUBCHEM_SHAPE_MULTIPOLES>
224.37
7.82
1.32
0.88
7.5
0.1
-0.09
0.39
1.29
-1.26
0.14
0.53
-0.01
0.29

> <PUBCHEM_SHAPE_SELFOVERLAP>
425.192

> <PUBCHEM_SHAPE_VOLUME>
135.9

> <PUBCHEM_COORDINATE_TYPE>
2
5
10

$$$$
