56775002
  -OEChem-12032416403D

 46 49  0     1  0  0  0  0  0999 V2000
    2.2031   -2.4325   -0.4852 O   0  0  0  0  0  0  0  0  0  0  0  0
    5.5124   -1.5188    0.3089 O   0  0  0  0  0  0  0  0  0  0  0  0
   -6.9742   -0.5856   -0.9006 O   0  0  0  0  0  0  0  0  0  0  0  0
   -6.8260    1.6744   -0.7077 O   0  0  0  0  0  0  0  0  0  0  0  0
    3.6344   -0.1576    0.1183 N   0  0  0  0  0  0  0  0  0  0  0  0
   -0.0020   -0.1684    0.4457 N   0  0  1  0  0  0  0  0  0  0  0  0
    4.9610    1.8260   -0.3494 C   0  0  0  0  0  0  0  0  0  0  0  0
    2.2139   -0.0365   -0.1976 C   0  0  1  0  0  0  0  0  0  0  0  0
    4.1937    2.9175   -1.0364 C   0  0  0  0  0  0  0  0  0  0  0  0
    5.2836    3.2636   -0.0646 C   0  0  0  0  0  0  0  0  0  0  0  0
    4.2852    1.0096    0.6991 C   0  0  0  0  0  0  0  0  0  0  0  0
    1.6184   -1.2200   -0.9537 C   0  0  2  0  0  0  0  0  0  0  0  0
    1.3198    0.0361    1.0371 C   0  0  0  0  0  0  0  0  0  0  0  0
    0.1384   -1.2313   -0.5581 C   0  0  0  0  0  0  0  0  0  0  0  0
    4.3405   -1.3476   -0.0301 C   0  0  0  0  0  0  0  0  0  0  0  0
    3.5889   -2.4547   -0.7376 C   0  0  0  0  0  0  0  0  0  0  0  0
   -1.0240   -0.4588    1.4387 C   0  0  0  0  0  0  0  0  0  0  0  0
   -2.4091   -0.1927    0.9121 C   0  0  0  0  0  0  0  0  0  0  0  0
   -2.8753    1.1179    0.8080 C   0  0  0  0  0  0  0  0  0  0  0  0
   -3.2261   -1.2562    0.5286 C   0  0  0  0  0  0  0  0  0  0  0  0
   -4.1585    1.3649    0.3202 C   0  0  0  0  0  0  0  0  0  0  0  0
   -4.5093   -1.0092    0.0408 C   0  0  0  0  0  0  0  0  0  0  0  0
   -4.9755    0.3014   -0.0635 C   0  0  0  0  0  0  0  0  0  0  0  0
   -6.3132    0.5585   -0.5729 C   0  0  0  0  0  0  0  0  0  0  0  0
    5.6836    1.2639   -0.9287 H   0  0  0  0  0  0  0  0  0  0  0  0
    2.0782    0.8707   -0.8015 H   0  0  0  0  0  0  0  0  0  0  0  0
    3.1735    3.1164   -0.7323 H   0  0  0  0  0  0  0  0  0  0  0  0
    4.3857    3.0807   -2.0898 H   0  0  0  0  0  0  0  0  0  0  0  0
    6.2077    3.6621   -0.4652 H   0  0  0  0  0  0  0  0  0  0  0  0
    4.9927    3.6829    0.8906 H   0  0  0  0  0  0  0  0  0  0  0  0
    3.5593    1.5946    1.2731 H   0  0  0  0  0  0  0  0  0  0  0  0
    5.0464    0.6681    1.4103 H   0  0  0  0  0  0  0  0  0  0  0  0
    1.7521   -1.1379   -2.0387 H   0  0  0  0  0  0  0  0  0  0  0  0
    1.3843    1.0074    1.5374 H   0  0  0  0  0  0  0  0  0  0  0  0
    1.5767   -0.7489    1.7606 H   0  0  0  0  0  0  0  0  0  0  0  0
   -0.4889   -0.9871   -1.4222 H   0  0  0  0  0  0  0  0  0  0  0  0
   -0.1567   -2.2191   -0.1836 H   0  0  0  0  0  0  0  0  0  0  0  0
    3.7843   -2.3910   -1.8141 H   0  0  0  0  0  0  0  0  0  0  0  0
    3.9747   -3.4141   -0.3785 H   0  0  0  0  0  0  0  0  0  0  0  0
   -0.8897    0.1938    2.3132 H   0  0  0  0  0  0  0  0  0  0  0  0
   -0.9392   -1.4806    1.8325 H   0  0  0  0  0  0  0  0  0  0  0  0
   -2.2482    1.9549    1.1037 H   0  0  0  0  0  0  0  0  0  0  0  0
   -2.8742   -2.2817    0.6038 H   0  0  0  0  0  0  0  0  0  0  0  0
   -4.5030    2.3931    0.2466 H   0  0  0  0  0  0  0  0  0  0  0  0
   -5.1115   -1.8664   -0.2467 H   0  0  0  0  0  0  0  0  0  0  0  0
   -7.8749   -0.4013   -1.2431 H   0  0  0  0  0  0  0  0  0  0  0  0
  1 12  1  0  0  0  0
  1 16  1  0  0  0  0
  2 15  2  0  0  0  0
  3 24  1  0  0  0  0
  3 46  1  0  0  0  0
  4 24  2  0  0  0  0
  5  8  1  0  0  0  0
  5 11  1  0  0  0  0
  5 15  1  0  0  0  0
  6 13  1  0  0  0  0
  6 14  1  0  0  0  0
  6 17  1  0  0  0  0
  7  9  1  0  0  0  0
  7 10  1  0  0  0  0
  7 11  1  0  0  0  0
  7 25  1  0  0  0  0
  8 12  1  0  0  0  0
  8 13  1  0  0  0  0
  8 26  1  0  0  0  0
  9 10  1  0  0  0  0
  9 27  1  0  0  0  0
  9 28  1  0  0  0  0
 10 29  1  0  0  0  0
 10 30  1  0  0  0  0
 11 31  1  0  0  0  0
 11 32  1  0  0  0  0
 12 14  1  0  0  0  0
 12 33  1  0  0  0  0
 13 34  1  0  0  0  0
 13 35  1  0  0  0  0
 14 36  1  0  0  0  0
 14 37  1  0  0  0  0
 15 16  1  0  0  0  0
 16 38  1  0  0  0  0
 16 39  1  0  0  0  0
 17 18  1  0  0  0  0
 17 40  1  0  0  0  0
 17 41  1  0  0  0  0
 18 19  2  0  0  0  0
 18 20  1  0  0  0  0
 19 21  1  0  0  0  0
 19 42  1  0  0  0  0
 20 22  2  0  0  0  0
 20 43  1  0  0  0  0
 21 23  2  0  0  0  0
 21 44  1  0  0  0  0
 22 23  1  0  0  0  0
 22 45  1  0  0  0  0
 23 24  1  0  0  0  0
M  END
> <PUBCHEM_COMPOUND_CID>
56775002

> <PUBCHEM_CONFORMER_RMSD>
0.8

> <PUBCHEM_CONFORMER_DIVERSEORDER>
1
42
13
23
28
45
46
29
27
34
15
18
51
33
41
55
11
3
36
35
4
26
31
38
25
50
57
19
20
21
9
44
22
49
16
24
48
47
53
37
43
8
14
52
12
32
17
30
7
2
40
6
39
56
5
54
10

> <PUBCHEM_MMFF94_PARTIAL_CHARGES>
34
1 -0.56
10 -0.2
11 0.4
12 0.28
13 0.27
14 0.27
15 0.57
16 0.34
17 0.41
18 -0.14
19 -0.15
2 -0.57
20 -0.15
21 -0.15
22 -0.15
23 0.09
24 0.63
25 0.1
27 0.1
28 0.1
29 0.1
3 -0.65
30 0.1
4 -0.57
42 0.15
43 0.15
44 0.15
45 0.15
46 0.5
5 -0.66
6 -0.81
7 -0.19
8 0.3
9 -0.2

> <PUBCHEM_EFFECTIVE_ROTOR_COUNT>
6.8

> <PUBCHEM_PHARMACOPHORE_FEATURES>
9
1 1 acceptor
1 2 acceptor
1 3 acceptor
1 4 acceptor
1 6 cation
3 3 4 24 anion
5 6 8 12 13 14 rings
6 1 5 8 12 15 16 rings
6 18 19 20 21 22 23 rings

> <PUBCHEM_HEAVY_ATOM_COUNT>
24

> <PUBCHEM_ATOM_DEF_STEREO_COUNT>
2

> <PUBCHEM_ATOM_UDEF_STEREO_COUNT>
0

> <PUBCHEM_BOND_DEF_STEREO_COUNT>
0

> <PUBCHEM_BOND_UDEF_STEREO_COUNT>
0

> <PUBCHEM_ISOTOPIC_ATOM_COUNT>
0

> <PUBCHEM_COMPONENT_COUNT>
1

> <PUBCHEM_CACTVS_TAUTO_COUNT>
2

> <PUBCHEM_CONFORMER_ID>
0362515A00000001

> <PUBCHEM_MMFF94_ENERGY>
69.7251

> <PUBCHEM_FEATURE_SELFOVERLAP>
45.882

> <PUBCHEM_SHAPE_FINGERPRINT>
10411042 1 17978793407774205798
10595046 47 18343864407714191321
10835480 77 18408884053518909605
10906281 52 17632032875005607683
11089746 13 18040997297796641315
11135609 127 18341041982345232805
11761917 116 17486758956388514295
12403260 363 18270966722072656376
12788726 201 12901541313154849958
13551218 46 9583522010294360545
13673619 4 11095898067860837968
13836976 161 17988926652557859174
13878862 14 18337092528336318060
13911987 19 17775013439294241329
14251764 30 11167950164361628313
14251764 38 18339085886814037744
14528608 73 18343588477244997132
15183329 4 18269552754873245939
15238133 3 14779544578334886909
15961568 22 18114184176524600148
16120349 189 18049442845081067316
17844677 252 18338525144352123409
18335252 114 18412545436188307644
18335252 98 18338241582918320275
19427546 62 18409730698863088454
200 152 16988276487622585467
20157964 124 18410293609707473774
21033648 29 17095530624932359744
21130935 74 9223228564216668957
21315763 129 18337671901991191768
21315764 268 18187359892013974437
21344244 181 13110969759516101157
21403212 168 18340763837138931232
21641784 216 17275118210126089593
21859007 373 17241312587179586453
22950370 63 9727639405513537890
23081809 10 17703795799621174329
23522609 53 17559699329192682241
23559900 14 18343299240982990051
2838139 119 18261670373088399301
2916195 48 18040154041693725777
29717793 49 18059577944815630782
3004659 81 18271242725155933018
329604 57 17775003470938885305
335352 9 18413113866914968542
3472631 163 17968093161589136977
34797466 226 18059587905087377133
4073 2 18113904904507091346
4325135 7 18131912654491016671
44555599 121 18200883855625495849
474 4 18410016572133619586
5104073 3 18261403255501382258
5283173 99 18264486196444582657
6327066 14 18122347041629019420
67856867 119 18412263930676807666
9971528 1 17821733836168964028

> <PUBCHEM_SHAPE_MULTIPOLES>
460.47
16.71
2.77
1.05
16.91
1.12
-0.09
7.28
3.79
-5.22
0.75
0.21
0.02
0.08

> <PUBCHEM_SHAPE_SELFOVERLAP>
985.593

> <PUBCHEM_SHAPE_VOLUME>
255.8

> <PUBCHEM_COORDINATE_TYPE>
2
5
10

$$$$
