11885911
  -OEChem-12032416113D

 50 53  0     1  0  0  0  0  0999 V2000
   -5.5136   -0.9653   -1.3352 S   0  0  0  0  0  0  0  0  0  0  0  0
   -1.5027    2.2606   -1.4351 O   0  0  0  0  0  0  0  0  0  0  0  0
    2.4681   -0.8741   -2.5161 O   0  0  0  0  0  0  0  0  0  0  0  0
   -3.5729   -1.0439    1.4304 O   0  0  0  0  0  0  0  0  0  0  0  0
    2.9868    0.2747   -0.5448 N   0  0  0  0  0  0  0  0  0  0  0  0
    0.3457    1.9562   -0.0385 N   0  0  0  0  0  0  0  0  0  0  0  0
   -3.2029    0.9464    0.2776 N   0  0  0  0  0  0  0  0  0  0  0  0
    0.7774   -2.0325   -0.2420 N   0  0  0  0  0  0  0  0  0  0  0  0
    2.7007    2.7438   -0.6675 C   0  0  1  0  0  0  0  0  0  0  0  0
    2.3296    1.5742    1.4667 C   0  0  2  0  0  0  0  0  0  0  0  0
    2.9184    2.8364    0.8388 C   0  0  0  0  0  0  0  0  0  0  0  0
    3.4005    1.4957   -1.2355 C   0  0  0  0  0  0  0  0  0  0  0  0
    1.1930    2.7388   -0.9494 C   0  0  0  0  0  0  0  0  0  0  0  0
    3.0680    0.3342    0.9237 C   0  0  0  0  0  0  0  0  0  0  0  0
    0.8467    1.4572    1.1683 C   0  0  0  0  0  0  0  0  0  0  0  0
    0.0271    0.8452    2.0396 C   0  0  0  0  0  0  0  0  0  0  0  0
   -1.0122    1.8238   -0.3930 C   0  0  0  0  0  0  0  0  0  0  0  0
    2.5381   -0.8185   -1.2896 C   0  0  0  0  0  0  0  0  0  0  0  0
   -1.8863    1.1115    0.5923 C   0  0  0  0  0  0  0  0  0  0  0  0
   -1.3663    0.6695    1.7423 C   0  0  0  0  0  0  0  0  0  0  0  0
    2.0885   -2.0087   -0.5603 C   0  0  0  0  0  0  0  0  0  0  0  0
    2.9892   -3.0087   -0.2438 C   0  0  0  0  0  0  0  0  0  0  0  0
   -3.9710   -0.1200    0.7220 C   0  0  0  0  0  0  0  0  0  0  0  0
    2.5098   -4.1142    0.4501 C   0  0  0  0  0  0  0  0  0  0  0  0
    0.3480   -3.1228    0.4323 C   0  0  0  0  0  0  0  0  0  0  0  0
   -5.3973   -0.0604    0.2268 C   0  0  0  0  0  0  0  0  0  0  0  0
    1.1652   -4.1801    0.7984 C   0  0  0  0  0  0  0  0  0  0  0  0
   -7.2756   -0.7190   -1.6586 C   0  0  0  0  0  0  0  0  0  0  0  0
    3.1401    3.6216   -1.1573 H   0  0  0  0  0  0  0  0  0  0  0  0
    2.4876    1.6250    2.5518 H   0  0  0  0  0  0  0  0  0  0  0  0
    2.4365    3.7347    1.2447 H   0  0  0  0  0  0  0  0  0  0  0  0
    3.9884    2.9148    1.0669 H   0  0  0  0  0  0  0  0  0  0  0  0
    3.2147    1.4144   -2.3117 H   0  0  0  0  0  0  0  0  0  0  0  0
    4.4857    1.5835   -1.1017 H   0  0  0  0  0  0  0  0  0  0  0  0
    0.8207    3.7704   -0.8841 H   0  0  0  0  0  0  0  0  0  0  0  0
    0.9957    2.4122   -1.9783 H   0  0  0  0  0  0  0  0  0  0  0  0
    4.1331    0.3877    1.1805 H   0  0  0  0  0  0  0  0  0  0  0  0
    2.6749   -0.5744    1.3869 H   0  0  0  0  0  0  0  0  0  0  0  0
    0.3947    0.4405    2.9768 H   0  0  0  0  0  0  0  0  0  0  0  0
   -1.9452    0.1950    2.5256 H   0  0  0  0  0  0  0  0  0  0  0  0
   -3.5645    1.5073   -0.4899 H   0  0  0  0  0  0  0  0  0  0  0  0
    4.0359   -2.9444   -0.5207 H   0  0  0  0  0  0  0  0  0  0  0  0
    3.1828   -4.9226    0.7194 H   0  0  0  0  0  0  0  0  0  0  0  0
   -0.7081   -3.1242    0.6813 H   0  0  0  0  0  0  0  0  0  0  0  0
   -5.7075    0.9797    0.0855 H   0  0  0  0  0  0  0  0  0  0  0  0
   -6.0466   -0.5174    0.9800 H   0  0  0  0  0  0  0  0  0  0  0  0
    0.7696   -5.0318    1.3398 H   0  0  0  0  0  0  0  0  0  0  0  0
   -7.8746   -1.1518   -0.8531 H   0  0  0  0  0  0  0  0  0  0  0  0
   -7.5426   -1.2149   -2.5955 H   0  0  0  0  0  0  0  0  0  0  0  0
   -7.5000    0.3466   -1.7532 H   0  0  0  0  0  0  0  0  0  0  0  0
  1 26  1  0  0  0  0
  1 28  1  0  0  0  0
  2 17  2  0  0  0  0
  3 18  2  0  0  0  0
  4 23  2  0  0  0  0
  5 12  1  0  0  0  0
  5 14  1  0  0  0  0
  5 18  1  0  0  0  0
  6 13  1  0  0  0  0
  6 15  1  0  0  0  0
  6 17  1  0  0  0  0
  7 19  1  0  0  0  0
  7 23  1  0  0  0  0
  7 41  1  0  0  0  0
  8 21  1  0  0  0  0
  8 25  2  0  0  0  0
  9 11  1  0  0  0  0
  9 12  1  0  0  0  0
  9 13  1  0  0  0  0
  9 29  1  0  0  0  0
 10 11  1  0  0  0  0
 10 14  1  0  0  0  0
 10 15  1  0  0  0  0
 10 30  1  0  0  0  0
 11 31  1  0  0  0  0
 11 32  1  0  0  0  0
 12 33  1  0  0  0  0
 12 34  1  0  0  0  0
 13 35  1  0  0  0  0
 13 36  1  0  0  0  0
 14 37  1  0  0  0  0
 14 38  1  0  0  0  0
 15 16  2  0  0  0  0
 16 20  1  0  0  0  0
 16 39  1  0  0  0  0
 17 19  1  0  0  0  0
 18 21  1  0  0  0  0
 19 20  2  0  0  0  0
 20 40  1  0  0  0  0
 21 22  2  0  0  0  0
 22 24  1  0  0  0  0
 22 42  1  0  0  0  0
 23 26  1  0  0  0  0
 24 27  2  0  0  0  0
 24 43  1  0  0  0  0
 25 27  1  0  0  0  0
 25 44  1  0  0  0  0
 26 45  1  0  0  0  0
 26 46  1  0  0  0  0
 27 47  1  0  0  0  0
 28 48  1  0  0  0  0
 28 49  1  0  0  0  0
 28 50  1  0  0  0  0
M  END
> <PUBCHEM_COMPOUND_CID>
11885911

> <PUBCHEM_CONFORMER_RMSD>
0.8

> <PUBCHEM_CONFORMER_DIVERSEORDER>
1
44
22
52
33
18
58
16
54
12
37
3
35
47
42
55
67
46
45
23
57
11
32
53
30
66
20
39
8
60
56
41
59
31
26
62
15
27
68
2
21
50
64
9
36
63
38
10
13
49
24
19
17
65
40
14
34
4
69
61
7
28
43
6
48
5
25
29
51

> <PUBCHEM_MMFF94_PARTIAL_CHARGES>
33
1 -0.46
10 0.14
12 0.3
13 0.3
14 0.3
15 -0.03
16 -0.15
17 0.62
18 0.54
19 0.12
2 -0.57
20 -0.15
21 0.4
22 -0.15
23 0.57
24 -0.15
25 0.16
26 0.29
27 -0.15
28 0.23
3 -0.57
39 0.15
4 -0.57
40 0.15
41 0.37
42 0.15
43 0.15
44 0.15
47 0.15
5 -0.66
6 -0.47
7 -0.54
8 -0.62

> <PUBCHEM_EFFECTIVE_ROTOR_COUNT>
7

> <PUBCHEM_PHARMACOPHORE_FEATURES>
10
1 2 acceptor
1 28 hydrophobe
1 3 acceptor
1 4 acceptor
1 7 donor
1 8 acceptor
6 5 9 10 11 12 14 rings
6 6 15 16 17 19 20 rings
6 6 9 10 11 13 15 rings
6 8 21 22 24 25 27 rings

> <PUBCHEM_HEAVY_ATOM_COUNT>
28

> <PUBCHEM_ATOM_DEF_STEREO_COUNT>
2

> <PUBCHEM_ATOM_UDEF_STEREO_COUNT>
0

> <PUBCHEM_BOND_DEF_STEREO_COUNT>
0

> <PUBCHEM_BOND_UDEF_STEREO_COUNT>
0

> <PUBCHEM_ISOTOPIC_ATOM_COUNT>
0

> <PUBCHEM_COMPONENT_COUNT>
1

> <PUBCHEM_CACTVS_TAUTO_COUNT>
2

> <PUBCHEM_CONFORMER_ID>
00B55D5700000001

> <PUBCHEM_MMFF94_ENERGY>
80.0814

> <PUBCHEM_FEATURE_SELFOVERLAP>
52.328

> <PUBCHEM_SHAPE_FINGERPRINT>
104564 63 17261606578288762304
10930396 42 18410564099656514440
114674 6 18409172099368315570
11796584 16 17632583738884316637
12156800 1 15048597397340094834
12553582 1 17618809967153749026
1361 2 18264487459085775093
15183329 4 17632859738226085173
17093844 170 18266456688257228457
17134984 74 18268700788107721167
17138139 8 17486199304484094215
17492 54 18190206588296071596
19315092 285 17988631983277864243
20511986 3 17774712152393140629
20691752 17 18188219723360769777
20775438 99 18338501041603151119
20775530 9 17974863765098824291
21285901 2 17821998814450954925
23419403 2 16328445077043368216
23559900 14 18187655686580201291
238 59 18263663834471001466
3052486 1 18048596211777407750
4340502 62 17916021450460162664
463206 1 18200874088716344203
59682541 52 18336808837836536199
6669772 16 18342736369325150552

> <PUBCHEM_SHAPE_MULTIPOLES>
542.54
9.8
4.66
1.8
24.39
4.63
-0.18
1.75
-4.21
-5.75
0.29
0.17
-0.31
-0.3

> <PUBCHEM_SHAPE_SELFOVERLAP>
1158.906

> <PUBCHEM_SHAPE_VOLUME>
301.8

> <PUBCHEM_COORDINATE_TYPE>
2
5
10

$$$$
