75537123
  -OEChem-12032416333D

 47 50  0     1  0  0  0  0  0999 V2000
   -1.3161    2.6379   -0.3604 O   0  0  0  0  0  0  0  0  0  0  0  0
    2.9794   -0.0155    0.1268 N   0  0  2  0  0  0  0  0  0  0  0  0
    0.4484    1.1991    0.2188 N   0  0  0  0  0  0  0  0  0  0  0  0
   -1.6299    0.3523    0.1313 N   0  0  0  0  0  0  0  0  0  0  0  0
    0.5912   -0.1638    0.6882 C   0  0  2  0  0  0  0  0  0  0  0  0
    4.0937   -0.6844   -0.5286 C   0  0  0  0  0  0  0  0  0  0  0  0
    1.7665   -0.8462   -0.0109 C   0  0  0  0  0  0  0  0  0  0  0  0
   -0.7738   -0.7887    0.4076 C   0  0  0  0  0  0  0  0  0  0  0  0
    4.6275   -1.8041    0.3910 C   0  0  0  0  0  0  0  0  0  0  0  0
    5.3982    0.0846   -0.2266 C   0  0  0  0  0  0  0  0  0  0  0  0
   -3.0501    0.2094   -0.0792 C   0  0  0  0  0  0  0  0  0  0  0  0
    2.7818    1.3127   -0.4873 C   0  0  0  0  0  0  0  0  0  0  0  0
    1.6143    2.0574    0.1653 C   0  0  0  0  0  0  0  0  0  0  0  0
    6.0445   -1.2931    0.0445 C   0  0  0  0  0  0  0  0  0  0  0  0
   -0.8866    1.5374   -0.0399 C   0  0  0  0  0  0  0  0  0  0  0  0
   -3.7486   -0.1863    1.2239 C   0  0  0  0  0  0  0  0  0  0  0  0
   -3.3339   -0.8022   -1.1927 C   0  0  0  0  0  0  0  0  0  0  0  0
   -5.2466   -0.3958    1.0183 C   0  0  0  0  0  0  0  0  0  0  0  0
   -4.8326   -1.0093   -1.3955 C   0  0  0  0  0  0  0  0  0  0  0  0
   -5.5271   -1.4016   -0.0946 C   0  0  0  0  0  0  0  0  0  0  0  0
    0.7657   -0.1124    1.7711 H   0  0  0  0  0  0  0  0  0  0  0  0
    3.9642   -0.9666   -1.5807 H   0  0  0  0  0  0  0  0  0  0  0  0
    1.9147   -1.8329    0.4437 H   0  0  0  0  0  0  0  0  0  0  0  0
    1.5372   -1.0072   -1.0734 H   0  0  0  0  0  0  0  0  0  0  0  0
   -0.7442   -1.4350   -0.4748 H   0  0  0  0  0  0  0  0  0  0  0  0
   -1.1365   -1.3578    1.2672 H   0  0  0  0  0  0  0  0  0  0  0  0
    4.4096   -2.8265    0.0702 H   0  0  0  0  0  0  0  0  0  0  0  0
    4.3895   -1.7094    1.4581 H   0  0  0  0  0  0  0  0  0  0  0  0
    5.3983    0.7238    0.6657 H   0  0  0  0  0  0  0  0  0  0  0  0
    5.8282    0.6425   -1.0631 H   0  0  0  0  0  0  0  0  0  0  0  0
   -3.4412    1.1860   -0.3927 H   0  0  0  0  0  0  0  0  0  0  0  0
    2.5853    1.2058   -1.5631 H   0  0  0  0  0  0  0  0  0  0  0  0
    3.6701    1.9450   -0.3822 H   0  0  0  0  0  0  0  0  0  0  0  0
    1.8617    2.3350    1.1963 H   0  0  0  0  0  0  0  0  0  0  0  0
    1.3705    2.9724   -0.3837 H   0  0  0  0  0  0  0  0  0  0  0  0
    6.7748   -1.3259    0.8566 H   0  0  0  0  0  0  0  0  0  0  0  0
    6.4774   -1.7613   -0.8471 H   0  0  0  0  0  0  0  0  0  0  0  0
   -3.3230   -1.1126    1.6282 H   0  0  0  0  0  0  0  0  0  0  0  0
   -3.5874    0.5865    1.9856 H   0  0  0  0  0  0  0  0  0  0  0  0
   -2.8889   -1.7769   -0.9582 H   0  0  0  0  0  0  0  0  0  0  0  0
   -2.8776   -0.4671   -2.1321 H   0  0  0  0  0  0  0  0  0  0  0  0
   -5.7178    0.5633    0.7703 H   0  0  0  0  0  0  0  0  0  0  0  0
   -5.7025   -0.7427    1.9525 H   0  0  0  0  0  0  0  0  0  0  0  0
   -4.9991   -1.7855   -2.1510 H   0  0  0  0  0  0  0  0  0  0  0  0
   -5.2789   -0.0853   -1.7834 H   0  0  0  0  0  0  0  0  0  0  0  0
   -6.6077   -1.4754   -0.2612 H   0  0  0  0  0  0  0  0  0  0  0  0
   -5.1830   -2.3955    0.2172 H   0  0  0  0  0  0  0  0  0  0  0  0
  1 15  2  0  0  0  0
  2  6  1  0  0  0  0
  2  7  1  0  0  0  0
  2 12  1  0  0  0  0
  3  5  1  0  0  0  0
  3 13  1  0  0  0  0
  3 15  1  0  0  0  0
  4  8  1  0  0  0  0
  4 11  1  0  0  0  0
  4 15  1  0  0  0  0
  5  7  1  0  0  0  0
  5  8  1  0  0  0  0
  5 21  1  0  0  0  0
  6  9  1  0  0  0  0
  6 10  1  0  0  0  0
  6 22  1  0  0  0  0
  7 23  1  0  0  0  0
  7 24  1  0  0  0  0
  8 25  1  0  0  0  0
  8 26  1  0  0  0  0
  9 14  1  0  0  0  0
  9 27  1  0  0  0  0
  9 28  1  0  0  0  0
 10 14  1  0  0  0  0
 10 29  1  0  0  0  0
 10 30  1  0  0  0  0
 11 16  1  0  0  0  0
 11 17  1  0  0  0  0
 11 31  1  0  0  0  0
 12 13  1  0  0  0  0
 12 32  1  0  0  0  0
 12 33  1  0  0  0  0
 13 34  1  0  0  0  0
 13 35  1  0  0  0  0
 14 36  1  0  0  0  0
 14 37  1  0  0  0  0
 16 18  1  0  0  0  0
 16 38  1  0  0  0  0
 16 39  1  0  0  0  0
 17 19  1  0  0  0  0
 17 40  1  0  0  0  0
 17 41  1  0  0  0  0
 18 20  1  0  0  0  0
 18 42  1  0  0  0  0
 18 43  1  0  0  0  0
 19 20  1  0  0  0  0
 19 44  1  0  0  0  0
 19 45  1  0  0  0  0
 20 46  1  0  0  0  0
 20 47  1  0  0  0  0
M  END
> <PUBCHEM_COMPOUND_CID>
75537123

> <PUBCHEM_CONFORMER_RMSD>
0.8

> <PUBCHEM_CONFORMER_DIVERSEORDER>
1
6
9
3
5
7
4
8
2

> <PUBCHEM_MMFF94_PARTIAL_CHARGES>
12
1 -0.57
11 0.3
12 0.27
13 0.3
15 0.69
2 -0.75
3 -0.66
4 -0.66
5 0.3
6 0.21
7 0.27
8 0.3

> <PUBCHEM_EFFECTIVE_ROTOR_COUNT>
5.2

> <PUBCHEM_PHARMACOPHORE_FEATURES>
6
1 1 acceptor
1 2 cation
4 6 9 10 14 rings
5 3 4 5 8 15 rings
6 11 16 17 18 19 20 rings
6 2 3 5 7 12 13 rings

> <PUBCHEM_HEAVY_ATOM_COUNT>
20

> <PUBCHEM_ATOM_DEF_STEREO_COUNT>
1

> <PUBCHEM_ATOM_UDEF_STEREO_COUNT>
0

> <PUBCHEM_BOND_DEF_STEREO_COUNT>
0

> <PUBCHEM_BOND_UDEF_STEREO_COUNT>
0

> <PUBCHEM_ISOTOPIC_ATOM_COUNT>
0

> <PUBCHEM_COMPONENT_COUNT>
1

> <PUBCHEM_CACTVS_TAUTO_COUNT>
1

> <PUBCHEM_CONFORMER_ID>
04809AE300000001

> <PUBCHEM_MMFF94_ENERGY>
42.7121

> <PUBCHEM_FEATURE_SELFOVERLAP>
30.543

> <PUBCHEM_SHAPE_FINGERPRINT>
10 15 12535338013336485198
10447042 23 18260544511947077414
10493431 412 9871744710853853876
12166972 35 17313110764860325044
12236239 1 18060142076591699907
12507557 5 11672059766292804187
12553582 1 18337660966978219059
12596602 18 16486972907969575818
12616971 3 18272939349180873789
12670543 26 17968087604075347455
12760667 363 18410294683581478562
12892183 10 14764078830408751141
13288520 33 18413389821867095503
13533116 47 18340770429323023352
13583140 156 15338834214528964283
13675066 3 14045744819955680080
13685833 64 18335707169539370395
13740256 8 18409451418419117035
13760787 5 18336550498930899949
13862211 1 18409728452489463802
13955234 65 18197214965411436352
14251752 14 18041835117594631765
14350574 20 18259705618375432567
14508225 48 18187079550872168180
14576447 43 18335699417249942914
15183329 4 14707201081435903714
15188451 53 16343408610116544415
15196674 1 18409168800854667332
15348495 7 14476950216590675054
15788980 27 18410292510433216479
17349148 13 18342742913985001586
17492 89 18122062005955582706
17857418 61 18272650160031696359
1813 80 18341063959708425381
18186145 218 17385721426316775753
18222031 100 18340757208738121787
19141452 34 17988925586999755367
19489759 90 14418134015115438719
19784866 140 18114178618577598475
200 152 18410573976566817329
20028762 73 18059852891500821438
20374829 77 18411134727744889981
20612939 158 18335984271732939029
20645477 70 18261390095768961730
21236236 1 18337955584623531065
21267235 1 18410019835596809243
21637258 2 17632284705727703303
221357 26 18187638120427809069
22182313 1 18190435286219653612
22950370 63 18412829100948979247
23175994 123 17968099750543787549
23402539 116 18409166584561391205
23522609 53 18124629502523322704
23559900 14 17749674094304697984
25147074 1 18339943553197070872
2767999 5 8214142941081720134
2838139 119 11674877805488005526
2871803 45 18114177536230015408
296302 2 9439407925845283809
3004659 81 18040155102798625930
314194 84 18411702084419607866
3286 77 17489300931895862417
34797466 226 16008761228799635166
351380 3 18342174462252528374
4259306 186 18333730204150037150
4340502 62 14405190568564903876
4463277 17 18410858750184153313
465052 167 18341900726590620462
5104073 3 17488749020609876307
559249 180 18202562865810006039
59682541 35 18270954752805800960
59682541 52 13840529728107066138
7495541 125 17968388943012174802
76465 3 18341608205289898494
7970288 3 18411133641013623935
8863177 126 17970922274154650019

> <PUBCHEM_SHAPE_MULTIPOLES>
390.78
13.51
1.92
0.99
2.49
0.96
-0.07
-7.91
-0.53
0.72
-0.14
-1.17
-0.19
-0.55

> <PUBCHEM_SHAPE_SELFOVERLAP>
817.327

> <PUBCHEM_SHAPE_VOLUME>
222

> <PUBCHEM_COORDINATE_TYPE>
2
5
10

$$$$
