7134581
  -OEChem-12032416123D

 69 70  0     1  0  0  0  0  0999 V2000
    8.0984    0.0510   -0.4551 S   0  0  0  0  0  0  0  0  0  0  0  0
    0.3819   -0.7412    1.6682 O   0  0  0  0  0  0  0  0  0  0  0  0
   -0.1819    3.5469    1.6265 O   0  0  0  0  0  0  0  0  0  0  0  0
    0.5613   -3.9290   -0.7370 O   0  0  0  0  0  0  0  0  0  0  0  0
    5.5619   -1.1722    0.8640 O   0  0  0  0  0  0  0  0  0  0  0  0
   -4.4626    4.6750   -0.4880 O   0  0  0  0  0  0  0  0  0  0  0  0
   -3.7368    2.8555   -1.6400 O   0  0  0  0  0  0  0  0  0  0  0  0
    0.7691    1.6903    0.5922 N   0  0  0  0  0  0  0  0  0  0  0  0
   -0.6519   -1.4619   -0.2892 N   0  0  0  0  0  0  0  0  0  0  0  0
    4.4040   -0.0290   -0.7960 N   0  0  0  0  0  0  0  0  0  0  0  0
   -0.3730   -4.6831    1.2207 N   0  0  0  0  0  0  0  0  0  0  0  0
   -3.6095   -1.8608   -0.4433 C   0  0  0  0  0  0  0  0  0  0  0  0
   -3.9446   -1.4588    0.9994 C   0  0  0  0  0  0  0  0  0  0  0  0
   -4.8780   -2.2647   -1.2067 C   0  0  0  0  0  0  0  0  0  0  0  0
   -2.5843   -2.9929   -0.4634 C   0  0  0  0  0  0  0  0  0  0  0  0
    0.6568    0.5452   -0.3258 C   0  0  1  0  0  0  0  0  0  0  0  0
   -5.0082   -0.3640    1.0470 C   0  0  0  0  0  0  0  0  0  0  0  0
   -5.9399   -1.1686   -1.1555 C   0  0  0  0  0  0  0  0  0  0  0  0
    3.1748    0.1735   -0.0678 C   0  0  2  0  0  0  0  0  0  0  0  0
    1.9757    0.1979   -1.0200 C   0  0  0  0  0  0  0  0  0  0  0  0
   -6.2642   -0.7656    0.2797 C   0  0  0  0  0  0  0  0  0  0  0  0
   -1.2652   -2.6583    0.2402 C   0  0  1  0  0  0  0  0  0  0  0  0
    3.2353    1.4677    0.7404 C   0  0  0  0  0  0  0  0  0  0  0  0
    1.9303    1.7013    1.4899 C   0  0  0  0  0  0  0  0  0  0  0  0
    0.1211   -0.6051    0.4757 C   0  0  0  0  0  0  0  0  0  0  0  0
   -0.2196    2.6665    0.7626 C   0  0  0  0  0  0  0  0  0  0  0  0
   -0.2550   -3.7961    0.1719 C   0  0  0  0  0  0  0  0  0  0  0  0
   -1.3887    2.6235   -0.1901 C   0  0  0  0  0  0  0  0  0  0  0  0
    5.5018   -0.6892   -0.2655 C   0  0  0  0  0  0  0  0  0  0  0  0
   -2.3569    3.7428    0.1342 C   0  0  0  0  0  0  0  0  0  0  0  0
    6.6707   -0.7539   -1.2202 C   0  0  0  0  0  0  0  0  0  0  0  0
   -3.5736    3.6867   -0.7562 C   0  0  0  0  0  0  0  0  0  0  0  0
    7.6510    1.7703   -0.7927 C   0  0  0  0  0  0  0  0  0  0  0  0
   -3.1845   -0.9856   -0.9531 H   0  0  0  0  0  0  0  0  0  0  0  0
   -3.0603   -1.0758    1.5185 H   0  0  0  0  0  0  0  0  0  0  0  0
   -4.2972   -2.3327    1.5617 H   0  0  0  0  0  0  0  0  0  0  0  0
   -5.2927   -3.1874   -0.7809 H   0  0  0  0  0  0  0  0  0  0  0  0
   -4.6326   -2.4803   -2.2535 H   0  0  0  0  0  0  0  0  0  0  0  0
   -3.0135   -3.8957   -0.0090 H   0  0  0  0  0  0  0  0  0  0  0  0
   -2.3706   -3.2585   -1.5080 H   0  0  0  0  0  0  0  0  0  0  0  0
   -0.0671    0.7777   -1.1117 H   0  0  0  0  0  0  0  0  0  0  0  0
   -5.2672   -0.1465    2.0894 H   0  0  0  0  0  0  0  0  0  0  0  0
   -4.5995    0.5604    0.6201 H   0  0  0  0  0  0  0  0  0  0  0  0
   -5.5849   -0.2908   -1.7095 H   0  0  0  0  0  0  0  0  0  0  0  0
   -6.8512   -1.5148   -1.6559 H   0  0  0  0  0  0  0  0  0  0  0  0
    3.0583   -0.6679    0.6271 H   0  0  0  0  0  0  0  0  0  0  0  0
    2.1608    0.9515   -1.7985 H   0  0  0  0  0  0  0  0  0  0  0  0
    1.8970   -0.7653   -1.5401 H   0  0  0  0  0  0  0  0  0  0  0  0
   -6.7526   -1.6034    0.7924 H   0  0  0  0  0  0  0  0  0  0  0  0
   -6.9767    0.0669    0.2771 H   0  0  0  0  0  0  0  0  0  0  0  0
   -1.4569   -2.4800    1.3050 H   0  0  0  0  0  0  0  0  0  0  0  0
    4.0682    1.4364    1.4530 H   0  0  0  0  0  0  0  0  0  0  0  0
    3.4297    2.3149    0.0693 H   0  0  0  0  0  0  0  0  0  0  0  0
    1.7955    0.9568    2.2786 H   0  0  0  0  0  0  0  0  0  0  0  0
    1.9937    2.6686    2.0009 H   0  0  0  0  0  0  0  0  0  0  0  0
   -0.7303   -1.2963   -1.2886 H   0  0  0  0  0  0  0  0  0  0  0  0
    4.4807    0.3920   -1.7173 H   0  0  0  0  0  0  0  0  0  0  0  0
   -1.8928    1.6549   -0.0960 H   0  0  0  0  0  0  0  0  0  0  0  0
   -1.0217    2.7361   -1.2163 H   0  0  0  0  0  0  0  0  0  0  0  0
    0.2362   -5.4915    1.2891 H   0  0  0  0  0  0  0  0  0  0  0  0
   -1.0652   -4.5727    1.9548 H   0  0  0  0  0  0  0  0  0  0  0  0
   -2.7028    3.6647    1.1717 H   0  0  0  0  0  0  0  0  0  0  0  0
   -1.8775    4.7183   -0.0071 H   0  0  0  0  0  0  0  0  0  0  0  0
    6.9047   -1.8101   -1.3883 H   0  0  0  0  0  0  0  0  0  0  0  0
    6.4497   -0.3058   -2.1931 H   0  0  0  0  0  0  0  0  0  0  0  0
    7.5504    1.9361   -1.8684 H   0  0  0  0  0  0  0  0  0  0  0  0
    6.7167    2.0323   -0.2896 H   0  0  0  0  0  0  0  0  0  0  0  0
    8.4403    2.4258   -0.4150 H   0  0  0  0  0  0  0  0  0  0  0  0
   -5.2443    4.6346   -1.0794 H   0  0  0  0  0  0  0  0  0  0  0  0
  1 31  1  0  0  0  0
  1 33  1  0  0  0  0
  2 25  2  0  0  0  0
  3 26  2  0  0  0  0
  4 27  2  0  0  0  0
  5 29  2  0  0  0  0
  6 32  1  0  0  0  0
  6 69  1  0  0  0  0
  7 32  2  0  0  0  0
  8 16  1  0  0  0  0
  8 24  1  0  0  0  0
  8 26  1  0  0  0  0
  9 22  1  0  0  0  0
  9 25  1  0  0  0  0
  9 56  1  0  0  0  0
 10 19  1  0  0  0  0
 10 29  1  0  0  0  0
 10 57  1  0  0  0  0
 11 27  1  0  0  0  0
 11 60  1  0  0  0  0
 11 61  1  0  0  0  0
 12 13  1  0  0  0  0
 12 14  1  0  0  0  0
 12 15  1  0  0  0  0
 12 34  1  0  0  0  0
 13 17  1  0  0  0  0
 13 35  1  0  0  0  0
 13 36  1  0  0  0  0
 14 18  1  0  0  0  0
 14 37  1  0  0  0  0
 14 38  1  0  0  0  0
 15 22  1  0  0  0  0
 15 39  1  0  0  0  0
 15 40  1  0  0  0  0
 16 20  1  0  0  0  0
 16 25  1  0  0  0  0
 16 41  1  0  0  0  0
 17 21  1  0  0  0  0
 17 42  1  0  0  0  0
 17 43  1  0  0  0  0
 18 21  1  0  0  0  0
 18 44  1  0  0  0  0
 18 45  1  0  0  0  0
 19 20  1  0  0  0  0
 19 23  1  0  0  0  0
 19 46  1  0  0  0  0
 20 47  1  0  0  0  0
 20 48  1  0  0  0  0
 21 49  1  0  0  0  0
 21 50  1  0  0  0  0
 22 27  1  0  0  0  0
 22 51  1  0  0  0  0
 23 24  1  0  0  0  0
 23 52  1  0  0  0  0
 23 53  1  0  0  0  0
 24 54  1  0  0  0  0
 24 55  1  0  0  0  0
 26 28  1  0  0  0  0
 28 30  1  0  0  0  0
 28 58  1  0  0  0  0
 28 59  1  0  0  0  0
 29 31  1  0  0  0  0
 30 32  1  0  0  0  0
 30 62  1  0  0  0  0
 30 63  1  0  0  0  0
 31 64  1  0  0  0  0
 31 65  1  0  0  0  0
 33 66  1  0  0  0  0
 33 67  1  0  0  0  0
 33 68  1  0  0  0  0
M  END
> <PUBCHEM_COMPOUND_CID>
7134581

> <PUBCHEM_CONFORMER_RMSD>
1.4

> <PUBCHEM_CONFORMER_DIVERSEORDER>
1
7
12
6
9
3
11
4
10
2
8
5

> <PUBCHEM_MMFF94_PARTIAL_CHARGES>
29
1 -0.46
10 -0.73
11 -0.8
16 0.36
19 0.3
2 -0.57
22 0.36
24 0.3
25 0.57
26 0.57
27 0.57
28 0.06
29 0.57
3 -0.57
30 0.06
31 0.29
32 0.66
33 0.23
4 -0.57
5 -0.57
56 0.37
57 0.37
6 -0.65
60 0.37
61 0.37
69 0.5
7 -0.57
8 -0.66
9 -0.73

> <PUBCHEM_EFFECTIVE_ROTOR_COUNT>
16.4

> <PUBCHEM_PHARMACOPHORE_FEATURES>
13
1 10 donor
1 11 donor
1 2 acceptor
1 3 acceptor
1 33 hydrophobe
1 4 acceptor
1 5 acceptor
1 6 acceptor
1 7 acceptor
1 9 donor
3 6 7 32 anion
6 12 13 14 17 18 21 rings
6 8 16 19 20 23 24 rings

> <PUBCHEM_HEAVY_ATOM_COUNT>
33

> <PUBCHEM_ATOM_DEF_STEREO_COUNT>
3

> <PUBCHEM_ATOM_UDEF_STEREO_COUNT>
0

> <PUBCHEM_BOND_DEF_STEREO_COUNT>
0

> <PUBCHEM_BOND_UDEF_STEREO_COUNT>
0

> <PUBCHEM_ISOTOPIC_ATOM_COUNT>
0

> <PUBCHEM_COMPONENT_COUNT>
1

> <PUBCHEM_CACTVS_TAUTO_COUNT>
8

> <PUBCHEM_CONFORMER_ID>
006CDD7500000001

> <PUBCHEM_MMFF94_ENERGY>
58.0803

> <PUBCHEM_FEATURE_SELFOVERLAP>
66.032

> <PUBCHEM_SHAPE_FINGERPRINT>
10670039 82 18335135389111803605
12293681 25 17488195785608591756
12645989 146 18200025295857467159
12788726 201 18410009931977530266
12857493 111 18272650194888184208
15183329 4 18411697720632842038
15276724 80 18412547647806171860
15351339 4 18265321837918655307
15361156 5 18268431420411462614
15927050 60 17910120113739292951
20764821 26 17979345366810325127
23559900 14 18128253600596512770
25223398 141 18334859402718831572
437815 12 17846224396994929474
4409770 3 18410012117941407597
5171179 24 18201146767294565081
5265222 85 18409452496635340732
6036956 94 18117572923549008740
6328613 192 18266465489262390046
7226269 152 18409169939121331702
7237137 82 18408609149842357036

> <PUBCHEM_SHAPE_MULTIPOLES>
627.83
16.42
5.76
1.31
25.55
1.92
0.13
-0.84
-5.51
-7.63
0.1
-0.29
0.18
0.69

> <PUBCHEM_SHAPE_SELFOVERLAP>
1253.02

> <PUBCHEM_SHAPE_VOLUME>
369.7

> <PUBCHEM_COORDINATE_TYPE>
2
5
10

$$$$
