45361433
  -OEChem-12032416133D

 76 79  0     1  0  0  0  0  0999 V2000
   -1.4876    1.2692   -1.8679 O   0  0  0  0  0  0  0  0  0  0  0  0
   -6.1684    2.2888    0.5033 O   0  0  0  0  0  0  0  0  0  0  0  0
    4.0044   -2.4274   -0.0489 O   0  0  0  0  0  0  0  0  0  0  0  0
    3.2929   -0.2336    0.1888 N   0  0  0  0  0  0  0  0  0  0  0  0
   -5.7774    0.3887   -0.7682 N   0  0  0  0  0  0  0  0  0  0  0  0
   10.7130    0.9485   -0.7311 N   0  0  0  0  0  0  0  0  0  0  0  0
   -0.7271    0.1148    1.6909 C   0  0  1  0  0  0  0  0  0  0  0  0
   -0.5275    0.2911    0.1487 C   0  0  2  0  0  0  0  0  0  0  0  0
    0.9774    0.5883   -0.1899 C   0  0  1  0  0  0  0  0  0  0  0  0
   -1.5567    1.2975   -0.4414 C   0  0  2  0  0  0  0  0  0  0  0  0
   -2.1928   -0.2875    1.9789 C   0  0  0  0  0  0  0  0  0  0  0  0
   -3.0147    0.9479   -0.0625 C   0  0  1  0  0  0  0  0  0  0  0  0
    0.1824   -1.0322    2.1891 C   0  0  0  0  0  0  0  0  0  0  0  0
    1.8896   -0.5336    0.3814 C   0  0  2  0  0  0  0  0  0  0  0  0
   -3.2020    0.7158    1.4367 C   0  0  0  0  0  0  0  0  0  0  0  0
    1.6532   -0.8123    1.8653 C   0  0  0  0  0  0  0  0  0  0  0  0
   -0.4002    1.4058    2.4836 C   0  0  0  0  0  0  0  0  0  0  0  0
   -4.0002    2.0209   -0.5419 C   0  0  2  0  0  0  0  0  0  0  0  0
    1.2506    0.7448   -1.6953 C   0  0  0  0  0  0  0  0  0  0  0  0
   -3.6504    3.3693    0.0780 C   0  0  0  0  0  0  0  0  0  0  0  0
   -5.4278    1.6054   -0.2006 C   0  0  0  0  0  0  0  0  0  0  0  0
    4.2405   -1.2227   -0.0123 C   0  0  0  0  0  0  0  0  0  0  0  0
   -7.0790   -0.2143   -0.5857 C   0  0  0  0  0  0  0  0  0  0  0  0
   -7.4915   -1.0188   -1.8229 C   0  0  0  0  0  0  0  0  0  0  0  0
   -7.1124   -1.0814    0.6774 C   0  0  0  0  0  0  0  0  0  0  0  0
    5.6413   -0.7527   -0.1668 C   0  0  0  0  0  0  0  0  0  0  0  0
   -6.6887   -2.3109   -1.9748 C   0  0  0  0  0  0  0  0  0  0  0  0
   -6.3101   -2.3732    0.5214 C   0  0  0  0  0  0  0  0  0  0  0  0
   -6.7462   -3.1617   -0.7097 C   0  0  0  0  0  0  0  0  0  0  0  0
    6.7008   -1.5904    0.1816 C   0  0  0  0  0  0  0  0  0  0  0  0
    5.8967    0.5262   -0.6618 C   0  0  0  0  0  0  0  0  0  0  0  0
    8.0158   -1.1491    0.0349 C   0  0  0  0  0  0  0  0  0  0  0  0
    7.2118    0.9673   -0.8084 C   0  0  0  0  0  0  0  0  0  0  0  0
    8.2715    0.1296   -0.4602 C   0  0  0  0  0  0  0  0  0  0  0  0
    9.6188    0.5816   -0.6097 C   0  0  0  0  0  0  0  0  0  0  0  0
   -0.7468   -0.6795   -0.3246 H   0  0  0  0  0  0  0  0  0  0  0  0
    1.2633    1.5414    0.2728 H   0  0  0  0  0  0  0  0  0  0  0  0
   -1.2646    2.2990   -0.1214 H   0  0  0  0  0  0  0  0  0  0  0  0
   -2.4018   -1.2685    1.5310 H   0  0  0  0  0  0  0  0  0  0  0  0
   -2.3492   -0.4058    3.0588 H   0  0  0  0  0  0  0  0  0  0  0  0
   -3.2445    0.0002   -0.5672 H   0  0  0  0  0  0  0  0  0  0  0  0
    0.0703   -1.1627    3.2730 H   0  0  0  0  0  0  0  0  0  0  0  0
   -0.1348   -1.9792    1.7320 H   0  0  0  0  0  0  0  0  0  0  0  0
    1.6692   -1.4586   -0.1693 H   0  0  0  0  0  0  0  0  0  0  0  0
   -3.1163    1.6349    2.0201 H   0  0  0  0  0  0  0  0  0  0  0  0
   -4.2011    0.3178    1.6477 H   0  0  0  0  0  0  0  0  0  0  0  0
    2.2186   -1.7023    2.1709 H   0  0  0  0  0  0  0  0  0  0  0  0
    2.0541    0.0082    2.4729 H   0  0  0  0  0  0  0  0  0  0  0  0
    0.6460    1.7077    2.3902 H   0  0  0  0  0  0  0  0  0  0  0  0
   -0.5957    1.2610    3.5526 H   0  0  0  0  0  0  0  0  0  0  0  0
   -0.9989    2.2607    2.1572 H   0  0  0  0  0  0  0  0  0  0  0  0
   -3.9508    2.1176   -1.6341 H   0  0  0  0  0  0  0  0  0  0  0  0
    0.8256    1.6765   -2.0790 H   0  0  0  0  0  0  0  0  0  0  0  0
    2.3221    0.8024   -1.9127 H   0  0  0  0  0  0  0  0  0  0  0  0
    0.8423   -0.0975   -2.2632 H   0  0  0  0  0  0  0  0  0  0  0  0
    3.5773    0.7312    0.3220 H   0  0  0  0  0  0  0  0  0  0  0  0
   -1.6912    0.3652   -2.1627 H   0  0  0  0  0  0  0  0  0  0  0  0
   -2.6787    3.7509   -0.2429 H   0  0  0  0  0  0  0  0  0  0  0  0
   -4.3801    4.1177   -0.2581 H   0  0  0  0  0  0  0  0  0  0  0  0
   -3.6987    3.3878    1.1691 H   0  0  0  0  0  0  0  0  0  0  0  0
   -5.1078   -0.0996   -1.3530 H   0  0  0  0  0  0  0  0  0  0  0  0
   -7.7999    0.6026   -0.4561 H   0  0  0  0  0  0  0  0  0  0  0  0
   -7.3763   -0.4110   -2.7284 H   0  0  0  0  0  0  0  0  0  0  0  0
   -8.5563   -1.2731   -1.7440 H   0  0  0  0  0  0  0  0  0  0  0  0
   -8.1548   -1.3408    0.9026 H   0  0  0  0  0  0  0  0  0  0  0  0
   -6.7334   -0.5210    1.5403 H   0  0  0  0  0  0  0  0  0  0  0  0
   -7.0830   -2.8869   -2.8198 H   0  0  0  0  0  0  0  0  0  0  0  0
   -5.6441   -2.0799   -2.2143 H   0  0  0  0  0  0  0  0  0  0  0  0
   -5.2414   -2.1376    0.4458 H   0  0  0  0  0  0  0  0  0  0  0  0
   -6.4348   -2.9924    1.4170 H   0  0  0  0  0  0  0  0  0  0  0  0
   -7.7700   -3.5276   -0.5634 H   0  0  0  0  0  0  0  0  0  0  0  0
   -6.1067   -4.0435   -0.8288 H   0  0  0  0  0  0  0  0  0  0  0  0
    6.5221   -2.5884    0.5730 H   0  0  0  0  0  0  0  0  0  0  0  0
    5.1024    1.1978   -0.9739 H   0  0  0  0  0  0  0  0  0  0  0  0
    8.8312   -1.8132    0.3118 H   0  0  0  0  0  0  0  0  0  0  0  0
    7.3957    1.9643   -1.2019 H   0  0  0  0  0  0  0  0  0  0  0  0
  1 10  1  0  0  0  0
  1 57  1  0  0  0  0
  2 21  2  0  0  0  0
  3 22  2  0  0  0  0
  4 14  1  0  0  0  0
  4 22  1  0  0  0  0
  4 56  1  0  0  0  0
  5 21  1  0  0  0  0
  5 23  1  0  0  0  0
  5 61  1  0  0  0  0
  6 35  3  0  0  0  0
  7  8  1  0  0  0  0
  7 11  1  0  0  0  0
  7 13  1  0  0  0  0
  7 17  1  0  0  0  0
  8  9  1  0  0  0  0
  8 10  1  0  0  0  0
  8 36  1  0  0  0  0
  9 14  1  0  0  0  0
  9 19  1  0  0  0  0
  9 37  1  0  0  0  0
 10 12  1  0  0  0  0
 10 38  1  0  0  0  0
 11 15  1  0  0  0  0
 11 39  1  0  0  0  0
 11 40  1  0  0  0  0
 12 15  1  0  0  0  0
 12 18  1  0  0  0  0
 12 41  1  0  0  0  0
 13 16  1  0  0  0  0
 13 42  1  0  0  0  0
 13 43  1  0  0  0  0
 14 16  1  0  0  0  0
 14 44  1  0  0  0  0
 15 45  1  0  0  0  0
 15 46  1  0  0  0  0
 16 47  1  0  0  0  0
 16 48  1  0  0  0  0
 17 49  1  0  0  0  0
 17 50  1  0  0  0  0
 17 51  1  0  0  0  0
 18 20  1  0  0  0  0
 18 21  1  0  0  0  0
 18 52  1  0  0  0  0
 19 53  1  0  0  0  0
 19 54  1  0  0  0  0
 19 55  1  0  0  0  0
 20 58  1  0  0  0  0
 20 59  1  0  0  0  0
 20 60  1  0  0  0  0
 22 26  1  0  0  0  0
 23 24  1  0  0  0  0
 23 25  1  0  0  0  0
 23 62  1  0  0  0  0
 24 27  1  0  0  0  0
 24 63  1  0  0  0  0
 24 64  1  0  0  0  0
 25 28  1  0  0  0  0
 25 65  1  0  0  0  0
 25 66  1  0  0  0  0
 26 30  2  0  0  0  0
 26 31  1  0  0  0  0
 27 29  1  0  0  0  0
 27 67  1  0  0  0  0
 27 68  1  0  0  0  0
 28 29  1  0  0  0  0
 28 69  1  0  0  0  0
 28 70  1  0  0  0  0
 29 71  1  0  0  0  0
 29 72  1  0  0  0  0
 30 32  1  0  0  0  0
 30 73  1  0  0  0  0
 31 33  2  0  0  0  0
 31 74  1  0  0  0  0
 32 34  2  0  0  0  0
 32 75  1  0  0  0  0
 33 34  1  0  0  0  0
 33 76  1  0  0  0  0
 34 35  1  0  0  0  0
M  END
> <PUBCHEM_COMPOUND_CID>
45361433

> <PUBCHEM_CONFORMER_RMSD>
1

> <PUBCHEM_CONFORMER_DIVERSEORDER>
1
7
59
70
115
108
116
86
113
119
43
104
103
34
76
101
78
89
48
121
96
33
62
123
84
54
16
60
100
110
21
26
118
97
27
50
92
112
37
32
58
122
83
9
99
45
56
95
51
12
87
102
61
63
77
15
120
67
94
49
41
38
114
73
13
79
17
47
109
111
8
30
74
24
55
117
20
42
90
6
93
69
105
81
25
66
46
44
29
18
35
39
82
107
57
72
71
36
98
85
124
106
40
28
19
91
75
88
53
3
10
11
4
65
68
14
2
80
64
22
5
23
52
31

> <PUBCHEM_MMFF94_PARTIAL_CHARGES>
26
1 -0.68
10 0.28
14 0.3
18 0.06
2 -0.57
21 0.57
22 0.54
23 0.3
26 0.09
3 -0.57
30 -0.15
31 -0.15
32 -0.15
33 -0.15
34 0.07
35 0.48
4 -0.73
5 -0.73
56 0.37
57 0.4
6 -0.56
61 0.37
73 0.15
74 0.15
75 0.15
76 0.15

> <PUBCHEM_EFFECTIVE_ROTOR_COUNT>
9.8

> <PUBCHEM_PHARMACOPHORE_FEATURES>
12
1 1 acceptor
1 1 donor
1 2 acceptor
1 20 hydrophobe
1 3 acceptor
1 4 donor
1 5 donor
1 6 acceptor
6 23 24 25 27 28 29 rings
6 26 30 31 32 33 34 rings
6 7 8 10 11 12 15 rings
6 7 8 9 13 14 16 rings

> <PUBCHEM_HEAVY_ATOM_COUNT>
35

> <PUBCHEM_ATOM_DEF_STEREO_COUNT>
6

> <PUBCHEM_ATOM_UDEF_STEREO_COUNT>
1

> <PUBCHEM_BOND_DEF_STEREO_COUNT>
0

> <PUBCHEM_BOND_UDEF_STEREO_COUNT>
0

> <PUBCHEM_ISOTOPIC_ATOM_COUNT>
0

> <PUBCHEM_COMPONENT_COUNT>
1

> <PUBCHEM_CACTVS_TAUTO_COUNT>
4

> <PUBCHEM_CONFORMER_ID>
02B4291900000001

> <PUBCHEM_MMFF94_ENERGY>
87.04

> <PUBCHEM_FEATURE_SELFOVERLAP>
60.912

> <PUBCHEM_SHAPE_FINGERPRINT>
10076449 9 17632296791259284883
10162869 55 18187363260265009404
10190206 1 18113616798649378195
10533779 1 7780702298757220871
10577160 103 18115030830252068880
10577160 183 13695862662250296313
10674148 151 11455888049599753974
11135926 11 16443349737219366497
11477941 20 18113333107796701197
117089 54 18121497123694626855
12082328 90 18342174427692011892
12106331 60 15698000695812246707
12373685 5 17676480649559500530
12838862 33 16515678962422247580
13165053 68 18125436664469272822
1361 4 18270960133398528951
13690498 29 18271516555549435285
13782708 43 17988918990346667831
13811026 1 17386012797035098080
13914758 101 8574711321159049500
14142895 15 18409168848995788596
14444916 359 14261636131783646276
14856354 85 17703789198652578961
15392192 29 18413389861603398359
15461852 350 18412268333171189046
15728490 51 18408041822789448238
16989713 51 17988912406288274735
17324776 126 16410663666420030687
17686467 74 18409164437078457696
20105231 36 15410894063714886572
21033648 29 18186517744745850600
21133410 32 15936979673596933075
21150785 3 18410855451812546842
21267235 1 14620791596395750232
21585482 57 17968379043856421452
21781051 124 16988560234341447350
21792961 116 17060623274534991606
21867018 265 18342458174675156846
21927370 108 15985110707990113090
22149856 69 10303812074083463902
24771293 8 17749394732932237636
2747138 104 16343699928710131914
3178227 256 15482668000373644958
335507 130 18335428967348623637
395649 100 18187085087327598931
4330586 98 18189335843907245263
4339292 15 17703497879547042567
437795 160 18340193151453460314
4516262 110 16081083789030587594
4625314 4 18338796719397594645
5265222 85 17988917911692666102
54039377 194 16917066685220334917
6201320 215 11386351648029593183
636775 8 17275105054408633094
6673363 416 18342461448284774596
6691757 9 16515697636302092248
999808 66 16272209687003831415

> <PUBCHEM_SHAPE_MULTIPOLES>
687.73
29.01
2.6
1.83
46.21
0.13
-0.63
7.84
12.55
-5.46
0.36
-1.74
0.1
-1.92

> <PUBCHEM_SHAPE_SELFOVERLAP>
1442.648

> <PUBCHEM_SHAPE_VOLUME>
380.9

> <PUBCHEM_COORDINATE_TYPE>
2
5
10

$$$$
