51137871
  -OEChem-12032416253D

 43 46  0     1  0  0  0  0  0999 V2000
    5.0660    2.9842   -0.1990 O   0  0  0  0  0  0  0  0  0  0  0  0
   -2.2926   -0.4641   -0.1458 N   0  0  1  0  0  0  0  0  0  0  0  0
    2.2172   -2.0611    0.1260 N   0  0  0  0  0  0  0  0  0  0  0  0
    1.8828    0.1360    0.1473 N   0  0  0  0  0  0  0  0  0  0  0  0
   -5.0451    1.3817    0.1956 N   0  0  0  0  0  0  0  0  0  0  0  0
    2.8082    2.6646    0.0432 N   0  0  0  0  0  0  0  0  0  0  0  0
   -0.1700   -1.3220    0.3622 C   0  0  1  0  0  0  0  0  0  0  0  0
   -0.8100   -0.7439    1.6364 C   0  0  0  0  0  0  0  0  0  0  0  0
   -1.0074   -0.7473   -0.7882 C   0  0  0  0  0  0  0  0  0  0  0  0
   -1.9461    0.1410    1.1401 C   0  0  0  0  0  0  0  0  0  0  0  0
    1.3078   -1.0439    0.2115 C   0  0  0  0  0  0  0  0  0  0  0  0
   -3.1392    0.4002   -0.9548 C   0  0  0  0  0  0  0  0  0  0  0  0
    3.4619   -1.5002   -0.0022 C   0  0  0  0  0  0  0  0  0  0  0  0
    3.2266   -0.1283    0.0139 C   0  0  0  0  0  0  0  0  0  0  0  0
   -4.5805    0.3358   -0.5240 C   0  0  0  0  0  0  0  0  0  0  0  0
    4.3138    0.7545   -0.1000 C   0  0  0  0  0  0  0  0  0  0  0  0
    4.7346   -2.0582   -0.1268 C   0  0  0  0  0  0  0  0  0  0  0  0
   -5.3455   -0.7642   -0.8767 C   0  0  0  0  0  0  0  0  0  0  0  0
    5.6008    0.2167   -0.2262 C   0  0  0  0  0  0  0  0  0  0  0  0
    5.8052   -1.1650   -0.2393 C   0  0  0  0  0  0  0  0  0  0  0  0
    4.1124    2.1918   -0.0849 C   0  0  0  0  0  0  0  0  0  0  0  0
   -6.6731   -0.7925   -0.4643 C   0  0  0  0  0  0  0  0  0  0  0  0
   -6.3401    1.3189    0.5787 C   0  0  0  0  0  0  0  0  0  0  0  0
   -7.1877    0.2650    0.2775 C   0  0  0  0  0  0  0  0  0  0  0  0
   -0.3185   -2.4114    0.3867 H   0  0  0  0  0  0  0  0  0  0  0  0
   -0.1074   -0.1789    2.2582 H   0  0  0  0  0  0  0  0  0  0  0  0
   -1.2098   -1.5633    2.2469 H   0  0  0  0  0  0  0  0  0  0  0  0
   -0.5538    0.1663   -1.1956 H   0  0  0  0  0  0  0  0  0  0  0  0
   -1.1117   -1.4712   -1.6038 H   0  0  0  0  0  0  0  0  0  0  0  0
   -2.7837    0.1399    1.8448 H   0  0  0  0  0  0  0  0  0  0  0  0
   -1.5856    1.1714    1.0251 H   0  0  0  0  0  0  0  0  0  0  0  0
   -3.1042    0.0837   -2.0066 H   0  0  0  0  0  0  0  0  0  0  0  0
   -2.7876    1.4406   -0.9496 H   0  0  0  0  0  0  0  0  0  0  0  0
    2.0126   -3.0512    0.1522 H   0  0  0  0  0  0  0  0  0  0  0  0
    4.8908   -3.1309   -0.1366 H   0  0  0  0  0  0  0  0  0  0  0  0
   -4.9354   -1.5845   -1.4561 H   0  0  0  0  0  0  0  0  0  0  0  0
    6.4686    0.8663   -0.3162 H   0  0  0  0  0  0  0  0  0  0  0  0
    6.8153   -1.5549   -0.3385 H   0  0  0  0  0  0  0  0  0  0  0  0
   -7.3057   -1.6370   -0.7206 H   0  0  0  0  0  0  0  0  0  0  0  0
   -6.6926    2.1679    1.1551 H   0  0  0  0  0  0  0  0  0  0  0  0
   -8.2196    0.2642    0.6095 H   0  0  0  0  0  0  0  0  0  0  0  0
    2.6268    3.6631    0.0513 H   0  0  0  0  0  0  0  0  0  0  0  0
    1.9951    2.0660    0.1327 H   0  0  0  0  0  0  0  0  0  0  0  0
  1 21  2  0  0  0  0
  2  9  1  0  0  0  0
  2 10  1  0  0  0  0
  2 12  1  0  0  0  0
  3 11  1  0  0  0  0
  3 13  1  0  0  0  0
  3 34  1  0  0  0  0
  4 11  2  0  0  0  0
  4 14  1  0  0  0  0
  5 15  1  0  0  0  0
  5 23  2  0  0  0  0
  6 21  1  0  0  0  0
  6 42  1  0  0  0  0
  6 43  1  0  0  0  0
  7  8  1  0  0  0  0
  7  9  1  0  0  0  0
  7 11  1  0  0  0  0
  7 25  1  0  0  0  0
  8 10  1  0  0  0  0
  8 26  1  0  0  0  0
  8 27  1  0  0  0  0
  9 28  1  0  0  0  0
  9 29  1  0  0  0  0
 10 30  1  0  0  0  0
 10 31  1  0  0  0  0
 12 15  1  0  0  0  0
 12 32  1  0  0  0  0
 12 33  1  0  0  0  0
 13 14  1  0  0  0  0
 13 17  2  0  0  0  0
 14 16  2  0  0  0  0
 15 18  2  0  0  0  0
 16 19  1  0  0  0  0
 16 21  1  0  0  0  0
 17 20  1  0  0  0  0
 17 35  1  0  0  0  0
 18 22  1  0  0  0  0
 18 36  1  0  0  0  0
 19 20  2  0  0  0  0
 19 37  1  0  0  0  0
 20 38  1  0  0  0  0
 22 24  2  0  0  0  0
 22 39  1  0  0  0  0
 23 24  1  0  0  0  0
 23 40  1  0  0  0  0
 24 41  1  0  0  0  0
M  END
> <PUBCHEM_COMPOUND_CID>
51137871

> <PUBCHEM_CONFORMER_RMSD>
0.8

> <PUBCHEM_CONFORMER_DIVERSEORDER>
1
128
34
100
187
86
118
92
169
76
167
177
183
180
90
146
181
66
156
121
136
112
140
152
133
81
94
186
16
13
119
125
126
37
29
157
174
108
132
154
32
7
59
130
185
116
65
28
182
91
117
107
109
172
137
26
77
62
17
48
23
87
188
113
56
178
171
9
105
55
170
83
35
73
2
127
33
155
53
162
114
179
159
149
19
15
165
163
6
122
151
50
135
80
51
164
168
141
74
123
138
97
11
70
38
158
104
89
68
106
14
47
131
20
145
57
67
58
49
4
111
84
39
161
124
79
31
142
71
75
21
120
27
12
18
22
95
5
134
101
10
110
102
45
160
129
175
43
148
3
150
85
61
8
41
44
184
24
115
139
153
166
54
69
30
96
46
78
52
173
42
63
103
98
143
88
40
64
36
144
82
25
147
99
72
176
93
60

> <PUBCHEM_MMFF94_PARTIAL_CHARGES>
33
1 -0.57
10 0.27
11 0.01
12 0.41
13 -0.15
14 0.23
15 0.17
16 0.09
17 -0.15
18 -0.15
19 -0.15
2 -0.81
20 -0.15
21 0.54
22 -0.15
23 0.16
24 -0.15
3 0.03
34 0.27
35 0.15
36 0.15
37 0.15
38 0.15
39 0.15
4 -0.57
40 0.15
41 0.15
42 0.37
43 0.37
5 -0.62
6 -0.8
7 0.18
9 0.27

> <PUBCHEM_EFFECTIVE_ROTOR_COUNT>
5

> <PUBCHEM_PHARMACOPHORE_FEATURES>
10
1 1 acceptor
1 2 cation
1 3 donor
1 5 acceptor
1 6 donor
3 3 4 11 cation
5 2 7 8 9 10 rings
5 3 4 11 13 14 rings
6 13 14 16 17 19 20 rings
6 5 15 18 22 23 24 rings

> <PUBCHEM_HEAVY_ATOM_COUNT>
24

> <PUBCHEM_ATOM_DEF_STEREO_COUNT>
1

> <PUBCHEM_ATOM_UDEF_STEREO_COUNT>
0

> <PUBCHEM_BOND_DEF_STEREO_COUNT>
0

> <PUBCHEM_BOND_UDEF_STEREO_COUNT>
0

> <PUBCHEM_ISOTOPIC_ATOM_COUNT>
0

> <PUBCHEM_COMPONENT_COUNT>
1

> <PUBCHEM_CACTVS_TAUTO_COUNT>
12

> <PUBCHEM_CONFORMER_ID>
030C4D4F00000001

> <PUBCHEM_MMFF94_ENERGY>
54.9189

> <PUBCHEM_FEATURE_SELFOVERLAP>
50.854

> <PUBCHEM_SHAPE_FINGERPRINT>
10 15 15213306347824843822
10299344 5 18131632292834274439
10411042 1 18049722915867118610
10595046 47 18341891901097127367
10638233 991 18343582954154587137
11089746 13 18333732399147422306
11646440 116 17386012754027727941
11796584 16 13470678257075778823
12166972 35 18408325475288606628
12236239 1 17988923353495331447
12403259 415 17821720616222814269
12616971 3 18131340912866212823
12730499 353 18113902641159520442
12788726 201 17203337688933883457
13167372 99 18343022147089127353
13533116 47 17168416061221633442
13782708 43 17241885385034782666
13955234 65 18041552534263749306
14170010 4 18410853257553718042
14251732 16 18335985359103463187
14251752 14 17561081372047470675
14464042 87 17988929950496903656
14528608 73 18411699898180709063
14681490 219 18411135822809459673
14856354 85 17346599695300569519
14933364 13 18410294696925017453
15003188 100 18333452066600149404
15183329 4 18131636672999335225
15537594 2 15554442986133221959
15840311 113 18408889517118393197
17844677 252 18339929221159553877
1813 80 13830133909848262763
18335252 114 18341603785916770365
19489759 90 11602825684082145639
20157964 124 18411419522979370170
20554085 129 16081359761769291001
20567600 75 11095889246430613307
21033648 29 17023172817254795629
21298829 104 18343021129519949736
21315763 28 18412543193903856647
21344244 78 18119507879256851050
21641784 216 16630257930585811345
221357 26 18408602531123459644
22956985 138 13913980347094588040
23081809 10 17917987283388534279
23198884 109 18411700976808357115
23424782 7 18187932837084456075
23522609 53 17702686439834375249
23536379 177 18271524217586669779
23557571 272 13614526238172715466
23559900 14 18187366557723882026
23569914 2 17613944817465388053
23569943 247 17461151054876998795
255183 451 17842284662229136614
2747138 104 17458356243133465025
2838139 119 18335134289246929893
29717793 49 17775571918661480838
3004659 81 18060700563763234430
335352 9 18409452488762688302
34797466 226 18201445774638319287
3545911 37 18113338600252529735
397830 11 17749966586479048265
4073 2 18114466763575755619
4325135 7 18413669106911677751
46194498 28 18342178826197387838
5104073 3 18114178674359725106
513532 50 18271820037965244124
53794403 172 17896046614318403876
54446538 1 18412824660116546317
59755656 520 17749105599797093187

> <PUBCHEM_SHAPE_MULTIPOLES>
463.13
18.47
2.24
0.93
18.79
1.36
-0.17
3.32
1.92
-3.9
0.03
0.74
-0.11
-0.55

> <PUBCHEM_SHAPE_SELFOVERLAP>
1019.003

> <PUBCHEM_SHAPE_VOLUME>
249.6

> <PUBCHEM_COORDINATE_TYPE>
2
5
10

$$$$
