75536532
  -OEChem-12032416343D

 36 37  0     1  0  0  0  0  0999 V2000
   -0.1378   -0.7845    1.4880 O   0  0  0  0  0  0  0  0  0  0  0  0
   -2.1381   -1.6514   -1.3674 O   0  0  0  0  0  0  0  0  0  0  0  0
    2.8865   -0.6613    1.2173 O   0  0  0  0  0  0  0  0  0  0  0  0
   -2.7339    1.1782   -0.1367 N   0  0  0  0  0  0  0  0  0  0  0  0
    1.6422   -0.9946   -0.7242 N   0  0  0  0  0  0  0  0  0  0  0  0
    3.2983    0.7683   -0.6050 C   0  0  0  0  0  0  0  0  0  0  0  0
   -2.1225   -0.0087    0.4387 C   0  0  1  0  0  0  0  0  0  0  0  0
   -1.3224   -0.8260   -0.5587 C   0  0  1  0  0  0  0  0  0  0  0  0
   -0.4370   -1.6417    0.3737 C   0  0  1  0  0  0  0  0  0  0  0  0
    3.2901    2.1038    0.0611 C   0  0  0  0  0  0  0  0  0  0  0  0
    2.4791    1.8758   -1.1793 C   0  0  0  0  0  0  0  0  0  0  0  0
   -1.0635    0.3165    1.4793 C   0  0  0  0  0  0  0  0  0  0  0  0
    0.8534   -2.1063   -0.2775 C   0  0  0  0  0  0  0  0  0  0  0  0
    2.5947   -0.3652    0.0645 C   0  0  0  0  0  0  0  0  0  0  0  0
   -3.3857    1.9833    0.9004 C   0  0  0  0  0  0  0  0  0  0  0  0
   -3.7034    0.8138   -1.1742 C   0  0  0  0  0  0  0  0  0  0  0  0
    4.2074    0.4931   -1.1294 H   0  0  0  0  0  0  0  0  0  0  0  0
   -2.8914   -0.6494    0.8961 H   0  0  0  0  0  0  0  0  0  0  0  0
   -0.7409   -0.1668   -1.2132 H   0  0  0  0  0  0  0  0  0  0  0  0
   -0.9745   -2.5173    0.7588 H   0  0  0  0  0  0  0  0  0  0  0  0
    4.1787    2.7173   -0.0237 H   0  0  0  0  0  0  0  0  0  0  0  0
    2.7542    2.2220    0.9951 H   0  0  0  0  0  0  0  0  0  0  0  0
    1.4014    1.8536   -1.0708 H   0  0  0  0  0  0  0  0  0  0  0  0
    2.8234    2.3343   -2.0984 H   0  0  0  0  0  0  0  0  0  0  0  0
   -0.4858    1.2129    1.2248 H   0  0  0  0  0  0  0  0  0  0  0  0
   -1.4773    0.4422    2.4845 H   0  0  0  0  0  0  0  0  0  0  0  0
    0.6479   -2.7420   -1.1445 H   0  0  0  0  0  0  0  0  0  0  0  0
    1.4466   -2.6813    0.4422 H   0  0  0  0  0  0  0  0  0  0  0  0
    1.5001   -0.6666   -1.6752 H   0  0  0  0  0  0  0  0  0  0  0  0
   -2.6716   -2.2180   -0.7847 H   0  0  0  0  0  0  0  0  0  0  0  0
   -3.8630    2.8648    0.4565 H   0  0  0  0  0  0  0  0  0  0  0  0
   -2.6632    2.3727    1.6249 H   0  0  0  0  0  0  0  0  0  0  0  0
   -4.1537    1.4175    1.4405 H   0  0  0  0  0  0  0  0  0  0  0  0
   -4.2457    1.7024   -1.5193 H   0  0  0  0  0  0  0  0  0  0  0  0
   -4.4442    0.0879   -0.8198 H   0  0  0  0  0  0  0  0  0  0  0  0
   -3.2073    0.4215   -2.0667 H   0  0  0  0  0  0  0  0  0  0  0  0
  1  9  1  0  0  0  0
  1 12  1  0  0  0  0
  2  8  1  0  0  0  0
  2 30  1  0  0  0  0
  3 14  2  0  0  0  0
  4  7  1  0  0  0  0
  4 15  1  0  0  0  0
  4 16  1  0  0  0  0
  5 13  1  0  0  0  0
  5 14  1  0  0  0  0
  5 29  1  0  0  0  0
  6 10  1  0  0  0  0
  6 11  1  0  0  0  0
  6 14  1  0  0  0  0
  6 17  1  0  0  0  0
  7  8  1  0  0  0  0
  7 12  1  0  0  0  0
  7 18  1  0  0  0  0
  8  9  1  0  0  0  0
  8 19  1  0  0  0  0
  9 13  1  0  0  0  0
  9 20  1  0  0  0  0
 10 11  1  0  0  0  0
 10 21  1  0  0  0  0
 10 22  1  0  0  0  0
 11 23  1  0  0  0  0
 11 24  1  0  0  0  0
 12 25  1  0  0  0  0
 12 26  1  0  0  0  0
 13 27  1  0  0  0  0
 13 28  1  0  0  0  0
 15 31  1  0  0  0  0
 15 32  1  0  0  0  0
 15 33  1  0  0  0  0
 16 34  1  0  0  0  0
 16 35  1  0  0  0  0
 16 36  1  0  0  0  0
M  END
> <PUBCHEM_COMPOUND_CID>
75536532

> <PUBCHEM_CONFORMER_RMSD>
0.8

> <PUBCHEM_CONFORMER_DIVERSEORDER>
1
29
23
3
18
24
19
2
36
12
10
14
26
20
32
4
22
15
9
35
27
21
16
28
6
7
8
34
25
17
11
13
30
37
31
5
33

> <PUBCHEM_MMFF94_PARTIAL_CHARGES>
23
1 -0.56
10 -0.2
11 -0.2
12 0.28
13 0.3
14 0.63
15 0.27
16 0.27
17 0.1
2 -0.68
21 0.1
22 0.1
23 0.1
24 0.1
29 0.37
3 -0.57
30 0.4
4 -0.81
5 -0.73
6 -0.1
7 0.27
8 0.28
9 0.28

> <PUBCHEM_EFFECTIVE_ROTOR_COUNT>
6.6

> <PUBCHEM_PHARMACOPHORE_FEATURES>
7
1 1 acceptor
1 2 acceptor
1 2 donor
1 3 acceptor
1 4 cation
1 5 donor
5 1 7 8 9 12 rings

> <PUBCHEM_HEAVY_ATOM_COUNT>
16

> <PUBCHEM_ATOM_DEF_STEREO_COUNT>
3

> <PUBCHEM_ATOM_UDEF_STEREO_COUNT>
0

> <PUBCHEM_BOND_DEF_STEREO_COUNT>
0

> <PUBCHEM_BOND_UDEF_STEREO_COUNT>
0

> <PUBCHEM_ISOTOPIC_ATOM_COUNT>
0

> <PUBCHEM_COMPONENT_COUNT>
1

> <PUBCHEM_CACTVS_TAUTO_COUNT>
2

> <PUBCHEM_CONFORMER_ID>
0480989400000001

> <PUBCHEM_MMFF94_ENERGY>
35.0946

> <PUBCHEM_FEATURE_SELFOVERLAP>
35.522

> <PUBCHEM_SHAPE_FINGERPRINT>
10618630 7 9655585080225316420
11615756 56 17968656004131725597
11640471 11 18410854390955696244
11725454 13 16734367358209897215
11769659 78 9079105640460970873
12162725 195 18336540603342087166
12202030 40 11383555516828942002
12491281 212 18409452504797676220
13618510 140 18409456885822937524
15775835 57 18409171038706507124
16945 1 18117566115371794323
17357990 137 18335412422833971514
18186145 218 18261681380466898149
18522851 12 9439133120915756638
18981168 100 18121251824260949702
192875 21 18339912719610625976
19765921 60 18411418405929314043
20304884 271 18410864290755067208
20645476 183 18201436931016190439
20653085 51 18339653260409349635
20671657 1 18340209574917802254
21041028 32 17029638847601178394
21475661 188 17314223367913085325
21524375 3 18334857216448180074
21639500 275 18336260150446312765
21731516 1 8790884055986007768
22094290 62 18335701598776668778
23419403 2 16595070522181960091
23500284 5 8862947164730295469
23557571 272 17203316858031371242
25 1 18335995172512657008
474 4 18333732390457215245
5262128 65 15339123463428285496
6333272 397 18335144184972834075
81228 2 16083363178633144362
90316 7 12396302534932394367
94968 8 10303801086512369068

> <PUBCHEM_SHAPE_MULTIPOLES>
301.7
6.39
2.34
1.35
0.12
0.24
0.12
4.28
-0.93
0.36
-0.24
-0.46
0.01
-0.79

> <PUBCHEM_SHAPE_SELFOVERLAP>
608.015

> <PUBCHEM_SHAPE_VOLUME>
179.8

> <PUBCHEM_COORDINATE_TYPE>
2
5
10

$$$$
