11884022
  -OEChem-12032416333D

 62 66  0     1  0  0  0  0  0999 V2000
   -1.2425   -2.1583   -1.0833 O   0  0  0  0  0  0  0  0  0  0  0  0
   -2.4459   -4.0340    1.0232 O   0  0  0  0  0  0  0  0  0  0  0  0
    0.9524   -3.1884    0.2686 O   0  0  0  0  0  0  0  0  0  0  0  0
   -6.0451   -1.5321    0.7657 O   0  0  0  0  0  0  0  0  0  0  0  0
   -6.8486    1.0371    0.7734 O   0  0  0  0  0  0  0  0  0  0  0  0
    1.3976   -1.0162    0.8284 O   0  0  0  0  0  0  0  0  0  0  0  0
    7.1073    1.1972   -1.3667 O   0  0  0  0  0  0  0  0  0  0  0  0
   -4.0420   -1.0075   -0.2953 N   0  0  0  0  0  0  0  0  0  0  0  0
    2.9016   -2.2944   -0.4305 N   0  0  0  0  0  0  0  0  0  0  0  0
   -2.5833   -2.6122    0.8192 C   0  0  1  0  0  0  0  0  0  0  0  0
   -1.2342   -2.1030    0.3530 C   0  0  1  0  0  0  0  0  0  0  0  0
   -3.4974   -2.3421   -0.3531 C   0  0  2  0  0  0  0  0  0  0  0  0
   -0.2814   -3.1127    0.9464 C   0  0  1  0  0  0  0  0  0  0  0  0
   -2.5599   -2.5057   -1.5370 C   0  0  0  0  0  0  0  0  0  0  0  0
   -1.0702   -4.3982    0.8376 C   0  0  0  0  0  0  0  0  0  0  0  0
   -5.2784   -0.7148    0.2633 C   0  0  0  0  0  0  0  0  0  0  0  0
    1.7362   -2.0531    0.2709 C   0  0  0  0  0  0  0  0  0  0  0  0
   -5.5935    0.7640    0.1875 C   0  0  0  0  0  0  0  0  0  0  0  0
    3.9736   -1.4048   -0.6696 C   0  0  0  0  0  0  0  0  0  0  0  0
   -7.5568    2.1034    0.2716 C   0  0  0  0  0  0  0  0  0  0  0  0
    3.9107   -0.1156   -0.1651 C   0  0  0  0  0  0  0  0  0  0  0  0
    5.0665   -1.8385   -1.4029 C   0  0  0  0  0  0  0  0  0  0  0  0
    4.9685    0.7628   -0.4001 C   0  0  0  0  0  0  0  0  0  0  0  0
    6.1243   -0.9602   -1.6379 C   0  0  0  0  0  0  0  0  0  0  0  0
   -6.8737    3.1878   -0.2614 C   0  0  0  0  0  0  0  0  0  0  0  0
   -8.9441    2.0795    0.3059 C   0  0  0  0  0  0  0  0  0  0  0  0
    6.0753    0.3405   -1.1364 C   0  0  0  0  0  0  0  0  0  0  0  0
   -7.5923    4.2695   -0.7704 C   0  0  0  0  0  0  0  0  0  0  0  0
   -9.6626    3.1612   -0.2033 C   0  0  0  0  0  0  0  0  0  0  0  0
   -8.9868    4.2563   -0.7414 C   0  0  0  0  0  0  0  0  0  0  0  0
    7.5658    1.9540   -0.3013 C   0  0  0  0  0  0  0  0  0  0  0  0
    7.7619    1.3430    0.9240 C   0  0  0  0  0  0  0  0  0  0  0  0
    7.8153    3.3012   -0.4900 C   0  0  0  0  0  0  0  0  0  0  0  0
    8.2237    2.1053    1.9971 C   0  0  0  0  0  0  0  0  0  0  0  0
    8.2770    4.0635    0.5830 C   0  0  0  0  0  0  0  0  0  0  0  0
    8.4812    3.4656    1.8266 C   0  0  0  0  0  0  0  0  0  0  0  0
   -2.9100   -2.1712    1.7663 H   0  0  0  0  0  0  0  0  0  0  0  0
   -1.0508   -1.0659    0.6458 H   0  0  0  0  0  0  0  0  0  0  0  0
   -4.3257   -3.0560   -0.4173 H   0  0  0  0  0  0  0  0  0  0  0  0
   -0.1142   -2.8942    2.0097 H   0  0  0  0  0  0  0  0  0  0  0  0
   -2.5226   -3.5506   -1.8645 H   0  0  0  0  0  0  0  0  0  0  0  0
   -2.8224   -1.8843   -2.3987 H   0  0  0  0  0  0  0  0  0  0  0  0
   -0.7789   -5.1301    1.5969 H   0  0  0  0  0  0  0  0  0  0  0  0
   -0.9588   -4.8736   -0.1433 H   0  0  0  0  0  0  0  0  0  0  0  0
   -3.4658   -0.2424   -0.6354 H   0  0  0  0  0  0  0  0  0  0  0  0
   -5.5708    1.0249   -0.8792 H   0  0  0  0  0  0  0  0  0  0  0  0
   -4.8119    1.3136    0.7245 H   0  0  0  0  0  0  0  0  0  0  0  0
    3.0031   -3.2265   -0.8247 H   0  0  0  0  0  0  0  0  0  0  0  0
    3.0868    0.2845    0.4077 H   0  0  0  0  0  0  0  0  0  0  0  0
    5.1149   -2.8496   -1.7977 H   0  0  0  0  0  0  0  0  0  0  0  0
    4.8936    1.7777   -0.0181 H   0  0  0  0  0  0  0  0  0  0  0  0
    6.9839   -1.2948   -2.2120 H   0  0  0  0  0  0  0  0  0  0  0  0
   -5.7899    3.2481   -0.2769 H   0  0  0  0  0  0  0  0  0  0  0  0
   -9.4735    1.2283    0.7241 H   0  0  0  0  0  0  0  0  0  0  0  0
   -7.0664    5.1253   -1.1837 H   0  0  0  0  0  0  0  0  0  0  0  0
  -10.7484    3.1510   -0.1803 H   0  0  0  0  0  0  0  0  0  0  0  0
   -9.5462    5.0992   -1.1363 H   0  0  0  0  0  0  0  0  0  0  0  0
    7.5917    0.2813    1.0763 H   0  0  0  0  0  0  0  0  0  0  0  0
    7.6565    3.7680   -1.4574 H   0  0  0  0  0  0  0  0  0  0  0  0
    8.3879    1.6388    2.9640 H   0  0  0  0  0  0  0  0  0  0  0  0
    8.4776    5.1226    0.4501 H   0  0  0  0  0  0  0  0  0  0  0  0
    8.8420    4.0589    2.6617 H   0  0  0  0  0  0  0  0  0  0  0  0
  1 11  1  0  0  0  0
  1 14  1  0  0  0  0
  2 10  1  0  0  0  0
  2 15  1  0  0  0  0
  3 13  1  0  0  0  0
  3 17  1  0  0  0  0
  4 16  2  0  0  0  0
  5 18  1  0  0  0  0
  5 20  1  0  0  0  0
  6 17  2  0  0  0  0
  7 27  1  0  0  0  0
  7 31  1  0  0  0  0
  8 12  1  0  0  0  0
  8 16  1  0  0  0  0
  8 45  1  0  0  0  0
  9 17  1  0  0  0  0
  9 19  1  0  0  0  0
  9 48  1  0  0  0  0
 10 11  1  0  0  0  0
 10 12  1  0  0  0  0
 10 37  1  0  0  0  0
 11 13  1  0  0  0  0
 11 38  1  0  0  0  0
 12 14  1  0  0  0  0
 12 39  1  0  0  0  0
 13 15  1  0  0  0  0
 13 40  1  0  0  0  0
 14 41  1  0  0  0  0
 14 42  1  0  0  0  0
 15 43  1  0  0  0  0
 15 44  1  0  0  0  0
 16 18  1  0  0  0  0
 18 46  1  0  0  0  0
 18 47  1  0  0  0  0
 19 21  2  0  0  0  0
 19 22  1  0  0  0  0
 20 25  2  0  0  0  0
 20 26  1  0  0  0  0
 21 23  1  0  0  0  0
 21 49  1  0  0  0  0
 22 24  2  0  0  0  0
 22 50  1  0  0  0  0
 23 27  2  0  0  0  0
 23 51  1  0  0  0  0
 24 27  1  0  0  0  0
 24 52  1  0  0  0  0
 25 28  1  0  0  0  0
 25 53  1  0  0  0  0
 26 29  2  0  0  0  0
 26 54  1  0  0  0  0
 28 30  2  0  0  0  0
 28 55  1  0  0  0  0
 29 30  1  0  0  0  0
 29 56  1  0  0  0  0
 30 57  1  0  0  0  0
 31 32  2  0  0  0  0
 31 33  1  0  0  0  0
 32 34  1  0  0  0  0
 32 58  1  0  0  0  0
 33 35  2  0  0  0  0
 33 59  1  0  0  0  0
 34 36  2  0  0  0  0
 34 60  1  0  0  0  0
 35 36  1  0  0  0  0
 35 61  1  0  0  0  0
 36 62  1  0  0  0  0
M  END
> <PUBCHEM_COMPOUND_CID>
11884022

> <PUBCHEM_CONFORMER_RMSD>
1.2

> <PUBCHEM_CONFORMER_DIVERSEORDER>
1
49
62
52
36
24
26
35
54
61
55
16
73
77
7
74
75
13
47
56
28
6
71
21
2
9
63
34
69
23
58
76
15
57
65
40
59
31
22
4
72
50
25
17
39
32
29
20
43
42
19
66
68
27
5
51
3
18
67
60
38
45
11
30
8
41
33
64
10
53
70
12
37
48
46
14
44

> <PUBCHEM_MMFF94_PARTIAL_CHARGES>
52
1 -0.56
10 0.28
11 0.28
12 0.3
13 0.28
14 0.28
15 0.28
16 0.57
17 0.78
18 0.34
19 0.12
2 -0.56
20 0.08
21 -0.15
22 -0.15
23 -0.15
24 -0.15
25 -0.15
26 -0.15
27 0.08
28 -0.15
29 -0.15
3 -0.43
30 -0.15
31 0.08
32 -0.15
33 -0.15
34 -0.15
35 -0.15
36 -0.15
4 -0.57
45 0.37
48 0.37
49 0.15
5 -0.36
50 0.15
51 0.15
52 0.15
53 0.15
54 0.15
55 0.15
56 0.15
57 0.15
58 0.15
59 0.15
6 -0.57
60 0.15
61 0.15
62 0.15
7 -0.17
8 -0.73
9 -0.55

> <PUBCHEM_EFFECTIVE_ROTOR_COUNT>
12.2

> <PUBCHEM_PHARMACOPHORE_FEATURES>
13
1 1 acceptor
1 2 acceptor
1 4 acceptor
1 5 acceptor
1 6 acceptor
1 7 acceptor
1 8 donor
1 9 donor
5 1 10 11 12 14 rings
5 2 10 11 13 15 rings
6 19 21 22 23 24 27 rings
6 20 25 26 28 29 30 rings
6 31 32 33 34 35 36 rings

> <PUBCHEM_HEAVY_ATOM_COUNT>
36

> <PUBCHEM_ATOM_DEF_STEREO_COUNT>
4

> <PUBCHEM_ATOM_UDEF_STEREO_COUNT>
0

> <PUBCHEM_BOND_DEF_STEREO_COUNT>
0

> <PUBCHEM_BOND_UDEF_STEREO_COUNT>
0

> <PUBCHEM_ISOTOPIC_ATOM_COUNT>
0

> <PUBCHEM_COMPONENT_COUNT>
1

> <PUBCHEM_CACTVS_TAUTO_COUNT>
4

> <PUBCHEM_CONFORMER_ID>
00B555F600000001

> <PUBCHEM_MMFF94_ENERGY>
120.6862

> <PUBCHEM_FEATURE_SELFOVERLAP>
66.699

> <PUBCHEM_SHAPE_FINGERPRINT>
10280341 67 18412257346170592344
10533779 1 18408877422037157397
10838868 160 18336256878314359309
11135609 127 18342736274282716310
11411753 3 18195831737404187734
11421887 103 17842548828783284072
11621639 179 18131628980554665969
11621639 307 18337377272246864671
11672396 43 8430316852676697420
11973864 47 18411979187868269291
12098696 120 18409454652904102329
12124843 1 17988923353922430837
12133447 93 18337687364026536612
12522641 68 18343865515938165039
12539747 164 9871478629953165919
12655364 74 18340196411587475861
12717326 120 9223234070190429048
13627175 4 9799407875554544645
13782708 43 8718564796173331006
15131766 46 18337383847900303807
15150948 74 18335136462796567005
15152005 1 9367336038336485065
15347591 1 18335705980356604371
15399244 5 18408599253762784450
15455200 90 13326306811063344817
16067689 68 10737279105605494591
16991971 28 10375863074634124421
16994733 274 18333733532812995514
17852330 53 14563085845852228453
19304671 126 18201444618954649734
2026 5 9295278431856448273
20501277 180 18201440250973396865
20691028 202 18261118469368909319
21033648 29 18264775531644319126
21057603 285 15574976409001313204
21223535 225 18341609369073236972
21781055 127 17676776440326521430
23516275 100 18264208015961652477
23522609 53 17024607800826593798
353859 123 17968373446760993212
3918712 181 18410853226972567321
406291 66 9367341531493446877
4366758 26 18195815059777002585
44802255 64 17489029370099862759
5718773 13 10231743471564139607
5776283 40 18341893000598862569
6289498 60 18335422383011519400
636775 72 18338517567939908641
6698420 124 18260267447179730138

> <PUBCHEM_SHAPE_MULTIPOLES>
689.82
35.52
6.85
1.38
13.02
1.72
-0.04
62.79
-1.48
5.84
-0.98
-2.58
0.02
4.93

> <PUBCHEM_SHAPE_SELFOVERLAP>
1504.902

> <PUBCHEM_SHAPE_VOLUME>
373.2

> <PUBCHEM_COORDINATE_TYPE>
2
5
10

$$$$
