11883059
  -OEChem-12032416133D

 70 73  0     1  0  0  0  0  0999 V2000
    0.0151    2.6678    0.2744 S   0  0  0  0  0  0  0  0  0  0  0  0
    8.6129    2.7432   -0.0715 F   0  0  0  0  0  0  0  0  0  0  0  0
   -7.4929    0.5704   -0.6512 O   0  0  0  0  0  0  0  0  0  0  0  0
   -7.0961    2.2773    0.9839 O   0  0  0  0  0  0  0  0  0  0  0  0
   -0.0155   -2.3223   -1.6340 O   0  0  0  0  0  0  0  0  0  0  0  0
    3.2952   -0.5834   -0.3111 O   0  0  0  0  0  0  0  0  0  0  0  0
    2.7399   -4.4267    1.1334 O   0  0  0  0  0  0  0  0  0  0  0  0
    0.4351    0.1459   -0.1206 N   0  0  0  0  0  0  0  0  0  0  0  0
    0.1676   -3.9340    0.0305 N   0  0  0  0  0  0  0  0  0  0  0  0
    2.3804    1.5597    0.0426 N   0  0  0  0  0  0  0  0  0  0  0  0
   -3.3556   -0.4192    0.3034 C   0  0  2  0  0  0  0  0  0  0  0  0
   -3.7150    1.0159   -0.2854 C   0  0  1  0  0  0  0  0  0  0  0  0
   -5.2336    1.4415   -0.2570 C   0  0  1  0  0  0  0  0  0  0  0  0
   -1.8962   -0.8132   -0.2147 C   0  0  1  0  0  0  0  0  0  0  0  0
   -4.3648   -1.4656   -0.2363 C   0  0  0  0  0  0  0  0  0  0  0  0
   -6.1048    0.2665   -0.7846 C   0  0  1  0  0  0  0  0  0  0  0  0
   -2.7471    2.1100    0.2522 C   0  0  0  0  0  0  0  0  0  0  0  0
   -5.8221   -1.0552   -0.0791 C   0  0  0  0  0  0  0  0  0  0  0  0
   -3.3800   -0.4574    1.8513 C   0  0  0  0  0  0  0  0  0  0  0  0
   -0.9327    0.3331   -0.0442 C   0  0  0  0  0  0  0  0  0  0  0  0
   -5.7376    1.9254    1.1207 C   0  0  0  0  0  0  0  0  0  0  0  0
   -5.4419    2.6418   -1.2233 C   0  0  0  0  0  0  0  0  0  0  0  0
   -1.3360    1.6391    0.1460 C   0  0  0  0  0  0  0  0  0  0  0  0
   -1.3362   -2.1113    0.3823 C   0  0  0  0  0  0  0  0  0  0  0  0
   -0.3325   -2.7702   -0.5353 C   0  0  0  0  0  0  0  0  0  0  0  0
    1.0345    1.3055    0.0407 C   0  0  0  0  0  0  0  0  0  0  0  0
    1.1438   -4.7742   -0.6246 C   0  0  0  0  0  0  0  0  0  0  0  0
    3.4127    0.6234   -0.1294 C   0  0  0  0  0  0  0  0  0  0  0  0
    2.5613   -4.3587   -0.2754 C   0  0  0  0  0  0  0  0  0  0  0  0
    4.7898    1.1842   -0.1133 C   0  0  0  0  0  0  0  0  0  0  0  0
    5.8152    0.5352   -0.8010 C   0  0  0  0  0  0  0  0  0  0  0  0
    5.0559    2.3600    0.5885 C   0  0  0  0  0  0  0  0  0  0  0  0
    4.0541   -4.0405    1.5114 C   0  0  0  0  0  0  0  0  0  0  0  0
    7.1067    1.0617   -0.7869 C   0  0  0  0  0  0  0  0  0  0  0  0
    6.3475    2.8866    0.6027 C   0  0  0  0  0  0  0  0  0  0  0  0
    7.3729    2.2375   -0.0851 C   0  0  0  0  0  0  0  0  0  0  0  0
   -3.4834    0.9260   -1.3611 H   0  0  0  0  0  0  0  0  0  0  0  0
   -1.9931   -0.9443   -1.3031 H   0  0  0  0  0  0  0  0  0  0  0  0
   -4.2297   -2.4315    0.2634 H   0  0  0  0  0  0  0  0  0  0  0  0
   -4.1740   -1.6439   -1.3029 H   0  0  0  0  0  0  0  0  0  0  0  0
   -5.9133    0.1354   -1.8580 H   0  0  0  0  0  0  0  0  0  0  0  0
   -2.8630    3.0327   -0.3263 H   0  0  0  0  0  0  0  0  0  0  0  0
   -2.9666    2.3471    1.2986 H   0  0  0  0  0  0  0  0  0  0  0  0
   -6.4632   -1.8372   -0.5061 H   0  0  0  0  0  0  0  0  0  0  0  0
   -6.1093   -1.0007    0.9767 H   0  0  0  0  0  0  0  0  0  0  0  0
   -3.1007   -1.4478    2.2276 H   0  0  0  0  0  0  0  0  0  0  0  0
   -4.3672   -0.2649    2.2663 H   0  0  0  0  0  0  0  0  0  0  0  0
   -2.6854    0.2577    2.3004 H   0  0  0  0  0  0  0  0  0  0  0  0
   -5.1890    2.8059    1.4686 H   0  0  0  0  0  0  0  0  0  0  0  0
   -5.6815    1.1580    1.8885 H   0  0  0  0  0  0  0  0  0  0  0  0
   -6.5014    2.8748   -1.3779 H   0  0  0  0  0  0  0  0  0  0  0  0
   -4.9644    3.5536   -0.8496 H   0  0  0  0  0  0  0  0  0  0  0  0
   -5.0193    2.4274   -2.2117 H   0  0  0  0  0  0  0  0  0  0  0  0
   -0.8575   -1.9282    1.3526 H   0  0  0  0  0  0  0  0  0  0  0  0
   -2.1302   -2.8486    0.5383 H   0  0  0  0  0  0  0  0  0  0  0  0
   -7.9947   -0.1688   -1.0349 H   0  0  0  0  0  0  0  0  0  0  0  0
   -7.4033    2.5900    1.8518 H   0  0  0  0  0  0  0  0  0  0  0  0
   -0.1521   -4.2150    0.9530 H   0  0  0  0  0  0  0  0  0  0  0  0
    2.6065    2.5441    0.1439 H   0  0  0  0  0  0  0  0  0  0  0  0
    0.9530   -5.7956   -0.2789 H   0  0  0  0  0  0  0  0  0  0  0  0
    0.9909   -4.7349   -1.7079 H   0  0  0  0  0  0  0  0  0  0  0  0
    3.2724   -5.0304   -0.7696 H   0  0  0  0  0  0  0  0  0  0  0  0
    2.7486   -3.3343   -0.6172 H   0  0  0  0  0  0  0  0  0  0  0  0
    5.6285   -0.3789   -1.3584 H   0  0  0  0  0  0  0  0  0  0  0  0
    4.2983    2.8792    1.1674 H   0  0  0  0  0  0  0  0  0  0  0  0
    4.1349   -4.1144    2.5992 H   0  0  0  0  0  0  0  0  0  0  0  0
    4.2497   -3.0049    1.2169 H   0  0  0  0  0  0  0  0  0  0  0  0
    4.7950   -4.7074    1.0601 H   0  0  0  0  0  0  0  0  0  0  0  0
    7.9052    0.5575   -1.3232 H   0  0  0  0  0  0  0  0  0  0  0  0
    6.5575    3.7976    1.1553 H   0  0  0  0  0  0  0  0  0  0  0  0
  1 23  1  0  0  0  0
  1 26  1  0  0  0  0
  2 36  1  0  0  0  0
  3 16  1  0  0  0  0
  3 56  1  0  0  0  0
  4 21  1  0  0  0  0
  4 57  1  0  0  0  0
  5 25  2  0  0  0  0
  6 28  2  0  0  0  0
  7 29  1  0  0  0  0
  7 33  1  0  0  0  0
  8 20  1  0  0  0  0
  8 26  2  0  0  0  0
  9 25  1  0  0  0  0
  9 27  1  0  0  0  0
  9 58  1  0  0  0  0
 10 26  1  0  0  0  0
 10 28  1  0  0  0  0
 10 59  1  0  0  0  0
 11 12  1  0  0  0  0
 11 14  1  0  0  0  0
 11 15  1  0  0  0  0
 11 19  1  0  0  0  0
 12 13  1  0  0  0  0
 12 17  1  0  0  0  0
 12 37  1  0  0  0  0
 13 16  1  0  0  0  0
 13 21  1  0  0  0  0
 13 22  1  0  0  0  0
 14 20  1  0  0  0  0
 14 24  1  0  0  0  0
 14 38  1  0  0  0  0
 15 18  1  0  0  0  0
 15 39  1  0  0  0  0
 15 40  1  0  0  0  0
 16 18  1  0  0  0  0
 16 41  1  0  0  0  0
 17 23  1  0  0  0  0
 17 42  1  0  0  0  0
 17 43  1  0  0  0  0
 18 44  1  0  0  0  0
 18 45  1  0  0  0  0
 19 46  1  0  0  0  0
 19 47  1  0  0  0  0
 19 48  1  0  0  0  0
 20 23  2  0  0  0  0
 21 49  1  0  0  0  0
 21 50  1  0  0  0  0
 22 51  1  0  0  0  0
 22 52  1  0  0  0  0
 22 53  1  0  0  0  0
 24 25  1  0  0  0  0
 24 54  1  0  0  0  0
 24 55  1  0  0  0  0
 27 29  1  0  0  0  0
 27 60  1  0  0  0  0
 27 61  1  0  0  0  0
 28 30  1  0  0  0  0
 29 62  1  0  0  0  0
 29 63  1  0  0  0  0
 30 31  2  0  0  0  0
 30 32  1  0  0  0  0
 31 34  1  0  0  0  0
 31 64  1  0  0  0  0
 32 35  2  0  0  0  0
 32 65  1  0  0  0  0
 33 66  1  0  0  0  0
 33 67  1  0  0  0  0
 33 68  1  0  0  0  0
 34 36  2  0  0  0  0
 34 69  1  0  0  0  0
 35 36  1  0  0  0  0
 35 70  1  0  0  0  0
M  END
> <PUBCHEM_COMPOUND_CID>
11883059

> <PUBCHEM_CONFORMER_RMSD>
1.2

> <PUBCHEM_CONFORMER_DIVERSEORDER>
1
11
6
15
12
14
13
7
9
5
10
4
16
8
3
2

> <PUBCHEM_MMFF94_PARTIAL_CHARGES>
37
1 -0.08
10 -0.49
14 0.18
16 0.28
17 0.18
2 -0.19
20 0.05
21 0.28
23 -0.14
24 0.06
25 0.57
26 0.44
27 0.3
28 0.54
29 0.28
3 -0.68
30 0.09
31 -0.15
32 -0.15
33 0.28
34 -0.15
35 -0.15
36 0.19
4 -0.68
5 -0.57
56 0.4
57 0.4
58 0.37
59 0.37
6 -0.57
64 0.15
65 0.15
69 0.15
7 -0.56
70 0.15
8 -0.57
9 -0.73

> <PUBCHEM_EFFECTIVE_ROTOR_COUNT>
11.2

> <PUBCHEM_PHARMACOPHORE_FEATURES>
13
1 10 donor
1 3 acceptor
1 3 donor
1 4 acceptor
1 4 donor
1 5 acceptor
1 6 acceptor
1 7 acceptor
1 9 donor
5 1 8 20 23 26 rings
6 11 12 13 15 16 18 rings
6 11 12 14 17 20 23 rings
6 30 31 32 34 35 36 rings

> <PUBCHEM_HEAVY_ATOM_COUNT>
36

> <PUBCHEM_ATOM_DEF_STEREO_COUNT>
5

> <PUBCHEM_ATOM_UDEF_STEREO_COUNT>
0

> <PUBCHEM_BOND_DEF_STEREO_COUNT>
0

> <PUBCHEM_BOND_UDEF_STEREO_COUNT>
0

> <PUBCHEM_ISOTOPIC_ATOM_COUNT>
0

> <PUBCHEM_COMPONENT_COUNT>
1

> <PUBCHEM_CACTVS_TAUTO_COUNT>
6

> <PUBCHEM_CONFORMER_ID>
00B5523300000001

> <PUBCHEM_MMFF94_ENERGY>
106.5235

> <PUBCHEM_FEATURE_SELFOVERLAP>
66.119

> <PUBCHEM_SHAPE_FINGERPRINT>
10050765 1 18122907530070151893
10190206 1 18198890599562197023
10290309 65 18336819815367294892
10369192 42 18408319999648228197
10864689 126 18340209683057005512
10940486 97 17975134550350205084
11007060 377 18129100202483953706
11135609 187 18411699876684955513
11135926 11 18409162190783727253
11136131 41 18333724698535584610
11315181 36 18341897428741831505
11578080 2 17387677325028328557
11719270 70 18410568479842121914
12838862 33 18339908411906205484
12977781 61 17677636214235666731
14040222 383 18267861864882547752
14394314 77 18411704291816916465
14659021 117 17691113165208141034
14790565 3 18339082699737216445
14856354 85 16371005264534872281
15183329 4 18335135405938868409
15347591 1 18267304228262717333
15400415 2 18339078306692534828
15439362 3 18337953377453004209
15849732 13 18261954140897489196
15927050 60 18341327889923729358
16067689 302 18413674613324268519
18681886 176 18337385062616776553
20771845 165 18042959870898759333
21133665 82 18411703223340003582
21360443 120 18407760348287503950
23559900 14 18051121507072618091
249057 3 18337111276069466620
3383291 50 18268148845295532315
3411729 13 18335138657202653266
4017518 198 18272376412424143822
4073 2 18335144227906520546
5265222 85 18265617769750087348
5385378 56 18339370664926125425
6371380 46 18200590419006291704
6669772 16 18412266112130239502
99344 41 18411135827314734988

> <PUBCHEM_SHAPE_MULTIPOLES>
693.15
19.55
5.6
1.08
11.86
8.48
-0.19
-18.94
0.85
6.66
-0.58
-0.43
0.33
-0.64

> <PUBCHEM_SHAPE_SELFOVERLAP>
1458.587

> <PUBCHEM_SHAPE_VOLUME>
394

> <PUBCHEM_COORDINATE_TYPE>
2
5
10

$$$$
