11942229
  -OEChem-12032416153D

 48 51  0     1  0  0  0  0  0999 V2000
    2.3641   -0.7664    1.7050 O   0  0  0  0  0  0  0  0  0  0  0  0
   -5.8915   -0.2289    0.7514 O   0  0  0  0  0  0  0  0  0  0  0  0
    0.9450    2.0885   -1.2627 N   0  0  2  0  0  0  0  0  0  0  0  0
    4.0466   -0.6470    0.1055 N   0  0  0  0  0  0  0  0  0  0  0  0
   -1.8588   -0.4238   -0.8345 N   0  0  0  0  0  0  0  0  0  0  0  0
   -1.7716   -1.3687    0.1066 N   0  0  0  0  0  0  0  0  0  0  0  0
   -3.0155   -1.7123    0.4219 N   0  0  0  0  0  0  0  0  0  0  0  0
    1.4251    1.7658    1.2744 C   0  0  2  0  0  0  0  0  0  0  0  0
    2.5866    1.2312    0.4146 C   0  0  2  0  0  0  0  0  0  0  0  0
   -0.1996    1.3947   -0.6140 C   0  0  2  0  0  0  0  0  0  0  0  0
    0.1225    1.0542    0.8576 C   0  0  0  0  0  0  0  0  0  0  0  0
    1.2643    3.2565    0.9262 C   0  0  0  0  0  0  0  0  0  0  0  0
    2.1939    1.3103   -1.0714 C   0  0  0  0  0  0  0  0  0  0  0  0
    1.1147    3.4055   -0.5994 C   0  0  0  0  0  0  0  0  0  0  0  0
   -0.6527    0.1606   -1.3971 C   0  0  0  0  0  0  0  0  0  0  0  0
    2.9621   -0.1629    0.8176 C   0  0  0  0  0  0  0  0  0  0  0  0
    4.6030   -1.9491    0.3391 C   0  0  0  0  0  0  0  0  0  0  0  0
    5.3684   -2.6573   -0.7313 C   0  0  0  0  0  0  0  0  0  0  0  0
    4.0166   -3.1582   -0.3149 C   0  0  0  0  0  0  0  0  0  0  0  0
   -3.1396   -0.1279   -1.1554 C   0  0  0  0  0  0  0  0  0  0  0  0
   -3.8654   -0.9616   -0.3421 C   0  0  0  0  0  0  0  0  0  0  0  0
   -5.3223   -1.1060   -0.2289 C   0  0  0  0  0  0  0  0  0  0  0  0
   -7.2959   -0.3970    0.8316 C   0  0  0  0  0  0  0  0  0  0  0  0
    1.6104    1.6391    2.3467 H   0  0  0  0  0  0  0  0  0  0  0  0
    3.4694    1.8623    0.5905 H   0  0  0  0  0  0  0  0  0  0  0  0
   -1.0510    2.0916   -0.6183 H   0  0  0  0  0  0  0  0  0  0  0  0
   -0.7001    1.3986    1.4975 H   0  0  0  0  0  0  0  0  0  0  0  0
    0.2163   -0.0211    1.0203 H   0  0  0  0  0  0  0  0  0  0  0  0
    0.3832    3.6674    1.4337 H   0  0  0  0  0  0  0  0  0  0  0  0
    2.1349    3.8260    1.2721 H   0  0  0  0  0  0  0  0  0  0  0  0
    2.0957    0.3216   -1.5335 H   0  0  0  0  0  0  0  0  0  0  0  0
    3.0010    1.8010   -1.6314 H   0  0  0  0  0  0  0  0  0  0  0  0
    1.9898    3.9202   -1.0164 H   0  0  0  0  0  0  0  0  0  0  0  0
    0.2586    4.0523   -0.8286 H   0  0  0  0  0  0  0  0  0  0  0  0
    0.1051   -0.6308   -1.4143 H   0  0  0  0  0  0  0  0  0  0  0  0
   -0.8798    0.4221   -2.4377 H   0  0  0  0  0  0  0  0  0  0  0  0
    4.9744   -2.0651    1.3523 H   0  0  0  0  0  0  0  0  0  0  0  0
    6.2341   -3.2370   -0.4355 H   0  0  0  0  0  0  0  0  0  0  0  0
    5.4530   -2.1904   -1.7050 H   0  0  0  0  0  0  0  0  0  0  0  0
    3.1954   -3.0255   -1.0087 H   0  0  0  0  0  0  0  0  0  0  0  0
    3.9726   -4.0737    0.2622 H   0  0  0  0  0  0  0  0  0  0  0  0
    4.4942   -0.0631   -0.5959 H   0  0  0  0  0  0  0  0  0  0  0  0
   -3.4171    0.6107   -1.8940 H   0  0  0  0  0  0  0  0  0  0  0  0
   -5.5628   -2.1416    0.0417 H   0  0  0  0  0  0  0  0  0  0  0  0
   -5.7879   -0.9010   -1.2010 H   0  0  0  0  0  0  0  0  0  0  0  0
   -7.5462   -1.4196    1.1304 H   0  0  0  0  0  0  0  0  0  0  0  0
   -7.6828    0.2896    1.5895 H   0  0  0  0  0  0  0  0  0  0  0  0
   -7.7690   -0.1582   -0.1260 H   0  0  0  0  0  0  0  0  0  0  0  0
  1 16  2  0  0  0  0
  2 22  1  0  0  0  0
  2 23  1  0  0  0  0
  3 10  1  0  0  0  0
  3 13  1  0  0  0  0
  3 14  1  0  0  0  0
  4 16  1  0  0  0  0
  4 17  1  0  0  0  0
  4 42  1  0  0  0  0
  5  6  1  0  0  0  0
  5 15  1  0  0  0  0
  5 20  1  0  0  0  0
  6  7  2  0  0  0  0
  7 21  1  0  0  0  0
  8  9  1  0  0  0  0
  8 11  1  0  0  0  0
  8 12  1  0  0  0  0
  8 24  1  0  0  0  0
  9 13  1  0  0  0  0
  9 16  1  0  0  0  0
  9 25  1  0  0  0  0
 10 11  1  0  0  0  0
 10 15  1  0  0  0  0
 10 26  1  0  0  0  0
 11 27  1  0  0  0  0
 11 28  1  0  0  0  0
 12 14  1  0  0  0  0
 12 29  1  0  0  0  0
 12 30  1  0  0  0  0
 13 31  1  0  0  0  0
 13 32  1  0  0  0  0
 14 33  1  0  0  0  0
 14 34  1  0  0  0  0
 15 35  1  0  0  0  0
 15 36  1  0  0  0  0
 17 18  1  0  0  0  0
 17 19  1  0  0  0  0
 17 37  1  0  0  0  0
 18 19  1  0  0  0  0
 18 38  1  0  0  0  0
 18 39  1  0  0  0  0
 19 40  1  0  0  0  0
 19 41  1  0  0  0  0
 20 21  2  0  0  0  0
 20 43  1  0  0  0  0
 21 22  1  0  0  0  0
 22 44  1  0  0  0  0
 22 45  1  0  0  0  0
 23 46  1  0  0  0  0
 23 47  1  0  0  0  0
 23 48  1  0  0  0  0
M  END
> <PUBCHEM_COMPOUND_CID>
11942229

> <PUBCHEM_CONFORMER_RMSD>
0.8

> <PUBCHEM_CONFORMER_DIVERSEORDER>
1
13
69
61
11
41
60
7
22
48
21
44
70
56
43
63
34
39
35
37
50
33
16
47
74
18
30
10
54
65
76
12
55
51
53
23
46
52
32
36
66
75
59
67
57
6
42
72
64
14
77
2
71
73
24
45
40
15
3
58
29
38
62
17
8
49
68
19
31
4
27
25
26
9
5
20
28

> <PUBCHEM_MMFF94_PARTIAL_CHARGES>
27
1 -0.57
10 0.27
13 0.27
14 0.27
15 0.26
16 0.57
17 0.05
18 -0.2
19 -0.2
2 -0.56
20 -0.3
21 0.05
22 0.46
23 0.28
3 -0.81
37 0.1
38 0.1
39 0.1
4 -0.58
40 0.1
41 0.1
42 0.37
43 0.15
5 0.31
6 -0.42
7 -0.23
9 0.06

> <PUBCHEM_EFFECTIVE_ROTOR_COUNT>
8.8

> <PUBCHEM_PHARMACOPHORE_FEATURES>
6
1 1 acceptor
1 2 acceptor
1 3 cation
1 4 donor
5 5 6 7 20 21 rings
8 3 8 9 10 11 12 13 14 rings

> <PUBCHEM_HEAVY_ATOM_COUNT>
23

> <PUBCHEM_ATOM_DEF_STEREO_COUNT>
3

> <PUBCHEM_ATOM_UDEF_STEREO_COUNT>
0

> <PUBCHEM_BOND_DEF_STEREO_COUNT>
0

> <PUBCHEM_BOND_UDEF_STEREO_COUNT>
0

> <PUBCHEM_ISOTOPIC_ATOM_COUNT>
0

> <PUBCHEM_COMPONENT_COUNT>
1

> <PUBCHEM_CACTVS_TAUTO_COUNT>
2

> <PUBCHEM_CONFORMER_ID>
00B6395500000001

> <PUBCHEM_MMFF94_ENERGY>
49.2289

> <PUBCHEM_FEATURE_SELFOVERLAP>
30.446

> <PUBCHEM_SHAPE_FINGERPRINT>
10692045 39 18411710872634891203
10764073 3 16196231049659391976
11140007 195 18343861117262892435
11954058 11 18341326790258705183
11961588 58 10953751014072525885
12107183 9 18272657805759116843
12403259 327 16128080243873848554
12596602 18 16056303038344362442
12617007 42 17531243993565819396
13533116 47 18340486768123212147
13631057 29 18266460894143970054
13673619 4 18040434374008597775
13785724 45 18128830663253462126
13911852 28 18269828740128132127
14251732 14 15574720188194392215
14251764 30 18187927227160978139
14341114 176 18335421292379241857
14866123 147 17836644119699930153
15061688 2 8862648128085965966
15475509 84 17632297839321457536
15806764 133 17750217219153461085
16120349 189 10087051065495542154
17818456 19 17989210348021794121
17980427 26 17698425960751598556
1813 80 18335137566459775484
20388580 30 18186804669212763580
20645477 70 18189886685687989111
20775530 9 18339349756999344534
20832881 197 18410295796125636459
21120745 212 18199202693993951204
21279426 13 18263916662316482837
21403212 168 10375871836704804158
21774942 28 16915950561625046329
23466295 7 17765156068981644726
23559900 14 18261951955212309135
2838139 119 8646765586803551266
314173 41 18260542338260972610
3246875 12 9006470824404190519
3421961 26 18341325669593441688
345986 75 17987793004129231258
3680242 22 18130239224455227249
4072396 5 16917073256878909447
437815 12 18341328898923792006
46194498 28 17530966920824968980
4921388 177 17765711322696082278
6443956 14 18411981355919573574
6823239 73 16371294436530541473
70251023 43 18336267817595991098
8509985 295 17704075127030042161

> <PUBCHEM_SHAPE_MULTIPOLES>
436.69
12.46
3.54
1.3
19.22
1.17
0
-12.06
-2.24
-5.19
0.18
-0.11
0.37
0.44

> <PUBCHEM_SHAPE_SELFOVERLAP>
917.456

> <PUBCHEM_SHAPE_VOLUME>
244.7

> <PUBCHEM_COORDINATE_TYPE>
2
5
10

$$$$
