51137016
  -OEChem-12032416253D

 42 45  0     1  0  0  0  0  0999 V2000
   -6.7095    0.4239    0.3698 F   0  0  0  0  0  0  0  0  0  0  0  0
   -6.4756   -1.7068    0.7346 F   0  0  0  0  0  0  0  0  0  0  0  0
   -6.4401   -0.9358   -1.2982 F   0  0  0  0  0  0  0  0  0  0  0  0
    4.1038    0.8677    2.2095 O   0  0  0  0  0  0  0  0  0  0  0  0
    2.7445    1.3639    0.3929 N   0  0  0  0  0  0  0  0  0  0  0  0
   -1.5966    1.4659   -1.0654 N   0  0  0  0  0  0  0  0  0  0  0  0
   -0.4259    0.0981    0.2380 N   0  0  0  0  0  0  0  0  0  0  0  0
    0.8858    1.8769   -1.0019 C   0  0  1  0  0  0  0  0  0  0  0  0
    1.1704    3.0609   -0.0647 C   0  0  0  0  0  0  0  0  0  0  0  0
    2.2091    1.1007   -0.9438 C   0  0  0  0  0  0  0  0  0  0  0  0
    2.0324    2.4573    1.0358 C   0  0  0  0  0  0  0  0  0  0  0  0
   -0.3638    1.1204   -0.5854 C   0  0  0  0  0  0  0  0  0  0  0  0
    3.7354    0.6566    1.0558 C   0  0  0  0  0  0  0  0  0  0  0  0
   -2.5151    0.6093   -0.5151 C   0  0  0  0  0  0  0  0  0  0  0  0
   -1.7599   -0.2345    0.2944 C   0  0  0  0  0  0  0  0  0  0  0  0
    4.3879   -0.4429    0.3280 C   0  0  0  0  0  0  0  0  0  0  0  0
   -3.8996    0.5034   -0.6518 C   0  0  0  0  0  0  0  0  0  0  0  0
   -2.4077   -1.2500    1.0180 C   0  0  0  0  0  0  0  0  0  0  0  0
   -4.5281   -0.5128    0.0755 C   0  0  0  0  0  0  0  0  0  0  0  0
   -3.7973   -1.3750    0.8962 C   0  0  0  0  0  0  0  0  0  0  0  0
    5.0695   -0.1850   -0.8614 C   0  0  0  0  0  0  0  0  0  0  0  0
    4.3263   -1.7434    0.8285 C   0  0  0  0  0  0  0  0  0  0  0  0
   -6.0089   -0.6776   -0.0291 C   0  0  0  0  0  0  0  0  0  0  0  0
    5.6893   -1.2275   -1.5503 C   0  0  0  0  0  0  0  0  0  0  0  0
    4.9462   -2.7859    0.1398 C   0  0  0  0  0  0  0  0  0  0  0  0
    5.6277   -2.5280   -1.0497 C   0  0  0  0  0  0  0  0  0  0  0  0
    0.7226    2.2341   -2.0269 H   0  0  0  0  0  0  0  0  0  0  0  0
    1.7543    3.8163   -0.6060 H   0  0  0  0  0  0  0  0  0  0  0  0
    0.2744    3.5487    0.3315 H   0  0  0  0  0  0  0  0  0  0  0  0
    2.0934    0.0273   -1.1204 H   0  0  0  0  0  0  0  0  0  0  0  0
    2.9181    1.5155   -1.6684 H   0  0  0  0  0  0  0  0  0  0  0  0
    1.4227    2.0345    1.8420 H   0  0  0  0  0  0  0  0  0  0  0  0
    2.7377    3.1730    1.4689 H   0  0  0  0  0  0  0  0  0  0  0  0
   -1.7979    2.2188   -1.7101 H   0  0  0  0  0  0  0  0  0  0  0  0
   -4.4576    1.1783   -1.2919 H   0  0  0  0  0  0  0  0  0  0  0  0
   -1.8484   -1.9247    1.6582 H   0  0  0  0  0  0  0  0  0  0  0  0
   -4.2931   -2.1626    1.4584 H   0  0  0  0  0  0  0  0  0  0  0  0
    5.1481    0.8248   -1.2550 H   0  0  0  0  0  0  0  0  0  0  0  0
    3.7964   -1.9575    1.7531 H   0  0  0  0  0  0  0  0  0  0  0  0
    6.2244   -1.0260   -2.4737 H   0  0  0  0  0  0  0  0  0  0  0  0
    4.8980   -3.7986    0.5293 H   0  0  0  0  0  0  0  0  0  0  0  0
    6.1112   -3.3396   -1.5855 H   0  0  0  0  0  0  0  0  0  0  0  0
  1 23  1  0  0  0  0
  2 23  1  0  0  0  0
  3 23  1  0  0  0  0
  4 13  2  0  0  0  0
  5 10  1  0  0  0  0
  5 11  1  0  0  0  0
  5 13  1  0  0  0  0
  6 12  1  0  0  0  0
  6 14  1  0  0  0  0
  6 34  1  0  0  0  0
  7 12  2  0  0  0  0
  7 15  1  0  0  0  0
  8  9  1  0  0  0  0
  8 10  1  0  0  0  0
  8 12  1  0  0  0  0
  8 27  1  0  0  0  0
  9 11  1  0  0  0  0
  9 28  1  0  0  0  0
  9 29  1  0  0  0  0
 10 30  1  0  0  0  0
 10 31  1  0  0  0  0
 11 32  1  0  0  0  0
 11 33  1  0  0  0  0
 13 16  1  0  0  0  0
 14 15  2  0  0  0  0
 14 17  1  0  0  0  0
 15 18  1  0  0  0  0
 16 21  2  0  0  0  0
 16 22  1  0  0  0  0
 17 19  2  0  0  0  0
 17 35  1  0  0  0  0
 18 20  2  0  0  0  0
 18 36  1  0  0  0  0
 19 20  1  0  0  0  0
 19 23  1  0  0  0  0
 20 37  1  0  0  0  0
 21 24  1  0  0  0  0
 21 38  1  0  0  0  0
 22 25  2  0  0  0  0
 22 39  1  0  0  0  0
 24 26  2  0  0  0  0
 24 40  1  0  0  0  0
 25 26  1  0  0  0  0
 25 41  1  0  0  0  0
 26 42  1  0  0  0  0
M  END
> <PUBCHEM_COMPOUND_CID>
51137016

> <PUBCHEM_CONFORMER_RMSD>
0.8

> <PUBCHEM_CONFORMER_DIVERSEORDER>
1
36
6
23
24
10
30
32
37
31
34
18
9
29
14
13
15
27
17
35
26
21
25
20
19
28
8
3
7
33
5
11
16
22
4
12
2

> <PUBCHEM_MMFF94_PARTIAL_CHARGES>
34
1 -0.34
10 0.3
11 0.3
12 0.01
13 0.54
14 -0.15
15 0.23
16 0.09
17 -0.15
18 -0.15
19 -0.14
2 -0.34
20 -0.15
21 -0.15
22 -0.15
23 1.16
24 -0.15
25 -0.15
26 -0.15
3 -0.34
34 0.27
35 0.15
36 0.15
37 0.15
38 0.15
39 0.15
4 -0.57
40 0.15
41 0.15
42 0.15
5 -0.66
6 0.03
7 -0.57
8 0.18

> <PUBCHEM_EFFECTIVE_ROTOR_COUNT>
5

> <PUBCHEM_PHARMACOPHORE_FEATURES>
7
1 4 acceptor
1 6 donor
3 6 7 12 cation
5 5 8 9 10 11 rings
5 6 7 12 14 15 rings
6 14 15 17 18 19 20 rings
6 16 21 22 24 25 26 rings

> <PUBCHEM_HEAVY_ATOM_COUNT>
26

> <PUBCHEM_ATOM_DEF_STEREO_COUNT>
1

> <PUBCHEM_ATOM_UDEF_STEREO_COUNT>
0

> <PUBCHEM_BOND_DEF_STEREO_COUNT>
0

> <PUBCHEM_BOND_UDEF_STEREO_COUNT>
0

> <PUBCHEM_ISOTOPIC_ATOM_COUNT>
0

> <PUBCHEM_COMPONENT_COUNT>
1

> <PUBCHEM_CACTVS_TAUTO_COUNT>
2

> <PUBCHEM_CONFORMER_ID>
030C49F800000001

> <PUBCHEM_MMFF94_ENERGY>
57.0587

> <PUBCHEM_FEATURE_SELFOVERLAP>
35.629

> <PUBCHEM_SHAPE_FINGERPRINT>
10 15 12823288013843792023
10319926 262 13254795750669859284
10928967 22 18270959047325587198
117089 54 17840881668354819062
11796584 16 17676488396941451978
11991303 11 17683243568955957133
12166972 35 18060140955046281209
12422481 6 18060136565880115143
12516196 113 18412826876456671780
12596602 18 16773791545302781586
12633257 1 16487248860081917822
13103583 49 17845951623458417448
13402501 40 18408045087381798338
13533116 47 18273214235245515432
13631057 29 18264777559079379230
13673619 4 18059299760759535716
13685833 64 18411138026522444290
13782708 43 18411416241819645567
13911852 28 18341612551781400102
13914758 101 17846219913334071521
13955234 65 18197779006318354936
14211702 104 18268147755070606607
14251764 30 17845383150620685030
14528608 73 9079119968540721657
14617045 38 18113903749318975018
14739800 52 11383841411116088766
14866123 147 18050568439337895665
14931854 50 17749959856271284158
15183329 4 17603864499192385767
15475509 8 17967535632253883765
15510800 12 18198058076561753446
15664445 248 17458350788472460100
17349148 13 17561086929466067965
173720 79 14692569922843602957
17909252 39 18265891351210060794
1813 80 17313099756922864484
18222031 100 18410575085058711350
20397935 70 18202564007575006894
20403669 9 18409450254646562094
20505436 4 16843315959741759788
20715895 44 9223226343575840270
21130935 74 18272372009956012203
21279426 13 18260537897565638045
21304303 94 16588025693474056786
21682296 61 18413111632709554695
21781051 124 17023201461061976067
221357 26 18334858294885839602
2215653 11 18333166176428901895
23016692 55 18187370917384582892
23522609 53 18121252863554248084
23559900 14 18041847323633185053
23569943 247 18267021661695206507
239999 70 18114178683809560552
2838139 119 9799409975761767378
3004659 81 17748829618304307500
3421961 26 18412543236895890120
345986 75 17631729366524889738
3472631 163 8862650301202274160
3680242 22 11600008739080576150
3886686 26 15262036492651577918
404807 14 17410228209161047559
4340502 62 10879995761122602313
437815 12 18412267216068469024
439807 62 18041000584027319522
46194498 28 17530968024895516108
465052 167 18201441355190857318
5104073 3 17988358178902144176
5309563 4 18270400473811640062
543368 44 11241971490952504431
57816373 69 17632577145640090918
59755656 215 17967522455478588951
6823239 73 18334574651219631394
86090 222 17774456983870254790
960060 61 16515684442410055672

> <PUBCHEM_SHAPE_MULTIPOLES>
492.43
16.5
2.75
1.35
13.88
0.42
-0.16
-12.41
1.56
-3.11
-0.09
-1.22
0.07
1.54

> <PUBCHEM_SHAPE_SELFOVERLAP>
1090.252

> <PUBCHEM_SHAPE_VOLUME>
267.3

> <PUBCHEM_COORDINATE_TYPE>
2
5
10

$$$$
