51137116
  -OEChem-12032416143D

 44 48  0     1  0  0  0  0  0999 V2000
   -0.9146    0.2409   -0.0010 N   0  0  1  0  0  0  0  0  0  0  0  0
    3.5881   -1.2959    0.5673 N   0  0  0  0  0  0  0  0  0  0  0  0
    3.2761    0.7951   -0.1187 N   0  0  0  0  0  0  0  0  0  0  0  0
   -5.1056    1.7831    0.2724 N   0  0  0  0  0  0  0  0  0  0  0  0
    1.2241   -0.4578    0.6602 C   0  0  2  0  0  0  0  0  0  0  0  0
    0.3321   -0.2705   -0.5745 C   0  0  0  0  0  0  0  0  0  0  0  0
    0.6579    0.5225    1.7021 C   0  0  0  0  0  0  0  0  0  0  0  0
   -0.4949    1.2250    0.9967 C   0  0  0  0  0  0  0  0  0  0  0  0
   -1.7951    0.8139   -1.0083 C   0  0  0  0  0  0  0  0  0  0  0  0
    2.6942   -0.2830    0.3569 C   0  0  0  0  0  0  0  0  0  0  0  0
   -3.2120    0.9319   -0.5128 C   0  0  0  0  0  0  0  0  0  0  0  0
   -4.1551   -0.1257   -0.3833 C   0  0  0  0  0  0  0  0  0  0  0  0
    4.8294   -0.8411    0.2031 C   0  0  0  0  0  0  0  0  0  0  0  0
    4.6083    0.4662   -0.2214 C   0  0  0  0  0  0  0  0  0  0  0  0
   -3.8256    2.0927   -0.1021 C   0  0  0  0  0  0  0  0  0  0  0  0
   -5.3346    0.4351    0.1112 C   0  0  0  0  0  0  0  0  0  0  0  0
   -4.1184   -1.5107   -0.6402 C   0  0  0  0  0  0  0  0  0  0  0  0
    6.0884   -1.4427    0.2086 C   0  0  0  0  0  0  0  0  0  0  0  0
    5.6962    1.2336   -0.6705 C   0  0  0  0  0  0  0  0  0  0  0  0
   -6.4837   -0.3227    0.3628 C   0  0  0  0  0  0  0  0  0  0  0  0
   -5.2605   -2.2813   -0.3933 C   0  0  0  0  0  0  0  0  0  0  0  0
    7.1598   -0.6644   -0.2418 C   0  0  0  0  0  0  0  0  0  0  0  0
    6.9695    0.6502   -0.6740 C   0  0  0  0  0  0  0  0  0  0  0  0
   -6.4239   -1.6943    0.1005 C   0  0  0  0  0  0  0  0  0  0  0  0
    1.0672   -1.4748    1.0484 H   0  0  0  0  0  0  0  0  0  0  0  0
    0.7714    0.4466   -1.2807 H   0  0  0  0  0  0  0  0  0  0  0  0
    0.1778   -1.2189   -1.1006 H   0  0  0  0  0  0  0  0  0  0  0  0
    1.3975    1.2415    2.0701 H   0  0  0  0  0  0  0  0  0  0  0  0
    0.2835   -0.0410    2.5660 H   0  0  0  0  0  0  0  0  0  0  0  0
   -1.2930    1.4762    1.7023 H   0  0  0  0  0  0  0  0  0  0  0  0
   -0.1321    2.1512    0.5325 H   0  0  0  0  0  0  0  0  0  0  0  0
   -1.8222    0.1584   -1.8899 H   0  0  0  0  0  0  0  0  0  0  0  0
   -1.4312    1.7851   -1.3694 H   0  0  0  0  0  0  0  0  0  0  0  0
    3.3759   -2.2171    0.9270 H   0  0  0  0  0  0  0  0  0  0  0  0
   -3.4677    3.1111   -0.0414 H   0  0  0  0  0  0  0  0  0  0  0  0
   -5.7846    2.4472    0.6177 H   0  0  0  0  0  0  0  0  0  0  0  0
   -3.2196   -1.9842   -1.0249 H   0  0  0  0  0  0  0  0  0  0  0  0
    6.2336   -2.4631    0.5446 H   0  0  0  0  0  0  0  0  0  0  0  0
    5.5587    2.2558   -1.0082 H   0  0  0  0  0  0  0  0  0  0  0  0
   -7.3899    0.1333    0.7473 H   0  0  0  0  0  0  0  0  0  0  0  0
   -5.2380   -3.3500   -0.5894 H   0  0  0  0  0  0  0  0  0  0  0  0
    8.1595   -1.0916   -0.2553 H   0  0  0  0  0  0  0  0  0  0  0  0
    7.8219    1.2302   -1.0184 H   0  0  0  0  0  0  0  0  0  0  0  0
   -7.2993   -2.3117    0.2851 H   0  0  0  0  0  0  0  0  0  0  0  0
  1  6  1  0  0  0  0
  1  8  1  0  0  0  0
  1  9  1  0  0  0  0
  2 10  1  0  0  0  0
  2 13  1  0  0  0  0
  2 34  1  0  0  0  0
  3 10  2  0  0  0  0
  3 14  1  0  0  0  0
  4 15  1  0  0  0  0
  4 16  1  0  0  0  0
  4 36  1  0  0  0  0
  5  6  1  0  0  0  0
  5  7  1  0  0  0  0
  5 10  1  0  0  0  0
  5 25  1  0  0  0  0
  6 26  1  0  0  0  0
  6 27  1  0  0  0  0
  7  8  1  0  0  0  0
  7 28  1  0  0  0  0
  7 29  1  0  0  0  0
  8 30  1  0  0  0  0
  8 31  1  0  0  0  0
  9 11  1  0  0  0  0
  9 32  1  0  0  0  0
  9 33  1  0  0  0  0
 11 12  1  0  0  0  0
 11 15  2  0  0  0  0
 12 16  1  0  0  0  0
 12 17  2  0  0  0  0
 13 14  1  0  0  0  0
 13 18  2  0  0  0  0
 14 19  2  0  0  0  0
 15 35  1  0  0  0  0
 16 20  2  0  0  0  0
 17 21  1  0  0  0  0
 17 37  1  0  0  0  0
 18 22  1  0  0  0  0
 18 38  1  0  0  0  0
 19 23  1  0  0  0  0
 19 39  1  0  0  0  0
 20 24  1  0  0  0  0
 20 40  1  0  0  0  0
 21 24  2  0  0  0  0
 21 41  1  0  0  0  0
 22 23  2  0  0  0  0
 22 42  1  0  0  0  0
 23 43  1  0  0  0  0
 24 44  1  0  0  0  0
M  END
> <PUBCHEM_COMPOUND_CID>
51137116

> <PUBCHEM_CONFORMER_RMSD>
0.8

> <PUBCHEM_CONFORMER_DIVERSEORDER>
1
33
22
34
5
26
43
21
4
18
28
44
47
36
39
11
46
17
7
23
35
32
40
29
15
27
41
25
31
42
30
14
6
3
9
16
45
12
10
38
2
13
19
20
37
24
8

> <PUBCHEM_MMFF94_PARTIAL_CHARGES>
33
1 -0.81
10 0.01
11 -0.18
13 -0.15
14 0.23
15 -0.3
16 -0.15
17 -0.15
18 -0.15
19 -0.15
2 0.03
20 -0.15
21 -0.15
22 -0.15
23 -0.15
24 -0.15
3 -0.57
34 0.27
35 0.15
36 0.27
37 0.15
38 0.15
39 0.15
4 0.03
40 0.15
41 0.15
42 0.15
43 0.15
44 0.15
5 0.18
6 0.27
8 0.27
9 0.45

> <PUBCHEM_EFFECTIVE_ROTOR_COUNT>
4

> <PUBCHEM_PHARMACOPHORE_FEATURES>
10
1 1 cation
1 2 donor
1 4 cation
1 4 donor
3 2 3 10 cation
5 1 5 6 7 8 rings
5 2 3 10 13 14 rings
5 4 11 12 15 16 rings
6 12 16 17 20 21 24 rings
6 13 14 18 19 22 23 rings

> <PUBCHEM_HEAVY_ATOM_COUNT>
24

> <PUBCHEM_ATOM_DEF_STEREO_COUNT>
1

> <PUBCHEM_ATOM_UDEF_STEREO_COUNT>
0

> <PUBCHEM_BOND_DEF_STEREO_COUNT>
0

> <PUBCHEM_BOND_UDEF_STEREO_COUNT>
0

> <PUBCHEM_ISOTOPIC_ATOM_COUNT>
0

> <PUBCHEM_COMPONENT_COUNT>
1

> <PUBCHEM_CACTVS_TAUTO_COUNT>
1

> <PUBCHEM_CONFORMER_ID>
030C4A5C00000001

> <PUBCHEM_MMFF94_ENERGY>
43.5734

> <PUBCHEM_FEATURE_SELFOVERLAP>
50.947

> <PUBCHEM_SHAPE_FINGERPRINT>
10299344 5 18410858767506427675
10595046 47 18334012770396535576
10968037 39 18040715883782928879
11089746 13 9943803387223559758
11315181 36 18335140895597668917
11524674 6 16630526258804902415
117089 54 17827648264336092331
12166972 35 18334860532780643956
12236239 1 18410012118057419636
12821665 9 18115595996461148044
13288520 33 18411417324325210821
13533116 47 16226319319151596960
1361 4 18334575741720240642
13631057 29 18411134766938055651
13668630 136 18201443545856319166
13673619 4 18130786798093165737
13690498 29 18409160031169492813
13914758 101 9655586209490362167
14123256 10 17530683220854751123
14347424 109 9799698074274225014
14461889 52 18337385063249045762
14849402 71 18262244442581015460
14856354 85 18202288017804017133
14933364 13 18412827984305143492
15142383 8 9439407913466933498
15183329 4 18260827094455677442
15352257 5 18273496775311175670
15461852 350 12685099198089635203
15537594 2 16630522917029812238
15716309 27 18335139791284593647
15799311 1 18339936951610615359
16114785 44 14997397316228666093
17844677 252 18342460347986695705
18335252 98 18342178886511811870
21150785 3 18260270767900573372
21236236 1 18409730664608435883
21267235 1 18335985363667351971
21623969 137 17274826843813023230
21792961 116 17775005635444127012
22849341 161 15410613726435043489
22950370 63 18411979157033468193
2297311 6 18344147003783043185
23035841 295 18342458140594661763
23081809 10 17458340802161312680
23198884 109 18113057134076484179
23424782 7 18338236076157823410
23516275 137 18197800828773334515
23522609 53 18195274219639948889
23536379 177 18409166584914935960
23559900 14 18339350985797685089
23569943 247 16952521382994325242
3004659 81 18410573968842163002
3009799 131 13840260399202747231
314173 85 15123788479115318496
335352 9 18411975863848567837
34797466 226 16917071084243168720
397830 11 16772653585396907786
4073 2 17968101949361516602
4325135 7 18333450949739795599
445580 167 17968380143093690660
497634 4 18335419041632100517
5207 217 16226047816297617307
5265222 85 18201439245950653022
7062679 117 18334013912952840323
7226269 152 9727642704512911359
7495541 125 18201434813338636136
8863177 126 17916860365068397467
9996256 80 18333730204561344420
999808 66 18187093888353703947

> <PUBCHEM_SHAPE_MULTIPOLES>
473.98
20.73
1.83
0.97
10.72
0.19
-0.18
4.9
2.47
-2.2
0.08
0.14
-0.13
-0.75

> <PUBCHEM_SHAPE_SELFOVERLAP>
1061.849

> <PUBCHEM_SHAPE_VOLUME>
253.2

> <PUBCHEM_COORDINATE_TYPE>
2
5
10

$$$$
