11883359
  -OEChem-12032416373D

 58 61  0     1  0  0  0  0  0999 V2000
   -9.4010    0.3306   -0.3496 F   0  0  0  0  0  0  0  0  0  0  0  0
   -8.9643    2.3592    0.2811 F   0  0  0  0  0  0  0  0  0  0  0  0
   -8.8993    0.7362    1.7270 F   0  0  0  0  0  0  0  0  0  0  0  0
    2.1203   -0.8004   -1.2941 O   0  0  0  0  0  0  0  0  0  0  0  0
    1.3698   -3.1790    0.4901 O   0  0  0  0  0  0  0  0  0  0  0  0
    4.3164   -1.1453    0.3686 O   0  0  0  0  0  0  0  0  0  0  0  0
    4.3998    0.4449    2.0237 O   0  0  0  0  0  0  0  0  0  0  0  0
   -2.7706   -2.0797   -0.2801 O   0  0  0  0  0  0  0  0  0  0  0  0
   -0.9882   -0.7679   -0.9494 N   0  0  0  0  0  0  0  0  0  0  0  0
    6.1346    0.1973    0.5034 N   0  0  0  0  0  0  0  0  0  0  0  0
   -3.0434    0.2195   -0.6674 N   0  0  0  0  0  0  0  0  0  0  0  0
    0.7671   -1.8780    0.3279 C   0  0  1  0  0  0  0  0  0  0  0  0
    1.8993   -0.8918    0.1233 C   0  0  1  0  0  0  0  0  0  0  0  0
   -0.0025   -1.8209   -0.9711 C   0  0  2  0  0  0  0  0  0  0  0  0
    3.0518   -1.5674    0.8268 C   0  0  1  0  0  0  0  0  0  0  0  0
    1.0935   -1.5313   -1.9822 C   0  0  0  0  0  0  0  0  0  0  0  0
    2.7964   -3.0274    0.5279 C   0  0  0  0  0  0  0  0  0  0  0  0
    7.0012    1.2413    1.0036 C   0  0  0  0  0  0  0  0  0  0  0  0
    8.4758    0.8774    0.8005 C   0  0  0  0  0  0  0  0  0  0  0  0
    6.6680    2.5905    0.3578 C   0  0  0  0  0  0  0  0  0  0  0  0
    8.8990    0.9478   -0.6667 C   0  0  0  0  0  0  0  0  0  0  0  0
    7.0941    2.6580   -1.1089 C   0  0  0  0  0  0  0  0  0  0  0  0
    8.5674    2.3030   -1.2840 C   0  0  0  0  0  0  0  0  0  0  0  0
    4.9093   -0.1108    1.0561 C   0  0  0  0  0  0  0  0  0  0  0  0
   -2.3274   -0.9789   -0.5982 C   0  0  0  0  0  0  0  0  0  0  0  0
   -4.4147    0.4285   -0.3910 C   0  0  0  0  0  0  0  0  0  0  0  0
   -4.9642    1.7046   -0.5150 C   0  0  0  0  0  0  0  0  0  0  0  0
   -5.2176   -0.6411    0.0055 C   0  0  0  0  0  0  0  0  0  0  0  0
   -6.3165    1.9111   -0.2424 C   0  0  0  0  0  0  0  0  0  0  0  0
   -6.5697   -0.4346    0.2782 C   0  0  0  0  0  0  0  0  0  0  0  0
   -7.1193    0.8415    0.1540 C   0  0  0  0  0  0  0  0  0  0  0  0
   -8.5652    1.0630    0.4446 C   0  0  0  0  0  0  0  0  0  0  0  0
    0.1709   -1.6743    1.2230 H   0  0  0  0  0  0  0  0  0  0  0  0
    1.6880    0.1160    0.4924 H   0  0  0  0  0  0  0  0  0  0  0  0
   -0.5026   -2.7659   -1.2089 H   0  0  0  0  0  0  0  0  0  0  0  0
    2.9454   -1.4331    1.9123 H   0  0  0  0  0  0  0  0  0  0  0  0
    0.7553   -0.9537   -2.8480 H   0  0  0  0  0  0  0  0  0  0  0  0
    1.5470   -2.4606   -2.3442 H   0  0  0  0  0  0  0  0  0  0  0  0
    3.2106   -3.3330   -0.4394 H   0  0  0  0  0  0  0  0  0  0  0  0
    3.2157   -3.6885    1.2925 H   0  0  0  0  0  0  0  0  0  0  0  0
   -0.6838    0.1830   -1.1350 H   0  0  0  0  0  0  0  0  0  0  0  0
    6.8147    1.3258    2.0815 H   0  0  0  0  0  0  0  0  0  0  0  0
    9.0973    1.5720    1.3801 H   0  0  0  0  0  0  0  0  0  0  0  0
    8.6767   -0.1284    1.1886 H   0  0  0  0  0  0  0  0  0  0  0  0
    5.5940    2.7988    0.4330 H   0  0  0  0  0  0  0  0  0  0  0  0
    7.1839    3.3862    0.9104 H   0  0  0  0  0  0  0  0  0  0  0  0
    8.4066    0.1531   -1.2394 H   0  0  0  0  0  0  0  0  0  0  0  0
    9.9772    0.7661   -0.7434 H   0  0  0  0  0  0  0  0  0  0  0  0
    6.9110    3.6663   -1.4973 H   0  0  0  0  0  0  0  0  0  0  0  0
    6.4790    1.9728   -1.7048 H   0  0  0  0  0  0  0  0  0  0  0  0
    9.1865    3.0777   -0.8149 H   0  0  0  0  0  0  0  0  0  0  0  0
    8.8209    2.2948   -2.3501 H   0  0  0  0  0  0  0  0  0  0  0  0
    6.4144   -0.3149   -0.3274 H   0  0  0  0  0  0  0  0  0  0  0  0
   -2.5235    1.0461   -0.9512 H   0  0  0  0  0  0  0  0  0  0  0  0
   -4.3496    2.5466   -0.8230 H   0  0  0  0  0  0  0  0  0  0  0  0
   -4.8655   -1.6560    0.1241 H   0  0  0  0  0  0  0  0  0  0  0  0
   -6.7261    2.9121   -0.3448 H   0  0  0  0  0  0  0  0  0  0  0  0
   -7.1886   -1.2732    0.5866 H   0  0  0  0  0  0  0  0  0  0  0  0
  1 32  1  0  0  0  0
  2 32  1  0  0  0  0
  3 32  1  0  0  0  0
  4 13  1  0  0  0  0
  4 16  1  0  0  0  0
  5 12  1  0  0  0  0
  5 17  1  0  0  0  0
  6 15  1  0  0  0  0
  6 24  1  0  0  0  0
  7 24  2  0  0  0  0
  8 25  2  0  0  0  0
  9 14  1  0  0  0  0
  9 25  1  0  0  0  0
  9 41  1  0  0  0  0
 10 18  1  0  0  0  0
 10 24  1  0  0  0  0
 10 53  1  0  0  0  0
 11 25  1  0  0  0  0
 11 26  1  0  0  0  0
 11 54  1  0  0  0  0
 12 13  1  0  0  0  0
 12 14  1  0  0  0  0
 12 33  1  0  0  0  0
 13 15  1  0  0  0  0
 13 34  1  0  0  0  0
 14 16  1  0  0  0  0
 14 35  1  0  0  0  0
 15 17  1  0  0  0  0
 15 36  1  0  0  0  0
 16 37  1  0  0  0  0
 16 38  1  0  0  0  0
 17 39  1  0  0  0  0
 17 40  1  0  0  0  0
 18 19  1  0  0  0  0
 18 20  1  0  0  0  0
 18 42  1  0  0  0  0
 19 21  1  0  0  0  0
 19 43  1  0  0  0  0
 19 44  1  0  0  0  0
 20 22  1  0  0  0  0
 20 45  1  0  0  0  0
 20 46  1  0  0  0  0
 21 23  1  0  0  0  0
 21 47  1  0  0  0  0
 21 48  1  0  0  0  0
 22 23  1  0  0  0  0
 22 49  1  0  0  0  0
 22 50  1  0  0  0  0
 23 51  1  0  0  0  0
 23 52  1  0  0  0  0
 26 27  2  0  0  0  0
 26 28  1  0  0  0  0
 27 29  1  0  0  0  0
 27 55  1  0  0  0  0
 28 30  2  0  0  0  0
 28 56  1  0  0  0  0
 29 31  2  0  0  0  0
 29 57  1  0  0  0  0
 30 31  1  0  0  0  0
 30 58  1  0  0  0  0
 31 32  1  0  0  0  0
M  END
> <PUBCHEM_COMPOUND_CID>
11883359

> <PUBCHEM_CONFORMER_RMSD>
1

> <PUBCHEM_CONFORMER_DIVERSEORDER>
1
45
18
59
118
13
106
99
104
119
7
23
105
117
9
70
91
3
55
116
111
120
113
81
112
60
73
54
69
87
20
85
49
38
79
66
101
89
110
44
6
98
95
22
57
25
94
88
103
77
42
114
62
100
53
47
52
78
40
39
41
48
17
75
93
28
14
37
92
51
97
36
84
80
83
74
65
30
67
34
8
102
46
24
108
5
72
107
15
121
26
63
96
10
4
35
43
29
68
27
33
71
76
12
21
56
50
86
19
115
11
90
64
31
109
58
32
16
82
2
61

> <PUBCHEM_MMFF94_PARTIAL_CHARGES>
34
1 -0.34
10 -0.73
11 -0.55
12 0.28
13 0.28
14 0.3
15 0.28
16 0.28
17 0.28
18 0.3
2 -0.34
24 0.78
25 0.69
26 0.12
27 -0.15
28 -0.15
29 -0.15
3 -0.34
30 -0.15
31 -0.14
32 1.16
4 -0.56
41 0.37
5 -0.56
53 0.37
54 0.37
55 0.15
56 0.15
57 0.15
58 0.15
6 -0.43
7 -0.57
8 -0.57
9 -0.73

> <PUBCHEM_EFFECTIVE_ROTOR_COUNT>
11.4

> <PUBCHEM_PHARMACOPHORE_FEATURES>
11
1 10 donor
1 11 donor
1 4 acceptor
1 5 acceptor
1 7 acceptor
1 8 acceptor
1 9 donor
5 4 12 13 14 16 rings
5 5 12 13 15 17 rings
6 18 19 20 21 22 23 rings
6 26 27 28 29 30 31 rings

> <PUBCHEM_HEAVY_ATOM_COUNT>
32

> <PUBCHEM_ATOM_DEF_STEREO_COUNT>
4

> <PUBCHEM_ATOM_UDEF_STEREO_COUNT>
0

> <PUBCHEM_BOND_DEF_STEREO_COUNT>
0

> <PUBCHEM_BOND_UDEF_STEREO_COUNT>
0

> <PUBCHEM_ISOTOPIC_ATOM_COUNT>
0

> <PUBCHEM_COMPONENT_COUNT>
1

> <PUBCHEM_CACTVS_TAUTO_COUNT>
6

> <PUBCHEM_CONFORMER_ID>
00B5535F00000001

> <PUBCHEM_MMFF94_ENERGY>
65.1849

> <PUBCHEM_FEATURE_SELFOVERLAP>
56.59

> <PUBCHEM_SHAPE_FINGERPRINT>
10 15 18187362125523321811
106641 1 16225765225056690250
10670039 82 15339125628155346755
10693767 8 11023833864374767300
10883706 17 10519690224860257044
10952577 141 18338242682403334476
11146346 171 18202292415577254822
11386260 185 14692279682039134850
11409948 41 13901922072694545836
12013929 112 15841560651901396757
12539765 74 18343867706049453270
12592606 108 9655576309743972313
14026016 60 14189308019578973412
14565420 104 18113612379318071450
14617042 71 18340771455994520873
14664723 55 17561089128436985504
14747281 78 18040725784437076454
14849402 71 18188208805317117836
15183329 4 11312053253926250007
15188451 53 11674875576695137550
15350500 16 8214145148821231392
15419008 91 17531798036411067101
15510800 12 11602811355633487760
15706992 2 18334303080289694700
1577012 14 18201709661196808806
15840311 113 18408606933728617534
16126227 98 18410291428275946883
16989713 51 17559104604876578623
16992610 120 18410019862463723174
18393751 57 17676201381837153274
18603816 31 12540704751794497329
19302320 297 18041001778133885764
20105231 36 11671771712138444349
2026 5 8862676697813663696
20505436 4 18201430381017543158
21095123 293 18410012143310934224
212700 22 7853857178574317033
21344244 78 16443351940010303071
21585482 111 18262795164382626500
22224240 67 17530960298154703338
23576562 1 16557884867295381729
23729398 52 17984429538274071222
24771293 8 18413389826827065269
3418910 222 17989212530251043425
3711267 37 17988931092942549456
4073 2 18334013895968904019
4169191 19 18408316675327748981
4408954 87 14851602207039003048
504579 68 14117800215075678791
5470011 282 12823005469783922920
5718773 13 9511467732044505306
5758199 1 18333166176402768402
58260988 587 18334575712267262938
5911458 16 18335703866868041604
59682541 35 17240485809932287441
6081469 158 12175622876009614217
6126387 218 14562803345021120111
6201320 221 13398089522282988036
6201320 82 16772404916472895961
9689198 14 18412546539804426718
9953998 17 17385724720862634211
9962374 69 11602831223719376635

> <PUBCHEM_SHAPE_MULTIPOLES>
592.43
32.93
3.02
1.31
19.04
0.51
-0.06
-31.63
4.64
-2.81
-0.23
-1.37
0
-1.61

> <PUBCHEM_SHAPE_SELFOVERLAP>
1261.069

> <PUBCHEM_SHAPE_VOLUME>
329.7

> <PUBCHEM_COORDINATE_TYPE>
2
5
10

$$$$
