40777718
  -OEChem-12032416173D

 61 63  0     1  0  0  0  0  0999 V2000
   -5.0937    2.1181    0.2779 O   0  0  0  0  0  0  0  0  0  0  0  0
   -9.9121    1.1208    1.4599 O   0  0  0  0  0  0  0  0  0  0  0  0
   -9.2293   -0.7352    0.3431 O   0  0  0  0  0  0  0  0  0  0  0  0
   -4.3512    0.2181   -0.8351 N   0  0  0  0  0  0  0  0  0  0  0  0
    2.2125   -0.9693    0.2083 N   0  0  0  0  0  0  0  0  0  0  0  0
    1.9589   -2.1424    0.8132 N   0  0  0  0  0  0  0  0  0  0  0  0
   -1.3733   -1.0934   -0.5312 C   0  0  2  0  0  0  0  0  0  0  0  0
   -2.0231    0.1987    0.0056 C   0  0  0  0  0  0  0  0  0  0  0  0
   -3.0037    0.6575   -1.0807 C   0  0  1  0  0  0  0  0  0  0  0  0
    0.0711   -1.2530   -0.1159 C   0  0  0  0  0  0  0  0  0  0  0  0
   -1.5909   -0.9722   -2.0118 C   0  0  0  0  0  0  0  0  0  0  0  0
   -2.4825   -0.0198   -2.3053 C   0  0  0  0  0  0  0  0  0  0  0  0
    1.1151   -0.3955   -0.3635 C   0  0  0  0  0  0  0  0  0  0  0  0
    0.6492   -2.3104    0.6118 C   0  0  0  0  0  0  0  0  0  0  0  0
    7.4910    1.1178    0.2325 C   0  0  0  0  0  0  0  0  0  0  0  0
    3.5097   -0.4553    0.2112 C   0  0  0  0  0  0  0  0  0  0  0  0
    1.1559    0.8951   -1.0809 C   0  0  0  0  0  0  0  0  0  0  0  0
    6.1038    0.5704    0.2249 C   0  0  0  0  0  0  0  0  0  0  0  0
   -0.0167   -3.5134    1.1416 C   0  0  0  0  0  0  0  0  0  0  0  0
   -5.2913    0.9921   -0.1706 C   0  0  0  0  0  0  0  0  0  0  0  0
    4.5501   -1.1824   -0.3672 C   0  0  0  0  0  0  0  0  0  0  0  0
    3.7663    0.7845    0.7966 C   0  0  0  0  0  0  0  0  0  0  0  0
    5.8471   -0.6695   -0.3603 C   0  0  0  0  0  0  0  0  0  0  0  0
    5.0634    1.2973    0.8036 C   0  0  0  0  0  0  0  0  0  0  0  0
    8.0355    1.2993   -1.2183 C   0  0  0  0  0  0  0  0  0  0  0  0
    8.4709    0.1664    0.9870 C   0  0  0  0  0  0  0  0  0  0  0  0
    7.6579    2.5149    0.9175 C   0  0  0  0  0  0  0  0  0  0  0  0
   -6.6238    0.2742   -0.0549 C   0  0  0  0  0  0  0  0  0  0  0  0
   -7.6738    1.1073    0.6730 C   0  0  0  0  0  0  0  0  0  0  0  0
   -8.9927    0.3793    0.7878 C   0  0  0  0  0  0  0  0  0  0  0  0
   -1.9487   -1.9598   -0.1799 H   0  0  0  0  0  0  0  0  0  0  0  0
   -2.5140    0.0197    0.9701 H   0  0  0  0  0  0  0  0  0  0  0  0
   -1.2844    0.9898    0.1803 H   0  0  0  0  0  0  0  0  0  0  0  0
   -2.9809    1.7475   -1.1824 H   0  0  0  0  0  0  0  0  0  0  0  0
   -1.1136   -1.6017   -2.7497 H   0  0  0  0  0  0  0  0  0  0  0  0
   -2.8029    0.2200   -3.3094 H   0  0  0  0  0  0  0  0  0  0  0  0
   -4.6151   -0.7186   -1.1300 H   0  0  0  0  0  0  0  0  0  0  0  0
    1.1166    1.7307   -0.3748 H   0  0  0  0  0  0  0  0  0  0  0  0
    2.0633    0.9946   -1.6859 H   0  0  0  0  0  0  0  0  0  0  0  0
    0.3177    1.0112   -1.7716 H   0  0  0  0  0  0  0  0  0  0  0  0
   -0.4624   -4.0952    0.3282 H   0  0  0  0  0  0  0  0  0  0  0  0
    0.6828   -4.1665    1.6741 H   0  0  0  0  0  0  0  0  0  0  0  0
   -0.8117   -3.2358    1.8413 H   0  0  0  0  0  0  0  0  0  0  0  0
    4.3671   -2.1488   -0.8309 H   0  0  0  0  0  0  0  0  0  0  0  0
    2.9726    1.3598    1.2668 H   0  0  0  0  0  0  0  0  0  0  0  0
    6.6382   -1.2563   -0.8184 H   0  0  0  0  0  0  0  0  0  0  0  0
    5.2074    2.2632    1.2747 H   0  0  0  0  0  0  0  0  0  0  0  0
    9.0442    1.7285   -1.2149 H   0  0  0  0  0  0  0  0  0  0  0  0
    8.0918    0.3467   -1.7565 H   0  0  0  0  0  0  0  0  0  0  0  0
    7.3870    1.9680   -1.7965 H   0  0  0  0  0  0  0  0  0  0  0  0
    8.5387   -0.8159    0.5066 H   0  0  0  0  0  0  0  0  0  0  0  0
    8.1404    0.0071    2.0202 H   0  0  0  0  0  0  0  0  0  0  0  0
    9.4849    0.5816    1.0181 H   0  0  0  0  0  0  0  0  0  0  0  0
    7.3672    2.4816    1.9740 H   0  0  0  0  0  0  0  0  0  0  0  0
    7.0588    3.2830    0.4144 H   0  0  0  0  0  0  0  0  0  0  0  0
    8.7018    2.8495    0.8830 H   0  0  0  0  0  0  0  0  0  0  0  0
   -6.9725    0.0290   -1.0656 H   0  0  0  0  0  0  0  0  0  0  0  0
   -6.4607   -0.6719    0.4758 H   0  0  0  0  0  0  0  0  0  0  0  0
   -7.8463    2.0454    0.1333 H   0  0  0  0  0  0  0  0  0  0  0  0
   -7.3247    1.3448    1.6844 H   0  0  0  0  0  0  0  0  0  0  0  0
  -10.7712    0.6538    1.5387 H   0  0  0  0  0  0  0  0  0  0  0  0
  1 20  2  0  0  0  0
  2 30  1  0  0  0  0
  2 61  1  0  0  0  0
  3 30  2  0  0  0  0
  4  9  1  0  0  0  0
  4 20  1  0  0  0  0
  4 37  1  0  0  0  0
  5  6  1  0  0  0  0
  5 13  1  0  0  0  0
  5 16  1  0  0  0  0
  6 14  2  0  0  0  0
  7  8  1  0  0  0  0
  7 10  1  0  0  0  0
  7 11  1  0  0  0  0
  7 31  1  0  0  0  0
  8  9  1  0  0  0  0
  8 32  1  0  0  0  0
  8 33  1  0  0  0  0
  9 12  1  0  0  0  0
  9 34  1  0  0  0  0
 10 13  2  0  0  0  0
 10 14  1  0  0  0  0
 11 12  2  0  0  0  0
 11 35  1  0  0  0  0
 12 36  1  0  0  0  0
 13 17  1  0  0  0  0
 14 19  1  0  0  0  0
 15 18  1  0  0  0  0
 15 25  1  0  0  0  0
 15 26  1  0  0  0  0
 15 27  1  0  0  0  0
 16 21  2  0  0  0  0
 16 22  1  0  0  0  0
 17 38  1  0  0  0  0
 17 39  1  0  0  0  0
 17 40  1  0  0  0  0
 18 23  2  0  0  0  0
 18 24  1  0  0  0  0
 19 41  1  0  0  0  0
 19 42  1  0  0  0  0
 19 43  1  0  0  0  0
 20 28  1  0  0  0  0
 21 23  1  0  0  0  0
 21 44  1  0  0  0  0
 22 24  2  0  0  0  0
 22 45  1  0  0  0  0
 23 46  1  0  0  0  0
 24 47  1  0  0  0  0
 25 48  1  0  0  0  0
 25 49  1  0  0  0  0
 25 50  1  0  0  0  0
 26 51  1  0  0  0  0
 26 52  1  0  0  0  0
 26 53  1  0  0  0  0
 27 54  1  0  0  0  0
 27 55  1  0  0  0  0
 27 56  1  0  0  0  0
 28 29  1  0  0  0  0
 28 57  1  0  0  0  0
 28 58  1  0  0  0  0
 29 30  1  0  0  0  0
 29 59  1  0  0  0  0
 29 60  1  0  0  0  0
M  END
> <PUBCHEM_COMPOUND_CID>
40777718

> <PUBCHEM_CONFORMER_RMSD>
1

> <PUBCHEM_CONFORMER_DIVERSEORDER>
1
27
89
46
20
21
55
43
71
60
44
78
4
86
90
79
53
47
6
14
82
37
41
31
84
26
62
34
49
45
36
40
29
70
83
51
39
85
42
59
69
64
32
75
19
12
88
16
22
7
87
17
67
81
65
28
35
76
2
74
66
25
57
24
77
33
3
63
54
73
72
58
80
18
30
61
50
8
52
15
11
13
56
5
48
68
10
23
9
38

> <PUBCHEM_MMFF94_PARTIAL_CHARGES>
34
1 -0.57
10 -0.18
11 -0.29
12 -0.29
13 -0.33
14 0.11
15 0.14
16 -0.02
17 0.18
18 -0.14
19 0.18
2 -0.65
20 0.57
21 -0.15
22 -0.15
23 -0.15
24 -0.15
28 0.06
29 0.06
3 -0.57
30 0.66
35 0.15
36 0.15
37 0.37
4 -0.73
44 0.15
45 0.15
46 0.15
47 0.15
5 0.59
6 -0.71
61 0.5
7 0.32
9 0.44

> <PUBCHEM_EFFECTIVE_ROTOR_COUNT>
8.6

> <PUBCHEM_PHARMACOPHORE_FEATURES>
10
1 1 acceptor
1 2 acceptor
1 3 acceptor
1 4 donor
1 6 acceptor
3 2 3 30 anion
4 15 25 26 27 hydrophobe
5 5 6 10 13 14 rings
5 7 8 9 11 12 rings
6 16 18 21 22 23 24 rings

> <PUBCHEM_HEAVY_ATOM_COUNT>
30

> <PUBCHEM_ATOM_DEF_STEREO_COUNT>
2

> <PUBCHEM_ATOM_UDEF_STEREO_COUNT>
0

> <PUBCHEM_BOND_DEF_STEREO_COUNT>
0

> <PUBCHEM_BOND_UDEF_STEREO_COUNT>
0

> <PUBCHEM_ISOTOPIC_ATOM_COUNT>
0

> <PUBCHEM_COMPONENT_COUNT>
1

> <PUBCHEM_CACTVS_TAUTO_COUNT>
2

> <PUBCHEM_CONFORMER_ID>
026E37F600000001

> <PUBCHEM_MMFF94_ENERGY>
81.2241

> <PUBCHEM_FEATURE_SELFOVERLAP>
50.805

> <PUBCHEM_SHAPE_FINGERPRINT>
10 15 17603867810327437984
10162869 55 18114178671240897287
10165383 225 18333450950172500450
10369192 42 17418373572115104053
106641 1 16877944949054924052
10670039 82 14836129828184197139
10674148 151 16272205284419714866
10883706 142 18341609309418584594
10904742 90 18273494568146033975
11135609 99 12973900216296884233
11408170 108 11819263426164148345
11828422 8 11669201087405874171
12592606 108 8862935070799170457
12741549 16 16153426143705998373
14216079 64 9439407926045906272
14747281 78 18272944825633493974
14849402 71 18410574019812714357
15064981 194 17915466201314115140
15183329 4 15985106310101661534
15188451 53 11746934278702570742
15326923 82 8358253731780880350
15347590 135 17531242829804138737
15690457 1 12540695929145602625
15706992 2 18340777013212443412
15728490 51 18410009971244197839
1577012 14 17846206757179188151
15840311 113 18341618113853771388
16126227 98 18409447015808515695
16992610 120 18335714862189606534
18393751 57 17676486163753857310
18603816 31 12901553481456894633
18608769 82 18335137626462970451
20505436 4 18131625677994302239
21033648 29 18339069514909726690
21095123 293 17846501413875403649
21130935 74 16878778280374531835
21307412 95 12031502237272554797
21424621 283 18410853244484245336
22224240 67 18040154011497280723
23559900 14 14117219725024959862
23576562 1 13685428314167129417
249057 3 16128370506184556208
3004659 81 13110957639666529594
3009799 131 13254791352617988334
3092352 35 17561080306874788207
3178227 256 17967816054462316940
3633792 109 15482672399343185614
3711267 37 17917720101752625937
4093350 32 17917712371064135246
4173938 188 18336551612282511411
4339292 15 9871481920161527440
4340502 62 18333733494828481643
474113 269 11602815800534085921
5385378 56 18188202118654346690
54076057 127 18342741771556005279
5758199 1 18408603656383727059
59682541 35 17967255304207241617
59755656 520 18261945323925644462
6081469 158 8358261436340104235
6126387 218 13695583348549262637
9663363 56 16588022417194523061
9689198 14 18131354094468899365
9953998 17 18187085070854000803

> <PUBCHEM_SHAPE_MULTIPOLES>
584.83
28.84
2.28
1.39
31.48
1.34
-0.57
-18.55
10.14
-1.38
0.89
0.71
0.02
-0.36

> <PUBCHEM_SHAPE_SELFOVERLAP>
1238.304

> <PUBCHEM_SHAPE_VOLUME>
330.9

> <PUBCHEM_COORDINATE_TYPE>
2
5
10

$$$$
