28960225
  -OEChem-12032416143D

 55 57  0     1  0  0  0  0  0999 V2000
    5.2374   -0.3454   -1.4963 O   0  0  0  0  0  0  0  0  0  0  0  0
   -2.7152   -0.8496   -1.5167 O   0  0  0  0  0  0  0  0  0  0  0  0
   -8.4525    0.0749    0.8973 O   0  0  0  0  0  0  0  0  0  0  0  0
    1.4757    3.0634    0.3224 N   0  0  0  0  0  0  0  0  0  0  0  0
    5.7340   -1.2374    0.5863 N   0  0  0  0  0  0  0  0  0  0  0  0
   -1.3358   -0.9471   -1.6538 N   0  0  0  0  0  0  0  0  0  0  0  0
    2.7615    0.6759   -0.8410 C   0  0  1  0  0  0  0  0  0  0  0  0
    1.2476    0.7415   -0.5278 C   0  0  2  0  0  0  0  0  0  0  0  0
    3.2935    2.1040   -1.0476 C   0  0  0  0  0  0  0  0  0  0  0  0
    0.9454    1.7304    0.6107 C   0  0  0  0  0  0  0  0  0  0  0  0
    2.9203    3.0378    0.1029 C   0  0  0  0  0  0  0  0  0  0  0  0
    0.6384   -0.6282   -0.2255 C   0  0  0  0  0  0  0  0  0  0  0  0
    3.5861   -0.0654    0.2181 C   0  0  0  0  0  0  0  0  0  0  0  0
   -0.8456   -0.6290   -0.4523 C   0  0  0  0  0  0  0  0  0  0  0  0
    4.9194   -0.5538   -0.3226 C   0  0  0  0  0  0  0  0  0  0  0  0
   -1.8584   -0.3246    0.4737 C   0  0  0  0  0  0  0  0  0  0  0  0
   -3.0140   -0.4783   -0.2455 C   0  0  0  0  0  0  0  0  0  0  0  0
    7.0444   -1.7681    0.2180 C   0  0  0  0  0  0  0  0  0  0  0  0
    5.3367   -1.4717    1.9691 C   0  0  0  0  0  0  0  0  0  0  0  0
   -4.4105   -0.3360    0.0481 C   0  0  0  0  0  0  0  0  0  0  0  0
    8.0976   -0.7806    0.4517 C   0  0  0  0  0  0  0  0  0  0  0  0
   -4.8195    0.0421    1.3269 C   0  0  0  0  0  0  0  0  0  0  0  0
   -5.3599   -0.5764   -0.9452 C   0  0  0  0  0  0  0  0  0  0  0  0
   -6.1778    0.1799    1.6126 C   0  0  0  0  0  0  0  0  0  0  0  0
   -6.7181   -0.4387   -0.6597 C   0  0  0  0  0  0  0  0  0  0  0  0
   -7.1271   -0.0606    0.6191 C   0  0  0  0  0  0  0  0  0  0  0  0
    8.9650    0.0275    0.6418 C   0  0  0  0  0  0  0  0  0  0  0  0
   -9.3688   -0.1864   -0.1648 C   0  0  0  0  0  0  0  0  0  0  0  0
    2.8612    0.1423   -1.7962 H   0  0  0  0  0  0  0  0  0  0  0  0
    0.7659    1.1377   -1.4355 H   0  0  0  0  0  0  0  0  0  0  0  0
    2.8717    2.5048   -1.9793 H   0  0  0  0  0  0  0  0  0  0  0  0
    4.3811    2.1081   -1.1799 H   0  0  0  0  0  0  0  0  0  0  0  0
   -0.1345    1.8389    0.7465 H   0  0  0  0  0  0  0  0  0  0  0  0
    1.3503    1.3658    1.5629 H   0  0  0  0  0  0  0  0  0  0  0  0
    3.4408    2.7608    1.0261 H   0  0  0  0  0  0  0  0  0  0  0  0
    3.2508    4.0523   -0.1468 H   0  0  0  0  0  0  0  0  0  0  0  0
    0.8389   -0.9346    0.8085 H   0  0  0  0  0  0  0  0  0  0  0  0
    1.0857   -1.3921   -0.8751 H   0  0  0  0  0  0  0  0  0  0  0  0
    3.0513   -0.9622    0.5447 H   0  0  0  0  0  0  0  0  0  0  0  0
    3.7593    0.5737    1.0881 H   0  0  0  0  0  0  0  0  0  0  0  0
    1.2639    3.6865    1.1012 H   0  0  0  0  0  0  0  0  0  0  0  0
   -1.7533   -0.0395    1.5104 H   0  0  0  0  0  0  0  0  0  0  0  0
    7.2309   -2.6927    0.7747 H   0  0  0  0  0  0  0  0  0  0  0  0
    7.0250   -2.0277   -0.8465 H   0  0  0  0  0  0  0  0  0  0  0  0
    5.3058   -2.5528    2.1389 H   0  0  0  0  0  0  0  0  0  0  0  0
    4.3679   -1.0636    2.2500 H   0  0  0  0  0  0  0  0  0  0  0  0
    6.0919   -1.0314    2.6280 H   0  0  0  0  0  0  0  0  0  0  0  0
   -4.1035    0.2363    2.1214 H   0  0  0  0  0  0  0  0  0  0  0  0
   -5.0799   -0.8727   -1.9530 H   0  0  0  0  0  0  0  0  0  0  0  0
   -6.4908    0.4749    2.6104 H   0  0  0  0  0  0  0  0  0  0  0  0
   -7.4019   -0.6405   -1.4771 H   0  0  0  0  0  0  0  0  0  0  0  0
    9.7340    0.7445    0.8106 H   0  0  0  0  0  0  0  0  0  0  0  0
  -10.3771   -0.0313    0.2327 H   0  0  0  0  0  0  0  0  0  0  0  0
   -9.3131   -1.2287   -0.4971 H   0  0  0  0  0  0  0  0  0  0  0  0
   -9.2389    0.5205   -0.9914 H   0  0  0  0  0  0  0  0  0  0  0  0
  1 15  2  0  0  0  0
  2  6  1  0  0  0  0
  2 17  1  0  0  0  0
  3 26  1  0  0  0  0
  3 28  1  0  0  0  0
  4 10  1  0  0  0  0
  4 11  1  0  0  0  0
  4 41  1  0  0  0  0
  5 15  1  0  0  0  0
  5 18  1  0  0  0  0
  5 19  1  0  0  0  0
  6 14  2  0  0  0  0
  7  8  1  0  0  0  0
  7  9  1  0  0  0  0
  7 13  1  0  0  0  0
  7 29  1  0  0  0  0
  8 10  1  0  0  0  0
  8 12  1  0  0  0  0
  8 30  1  0  0  0  0
  9 11  1  0  0  0  0
  9 31  1  0  0  0  0
  9 32  1  0  0  0  0
 10 33  1  0  0  0  0
 10 34  1  0  0  0  0
 11 35  1  0  0  0  0
 11 36  1  0  0  0  0
 12 14  1  0  0  0  0
 12 37  1  0  0  0  0
 12 38  1  0  0  0  0
 13 15  1  0  0  0  0
 13 39  1  0  0  0  0
 13 40  1  0  0  0  0
 14 16  1  0  0  0  0
 16 17  2  0  0  0  0
 16 42  1  0  0  0  0
 17 20  1  0  0  0  0
 18 21  1  0  0  0  0
 18 43  1  0  0  0  0
 18 44  1  0  0  0  0
 19 45  1  0  0  0  0
 19 46  1  0  0  0  0
 19 47  1  0  0  0  0
 20 22  2  0  0  0  0
 20 23  1  0  0  0  0
 21 27  3  0  0  0  0
 22 24  1  0  0  0  0
 22 48  1  0  0  0  0
 23 25  2  0  0  0  0
 23 49  1  0  0  0  0
 24 26  2  0  0  0  0
 24 50  1  0  0  0  0
 25 26  1  0  0  0  0
 25 51  1  0  0  0  0
 27 52  1  0  0  0  0
 28 53  1  0  0  0  0
 28 54  1  0  0  0  0
 28 55  1  0  0  0  0
M  END
> <PUBCHEM_COMPOUND_CID>
28960225

> <PUBCHEM_CONFORMER_RMSD>
1.2

> <PUBCHEM_CONFORMER_DIVERSEORDER>
1
3
12
48
54
23
24
64
74
6
53
15
60
78
61
76
49
70
36
68
67
17
26
41
59
8
50
16
71
79
66
51
33
21
63
40
52
38
13
28
7
39
30
44
57
43
42
19
46
75
65
77
2
32
35
25
20
34
4
14
5
45
69
9
72
22
73
10
31
58
56
27
18
62
29
55
11
80
37
47

> <PUBCHEM_MMFF94_PARTIAL_CHARGES>
32
1 -0.57
10 0.27
11 0.27
12 0.18
13 0.06
14 0.11
15 0.57
16 -0.15
17 0.09
18 0.5
19 0.3
2 -0.02
20 0.05
21 -0.2
22 -0.15
23 -0.15
24 -0.15
25 -0.15
26 0.08
27 -0.18
28 0.28
3 -0.36
4 -0.9
41 0.36
42 0.15
48 0.15
49 0.15
5 -0.66
50 0.15
51 0.15
52 0.18
6 -0.41

> <PUBCHEM_EFFECTIVE_ROTOR_COUNT>
9.2

> <PUBCHEM_PHARMACOPHORE_FEATURES>
9
1 1 acceptor
1 27 hydrophobe
1 3 acceptor
1 4 cation
1 4 donor
1 6 acceptor
5 2 6 14 16 17 rings
6 20 22 23 24 25 26 rings
6 4 7 8 9 10 11 rings

> <PUBCHEM_HEAVY_ATOM_COUNT>
28

> <PUBCHEM_ATOM_DEF_STEREO_COUNT>
2

> <PUBCHEM_ATOM_UDEF_STEREO_COUNT>
0

> <PUBCHEM_BOND_DEF_STEREO_COUNT>
0

> <PUBCHEM_BOND_UDEF_STEREO_COUNT>
0

> <PUBCHEM_ISOTOPIC_ATOM_COUNT>
0

> <PUBCHEM_COMPONENT_COUNT>
1

> <PUBCHEM_CACTVS_TAUTO_COUNT>
1

> <PUBCHEM_CONFORMER_ID>
01B9E5E100000001

> <PUBCHEM_MMFF94_ENERGY>
61.9459

> <PUBCHEM_FEATURE_SELFOVERLAP>
45.671

> <PUBCHEM_SHAPE_FINGERPRINT>
10 15 13686297967676869181
10162869 55 18202277022972940079
10670039 82 16370718206638643501
10674148 151 15791731905795499440
11409948 35 17241316968363135651
11456790 92 18341624711382403017
12107183 9 18272652354723061375
12236239 1 17988925604580213335
12516196 113 18410569579564791534
12592606 108 18410854369349497571
12616971 3 18201999967243036405
12741549 16 17676483939362037492
13150687 139 8790886324562826944
13540713 5 17842548815058475044
13673619 4 17675923183967553292
13685833 64 18113899351852400642
13782708 43 17748823025250452787
14123256 10 8214141858628440802
14251764 18 18202565085991385388
14251764 46 17060619992631604414
15131766 46 17975698608458456229
15183329 4 17775016708286807485
15301273 46 16587742045444165183
15352257 5 16660366982496443131
15419008 145 18341051805478907649
15461852 350 15482663619733791861
15510794 2 17022907886613330659
1577012 14 18060139903306879125
15840311 113 17632572777795292872
15849732 13 17846778498883249862
15961568 22 12535355592891095850
16120349 18 18130783499706202784
19301679 30 18267303119681464354
20105231 36 13912332278919444177
21033648 29 17749658684816842405
21150785 3 8070025571499958027
21267235 1 18335985286210098222
21403212 168 18343865494378198015
21792934 111 18342171167886278360
23559900 14 16660933278682652445
246663 6 16877664551972696675
249057 3 18409729581791627431
3004659 81 17917160480155765132
3178227 256 18186803578244032650
335352 9 18412266155053265750
34797466 226 15140685799364707446
4325135 7 9943806685721448603
439807 62 15791728581997065698
5104073 3 18199468938330418891
5219985 9 18411415103785382032
6058803 2 17769364260156562188
6081469 158 16559037061102507138
6691757 9 16630246987115044935
9663363 56 18408037404227988242
9962374 69 18336258041554151446

> <PUBCHEM_SHAPE_MULTIPOLES>
543.68
27.15
1.93
1.35
12.36
1.93
-0.08
-9.28
-6.23
-3.82
-0.23
0.39
-0.23
-1.2

> <PUBCHEM_SHAPE_SELFOVERLAP>
1138.692

> <PUBCHEM_SHAPE_VOLUME>
306.2

> <PUBCHEM_COORDINATE_TYPE>
2
5
10

$$$$
