7135225
  -OEChem-12032416133D

 79 82  0     1  0  0  0  0  0999 V2000
   -0.2026    2.8110   -0.6550 S   0  0  0  0  0  0  0  0  0  0  0  0
    8.0217    0.5840   -0.2842 F   0  0  0  0  0  0  0  0  0  0  0  0
   -7.5327    0.0080   -0.8546 O   0  0  0  0  0  0  0  0  0  0  0  0
   -7.3395    2.3490   -0.3780 O   0  0  0  0  0  0  0  0  0  0  0  0
    0.9064   -1.5197    2.3516 O   0  0  0  0  0  0  0  0  0  0  0  0
   -0.1567   -4.8299   -1.3749 O   0  0  0  0  0  0  0  0  0  0  0  0
    3.1867    0.0001    0.8563 O   0  0  0  0  0  0  0  0  0  0  0  0
    0.3075    0.5087    0.4089 N   0  0  0  0  0  0  0  0  0  0  0  0
   -0.0996   -2.7563    0.6603 N   0  0  0  0  0  0  0  0  0  0  0  0
    2.1964    1.9259   -0.0742 N   0  0  0  0  0  0  0  0  0  0  0  0
   -3.4941   -0.0131    0.7879 C   0  0  2  0  0  0  0  0  0  0  0  0
   -3.8216    0.8520   -0.5082 C   0  0  1  0  0  0  0  0  0  0  0  0
   -5.3437    1.1153   -0.8273 C   0  0  1  0  0  0  0  0  0  0  0  0
   -1.9818   -0.5168    0.6753 C   0  0  1  0  0  0  0  0  0  0  0  0
   -4.4214   -1.2555    0.8265 C   0  0  0  0  0  0  0  0  0  0  0  0
   -6.1322   -0.2187   -0.6989 C   0  0  1  0  0  0  0  0  0  0  0  0
   -2.9361    2.1303   -0.5773 C   0  0  0  0  0  0  0  0  0  0  0  0
   -5.8953   -0.9314    0.6279 C   0  0  0  0  0  0  0  0  0  0  0  0
   -3.6750    0.7831    2.1038 C   0  0  0  0  0  0  0  0  0  0  0  0
   -1.0645    0.6083    0.2700 C   0  0  0  0  0  0  0  0  0  0  0  0
   -5.9949    2.2246    0.0279 C   0  0  0  0  0  0  0  0  0  0  0  0
   -5.4775    1.5914   -2.3016 C   0  0  0  0  0  0  0  0  0  0  0  0
   -1.5121    1.7794   -0.3068 C   0  0  0  0  0  0  0  0  0  0  0  0
   -1.4586   -1.2477    1.9192 C   0  0  0  0  0  0  0  0  0  0  0  0
   -0.0834   -1.8332    1.6957 C   0  0  0  0  0  0  0  0  0  0  0  0
    0.8632    1.6138   -0.0384 C   0  0  0  0  0  0  0  0  0  0  0  0
    1.0764   -3.4733    0.2233 C   0  0  2  0  0  0  0  0  0  0  0  0
    1.8180   -2.6960   -0.8788 C   0  0  0  0  0  0  0  0  0  0  0  0
    0.6904   -4.8836   -0.2343 C   0  0  0  0  0  0  0  0  0  0  0  0
    3.2600    1.1209    0.3647 C   0  0  0  0  0  0  0  0  0  0  0  0
    3.1654   -3.3092   -1.3174 C   0  0  0  0  0  0  0  0  0  0  0  0
    4.6165    1.7007    0.1773 C   0  0  0  0  0  0  0  0  0  0  0  0
    3.8550   -2.4905   -2.4094 C   0  0  0  0  0  0  0  0  0  0  0  0
    4.0932   -3.4333   -0.1049 C   0  0  0  0  0  0  0  0  0  0  0  0
    5.6898    0.8473    0.0336 C   0  0  0  0  0  0  0  0  0  0  0  0
    4.7556    3.0722    0.1527 C   0  0  0  0  0  0  0  0  0  0  0  0
    6.9621    1.3910   -0.1430 C   0  0  0  0  0  0  0  0  0  0  0  0
    6.0280    3.6158   -0.0238 C   0  0  0  0  0  0  0  0  0  0  0  0
    7.1312    2.7753   -0.1716 C   0  0  0  0  0  0  0  0  0  0  0  0
   -3.4801    0.2163   -1.3437 H   0  0  0  0  0  0  0  0  0  0  0  0
   -1.9618   -1.2067   -0.1795 H   0  0  0  0  0  0  0  0  0  0  0  0
   -4.1192   -1.9633    0.0433 H   0  0  0  0  0  0  0  0  0  0  0  0
   -4.3115   -1.7890    1.7781 H   0  0  0  0  0  0  0  0  0  0  0  0
   -5.8295   -0.9019   -1.5040 H   0  0  0  0  0  0  0  0  0  0  0  0
   -3.0116    2.5890   -1.5688 H   0  0  0  0  0  0  0  0  0  0  0  0
   -3.2651    2.8733    0.1568 H   0  0  0  0  0  0  0  0  0  0  0  0
   -6.2876   -0.3395    1.4623 H   0  0  0  0  0  0  0  0  0  0  0  0
   -6.4767   -1.8623    0.6438 H   0  0  0  0  0  0  0  0  0  0  0  0
   -3.4704    0.1545    2.9775 H   0  0  0  0  0  0  0  0  0  0  0  0
   -4.6914    1.1407    2.2494 H   0  0  0  0  0  0  0  0  0  0  0  0
   -3.0075    1.6470    2.1671 H   0  0  0  0  0  0  0  0  0  0  0  0
   -5.5007    3.1943   -0.0879 H   0  0  0  0  0  0  0  0  0  0  0  0
   -6.0176    1.9852    1.0872 H   0  0  0  0  0  0  0  0  0  0  0  0
   -6.5135    1.6418   -2.6504 H   0  0  0  0  0  0  0  0  0  0  0  0
   -4.9535    0.9081   -2.9801 H   0  0  0  0  0  0  0  0  0  0  0  0
   -5.0486    2.5889   -2.4444 H   0  0  0  0  0  0  0  0  0  0  0  0
   -2.1229   -2.0669    2.2134 H   0  0  0  0  0  0  0  0  0  0  0  0
   -1.3751   -0.5651    2.7729 H   0  0  0  0  0  0  0  0  0  0  0  0
   -7.7112    0.1494   -1.7989 H   0  0  0  0  0  0  0  0  0  0  0  0
   -7.3737    2.9761   -1.1199 H   0  0  0  0  0  0  0  0  0  0  0  0
   -0.9734   -2.9489    0.1829 H   0  0  0  0  0  0  0  0  0  0  0  0
    2.3878    2.8225   -0.5098 H   0  0  0  0  0  0  0  0  0  0  0  0
    1.7222   -3.5679    1.1022 H   0  0  0  0  0  0  0  0  0  0  0  0
    1.1689   -2.5990   -1.7594 H   0  0  0  0  0  0  0  0  0  0  0  0
    1.9883   -1.6693   -0.5396 H   0  0  0  0  0  0  0  0  0  0  0  0
    0.1527   -5.4153    0.5592 H   0  0  0  0  0  0  0  0  0  0  0  0
    1.5687   -5.4837   -0.4868 H   0  0  0  0  0  0  0  0  0  0  0  0
    2.9951   -4.3101   -1.7294 H   0  0  0  0  0  0  0  0  0  0  0  0
    3.2118   -2.4072   -3.2917 H   0  0  0  0  0  0  0  0  0  0  0  0
    4.0825   -1.4775   -2.0605 H   0  0  0  0  0  0  0  0  0  0  0  0
    4.7928   -2.9622   -2.7209 H   0  0  0  0  0  0  0  0  0  0  0  0
    4.1929   -2.4828    0.4276 H   0  0  0  0  0  0  0  0  0  0  0  0
    3.7395   -4.1911    0.6002 H   0  0  0  0  0  0  0  0  0  0  0  0
    5.0960   -3.7449   -0.4185 H   0  0  0  0  0  0  0  0  0  0  0  0
   -1.0039   -4.4423   -1.1001 H   0  0  0  0  0  0  0  0  0  0  0  0
    5.5767   -0.2324    0.0470 H   0  0  0  0  0  0  0  0  0  0  0  0
    3.9333    3.7631    0.3044 H   0  0  0  0  0  0  0  0  0  0  0  0
    6.1617    4.6936   -0.0367 H   0  0  0  0  0  0  0  0  0  0  0  0
    8.1222    3.1983   -0.3068 H   0  0  0  0  0  0  0  0  0  0  0  0
  1 23  1  0  0  0  0
  1 26  1  0  0  0  0
  2 37  1  0  0  0  0
  3 16  1  0  0  0  0
  3 59  1  0  0  0  0
  4 21  1  0  0  0  0
  4 60  1  0  0  0  0
  5 25  2  0  0  0  0
  6 29  1  0  0  0  0
  6 75  1  0  0  0  0
  7 30  2  0  0  0  0
  8 20  1  0  0  0  0
  8 26  2  0  0  0  0
  9 25  1  0  0  0  0
  9 27  1  0  0  0  0
  9 61  1  0  0  0  0
 10 26  1  0  0  0  0
 10 30  1  0  0  0  0
 10 62  1  0  0  0  0
 11 12  1  0  0  0  0
 11 14  1  0  0  0  0
 11 15  1  0  0  0  0
 11 19  1  0  0  0  0
 12 13  1  0  0  0  0
 12 17  1  0  0  0  0
 12 40  1  0  0  0  0
 13 16  1  0  0  0  0
 13 21  1  0  0  0  0
 13 22  1  0  0  0  0
 14 20  1  0  0  0  0
 14 24  1  0  0  0  0
 14 41  1  0  0  0  0
 15 18  1  0  0  0  0
 15 42  1  0  0  0  0
 15 43  1  0  0  0  0
 16 18  1  0  0  0  0
 16 44  1  0  0  0  0
 17 23  1  0  0  0  0
 17 45  1  0  0  0  0
 17 46  1  0  0  0  0
 18 47  1  0  0  0  0
 18 48  1  0  0  0  0
 19 49  1  0  0  0  0
 19 50  1  0  0  0  0
 19 51  1  0  0  0  0
 20 23  2  0  0  0  0
 21 52  1  0  0  0  0
 21 53  1  0  0  0  0
 22 54  1  0  0  0  0
 22 55  1  0  0  0  0
 22 56  1  0  0  0  0
 24 25  1  0  0  0  0
 24 57  1  0  0  0  0
 24 58  1  0  0  0  0
 27 28  1  0  0  0  0
 27 29  1  0  0  0  0
 27 63  1  0  0  0  0
 28 31  1  0  0  0  0
 28 64  1  0  0  0  0
 28 65  1  0  0  0  0
 29 66  1  0  0  0  0
 29 67  1  0  0  0  0
 30 32  1  0  0  0  0
 31 33  1  0  0  0  0
 31 34  1  0  0  0  0
 31 68  1  0  0  0  0
 32 35  2  0  0  0  0
 32 36  1  0  0  0  0
 33 69  1  0  0  0  0
 33 70  1  0  0  0  0
 33 71  1  0  0  0  0
 34 72  1  0  0  0  0
 34 73  1  0  0  0  0
 34 74  1  0  0  0  0
 35 37  1  0  0  0  0
 35 76  1  0  0  0  0
 36 38  2  0  0  0  0
 36 77  1  0  0  0  0
 37 39  2  0  0  0  0
 38 39  1  0  0  0  0
 38 78  1  0  0  0  0
 39 79  1  0  0  0  0
M  END
> <PUBCHEM_COMPOUND_CID>
7135225

> <PUBCHEM_CONFORMER_RMSD>
1.2

> <PUBCHEM_CONFORMER_DIVERSEORDER>
1
13
5
12
10
9
27
11
17
21
3
23
14
22
19
15
24
18
26
16
20
25
6
2
4
7
8

> <PUBCHEM_MMFF94_PARTIAL_CHARGES>
37
1 -0.08
10 -0.49
14 0.18
16 0.28
17 0.18
2 -0.19
20 0.05
21 0.28
23 -0.14
24 0.06
25 0.57
26 0.44
27 0.3
29 0.28
3 -0.68
30 0.54
32 0.09
35 -0.15
36 -0.15
37 0.19
38 -0.15
39 -0.15
4 -0.68
5 -0.57
59 0.4
6 -0.68
60 0.4
61 0.37
62 0.37
7 -0.57
75 0.4
76 0.15
77 0.15
78 0.15
79 0.15
8 -0.57
9 -0.73

> <PUBCHEM_EFFECTIVE_ROTOR_COUNT>
12.2

> <PUBCHEM_PHARMACOPHORE_FEATURES>
15
1 10 donor
1 3 acceptor
1 3 donor
1 4 acceptor
1 4 donor
1 5 acceptor
1 6 acceptor
1 6 donor
1 7 acceptor
1 9 donor
3 31 33 34 hydrophobe
5 1 8 20 23 26 rings
6 11 12 13 15 16 18 rings
6 11 12 14 17 20 23 rings
6 32 35 36 37 38 39 rings

> <PUBCHEM_HEAVY_ATOM_COUNT>
39

> <PUBCHEM_ATOM_DEF_STEREO_COUNT>
6

> <PUBCHEM_ATOM_UDEF_STEREO_COUNT>
0

> <PUBCHEM_BOND_DEF_STEREO_COUNT>
0

> <PUBCHEM_BOND_UDEF_STEREO_COUNT>
0

> <PUBCHEM_ISOTOPIC_ATOM_COUNT>
0

> <PUBCHEM_COMPONENT_COUNT>
1

> <PUBCHEM_CACTVS_TAUTO_COUNT>
6

> <PUBCHEM_CONFORMER_ID>
006CDFF900000001

> <PUBCHEM_MMFF94_ENERGY>
116.4517

> <PUBCHEM_FEATURE_SELFOVERLAP>
76.271

> <PUBCHEM_SHAPE_FINGERPRINT>
10050765 1 18195808462369508877
10369192 42 18260261988676496213
10906281 52 18114474413070777993
11135609 187 18412543223467701961
11135926 11 18409161100542697933
11524674 6 18340767143350924660
11719270 70 18412821400547553088
11991303 11 18265050421971253270
12522641 33 18411135852799637549
12539765 74 18341619217428635004
12597179 24 18407762551516003922
13402501 40 18334577970870888440
1361 2 18412261735806068598
13692114 37 18199173144438891938
13811026 1 18407478855624320406
14068700 686 18336261254148101732
14725015 67 18189610541583597898
15324884 4 18045817625899204106
15439362 3 18410575050313903059
15927050 60 18341609377832626374
18681886 176 18189608518084743865
19315958 150 18337956676416039125
20642791 35 18118123572457650641
21133665 82 18259984899451952512
21344244 246 18412543214941064143
23516275 137 16700924680863859606
23559900 14 18266454313768334243
27425 322 17313955250827437732
3298306 158 18411986879880304660
38695281 34 18410853299992012843
4017518 198 18342183306202192542
46194498 28 18268424629540737599
5085150 59 18261957452454138220
5265222 85 18121225547989181844
59755656 215 18408323289550744332
6669772 16 18412546526286957758

> <PUBCHEM_SHAPE_MULTIPOLES>
754.89
18.24
5.45
1.59
1.96
5.94
0.01
-15.69
4.06
6.71
1.61
-1.04
0.87
2.3

> <PUBCHEM_SHAPE_SELFOVERLAP>
1583.013

> <PUBCHEM_SHAPE_VOLUME>
431

> <PUBCHEM_COORDINATE_TYPE>
2
5
10

$$$$
