75536820
  -OEChem-12032416333D

 41 43  0     1  0  0  0  0  0999 V2000
   -0.6709   -1.1443    0.3561 O   0  0  0  0  0  0  0  0  0  0  0  0
   -6.8220    0.2654   -0.7677 O   0  0  0  0  0  0  0  0  0  0  0  0
   -2.1641    2.1214    0.2537 O   0  0  0  0  0  0  0  0  0  0  0  0
    2.4462    2.0019   -0.2698 O   0  0  0  0  0  0  0  0  0  0  0  0
   -4.1960   -0.2615    0.5170 N   0  0  0  0  0  0  0  0  0  0  0  0
    1.7833    0.1964    1.0279 N   0  0  0  0  0  0  0  0  0  0  0  0
   -2.8308   -0.2154    0.0191 C   0  0  1  0  0  0  0  0  0  0  0  0
   -1.9585    0.8046    0.7272 C   0  0  1  0  0  0  0  0  0  0  0  0
   -0.5673    0.2890    0.3845 C   0  0  1  0  0  0  0  0  0  0  0  0
   -5.0612   -0.9057   -0.4794 C   0  0  0  0  0  0  0  0  0  0  0  0
   -2.0623   -1.5007    0.2792 C   0  0  0  0  0  0  0  0  0  0  0  0
   -6.5008   -0.9001    0.0345 C   0  0  0  0  0  0  0  0  0  0  0  0
   -5.5577    0.1476   -1.4697 C   0  0  0  0  0  0  0  0  0  0  0  0
    0.4922    0.7072    1.3884 C   0  0  0  0  0  0  0  0  0  0  0  0
    2.6702    0.8959    0.2151 C   0  0  0  0  0  0  0  0  0  0  0  0
    3.9574    0.2183   -0.0869 C   0  0  0  0  0  0  0  0  0  0  0  0
    4.6430    0.5156   -1.2647 C   0  0  0  0  0  0  0  0  0  0  0  0
    4.4809   -0.7142    0.8085 C   0  0  0  0  0  0  0  0  0  0  0  0
    5.8523   -0.1197   -1.5472 C   0  0  0  0  0  0  0  0  0  0  0  0
    5.6901   -1.3495    0.5261 C   0  0  0  0  0  0  0  0  0  0  0  0
    6.3759   -1.0523   -0.6517 C   0  0  0  0  0  0  0  0  0  0  0  0
   -2.8160    0.0166   -1.0552 H   0  0  0  0  0  0  0  0  0  0  0  0
   -2.1305    0.7877    1.8106 H   0  0  0  0  0  0  0  0  0  0  0  0
   -0.2691    0.6148   -0.6208 H   0  0  0  0  0  0  0  0  0  0  0  0
   -4.7202   -1.8580   -0.8933 H   0  0  0  0  0  0  0  0  0  0  0  0
   -2.2036   -2.2434   -0.5117 H   0  0  0  0  0  0  0  0  0  0  0  0
   -2.3268   -1.9640    1.2366 H   0  0  0  0  0  0  0  0  0  0  0  0
   -4.2172   -0.7016    1.4363 H   0  0  0  0  0  0  0  0  0  0  0  0
   -7.1044   -1.7601   -0.2745 H   0  0  0  0  0  0  0  0  0  0  0  0
   -6.6578   -0.7166    1.1019 H   0  0  0  0  0  0  0  0  0  0  0  0
   -5.0279    1.1044   -1.5092 H   0  0  0  0  0  0  0  0  0  0  0  0
   -5.7141   -0.2178   -2.4902 H   0  0  0  0  0  0  0  0  0  0  0  0
    0.2664    0.2980    2.3793 H   0  0  0  0  0  0  0  0  0  0  0  0
    0.5414    1.7986    1.4663 H   0  0  0  0  0  0  0  0  0  0  0  0
   -2.0139    2.1280   -0.7068 H   0  0  0  0  0  0  0  0  0  0  0  0
    2.0023   -0.7443    1.3375 H   0  0  0  0  0  0  0  0  0  0  0  0
    4.2495    1.2360   -1.9769 H   0  0  0  0  0  0  0  0  0  0  0  0
    3.9956   -0.9515    1.7505 H   0  0  0  0  0  0  0  0  0  0  0  0
    6.3860    0.1111   -2.4645 H   0  0  0  0  0  0  0  0  0  0  0  0
    6.1020   -2.0704    1.2264 H   0  0  0  0  0  0  0  0  0  0  0  0
    7.3181   -1.5459   -0.8708 H   0  0  0  0  0  0  0  0  0  0  0  0
  1  9  1  0  0  0  0
  1 11  1  0  0  0  0
  2 12  1  0  0  0  0
  2 13  1  0  0  0  0
  3  8  1  0  0  0  0
  3 35  1  0  0  0  0
  4 15  2  0  0  0  0
  5  7  1  0  0  0  0
  5 10  1  0  0  0  0
  5 28  1  0  0  0  0
  6 14  1  0  0  0  0
  6 15  1  0  0  0  0
  6 36  1  0  0  0  0
  7  8  1  0  0  0  0
  7 11  1  0  0  0  0
  7 22  1  0  0  0  0
  8  9  1  0  0  0  0
  8 23  1  0  0  0  0
  9 14  1  0  0  0  0
  9 24  1  0  0  0  0
 10 12  1  0  0  0  0
 10 13  1  0  0  0  0
 10 25  1  0  0  0  0
 11 26  1  0  0  0  0
 11 27  1  0  0  0  0
 12 29  1  0  0  0  0
 12 30  1  0  0  0  0
 13 31  1  0  0  0  0
 13 32  1  0  0  0  0
 14 33  1  0  0  0  0
 14 34  1  0  0  0  0
 15 16  1  0  0  0  0
 16 17  2  0  0  0  0
 16 18  1  0  0  0  0
 17 19  1  0  0  0  0
 17 37  1  0  0  0  0
 18 20  2  0  0  0  0
 18 38  1  0  0  0  0
 19 21  2  0  0  0  0
 19 39  1  0  0  0  0
 20 21  1  0  0  0  0
 20 40  1  0  0  0  0
 21 41  1  0  0  0  0
M  END
> <PUBCHEM_COMPOUND_CID>
75536820

> <PUBCHEM_CONFORMER_RMSD>
0.8

> <PUBCHEM_CONFORMER_DIVERSEORDER>
1
70
9
17
89
56
45
76
36
41
86
19
37
80
28
66
65
88
47
33
74
6
38
55
79
87
7
46
31
64
57
25
4
71
83
35
34
72
53
81
69
61
13
50
84
27
49
82
63
43
42
67
14
68
24
59
5
51
85
73
48
3
16
10
77
54
62
39
30
58
22
52
11
23
75
32
21
40
2
8
20
26
60
18
12
78
29
15
44

> <PUBCHEM_MMFF94_PARTIAL_CHARGES>
29
1 -0.56
10 0.21
11 0.28
12 0.26
13 0.26
14 0.3
15 0.54
16 0.09
17 -0.15
18 -0.15
19 -0.15
2 -0.52
20 -0.15
21 -0.15
28 0.36
3 -0.68
35 0.4
36 0.37
37 0.15
38 0.15
39 0.15
4 -0.57
40 0.15
41 0.15
5 -0.84
6 -0.73
7 0.27
8 0.28
9 0.28

> <PUBCHEM_EFFECTIVE_ROTOR_COUNT>
7.8

> <PUBCHEM_PHARMACOPHORE_FEATURES>
11
1 1 acceptor
1 2 acceptor
1 3 acceptor
1 3 donor
1 4 acceptor
1 5 cation
1 5 donor
1 6 donor
4 2 10 12 13 rings
5 1 7 8 9 11 rings
6 16 17 18 19 20 21 rings

> <PUBCHEM_HEAVY_ATOM_COUNT>
21

> <PUBCHEM_ATOM_DEF_STEREO_COUNT>
3

> <PUBCHEM_ATOM_UDEF_STEREO_COUNT>
0

> <PUBCHEM_BOND_DEF_STEREO_COUNT>
0

> <PUBCHEM_BOND_UDEF_STEREO_COUNT>
0

> <PUBCHEM_ISOTOPIC_ATOM_COUNT>
0

> <PUBCHEM_COMPONENT_COUNT>
1

> <PUBCHEM_CACTVS_TAUTO_COUNT>
2

> <PUBCHEM_CONFORMER_ID>
048099B400000001

> <PUBCHEM_MMFF94_ENERGY>
51.002

> <PUBCHEM_FEATURE_SELFOVERLAP>
55.822

> <PUBCHEM_SHAPE_FINGERPRINT>
10 15 10807930475035682582
10354089 29 10952048953631448242
106641 1 14261343666228054838
11724838 91 10735867374986617058
12166972 35 18041000674068607013
12236239 1 17385441029424173131
12516196 113 16773796996275299824
12555020 224 18272086123805204463
12670543 26 18333447634288845389
12730499 353 14634867522658578024
12954195 1 18271526390961785361
13177829 20 12535339108737658062
13533116 47 15697998557134615890
13668630 136 17989489627663892951
13685833 64 17060339625993670490
13862211 1 18060698407742256427
14251751 18 15625933296426986615
14251752 14 18408880720539573757
14294032 229 18124321506619646145
14341114 328 10087638196071907572
14347332 77 18341610373916294353
14528608 73 16443062815628090002
14848160 23 15410896249368007566
14933364 13 16732702748939375023
15048467 5 13551187792886075743
15183329 4 18334014969061017053
15188451 53 16917349208464581682
15475509 35 16199874939518058446
17834072 8 18408041822852692846
18222031 100 17988929976851840680
190975 80 11167930395038654397
19377110 9 9943808867564815436
20281389 69 12179837308073270039
21033648 29 13984955081847131132
21150785 3 17167865283368934947
21267235 1 18412547639516592667
21315764 119 17822013090342153542
21637258 2 16415474952559683413
21781051 124 18338241578254445203
22079108 93 10952047853650250516
221357 26 17603864499013434260
2215653 11 18412263947630063718
22224240 67 12751231502770242228
23035841 295 18343582958771203915
23198884 109 16588022399128391407
23402539 116 18202002110215789705
23522609 53 17985580876712714056
23559900 14 18269269226121816521
25147074 1 18192144902499183305
29717793 49 18411421704880720532
3004659 81 18411138048081702864
3472631 163 13045956715545562114
4058900 60 17313659331569801627
4340502 62 12031792465577087772
542803 24 15213013864736144419
5758199 1 12973882590457865781
59682541 35 10015571813971983198
59682541 52 18113335293597125770
59755656 215 18131069307587607359
6438161 24 18187356598639462162
8988823 20 16773791528781951504

> <PUBCHEM_SHAPE_MULTIPOLES>
398.73
18.33
1.46
1.21
5.8
0.31
0.24
-5.81
6.9
-0.27
-0.12
-0.6
0.07
-0.23

> <PUBCHEM_SHAPE_SELFOVERLAP>
837.713

> <PUBCHEM_SHAPE_VOLUME>
225.9

> <PUBCHEM_COORDINATE_TYPE>
2
5
10

$$$$
