40777401
  -OEChem-12032416173D

 53 56  0     1  0  0  0  0  0999 V2000
   -1.4085   -2.3242   -1.7621 S   0  0  0  0  0  0  0  0  0  0  0  0
    2.6483   -3.0241    1.5334 O   0  0  0  0  0  0  0  0  0  0  0  0
   -0.7742    3.0891   -0.6108 O   0  0  0  0  0  0  0  0  0  0  0  0
    5.5154    0.5837   -0.9212 N   0  0  0  0  0  0  0  0  0  0  0  0
    0.7542   -2.0569    0.5966 N   0  0  0  0  0  0  0  0  0  0  0  0
    0.5957    3.3126   -0.5437 N   0  0  0  0  0  0  0  0  0  0  0  0
    2.7070   -0.0341   -0.2596 C   0  0  1  0  0  0  0  0  0  0  0  0
    3.2617    1.4102   -0.2858 C   0  0  2  0  0  0  0  0  0  0  0  0
    3.5720   -0.9206   -1.1711 C   0  0  0  0  0  0  0  0  0  0  0  0
    4.7724    1.4437    0.0005 C   0  0  0  0  0  0  0  0  0  0  0  0
    5.0623   -0.8040   -0.8543 C   0  0  0  0  0  0  0  0  0  0  0  0
    2.5153    2.3560    0.6560 C   0  0  0  0  0  0  0  0  0  0  0  0
    2.6017   -0.6364    1.1466 C   0  0  0  0  0  0  0  0  0  0  0  0
    1.0508    2.4096    0.3296 C   0  0  0  0  0  0  0  0  0  0  0  0
    2.0355   -2.0402    1.1278 C   0  0  0  0  0  0  0  0  0  0  0  0
    0.0242    1.5973    0.8413 C   0  0  0  0  0  0  0  0  0  0  0  0
   -1.1024    2.0654    0.2184 C   0  0  0  0  0  0  0  0  0  0  0  0
   -0.0262   -3.2649    0.4562 C   0  0  0  0  0  0  0  0  0  0  0  0
   -2.4932    1.7177    0.2557 C   0  0  0  0  0  0  0  0  0  0  0  0
   -1.3555   -3.0030   -0.1909 C   0  0  0  0  0  0  0  0  0  0  0  0
   -2.9303    0.6787    1.0772 C   0  0  0  0  0  0  0  0  0  0  0  0
   -3.4086    2.4183   -0.5295 C   0  0  0  0  0  0  0  0  0  0  0  0
   -2.6157   -3.2373    0.3138 C   0  0  0  0  0  0  0  0  0  0  0  0
   -4.2831    0.3403    1.1136 C   0  0  0  0  0  0  0  0  0  0  0  0
   -4.7613    2.0800   -0.4932 C   0  0  0  0  0  0  0  0  0  0  0  0
   -3.6383   -2.8549   -0.6017 C   0  0  0  0  0  0  0  0  0  0  0  0
   -3.1207   -2.3427   -1.7710 C   0  0  0  0  0  0  0  0  0  0  0  0
   -5.1985    1.0409    0.3283 C   0  0  0  0  0  0  0  0  0  0  0  0
    1.7125   -0.0201   -0.7204 H   0  0  0  0  0  0  0  0  0  0  0  0
    3.1221    1.7859   -1.3117 H   0  0  0  0  0  0  0  0  0  0  0  0
    3.2667   -1.9715   -1.1329 H   0  0  0  0  0  0  0  0  0  0  0  0
    3.4129   -0.6058   -2.2121 H   0  0  0  0  0  0  0  0  0  0  0  0
    5.1410    2.4692   -0.1194 H   0  0  0  0  0  0  0  0  0  0  0  0
    4.9828    1.1542    1.0372 H   0  0  0  0  0  0  0  0  0  0  0  0
    5.6265   -1.3899   -1.5885 H   0  0  0  0  0  0  0  0  0  0  0  0
    5.2884   -1.2322    0.1289 H   0  0  0  0  0  0  0  0  0  0  0  0
    2.9345    3.3672    0.5651 H   0  0  0  0  0  0  0  0  0  0  0  0
    2.6544    2.0729    1.7057 H   0  0  0  0  0  0  0  0  0  0  0  0
    1.9859   -0.0484    1.8272 H   0  0  0  0  0  0  0  0  0  0  0  0
    3.5887   -0.6921    1.6200 H   0  0  0  0  0  0  0  0  0  0  0  0
    6.5087    0.6259   -0.6950 H   0  0  0  0  0  0  0  0  0  0  0  0
    0.0736    0.8092    1.5750 H   0  0  0  0  0  0  0  0  0  0  0  0
    0.3122   -1.1803    0.3390 H   0  0  0  0  0  0  0  0  0  0  0  0
   -0.1598   -3.6916    1.4569 H   0  0  0  0  0  0  0  0  0  0  0  0
    0.5548   -3.9857   -0.1308 H   0  0  0  0  0  0  0  0  0  0  0  0
   -2.2411    0.1130    1.6989 H   0  0  0  0  0  0  0  0  0  0  0  0
   -3.1072    3.2334   -1.1824 H   0  0  0  0  0  0  0  0  0  0  0  0
   -2.8003   -3.6612    1.2926 H   0  0  0  0  0  0  0  0  0  0  0  0
   -4.6237   -0.4690    1.7528 H   0  0  0  0  0  0  0  0  0  0  0  0
   -5.4745    2.6250   -1.1047 H   0  0  0  0  0  0  0  0  0  0  0  0
   -4.6994   -2.9491   -0.4116 H   0  0  0  0  0  0  0  0  0  0  0  0
   -3.6663   -1.9768   -2.6293 H   0  0  0  0  0  0  0  0  0  0  0  0
   -6.2516    0.7769    0.3562 H   0  0  0  0  0  0  0  0  0  0  0  0
  1 20  1  0  0  0  0
  1 27  1  0  0  0  0
  2 15  2  0  0  0  0
  3  6  1  0  0  0  0
  3 17  1  0  0  0  0
  4 10  1  0  0  0  0
  4 11  1  0  0  0  0
  4 41  1  0  0  0  0
  5 15  1  0  0  0  0
  5 18  1  0  0  0  0
  5 43  1  0  0  0  0
  6 14  2  0  0  0  0
  7  8  1  0  0  0  0
  7  9  1  0  0  0  0
  7 13  1  0  0  0  0
  7 29  1  0  0  0  0
  8 10  1  0  0  0  0
  8 12  1  0  0  0  0
  8 30  1  0  0  0  0
  9 11  1  0  0  0  0
  9 31  1  0  0  0  0
  9 32  1  0  0  0  0
 10 33  1  0  0  0  0
 10 34  1  0  0  0  0
 11 35  1  0  0  0  0
 11 36  1  0  0  0  0
 12 14  1  0  0  0  0
 12 37  1  0  0  0  0
 12 38  1  0  0  0  0
 13 15  1  0  0  0  0
 13 39  1  0  0  0  0
 13 40  1  0  0  0  0
 14 16  1  0  0  0  0
 16 17  2  0  0  0  0
 16 42  1  0  0  0  0
 17 19  1  0  0  0  0
 18 20  1  0  0  0  0
 18 44  1  0  0  0  0
 18 45  1  0  0  0  0
 19 21  2  0  0  0  0
 19 22  1  0  0  0  0
 20 23  2  0  0  0  0
 21 24  1  0  0  0  0
 21 46  1  0  0  0  0
 22 25  2  0  0  0  0
 22 47  1  0  0  0  0
 23 26  1  0  0  0  0
 23 48  1  0  0  0  0
 24 28  2  0  0  0  0
 24 49  1  0  0  0  0
 25 28  1  0  0  0  0
 25 50  1  0  0  0  0
 26 27  2  0  0  0  0
 26 51  1  0  0  0  0
 27 52  1  0  0  0  0
 28 53  1  0  0  0  0
M  END
> <PUBCHEM_COMPOUND_CID>
40777401

> <PUBCHEM_CONFORMER_RMSD>
1.2

> <PUBCHEM_CONFORMER_DIVERSEORDER>
1
51
81
70
12
100
102
86
73
20
85
75
68
61
42
97
14
107
2
71
24
105
47
44
11
59
104
6
49
38
93
94
88
36
76
99
74
50
69
48
108
52
103
7
54
30
15
90
31
19
64
87
67
37
17
46
65
43
77
84
9
96
83
62
101
25
98
56
18
60
72
80
4
23
32
91
45
41
79
40
5
92
3
33
89
66
106
39
53
16
57
35
78
29
21
26
22
63
95
8
58
55
10
28
13
34
27
82

> <PUBCHEM_MMFF94_PARTIAL_CHARGES>
36
1 -0.08
10 0.27
11 0.27
12 0.18
13 0.06
14 0.11
15 0.57
16 -0.15
17 0.09
18 0.48
19 0.05
2 -0.57
20 -0.14
21 -0.15
22 -0.15
23 -0.15
24 -0.15
25 -0.15
26 -0.15
27 -0.11
28 -0.15
3 -0.02
4 -0.9
41 0.36
42 0.15
43 0.37
46 0.15
47 0.15
48 0.15
49 0.15
5 -0.73
50 0.15
51 0.15
52 0.15
53 0.15
6 -0.41

> <PUBCHEM_EFFECTIVE_ROTOR_COUNT>
9.2

> <PUBCHEM_PHARMACOPHORE_FEATURES>
9
1 2 acceptor
1 4 cation
1 4 donor
1 5 donor
1 6 acceptor
5 1 20 23 26 27 rings
5 3 6 14 16 17 rings
6 19 21 22 24 25 28 rings
6 4 7 8 9 10 11 rings

> <PUBCHEM_HEAVY_ATOM_COUNT>
28

> <PUBCHEM_ATOM_DEF_STEREO_COUNT>
2

> <PUBCHEM_ATOM_UDEF_STEREO_COUNT>
0

> <PUBCHEM_BOND_DEF_STEREO_COUNT>
0

> <PUBCHEM_BOND_UDEF_STEREO_COUNT>
0

> <PUBCHEM_ISOTOPIC_ATOM_COUNT>
0

> <PUBCHEM_COMPONENT_COUNT>
1

> <PUBCHEM_CACTVS_TAUTO_COUNT>
2

> <PUBCHEM_CONFORMER_ID>
026E36B900000001

> <PUBCHEM_MMFF94_ENERGY>
41.1428

> <PUBCHEM_FEATURE_SELFOVERLAP>
45.672

> <PUBCHEM_SHAPE_FINGERPRINT>
10871710 139 18339078297875721023
1100329 8 18411984680161152144
11014199 57 17762339519137963787
11479125 193 15360528906163876516
11513181 2 17842558440396852511
11578080 2 15792561943038448263
12107698 1 18128253587173852711
12422481 6 18054256442599378411
12553582 1 18410564063903799361
13122387 1 18339920407749525327
1361 2 18337947880021868641
140371 6 17471851884337653456
14117953 113 17764016979113548669
14251751 93 18341054098632039003
14289585 56 17458342992726652812
14617045 38 18334867082452490769
14681490 219 17837760489586572471
14765038 42 18200053801048904513
14840074 17 18339369569888877737
15001296 14 18192703660691169241
15297060 5 17632024069779650427
15968369 153 17986938838851327883
17492 54 18338504250095663055
17627616 140 18263360300437243891
19319366 153 18041002791350392218
22113638 7 18194387901814258051
22393880 68 18411416228407281232
23227448 37 18412266151143523863
23558518 356 18048880993826052361
24941158 1 14852425672417355912
3052486 1 18337100280799376568
3298306 158 18265049137923854245
338550 245 18263369251291156485
463206 1 18410577313862427513
469060 322 17458620176698763863
508706 21 18337111292594564987
5171179 24 17914331535917280448
6438718 38 18059568130931670487
9896288 288 17190936061604250330

> <PUBCHEM_SHAPE_MULTIPOLES>
553.39
10.13
5.01
1.34
3.06
1.66
0.14
-2.13
1.59
-2.88
0.2
-0.05
0.78
-0.96

> <PUBCHEM_SHAPE_SELFOVERLAP>
1170.481

> <PUBCHEM_SHAPE_VOLUME>
310.7

> <PUBCHEM_COORDINATE_TYPE>
2
5
10

$$$$
