28962404
  -OEChem-12032416143D

 50 51  0     1  0  0  0  0  0999 V2000
    2.0741    0.9912    0.7694 O   0  0  0  0  0  0  0  0  0  0  0  0
    0.3193    1.6755   -1.5589 O   0  0  0  0  0  0  0  0  0  0  0  0
    3.8612    3.0732    0.1558 O   0  0  0  0  0  0  0  0  0  0  0  0
   -1.4864    0.3028    0.1953 N   0  0  0  0  0  0  0  0  0  0  0  0
    2.3297   -1.8147    0.3278 N   0  0  0  0  0  0  0  0  0  0  0  0
   -0.3050    0.9879    0.6896 C   0  0  1  0  0  0  0  0  0  0  0  0
    0.9350    0.1162    0.9266 C   0  0  1  0  0  0  0  0  0  0  0  0
    0.2229    2.0988   -0.2051 C   0  0  1  0  0  0  0  0  0  0  0  0
    1.6120    2.3014    0.3881 C   0  0  2  0  0  0  0  0  0  0  0  0
   -2.4129    1.2589   -0.4255 C   0  0  0  0  0  0  0  0  0  0  0  0
   -2.1405   -0.4418    1.2796 C   0  0  0  0  0  0  0  0  0  0  0  0
   -4.3571   -0.2796    0.0734 C   0  0  0  0  0  0  0  0  0  0  0  0
   -3.6391    0.5461   -0.9996 C   0  0  0  0  0  0  0  0  0  0  0  0
   -3.3570   -1.2132    0.7636 C   0  0  0  0  0  0  0  0  0  0  0  0
    1.1348   -1.0606   -0.0218 C   0  0  0  0  0  0  0  0  0  0  0  0
    2.6305    2.9420   -0.5372 C   0  0  0  0  0  0  0  0  0  0  0  0
   -5.5189   -1.0668   -0.5263 C   0  0  0  0  0  0  0  0  0  0  0  0
    2.5152   -2.9453   -0.5723 C   0  0  0  0  0  0  0  0  0  0  0  0
    1.6027   -4.0994   -0.1670 C   0  0  0  0  0  0  0  0  0  0  0  0
    3.9795   -3.3726   -0.5557 C   0  0  0  0  0  0  0  0  0  0  0  0
   -0.5429    1.4779    1.6478 H   0  0  0  0  0  0  0  0  0  0  0  0
    0.9333   -0.2499    1.9612 H   0  0  0  0  0  0  0  0  0  0  0  0
   -0.3683    3.0200   -0.1631 H   0  0  0  0  0  0  0  0  0  0  0  0
    1.5457    2.8762    1.3209 H   0  0  0  0  0  0  0  0  0  0  0  0
   -1.9791    1.7903   -1.2756 H   0  0  0  0  0  0  0  0  0  0  0  0
   -2.7385    2.0149    0.3018 H   0  0  0  0  0  0  0  0  0  0  0  0
   -2.4568    0.2339    2.0856 H   0  0  0  0  0  0  0  0  0  0  0  0
   -1.4460   -1.1661    1.7209 H   0  0  0  0  0  0  0  0  0  0  0  0
   -4.7655    0.4087    0.8255 H   0  0  0  0  0  0  0  0  0  0  0  0
   -4.3282    1.2884   -1.4202 H   0  0  0  0  0  0  0  0  0  0  0  0
   -3.3278   -0.1041   -1.8281 H   0  0  0  0  0  0  0  0  0  0  0  0
   -3.0235   -1.9908    0.0636 H   0  0  0  0  0  0  0  0  0  0  0  0
   -3.8431   -1.7276    1.6012 H   0  0  0  0  0  0  0  0  0  0  0  0
    1.2332   -0.6929   -1.0499 H   0  0  0  0  0  0  0  0  0  0  0  0
    0.2549   -1.7081    0.0231 H   0  0  0  0  0  0  0  0  0  0  0  0
    2.2989    3.9331   -0.8612 H   0  0  0  0  0  0  0  0  0  0  0  0
    2.8226    2.3153   -1.4138 H   0  0  0  0  0  0  0  0  0  0  0  0
   -5.1716   -1.7738   -1.2873 H   0  0  0  0  0  0  0  0  0  0  0  0
   -6.2426   -0.3926   -0.9961 H   0  0  0  0  0  0  0  0  0  0  0  0
   -6.0434   -1.6348    0.2492 H   0  0  0  0  0  0  0  0  0  0  0  0
    0.5583    2.4516   -2.0936 H   0  0  0  0  0  0  0  0  0  0  0  0
    3.1349   -1.1905    0.2765 H   0  0  0  0  0  0  0  0  0  0  0  0
    2.2857   -2.6575   -1.6066 H   0  0  0  0  0  0  0  0  0  0  0  0
    4.4921    3.4881   -0.4569 H   0  0  0  0  0  0  0  0  0  0  0  0
    1.7695   -4.3947    0.8753 H   0  0  0  0  0  0  0  0  0  0  0  0
    0.5434   -3.8513   -0.2839 H   0  0  0  0  0  0  0  0  0  0  0  0
    1.7961   -4.9777   -0.7931 H   0  0  0  0  0  0  0  0  0  0  0  0
    4.2971   -3.6810    0.4470 H   0  0  0  0  0  0  0  0  0  0  0  0
    4.6338   -2.5566   -0.8824 H   0  0  0  0  0  0  0  0  0  0  0  0
    4.1438   -4.2178   -1.2331 H   0  0  0  0  0  0  0  0  0  0  0  0
  1  7  1  0  0  0  0
  1  9  1  0  0  0  0
  2  8  1  0  0  0  0
  2 41  1  0  0  0  0
  3 16  1  0  0  0  0
  3 44  1  0  0  0  0
  4  6  1  0  0  0  0
  4 10  1  0  0  0  0
  4 11  1  0  0  0  0
  5 15  1  0  0  0  0
  5 18  1  0  0  0  0
  5 42  1  0  0  0  0
  6  7  1  0  0  0  0
  6  8  1  0  0  0  0
  6 21  1  0  0  0  0
  7 15  1  0  0  0  0
  7 22  1  0  0  0  0
  8  9  1  0  0  0  0
  8 23  1  0  0  0  0
  9 16  1  0  0  0  0
  9 24  1  0  0  0  0
 10 13  1  0  0  0  0
 10 25  1  0  0  0  0
 10 26  1  0  0  0  0
 11 14  1  0  0  0  0
 11 27  1  0  0  0  0
 11 28  1  0  0  0  0
 12 13  1  0  0  0  0
 12 14  1  0  0  0  0
 12 17  1  0  0  0  0
 12 29  1  0  0  0  0
 13 30  1  0  0  0  0
 13 31  1  0  0  0  0
 14 32  1  0  0  0  0
 14 33  1  0  0  0  0
 15 34  1  0  0  0  0
 15 35  1  0  0  0  0
 16 36  1  0  0  0  0
 16 37  1  0  0  0  0
 17 38  1  0  0  0  0
 17 39  1  0  0  0  0
 17 40  1  0  0  0  0
 18 19  1  0  0  0  0
 18 20  1  0  0  0  0
 18 43  1  0  0  0  0
 19 45  1  0  0  0  0
 19 46  1  0  0  0  0
 19 47  1  0  0  0  0
 20 48  1  0  0  0  0
 20 49  1  0  0  0  0
 20 50  1  0  0  0  0
M  END
> <PUBCHEM_COMPOUND_CID>
28962404

> <PUBCHEM_CONFORMER_RMSD>
0.8

> <PUBCHEM_CONFORMER_DIVERSEORDER>
1
31
19
33
22
41
12
32
17
29
20
6
26
37
38
8
35
3
27
16
23
34
25
28
30
5
4
11
7
40
36
9
24
15
10
21
2
13
39
18
14

> <PUBCHEM_MMFF94_PARTIAL_CHARGES>
17
1 -0.56
10 0.27
11 0.27
15 0.27
16 0.28
18 0.27
2 -0.68
3 -0.68
4 -0.81
41 0.4
42 0.36
44 0.4
5 -0.9
6 0.27
7 0.28
8 0.28
9 0.28

> <PUBCHEM_EFFECTIVE_ROTOR_COUNT>
7.2

> <PUBCHEM_PHARMACOPHORE_FEATURES>
11
1 1 acceptor
1 2 acceptor
1 2 donor
1 3 acceptor
1 3 donor
1 4 cation
1 5 cation
1 5 donor
3 18 19 20 hydrophobe
5 1 6 7 8 9 rings
6 4 10 11 12 13 14 rings

> <PUBCHEM_HEAVY_ATOM_COUNT>
20

> <PUBCHEM_ATOM_DEF_STEREO_COUNT>
4

> <PUBCHEM_ATOM_UDEF_STEREO_COUNT>
0

> <PUBCHEM_BOND_DEF_STEREO_COUNT>
0

> <PUBCHEM_BOND_UDEF_STEREO_COUNT>
0

> <PUBCHEM_ISOTOPIC_ATOM_COUNT>
0

> <PUBCHEM_COMPONENT_COUNT>
1

> <PUBCHEM_CACTVS_TAUTO_COUNT>
1

> <PUBCHEM_CONFORMER_ID>
01B9EE6400000001

> <PUBCHEM_MMFF94_ENERGY>
32.1975

> <PUBCHEM_FEATURE_SELFOVERLAP>
55.825

> <PUBCHEM_SHAPE_FINGERPRINT>
11045515 52 17901394398488898108
116883 192 18264199215124567733
12363563 72 18195813963890032667
12553582 1 18048883987408085403
12788726 201 17396987855652309082
12839892 36 18122892385645649386
12969540 37 18336543837199662895
13052359 8 17763463216000221232
13533116 47 18272650178166380243
13955234 65 18342457088390802913
14863182 85 18263087780440413173
15502722 9 18410293635509081981
17138139 8 17126179658049981551
1813 80 17915473696084970078
18681886 176 17901661901537035881
18915476 22 18337122262220425627
19591789 44 18051418666984725762
20600515 1 17553772763401736380
20602899 9 17981348960137583120
20645477 70 18335693971067803491
20671657 53 18268713805388483043
20871999 31 17901949634301305983
21054139 6 17840577421122881071
21285901 2 17823119251280514973
221490 88 18408890628913496859
23114952 82 18333449833201578245
23419403 2 17605808409980496580
23557571 272 17530676615670154917
23559900 14 18338226064351679497
3060560 45 18265052620778555372
314173 41 18194684761358918371
3421961 26 18341047432769163459
4280585 95 18191860120509021618
458136 41 18267599076628118129
58779409 8 17761786456525747084
6025842 7 18339919420012613919
6669772 16 18198913689886232428
7364860 26 18410294730715167081
81228 2 17690838965352012136
81539 233 18262799708388699816
8272917 22 18411420643981619673
84936 31 18412819209607778108
9709674 26 18335136505940664987

> <PUBCHEM_SHAPE_MULTIPOLES>
384.02
8.12
4.55
1.05
7.79
1.73
-0.03
4.3
-1.45
-7.87
-0.83
0.32
-0.12
0.71

> <PUBCHEM_SHAPE_SELFOVERLAP>
765.691

> <PUBCHEM_SHAPE_VOLUME>
228.7

> <PUBCHEM_COORDINATE_TYPE>
2
5
10

$$$$
