11886046
  -OEChem-12032416193D

 51 55  0     1  0  0  0  0  0999 V2000
    8.4520   -1.3645   -0.4591 F   0  0  0  0  0  0  0  0  0  0  0  0
    9.0698    0.7138   -0.4027 F   0  0  0  0  0  0  0  0  0  0  0  0
    7.9102   -0.0275   -2.0863 F   0  0  0  0  0  0  0  0  0  0  0  0
   -0.6460    0.0648   -1.0535 O   0  0  0  0  0  0  0  0  0  0  0  0
   -2.4162   -2.1797    0.1230 O   0  0  0  0  0  0  0  0  0  0  0  0
    1.1259   -1.6528    0.2035 O   0  0  0  0  0  0  0  0  0  0  0  0
    1.6468    0.1517    1.5083 O   0  0  0  0  0  0  0  0  0  0  0  0
   -3.6688    1.2149   -0.4472 N   0  0  0  0  0  0  0  0  0  0  0  0
   -2.9722    2.3559   -0.4211 N   0  0  0  0  0  0  0  0  0  0  0  0
   -5.0877    2.7216    0.1799 N   0  0  0  0  0  0  0  0  0  0  0  0
   -3.8470    3.2772   -0.0362 N   0  0  0  0  0  0  0  0  0  0  0  0
    3.2468   -0.8868    0.1512 N   0  0  0  0  0  0  0  0  0  0  0  0
   -2.3849   -0.7524    0.3446 C   0  0  1  0  0  0  0  0  0  0  0  0
   -0.9287   -0.3339    0.2969 C   0  0  1  0  0  0  0  0  0  0  0  0
   -3.0235   -0.0421   -0.8332 C   0  0  2  0  0  0  0  0  0  0  0  0
   -0.2046   -1.6066    0.6664 C   0  0  1  0  0  0  0  0  0  0  0  0
   -1.8629    0.0932   -1.8135 C   0  0  0  0  0  0  0  0  0  0  0  0
   -1.0698   -2.6629    0.0195 C   0  0  0  0  0  0  0  0  0  0  0  0
   -4.9531    1.4418   -0.0817 C   0  0  0  0  0  0  0  0  0  0  0  0
    1.9931   -0.7022    0.7012 C   0  0  0  0  0  0  0  0  0  0  0  0
   -5.9745    0.4291   -0.0025 C   0  0  0  0  0  0  0  0  0  0  0  0
   -6.7629    0.1429   -1.1185 C   0  0  0  0  0  0  0  0  0  0  0  0
   -6.1790   -0.2678    1.1897 C   0  0  0  0  0  0  0  0  0  0  0  0
    4.4206   -0.1359    0.3885 C   0  0  0  0  0  0  0  0  0  0  0  0
   -7.7528   -0.8368   -1.0423 C   0  0  0  0  0  0  0  0  0  0  0  0
   -7.1688   -1.2476    1.2656 C   0  0  0  0  0  0  0  0  0  0  0  0
   -7.9558   -1.5321    0.1496 C   0  0  0  0  0  0  0  0  0  0  0  0
    5.5926   -0.4808   -0.2658 C   0  0  0  0  0  0  0  0  0  0  0  0
    4.3763    0.9311    1.2719 C   0  0  0  0  0  0  0  0  0  0  0  0
    6.7503    0.2609   -0.0308 C   0  0  0  0  0  0  0  0  0  0  0  0
    5.5340    1.6727    1.5067 C   0  0  0  0  0  0  0  0  0  0  0  0
    6.7210    1.3377    0.8555 C   0  0  0  0  0  0  0  0  0  0  0  0
    8.0197   -0.0970   -0.7277 C   0  0  0  0  0  0  0  0  0  0  0  0
   -2.8576   -0.5603    1.3128 H   0  0  0  0  0  0  0  0  0  0  0  0
   -0.7176    0.5200    0.9460 H   0  0  0  0  0  0  0  0  0  0  0  0
   -3.8066   -0.6452   -1.3068 H   0  0  0  0  0  0  0  0  0  0  0  0
   -0.2304   -1.7522    1.7548 H   0  0  0  0  0  0  0  0  0  0  0  0
   -1.8902    0.9974   -2.4289 H   0  0  0  0  0  0  0  0  0  0  0  0
   -1.8327   -0.7690   -2.4893 H   0  0  0  0  0  0  0  0  0  0  0  0
   -0.8255   -2.8117   -1.0383 H   0  0  0  0  0  0  0  0  0  0  0  0
   -0.9875   -3.6326    0.5197 H   0  0  0  0  0  0  0  0  0  0  0  0
    3.3391   -1.6574   -0.5063 H   0  0  0  0  0  0  0  0  0  0  0  0
   -6.6170    0.6757   -2.0552 H   0  0  0  0  0  0  0  0  0  0  0  0
   -5.5738   -0.0580    2.0686 H   0  0  0  0  0  0  0  0  0  0  0  0
   -8.3654   -1.0586   -1.9113 H   0  0  0  0  0  0  0  0  0  0  0  0
   -7.3267   -1.7893    2.1936 H   0  0  0  0  0  0  0  0  0  0  0  0
   -8.7263   -2.2951    0.2088 H   0  0  0  0  0  0  0  0  0  0  0  0
    5.6166   -1.3197   -0.9569 H   0  0  0  0  0  0  0  0  0  0  0  0
    3.4971    1.2506    1.8122 H   0  0  0  0  0  0  0  0  0  0  0  0
    5.5123    2.5115    2.1966 H   0  0  0  0  0  0  0  0  0  0  0  0
    7.6123    1.9273    1.0514 H   0  0  0  0  0  0  0  0  0  0  0  0
  1 33  1  0  0  0  0
  2 33  1  0  0  0  0
  3 33  1  0  0  0  0
  4 14  1  0  0  0  0
  4 17  1  0  0  0  0
  5 13  1  0  0  0  0
  5 18  1  0  0  0  0
  6 16  1  0  0  0  0
  6 20  1  0  0  0  0
  7 20  2  0  0  0  0
  8  9  1  0  0  0  0
  8 15  1  0  0  0  0
  8 19  1  0  0  0  0
  9 11  2  0  0  0  0
 10 11  1  0  0  0  0
 10 19  2  0  0  0  0
 12 20  1  0  0  0  0
 12 24  1  0  0  0  0
 12 42  1  0  0  0  0
 13 14  1  0  0  0  0
 13 15  1  0  0  0  0
 13 34  1  0  0  0  0
 14 16  1  0  0  0  0
 14 35  1  0  0  0  0
 15 17  1  0  0  0  0
 15 36  1  0  0  0  0
 16 18  1  0  0  0  0
 16 37  1  0  0  0  0
 17 38  1  0  0  0  0
 17 39  1  0  0  0  0
 18 40  1  0  0  0  0
 18 41  1  0  0  0  0
 19 21  1  0  0  0  0
 21 22  2  0  0  0  0
 21 23  1  0  0  0  0
 22 25  1  0  0  0  0
 22 43  1  0  0  0  0
 23 26  2  0  0  0  0
 23 44  1  0  0  0  0
 24 28  1  0  0  0  0
 24 29  2  0  0  0  0
 25 27  2  0  0  0  0
 25 45  1  0  0  0  0
 26 27  1  0  0  0  0
 26 46  1  0  0  0  0
 27 47  1  0  0  0  0
 28 30  2  0  0  0  0
 28 48  1  0  0  0  0
 29 31  1  0  0  0  0
 29 49  1  0  0  0  0
 30 32  1  0  0  0  0
 30 33  1  0  0  0  0
 31 32  2  0  0  0  0
 31 50  1  0  0  0  0
 32 51  1  0  0  0  0
M  END
> <PUBCHEM_COMPOUND_CID>
11886046

> <PUBCHEM_CONFORMER_RMSD>
1

> <PUBCHEM_CONFORMER_DIVERSEORDER>
2
43
153
147
37
9
88
120
108
123
165
32
41
35
110
160
59
50
60
64
55
26
72
106
102
104
152
155
142
126
82
49
48
63
40
140
101
125
159
103
52
77
141
57
144
100
94
34
53
11
156
164
29
145
111
5
83
16
137
10
95
78
66
21
117
30
130
136
135
127
121
154
87
148
96
27
68
19
161
76
13
17
114
71
128
151
91
70
42
93
54
132
107
122
139
39
146
84
113
24
138
157
124
3
47
89
67
31
33
6
28
158
62
112
7
20
129
133
51
105
143
8
98
69
162
61
86
150
4
25
1
79
36
74
85
58
18
109
116
73
65
97
80
134
131
56
46
12
81
92
44
45
75
149
119
14
90
115
163
118
15
23
99
38
22

> <PUBCHEM_MMFF94_PARTIAL_CHARGES>
42
1 -0.34
10 -0.34
12 -0.55
13 0.28
14 0.28
15 0.26
16 0.28
17 0.28
18 0.28
19 0.13
2 -0.34
20 0.78
21 0.05
22 -0.15
23 -0.15
24 0.12
25 -0.15
26 -0.15
27 -0.15
28 -0.15
29 -0.15
3 -0.34
30 -0.14
31 -0.15
32 -0.15
33 1.16
4 -0.56
42 0.37
43 0.15
44 0.15
45 0.15
46 0.15
47 0.15
48 0.15
49 0.15
5 -0.56
50 0.15
51 0.15
6 -0.43
7 -0.57
8 0.31
9 -0.42

> <PUBCHEM_EFFECTIVE_ROTOR_COUNT>
8.2

> <PUBCHEM_PHARMACOPHORE_FEATURES>
10
1 12 donor
1 4 acceptor
1 5 acceptor
1 7 acceptor
3 8 10 19 cation
5 4 13 14 15 17 rings
5 5 13 14 16 18 rings
5 8 9 10 11 19 rings
6 21 22 23 25 26 27 rings
6 24 28 29 30 31 32 rings

> <PUBCHEM_HEAVY_ATOM_COUNT>
33

> <PUBCHEM_ATOM_DEF_STEREO_COUNT>
4

> <PUBCHEM_ATOM_UDEF_STEREO_COUNT>
0

> <PUBCHEM_BOND_DEF_STEREO_COUNT>
0

> <PUBCHEM_BOND_UDEF_STEREO_COUNT>
0

> <PUBCHEM_ISOTOPIC_ATOM_COUNT>
0

> <PUBCHEM_COMPONENT_COUNT>
1

> <PUBCHEM_CACTVS_TAUTO_COUNT>
2

> <PUBCHEM_CONFORMER_ID>
00B55DDE00000002

> <PUBCHEM_MMFF94_ENERGY>
86.7495

> <PUBCHEM_FEATURE_SELFOVERLAP>
51.45

> <PUBCHEM_SHAPE_FINGERPRINT>
10 15 17458059374038949643
10076449 9 17989490727228073369
10299344 5 16343704347988528383
10369192 42 18273213084558049847
10669705 176 18335419036957175542
10670039 82 18409726223090395633
10674148 151 12823296797025753143
11135926 11 14692568784572067445
11211813 128 18341053012644396099
11315181 36 17603586323225383297
11973863 73 13254807806284291527
12202916 173 8430316839781882984
12643181 29 9799689294860347017
12664476 115 18413668028753918104
13692115 27 17171248618493601955
13914758 101 14117805708434036290
14118638 360 18261387815125730963
14251764 18 17095524006798946614
14257110 125 18335136483980518650
14279260 333 13398640441890009759
14394314 77 9943806685985147237
14856354 85 18341046411263552599
14933364 13 18342455933076410688
15183329 4 16343980286652291217
1577012 14 18187362069636278921
16628084 112 13326035260585306197
18335252 98 18410015429430206371
18608769 82 18341328985329689667
19611394 137 18115035228962978523
20105231 36 18343021116582202519
21095086 128 17489866059893581423
21365058 27 17346880066197080695
21792961 116 18202006508494422634
22224240 67 14129058127839139392
23559900 14 10665241353926271951
24771293 8 17821731602670114333
25019877 29 18202565094555330679
2747138 104 18335986454314648129
3383291 50 18408884074835445443
3986486 107 18339938026565113276
4098825 35 18131631158292995454
4258327 124 17241058694387813814
44317340 157 16916213520385287904
444769 64 11024105456715781351
550186 72 18262513698576222517
559249 180 9727626220739645837
6126387 218 9223231840843861190
6703917 75 18335711541293942154
9689198 14 18272089387779759240
9953998 17 11746939793361515820

> <PUBCHEM_SHAPE_MULTIPOLES>
608.92
27.65
2.27
1.31
29.36
0.96
-0.17
0.99
-3.41
-2.74
0.25
0.46
0.06
1.5

> <PUBCHEM_SHAPE_SELFOVERLAP>
1343.018

> <PUBCHEM_SHAPE_VOLUME>
329.5

> <PUBCHEM_COORDINATE_TYPE>
2
5
10

$$$$
