26761807
  -OEChem-12032416373D

 47 50  0     1  0  0  0  0  0999 V2000
    1.6515    2.7694   -0.7071 O   0  0  0  0  0  0  0  0  0  0  0  0
    3.8628    2.1241   -0.5319 O   0  0  0  0  0  0  0  0  0  0  0  0
   -4.8939   -1.5933   -0.9773 O   0  0  0  0  0  0  0  0  0  0  0  0
    1.1043    0.2400    0.0940 N   0  0  1  0  0  0  0  0  0  0  0  0
    3.4864   -2.4714   -0.9654 N   0  0  0  0  0  0  0  0  0  0  0  0
    4.7448   -1.7709    0.7451 N   0  0  0  0  0  0  0  0  0  0  0  0
    2.1592    1.0321    0.7811 C   0  0  1  0  0  0  0  0  0  0  0  0
    3.3255    0.2236    1.4169 C   0  0  0  0  0  0  0  0  0  0  0  0
    1.6332   -0.7052   -0.9268 C   0  0  0  0  0  0  0  0  0  0  0  0
    0.2574   -0.4559    1.0669 C   0  0  0  0  0  0  0  0  0  0  0  0
    2.8718   -1.3666   -0.4602 C   0  0  0  0  0  0  0  0  0  0  0  0
    3.6631   -0.9527    0.5822 C   0  0  0  0  0  0  0  0  0  0  0  0
   -1.1299   -0.6951    0.5330 C   0  0  0  0  0  0  0  0  0  0  0  0
    2.6839    2.0236   -0.2202 C   0  0  0  0  0  0  0  0  0  0  0  0
   -2.0863    0.3305    0.4588 C   0  0  0  0  0  0  0  0  0  0  0  0
    4.6112   -2.6758   -0.2048 C   0  0  0  0  0  0  0  0  0  0  0  0
   -1.4380   -1.9879    0.1085 C   0  0  0  0  0  0  0  0  0  0  0  0
   -3.3735    0.0407   -0.0534 C   0  0  0  0  0  0  0  0  0  0  0  0
   -3.6662   -1.2661   -0.4762 C   0  0  0  0  0  0  0  0  0  0  0  0
   -2.7036   -2.2728   -0.3952 C   0  0  0  0  0  0  0  0  0  0  0  0
   -1.7937    1.6374    0.8816 C   0  0  0  0  0  0  0  0  0  0  0  0
   -4.3300    1.0664   -0.1277 C   0  0  0  0  0  0  0  0  0  0  0  0
   -2.7562    2.6442    0.8006 C   0  0  0  0  0  0  0  0  0  0  0  0
   -4.0219    2.3592    0.2969 C   0  0  0  0  0  0  0  0  0  0  0  0
    2.0116    3.7590   -1.6763 C   0  0  0  0  0  0  0  0  0  0  0  0
   -5.8738   -2.0366   -0.0430 C   0  0  0  0  0  0  0  0  0  0  0  0
    1.7192    1.6517    1.5755 H   0  0  0  0  0  0  0  0  0  0  0  0
    3.0044   -0.1445    2.3995 H   0  0  0  0  0  0  0  0  0  0  0  0
    4.2140    0.8437    1.5779 H   0  0  0  0  0  0  0  0  0  0  0  0
    1.8709   -0.1267   -1.8287 H   0  0  0  0  0  0  0  0  0  0  0  0
    0.8882   -1.4409   -1.2435 H   0  0  0  0  0  0  0  0  0  0  0  0
    0.1604    0.1116    2.0023 H   0  0  0  0  0  0  0  0  0  0  0  0
    0.7144   -1.4011    1.3922 H   0  0  0  0  0  0  0  0  0  0  0  0
    3.1806   -3.0335   -1.7488 H   0  0  0  0  0  0  0  0  0  0  0  0
    5.2853   -3.4984   -0.3965 H   0  0  0  0  0  0  0  0  0  0  0  0
   -0.7037   -2.7873    0.1660 H   0  0  0  0  0  0  0  0  0  0  0  0
   -2.9348   -3.2825   -0.7240 H   0  0  0  0  0  0  0  0  0  0  0  0
   -0.8254    1.9202    1.2823 H   0  0  0  0  0  0  0  0  0  0  0  0
   -5.3271    0.8827   -0.5211 H   0  0  0  0  0  0  0  0  0  0  0  0
   -2.5173    3.6512    1.1301 H   0  0  0  0  0  0  0  0  0  0  0  0
   -4.7701    3.1439    0.2328 H   0  0  0  0  0  0  0  0  0  0  0  0
    1.1016    4.2821   -1.9819 H   0  0  0  0  0  0  0  0  0  0  0  0
    2.4553    3.2829   -2.5559 H   0  0  0  0  0  0  0  0  0  0  0  0
    2.7037    4.4842   -1.2380 H   0  0  0  0  0  0  0  0  0  0  0  0
   -6.8155   -2.1845   -0.5788 H   0  0  0  0  0  0  0  0  0  0  0  0
   -6.0338   -1.2936    0.7446 H   0  0  0  0  0  0  0  0  0  0  0  0
   -5.5717   -2.9906    0.4004 H   0  0  0  0  0  0  0  0  0  0  0  0
  1 14  1  0  0  0  0
  1 25  1  0  0  0  0
  2 14  2  0  0  0  0
  3 19  1  0  0  0  0
  3 26  1  0  0  0  0
  4  7  1  0  0  0  0
  4  9  1  0  0  0  0
  4 10  1  0  0  0  0
  5 11  1  0  0  0  0
  5 16  1  0  0  0  0
  5 34  1  0  0  0  0
  6 12  1  0  0  0  0
  6 16  2  0  0  0  0
  7  8  1  0  0  0  0
  7 14  1  0  0  0  0
  7 27  1  0  0  0  0
  8 12  1  0  0  0  0
  8 28  1  0  0  0  0
  8 29  1  0  0  0  0
  9 11  1  0  0  0  0
  9 30  1  0  0  0  0
  9 31  1  0  0  0  0
 10 13  1  0  0  0  0
 10 32  1  0  0  0  0
 10 33  1  0  0  0  0
 11 12  2  0  0  0  0
 13 15  1  0  0  0  0
 13 17  2  0  0  0  0
 15 18  1  0  0  0  0
 15 21  2  0  0  0  0
 16 35  1  0  0  0  0
 17 20  1  0  0  0  0
 17 36  1  0  0  0  0
 18 19  1  0  0  0  0
 18 22  2  0  0  0  0
 19 20  2  0  0  0  0
 20 37  1  0  0  0  0
 21 23  1  0  0  0  0
 21 38  1  0  0  0  0
 22 24  1  0  0  0  0
 22 39  1  0  0  0  0
 23 24  2  0  0  0  0
 23 40  1  0  0  0  0
 24 41  1  0  0  0  0
 25 42  1  0  0  0  0
 25 43  1  0  0  0  0
 25 44  1  0  0  0  0
 26 45  1  0  0  0  0
 26 46  1  0  0  0  0
 26 47  1  0  0  0  0
M  END
> <PUBCHEM_COMPOUND_CID>
26761807

> <PUBCHEM_CONFORMER_RMSD>
0.8

> <PUBCHEM_CONFORMER_DIVERSEORDER>
1
12
54
60
21
51
41
56
65
43
52
66
38
61
55
59
50
18
22
53
64
58
48
63
46
67
6
19
23
30
15
34
14
47
49
17
10
62
57
33
2
39
11
26
31
36
32
16
35
24
7
45
25
44
8
37
4
40
3
9
42
13
29
5
20
27
28

> <PUBCHEM_MMFF94_PARTIAL_CHARGES>
32
1 -0.43
10 0.41
11 -0.33
12 0.05
13 -0.14
14 0.66
16 0.04
17 -0.15
19 0.08
2 -0.57
20 -0.15
21 -0.15
22 -0.15
23 -0.15
24 -0.15
25 0.28
26 0.28
3 -0.36
34 0.27
35 0.15
36 0.15
37 0.15
38 0.15
39 0.15
4 -0.81
40 0.15
41 0.15
5 0.03
6 -0.57
7 0.33
8 0.18
9 0.45

> <PUBCHEM_EFFECTIVE_ROTOR_COUNT>
5.8

> <PUBCHEM_PHARMACOPHORE_FEATURES>
9
1 2 acceptor
1 3 acceptor
1 4 cation
1 5 donor
3 5 6 16 cation
5 5 6 11 12 16 rings
6 13 15 17 18 19 20 rings
6 15 18 21 22 23 24 rings
6 4 7 8 9 11 12 rings

> <PUBCHEM_HEAVY_ATOM_COUNT>
26

> <PUBCHEM_ATOM_DEF_STEREO_COUNT>
1

> <PUBCHEM_ATOM_UDEF_STEREO_COUNT>
0

> <PUBCHEM_BOND_DEF_STEREO_COUNT>
0

> <PUBCHEM_BOND_UDEF_STEREO_COUNT>
0

> <PUBCHEM_ISOTOPIC_ATOM_COUNT>
0

> <PUBCHEM_COMPONENT_COUNT>
1

> <PUBCHEM_CACTVS_TAUTO_COUNT>
2

> <PUBCHEM_CONFORMER_ID>
01985A4F00000001

> <PUBCHEM_MMFF94_ENERGY>
84.6353

> <PUBCHEM_FEATURE_SELFOVERLAP>
45.796

> <PUBCHEM_SHAPE_FINGERPRINT>
10616163 171 18268715085167086693
10940486 97 18411984667840766166
11405975 8 18271810077561232395
12107698 1 18411136939664213995
12403259 226 18272923917179023273
12403260 363 18412259528177456775
12422481 6 18129123172908316155
12633257 1 18268719315789306333
12788726 201 18271814583383040817
13009979 54 18272378529315363184
13224815 77 17846219985562310939
13533116 47 18340201994321779507
13583140 156 17202743969644777800
14117953 113 18121497952174526357
14347332 77 18342171168418774831
15196674 1 18413668006888314531
15420108 30 17404583273350420457
15442244 35 18410857633692960472
17349148 13 18343860009113889731
17492 89 18411419535574680347
17818456 19 18129665175335706496
17844677 252 18408326592486265443
1813 80 18040995099390447116
20600515 1 17984991392957102940
20691752 17 17603304834525345184
20715895 44 18195804073303146941
21033648 29 17983844597507248233
21792934 111 18343293778818200635
23402539 116 18269828722979371855
23557571 272 18060701714587356913
23558518 356 18335711567395808603
23559900 14 18130219359619507514
3004659 81 18409724092949809323
312423 11 18409459102226074099
335352 9 18268993077273570989
340366 18 18337114453859416709
350125 39 18341898472138698963
4214541 1 18271241617022507691
4280585 95 18126021373254848454
474 4 17823415083647411584
5104073 3 18201997707589430059
5281201 14 18408885148345043751
59554788 191 18271526403292598103
633830 44 17967254178345477049
67856867 119 18340200890562663920
7164475 11 18341047497241028665
9709674 26 18411701014772317107
9971528 1 18337950100298167928
9981440 41 17830457546092223080

> <PUBCHEM_SHAPE_MULTIPOLES>
502.52
10.81
3.85
1.12
3.93
2.06
0.06
-5.05
0.6
-1.08
1.28
-0.61
0.42
-1.33

> <PUBCHEM_SHAPE_SELFOVERLAP>
1104.662

> <PUBCHEM_SHAPE_VOLUME>
271.6

> <PUBCHEM_COORDINATE_TYPE>
2
5
10

$$$$
