51137740
  -OEChem-12032416243D

 43 46  0     1  0  0  0  0  0999 V2000
   -3.6210    0.2358    1.1828 S   0  0  0  0  0  0  0  0  0  0  0  0
    1.0731    1.8064   -0.1064 O   0  0  0  0  0  0  0  0  0  0  0  0
   -4.9259   -0.2165    0.7353 O   0  0  0  0  0  0  0  0  0  0  0  0
   -3.3823    0.5124    2.5879 O   0  0  0  0  0  0  0  0  0  0  0  0
   -3.1318    1.5658    0.2541 N   0  0  1  0  0  0  0  0  0  0  0  0
    0.1985    0.9932   -1.9980 N   0  0  0  0  0  0  0  0  0  0  0  0
    1.4495    0.4298   -1.8292 N   0  0  0  0  0  0  0  0  0  0  0  0
    1.1707   -4.6412   -0.8998 N   0  0  0  0  0  0  0  0  0  0  0  0
   -1.1667    2.6700   -0.6218 C   0  0  1  0  0  0  0  0  0  0  0  0
   -2.2612    2.5928   -1.6884 C   0  0  0  0  0  0  0  0  0  0  0  0
   -1.9242    2.3355    0.6740 C   0  0  0  0  0  0  0  0  0  0  0  0
   -3.1396    1.4403   -1.2233 C   0  0  0  0  0  0  0  0  0  0  0  0
    0.0208    1.7892   -0.9696 C   0  0  0  0  0  0  0  0  0  0  0  0
   -2.4358   -0.9707    0.6679 C   0  0  0  0  0  0  0  0  0  0  0  0
   -1.2277   -1.0986    1.3533 C   0  0  0  0  0  0  0  0  0  0  0  0
   -2.7090   -1.7948   -0.4238 C   0  0  0  0  0  0  0  0  0  0  0  0
    1.9227    0.9330   -0.7131 C   0  0  0  0  0  0  0  0  0  0  0  0
   -0.2929   -2.0506    0.9470 C   0  0  0  0  0  0  0  0  0  0  0  0
   -1.7740   -2.7468   -0.8302 C   0  0  0  0  0  0  0  0  0  0  0  0
    3.1727    0.7084   -0.0468 C   0  0  0  0  0  0  0  0  0  0  0  0
   -0.5661   -2.8748   -0.1447 C   0  0  0  0  0  0  0  0  0  0  0  0
    4.1066   -0.1711   -0.5942 C   0  0  0  0  0  0  0  0  0  0  0  0
    3.4544    1.3694    1.1487 C   0  0  0  0  0  0  0  0  0  0  0  0
    5.3224   -0.3898    0.0538 C   0  0  0  0  0  0  0  0  0  0  0  0
    4.6702    1.1511    1.7966 C   0  0  0  0  0  0  0  0  0  0  0  0
    0.3924   -3.8497   -0.5614 C   0  0  0  0  0  0  0  0  0  0  0  0
    5.6041    0.2713    1.2492 C   0  0  0  0  0  0  0  0  0  0  0  0
   -0.7753    3.6937   -0.5645 H   0  0  0  0  0  0  0  0  0  0  0  0
   -2.8472    3.5211   -1.6713 H   0  0  0  0  0  0  0  0  0  0  0  0
   -1.8958    2.4528   -2.7104 H   0  0  0  0  0  0  0  0  0  0  0  0
   -1.2976    1.7950    1.3865 H   0  0  0  0  0  0  0  0  0  0  0  0
   -2.2768    3.2552    1.1547 H   0  0  0  0  0  0  0  0  0  0  0  0
   -2.7035    0.5056   -1.5725 H   0  0  0  0  0  0  0  0  0  0  0  0
   -4.1565    1.5340   -1.6138 H   0  0  0  0  0  0  0  0  0  0  0  0
   -0.9924   -0.4689    2.2063 H   0  0  0  0  0  0  0  0  0  0  0  0
   -3.6436   -1.7147   -0.9718 H   0  0  0  0  0  0  0  0  0  0  0  0
    0.6453   -2.1370    1.4901 H   0  0  0  0  0  0  0  0  0  0  0  0
   -2.0012   -3.3818   -1.6831 H   0  0  0  0  0  0  0  0  0  0  0  0
    3.9081   -0.6977   -1.5247 H   0  0  0  0  0  0  0  0  0  0  0  0
    2.7522    2.0614    1.6065 H   0  0  0  0  0  0  0  0  0  0  0  0
    6.0496   -1.0748   -0.3721 H   0  0  0  0  0  0  0  0  0  0  0  0
    4.8901    1.6655    2.7276 H   0  0  0  0  0  0  0  0  0  0  0  0
    6.5506    0.1012    1.7539 H   0  0  0  0  0  0  0  0  0  0  0  0
  1  3  2  0  0  0  0
  1  4  2  0  0  0  0
  1  5  1  0  0  0  0
  1 14  1  0  0  0  0
  2 13  1  0  0  0  0
  2 17  1  0  0  0  0
  5 11  1  0  0  0  0
  5 12  1  0  0  0  0
  6  7  1  0  0  0  0
  6 13  2  0  0  0  0
  7 17  2  0  0  0  0
  8 26  3  0  0  0  0
  9 10  1  0  0  0  0
  9 11  1  0  0  0  0
  9 13  1  0  0  0  0
  9 28  1  0  0  0  0
 10 12  1  0  0  0  0
 10 29  1  0  0  0  0
 10 30  1  0  0  0  0
 11 31  1  0  0  0  0
 11 32  1  0  0  0  0
 12 33  1  0  0  0  0
 12 34  1  0  0  0  0
 14 15  2  0  0  0  0
 14 16  1  0  0  0  0
 15 18  1  0  0  0  0
 15 35  1  0  0  0  0
 16 19  2  0  0  0  0
 16 36  1  0  0  0  0
 17 20  1  0  0  0  0
 18 21  2  0  0  0  0
 18 37  1  0  0  0  0
 19 21  1  0  0  0  0
 19 38  1  0  0  0  0
 20 22  2  0  0  0  0
 20 23  1  0  0  0  0
 21 26  1  0  0  0  0
 22 24  1  0  0  0  0
 22 39  1  0  0  0  0
 23 25  2  0  0  0  0
 23 40  1  0  0  0  0
 24 27  2  0  0  0  0
 24 41  1  0  0  0  0
 25 27  1  0  0  0  0
 25 42  1  0  0  0  0
 27 43  1  0  0  0  0
M  END
> <PUBCHEM_COMPOUND_CID>
51137740

> <PUBCHEM_CONFORMER_RMSD>
0.8

> <PUBCHEM_CONFORMER_DIVERSEORDER>
1
39
4
47
25
5
69
45
50
11
58
76
17
24
77
26
15
72
61
75
10
67
41
59
68
22
18
62
55
27
52
35
6
16
48
66
57
74
71
44
60
3
56
70
42
12
13
73
33
46
51
34
37
31
49
30
14
19
28
63
54
43
20
29
40
2
36
38
9
8
53
23
65
64
32
21
7

> <PUBCHEM_MMFF94_PARTIAL_CHARGES>
35
1 1.45
11 0.36
12 0.36
13 0.3
14 -0.01
15 -0.15
16 -0.15
17 0.43
18 -0.15
19 -0.15
2 -0.28
20 0.05
21 0.07
22 -0.15
23 -0.15
24 -0.15
25 -0.15
26 0.48
27 -0.15
3 -0.65
35 0.15
36 0.15
37 0.15
38 0.15
39 0.15
4 -0.65
40 0.15
41 0.15
42 0.15
43 0.15
5 -0.85
6 -0.34
7 -0.34
8 -0.56
9 0.18

> <PUBCHEM_EFFECTIVE_ROTOR_COUNT>
5

> <PUBCHEM_PHARMACOPHORE_FEATURES>
7
1 3 acceptor
1 4 acceptor
1 8 acceptor
5 2 6 7 13 17 rings
5 5 9 10 11 12 rings
6 14 15 16 18 19 21 rings
6 20 22 23 24 25 27 rings

> <PUBCHEM_HEAVY_ATOM_COUNT>
27

> <PUBCHEM_ATOM_DEF_STEREO_COUNT>
1

> <PUBCHEM_ATOM_UDEF_STEREO_COUNT>
0

> <PUBCHEM_BOND_DEF_STEREO_COUNT>
0

> <PUBCHEM_BOND_UDEF_STEREO_COUNT>
0

> <PUBCHEM_ISOTOPIC_ATOM_COUNT>
0

> <PUBCHEM_COMPONENT_COUNT>
1

> <PUBCHEM_CACTVS_TAUTO_COUNT>
1

> <PUBCHEM_CONFORMER_ID>
030C4CCC00000001

> <PUBCHEM_MMFF94_ENERGY>
45.3361

> <PUBCHEM_FEATURE_SELFOVERLAP>
35.541

> <PUBCHEM_SHAPE_FINGERPRINT>
11014199 57 17689716785261978218
11370993 144 17846506915548576536
11370993 70 18130788979799661770
11552529 35 17843961683532110312
12156800 1 17265473354388298063
12422481 6 18116737143945198585
12597179 24 17389924687661372741
12633257 1 18272378619457097880
13004483 165 18047738588454628804
13583140 156 15913049867363129298
13726171 33 17535512250344882620
14081887 123 18341041991277740616
14251757 5 18264505042955730662
14840074 17 18260271875332255312
16728300 4 17677033664747085955
20028762 73 18271525403019048439
20261772 1 18261114088507347120
20905425 154 18046646516063845655
21033648 29 18270101453756836856
22182313 1 17970922050815791333
23559900 14 18119535336718691980
23728640 28 18334290998103625083
238918 7 18410854318147513198
3027735 51 18339906182633589055
3459 110 18051956298438877352
35225 105 17913172538411822594
484985 159 18044347570331277350
5265222 85 18264226785189184334
602551 16 18410852192502191816
9862522 239 18261664892060997071

> <PUBCHEM_SHAPE_MULTIPOLES>
521.96
9.06
4.2
1.8
10.66
4.65
-0.3
-2.54
-4.09
-1.74
1.7
-0.44
-0.56
0.9

> <PUBCHEM_SHAPE_SELFOVERLAP>
1126.555

> <PUBCHEM_SHAPE_VOLUME>
286.9

> <PUBCHEM_COORDINATE_TYPE>
2
5
10

$$$$
