11941436
  -OEChem-12032416133D

 63 67  0     1  0  0  0  0  0999 V2000
    5.0594   -0.8977    1.1702 O   0  0  0  0  0  0  0  0  0  0  0  0
    3.2483    3.1916    1.6272 O   0  0  0  0  0  0  0  0  0  0  0  0
   -0.0754    2.2033   -2.3395 O   0  0  0  0  0  0  0  0  0  0  0  0
   -2.9262   -2.0566    0.7899 O   0  0  0  0  0  0  0  0  0  0  0  0
   -7.4275   -1.7219   -0.7236 O   0  0  0  0  0  0  0  0  0  0  0  0
    1.8332    1.9570   -1.0804 N   0  0  0  0  0  0  0  0  0  0  0  0
    4.2636   -0.0067   -0.8277 N   0  0  0  0  0  0  0  0  0  0  0  0
    1.0410    2.6319    1.6714 N   0  0  0  0  0  0  0  0  0  0  0  0
    3.9955    1.3320   -0.3542 C   0  0  2  0  0  0  0  0  0  0  0  0
    2.5342    1.4730    0.0943 C   0  0  1  0  0  0  0  0  0  0  0  0
    4.1212    2.3547   -1.4853 C   0  0  0  0  0  0  0  0  0  0  0  0
    4.9327   -2.3042   -0.7537 C   0  0  0  0  0  0  0  0  0  0  0  0
    2.7542    2.3135   -2.1499 C   0  0  0  0  0  0  0  0  0  0  0  0
    3.6591   -3.1473   -0.6246 C   0  0  0  0  0  0  0  0  0  0  0  0
    6.0608   -3.1366   -0.1422 C   0  0  0  0  0  0  0  0  0  0  0  0
    4.1017   -4.4826   -0.0355 C   0  0  0  0  0  0  0  0  0  0  0  0
    5.3535   -4.1436    0.7534 C   0  0  0  0  0  0  0  0  0  0  0  0
    4.7743   -1.0078   -0.0194 C   0  0  0  0  0  0  0  0  0  0  0  0
    2.3187    2.5293    1.1623 C   0  0  0  0  0  0  0  0  0  0  0  0
    0.4678    1.9362   -1.2677 C   0  0  0  0  0  0  0  0  0  0  0  0
   -0.3931    1.5963   -0.1050 C   0  0  0  0  0  0  0  0  0  0  0  0
   -0.1408    2.0091    1.2145 C   0  0  0  0  0  0  0  0  0  0  0  0
   -1.6125    0.9646   -0.4105 C   0  0  0  0  0  0  0  0  0  0  0  0
   -1.1461    1.8374    2.1823 C   0  0  0  0  0  0  0  0  0  0  0  0
   -2.5785    0.7603    0.5735 C   0  0  0  0  0  0  0  0  0  0  0  0
   -2.3505    1.2084    1.8682 C   0  0  0  0  0  0  0  0  0  0  0  0
   -3.8249    0.1046    0.2422 C   0  0  0  0  0  0  0  0  0  0  0  0
   -3.9611   -1.2799    0.3597 C   0  0  0  0  0  0  0  0  0  0  0  0
   -4.9028    0.8735   -0.2006 C   0  0  0  0  0  0  0  0  0  0  0  0
   -5.1712   -1.8935    0.0353 C   0  0  0  0  0  0  0  0  0  0  0  0
   -6.1127    0.2600   -0.5249 C   0  0  0  0  0  0  0  0  0  0  0  0
   -6.2469   -1.1235   -0.4070 C   0  0  0  0  0  0  0  0  0  0  0  0
   -3.1631   -3.4598    0.8766 C   0  0  0  0  0  0  0  0  0  0  0  0
   -8.4860   -0.8751   -1.1692 C   0  0  0  0  0  0  0  0  0  0  0  0
    4.7074    1.5487    0.4493 H   0  0  0  0  0  0  0  0  0  0  0  0
    2.1109    0.5212    0.4369 H   0  0  0  0  0  0  0  0  0  0  0  0
    4.2897    3.3526   -1.0622 H   0  0  0  0  0  0  0  0  0  0  0  0
    4.9318    2.1425   -2.1889 H   0  0  0  0  0  0  0  0  0  0  0  0
    5.1635   -2.1012   -1.8065 H   0  0  0  0  0  0  0  0  0  0  0  0
    2.4664    3.2677   -2.6015 H   0  0  0  0  0  0  0  0  0  0  0  0
    2.6991    1.5328   -2.9169 H   0  0  0  0  0  0  0  0  0  0  0  0
    3.1764   -3.2945   -1.5967 H   0  0  0  0  0  0  0  0  0  0  0  0
    2.9207   -2.6737    0.0338 H   0  0  0  0  0  0  0  0  0  0  0  0
    6.5856   -3.6754   -0.9415 H   0  0  0  0  0  0  0  0  0  0  0  0
    6.8110   -2.5567    0.4044 H   0  0  0  0  0  0  0  0  0  0  0  0
    4.0026   -0.2325   -1.7834 H   0  0  0  0  0  0  0  0  0  0  0  0
    3.3263   -4.9385    0.5868 H   0  0  0  0  0  0  0  0  0  0  0  0
    4.3442   -5.1843   -0.8426 H   0  0  0  0  0  0  0  0  0  0  0  0
    5.9696   -5.0249    0.9532 H   0  0  0  0  0  0  0  0  0  0  0  0
    5.0879   -3.6851    1.7129 H   0  0  0  0  0  0  0  0  0  0  0  0
    0.9577    3.1612    2.5362 H   0  0  0  0  0  0  0  0  0  0  0  0
   -1.8172    0.6403   -1.4301 H   0  0  0  0  0  0  0  0  0  0  0  0
   -0.9879    2.1708    3.2063 H   0  0  0  0  0  0  0  0  0  0  0  0
   -3.0961    1.0746    2.6482 H   0  0  0  0  0  0  0  0  0  0  0  0
   -4.8157    1.9534   -0.2984 H   0  0  0  0  0  0  0  0  0  0  0  0
   -5.3465   -2.9619    0.1029 H   0  0  0  0  0  0  0  0  0  0  0  0
   -6.9070    0.9172   -0.8619 H   0  0  0  0  0  0  0  0  0  0  0  0
   -2.2358   -3.9198    1.2342 H   0  0  0  0  0  0  0  0  0  0  0  0
   -3.9368   -3.6954    1.6154 H   0  0  0  0  0  0  0  0  0  0  0  0
   -3.3729   -3.8968   -0.1057 H   0  0  0  0  0  0  0  0  0  0  0  0
   -9.3482   -1.5174   -1.3763 H   0  0  0  0  0  0  0  0  0  0  0  0
   -8.2302   -0.3711   -2.1073 H   0  0  0  0  0  0  0  0  0  0  0  0
   -8.7927   -0.1700   -0.3891 H   0  0  0  0  0  0  0  0  0  0  0  0
  1 18  2  0  0  0  0
  2 19  2  0  0  0  0
  3 20  2  0  0  0  0
  4 28  1  0  0  0  0
  4 33  1  0  0  0  0
  5 32  1  0  0  0  0
  5 34  1  0  0  0  0
  6 10  1  0  0  0  0
  6 13  1  0  0  0  0
  6 20  1  0  0  0  0
  7  9  1  0  0  0  0
  7 18  1  0  0  0  0
  7 46  1  0  0  0  0
  8 19  1  0  0  0  0
  8 22  1  0  0  0  0
  8 51  1  0  0  0  0
  9 10  1  0  0  0  0
  9 11  1  0  0  0  0
  9 35  1  0  0  0  0
 10 19  1  0  0  0  0
 10 36  1  0  0  0  0
 11 13  1  0  0  0  0
 11 37  1  0  0  0  0
 11 38  1  0  0  0  0
 12 14  1  0  0  0  0
 12 15  1  0  0  0  0
 12 18  1  0  0  0  0
 12 39  1  0  0  0  0
 13 40  1  0  0  0  0
 13 41  1  0  0  0  0
 14 16  1  0  0  0  0
 14 42  1  0  0  0  0
 14 43  1  0  0  0  0
 15 17  1  0  0  0  0
 15 44  1  0  0  0  0
 15 45  1  0  0  0  0
 16 17  1  0  0  0  0
 16 47  1  0  0  0  0
 16 48  1  0  0  0  0
 17 49  1  0  0  0  0
 17 50  1  0  0  0  0
 20 21  1  0  0  0  0
 21 22  2  0  0  0  0
 21 23  1  0  0  0  0
 22 24  1  0  0  0  0
 23 25  2  0  0  0  0
 23 52  1  0  0  0  0
 24 26  2  0  0  0  0
 24 53  1  0  0  0  0
 25 26  1  0  0  0  0
 25 27  1  0  0  0  0
 26 54  1  0  0  0  0
 27 28  2  0  0  0  0
 27 29  1  0  0  0  0
 28 30  1  0  0  0  0
 29 31  2  0  0  0  0
 29 55  1  0  0  0  0
 30 32  2  0  0  0  0
 30 56  1  0  0  0  0
 31 32  1  0  0  0  0
 31 57  1  0  0  0  0
 33 58  1  0  0  0  0
 33 59  1  0  0  0  0
 33 60  1  0  0  0  0
 34 61  1  0  0  0  0
 34 62  1  0  0  0  0
 34 63  1  0  0  0  0
M  END
> <PUBCHEM_COMPOUND_CID>
11941436

> <PUBCHEM_CONFORMER_RMSD>
1

> <PUBCHEM_CONFORMER_DIVERSEORDER>
1
9
18
3
13
12
4
11
2
7
8
14
10
20
6
5
15
19
17
22
16
21

> <PUBCHEM_MMFF94_PARTIAL_CHARGES>
35
1 -0.57
10 0.36
12 0.06
13 0.3
18 0.57
19 0.57
2 -0.57
20 0.54
21 0.09
22 0.12
23 -0.15
24 -0.15
26 -0.15
28 0.08
29 -0.15
3 -0.57
30 -0.15
31 -0.15
32 0.08
33 0.28
34 0.28
4 -0.36
46 0.37
5 -0.36
51 0.37
52 0.15
53 0.15
54 0.15
55 0.15
56 0.15
57 0.15
6 -0.66
7 -0.73
8 -0.55
9 0.3

> <PUBCHEM_EFFECTIVE_ROTOR_COUNT>
7.8

> <PUBCHEM_PHARMACOPHORE_FEATURES>
12
1 1 acceptor
1 2 acceptor
1 3 acceptor
1 4 acceptor
1 5 acceptor
1 7 donor
1 8 donor
5 12 14 15 16 17 rings
5 6 9 10 11 13 rings
6 21 22 23 24 25 26 rings
6 27 28 29 30 31 32 rings
7 6 8 10 19 20 21 22 rings

> <PUBCHEM_HEAVY_ATOM_COUNT>
34

> <PUBCHEM_ATOM_DEF_STEREO_COUNT>
2

> <PUBCHEM_ATOM_UDEF_STEREO_COUNT>
0

> <PUBCHEM_BOND_DEF_STEREO_COUNT>
0

> <PUBCHEM_BOND_UDEF_STEREO_COUNT>
0

> <PUBCHEM_ISOTOPIC_ATOM_COUNT>
0

> <PUBCHEM_COMPONENT_COUNT>
1

> <PUBCHEM_CACTVS_TAUTO_COUNT>
6

> <PUBCHEM_CONFORMER_ID>
00B6363C00000001

> <PUBCHEM_MMFF94_ENERGY>
128.9531

> <PUBCHEM_FEATURE_SELFOVERLAP>
60.958

> <PUBCHEM_SHAPE_FINGERPRINT>
117089 54 18127419951745361454
13533116 47 18342459265781121753
13782708 43 18412822504396223173
14068700 675 18269834224790423266
14739800 52 10807942552204111716
14910302 57 18261666065088560349
15183329 4 18040714805572265853
15320291 9 18265340684404806362
15475509 35 18273208720723694168
15475509 8 17458627757717344645
15803439 3 17102887561278012652
16728300 4 18129938958500678807
19301676 85 18262239919991300971
19315092 285 18131635569308726816
19319366 153 18126850619622966876
19841028 212 18338796719777753314
19958102 18 18335134315681112191
20775530 9 18337394842678919274
21315764 119 18259982708781299965
21703447 108 18060136574417640032
23559900 14 18334856147576108931
23569943 247 18341331111892863515
25222932 49 17629760342619978244
25269216 80 16154568634649732419
3004659 81 18334574654902551640
32027 91 18411693257981927921
3729539 64 18412545423229468211
376196 1 15868598957410655612
3886686 26 16981263621386032354
397830 11 9943518661837860493
404807 14 17903642878161682931
437795 70 17096086862041906189
463206 1 18338812100134365754
474113 269 17989199314398491079
484985 159 17545884828851338832
5104073 3 17275111639073968561
6201320 221 18129362853463805287
6695519 79 17401235724237228232
6697151 62 17773857758137734233
7970288 3 18124316013382237282

> <PUBCHEM_SHAPE_MULTIPOLES>
655.41
17.54
5.17
1.71
20.53
4.31
0.06
17.65
-4.63
-8.5
0.59
-0.36
-1.58
-0.99

> <PUBCHEM_SHAPE_SELFOVERLAP>
1435.44

> <PUBCHEM_SHAPE_VOLUME>
354

> <PUBCHEM_COORDINATE_TYPE>
2
5
10

$$$$
