45783592
  -OEChem-12032416363D

 65 70  0     1  0  0  0  0  0999 V2000
   -4.5172   -1.3765   -0.6473 O   0  0  0  0  0  0  0  0  0  0  0  0
    3.0056   -2.3954   -1.1038 O   0  0  0  0  0  0  0  0  0  0  0  0
    4.2330    0.1225    1.2751 N   0  0  1  0  0  0  0  0  0  0  0  0
    1.9413    1.9915   -2.1625 N   0  0  0  0  0  0  0  0  0  0  0  0
    1.7386   -1.1973    0.3018 N   0  0  0  0  0  0  0  0  0  0  0  0
    1.6801   -2.5907   -1.5117 N   0  0  0  0  0  0  0  0  0  0  0  0
   -2.4628   -0.8388    0.2864 N   0  0  0  0  0  0  0  0  0  0  0  0
    4.2744   -1.1920    0.6038 C   0  0  1  0  0  0  0  0  0  0  0  0
    4.7040   -2.1799    1.7041 C   0  0  0  0  0  0  0  0  0  0  0  0
    5.2013    0.0580    2.3700 C   0  0  0  0  0  0  0  0  0  0  0  0
    4.9398   -1.3219    2.9390 C   0  0  0  0  0  0  0  0  0  0  0  0
    4.4979    1.2365    0.3739 C   0  0  0  0  0  0  0  0  0  0  0  0
    2.9506   -1.5634   -0.0309 C   0  0  0  0  0  0  0  0  0  0  0  0
   -5.0681   -0.5462    0.3693 C   0  0  0  0  0  0  0  0  0  0  0  0
   -5.1312    0.8980   -0.1264 C   0  0  0  0  0  0  0  0  0  0  0  0
   -6.4494   -1.0665    0.7640 C   0  0  0  0  0  0  0  0  0  0  0  0
    3.2839    1.6012   -0.4386 C   0  0  0  0  0  0  0  0  0  0  0  0
   -5.8050    1.8120    0.8919 C   0  0  0  0  0  0  0  0  0  0  0  0
   -7.1233   -0.1527    1.7824 C   0  0  0  0  0  0  0  0  0  0  0  0
   -7.1844    1.2909    1.2882 C   0  0  0  0  0  0  0  0  0  0  0  0
    2.0155    2.0014    0.0672 C   0  0  0  0  0  0  0  0  0  0  0  0
    3.2070    1.6048   -1.8123 C   0  0  0  0  0  0  0  0  0  0  0  0
    1.1917    2.2402   -1.0350 C   0  0  0  0  0  0  0  0  0  0  0  0
    0.9933   -1.8524   -0.6349 C   0  0  0  0  0  0  0  0  0  0  0  0
    1.4874    2.1840    1.3606 C   0  0  0  0  0  0  0  0  0  0  0  0
   -0.1391    2.6542   -0.9076 C   0  0  0  0  0  0  0  0  0  0  0  0
   -3.1540   -1.5084   -0.6631 C   0  0  0  0  0  0  0  0  0  0  0  0
    1.4748    2.1158   -3.5266 C   0  0  0  0  0  0  0  0  0  0  0  0
   -0.4359   -1.7494   -0.6660 C   0  0  0  0  0  0  0  0  0  0  0  0
    0.1580    2.5977    1.5033 C   0  0  0  0  0  0  0  0  0  0  0  0
   -0.6410    2.8286    0.3852 C   0  0  0  0  0  0  0  0  0  0  0  0
   -2.5670   -2.3056   -1.6325 C   0  0  0  0  0  0  0  0  0  0  0  0
   -1.1815   -2.4232   -1.6271 C   0  0  0  0  0  0  0  0  0  0  0  0
   -1.1182   -0.9770    0.2600 C   0  0  0  0  0  0  0  0  0  0  0  0
    5.0488   -1.2064   -0.1761 H   0  0  0  0  0  0  0  0  0  0  0  0
    3.9654   -2.9624    1.9093 H   0  0  0  0  0  0  0  0  0  0  0  0
    5.6414   -2.6699    1.4138 H   0  0  0  0  0  0  0  0  0  0  0  0
    5.0317    0.8396    3.1170 H   0  0  0  0  0  0  0  0  0  0  0  0
    6.2338    0.1299    2.0052 H   0  0  0  0  0  0  0  0  0  0  0  0
    4.0384   -1.3133    3.5644 H   0  0  0  0  0  0  0  0  0  0  0  0
    5.7718   -1.6903    3.5461 H   0  0  0  0  0  0  0  0  0  0  0  0
    4.7523    2.1311    0.9596 H   0  0  0  0  0  0  0  0  0  0  0  0
    5.3620    1.0439   -0.2751 H   0  0  0  0  0  0  0  0  0  0  0  0
   -4.4734   -0.5892    1.2923 H   0  0  0  0  0  0  0  0  0  0  0  0
   -5.6768    0.9357   -1.0783 H   0  0  0  0  0  0  0  0  0  0  0  0
   -4.1258    1.2744   -0.3480 H   0  0  0  0  0  0  0  0  0  0  0  0
   -6.3623   -2.0821    1.1687 H   0  0  0  0  0  0  0  0  0  0  0  0
   -7.0788   -1.1566   -0.1309 H   0  0  0  0  0  0  0  0  0  0  0  0
   -5.1736    1.8905    1.7855 H   0  0  0  0  0  0  0  0  0  0  0  0
   -5.8979    2.8218    0.4767 H   0  0  0  0  0  0  0  0  0  0  0  0
   -8.1368   -0.5146    1.9889 H   0  0  0  0  0  0  0  0  0  0  0  0
   -6.5713   -0.1909    2.7295 H   0  0  0  0  0  0  0  0  0  0  0  0
   -7.6093    1.9304    2.0701 H   0  0  0  0  0  0  0  0  0  0  0  0
   -7.8580    1.3514    0.4245 H   0  0  0  0  0  0  0  0  0  0  0  0
    3.9476    1.3628   -2.5632 H   0  0  0  0  0  0  0  0  0  0  0  0
    2.0951    2.0109    2.2441 H   0  0  0  0  0  0  0  0  0  0  0  0
   -0.7670    2.8337   -1.7738 H   0  0  0  0  0  0  0  0  0  0  0  0
    2.2833    1.8606   -4.2164 H   0  0  0  0  0  0  0  0  0  0  0  0
    1.1604    3.1495   -3.6910 H   0  0  0  0  0  0  0  0  0  0  0  0
    0.6372    1.4278   -3.6677 H   0  0  0  0  0  0  0  0  0  0  0  0
   -0.2550    2.7390    2.4985 H   0  0  0  0  0  0  0  0  0  0  0  0
   -1.6718    3.1469    0.5191 H   0  0  0  0  0  0  0  0  0  0  0  0
   -3.1633   -2.8243   -2.3752 H   0  0  0  0  0  0  0  0  0  0  0  0
   -0.7159   -3.0473   -2.3854 H   0  0  0  0  0  0  0  0  0  0  0  0
   -0.6069   -0.4301    1.0458 H   0  0  0  0  0  0  0  0  0  0  0  0
  1 14  1  0  0  0  0
  1 27  1  0  0  0  0
  2  6  1  0  0  0  0
  2 13  1  0  0  0  0
  3  8  1  0  0  0  0
  3 10  1  0  0  0  0
  3 12  1  0  0  0  0
  4 22  1  0  0  0  0
  4 23  1  0  0  0  0
  4 28  1  0  0  0  0
  5 13  2  0  0  0  0
  5 24  1  0  0  0  0
  6 24  2  0  0  0  0
  7 27  2  0  0  0  0
  7 34  1  0  0  0  0
  8  9  1  0  0  0  0
  8 13  1  0  0  0  0
  8 35  1  0  0  0  0
  9 11  1  0  0  0  0
  9 36  1  0  0  0  0
  9 37  1  0  0  0  0
 10 11  1  0  0  0  0
 10 38  1  0  0  0  0
 10 39  1  0  0  0  0
 11 40  1  0  0  0  0
 11 41  1  0  0  0  0
 12 17  1  0  0  0  0
 12 42  1  0  0  0  0
 12 43  1  0  0  0  0
 14 15  1  0  0  0  0
 14 16  1  0  0  0  0
 14 44  1  0  0  0  0
 15 18  1  0  0  0  0
 15 45  1  0  0  0  0
 15 46  1  0  0  0  0
 16 19  1  0  0  0  0
 16 47  1  0  0  0  0
 16 48  1  0  0  0  0
 17 21  1  0  0  0  0
 17 22  2  0  0  0  0
 18 20  1  0  0  0  0
 18 49  1  0  0  0  0
 18 50  1  0  0  0  0
 19 20  1  0  0  0  0
 19 51  1  0  0  0  0
 19 52  1  0  0  0  0
 20 53  1  0  0  0  0
 20 54  1  0  0  0  0
 21 23  1  0  0  0  0
 21 25  2  0  0  0  0
 22 55  1  0  0  0  0
 23 26  2  0  0  0  0
 24 29  1  0  0  0  0
 25 30  1  0  0  0  0
 25 56  1  0  0  0  0
 26 31  1  0  0  0  0
 26 57  1  0  0  0  0
 27 32  1  0  0  0  0
 28 58  1  0  0  0  0
 28 59  1  0  0  0  0
 28 60  1  0  0  0  0
 29 33  1  0  0  0  0
 29 34  2  0  0  0  0
 30 31  2  0  0  0  0
 30 61  1  0  0  0  0
 31 62  1  0  0  0  0
 32 33  2  0  0  0  0
 32 63  1  0  0  0  0
 33 64  1  0  0  0  0
 34 65  1  0  0  0  0
M  END
> <PUBCHEM_COMPOUND_CID>
45783592

> <PUBCHEM_CONFORMER_RMSD>
1.2

> <PUBCHEM_CONFORMER_DIVERSEORDER>
1
59
11
60
107
43
46
93
23
6
102
84
72
48
4
29
71
91
33
104
77
34
51
19
117
50
115
69
120
111
127
5
20
44
75
17
12
85
25
80
122
7
45
28
55
42
81
83
79
36
3
64
58
116
56
8
37
94
2
123
32
106
22
68
128
62
74
88
126
87
73
41
76
124
99
113
103
66
129
61
18
63
105
97
39
15
67
49
57
89
109
125
86
92
100
118
38
21
90
65
53
119
96
16
47
24
70
10
98
112
114
121
95
54
108
40
14
52
27
35
13
78
110
30
101
82
9
31
26

> <PUBCHEM_MMFF94_PARTIAL_CHARGES>
34
1 -0.36
10 0.27
12 0.45
13 0.3
14 0.28
17 -0.18
2 -0.02
22 -0.3
23 -0.15
24 0.46
25 -0.15
26 -0.15
27 0.39
28 0.26
29 0.05
3 -0.81
30 -0.15
31 -0.15
32 -0.15
33 -0.15
34 0.16
4 0.05
5 -0.57
55 0.15
56 0.15
57 0.15
6 -0.41
61 0.15
62 0.15
63 0.15
64 0.15
65 0.15
7 -0.62
8 0.45

> <PUBCHEM_EFFECTIVE_ROTOR_COUNT>
8.2

> <PUBCHEM_PHARMACOPHORE_FEATURES>
9
1 3 cation
1 4 cation
3 5 6 24 cation
5 2 5 6 13 24 rings
5 3 8 9 10 11 rings
5 4 17 21 22 23 rings
6 14 15 16 18 19 20 rings
6 21 23 25 26 30 31 rings
6 7 27 29 32 33 34 rings

> <PUBCHEM_HEAVY_ATOM_COUNT>
34

> <PUBCHEM_ATOM_DEF_STEREO_COUNT>
1

> <PUBCHEM_ATOM_UDEF_STEREO_COUNT>
0

> <PUBCHEM_BOND_DEF_STEREO_COUNT>
0

> <PUBCHEM_BOND_UDEF_STEREO_COUNT>
0

> <PUBCHEM_ISOTOPIC_ATOM_COUNT>
0

> <PUBCHEM_COMPONENT_COUNT>
1

> <PUBCHEM_CACTVS_TAUTO_COUNT>
1

> <PUBCHEM_CONFORMER_ID>
02BA9A2800000001

> <PUBCHEM_MMFF94_ENERGY>
60.4981

> <PUBCHEM_FEATURE_SELFOVERLAP>
45.768

> <PUBCHEM_SHAPE_FINGERPRINT>
10190108 129 18187635874846040722
10439779 11 18202001062401960233
10939801 23 18340767156226031048
11545043 162 15864338139314534383
12422481 6 18338223878181839489
13782708 43 16008741407979251851
14020679 6 18260547865995120771
14394314 77 18270395121976778856
14950920 106 17894914070619146603
15183329 4 18272373096703882001
15238133 3 18413111683779488439
15274700 259 18261664872206471509
15420108 30 17698988898188551174
15840311 113 17345761777124824931
17809404 112 16199878378974043575
17980427 23 17774422993050174007
1979834 28 18202568354002860615
21304253 335 18131347505556855983
21421861 104 18408037425296785660
22149856 69 17845675702645346571
23559900 14 16557927730245926925
338550 245 18408611344533780381
3388396 114 16692143118127287901
3680242 22 18410573968093148515
4112364 45 17703504519197314353
4144715 1 18337971021432552731
469060 322 17606124983071350980
513532 50 17060069128673794196
5951187 136 17345765212196847992
6371009 1 18129928109782593119
653340 110 17986957340869287465
8509985 295 18412544348653804368

> <PUBCHEM_SHAPE_MULTIPOLES>
663.06
14.52
3.71
2.48
24.84
0.7
0.5
-1.72
-10.81
-1.49
1.18
-2.49
0.41
-2.65

> <PUBCHEM_SHAPE_SELFOVERLAP>
1453.248

> <PUBCHEM_SHAPE_VOLUME>
359.8

> <PUBCHEM_COORDINATE_TYPE>
2
5
10

$$$$
