11941507
  -OEChem-12032416333D

 39 41  0     1  0  0  0  0  0999 V2000
    6.1320    0.0086   -1.9441 Cl  0  0  0  0  0  0  0  0  0  0  0  0
   -5.9607   -1.2527   -1.3010 S   0  0  0  0  0  0  0  0  0  0  0  0
    0.0553    2.9699    0.7954 O   0  0  0  0  0  0  0  0  0  0  0  0
    1.2961   -2.0071    1.9921 O   0  0  0  0  0  0  0  0  0  0  0  0
   -4.4355    1.4210   -0.8589 O   0  0  0  0  0  0  0  0  0  0  0  0
    0.0005   -0.3057    1.1461 N   0  0  0  0  0  0  0  0  0  0  0  0
   -2.5612    0.0671   -0.6228 N   0  0  0  0  0  0  0  0  0  0  0  0
    1.9063    1.7545    0.2623 N   0  0  0  0  0  0  0  0  0  0  0  0
   -1.8138    0.9288    0.2642 C   0  0  2  0  0  0  0  0  0  0  0  0
   -0.3051    0.6813    0.1273 C   0  0  1  0  0  0  0  0  0  0  0  0
   -2.0984    0.5947    1.7301 C   0  0  0  0  0  0  0  0  0  0  0  0
   -1.1359   -0.5452    2.0239 C   0  0  0  0  0  0  0  0  0  0  0  0
    0.5483    1.8907    0.4617 C   0  0  0  0  0  0  0  0  0  0  0  0
    1.1459   -1.0700    1.2081 C   0  0  0  0  0  0  0  0  0  0  0  0
    2.2674   -0.7260    0.2956 C   0  0  0  0  0  0  0  0  0  0  0  0
    2.6377    0.5863   -0.0440 C   0  0  0  0  0  0  0  0  0  0  0  0
   -3.8167    0.3888   -1.1120 C   0  0  0  0  0  0  0  0  0  0  0  0
    3.0875   -1.7994   -0.0974 C   0  0  0  0  0  0  0  0  0  0  0  0
    3.8565    0.7950   -0.7132 C   0  0  0  0  0  0  0  0  0  0  0  0
   -4.3940   -0.6847   -2.0045 C   0  0  0  0  0  0  0  0  0  0  0  0
    4.2694   -1.5760   -0.8021 C   0  0  0  0  0  0  0  0  0  0  0  0
    4.6606   -0.2771   -1.0992 C   0  0  0  0  0  0  0  0  0  0  0  0
   -5.3422   -1.8427    0.2925 C   0  0  0  0  0  0  0  0  0  0  0  0
   -2.0976    1.9626    0.0407 H   0  0  0  0  0  0  0  0  0  0  0  0
   -0.0335    0.3131   -0.8692 H   0  0  0  0  0  0  0  0  0  0  0  0
   -3.1379    0.3235    1.9349 H   0  0  0  0  0  0  0  0  0  0  0  0
   -1.8426    1.4563    2.3591 H   0  0  0  0  0  0  0  0  0  0  0  0
   -0.8138   -0.5789    3.0689 H   0  0  0  0  0  0  0  0  0  0  0  0
   -1.5679   -1.5166    1.7581 H   0  0  0  0  0  0  0  0  0  0  0  0
   -2.1637   -0.8417   -0.8427 H   0  0  0  0  0  0  0  0  0  0  0  0
    2.4351    2.6236    0.2571 H   0  0  0  0  0  0  0  0  0  0  0  0
    2.8253   -2.8248    0.1547 H   0  0  0  0  0  0  0  0  0  0  0  0
    4.1688    1.8093   -0.9592 H   0  0  0  0  0  0  0  0  0  0  0  0
   -3.7160   -1.5335   -2.1308 H   0  0  0  0  0  0  0  0  0  0  0  0
   -4.5745   -0.2498   -2.9923 H   0  0  0  0  0  0  0  0  0  0  0  0
    4.8830   -2.4249   -1.0924 H   0  0  0  0  0  0  0  0  0  0  0  0
   -6.1388   -2.3967    0.7968 H   0  0  0  0  0  0  0  0  0  0  0  0
   -5.0562   -1.0068    0.9350 H   0  0  0  0  0  0  0  0  0  0  0  0
   -4.4920   -2.5160    0.1547 H   0  0  0  0  0  0  0  0  0  0  0  0
  1 22  1  0  0  0  0
  2 20  1  0  0  0  0
  2 23  1  0  0  0  0
  3 13  2  0  0  0  0
  4 14  2  0  0  0  0
  5 17  2  0  0  0  0
  6 10  1  0  0  0  0
  6 12  1  0  0  0  0
  6 14  1  0  0  0  0
  7  9  1  0  0  0  0
  7 17  1  0  0  0  0
  7 30  1  0  0  0  0
  8 13  1  0  0  0  0
  8 16  1  0  0  0  0
  8 31  1  0  0  0  0
  9 10  1  0  0  0  0
  9 11  1  0  0  0  0
  9 24  1  0  0  0  0
 10 13  1  0  0  0  0
 10 25  1  0  0  0  0
 11 12  1  0  0  0  0
 11 26  1  0  0  0  0
 11 27  1  0  0  0  0
 12 28  1  0  0  0  0
 12 29  1  0  0  0  0
 14 15  1  0  0  0  0
 15 16  2  0  0  0  0
 15 18  1  0  0  0  0
 16 19  1  0  0  0  0
 17 20  1  0  0  0  0
 18 21  2  0  0  0  0
 18 32  1  0  0  0  0
 19 22  2  0  0  0  0
 19 33  1  0  0  0  0
 20 34  1  0  0  0  0
 20 35  1  0  0  0  0
 21 22  1  0  0  0  0
 21 36  1  0  0  0  0
 23 37  1  0  0  0  0
 23 38  1  0  0  0  0
 23 39  1  0  0  0  0
M  END
> <PUBCHEM_COMPOUND_CID>
11941507

> <PUBCHEM_CONFORMER_RMSD>
0.8

> <PUBCHEM_CONFORMER_DIVERSEORDER>
1
14
7
6
11
12
8
4
9
10
3
5
2
13

> <PUBCHEM_MMFF94_PARTIAL_CHARGES>
27
1 -0.18
10 0.36
12 0.3
13 0.57
14 0.54
15 0.09
16 0.12
17 0.57
18 -0.15
19 -0.15
2 -0.46
20 0.29
21 -0.15
22 0.18
23 0.23
3 -0.57
30 0.37
31 0.37
32 0.15
33 0.15
36 0.15
4 -0.57
5 -0.57
6 -0.66
7 -0.73
8 -0.55
9 0.3

> <PUBCHEM_EFFECTIVE_ROTOR_COUNT>
4.8

> <PUBCHEM_PHARMACOPHORE_FEATURES>
9
1 23 hydrophobe
1 3 acceptor
1 4 acceptor
1 5 acceptor
1 7 donor
1 8 donor
5 6 9 10 11 12 rings
6 15 16 18 19 21 22 rings
7 6 8 10 13 14 15 16 rings

> <PUBCHEM_HEAVY_ATOM_COUNT>
23

> <PUBCHEM_ATOM_DEF_STEREO_COUNT>
2

> <PUBCHEM_ATOM_UDEF_STEREO_COUNT>
0

> <PUBCHEM_BOND_DEF_STEREO_COUNT>
0

> <PUBCHEM_BOND_UDEF_STEREO_COUNT>
0

> <PUBCHEM_ISOTOPIC_ATOM_COUNT>
0

> <PUBCHEM_COMPONENT_COUNT>
1

> <PUBCHEM_CACTVS_TAUTO_COUNT>
6

> <PUBCHEM_CONFORMER_ID>
00B6368300000001

> <PUBCHEM_MMFF94_ENERGY>
71.6286

> <PUBCHEM_FEATURE_SELFOVERLAP>
45.729

> <PUBCHEM_SHAPE_FINGERPRINT>
10042902 136 16701443688964170431
10498660 4 16515408460316767308
11089746 13 13767925753914960542
11796584 16 16917065534169061045
11961588 58 16588023553905063662
12236239 1 17561374992938584457
12403259 118 9151166571957532879
12596602 18 10015570710307832822
12633257 1 12966840273651683117
12644460 14 13326270637820382082
12670546 177 18114178618794064663
12788726 201 18125717881748426417
12824470 246 16844731915663313766
13009979 54 17060069145848687257
13103583 49 14405187309107089591
13583140 156 15358279155292696448
14251757 5 18265052612331656207
14251764 30 16558751238991562007
14576447 43 18273213088900574030
14739800 52 14056991771836345604
15209294 21 11241976983624656724
17492 54 18408890646219843350
1813 80 17418378012578193293
193927 3 17203330013473799855
19784866 140 18412260645116483829
19784866 240 17632301193991023557
200 152 18341054034239210476
20739085 24 11023824011424436466
20775438 99 17911213316113489414
20775530 9 16628568977451374542
20871999 31 18408324380425081619
21637258 2 16415195638151983252
221357 26 18409724084865971813
22182313 1 18044100274376975136
22393880 68 18335973203913232781
23379529 103 17916019264559264183
23402539 116 18339939116906602584
23559900 14 16486960787334099912
25147074 1 17974572399387041336
2748010 2 17977124662428299824
2838139 119 15285357336213834806
3323516 105 18261666078031172555
33382 64 16774087245759692910
3472631 163 14273461396108633318
351380 3 17561082527114170495
3737641 26 16199883768931517623
46194498 28 18041839652921958157
5104073 3 12750964244347044614
6786 2 15833912689583858856
7471813 234 17899960648285533490
7970288 3 17846493751368865791

> <PUBCHEM_SHAPE_MULTIPOLES>
446.5
12.39
2.12
1.87
4.44
0.76
-0.43
-6.96
8.77
0.2
-0.17
0.4
-0.55
-0.42

> <PUBCHEM_SHAPE_SELFOVERLAP>
934.308

> <PUBCHEM_SHAPE_VOLUME>
254.9

> <PUBCHEM_COORDINATE_TYPE>
2
5
10

$$$$
