71694202
  -OEChem-12032416403D

 51 54  0     1  0  0  0  0  0999 V2000
   -0.4766    4.7106   -0.4548 O   0  0  0  0  0  0  0  0  0  0  0  0
    5.3899   -2.8815   -1.5520 O   0  0  0  0  0  0  0  0  0  0  0  0
    0.4635    2.0781    0.1664 N   0  0  1  0  0  0  0  0  0  0  0  0
   -2.8183    0.6471    0.2132 N   0  0  0  0  0  0  0  0  0  0  0  0
   -1.6181    0.5607   -1.6532 N   0  0  0  0  0  0  0  0  0  0  0  0
    5.7602   -1.4836    0.3100 N   0  0  0  0  0  0  0  0  0  0  0  0
   -6.5799   -2.7714    0.7926 N   0  0  0  0  0  0  0  0  0  0  0  0
   -0.9855    2.3658    0.0153 C   0  0  1  0  0  0  0  0  0  0  0  0
    1.1851    3.2961    0.5765 C   0  0  0  0  0  0  0  0  0  0  0  0
   -1.1908    3.5683   -0.9267 C   0  0  0  0  0  0  0  0  0  0  0  0
    0.7170    1.0162    1.1471 C   0  0  0  0  0  0  0  0  0  0  0  0
    0.9210    4.4351   -0.3989 C   0  0  0  0  0  0  0  0  0  0  0  0
   -1.7900    1.1851   -0.5093 C   0  0  0  0  0  0  0  0  0  0  0  0
    2.0516    0.3554    0.9254 C   0  0  0  0  0  0  0  0  0  0  0  0
   -3.3352   -0.3862   -0.5165 C   0  0  0  0  0  0  0  0  0  0  0  0
   -2.5781   -0.4200   -1.6639 C   0  0  0  0  0  0  0  0  0  0  0  0
    2.2120   -0.5599   -0.1150 C   0  0  0  0  0  0  0  0  0  0  0  0
    3.1273    0.6578    1.7603 C   0  0  0  0  0  0  0  0  0  0  0  0
   -4.4384   -1.1962   -0.0716 C   0  0  0  0  0  0  0  0  0  0  0  0
    3.4479   -1.1728   -0.3203 C   0  0  0  0  0  0  0  0  0  0  0  0
    4.3633    0.0448    1.5551 C   0  0  0  0  0  0  0  0  0  0  0  0
    4.5236   -0.8705    0.5149 C   0  0  0  0  0  0  0  0  0  0  0  0
   -5.3026   -1.7685   -0.9984 C   0  0  0  0  0  0  0  0  0  0  0  0
   -4.6437   -1.4107    1.2869 C   0  0  0  0  0  0  0  0  0  0  0  0
   -6.3485   -2.5406   -0.5194 C   0  0  0  0  0  0  0  0  0  0  0  0
   -5.7190   -2.1989    1.6638 C   0  0  0  0  0  0  0  0  0  0  0  0
    6.1095   -2.4194   -0.6726 C   0  0  0  0  0  0  0  0  0  0  0  0
    7.5528   -2.8409   -0.5550 C   0  0  0  0  0  0  0  0  0  0  0  0
   -1.3779    2.6498    1.0032 H   0  0  0  0  0  0  0  0  0  0  0  0
    2.2658    3.1221    0.6017 H   0  0  0  0  0  0  0  0  0  0  0  0
    0.8665    3.6070    1.5804 H   0  0  0  0  0  0  0  0  0  0  0  0
   -0.8777    3.3443   -1.9550 H   0  0  0  0  0  0  0  0  0  0  0  0
   -2.2519    3.8405   -0.9670 H   0  0  0  0  0  0  0  0  0  0  0  0
   -0.0260    0.2121    1.0746 H   0  0  0  0  0  0  0  0  0  0  0  0
    0.6247    1.3835    2.1786 H   0  0  0  0  0  0  0  0  0  0  0  0
    1.4257    5.3441   -0.0563 H   0  0  0  0  0  0  0  0  0  0  0  0
    1.2958    4.2066   -1.4041 H   0  0  0  0  0  0  0  0  0  0  0  0
   -3.1379    0.9681    1.1178 H   0  0  0  0  0  0  0  0  0  0  0  0
   -2.6657   -1.0985   -2.5007 H   0  0  0  0  0  0  0  0  0  0  0  0
    1.3804   -0.8029   -0.7715 H   0  0  0  0  0  0  0  0  0  0  0  0
    3.0161    1.3689    2.5746 H   0  0  0  0  0  0  0  0  0  0  0  0
    3.4951   -1.8701   -1.1450 H   0  0  0  0  0  0  0  0  0  0  0  0
    5.1928    0.2899    2.2135 H   0  0  0  0  0  0  0  0  0  0  0  0
   -5.1862   -1.6256   -2.0678 H   0  0  0  0  0  0  0  0  0  0  0  0
   -3.9937   -0.9968    2.0509 H   0  0  0  0  0  0  0  0  0  0  0  0
    6.4934   -1.2104    0.9611 H   0  0  0  0  0  0  0  0  0  0  0  0
   -7.0515   -3.0081   -1.2010 H   0  0  0  0  0  0  0  0  0  0  0  0
   -5.9212   -2.3991    2.7109 H   0  0  0  0  0  0  0  0  0  0  0  0
    7.7341   -3.2730    0.4332 H   0  0  0  0  0  0  0  0  0  0  0  0
    8.2037   -1.9742   -0.7003 H   0  0  0  0  0  0  0  0  0  0  0  0
    7.7833   -3.5907   -1.3170 H   0  0  0  0  0  0  0  0  0  0  0  0
  1 10  1  0  0  0  0
  1 12  1  0  0  0  0
  2 27  2  0  0  0  0
  3  8  1  0  0  0  0
  3  9  1  0  0  0  0
  3 11  1  0  0  0  0
  4 13  1  0  0  0  0
  4 15  1  0  0  0  0
  4 38  1  0  0  0  0
  5 13  2  0  0  0  0
  5 16  1  0  0  0  0
  6 22  1  0  0  0  0
  6 27  1  0  0  0  0
  6 46  1  0  0  0  0
  7 25  2  0  0  0  0
  7 26  1  0  0  0  0
  8 10  1  0  0  0  0
  8 13  1  0  0  0  0
  8 29  1  0  0  0  0
  9 12  1  0  0  0  0
  9 30  1  0  0  0  0
  9 31  1  0  0  0  0
 10 32  1  0  0  0  0
 10 33  1  0  0  0  0
 11 14  1  0  0  0  0
 11 34  1  0  0  0  0
 11 35  1  0  0  0  0
 12 36  1  0  0  0  0
 12 37  1  0  0  0  0
 14 17  2  0  0  0  0
 14 18  1  0  0  0  0
 15 16  2  0  0  0  0
 15 19  1  0  0  0  0
 16 39  1  0  0  0  0
 17 20  1  0  0  0  0
 17 40  1  0  0  0  0
 18 21  2  0  0  0  0
 18 41  1  0  0  0  0
 19 23  2  0  0  0  0
 19 24  1  0  0  0  0
 20 22  2  0  0  0  0
 20 42  1  0  0  0  0
 21 22  1  0  0  0  0
 21 43  1  0  0  0  0
 23 25  1  0  0  0  0
 23 44  1  0  0  0  0
 24 26  2  0  0  0  0
 24 45  1  0  0  0  0
 25 47  1  0  0  0  0
 26 48  1  0  0  0  0
 27 28  1  0  0  0  0
 28 49  1  0  0  0  0
 28 50  1  0  0  0  0
 28 51  1  0  0  0  0
M  END
> <PUBCHEM_COMPOUND_CID>
71694202

> <PUBCHEM_CONFORMER_RMSD>
0.8

> <PUBCHEM_CONFORMER_DIVERSEORDER>
2
103
101
133
49
5
126
79
68
32
105
73
51
39
84
144
35
99
48
124
90
4
137
93
66
34
69
118
57
95
91
148
11
43
44
60
139
25
115
37
131
59
136
116
75
67
38
138
102
53
80
125
46
56
70
62
83
110
14
7
23
55
149
109
127
26
64
132
76
85
42
142
31
130
17
114
47
143
33
61
45
134
98
9
12
100
104
54
81
129
107
1
10
121
97
92
94
52
22
147
58
8
87
24
122
140
82
19
119
113
16
3
108
40
18
72
145
120
123
74
29
89
135
21
111
78
50
30
106
65
63
15
86
128
112
77
96
71
36
88
41
28
27
141
6
13
117
146
20

> <PUBCHEM_MMFF94_PARTIAL_CHARGES>
39
1 -0.56
10 0.28
11 0.41
12 0.28
13 0.01
14 -0.14
15 -0.2
16 0.08
17 -0.15
18 -0.15
19 0.05
2 -0.57
20 -0.15
21 -0.15
22 0.12
23 -0.15
24 -0.15
25 0.16
26 0.16
27 0.57
28 0.06
3 -0.81
38 0.27
39 0.15
4 0.03
40 0.15
41 0.15
42 0.15
43 0.15
44 0.15
45 0.15
46 0.37
47 0.15
48 0.15
5 -0.57
6 -0.55
7 -0.62
8 0.45
9 0.27

> <PUBCHEM_EFFECTIVE_ROTOR_COUNT>
7.2

> <PUBCHEM_PHARMACOPHORE_FEATURES>
11
1 1 acceptor
1 2 acceptor
1 3 cation
1 4 donor
1 6 donor
1 7 acceptor
3 4 5 13 cation
5 4 5 13 15 16 rings
6 1 3 8 9 10 12 rings
6 14 17 18 20 21 22 rings
6 7 19 23 24 25 26 rings

> <PUBCHEM_HEAVY_ATOM_COUNT>
28

> <PUBCHEM_ATOM_DEF_STEREO_COUNT>
1

> <PUBCHEM_ATOM_UDEF_STEREO_COUNT>
0

> <PUBCHEM_BOND_DEF_STEREO_COUNT>
0

> <PUBCHEM_BOND_UDEF_STEREO_COUNT>
0

> <PUBCHEM_ISOTOPIC_ATOM_COUNT>
0

> <PUBCHEM_COMPONENT_COUNT>
1

> <PUBCHEM_CACTVS_TAUTO_COUNT>
9

> <PUBCHEM_CONFORMER_ID>
0445F77A00000002

> <PUBCHEM_MMFF94_ENERGY>
68.4371

> <PUBCHEM_FEATURE_SELFOVERLAP>
55.823

> <PUBCHEM_SHAPE_FINGERPRINT>
10864689 126 18333723616367291027
11227688 84 18267005198705454007
117089 54 18411427206191352018
11809386 21 18119803617545533914
11954058 11 18338517572762546351
11991303 11 17898566467715918269
12107183 9 18412271623665102089
12342043 65 18130782322842627954
12422481 6 17775283846113713527
12623949 98 17988648506222598246
13009979 54 18273502286265945729
13103583 49 15697989756466908286
13533116 47 18121497127861629659
13540713 4 18269251535574102008
1361 87 17749677397683714571
13673619 4 18202847634783922642
13782708 43 18202279165766312574
13785724 45 18410013269209193557
13955234 65 17978226389932640217
14123256 34 18333733541725111883
14251764 30 18411984667276347742
14950920 106 16128362809450512403
15324884 4 17983822698059875024
16120349 189 10087633797498266114
17492 89 18266459987731108697
1813 80 18341898519088174045
1979834 28 18051961808185611833
20505436 4 17101725029168678088
21133410 32 15793170110280988290
21307412 95 18267292154461003853
21344244 246 18188217606591324388
21365058 113 18261114109919016621
21585481 104 15069167971363865071
21682296 61 18411979200484625759
21716022 299 18115886237646257708
2260408 40 18130506456376203721
22899556 105 18337129925196469148
23559900 14 17241599714839523943
255183 451 18337107977291223709
2748736 6 8718827570002987854
3421961 26 18264483073971677641
3862424 121 16734410393951963491
393628 179 11747224614519703902
4330586 98 16806186473915271954
437815 12 18335138717753844387
4408954 87 15814561426753526083
513202 73 18342176613804329406
5309563 4 18410006633147111051
56633871 153 18130219454167154919
613672 6 18193530398428959335
6327066 14 9583515404112302922
6695519 79 16985145177391135320
7918774 8 18408888451148793403
7970288 3 18410854373523327479
999808 66 18273217465351507454

> <PUBCHEM_SHAPE_MULTIPOLES>
539.58
16.62
5.15
1.5
3.65
5.99
0.17
-27.47
0.17
1.06
-1.23
-0.27
-0.41
2.79

> <PUBCHEM_SHAPE_SELFOVERLAP>
1165.56

> <PUBCHEM_SHAPE_VOLUME>
293

> <PUBCHEM_COORDINATE_TYPE>
2
5
10

$$$$
