40778178
  -OEChem-12032416393D

 65 68  0     1  0  0  0  0  0999 V2000
    8.1439    0.4166   -0.3397 F   0  0  0  0  0  0  0  0  0  0  0  0
   -4.1865    0.8223    0.8659 O   0  0  0  0  0  0  0  0  0  0  0  0
   -5.9745    2.4191   -1.0069 O   0  0  0  0  0  0  0  0  0  0  0  0
   -6.3503   -0.1823   -1.8191 O   0  0  0  0  0  0  0  0  0  0  0  0
   -1.9484    2.6897    1.5432 O   0  0  0  0  0  0  0  0  0  0  0  0
   -2.4660   -1.2308    2.2110 O   0  0  0  0  0  0  0  0  0  0  0  0
    2.3785   -3.5096   -1.1617 O   0  0  0  0  0  0  0  0  0  0  0  0
   -0.1006    1.9679    0.3331 N   0  0  0  0  0  0  0  0  0  0  0  0
    2.7425    1.4820    0.0862 N   0  0  0  0  0  0  0  0  0  0  0  0
   -3.6136   -1.9014    0.3092 N   0  0  0  0  0  0  0  0  0  0  0  0
   -3.8376    1.8216   -0.1194 C   0  0  2  0  0  0  0  0  0  0  0  0
   -4.8107    1.6395   -1.2790 C   0  0  1  0  0  0  0  0  0  0  0  0
   -5.1347    0.1626   -1.1897 C   0  0  1  0  0  0  0  0  0  0  0  0
   -5.1917   -0.0464    0.3143 C   0  0  1  0  0  0  0  0  0  0  0  0
   -2.3857    1.5954   -0.5183 C   0  0  0  0  0  0  0  0  0  0  0  0
   -4.9155   -1.4791    0.7339 C   0  0  0  0  0  0  0  0  0  0  0  0
   -1.4685    2.1355    0.5515 C   0  0  0  0  0  0  0  0  0  0  0  0
    0.4675    1.3094   -0.8455 C   0  0  0  0  0  0  0  0  0  0  0  0
    0.8522    2.4580    1.3257 C   0  0  0  0  0  0  0  0  0  0  0  0
    1.9200    1.7097   -1.1046 C   0  0  0  0  0  0  0  0  0  0  0  0
    2.1008    1.5819    1.4001 C   0  0  0  0  0  0  0  0  0  0  0  0
    4.1048    1.2134   -0.0213 C   0  0  0  0  0  0  0  0  0  0  0  0
   -2.4746   -1.7412    1.0938 C   0  0  0  0  0  0  0  0  0  0  0  0
    4.8374    1.7384   -1.0859 C   0  0  0  0  0  0  0  0  0  0  0  0
    4.7367    0.4193    0.9357 C   0  0  0  0  0  0  0  0  0  0  0  0
   -1.1957   -2.2076    0.4991 C   0  0  0  0  0  0  0  0  0  0  0  0
    6.2018    1.4692   -1.1936 C   0  0  0  0  0  0  0  0  0  0  0  0
    6.1011    0.1502    0.8282 C   0  0  0  0  0  0  0  0  0  0  0  0
    6.8336    0.6751   -0.2364 C   0  0  0  0  0  0  0  0  0  0  0  0
   -0.1508   -2.6182    1.3269 C   0  0  0  0  0  0  0  0  0  0  0  0
   -1.0394   -2.2346   -0.8868 C   0  0  0  0  0  0  0  0  0  0  0  0
    1.0504   -3.0559    0.7690 C   0  0  0  0  0  0  0  0  0  0  0  0
    0.1617   -2.6721   -1.4447 C   0  0  0  0  0  0  0  0  0  0  0  0
    1.2066   -3.0828   -0.6170 C   0  0  0  0  0  0  0  0  0  0  0  0
    3.4051   -3.9149   -0.2574 C   0  0  0  0  0  0  0  0  0  0  0  0
   -3.9832    2.8048    0.3428 H   0  0  0  0  0  0  0  0  0  0  0  0
   -4.4270    1.9421   -2.2575 H   0  0  0  0  0  0  0  0  0  0  0  0
   -4.3263   -0.4122   -1.6548 H   0  0  0  0  0  0  0  0  0  0  0  0
   -6.1652    0.2593    0.7174 H   0  0  0  0  0  0  0  0  0  0  0  0
   -2.1801    2.1503   -1.4402 H   0  0  0  0  0  0  0  0  0  0  0  0
   -2.1728    0.5367   -0.6763 H   0  0  0  0  0  0  0  0  0  0  0  0
   -5.6501   -2.1631    0.2972 H   0  0  0  0  0  0  0  0  0  0  0  0
   -4.9699   -1.5644    1.8249 H   0  0  0  0  0  0  0  0  0  0  0  0
   -0.1331    1.5224   -1.7332 H   0  0  0  0  0  0  0  0  0  0  0  0
    0.4115    0.2348   -0.6540 H   0  0  0  0  0  0  0  0  0  0  0  0
    0.3746    2.5152    2.3096 H   0  0  0  0  0  0  0  0  0  0  0  0
    1.1186    3.4807    1.0316 H   0  0  0  0  0  0  0  0  0  0  0  0
    2.2840    1.1177   -1.9534 H   0  0  0  0  0  0  0  0  0  0  0  0
    1.9708    2.7696   -1.3823 H   0  0  0  0  0  0  0  0  0  0  0  0
    2.7831    2.0253    2.1356 H   0  0  0  0  0  0  0  0  0  0  0  0
    1.8284    0.5775    1.7471 H   0  0  0  0  0  0  0  0  0  0  0  0
   -5.7144    3.3552   -1.0507 H   0  0  0  0  0  0  0  0  0  0  0  0
   -6.2861    0.0944   -2.7491 H   0  0  0  0  0  0  0  0  0  0  0  0
   -3.5571   -2.3812   -0.5828 H   0  0  0  0  0  0  0  0  0  0  0  0
    4.3788    2.3728   -1.8394 H   0  0  0  0  0  0  0  0  0  0  0  0
    4.1914   -0.0170    1.7682 H   0  0  0  0  0  0  0  0  0  0  0  0
    6.7736    1.8803   -2.0204 H   0  0  0  0  0  0  0  0  0  0  0  0
    6.5929   -0.4709    1.5710 H   0  0  0  0  0  0  0  0  0  0  0  0
   -0.2560   -2.6069    2.4086 H   0  0  0  0  0  0  0  0  0  0  0  0
   -1.8165   -1.8958   -1.5655 H   0  0  0  0  0  0  0  0  0  0  0  0
    1.8205   -3.3602    1.4695 H   0  0  0  0  0  0  0  0  0  0  0  0
    0.2807   -2.6839   -2.5247 H   0  0  0  0  0  0  0  0  0  0  0  0
    4.2647   -4.2230   -0.8614 H   0  0  0  0  0  0  0  0  0  0  0  0
    3.1006   -4.7854    0.3334 H   0  0  0  0  0  0  0  0  0  0  0  0
    3.7386   -3.0822    0.3713 H   0  0  0  0  0  0  0  0  0  0  0  0
  1 29  1  0  0  0  0
  2 11  1  0  0  0  0
  2 14  1  0  0  0  0
  3 12  1  0  0  0  0
  3 52  1  0  0  0  0
  4 13  1  0  0  0  0
  4 53  1  0  0  0  0
  5 17  2  0  0  0  0
  6 23  2  0  0  0  0
  7 34  1  0  0  0  0
  7 35  1  0  0  0  0
  8 17  1  0  0  0  0
  8 18  1  0  0  0  0
  8 19  1  0  0  0  0
  9 20  1  0  0  0  0
  9 21  1  0  0  0  0
  9 22  1  0  0  0  0
 10 16  1  0  0  0  0
 10 23  1  0  0  0  0
 10 54  1  0  0  0  0
 11 12  1  0  0  0  0
 11 15  1  0  0  0  0
 11 36  1  0  0  0  0
 12 13  1  0  0  0  0
 12 37  1  0  0  0  0
 13 14  1  0  0  0  0
 13 38  1  0  0  0  0
 14 16  1  0  0  0  0
 14 39  1  0  0  0  0
 15 17  1  0  0  0  0
 15 40  1  0  0  0  0
 15 41  1  0  0  0  0
 16 42  1  0  0  0  0
 16 43  1  0  0  0  0
 18 20  1  0  0  0  0
 18 44  1  0  0  0  0
 18 45  1  0  0  0  0
 19 21  1  0  0  0  0
 19 46  1  0  0  0  0
 19 47  1  0  0  0  0
 20 48  1  0  0  0  0
 20 49  1  0  0  0  0
 21 50  1  0  0  0  0
 21 51  1  0  0  0  0
 22 24  2  0  0  0  0
 22 25  1  0  0  0  0
 23 26  1  0  0  0  0
 24 27  1  0  0  0  0
 24 55  1  0  0  0  0
 25 28  2  0  0  0  0
 25 56  1  0  0  0  0
 26 30  2  0  0  0  0
 26 31  1  0  0  0  0
 27 29  2  0  0  0  0
 27 57  1  0  0  0  0
 28 29  1  0  0  0  0
 28 58  1  0  0  0  0
 30 32  1  0  0  0  0
 30 59  1  0  0  0  0
 31 33  2  0  0  0  0
 31 60  1  0  0  0  0
 32 34  2  0  0  0  0
 32 61  1  0  0  0  0
 33 34  1  0  0  0  0
 33 62  1  0  0  0  0
 35 63  1  0  0  0  0
 35 64  1  0  0  0  0
 35 65  1  0  0  0  0
M  END
> <PUBCHEM_COMPOUND_CID>
40778178

> <PUBCHEM_CONFORMER_RMSD>
1.2

> <PUBCHEM_CONFORMER_DIVERSEORDER>
1
5
38
86
52
31
13
65
64
49
7
59
66
12
28
34
79
48
18
27
57
71
68
75
78
20
35
41
42
77
51
76
36
58
47
44
53
72
14
4
24
19
11
40
70
67
62
56
22
84
60
33
73
2
10
74
17
37
85
25
39
46
82
50
43
61
15
54
8
80
45
81
21
83
23
69
63
29
30
26
3
16
55
9
32
6

> <PUBCHEM_MMFF94_PARTIAL_CHARGES>
46
1 -0.19
10 -0.73
11 0.28
12 0.28
13 0.28
14 0.28
15 0.06
16 0.3
17 0.57
18 0.3
19 0.3
2 -0.56
20 0.37
21 0.37
22 0.1
23 0.54
24 -0.15
25 -0.15
26 0.09
27 -0.15
28 -0.15
29 0.19
3 -0.68
30 -0.15
31 -0.15
32 -0.15
33 -0.15
34 0.08
35 0.28
4 -0.68
5 -0.57
52 0.4
53 0.4
54 0.37
55 0.15
56 0.15
57 0.15
58 0.15
59 0.15
6 -0.57
60 0.15
61 0.15
62 0.15
7 -0.36
8 -0.66
9 -0.84

> <PUBCHEM_EFFECTIVE_ROTOR_COUNT>
11.2

> <PUBCHEM_PHARMACOPHORE_FEATURES>
14
1 10 donor
1 2 acceptor
1 3 acceptor
1 3 donor
1 4 acceptor
1 4 donor
1 5 acceptor
1 6 acceptor
1 7 acceptor
1 9 cation
5 2 11 12 13 14 rings
6 22 24 25 27 28 29 rings
6 26 30 31 32 33 34 rings
6 8 9 18 19 20 21 rings

> <PUBCHEM_HEAVY_ATOM_COUNT>
35

> <PUBCHEM_ATOM_DEF_STEREO_COUNT>
4

> <PUBCHEM_ATOM_UDEF_STEREO_COUNT>
0

> <PUBCHEM_BOND_DEF_STEREO_COUNT>
0

> <PUBCHEM_BOND_UDEF_STEREO_COUNT>
0

> <PUBCHEM_ISOTOPIC_ATOM_COUNT>
0

> <PUBCHEM_COMPONENT_COUNT>
1

> <PUBCHEM_CACTVS_TAUTO_COUNT>
2

> <PUBCHEM_CONFORMER_ID>
026E39C200000001

> <PUBCHEM_MMFF94_ENERGY>
111.3568

> <PUBCHEM_FEATURE_SELFOVERLAP>
71.062

> <PUBCHEM_SHAPE_FINGERPRINT>
11135926 11 18341050731552161605
11136131 41 18264200332280808450
11513181 2 17844815780264896142
11524674 6 18272931639308506620
11578080 2 17024565843180451895
12156800 1 16155433864052981394
12422481 6 18187640298050132730
13402501 40 18410857676336574290
14747281 78 17099163223137284549
15183329 4 17821440279275604864
15351339 4 18339634539158434657
15439362 3 17972594390764396885
15968369 153 18058999602517188938
18738133 686 18192129531714006394
20511986 3 18040993012348233808
20609170 92 18261672563516114788
20721686 56 18410014308090372547
21344244 246 18412820270707637903
23559900 14 18266174122555004153
249057 3 18334577984468291420
3298306 158 18411978078701141339
3383291 50 18201999971211280502
338550 245 18335707156928463342
373842 8 18338516331754751170
4093350 32 17274273738219822303
5085150 59 18411410727055237770
5265222 85 18192158302992890420
59755656 215 18413387635702478742
7226269 152 18342742948339679320

> <PUBCHEM_SHAPE_MULTIPOLES>
662.85
15.38
4.44
1.56
11.3
3.76
-0.11
-7.04
3.9
0.64
0.18
-0.69
0.01
0.82

> <PUBCHEM_SHAPE_SELFOVERLAP>
1414.893

> <PUBCHEM_SHAPE_VOLUME>
368.4

> <PUBCHEM_COORDINATE_TYPE>
2
5
10

$$$$
