11882071
  -OEChem-12032416123D

 67 69  0     1  0  0  0  0  0999 V2000
   -5.5487   -3.2554   -1.2975 S   0  0  0  0  0  0  0  0  0  0  0  0
   -2.3891    1.1936    1.5161 O   0  0  0  0  0  0  0  0  0  0  0  0
   -1.3611    4.9004   -0.4105 O   0  0  0  0  0  0  0  0  0  0  0  0
    2.5753   -0.6998    0.8008 O   0  0  0  0  0  0  0  0  0  0  0  0
   -0.9020   -3.1730   -0.2358 O   0  0  0  0  0  0  0  0  0  0  0  0
    6.1919   -3.2811   -0.7845 O   0  0  0  0  0  0  0  0  0  0  0  0
   -0.5997    2.9369    0.5486 N   0  0  0  0  0  0  0  0  0  0  0  0
    2.1275    1.5345    1.1905 N   0  0  0  0  0  0  0  0  0  0  0  0
   -1.4584   -0.5261    0.2528 N   0  0  0  0  0  0  0  0  0  0  0  0
    4.1923    0.9483    0.3765 N   0  0  0  0  0  0  0  0  0  0  0  0
   -2.5106   -3.7277    1.3073 N   0  0  0  0  0  0  0  0  0  0  0  0
    0.7761    1.3543    1.6661 C   0  0  2  0  0  0  0  0  0  0  0  0
   -0.2380    1.5168    0.5302 C   0  0  1  0  0  0  0  0  0  0  0  0
    0.3883    2.4605    2.6487 C   0  0  0  0  0  0  0  0  0  0  0  0
   -0.0853    3.5905    1.7463 C   0  0  0  0  0  0  0  0  0  0  0  0
   -1.4838    0.7345    0.8245 C   0  0  0  0  0  0  0  0  0  0  0  0
   -1.2086    3.6791   -0.4484 C   0  0  0  0  0  0  0  0  0  0  0  0
   -2.5285   -1.4850    0.4056 C   0  0  1  0  0  0  0  0  0  0  0  0
    2.9432    0.4724    0.7849 C   0  0  0  0  0  0  0  0  0  0  0  0
   -1.7053    2.9444   -1.6283 C   0  0  0  0  0  0  0  0  0  0  0  0
   -3.5613   -1.3895   -0.7240 C   0  0  0  0  0  0  0  0  0  0  0  0
   -1.8908   -2.8667    0.4261 C   0  0  0  0  0  0  0  0  0  0  0  0
   -2.9866    2.9188   -2.0326 C   0  0  0  0  0  0  0  0  0  0  0  0
   -4.8897   -1.9978   -0.3402 C   0  0  0  0  0  0  0  0  0  0  0  0
    5.2927    0.1991   -0.1014 C   0  0  0  0  0  0  0  0  0  0  0  0
   -3.5297    2.1838   -3.2265 C   0  0  0  0  0  0  0  0  0  0  0  0
   -4.0303    3.6807   -1.2570 C   0  0  0  0  0  0  0  0  0  0  0  0
   -5.7032   -1.6781    0.7245 C   0  0  0  0  0  0  0  0  0  0  0  0
    5.1983   -1.1884   -0.2084 C   0  0  0  0  0  0  0  0  0  0  0  0
    6.4725    0.8479   -0.4658 C   0  0  0  0  0  0  0  0  0  0  0  0
   -6.8829   -2.4764    0.7549 C   0  0  0  0  0  0  0  0  0  0  0  0
   -6.9263   -3.3755   -0.2877 C   0  0  0  0  0  0  0  0  0  0  0  0
    6.2836   -1.9270   -0.6797 C   0  0  0  0  0  0  0  0  0  0  0  0
    7.5578    0.1094   -0.9371 C   0  0  0  0  0  0  0  0  0  0  0  0
    7.4634   -1.2781   -1.0441 C   0  0  0  0  0  0  0  0  0  0  0  0
    4.9570   -3.8801   -0.3949 C   0  0  0  0  0  0  0  0  0  0  0  0
    0.7112    0.3713    2.1465 H   0  0  0  0  0  0  0  0  0  0  0  0
    0.1660    1.2498   -0.4521 H   0  0  0  0  0  0  0  0  0  0  0  0
    1.2028    2.7727    3.3097 H   0  0  0  0  0  0  0  0  0  0  0  0
   -0.4444    2.1220    3.2771 H   0  0  0  0  0  0  0  0  0  0  0  0
    0.7441    4.2402    1.4451 H   0  0  0  0  0  0  0  0  0  0  0  0
   -0.8617    4.2084    2.2079 H   0  0  0  0  0  0  0  0  0  0  0  0
    2.4820    2.4801    1.0838 H   0  0  0  0  0  0  0  0  0  0  0  0
   -0.6581   -0.7929   -0.3141 H   0  0  0  0  0  0  0  0  0  0  0  0
   -2.9938   -1.2892    1.3792 H   0  0  0  0  0  0  0  0  0  0  0  0
   -0.9619    2.3744   -2.1784 H   0  0  0  0  0  0  0  0  0  0  0  0
   -3.7475   -0.3339   -0.9636 H   0  0  0  0  0  0  0  0  0  0  0  0
   -3.1654   -1.8435   -1.6417 H   0  0  0  0  0  0  0  0  0  0  0  0
    4.3367    1.9535    0.4270 H   0  0  0  0  0  0  0  0  0  0  0  0
   -3.9992    2.8836   -3.9250 H   0  0  0  0  0  0  0  0  0  0  0  0
   -2.7351    1.6552   -3.7633 H   0  0  0  0  0  0  0  0  0  0  0  0
   -4.2737    1.4433   -2.9160 H   0  0  0  0  0  0  0  0  0  0  0  0
   -4.9161    3.0518   -1.1097 H   0  0  0  0  0  0  0  0  0  0  0  0
   -3.7159    3.9925   -0.2579 H   0  0  0  0  0  0  0  0  0  0  0  0
   -4.3366    4.5712   -1.8158 H   0  0  0  0  0  0  0  0  0  0  0  0
   -2.1751   -4.6775    1.4285 H   0  0  0  0  0  0  0  0  0  0  0  0
   -3.3208   -3.4594    1.8565 H   0  0  0  0  0  0  0  0  0  0  0  0
   -5.4713   -0.9069    1.4480 H   0  0  0  0  0  0  0  0  0  0  0  0
    4.2922   -1.6942    0.0703 H   0  0  0  0  0  0  0  0  0  0  0  0
    6.5593    1.9287   -0.3873 H   0  0  0  0  0  0  0  0  0  0  0  0
   -7.6607   -2.3945    1.5029 H   0  0  0  0  0  0  0  0  0  0  0  0
   -7.7012   -4.0971   -0.5049 H   0  0  0  0  0  0  0  0  0  0  0  0
    8.4765    0.6147   -1.2208 H   0  0  0  0  0  0  0  0  0  0  0  0
    8.3122   -1.8481   -1.4119 H   0  0  0  0  0  0  0  0  0  0  0  0
    4.7512   -3.7274    0.6702 H   0  0  0  0  0  0  0  0  0  0  0  0
    4.1293   -3.5536   -1.0339 H   0  0  0  0  0  0  0  0  0  0  0  0
    5.0634   -4.9599   -0.5437 H   0  0  0  0  0  0  0  0  0  0  0  0
  1 24  1  0  0  0  0
  1 32  1  0  0  0  0
  2 16  2  0  0  0  0
  3 17  2  0  0  0  0
  4 19  2  0  0  0  0
  5 22  2  0  0  0  0
  6 33  1  0  0  0  0
  6 36  1  0  0  0  0
  7 13  1  0  0  0  0
  7 15  1  0  0  0  0
  7 17  1  0  0  0  0
  8 12  1  0  0  0  0
  8 19  1  0  0  0  0
  8 43  1  0  0  0  0
  9 16  1  0  0  0  0
  9 18  1  0  0  0  0
  9 44  1  0  0  0  0
 10 19  1  0  0  0  0
 10 25  1  0  0  0  0
 10 49  1  0  0  0  0
 11 22  1  0  0  0  0
 11 56  1  0  0  0  0
 11 57  1  0  0  0  0
 12 13  1  0  0  0  0
 12 14  1  0  0  0  0
 12 37  1  0  0  0  0
 13 16  1  0  0  0  0
 13 38  1  0  0  0  0
 14 15  1  0  0  0  0
 14 39  1  0  0  0  0
 14 40  1  0  0  0  0
 15 41  1  0  0  0  0
 15 42  1  0  0  0  0
 17 20  1  0  0  0  0
 18 21  1  0  0  0  0
 18 22  1  0  0  0  0
 18 45  1  0  0  0  0
 20 23  2  0  0  0  0
 20 46  1  0  0  0  0
 21 24  1  0  0  0  0
 21 47  1  0  0  0  0
 21 48  1  0  0  0  0
 23 26  1  0  0  0  0
 23 27  1  0  0  0  0
 24 28  2  0  0  0  0
 25 29  2  0  0  0  0
 25 30  1  0  0  0  0
 26 50  1  0  0  0  0
 26 51  1  0  0  0  0
 26 52  1  0  0  0  0
 27 53  1  0  0  0  0
 27 54  1  0  0  0  0
 27 55  1  0  0  0  0
 28 31  1  0  0  0  0
 28 58  1  0  0  0  0
 29 33  1  0  0  0  0
 29 59  1  0  0  0  0
 30 34  2  0  0  0  0
 30 60  1  0  0  0  0
 31 32  2  0  0  0  0
 31 61  1  0  0  0  0
 32 62  1  0  0  0  0
 33 35  2  0  0  0  0
 34 35  1  0  0  0  0
 34 63  1  0  0  0  0
 35 64  1  0  0  0  0
 36 65  1  0  0  0  0
 36 66  1  0  0  0  0
 36 67  1  0  0  0  0
M  END
> <PUBCHEM_COMPOUND_CID>
11882071

> <PUBCHEM_CONFORMER_RMSD>
1.2

> <PUBCHEM_CONFORMER_DIVERSEORDER>
1
59
100
133
137
71
15
141
68
124
127
98
110
152
77
93
131
27
148
112
107
121
24
31
62
94
29
153
48
67
50
69
85
144
113
6
104
16
80
150
10
61
2
78
143
83
38
111
39
22
52
25
49
99
101
44
147
37
70
21
134
76
57
72
12
63
140
60
118
130
129
145
119
46
55
17
75
7
87
135
34
23
58
146
91
51
32
64
79
108
5
82
132
106
14
74
53
139
103
105
126
92
151
47
3
43
73
95
86
89
18
149
45
116
88
117
120
30
28
66
90
9
81
54
122
13
109
65
97
11
36
128
114
96
56
35
8
20
136
40
115
84
142
41
102
19
123
26
42
138
33
125
4

> <PUBCHEM_MMFF94_PARTIAL_CHARGES>
48
1 -0.08
10 -0.55
11 -0.8
12 0.3
13 0.36
15 0.3
16 0.57
17 0.62
18 0.36
19 0.69
2 -0.57
20 -0.14
21 0.18
22 0.57
23 -0.28
24 -0.14
25 0.12
26 0.14
27 0.14
28 -0.15
29 -0.15
3 -0.57
30 -0.15
31 -0.15
32 -0.11
33 0.08
34 -0.15
35 -0.15
36 0.28
4 -0.57
43 0.37
44 0.37
46 0.15
49 0.37
5 -0.57
56 0.37
57 0.37
58 0.15
59 0.15
6 -0.36
60 0.15
61 0.15
62 0.15
63 0.15
64 0.15
7 -0.66
8 -0.73
9 -0.73

> <PUBCHEM_EFFECTIVE_ROTOR_COUNT>
14

> <PUBCHEM_PHARMACOPHORE_FEATURES>
13
1 10 donor
1 11 donor
1 2 acceptor
1 3 acceptor
1 4 acceptor
1 5 acceptor
1 6 acceptor
1 8 donor
1 9 donor
3 23 26 27 hydrophobe
5 1 24 28 31 32 rings
5 7 12 13 14 15 rings
6 25 29 30 33 34 35 rings

> <PUBCHEM_HEAVY_ATOM_COUNT>
36

> <PUBCHEM_ATOM_DEF_STEREO_COUNT>
3

> <PUBCHEM_ATOM_UDEF_STEREO_COUNT>
0

> <PUBCHEM_BOND_DEF_STEREO_COUNT>
0

> <PUBCHEM_BOND_UDEF_STEREO_COUNT>
0

> <PUBCHEM_ISOTOPIC_ATOM_COUNT>
0

> <PUBCHEM_COMPONENT_COUNT>
1

> <PUBCHEM_CACTVS_TAUTO_COUNT>
12

> <PUBCHEM_CONFORMER_ID>
00B54E5700000001

> <PUBCHEM_MMFF94_ENERGY>
97.4571

> <PUBCHEM_FEATURE_SELFOVERLAP>
66.026

> <PUBCHEM_SHAPE_FINGERPRINT>
12788726 201 18040704883706916283
13631057 29 18271815623086671970
13673619 4 18339640152554121841
13690498 29 18410007745348046375
14347332 77 18411418372076113914
14681490 219 18411418414762471522
15198563 99 18261107474495491613
15448158 6 18201435951547511619
15781502 461 18413670197264413166
16067689 391 17772176523301622078
16628084 112 18338517439255478906
16994733 274 14129601290857609919
19958102 18 18192990427241882732
21049683 271 18338521957602655139
21365058 113 17896881157108575037
23559900 14 17977380869948825819
437815 12 18270964660462149355
70251023 43 18339926012798333576

> <PUBCHEM_SHAPE_MULTIPOLES>
690.46
18.48
6.49
1.96
21.97
1.96
-0.39
-21.66
-7.03
-6.62
-1.1
-1.53
2.02
3.31

> <PUBCHEM_SHAPE_SELFOVERLAP>
1436.313

> <PUBCHEM_SHAPE_VOLUME>
394

> <PUBCHEM_COORDINATE_TYPE>
2
5
10

$$$$
