51136867
  -OEChem-12032416223D

 66 70  0     1  0  0  0  0  0999 V2000
    3.2943    2.7266    1.5945 O   0  0  0  0  0  0  0  0  0  0  0  0
    4.7777   -5.1722   -0.2741 O   0  0  0  0  0  0  0  0  0  0  0  0
   -3.9633   -0.5853   -1.7347 O   0  0  0  0  0  0  0  0  0  0  0  0
  -10.0418   -1.0169   -0.1275 O   0  0  0  0  0  0  0  0  0  0  0  0
    5.1876    0.9213   -0.9865 N   0  0  1  0  0  0  0  0  0  0  0  0
    5.1237   -3.0215    0.5338 N   0  0  0  0  0  0  0  0  0  0  0  0
    2.4101    1.5863   -0.1186 N   0  0  0  0  0  0  0  0  0  0  0  0
    1.9260    2.6093    1.8697 N   0  0  0  0  0  0  0  0  0  0  0  0
   -2.1605    1.6089    1.5345 N   0  0  0  0  0  0  0  0  0  0  0  0
   -3.8985    0.5749    0.3083 N   0  0  0  0  0  0  0  0  0  0  0  0
    5.5866   -0.2712   -0.2429 C   0  0  0  0  0  0  0  0  0  0  0  0
    4.9148    2.0843   -0.1186 C   0  0  1  0  0  0  0  0  0  0  0  0
    6.2153    1.3468   -1.9369 C   0  0  0  0  0  0  0  0  0  0  0  0
    5.2369    3.3096   -0.9937 C   0  0  0  0  0  0  0  0  0  0  0  0
    4.4995   -0.6471    0.7723 C   0  0  0  0  0  0  0  0  0  0  0  0
    5.8418   -1.4342   -1.2104 C   0  0  0  0  0  0  0  0  0  0  0  0
    5.7403    2.7364   -2.3109 C   0  0  0  0  0  0  0  0  0  0  0  0
    4.8513   -1.9467    1.4961 C   0  0  0  0  0  0  0  0  0  0  0  0
    6.1674   -2.7168   -0.4474 C   0  0  0  0  0  0  0  0  0  0  0  0
    3.4945    2.0981    0.4066 C   0  0  0  0  0  0  0  0  0  0  0  0
    4.5056   -4.2715    0.5238 C   0  0  0  0  0  0  0  0  0  0  0  0
    3.4394   -4.5063    1.5639 C   0  0  0  0  0  0  0  0  0  0  0  0
    1.4738    1.9251    0.8146 C   0  0  0  0  0  0  0  0  0  0  0  0
    0.0936    1.5659    0.6617 C   0  0  0  0  0  0  0  0  0  0  0  0
   -0.3428    0.8545   -0.4505 C   0  0  0  0  0  0  0  0  0  0  0  0
   -0.8466    1.9161    1.6173 C   0  0  0  0  0  0  0  0  0  0  0  0
   -1.6871    0.5200   -0.5714 C   0  0  0  0  0  0  0  0  0  0  0  0
   -2.5476    0.9170    0.4395 C   0  0  0  0  0  0  0  0  0  0  0  0
   -4.5076   -0.1314   -0.7339 C   0  0  0  0  0  0  0  0  0  0  0  0
   -5.9667   -0.3653   -0.5730 C   0  0  0  0  0  0  0  0  0  0  0  0
   -6.5674   -1.4676   -1.1811 C   0  0  0  0  0  0  0  0  0  0  0  0
   -6.7354    0.5180    0.1850 C   0  0  0  0  0  0  0  0  0  0  0  0
   -7.9368   -1.6865   -1.0314 C   0  0  0  0  0  0  0  0  0  0  0  0
   -8.1048    0.2991    0.3347 C   0  0  0  0  0  0  0  0  0  0  0  0
   -8.7055   -0.8031   -0.2735 C   0  0  0  0  0  0  0  0  0  0  0  0
  -10.7675   -0.0745    0.6606 C   0  0  0  0  0  0  0  0  0  0  0  0
    6.5168   -0.0744    0.3097 H   0  0  0  0  0  0  0  0  0  0  0  0
    5.6055    2.0999    0.7366 H   0  0  0  0  0  0  0  0  0  0  0  0
    6.2621    0.7171   -2.8303 H   0  0  0  0  0  0  0  0  0  0  0  0
    7.2099    1.3976   -1.4760 H   0  0  0  0  0  0  0  0  0  0  0  0
    6.0325    3.9000   -0.5229 H   0  0  0  0  0  0  0  0  0  0  0  0
    4.3806    3.9722   -1.1599 H   0  0  0  0  0  0  0  0  0  0  0  0
    3.5342   -0.7846    0.2694 H   0  0  0  0  0  0  0  0  0  0  0  0
    4.3907    0.1049    1.5579 H   0  0  0  0  0  0  0  0  0  0  0  0
    4.9553   -1.6038   -1.8361 H   0  0  0  0  0  0  0  0  0  0  0  0
    6.6826   -1.2270   -1.8811 H   0  0  0  0  0  0  0  0  0  0  0  0
    6.5341    3.3471   -2.7510 H   0  0  0  0  0  0  0  0  0  0  0  0
    4.9150    2.6786   -3.0314 H   0  0  0  0  0  0  0  0  0  0  0  0
    5.7588   -1.8154    2.0977 H   0  0  0  0  0  0  0  0  0  0  0  0
    4.0451   -2.2079    2.1840 H   0  0  0  0  0  0  0  0  0  0  0  0
    6.2922   -3.5440   -1.1533 H   0  0  0  0  0  0  0  0  0  0  0  0
    7.1108   -2.6092    0.1010 H   0  0  0  0  0  0  0  0  0  0  0  0
    3.0297   -5.5140    1.4441 H   0  0  0  0  0  0  0  0  0  0  0  0
    3.8663   -4.4293    2.5673 H   0  0  0  0  0  0  0  0  0  0  0  0
    2.6233   -3.7899    1.4371 H   0  0  0  0  0  0  0  0  0  0  0  0
    0.3430    0.5485   -1.2365 H   0  0  0  0  0  0  0  0  0  0  0  0
   -0.5881    2.4711    2.5143 H   0  0  0  0  0  0  0  0  0  0  0  0
   -1.9474   -0.0309   -1.4598 H   0  0  0  0  0  0  0  0  0  0  0  0
   -4.4562    0.8609    1.1071 H   0  0  0  0  0  0  0  0  0  0  0  0
   -5.9860   -2.1707   -1.7716 H   0  0  0  0  0  0  0  0  0  0  0  0
   -6.3184    1.4090    0.6445 H   0  0  0  0  0  0  0  0  0  0  0  0
   -8.3992   -2.5475   -1.5065 H   0  0  0  0  0  0  0  0  0  0  0  0
   -8.6441    1.0285    0.9295 H   0  0  0  0  0  0  0  0  0  0  0  0
  -10.4235   -0.0696    1.7005 H   0  0  0  0  0  0  0  0  0  0  0  0
  -10.7482    0.9246    0.2121 H   0  0  0  0  0  0  0  0  0  0  0  0
  -11.8131   -0.3995    0.6716 H   0  0  0  0  0  0  0  0  0  0  0  0
  1  8  1  0  0  0  0
  1 20  1  0  0  0  0
  2 21  2  0  0  0  0
  3 29  2  0  0  0  0
  4 35  1  0  0  0  0
  4 36  1  0  0  0  0
  5 11  1  0  0  0  0
  5 12  1  0  0  0  0
  5 13  1  0  0  0  0
  6 18  1  0  0  0  0
  6 19  1  0  0  0  0
  6 21  1  0  0  0  0
  7 20  2  0  0  0  0
  7 23  1  0  0  0  0
  8 23  2  0  0  0  0
  9 26  1  0  0  0  0
  9 28  2  0  0  0  0
 10 28  1  0  0  0  0
 10 29  1  0  0  0  0
 10 59  1  0  0  0  0
 11 15  1  0  0  0  0
 11 16  1  0  0  0  0
 11 37  1  0  0  0  0
 12 14  1  0  0  0  0
 12 20  1  0  0  0  0
 12 38  1  0  0  0  0
 13 17  1  0  0  0  0
 13 39  1  0  0  0  0
 13 40  1  0  0  0  0
 14 17  1  0  0  0  0
 14 41  1  0  0  0  0
 14 42  1  0  0  0  0
 15 18  1  0  0  0  0
 15 43  1  0  0  0  0
 15 44  1  0  0  0  0
 16 19  1  0  0  0  0
 16 45  1  0  0  0  0
 16 46  1  0  0  0  0
 17 47  1  0  0  0  0
 17 48  1  0  0  0  0
 18 49  1  0  0  0  0
 18 50  1  0  0  0  0
 19 51  1  0  0  0  0
 19 52  1  0  0  0  0
 21 22  1  0  0  0  0
 22 53  1  0  0  0  0
 22 54  1  0  0  0  0
 22 55  1  0  0  0  0
 23 24  1  0  0  0  0
 24 25  1  0  0  0  0
 24 26  2  0  0  0  0
 25 27  2  0  0  0  0
 25 56  1  0  0  0  0
 26 57  1  0  0  0  0
 27 28  1  0  0  0  0
 27 58  1  0  0  0  0
 29 30  1  0  0  0  0
 30 31  2  0  0  0  0
 30 32  1  0  0  0  0
 31 33  1  0  0  0  0
 31 60  1  0  0  0  0
 32 34  2  0  0  0  0
 32 61  1  0  0  0  0
 33 35  2  0  0  0  0
 33 62  1  0  0  0  0
 34 35  1  0  0  0  0
 34 63  1  0  0  0  0
 36 64  1  0  0  0  0
 36 65  1  0  0  0  0
 36 66  1  0  0  0  0
M  END
> <PUBCHEM_COMPOUND_CID>
51136867

> <PUBCHEM_CONFORMER_RMSD>
1

> <PUBCHEM_CONFORMER_DIVERSEORDER>
1
39
49
11
54
25
24
19
55
41
53
35
20
23
22
36
43
30
48
16
29
42
46
33
15
45
50
13
6
37
12
7
51
17
18
31
14
27
52
3
28
32
38
5
44
4
26
21
2
40
8
9
47
10
34

> <PUBCHEM_MMFF94_PARTIAL_CHARGES>
40
1 -0.02
10 -0.55
11 0.27
12 0.45
13 0.27
18 0.3
19 0.3
2 -0.57
20 0.3
21 0.57
22 0.06
23 0.46
24 0.05
25 -0.15
26 0.16
27 -0.15
28 0.43
29 0.54
3 -0.57
30 0.09
31 -0.15
32 -0.15
33 -0.15
34 -0.15
35 0.08
36 0.28
4 -0.36
5 -0.81
56 0.15
57 0.15
58 0.15
59 0.37
6 -0.66
60 0.15
61 0.15
62 0.15
63 0.15
7 -0.57
8 -0.41
9 -0.62

> <PUBCHEM_EFFECTIVE_ROTOR_COUNT>
10.2

> <PUBCHEM_PHARMACOPHORE_FEATURES>
11
1 10 donor
1 2 acceptor
1 3 acceptor
1 4 acceptor
1 5 cation
3 7 8 23 cation
5 1 7 8 20 23 rings
5 5 12 13 14 17 rings
6 30 31 32 33 34 35 rings
6 6 11 15 16 18 19 rings
6 9 24 25 26 27 28 rings

> <PUBCHEM_HEAVY_ATOM_COUNT>
36

> <PUBCHEM_ATOM_DEF_STEREO_COUNT>
1

> <PUBCHEM_ATOM_UDEF_STEREO_COUNT>
0

> <PUBCHEM_BOND_DEF_STEREO_COUNT>
0

> <PUBCHEM_BOND_UDEF_STEREO_COUNT>
0

> <PUBCHEM_ISOTOPIC_ATOM_COUNT>
0

> <PUBCHEM_COMPONENT_COUNT>
1

> <PUBCHEM_CACTVS_TAUTO_COUNT>
14

> <PUBCHEM_CONFORMER_ID>
030C496300000001

> <PUBCHEM_MMFF94_ENERGY>
94.6335

> <PUBCHEM_FEATURE_SELFOVERLAP>
55.823

> <PUBCHEM_SHAPE_FINGERPRINT>
10 15 11891323284293373629
10299344 5 18342177800027523989
10622 236 18196931068246587666
11103572 155 18336827593759120999
11181472 205 18335143064514618205
11227150 75 16664562547702971666
11409948 35 18410289174109173983
117089 54 17984426239644105574
11719270 70 16558757836309222621
11801155 225 18200023096244329511
12047536 79 16056873624348249440
12758862 56 16702022028803433219
12838863 1 18042960979559672922
13533116 47 18411976966415505120
13553644 42 18270684169671415807
13782708 43 18412536601060628717
14347332 77 18342173328223244537
15152005 1 17980199678419147734
15183329 4 17846224384205239177
15264996 19 18051138287293761614
15328684 2 17632308817842999883
15467298 65 18198890582493844575
15475509 35 18201144504083469072
15807756 48 18337675196189352102
16628084 112 18339638945821325047
17134984 74 18409167749156930830
17324776 126 17320688380347412562
1754908 1 12607406633388665637
19841028 212 18342174457831032242
21057603 40 18260257555933085055
21133410 171 16591942012623017810
21304303 94 18333449855235337538
21360442 33 18041274371038938114
21360442 67 18113901610615204834
21781055 127 16773810169552569363
21792934 111 13686306768718915409
21792938 131 18272366452125783379
23522609 53 18127442044529773913
2835820 82 18337671906424004315
3004659 81 17775289412508127053
3044373 193 16805327712204172150
34797466 226 17168139074390995901
3534868 343 18334024891101246628
354706 35 18114192973281500264
397830 11 10735583752764220309
4073 2 18054500584960540497
439807 62 18342177773656320525
45270241 37 18261116321737912828
4625314 4 8430324545654597993
6201460 15 17690558585719718754
6679774 75 17203602701116852527
9831232 110 18189325788681611799
9849439 229 12324241685161978552

> <PUBCHEM_SHAPE_MULTIPOLES>
687.5
29.38
4.83
1.65
78.87
6.19
-0.09
11.69
-7.26
-14.72
0.94
-1.73
-0.64
-3.44

> <PUBCHEM_SHAPE_SELFOVERLAP>
1484.469

> <PUBCHEM_SHAPE_VOLUME>
376.1

> <PUBCHEM_COORDINATE_TYPE>
2
5
10

$$$$
