26744403
  -OEChem-12032416193D

 44 47  0     1  0  0  0  0  0999 V2000
    6.5258    0.8021   -1.3235 F   0  0  0  0  0  0  0  0  0  0  0  0
   -2.5384    3.8375    0.0901 O   0  0  0  0  0  0  0  0  0  0  0  0
   -4.1673   -3.3850   -1.2470 O   0  0  0  0  0  0  0  0  0  0  0  0
    0.0331   -1.3704    2.0372 O   0  0  0  0  0  0  0  0  0  0  0  0
   -2.5136   -0.3320   -0.4010 N   0  0  1  0  0  0  0  0  0  0  0  0
    0.4356   -0.6276   -0.0371 N   0  0  0  0  0  0  0  0  0  0  0  0
    1.4098   -1.1201    1.9734 N   0  0  0  0  0  0  0  0  0  0  0  0
   -2.8783    0.9789    0.1307 C   0  0  0  0  0  0  0  0  0  0  0  0
   -1.9544   -1.2400    0.6211 C   0  0  1  0  0  0  0  0  0  0  0  0
   -3.6582   -1.0253   -0.9889 C   0  0  0  0  0  0  0  0  0  0  0  0
   -2.3212   -2.6543    0.1344 C   0  0  0  0  0  0  0  0  0  0  0  0
   -3.1236   -2.4364   -1.1423 C   0  0  1  0  0  0  0  0  0  0  0  0
   -3.4934    1.8636   -0.9582 C   0  0  0  0  0  0  0  0  0  0  0  0
   -1.6520    1.6684    0.7354 C   0  0  0  0  0  0  0  0  0  0  0  0
   -0.4639   -1.0547    0.8126 C   0  0  0  0  0  0  0  0  0  0  0  0
   -3.7440    3.2683   -0.4208 C   0  0  0  0  0  0  0  0  0  0  0  0
   -2.0045    3.0841    1.1789 C   0  0  0  0  0  0  0  0  0  0  0  0
    1.5694   -0.6851    0.7200 C   0  0  0  0  0  0  0  0  0  0  0  0
    2.8472   -0.3016    0.1932 C   0  0  0  0  0  0  0  0  0  0  0  0
    2.9533    0.1439   -1.1244 C   0  0  0  0  0  0  0  0  0  0  0  0
    3.9839   -0.3739    0.9985 C   0  0  0  0  0  0  0  0  0  0  0  0
    4.1957    0.5167   -1.6368 C   0  0  0  0  0  0  0  0  0  0  0  0
    5.2265   -0.0012    0.4861 C   0  0  0  0  0  0  0  0  0  0  0  0
    5.3325    0.4441   -0.8315 C   0  0  0  0  0  0  0  0  0  0  0  0
   -3.6274    0.8594    0.9274 H   0  0  0  0  0  0  0  0  0  0  0  0
   -2.4535   -1.0862    1.5886 H   0  0  0  0  0  0  0  0  0  0  0  0
   -3.9443   -0.6293   -1.9687 H   0  0  0  0  0  0  0  0  0  0  0  0
   -4.5442   -1.0131   -0.3401 H   0  0  0  0  0  0  0  0  0  0  0  0
   -1.4471   -3.2835   -0.0694 H   0  0  0  0  0  0  0  0  0  0  0  0
   -2.9238   -3.1719    0.8914 H   0  0  0  0  0  0  0  0  0  0  0  0
   -2.4766   -2.5144   -2.0248 H   0  0  0  0  0  0  0  0  0  0  0  0
   -4.4446    1.4627   -1.3240 H   0  0  0  0  0  0  0  0  0  0  0  0
   -2.8048    1.9278   -1.8110 H   0  0  0  0  0  0  0  0  0  0  0  0
   -0.8508    1.7327   -0.0113 H   0  0  0  0  0  0  0  0  0  0  0  0
   -1.2780    1.1538    1.6238 H   0  0  0  0  0  0  0  0  0  0  0  0
   -4.1024    3.9166   -1.2267 H   0  0  0  0  0  0  0  0  0  0  0  0
   -4.5077    3.2650    0.3658 H   0  0  0  0  0  0  0  0  0  0  0  0
   -2.7257    3.0767    2.0048 H   0  0  0  0  0  0  0  0  0  0  0  0
   -1.1049    3.5992    1.5306 H   0  0  0  0  0  0  0  0  0  0  0  0
   -3.7593   -4.2675   -1.2647 H   0  0  0  0  0  0  0  0  0  0  0  0
    2.0862    0.2119   -1.7768 H   0  0  0  0  0  0  0  0  0  0  0  0
    3.9404   -0.7157    2.0295 H   0  0  0  0  0  0  0  0  0  0  0  0
    4.2790    0.8636   -2.6626 H   0  0  0  0  0  0  0  0  0  0  0  0
    6.1120   -0.0572    1.1124 H   0  0  0  0  0  0  0  0  0  0  0  0
  1 24  1  0  0  0  0
  2 16  1  0  0  0  0
  2 17  1  0  0  0  0
  3 12  1  0  0  0  0
  3 40  1  0  0  0  0
  4  7  1  0  0  0  0
  4 15  1  0  0  0  0
  5  8  1  0  0  0  0
  5  9  1  0  0  0  0
  5 10  1  0  0  0  0
  6 15  2  0  0  0  0
  6 18  1  0  0  0  0
  7 18  2  0  0  0  0
  8 13  1  0  0  0  0
  8 14  1  0  0  0  0
  8 25  1  0  0  0  0
  9 11  1  0  0  0  0
  9 15  1  0  0  0  0
  9 26  1  0  0  0  0
 10 12  1  0  0  0  0
 10 27  1  0  0  0  0
 10 28  1  0  0  0  0
 11 12  1  0  0  0  0
 11 29  1  0  0  0  0
 11 30  1  0  0  0  0
 12 31  1  0  0  0  0
 13 16  1  0  0  0  0
 13 32  1  0  0  0  0
 13 33  1  0  0  0  0
 14 17  1  0  0  0  0
 14 34  1  0  0  0  0
 14 35  1  0  0  0  0
 16 36  1  0  0  0  0
 16 37  1  0  0  0  0
 17 38  1  0  0  0  0
 17 39  1  0  0  0  0
 18 19  1  0  0  0  0
 19 20  2  0  0  0  0
 19 21  1  0  0  0  0
 20 22  1  0  0  0  0
 20 41  1  0  0  0  0
 21 23  2  0  0  0  0
 21 42  1  0  0  0  0
 22 24  2  0  0  0  0
 22 43  1  0  0  0  0
 23 24  1  0  0  0  0
 23 44  1  0  0  0  0
M  END
> <PUBCHEM_COMPOUND_CID>
26744403

> <PUBCHEM_CONFORMER_RMSD>
0.8

> <PUBCHEM_CONFORMER_DIVERSEORDER>
1
9
15
6
7
14
11
18
10
3
13
8
17
4
16
12
5
2

> <PUBCHEM_MMFF94_PARTIAL_CHARGES>
26
1 -0.19
10 0.27
12 0.28
15 0.3
16 0.28
17 0.28
18 0.46
19 0.05
2 -0.56
20 -0.15
21 -0.15
22 -0.15
23 -0.15
24 0.19
3 -0.68
4 -0.02
40 0.4
41 0.15
42 0.15
43 0.15
44 0.15
5 -0.81
6 -0.57
7 -0.41
8 0.27
9 0.45

> <PUBCHEM_EFFECTIVE_ROTOR_COUNT>
5.2

> <PUBCHEM_PHARMACOPHORE_FEATURES>
9
1 2 acceptor
1 3 acceptor
1 3 donor
1 5 cation
3 6 7 18 cation
5 4 6 7 15 18 rings
5 5 9 10 11 12 rings
6 19 20 21 22 23 24 rings
6 2 8 13 14 16 17 rings

> <PUBCHEM_HEAVY_ATOM_COUNT>
24

> <PUBCHEM_ATOM_DEF_STEREO_COUNT>
2

> <PUBCHEM_ATOM_UDEF_STEREO_COUNT>
0

> <PUBCHEM_BOND_DEF_STEREO_COUNT>
0

> <PUBCHEM_BOND_UDEF_STEREO_COUNT>
0

> <PUBCHEM_ISOTOPIC_ATOM_COUNT>
0

> <PUBCHEM_COMPONENT_COUNT>
1

> <PUBCHEM_CACTVS_TAUTO_COUNT>
1

> <PUBCHEM_CONFORMER_ID>
0198165300000001

> <PUBCHEM_MMFF94_ENERGY>
45.6473

> <PUBCHEM_FEATURE_SELFOVERLAP>
45.672

> <PUBCHEM_SHAPE_FINGERPRINT>
10673678 19 17539956283767364973
10871710 139 18260548901029159645
10906281 52 18122905323353825421
10937287 8 17837496245723559289
11049842 53 17910940362309851787
11370993 144 13840546203427734288
11477941 20 18200310060636877156
11488393 25 16681185453611395155
11640471 11 18042684996885290177
12107183 9 17901658272943253290
12173636 292 18196924483977443749
12788726 201 18336253614007651067
13583140 156 17703777108029393066
13994607 96 18041859345278490209
14142880 1 17968098582244124509
14187579 7 18338803432864611756
14251757 5 18413107277586050511
14251764 38 18337110198111828784
14251764 75 17906460926263804209
14294032 229 18340211791664479801
14713325 29 18201731643018654223
14739800 52 18264468720655244352
14767858 380 18266437851559882309
14790565 3 17983578507747262049
15064981 113 18198612251606144318
15183329 4 17603586323352399598
15289351 153 18044383958418420556
15463212 79 18334853866542273731
15475509 8 18059286669842194815
15534591 1 18261676969772914283
15842332 3 18042666339357823067
16994733 274 15358795896099032927
17492 54 18263625296420791301
17818456 19 18051117108894011434
1813 80 17914053359491445975
18785283 64 17332534467384668323
20101258 96 18266182927785950587
20300324 65 18410293644241447878
20642791 239 18187911916361976325
21033650 10 18265638544980969790
21315759 148 11025800890877311636
21756936 100 18040731250669434240
22393880 68 18129954386287229494
22620623 9 18060128856397643159
22907989 373 18340470202423971391
235170 7 17632581565314139500
23557571 272 18202562899357172554
25147074 1 18042108895842463090
255183 451 17695335272737669007
266924 1 18115291311550157555
312425 54 9150905923673061924
312425 83 18268450000513565566
3268164 11 18342175591717845686
3388396 114 17901678385769316020
341906 21 18411130325910197344
3610482 184 18116173146061675668
38570 142 17751943340818721870
4169191 19 17096380595968265284
46194498 28 17702664505436296336
469060 322 17969247619081937825
474 4 17676770851413299256
497634 4 17273994582235223298
5104073 3 16805607019103580632
531348 171 18341903939917345358
621550 5 17488462060648711755
633830 44 17676776362188987106
7808743 9 18338514127835070137

> <PUBCHEM_SHAPE_MULTIPOLES>
454.08
11.17
3.63
1.55
16.49
1.63
0.17
2.27
-4.98
-7.83
-0.25
0.76
-0.3
-1.68

> <PUBCHEM_SHAPE_SELFOVERLAP>
981.63

> <PUBCHEM_SHAPE_VOLUME>
251.3

> <PUBCHEM_COORDINATE_TYPE>
2
5
10

$$$$
