45783272
  -OEChem-12032416273D

 60 63  0     1  0  0  0  0  0999 V2000
    1.5062    3.0999    1.2539 O   0  0  0  0  0  0  0  0  0  0  0  0
    1.9926   -5.1090    0.5737 O   0  0  0  0  0  0  0  0  0  0  0  0
   -5.0686   -2.9028   -0.9527 O   0  0  0  0  0  0  0  0  0  0  0  0
    2.9964    0.7175   -1.1146 N   0  0  1  0  0  0  0  0  0  0  0  0
    2.6261   -2.9169    1.0104 N   0  0  0  0  0  0  0  0  0  0  0  0
    0.3789    1.8265   -0.2037 N   0  0  0  0  0  0  0  0  0  0  0  0
    0.1578    3.1865    1.6227 N   0  0  0  0  0  0  0  0  0  0  0  0
   -4.6249    1.7765    0.6776 N   0  0  0  0  0  0  0  0  0  0  0  0
   -4.2990   -0.1949   -0.6202 N   0  0  0  0  0  0  0  0  0  0  0  0
    3.3205   -0.3880   -0.2163 C   0  0  0  0  0  0  0  0  0  0  0  0
    2.9154    2.0217   -0.4269 C   0  0  1  0  0  0  0  0  0  0  0  0
    3.9893    0.8719   -2.1780 C   0  0  0  0  0  0  0  0  0  0  0  0
    3.3000    3.0551   -1.5017 C   0  0  0  0  0  0  0  0  0  0  0  0
    3.3765   -1.7050   -1.0011 C   0  0  0  0  0  0  0  0  0  0  0  0
    2.2788   -0.4770    0.9066 C   0  0  0  0  0  0  0  0  0  0  0  0
    3.6388    2.2353   -2.7386 C   0  0  0  0  0  0  0  0  0  0  0  0
    3.6196   -2.8876   -0.0651 C   0  0  0  0  0  0  0  0  0  0  0  0
    2.5431   -1.6850    1.8051 C   0  0  0  0  0  0  0  0  0  0  0  0
    1.5482    2.2808    0.1705 C   0  0  0  0  0  0  0  0  0  0  0  0
    1.8789   -4.0729    1.2337 C   0  0  0  0  0  0  0  0  0  0  0  0
    0.8750   -4.0219    2.3576 C   0  0  0  0  0  0  0  0  0  0  0  0
   -0.4429    2.4091    0.7167 C   0  0  0  0  0  0  0  0  0  0  0  0
   -1.8612    2.1952    0.7025 C   0  0  0  0  0  0  0  0  0  0  0  0
   -2.3945    1.0939    0.0418 C   0  0  0  0  0  0  0  0  0  0  0  0
   -2.7082    3.0873    1.3507 C   0  0  0  0  0  0  0  0  0  0  0  0
   -3.7704    0.9312    0.0587 C   0  0  0  0  0  0  0  0  0  0  0  0
   -4.0700    2.8354    1.3091 C   0  0  0  0  0  0  0  0  0  0  0  0
   -3.4755   -1.1395   -1.3018 C   0  0  0  0  0  0  0  0  0  0  0  0
   -4.3386   -2.2058   -1.9545 C   0  0  0  0  0  0  0  0  0  0  0  0
   -5.8881   -3.9176   -1.5164 C   0  0  0  0  0  0  0  0  0  0  0  0
    4.3054   -0.2207    0.2437 H   0  0  0  0  0  0  0  0  0  0  0  0
    3.6662    2.0847    0.3739 H   0  0  0  0  0  0  0  0  0  0  0  0
    3.9012    0.1140   -2.9619 H   0  0  0  0  0  0  0  0  0  0  0  0
    5.0155    0.8745   -1.7892 H   0  0  0  0  0  0  0  0  0  0  0  0
    2.5094    3.7810   -1.7206 H   0  0  0  0  0  0  0  0  0  0  0  0
    4.1872    3.6122   -1.1767 H   0  0  0  0  0  0  0  0  0  0  0  0
    4.1818   -1.7012   -1.7436 H   0  0  0  0  0  0  0  0  0  0  0  0
    2.4324   -1.8617   -1.5399 H   0  0  0  0  0  0  0  0  0  0  0  0
    2.3103    0.3922    1.5686 H   0  0  0  0  0  0  0  0  0  0  0  0
    1.2693   -0.5745    0.4882 H   0  0  0  0  0  0  0  0  0  0  0  0
    4.4579    2.6757   -3.3147 H   0  0  0  0  0  0  0  0  0  0  0  0
    2.7601    2.1670   -3.3921 H   0  0  0  0  0  0  0  0  0  0  0  0
    3.6018   -3.8204   -0.6375 H   0  0  0  0  0  0  0  0  0  0  0  0
    4.6076   -2.8099    0.4040 H   0  0  0  0  0  0  0  0  0  0  0  0
    3.5021   -1.5721    2.3251 H   0  0  0  0  0  0  0  0  0  0  0  0
    1.7675   -1.7435    2.5708 H   0  0  0  0  0  0  0  0  0  0  0  0
    0.1328   -3.2424    2.1664 H   0  0  0  0  0  0  0  0  0  0  0  0
    1.3819   -3.8453    3.3099 H   0  0  0  0  0  0  0  0  0  0  0  0
    0.3523   -4.9813    2.4224 H   0  0  0  0  0  0  0  0  0  0  0  0
   -1.7271    0.3984   -0.4546 H   0  0  0  0  0  0  0  0  0  0  0  0
   -2.3462    3.9651    1.8761 H   0  0  0  0  0  0  0  0  0  0  0  0
   -4.7735    3.5015    1.7977 H   0  0  0  0  0  0  0  0  0  0  0  0
   -5.3064   -0.3044   -0.5973 H   0  0  0  0  0  0  0  0  0  0  0  0
   -2.8838   -0.6543   -2.0868 H   0  0  0  0  0  0  0  0  0  0  0  0
   -2.7985   -1.6301   -0.5919 H   0  0  0  0  0  0  0  0  0  0  0  0
   -5.0382   -1.7470   -2.6639 H   0  0  0  0  0  0  0  0  0  0  0  0
   -3.6992   -2.9111   -2.4979 H   0  0  0  0  0  0  0  0  0  0  0  0
   -6.6223   -3.4818   -2.2009 H   0  0  0  0  0  0  0  0  0  0  0  0
   -5.2763   -4.6580   -2.0407 H   0  0  0  0  0  0  0  0  0  0  0  0
   -6.4226   -4.4186   -0.7049 H   0  0  0  0  0  0  0  0  0  0  0  0
  1  7  1  0  0  0  0
  1 19  1  0  0  0  0
  2 20  2  0  0  0  0
  3 29  1  0  0  0  0
  3 30  1  0  0  0  0
  4 10  1  0  0  0  0
  4 11  1  0  0  0  0
  4 12  1  0  0  0  0
  5 17  1  0  0  0  0
  5 18  1  0  0  0  0
  5 20  1  0  0  0  0
  6 19  2  0  0  0  0
  6 22  1  0  0  0  0
  7 22  2  0  0  0  0
  8 26  2  0  0  0  0
  8 27  1  0  0  0  0
  9 26  1  0  0  0  0
  9 28  1  0  0  0  0
  9 53  1  0  0  0  0
 10 14  1  0  0  0  0
 10 15  1  0  0  0  0
 10 31  1  0  0  0  0
 11 13  1  0  0  0  0
 11 19  1  0  0  0  0
 11 32  1  0  0  0  0
 12 16  1  0  0  0  0
 12 33  1  0  0  0  0
 12 34  1  0  0  0  0
 13 16  1  0  0  0  0
 13 35  1  0  0  0  0
 13 36  1  0  0  0  0
 14 17  1  0  0  0  0
 14 37  1  0  0  0  0
 14 38  1  0  0  0  0
 15 18  1  0  0  0  0
 15 39  1  0  0  0  0
 15 40  1  0  0  0  0
 16 41  1  0  0  0  0
 16 42  1  0  0  0  0
 17 43  1  0  0  0  0
 17 44  1  0  0  0  0
 18 45  1  0  0  0  0
 18 46  1  0  0  0  0
 20 21  1  0  0  0  0
 21 47  1  0  0  0  0
 21 48  1  0  0  0  0
 21 49  1  0  0  0  0
 22 23  1  0  0  0  0
 23 24  2  0  0  0  0
 23 25  1  0  0  0  0
 24 26  1  0  0  0  0
 24 50  1  0  0  0  0
 25 27  2  0  0  0  0
 25 51  1  0  0  0  0
 27 52  1  0  0  0  0
 28 29  1  0  0  0  0
 28 54  1  0  0  0  0
 28 55  1  0  0  0  0
 29 56  1  0  0  0  0
 29 57  1  0  0  0  0
 30 58  1  0  0  0  0
 30 59  1  0  0  0  0
 30 60  1  0  0  0  0
M  END
> <PUBCHEM_COMPOUND_CID>
45783272

> <PUBCHEM_CONFORMER_RMSD>
1

> <PUBCHEM_CONFORMER_DIVERSEORDER>
1
95
75
35
80
56
59
77
5
97
96
25
66
86
54
69
18
13
92
16
29
70
6
99
55
4
93
27
23
79
94
22
28
91
68
100
65
67
45
64
42
31
57
47
83
103
89
63
87
50
61
24
72
3
39
41
88
26
76
36
48
98
32
30
17
38
78
84
71
81
10
58
34
62
43
37
44
85
90
33
74
15
102
20
101
60
49
7
46
8
40
19
73
21
51
82
53
9
52
12
11
2
14

> <PUBCHEM_MMFF94_PARTIAL_CHARGES>
30
1 -0.02
10 0.27
11 0.45
12 0.27
17 0.3
18 0.3
19 0.3
2 -0.57
20 0.57
21 0.06
22 0.46
23 0.05
24 -0.15
25 -0.15
26 0.41
27 0.16
28 0.37
29 0.28
3 -0.56
30 0.28
4 -0.81
5 -0.66
50 0.15
51 0.15
52 0.15
53 0.4
6 -0.57
7 -0.41
8 -0.62
9 -0.87

> <PUBCHEM_EFFECTIVE_ROTOR_COUNT>
10.2

> <PUBCHEM_PHARMACOPHORE_FEATURES>
10
1 2 acceptor
1 3 acceptor
1 4 cation
1 9 donor
3 6 7 22 cation
3 8 9 26 cation
5 1 6 7 19 22 rings
5 4 11 12 13 16 rings
6 5 10 14 15 17 18 rings
6 8 23 24 25 26 27 rings

> <PUBCHEM_HEAVY_ATOM_COUNT>
30

> <PUBCHEM_ATOM_DEF_STEREO_COUNT>
1

> <PUBCHEM_ATOM_UDEF_STEREO_COUNT>
0

> <PUBCHEM_BOND_DEF_STEREO_COUNT>
0

> <PUBCHEM_BOND_UDEF_STEREO_COUNT>
0

> <PUBCHEM_ISOTOPIC_ATOM_COUNT>
0

> <PUBCHEM_COMPONENT_COUNT>
1

> <PUBCHEM_CACTVS_TAUTO_COUNT>
2

> <PUBCHEM_CONFORMER_ID>
02BA98E800000001

> <PUBCHEM_MMFF94_ENERGY>
64.1398

> <PUBCHEM_FEATURE_SELFOVERLAP>
50.747

> <PUBCHEM_SHAPE_FINGERPRINT>
10928967 22 18270410399390948817
11186622 123 18343021133619153477
114674 6 17767111382786191329
14117953 113 17042323840262811589
14480069 147 18333740130573968875
14705955 166 15837880410178043208
14863182 85 18335704893581321488
15003188 105 18196074749966729919
15250474 111 18411700967801665109
15403338 16 17102853115313347659
15537594 2 18341348759359094225
17138139 8 18341060708750309668
17818456 19 17620204130771602528
19319366 153 18336277781144442972
20764821 26 18334867146417986843
20775530 9 17539971676364871330
21054139 6 18339366374322784540
21703447 108 17772173457243663177
235170 7 17168142386137543013
404807 78 17029373191142590587
4394409 98 17761480397383412797
4409770 3 17614870804129522588
444735 86 18198620128391463783
463206 1 18339082570914078034
474144 1 18337674100935326279
4756261 7 17978187778514078370
57527573 199 17263545004404253224
6422251 121 18195803192929777343
66674814 147 18186516639931517922
6823239 73 17346886645554012972
86090 222 17689988360317829979

> <PUBCHEM_SHAPE_MULTIPOLES>
569.89
10.73
6.89
2.24
13.37
6.67
-0.54
4.74
-6.01
0.11
2.24
-0.69
0.38
-6.45

> <PUBCHEM_SHAPE_SELFOVERLAP>
1200.452

> <PUBCHEM_SHAPE_VOLUME>
320.1

> <PUBCHEM_COORDINATE_TYPE>
2
5
10

$$$$
