40777985
  -OEChem-12032416173D

 62 64  0     1  0  0  0  0  0999 V2000
    3.2592    0.5970   -0.5181 O   0  0  0  0  0  0  0  0  0  0  0  0
    3.7554    3.9036    0.7933 O   0  0  0  0  0  0  0  0  0  0  0  0
    5.6138    2.5168   -0.6871 O   0  0  0  0  0  0  0  0  0  0  0  0
    1.0589    0.8675   -1.9730 O   0  0  0  0  0  0  0  0  0  0  0  0
    1.8683   -1.5548    0.9986 O   0  0  0  0  0  0  0  0  0  0  0  0
   -0.8531    1.1255   -0.6777 N   0  0  0  0  0  0  0  0  0  0  0  0
   -3.6556    0.6192   -0.1579 N   0  0  0  0  0  0  0  0  0  0  0  0
    4.1517   -1.8374    0.6763 N   0  0  0  0  0  0  0  0  0  0  0  0
    2.6950   -3.5503    0.1509 N   0  0  0  0  0  0  0  0  0  0  0  0
    2.7987    1.9367   -0.2682 C   0  0  2  0  0  0  0  0  0  0  0  0
    3.7169    2.4926    0.8070 C   0  0  1  0  0  0  0  0  0  0  0  0
    5.0391    1.8525    0.4376 C   0  0  1  0  0  0  0  0  0  0  0  0
    4.6047    0.4601   -0.0062 C   0  0  1  0  0  0  0  0  0  0  0  0
    1.3377    1.9068    0.1438 C   0  0  0  0  0  0  0  0  0  0  0  0
    4.5682   -0.5455    1.1364 C   0  0  0  0  0  0  0  0  0  0  0  0
    0.5124    1.2509   -0.9360 C   0  0  0  0  0  0  0  0  0  0  0  0
   -1.7206    0.5058   -1.6762 C   0  0  0  0  0  0  0  0  0  0  0  0
   -1.4987    1.5717    0.5590 C   0  0  0  0  0  0  0  0  0  0  0  0
   -2.8751   -0.2597   -1.0334 C   0  0  0  0  0  0  0  0  0  0  0  0
   -2.9996    1.8086    0.3910 C   0  0  0  0  0  0  0  0  0  0  0  0
   -4.9942    0.3464    0.1130 C   0  0  0  0  0  0  0  0  0  0  0  0
    2.8166   -2.2524    0.6409 C   0  0  0  0  0  0  0  0  0  0  0  0
   -5.4495   -0.9720    0.1208 C   0  0  0  0  0  0  0  0  0  0  0  0
   -5.8794    1.3916    0.3772 C   0  0  0  0  0  0  0  0  0  0  0  0
    1.4224   -4.2183    0.0120 C   0  0  0  0  0  0  0  0  0  0  0  0
   -6.7901   -1.2454    0.3930 C   0  0  0  0  0  0  0  0  0  0  0  0
   -7.2200    1.1182    0.6494 C   0  0  0  0  0  0  0  0  0  0  0  0
   -7.6752   -0.2003    0.6575 C   0  0  0  0  0  0  0  0  0  0  0  0
    1.5853   -5.7176    0.2250 C   0  0  0  0  0  0  0  0  0  0  0  0
    0.8065   -3.9177   -1.3489 C   0  0  0  0  0  0  0  0  0  0  0  0
    2.9081    2.5077   -1.2001 H   0  0  0  0  0  0  0  0  0  0  0  0
    3.3996    2.1568    1.8015 H   0  0  0  0  0  0  0  0  0  0  0  0
    5.7725    1.8685    1.2487 H   0  0  0  0  0  0  0  0  0  0  0  0
    5.2250    0.0781   -0.8255 H   0  0  0  0  0  0  0  0  0  0  0  0
    0.9854    2.9297    0.3079 H   0  0  0  0  0  0  0  0  0  0  0  0
    1.2153    1.3245    1.0642 H   0  0  0  0  0  0  0  0  0  0  0  0
    3.8763   -0.2243    1.9227 H   0  0  0  0  0  0  0  0  0  0  0  0
    5.5633   -0.6610    1.5778 H   0  0  0  0  0  0  0  0  0  0  0  0
   -1.1376   -0.1635   -2.3178 H   0  0  0  0  0  0  0  0  0  0  0  0
   -2.1032    1.3152   -2.3102 H   0  0  0  0  0  0  0  0  0  0  0  0
   -1.0289    2.4877    0.9259 H   0  0  0  0  0  0  0  0  0  0  0  0
   -1.3206    0.7874    1.3050 H   0  0  0  0  0  0  0  0  0  0  0  0
   -3.4998   -0.6657   -1.8383 H   0  0  0  0  0  0  0  0  0  0  0  0
   -2.4822   -1.0996   -0.4472 H   0  0  0  0  0  0  0  0  0  0  0  0
   -3.4082    2.0662    1.3757 H   0  0  0  0  0  0  0  0  0  0  0  0
   -3.1703    2.6584   -0.2813 H   0  0  0  0  0  0  0  0  0  0  0  0
    4.4442    4.1823    1.4203 H   0  0  0  0  0  0  0  0  0  0  0  0
    6.4377    2.0507   -0.9100 H   0  0  0  0  0  0  0  0  0  0  0  0
    4.8645   -2.4825    0.3496 H   0  0  0  0  0  0  0  0  0  0  0  0
   -4.7838   -1.8102   -0.0660 H   0  0  0  0  0  0  0  0  0  0  0  0
   -5.5620    2.4306    0.3630 H   0  0  0  0  0  0  0  0  0  0  0  0
    3.5299   -4.0174   -0.1901 H   0  0  0  0  0  0  0  0  0  0  0  0
    0.7482   -3.8315    0.7858 H   0  0  0  0  0  0  0  0  0  0  0  0
   -7.1443   -2.2721    0.4024 H   0  0  0  0  0  0  0  0  0  0  0  0
   -7.9104    1.9319    0.8516 H   0  0  0  0  0  0  0  0  0  0  0  0
   -8.7189   -0.4131    0.8695 H   0  0  0  0  0  0  0  0  0  0  0  0
    0.6202   -6.2302    0.1572 H   0  0  0  0  0  0  0  0  0  0  0  0
    2.0105   -5.9252    1.2131 H   0  0  0  0  0  0  0  0  0  0  0  0
    2.2574   -6.1554   -0.5214 H   0  0  0  0  0  0  0  0  0  0  0  0
   -0.1680   -4.4057   -1.4543 H   0  0  0  0  0  0  0  0  0  0  0  0
    0.6601   -2.8402   -1.4833 H   0  0  0  0  0  0  0  0  0  0  0  0
    1.4529   -4.2655   -2.1625 H   0  0  0  0  0  0  0  0  0  0  0  0
  1 10  1  0  0  0  0
  1 13  1  0  0  0  0
  2 11  1  0  0  0  0
  2 47  1  0  0  0  0
  3 12  1  0  0  0  0
  3 48  1  0  0  0  0
  4 16  2  0  0  0  0
  5 22  2  0  0  0  0
  6 16  1  0  0  0  0
  6 17  1  0  0  0  0
  6 18  1  0  0  0  0
  7 19  1  0  0  0  0
  7 20  1  0  0  0  0
  7 21  1  0  0  0  0
  8 15  1  0  0  0  0
  8 22  1  0  0  0  0
  8 49  1  0  0  0  0
  9 22  1  0  0  0  0
  9 25  1  0  0  0  0
  9 52  1  0  0  0  0
 10 11  1  0  0  0  0
 10 14  1  0  0  0  0
 10 31  1  0  0  0  0
 11 12  1  0  0  0  0
 11 32  1  0  0  0  0
 12 13  1  0  0  0  0
 12 33  1  0  0  0  0
 13 15  1  0  0  0  0
 13 34  1  0  0  0  0
 14 16  1  0  0  0  0
 14 35  1  0  0  0  0
 14 36  1  0  0  0  0
 15 37  1  0  0  0  0
 15 38  1  0  0  0  0
 17 19  1  0  0  0  0
 17 39  1  0  0  0  0
 17 40  1  0  0  0  0
 18 20  1  0  0  0  0
 18 41  1  0  0  0  0
 18 42  1  0  0  0  0
 19 43  1  0  0  0  0
 19 44  1  0  0  0  0
 20 45  1  0  0  0  0
 20 46  1  0  0  0  0
 21 23  2  0  0  0  0
 21 24  1  0  0  0  0
 23 26  1  0  0  0  0
 23 50  1  0  0  0  0
 24 27  2  0  0  0  0
 24 51  1  0  0  0  0
 25 29  1  0  0  0  0
 25 30  1  0  0  0  0
 25 53  1  0  0  0  0
 26 28  2  0  0  0  0
 26 54  1  0  0  0  0
 27 28  1  0  0  0  0
 27 55  1  0  0  0  0
 28 56  1  0  0  0  0
 29 57  1  0  0  0  0
 29 58  1  0  0  0  0
 29 59  1  0  0  0  0
 30 60  1  0  0  0  0
 30 61  1  0  0  0  0
 30 62  1  0  0  0  0
M  END
> <PUBCHEM_COMPOUND_CID>
40777985

> <PUBCHEM_CONFORMER_RMSD>
1

> <PUBCHEM_CONFORMER_DIVERSEORDER>
1
27
134
123
137
20
107
101
97
103
100
88
25
93
77
131
46
28
92
43
15
63
34
99
136
38
96
71
6
90
113
67
124
95
141
41
85
118
84
13
144
56
18
122
80
105
57
120
47
66
87
94
35
114
31
62
39
81
89
36
106
75
23
79
11
51
52
4
37
73
112
33
82
14
91
116
55
98
54
126
121
108
74
49
115
83
127
26
61
142
60
70
110
109
140
7
30
119
2
40
139
17
50
45
48
69
65
132
58
53
129
10
32
78
133
86
72
59
130
64
29
76
44
42
9
111
3
21
68
19
125
138
104
102
5
117
24
12
135
8
22
128
143
16

> <PUBCHEM_MMFF94_PARTIAL_CHARGES>
37
1 -0.56
10 0.28
11 0.28
12 0.28
13 0.28
14 0.06
15 0.3
16 0.57
17 0.3
18 0.3
19 0.37
2 -0.68
20 0.37
21 0.1
22 0.69
23 -0.15
24 -0.15
25 0.3
26 -0.15
27 -0.15
28 -0.15
3 -0.68
4 -0.57
47 0.4
48 0.4
49 0.37
5 -0.57
50 0.15
51 0.15
52 0.37
54 0.15
55 0.15
56 0.15
6 -0.66
7 -0.84
8 -0.73
9 -0.73

> <PUBCHEM_EFFECTIVE_ROTOR_COUNT>
11.2

> <PUBCHEM_PHARMACOPHORE_FEATURES>
14
1 1 acceptor
1 2 acceptor
1 2 donor
1 3 acceptor
1 3 donor
1 4 acceptor
1 5 acceptor
1 7 cation
1 8 donor
1 9 donor
3 25 29 30 hydrophobe
5 1 10 11 12 13 rings
6 21 23 24 26 27 28 rings
6 6 7 17 18 19 20 rings

> <PUBCHEM_HEAVY_ATOM_COUNT>
30

> <PUBCHEM_ATOM_DEF_STEREO_COUNT>
4

> <PUBCHEM_ATOM_UDEF_STEREO_COUNT>
0

> <PUBCHEM_BOND_DEF_STEREO_COUNT>
0

> <PUBCHEM_BOND_UDEF_STEREO_COUNT>
0

> <PUBCHEM_ISOTOPIC_ATOM_COUNT>
0

> <PUBCHEM_COMPONENT_COUNT>
1

> <PUBCHEM_CACTVS_TAUTO_COUNT>
3

> <PUBCHEM_CONFORMER_ID>
026E390100000001

> <PUBCHEM_MMFF94_ENERGY>
80.0485

> <PUBCHEM_FEATURE_SELFOVERLAP>
71.116

> <PUBCHEM_SHAPE_FINGERPRINT>
10165383 225 18261115236113590884
10316853 100 18335425655760644034
10816530 23 18048877695449841168
11014199 57 17475513876918618674
11456790 92 12175634961826221039
12128747 34 18336264523324705573
12596602 18 18201723985418941793
12788726 201 17346325877702324729
13533116 47 18410012122020318065
1361 2 18409450292942604331
13692114 37 18266168607742721162
13785724 45 17767694858071984655
14211702 104 17676781976170088475
14863182 85 18261116279088244446
15064986 96 17199943354467947238
15183329 4 14056714648041417165
15392192 104 17896336860235030057
15419008 42 17752743772414627141
15721738 202 18411702049911722411
15927050 60 18270963561114747247
15950262 2 15408324586740676690
16992610 120 18190193463615487796
17492 89 18194962933405213963
17859628 70 18337953364136040374
19319366 153 18272362105164854274
19427546 62 18194120944080845488
1979834 28 18334856099883199202
20028762 73 18342737386853059062
21133410 230 14238035801476419960
21197605 99 18335143145596692603
21304303 94 18339096942971760308
21344244 181 18272103682327914774
21421861 104 18272373027451304703
3117164 225 17837498453695153321
3178227 256 18408879617155179858
3886686 26 17405433196054598369
404807 14 17545890322152077291
4073 2 18191308384720296761
4340502 62 18410292548840391956
5309563 4 17979355261940884046
653340 110 17763454415660035914
77296 10 18337956658850976729
86090 222 17750245728888162491
9658208 31 18125723637437047808

> <PUBCHEM_SHAPE_MULTIPOLES>
568.12
16.71
5.41
1.17
29.21
9.03
-0.39
-5.54
5.03
-8.89
0.33
-0.24
-0.01
-0.32

> <PUBCHEM_SHAPE_SELFOVERLAP>
1178.211

> <PUBCHEM_SHAPE_VOLUME>
323.5

> <PUBCHEM_COORDINATE_TYPE>
2
5
10

$$$$
