11882571
  -OEChem-12032416123D

 64 66  0     1  0  0  0  0  0999 V2000
   -2.0768   -1.2834    0.0481 S   0  0  0  0  0  0  0  0  0  0  0  0
   -8.3011    0.0935   -0.6128 F   0  0  0  0  0  0  0  0  0  0  0  0
   -6.8855    0.2640   -2.2470 F   0  0  0  0  0  0  0  0  0  0  0  0
   -7.3842   -1.6945   -1.4442 F   0  0  0  0  0  0  0  0  0  0  0  0
    1.3611    1.6164    2.4338 O   0  0  0  0  0  0  0  0  0  0  0  0
   -2.1029    2.8617   -0.1962 O   0  0  0  0  0  0  0  0  0  0  0  0
    0.1438    4.7051   -0.2876 O   0  0  0  0  0  0  0  0  0  0  0  0
    3.7795    0.9201    2.0936 O   0  0  0  0  0  0  0  0  0  0  0  0
   -1.3859   -1.6297    1.2756 O   0  0  0  0  0  0  0  0  0  0  0  0
   -2.2600   -2.2779   -0.9915 O   0  0  0  0  0  0  0  0  0  0  0  0
    5.1262    2.5761   -1.9715 O   0  0  0  0  0  0  0  0  0  0  0  0
    2.5821   -5.1082    0.9260 O   0  0  0  0  0  0  0  0  0  0  0  0
   -1.3602    0.0901   -0.6384 N   0  0  0  0  0  0  0  0  0  0  0  0
    3.6714    1.0249   -0.2294 N   0  0  0  0  0  0  0  0  0  0  0  0
    7.0200    1.9834   -0.8145 N   0  0  0  0  0  0  0  0  0  0  0  0
    1.7280    1.5748    1.0600 C   0  0  1  0  0  0  0  0  0  0  0  0
   -0.6071    1.0381    0.2275 C   0  0  1  0  0  0  0  0  0  0  0  0
    0.8513    0.5771    0.3010 C   0  0  0  0  0  0  0  0  0  0  0  0
   -0.7407    2.4532   -0.3447 C   0  0  2  0  0  0  0  0  0  0  0  0
    1.6074    2.9774    0.4677 C   0  0  0  0  0  0  0  0  0  0  0  0
    0.1552    3.4521    0.3960 C   0  0  1  0  0  0  0  0  0  0  0  0
    3.1620    1.1322    1.0533 C   0  0  0  0  0  0  0  0  0  0  0  0
    5.0356    0.6379   -0.5084 C   0  0  1  0  0  0  0  0  0  0  0  0
   -3.6836   -0.6845    0.4773 C   0  0  0  0  0  0  0  0  0  0  0  0
    5.1141   -0.6098   -1.3954 C   0  0  0  0  0  0  0  0  0  0  0  0
    5.7047    1.8195   -1.1953 C   0  0  0  0  0  0  0  0  0  0  0  0
   -4.7307   -0.7776   -0.4395 C   0  0  0  0  0  0  0  0  0  0  0  0
   -3.9046   -0.1201    1.7336 C   0  0  0  0  0  0  0  0  0  0  0  0
    4.4393   -1.8096   -0.7764 C   0  0  0  0  0  0  0  0  0  0  0  0
   -5.9988   -0.3062   -0.1000 C   0  0  0  0  0  0  0  0  0  0  0  0
   -5.1729    0.3513    2.0730 C   0  0  0  0  0  0  0  0  0  0  0  0
   -6.2199    0.2582    1.1563 C   0  0  0  0  0  0  0  0  0  0  0  0
    5.1669   -2.6757    0.0401 C   0  0  0  0  0  0  0  0  0  0  0  0
    3.0877   -2.0522   -1.0207 C   0  0  0  0  0  0  0  0  0  0  0  0
   -7.1188   -0.4062   -1.0799 C   0  0  0  0  0  0  0  0  0  0  0  0
    4.5427   -3.7842    0.6120 C   0  0  0  0  0  0  0  0  0  0  0  0
    2.4635   -3.1608   -0.4490 C   0  0  0  0  0  0  0  0  0  0  0  0
    3.1911   -4.0267    0.3674 C   0  0  0  0  0  0  0  0  0  0  0  0
   -1.0510    1.0233    1.2306 H   0  0  0  0  0  0  0  0  0  0  0  0
    0.9021   -0.4051    0.7869 H   0  0  0  0  0  0  0  0  0  0  0  0
    1.2115    0.4279   -0.7235 H   0  0  0  0  0  0  0  0  0  0  0  0
   -0.5211    2.4712   -1.4189 H   0  0  0  0  0  0  0  0  0  0  0  0
    2.1793    3.6941    1.0732 H   0  0  0  0  0  0  0  0  0  0  0  0
    2.0423    3.0386   -0.5380 H   0  0  0  0  0  0  0  0  0  0  0  0
   -0.2389    3.6349    1.4031 H   0  0  0  0  0  0  0  0  0  0  0  0
   -1.1160    0.0876   -1.6364 H   0  0  0  0  0  0  0  0  0  0  0  0
    1.3369    0.7043    2.7704 H   0  0  0  0  0  0  0  0  0  0  0  0
   -2.3185    2.8578    0.7520 H   0  0  0  0  0  0  0  0  0  0  0  0
    0.6946    5.3234    0.2223 H   0  0  0  0  0  0  0  0  0  0  0  0
    3.0942    1.2635   -1.0291 H   0  0  0  0  0  0  0  0  0  0  0  0
    5.5444    0.4403    0.4431 H   0  0  0  0  0  0  0  0  0  0  0  0
    6.1633   -0.8512   -1.6120 H   0  0  0  0  0  0  0  0  0  0  0  0
    4.6590   -0.4086   -2.3751 H   0  0  0  0  0  0  0  0  0  0  0  0
   -4.5699   -1.2088   -1.4241 H   0  0  0  0  0  0  0  0  0  0  0  0
   -3.1024   -0.0338    2.4608 H   0  0  0  0  0  0  0  0  0  0  0  0
   -5.3445    0.7920    3.0507 H   0  0  0  0  0  0  0  0  0  0  0  0
   -7.2004    0.6312    1.4390 H   0  0  0  0  0  0  0  0  0  0  0  0
    7.5782    2.7444   -1.1870 H   0  0  0  0  0  0  0  0  0  0  0  0
    7.4848    1.3530   -0.1690 H   0  0  0  0  0  0  0  0  0  0  0  0
    6.2199   -2.4955    0.2395 H   0  0  0  0  0  0  0  0  0  0  0  0
    2.5123   -1.3926   -1.6640 H   0  0  0  0  0  0  0  0  0  0  0  0
    5.1144   -4.4548    1.2477 H   0  0  0  0  0  0  0  0  0  0  0  0
    1.4099   -3.3385   -0.6480 H   0  0  0  0  0  0  0  0  0  0  0  0
    1.6489   -5.1206    0.6517 H   0  0  0  0  0  0  0  0  0  0  0  0
  1  9  2  0  0  0  0
  1 10  2  0  0  0  0
  1 13  1  0  0  0  0
  1 24  1  0  0  0  0
  2 35  1  0  0  0  0
  3 35  1  0  0  0  0
  4 35  1  0  0  0  0
  5 16  1  0  0  0  0
  5 47  1  0  0  0  0
  6 19  1  0  0  0  0
  6 48  1  0  0  0  0
  7 21  1  0  0  0  0
  7 49  1  0  0  0  0
  8 22  2  0  0  0  0
 11 26  2  0  0  0  0
 12 38  1  0  0  0  0
 12 64  1  0  0  0  0
 13 17  1  0  0  0  0
 13 46  1  0  0  0  0
 14 22  1  0  0  0  0
 14 23  1  0  0  0  0
 14 50  1  0  0  0  0
 15 26  1  0  0  0  0
 15 58  1  0  0  0  0
 15 59  1  0  0  0  0
 16 18  1  0  0  0  0
 16 20  1  0  0  0  0
 16 22  1  0  0  0  0
 17 18  1  0  0  0  0
 17 19  1  0  0  0  0
 17 39  1  0  0  0  0
 18 40  1  0  0  0  0
 18 41  1  0  0  0  0
 19 21  1  0  0  0  0
 19 42  1  0  0  0  0
 20 21  1  0  0  0  0
 20 43  1  0  0  0  0
 20 44  1  0  0  0  0
 21 45  1  0  0  0  0
 23 25  1  0  0  0  0
 23 26  1  0  0  0  0
 23 51  1  0  0  0  0
 24 27  1  0  0  0  0
 24 28  2  0  0  0  0
 25 29  1  0  0  0  0
 25 52  1  0  0  0  0
 25 53  1  0  0  0  0
 27 30  2  0  0  0  0
 27 54  1  0  0  0  0
 28 31  1  0  0  0  0
 28 55  1  0  0  0  0
 29 33  2  0  0  0  0
 29 34  1  0  0  0  0
 30 32  1  0  0  0  0
 30 35  1  0  0  0  0
 31 32  2  0  0  0  0
 31 56  1  0  0  0  0
 32 57  1  0  0  0  0
 33 36  1  0  0  0  0
 33 60  1  0  0  0  0
 34 37  2  0  0  0  0
 34 61  1  0  0  0  0
 36 38  2  0  0  0  0
 36 62  1  0  0  0  0
 37 38  1  0  0  0  0
 37 63  1  0  0  0  0
M  END
> <PUBCHEM_COMPOUND_CID>
11882571

> <PUBCHEM_CONFORMER_RMSD>
1.4

> <PUBCHEM_CONFORMER_DIVERSEORDER>
3
205
61
13
10
17
53
77
156
173
180
52
167
202
190
49
51
31
185
188
87
177
197
159
6
179
195
174
143
182
80
85
151
141
194
83
62
43
36
86
138
40
91
112
187
100
145
24
171
92
146
170
26
114
4
109
102
196
72
123
94
200
65
186
89
165
67
115
34
82
149
41
55
111
125
169
105
129
199
104
48
113
137
99
175
66
33
58
139
106
162
119
46
25
60
42
103
161
70
97
98
153
124
152
76
108
95
172
107
157
14
19
144
191
184
127
47
192
74
136
9
78
198
193
18
15
189
201
181
176
71
122
147
39
84
73
8
203
75
23
128
30
142
134
38
120
45
154
5
133
140
130
204
50
37
135
158
126
44
64
110
163
22
166
56
27
20
93
35
32
2
21
148
90
68
178
16
96
101
1
118
81
29
79
132
88
57
164
59
160
168
183
12
11
7
63
28
155
117
54
69
150
121
116
131

> <PUBCHEM_MMFF94_PARTIAL_CHARGES>
52
1 1.45
10 -0.65
11 -0.57
12 -0.53
13 -0.91
14 -0.73
15 -0.8
16 0.34
17 0.36
19 0.28
2 -0.34
21 0.28
22 0.57
23 0.36
24 -0.01
25 0.14
26 0.57
27 -0.15
28 -0.15
29 -0.14
3 -0.34
30 -0.14
31 -0.15
32 -0.15
33 -0.15
34 -0.15
35 1.16
36 -0.15
37 -0.15
38 0.08
4 -0.34
46 0.42
47 0.4
48 0.4
49 0.4
5 -0.68
50 0.37
54 0.15
55 0.15
56 0.15
57 0.15
58 0.37
59 0.37
6 -0.68
60 0.15
61 0.15
62 0.15
63 0.15
64 0.45
7 -0.68
8 -0.57
9 -0.65

> <PUBCHEM_EFFECTIVE_ROTOR_COUNT>
11.2

> <PUBCHEM_PHARMACOPHORE_FEATURES>
17
1 10 acceptor
1 11 acceptor
1 12 donor
1 13 donor
1 14 donor
1 15 donor
1 5 acceptor
1 5 donor
1 6 acceptor
1 6 donor
1 7 acceptor
1 7 donor
1 8 acceptor
1 9 acceptor
6 16 17 18 19 20 21 rings
6 24 27 28 30 31 32 rings
6 29 33 34 36 37 38 rings

> <PUBCHEM_HEAVY_ATOM_COUNT>
38

> <PUBCHEM_ATOM_DEF_STEREO_COUNT>
5

> <PUBCHEM_ATOM_UDEF_STEREO_COUNT>
0

> <PUBCHEM_BOND_DEF_STEREO_COUNT>
0

> <PUBCHEM_BOND_UDEF_STEREO_COUNT>
0

> <PUBCHEM_ISOTOPIC_ATOM_COUNT>
0

> <PUBCHEM_COMPONENT_COUNT>
1

> <PUBCHEM_CACTVS_TAUTO_COUNT>
8

> <PUBCHEM_CONFORMER_ID>
00B5504B00000003

> <PUBCHEM_MMFF94_ENERGY>
75.845

> <PUBCHEM_FEATURE_SELFOVERLAP>
86.321

> <PUBCHEM_SHAPE_FINGERPRINT>
10675989 125 18335709347351468586
13533116 47 18343300349179465219
13617811 41 18408602595305739812
14068700 675 17775284924588394345
14415360 78 18049996989886931796
14725015 67 18267576919330253226
14840074 17 18202571678418227183
15001296 14 17417517137812535151
15183329 4 17989211451701859723
15276724 80 18336552603570415813
1577012 14 17917999365226418683
16067689 302 18411709811752147171
17492 89 18122350073775151318
19319366 153 18409732868111834078
23522609 53 17985578643435111145
23559900 14 18268993253483463169
24771750 20 17464275081112732741
27425 322 16734112421799308082
3534868 343 18335998484465972436
463206 1 18341335578226035418
513532 50 17060621110014217426

> <PUBCHEM_SHAPE_MULTIPOLES>
702.15
18.32
5.08
1.67
25.14
1.52
0.28
4.61
-6.95
-8.27
0.35
0.88
-0.29
-1.67

> <PUBCHEM_SHAPE_SELFOVERLAP>
1482.331

> <PUBCHEM_SHAPE_VOLUME>
396.6

> <PUBCHEM_COORDINATE_TYPE>
2
5
10

$$$$
