51136818
  -OEChem-12032416223D

 59 62  0     1  0  0  0  0  0999 V2000
   -2.5616   -0.3976   -1.8580 O   0  0  0  0  0  0  0  0  0  0  0  0
    8.2971   -0.6821    0.2992 O   0  0  0  0  0  0  0  0  0  0  0  0
   -5.5143   -0.0706    0.0191 N   0  0  1  0  0  0  0  0  0  0  0  0
    3.4979    0.1704    0.3517 N   0  0  0  0  0  0  0  0  0  0  0  0
   -2.5107    0.8518    0.0002 N   0  0  0  0  0  0  0  0  0  0  0  0
    6.0863   -0.6572   -0.4088 N   0  0  0  0  0  0  0  0  0  0  0  0
   -1.2185   -0.3386   -1.4650 N   0  0  0  0  0  0  0  0  0  0  0  0
    2.1786    1.4085    1.8784 N   0  0  0  0  0  0  0  0  0  0  0  0
   -4.7517    0.4208   -1.1459 C   0  0  1  0  0  0  0  0  0  0  0  0
   -5.2364    1.8682   -1.3484 C   0  0  0  0  0  0  0  0  0  0  0  0
   -6.7742    0.6729    0.0318 C   0  0  0  0  0  0  0  0  0  0  0  0
   -6.3118    2.0791   -0.2921 C   0  0  0  0  0  0  0  0  0  0  0  0
   -5.7283   -1.5119   -0.0010 C   0  0  0  0  0  0  0  0  0  0  0  0
   -4.5177   -2.2932    0.5380 C   0  0  0  0  0  0  0  0  0  0  0  0
   -3.2539    0.3290   -0.9421 C   0  0  0  0  0  0  0  0  0  0  0  0
   -4.2397   -1.8806    1.9860 C   0  0  0  0  0  0  0  0  0  0  0  0
   -4.7168   -3.8093    0.4643 C   0  0  0  0  0  0  0  0  0  0  0  0
    4.5133   -0.0748    1.3886 C   0  0  0  0  0  0  0  0  0  0  0  0
    4.0090    0.5365   -0.9763 C   0  0  0  0  0  0  0  0  0  0  0  0
    5.5542   -1.0728    0.8865 C   0  0  0  0  0  0  0  0  0  0  0  0
    5.0627   -0.4696   -1.4387 C   0  0  0  0  0  0  0  0  0  0  0  0
   -1.2699    0.4150   -0.3626 C   0  0  0  0  0  0  0  0  0  0  0  0
    2.2476    0.6434    0.7660 C   0  0  0  0  0  0  0  0  0  0  0  0
   -0.0999    0.7511    0.3984 C   0  0  0  0  0  0  0  0  0  0  0  0
    1.1494    0.2898   -0.0015 C   0  0  0  0  0  0  0  0  0  0  0  0
    7.4583   -0.4954   -0.5858 C   0  0  0  0  0  0  0  0  0  0  0  0
   -0.2112    1.5407    1.5376 C   0  0  0  0  0  0  0  0  0  0  0  0
    0.9477    1.8383    2.2361 C   0  0  0  0  0  0  0  0  0  0  0  0
    7.9144   -0.0619   -1.9558 C   0  0  0  0  0  0  0  0  0  0  0  0
   -5.0180   -0.1415   -2.0519 H   0  0  0  0  0  0  0  0  0  0  0  0
   -4.4457    2.6204   -1.2545 H   0  0  0  0  0  0  0  0  0  0  0  0
   -5.6796    1.9716   -2.3465 H   0  0  0  0  0  0  0  0  0  0  0  0
   -7.2703    0.6276    1.0062 H   0  0  0  0  0  0  0  0  0  0  0  0
   -7.4670    0.3131   -0.7395 H   0  0  0  0  0  0  0  0  0  0  0  0
   -5.8741    2.5520    0.5959 H   0  0  0  0  0  0  0  0  0  0  0  0
   -7.1253    2.7163   -0.6511 H   0  0  0  0  0  0  0  0  0  0  0  0
   -6.5864   -1.7612    0.6391 H   0  0  0  0  0  0  0  0  0  0  0  0
   -5.9957   -1.8655   -1.0053 H   0  0  0  0  0  0  0  0  0  0  0  0
   -3.6287   -2.0779   -0.0603 H   0  0  0  0  0  0  0  0  0  0  0  0
   -5.1071   -2.0690    2.6282 H   0  0  0  0  0  0  0  0  0  0  0  0
   -3.3951   -2.4485    2.3919 H   0  0  0  0  0  0  0  0  0  0  0  0
   -3.9804   -0.8203    2.0659 H   0  0  0  0  0  0  0  0  0  0  0  0
   -5.5782   -4.1252    1.0624 H   0  0  0  0  0  0  0  0  0  0  0  0
   -3.8326   -4.3389    0.8343 H   0  0  0  0  0  0  0  0  0  0  0  0
   -4.8890   -4.1247   -0.5701 H   0  0  0  0  0  0  0  0  0  0  0  0
    4.9982    0.8738    1.6514 H   0  0  0  0  0  0  0  0  0  0  0  0
    4.0543   -0.4837    2.2972 H   0  0  0  0  0  0  0  0  0  0  0  0
    4.4505    1.5396   -0.9202 H   0  0  0  0  0  0  0  0  0  0  0  0
    3.2128    0.5737   -1.7279 H   0  0  0  0  0  0  0  0  0  0  0  0
    5.0998   -2.0613    0.7473 H   0  0  0  0  0  0  0  0  0  0  0  0
    6.3546   -1.1795    1.6253 H   0  0  0  0  0  0  0  0  0  0  0  0
    5.4885   -0.1412   -2.3885 H   0  0  0  0  0  0  0  0  0  0  0  0
    4.6002   -1.4492   -1.6113 H   0  0  0  0  0  0  0  0  0  0  0  0
    1.2696   -0.3434   -0.8756 H   0  0  0  0  0  0  0  0  0  0  0  0
   -1.1614    1.9260    1.8927 H   0  0  0  0  0  0  0  0  0  0  0  0
    0.9152    2.4505    3.1314 H   0  0  0  0  0  0  0  0  0  0  0  0
    7.4850    0.9117   -2.2065 H   0  0  0  0  0  0  0  0  0  0  0  0
    7.6329   -0.8094   -2.7022 H   0  0  0  0  0  0  0  0  0  0  0  0
    9.0046    0.0340   -1.9632 H   0  0  0  0  0  0  0  0  0  0  0  0
  1  7  1  0  0  0  0
  1 15  1  0  0  0  0
  2 26  2  0  0  0  0
  3  9  1  0  0  0  0
  3 11  1  0  0  0  0
  3 13  1  0  0  0  0
  4 18  1  0  0  0  0
  4 19  1  0  0  0  0
  4 23  1  0  0  0  0
  5 15  2  0  0  0  0
  5 22  1  0  0  0  0
  6 20  1  0  0  0  0
  6 21  1  0  0  0  0
  6 26  1  0  0  0  0
  7 22  2  0  0  0  0
  8 23  2  0  0  0  0
  8 28  1  0  0  0  0
  9 10  1  0  0  0  0
  9 15  1  0  0  0  0
  9 30  1  0  0  0  0
 10 12  1  0  0  0  0
 10 31  1  0  0  0  0
 10 32  1  0  0  0  0
 11 12  1  0  0  0  0
 11 33  1  0  0  0  0
 11 34  1  0  0  0  0
 12 35  1  0  0  0  0
 12 36  1  0  0  0  0
 13 14  1  0  0  0  0
 13 37  1  0  0  0  0
 13 38  1  0  0  0  0
 14 16  1  0  0  0  0
 14 17  1  0  0  0  0
 14 39  1  0  0  0  0
 16 40  1  0  0  0  0
 16 41  1  0  0  0  0
 16 42  1  0  0  0  0
 17 43  1  0  0  0  0
 17 44  1  0  0  0  0
 17 45  1  0  0  0  0
 18 20  1  0  0  0  0
 18 46  1  0  0  0  0
 18 47  1  0  0  0  0
 19 21  1  0  0  0  0
 19 48  1  0  0  0  0
 19 49  1  0  0  0  0
 20 50  1  0  0  0  0
 20 51  1  0  0  0  0
 21 52  1  0  0  0  0
 21 53  1  0  0  0  0
 22 24  1  0  0  0  0
 23 25  1  0  0  0  0
 24 25  2  0  0  0  0
 24 27  1  0  0  0  0
 25 54  1  0  0  0  0
 26 29  1  0  0  0  0
 27 28  2  0  0  0  0
 27 55  1  0  0  0  0
 28 56  1  0  0  0  0
 29 57  1  0  0  0  0
 29 58  1  0  0  0  0
 29 59  1  0  0  0  0
M  END
> <PUBCHEM_COMPOUND_CID>
51136818

> <PUBCHEM_CONFORMER_RMSD>
1

> <PUBCHEM_CONFORMER_DIVERSEORDER>
4
157
162
65
133
12
121
168
126
66
110
5
83
94
104
145
155
34
131
44
98
41
55
67
119
49
175
124
95
167
47
23
38
152
19
25
75
39
101
69
53
134
11
108
80
7
105
114
89
56
88
118
51
158
120
31
176
63
128
127
130
112
159
117
154
161
151
111
90
174
138
61
143
87
102
29
59
100
40
22
50
54
27
122
17
166
171
150
169
28
74
91
160
86
146
141
106
93
165
73
24
136
62
81
153
3
77
177
148
125
97
135
52
84
58
137
35
129
68
116
26
144
139
156
78
10
92
82
33
20
173
113
142
60
71
6
79
149
140
21
99
70
109
15
147
2
172
1
57
115
76
163
45
9
64
103
46
48
32
123
8
13
43
72
96
170
14
37
132
18
30
16
107
164
36
42
85

> <PUBCHEM_MMFF94_PARTIAL_CHARGES>
27
1 -0.02
11 0.27
13 0.27
15 0.3
18 0.37
19 0.37
2 -0.57
20 0.3
21 0.3
22 0.46
23 0.41
24 0.05
25 -0.15
26 0.57
27 -0.15
28 0.16
29 0.06
3 -0.81
4 -0.84
5 -0.57
54 0.15
55 0.15
56 0.15
6 -0.66
7 -0.41
8 -0.62
9 0.45

> <PUBCHEM_EFFECTIVE_ROTOR_COUNT>
8.2

> <PUBCHEM_PHARMACOPHORE_FEATURES>
9
1 2 acceptor
1 3 cation
3 14 16 17 hydrophobe
3 4 8 23 cation
3 5 7 22 cation
5 1 5 7 15 22 rings
5 3 9 10 11 12 rings
6 4 6 18 19 20 21 rings
6 8 23 24 25 27 28 rings

> <PUBCHEM_HEAVY_ATOM_COUNT>
29

> <PUBCHEM_ATOM_DEF_STEREO_COUNT>
1

> <PUBCHEM_ATOM_UDEF_STEREO_COUNT>
0

> <PUBCHEM_BOND_DEF_STEREO_COUNT>
0

> <PUBCHEM_BOND_UDEF_STEREO_COUNT>
0

> <PUBCHEM_ISOTOPIC_ATOM_COUNT>
0

> <PUBCHEM_COMPONENT_COUNT>
1

> <PUBCHEM_CACTVS_TAUTO_COUNT>
1

> <PUBCHEM_CONFORMER_ID>
030C493200000004

> <PUBCHEM_MMFF94_ENERGY>
67.0912

> <PUBCHEM_FEATURE_SELFOVERLAP>
45.672

> <PUBCHEM_SHAPE_FINGERPRINT>
10299344 5 17749389247741690970
11315621 246 17167860911261344503
11524674 6 18131628998336292391
11545043 162 18340763840795250907
11796584 16 18409728452299481826
12440605 4 16913995577588034291
12643181 29 18412259536519491107
12645989 146 17274526712163354693
12760667 363 16917348117121096736
13685833 64 17203608177669034932
13690498 29 18040715922385088335
13782708 43 18200027490622742959
13911987 19 13334728055791871051
14202776 33 17095517358411275429
14856354 85 18113901568103037479
15021287 119 16487262088043229913
15183329 4 16805317816604991378
15230672 131 18189046517124020146
15352257 5 18334575741598557290
15361156 5 18130782399530021253
15444296 121 18410580561491005129
15799311 1 18113341881929382051
17844677 252 18337107968791271409
18006028 8 16558744599146169128
21150785 3 17749111084854678636
21267235 1 17418375783764434264
21365058 27 17240486875527503811
21792961 116 18129944477823407956
21795232 338 17604445097377592297
220451 1 17749383750135962682
22224240 67 13045950096789981732
23516275 137 17824273592023579275
23522609 53 17313960605660490372
23559900 14 18409441501613885209
23569917 315 16128366121587281925
25269216 80 17531534281852662971
2838139 119 15140961760072687542
3004659 81 18131626777895897116
335352 9 17346589773045680437
3383291 50 17561081423244856599
4098825 35 18187366558272800596
4107672 100 18186518783151840997
4325135 7 16370725924278032079
5265222 85 18188215411024096578
5470011 282 18341339938266019116
57527293 21 17770230663600346567
5758199 1 14779269674389646181
58902169 19 17240489108894705598
59755656 215 17561081359383998574
6009941 240 18343021069315774833
8863177 126 18198902702558509755
9663363 56 17632289056624532432
999808 66 18202291315827729950

> <PUBCHEM_SHAPE_MULTIPOLES>
555.18
22.22
2.3
1.84
25.31
1.98
-0.39
4.98
6.85
-5.7
-0.64
1.27
-0.45
1.53

> <PUBCHEM_SHAPE_SELFOVERLAP>
1170.249

> <PUBCHEM_SHAPE_VOLUME>
313.9

> <PUBCHEM_COORDINATE_TYPE>
2
5
10

$$$$
