45784164
  -OEChem-12032416393D

 61 63  0     1  0  0  0  0  0999 V2000
   -1.6507    0.4827    0.7047 O   0  0  0  0  0  0  0  0  0  0  0  0
    2.7532   -2.9944   -0.9096 O   0  0  0  0  0  0  0  0  0  0  0  0
    3.5819   -1.1083    0.1654 N   0  0  0  0  0  0  0  0  0  0  0  0
   -2.0200    2.5143    1.5656 N   0  0  0  0  0  0  0  0  0  0  0  0
    2.7761   -2.8846    1.4079 N   0  0  0  0  0  0  0  0  0  0  0  0
   -3.2238    2.0248    1.0942 N   0  0  0  0  0  0  0  0  0  0  0  0
   -3.9132   -1.3625    0.0186 N   0  0  0  0  0  0  0  0  0  0  0  0
   -5.7679   -0.7996   -1.0654 N   0  0  0  0  0  0  0  0  0  0  0  0
    1.6399    0.7270   -1.2146 C   0  0  1  0  0  0  0  0  0  0  0  0
    3.1613    0.9660   -1.0466 C   0  0  1  0  0  0  0  0  0  0  0  0
    0.8535    1.9914   -0.8366 C   0  0  0  0  0  0  0  0  0  0  0  0
    1.1210    2.4316    0.6151 C   0  0  2  0  0  0  0  0  0  0  0  0
    1.2851    0.3033   -2.6433 C   0  0  0  0  0  0  0  0  0  0  0  0
    2.6012    2.4332    0.9394 C   0  0  0  0  0  0  0  0  0  0  0  0
    3.4996    1.7838    0.1778 C   0  0  0  0  0  0  0  0  0  0  0  0
    3.9282   -0.3606   -1.0025 C   0  0  0  0  0  0  0  0  0  0  0  0
    0.3426    1.5619    1.6084 C   0  0  0  0  0  0  0  0  0  0  0  0
    1.1925    1.5242   -3.5528 C   0  0  0  0  0  0  0  0  0  0  0  0
   -0.0229   -0.4815   -2.6563 C   0  0  0  0  0  0  0  0  0  0  0  0
    3.0316    3.2369    2.1347 C   0  0  0  0  0  0  0  0  0  0  0  0
   -1.1307    1.5813    1.3175 C   0  0  0  0  0  0  0  0  0  0  0  0
    3.0119   -2.3873    0.1287 C   0  0  0  0  0  0  0  0  0  0  0  0
   -2.9606    0.8374    0.6005 C   0  0  0  0  0  0  0  0  0  0  0  0
   -3.9441    0.0036    0.0142 C   0  0  0  0  0  0  0  0  0  0  0  0
    2.1940   -4.1841    1.6474 C   0  0  0  0  0  0  0  0  0  0  0  0
   -5.0977    0.3275   -0.6602 C   0  0  0  0  0  0  0  0  0  0  0  0
    0.6884   -4.1560    1.4840 C   0  0  0  0  0  0  0  0  0  0  0  0
   -5.0281   -1.7999   -0.6408 C   0  0  0  0  0  0  0  0  0  0  0  0
   -2.9023   -2.2121    0.6048 C   0  0  0  0  0  0  0  0  0  0  0  0
    1.3298   -0.0739   -0.5323 H   0  0  0  0  0  0  0  0  0  0  0  0
    3.5405    1.5325   -1.9064 H   0  0  0  0  0  0  0  0  0  0  0  0
    1.1818    2.8367   -1.4569 H   0  0  0  0  0  0  0  0  0  0  0  0
   -0.2162    1.8809   -1.0335 H   0  0  0  0  0  0  0  0  0  0  0  0
    0.7536    3.4647    0.6990 H   0  0  0  0  0  0  0  0  0  0  0  0
    2.0554   -0.3621   -3.0466 H   0  0  0  0  0  0  0  0  0  0  0  0
    4.5552    1.8586    0.4315 H   0  0  0  0  0  0  0  0  0  0  0  0
    5.0070   -0.1715   -0.9448 H   0  0  0  0  0  0  0  0  0  0  0  0
    3.7645   -0.9583   -1.9031 H   0  0  0  0  0  0  0  0  0  0  0  0
    0.4806    1.9329    2.6312 H   0  0  0  0  0  0  0  0  0  0  0  0
    0.7051    0.5267    1.6043 H   0  0  0  0  0  0  0  0  0  0  0  0
    0.2971    2.1285   -3.3736 H   0  0  0  0  0  0  0  0  0  0  0  0
    1.1222    1.1909   -4.5957 H   0  0  0  0  0  0  0  0  0  0  0  0
    2.0779    2.1641   -3.4930 H   0  0  0  0  0  0  0  0  0  0  0  0
    0.0483   -1.3726   -2.0232 H   0  0  0  0  0  0  0  0  0  0  0  0
   -0.2566   -0.8184   -3.6723 H   0  0  0  0  0  0  0  0  0  0  0  0
   -0.8704    0.1156   -2.3056 H   0  0  0  0  0  0  0  0  0  0  0  0
    2.6928    4.2734    2.0377 H   0  0  0  0  0  0  0  0  0  0  0  0
    4.1209    3.2565    2.2477 H   0  0  0  0  0  0  0  0  0  0  0  0
    2.6136    2.8177    3.0547 H   0  0  0  0  0  0  0  0  0  0  0  0
    3.8191   -0.7240    1.0749 H   0  0  0  0  0  0  0  0  0  0  0  0
    3.0099   -2.3044    2.2077 H   0  0  0  0  0  0  0  0  0  0  0  0
    2.4613   -4.4814    2.6661 H   0  0  0  0  0  0  0  0  0  0  0  0
    2.6350   -4.9036    0.9496 H   0  0  0  0  0  0  0  0  0  0  0  0
   -5.4850    1.3128   -0.8783 H   0  0  0  0  0  0  0  0  0  0  0  0
    0.2629   -5.1420    1.6940 H   0  0  0  0  0  0  0  0  0  0  0  0
    0.4025   -3.8714    0.4660 H   0  0  0  0  0  0  0  0  0  0  0  0
    0.2335   -3.4330    2.1695 H   0  0  0  0  0  0  0  0  0  0  0  0
   -5.2494   -2.8491   -0.7820 H   0  0  0  0  0  0  0  0  0  0  0  0
   -1.9837   -2.1113    0.0214 H   0  0  0  0  0  0  0  0  0  0  0  0
   -2.7443   -1.9109    1.6433 H   0  0  0  0  0  0  0  0  0  0  0  0
   -3.2424   -3.2508    0.5774 H   0  0  0  0  0  0  0  0  0  0  0  0
  1 21  1  0  0  0  0
  1 23  1  0  0  0  0
  2 22  2  0  0  0  0
  3 16  1  0  0  0  0
  3 22  1  0  0  0  0
  3 50  1  0  0  0  0
  4  6  1  0  0  0  0
  4 21  2  0  0  0  0
  5 22  1  0  0  0  0
  5 25  1  0  0  0  0
  5 51  1  0  0  0  0
  6 23  2  0  0  0  0
  7 24  1  0  0  0  0
  7 28  1  0  0  0  0
  7 29  1  0  0  0  0
  8 26  1  0  0  0  0
  8 28  2  0  0  0  0
  9 10  1  0  0  0  0
  9 11  1  0  0  0  0
  9 13  1  0  0  0  0
  9 30  1  0  0  0  0
 10 15  1  0  0  0  0
 10 16  1  0  0  0  0
 10 31  1  0  0  0  0
 11 12  1  0  0  0  0
 11 32  1  0  0  0  0
 11 33  1  0  0  0  0
 12 14  1  0  0  0  0
 12 17  1  0  0  0  0
 12 34  1  0  0  0  0
 13 18  1  0  0  0  0
 13 19  1  0  0  0  0
 13 35  1  0  0  0  0
 14 15  2  0  0  0  0
 14 20  1  0  0  0  0
 15 36  1  0  0  0  0
 16 37  1  0  0  0  0
 16 38  1  0  0  0  0
 17 21  1  0  0  0  0
 17 39  1  0  0  0  0
 17 40  1  0  0  0  0
 18 41  1  0  0  0  0
 18 42  1  0  0  0  0
 18 43  1  0  0  0  0
 19 44  1  0  0  0  0
 19 45  1  0  0  0  0
 19 46  1  0  0  0  0
 20 47  1  0  0  0  0
 20 48  1  0  0  0  0
 20 49  1  0  0  0  0
 23 24  1  0  0  0  0
 24 26  2  0  0  0  0
 25 27  1  0  0  0  0
 25 52  1  0  0  0  0
 25 53  1  0  0  0  0
 26 54  1  0  0  0  0
 27 55  1  0  0  0  0
 27 56  1  0  0  0  0
 27 57  1  0  0  0  0
 28 58  1  0  0  0  0
 29 59  1  0  0  0  0
 29 60  1  0  0  0  0
 29 61  1  0  0  0  0
M  END
> <PUBCHEM_COMPOUND_CID>
45784164

> <PUBCHEM_CONFORMER_RMSD>
1

> <PUBCHEM_CONFORMER_DIVERSEORDER>
1
186
49
90
119
209
107
57
152
127
145
188
134
183
45
99
192
32
22
58
23
46
114
118
175
83
110
191
207
39
43
16
172
130
168
33
211
88
167
196
162
206
153
41
164
27
180
102
216
217
8
135
137
69
56
34
155
204
203
194
4
205
208
141
202
195
65
120
47
66
15
35
36
197
31
177
116
200
190
139
151
198
97
61
138
131
25
51
38
18
68
213
50
150
91
136
157
124
96
76
185
26
60
29
72
111
53
173
87
62
193
84
106
199
214
143
5
21
78
71
24
85
170
128
144
13
44
181
17
212
147
28
148
156
94
64
73
42
169
20
121
125
132
182
178
184
59
126
95
109
80
92
149
82
19
154
159
101
100
215
171
117
187
7
123
70
113
146
174
210
55
52
163
115
160
30
179
79
14
103
189
63
104
176
74
142
40
201
166
77
2
37
140
11
75
129
9
112
98
6
67
3
161
81
133
122
89
93
10
105
165
108
48
86
158
54
12

> <PUBCHEM_MMFF94_PARTIAL_CHARGES>
28
1 -0.28
10 0.14
12 0.14
14 -0.28
15 -0.29
16 0.3
17 0.18
2 -0.57
20 0.14
21 0.3
22 0.69
23 0.48
24 -0.15
25 0.3
26 0.08
28 0.04
29 0.26
3 -0.73
36 0.15
4 -0.34
5 -0.73
50 0.37
51 0.37
54 0.15
58 0.15
6 -0.34
7 0.05
8 -0.57

> <PUBCHEM_EFFECTIVE_ROTOR_COUNT>
9.8

> <PUBCHEM_PHARMACOPHORE_FEATURES>
8
1 2 acceptor
1 3 donor
1 5 donor
3 13 18 19 hydrophobe
3 7 8 28 cation
5 1 4 6 21 23 rings
5 7 8 24 26 28 rings
6 9 10 11 12 14 15 rings

> <PUBCHEM_HEAVY_ATOM_COUNT>
29

> <PUBCHEM_ATOM_DEF_STEREO_COUNT>
3

> <PUBCHEM_ATOM_UDEF_STEREO_COUNT>
0

> <PUBCHEM_BOND_DEF_STEREO_COUNT>
0

> <PUBCHEM_BOND_UDEF_STEREO_COUNT>
0

> <PUBCHEM_ISOTOPIC_ATOM_COUNT>
0

> <PUBCHEM_COMPONENT_COUNT>
1

> <PUBCHEM_CACTVS_TAUTO_COUNT>
3

> <PUBCHEM_CONFORMER_ID>
02BA9C6400000001

> <PUBCHEM_MMFF94_ENERGY>
35.1572

> <PUBCHEM_FEATURE_SELFOVERLAP>
40.644

> <PUBCHEM_SHAPE_FINGERPRINT>
11370993 70 18117277162519534594
11552529 35 17257081572713824298
11578080 2 18188481359710305300
13533116 47 18410009927782536111
13583140 156 18342163454019474380
14674994 50 16816852496934424742
17138139 8 18269839872830874542
18681886 176 16774081795409744504
20626108 58 18059574637659411313
20764821 26 17687762939697554331
20775530 9 17392205018942779042
21285901 2 16877937196512484711
21703447 108 18130494306130299905
23559900 14 18340205301256849481
25222932 49 17842269561076170199
46194498 28 16300673903873631261
463206 1 18265908964142505970
484985 159 16893414773016325742
513532 50 16588301734731600780
66674814 147 18040157288320256482
6823239 73 16987463935006772372
9896288 288 17413594948836081712

> <PUBCHEM_SHAPE_MULTIPOLES>
555.18
9.19
4.72
2.58
13.18
5.36
-1.91
1.68
-0.95
-4.13
3.54
-1.55
-0.99
-0.66

> <PUBCHEM_SHAPE_SELFOVERLAP>
1155.615

> <PUBCHEM_SHAPE_VOLUME>
318.1

> <PUBCHEM_COORDINATE_TYPE>
2
5
10

$$$$
