11883073
  -OEChem-12032416133D

 68 72  0     1  0  0  0  0  0999 V2000
   -0.7462    2.7782    0.5771 S   0  0  0  0  0  0  0  0  0  0  0  0
    6.7471    0.4391    0.6499 O   0  0  0  0  0  0  0  0  0  0  0  0
    6.3847    2.7085   -0.0303 O   0  0  0  0  0  0  0  0  0  0  0  0
   -1.6841   -1.8130   -1.9301 O   0  0  0  0  0  0  0  0  0  0  0  0
   -0.9249   -5.0437    1.6347 O   0  0  0  0  0  0  0  0  0  0  0  0
   -3.9781   -0.3510   -0.4858 O   0  0  0  0  0  0  0  0  0  0  0  0
   -5.5915    2.6292    0.4244 O   0  0  0  0  0  0  0  0  0  0  0  0
   -1.1595    0.3590   -0.2412 N   0  0  0  0  0  0  0  0  0  0  0  0
   -0.6455   -2.8800   -0.1487 N   0  0  0  0  0  0  0  0  0  0  0  0
   -3.1092    1.7033    0.2074 N   0  0  0  0  0  0  0  0  0  0  0  0
    2.6455    0.0258   -0.7695 C   0  0  2  0  0  0  0  0  0  0  0  0
    2.9780    1.0283    0.4221 C   0  0  1  0  0  0  0  0  0  0  0  0
    4.4938    1.4093    0.6353 C   0  0  1  0  0  0  0  0  0  0  0  0
    1.1748   -0.5521   -0.5314 C   0  0  1  0  0  0  0  0  0  0  0  0
    3.6464   -1.1584   -0.7416 C   0  0  0  0  0  0  0  0  0  0  0  0
    5.3579    0.1173    0.5895 C   0  0  1  0  0  0  0  0  0  0  0  0
    2.0181    2.2537    0.4192 C   0  0  0  0  0  0  0  0  0  0  0  0
    5.1046   -0.7315   -0.6515 C   0  0  0  0  0  0  0  0  0  0  0  0
    2.7141    0.7020   -2.1609 C   0  0  0  0  0  0  0  0  0  0  0  0
    0.2084    0.5512   -0.1842 C   0  0  0  0  0  0  0  0  0  0  0  0
    5.0333    2.4679   -0.3518 C   0  0  0  0  0  0  0  0  0  0  0  0
    4.6661    2.0309    2.0502 C   0  0  0  0  0  0  0  0  0  0  0  0
    0.6079    1.7960    0.2575 C   0  0  0  0  0  0  0  0  0  0  0  0
    0.6410   -1.4277   -1.6732 C   0  0  0  0  0  0  0  0  0  0  0  0
   -0.6706   -2.0518   -1.2686 C   0  0  0  0  0  0  0  0  0  0  0  0
   -1.7622    1.4675    0.1307 C   0  0  0  0  0  0  0  0  0  0  0  0
   -1.8322   -3.0032    0.6978 C   0  0  0  0  0  0  0  0  0  0  0  0
    0.5360   -3.5810    0.3650 C   0  0  0  0  0  0  0  0  0  0  0  0
   -2.0895   -4.4634    1.0414 C   0  0  0  0  0  0  0  0  0  0  0  0
    0.1807   -5.0173    0.7281 C   0  0  0  0  0  0  0  0  0  0  0  0
   -4.1533    0.8019   -0.0981 C   0  0  0  0  0  0  0  0  0  0  0  0
   -5.5135    1.3540    0.0347 C   0  0  0  0  0  0  0  0  0  0  0  0
   -6.7042    0.7714   -0.1767 C   0  0  0  0  0  0  0  0  0  0  0  0
   -7.6503    1.7845    0.1089 C   0  0  0  0  0  0  0  0  0  0  0  0
   -6.9235    2.8950    0.4698 C   0  0  0  0  0  0  0  0  0  0  0  0
    2.7169    0.4567    1.3298 H   0  0  0  0  0  0  0  0  0  0  0  0
    1.2412   -1.1399    0.3891 H   0  0  0  0  0  0  0  0  0  0  0  0
    3.4270   -1.8036    0.1194 H   0  0  0  0  0  0  0  0  0  0  0  0
    3.5251   -1.7868   -1.6318 H   0  0  0  0  0  0  0  0  0  0  0  0
    5.1368   -0.5024    1.4691 H   0  0  0  0  0  0  0  0  0  0  0  0
    2.2649    2.9413   -0.3966 H   0  0  0  0  0  0  0  0  0  0  0  0
    2.1108    2.8084    1.3587 H   0  0  0  0  0  0  0  0  0  0  0  0
    5.7419   -1.6242   -0.6116 H   0  0  0  0  0  0  0  0  0  0  0  0
    5.4194   -0.2002   -1.5564 H   0  0  0  0  0  0  0  0  0  0  0  0
    3.6997    1.0972   -2.3946 H   0  0  0  0  0  0  0  0  0  0  0  0
    2.5019   -0.0168   -2.9601 H   0  0  0  0  0  0  0  0  0  0  0  0
    1.9954    1.5194   -2.2667 H   0  0  0  0  0  0  0  0  0  0  0  0
    5.0207    2.1301   -1.3842 H   0  0  0  0  0  0  0  0  0  0  0  0
    4.4849    3.4137   -0.3003 H   0  0  0  0  0  0  0  0  0  0  0  0
    4.1823    3.0108    2.1224 H   0  0  0  0  0  0  0  0  0  0  0  0
    4.2184    1.3860    2.8155 H   0  0  0  0  0  0  0  0  0  0  0  0
    5.7120    2.1745    2.3381 H   0  0  0  0  0  0  0  0  0  0  0  0
    0.4449   -0.8204   -2.5658 H   0  0  0  0  0  0  0  0  0  0  0  0
    1.3386   -2.2132   -1.9723 H   0  0  0  0  0  0  0  0  0  0  0  0
    6.9603    0.6801    1.5664 H   0  0  0  0  0  0  0  0  0  0  0  0
    6.4141    3.4046    0.6476 H   0  0  0  0  0  0  0  0  0  0  0  0
   -3.3640    2.6386    0.5150 H   0  0  0  0  0  0  0  0  0  0  0  0
   -2.7056   -2.5634    0.2101 H   0  0  0  0  0  0  0  0  0  0  0  0
   -1.6250   -2.4291    1.6085 H   0  0  0  0  0  0  0  0  0  0  0  0
    0.8534   -3.0536    1.2714 H   0  0  0  0  0  0  0  0  0  0  0  0
    1.3550   -3.5740   -0.3561 H   0  0  0  0  0  0  0  0  0  0  0  0
   -2.9093   -4.5415    1.7622 H   0  0  0  0  0  0  0  0  0  0  0  0
   -2.3678   -5.0408    0.1518 H   0  0  0  0  0  0  0  0  0  0  0  0
    1.0301   -5.5022    1.2190 H   0  0  0  0  0  0  0  0  0  0  0  0
   -0.0706   -5.6034   -0.1639 H   0  0  0  0  0  0  0  0  0  0  0  0
   -6.9033   -0.2422   -0.4934 H   0  0  0  0  0  0  0  0  0  0  0  0
   -8.7273    1.7142    0.0580 H   0  0  0  0  0  0  0  0  0  0  0  0
   -7.1900    3.8978    0.7706 H   0  0  0  0  0  0  0  0  0  0  0  0
  1 23  1  0  0  0  0
  1 26  1  0  0  0  0
  2 16  1  0  0  0  0
  2 55  1  0  0  0  0
  3 21  1  0  0  0  0
  3 56  1  0  0  0  0
  4 25  2  0  0  0  0
  5 29  1  0  0  0  0
  5 30  1  0  0  0  0
  6 31  2  0  0  0  0
  7 32  1  0  0  0  0
  7 35  1  0  0  0  0
  8 20  1  0  0  0  0
  8 26  2  0  0  0  0
  9 25  1  0  0  0  0
  9 27  1  0  0  0  0
  9 28  1  0  0  0  0
 10 26  1  0  0  0  0
 10 31  1  0  0  0  0
 10 57  1  0  0  0  0
 11 12  1  0  0  0  0
 11 14  1  0  0  0  0
 11 15  1  0  0  0  0
 11 19  1  0  0  0  0
 12 13  1  0  0  0  0
 12 17  1  0  0  0  0
 12 36  1  0  0  0  0
 13 16  1  0  0  0  0
 13 21  1  0  0  0  0
 13 22  1  0  0  0  0
 14 20  1  0  0  0  0
 14 24  1  0  0  0  0
 14 37  1  0  0  0  0
 15 18  1  0  0  0  0
 15 38  1  0  0  0  0
 15 39  1  0  0  0  0
 16 18  1  0  0  0  0
 16 40  1  0  0  0  0
 17 23  1  0  0  0  0
 17 41  1  0  0  0  0
 17 42  1  0  0  0  0
 18 43  1  0  0  0  0
 18 44  1  0  0  0  0
 19 45  1  0  0  0  0
 19 46  1  0  0  0  0
 19 47  1  0  0  0  0
 20 23  2  0  0  0  0
 21 48  1  0  0  0  0
 21 49  1  0  0  0  0
 22 50  1  0  0  0  0
 22 51  1  0  0  0  0
 22 52  1  0  0  0  0
 24 25  1  0  0  0  0
 24 53  1  0  0  0  0
 24 54  1  0  0  0  0
 27 29  1  0  0  0  0
 27 58  1  0  0  0  0
 27 59  1  0  0  0  0
 28 30  1  0  0  0  0
 28 60  1  0  0  0  0
 28 61  1  0  0  0  0
 29 62  1  0  0  0  0
 29 63  1  0  0  0  0
 30 64  1  0  0  0  0
 30 65  1  0  0  0  0
 31 32  1  0  0  0  0
 32 33  2  0  0  0  0
 33 34  1  0  0  0  0
 33 66  1  0  0  0  0
 34 35  2  0  0  0  0
 34 67  1  0  0  0  0
 35 68  1  0  0  0  0
M  END
> <PUBCHEM_COMPOUND_CID>
11883073

> <PUBCHEM_CONFORMER_RMSD>
1

> <PUBCHEM_CONFORMER_DIVERSEORDER>
1
7
6
4
5
8
3
2

> <PUBCHEM_MMFF94_PARTIAL_CHARGES>
34
1 -0.08
10 -0.49
14 0.18
16 0.28
17 0.18
2 -0.68
20 0.05
21 0.28
23 -0.14
24 0.06
25 0.57
26 0.44
27 0.3
28 0.3
29 0.28
3 -0.68
30 0.28
31 0.71
32 0.05
33 -0.15
34 -0.15
35 -0.01
4 -0.57
5 -0.56
55 0.4
56 0.4
57 0.37
6 -0.57
66 0.15
67 0.15
68 0.15
7 -0.28
8 -0.57
9 -0.66

> <PUBCHEM_EFFECTIVE_ROTOR_COUNT>
9.4

> <PUBCHEM_PHARMACOPHORE_FEATURES>
14
1 10 donor
1 2 acceptor
1 2 donor
1 3 acceptor
1 3 donor
1 4 acceptor
1 5 acceptor
1 6 acceptor
1 7 acceptor
5 1 8 20 23 26 rings
5 7 32 33 34 35 rings
6 11 12 13 15 16 18 rings
6 11 12 14 17 20 23 rings
6 5 9 27 28 29 30 rings

> <PUBCHEM_HEAVY_ATOM_COUNT>
35

> <PUBCHEM_ATOM_DEF_STEREO_COUNT>
5

> <PUBCHEM_ATOM_UDEF_STEREO_COUNT>
0

> <PUBCHEM_BOND_DEF_STEREO_COUNT>
0

> <PUBCHEM_BOND_UDEF_STEREO_COUNT>
0

> <PUBCHEM_ISOTOPIC_ATOM_COUNT>
0

> <PUBCHEM_COMPONENT_COUNT>
1

> <PUBCHEM_CACTVS_TAUTO_COUNT>
3

> <PUBCHEM_CONFORMER_ID>
00B5524100000001

> <PUBCHEM_MMFF94_ENERGY>
105.8603

> <PUBCHEM_FEATURE_SELFOVERLAP>
71.196

> <PUBCHEM_SHAPE_FINGERPRINT>
10675989 125 18270686350681650697
10906281 52 18130802173469839556
11135926 11 18337384934463401413
11534866 41 17968393260561954259
11578080 2 16126941197314414266
11719270 70 18335700503707889873
11991303 11 18334016133092171775
12608794 3 18115292488239341301
1361 2 18337674122547494889
13692114 37 18335139826114266067
14190465 44 18268699692559037200
14415360 78 18264190552645362189
14565420 104 18339078190553831363
14725015 67 18195807358720331314
14790565 3 18411983550732771041
15131766 46 16879931874711314260
15629462 23 17983280806320888327
15815584 197 18194989395405417853
15927050 60 18411978057881283551
16112460 7 18272655614613925408
16728300 4 17463105974155970274
18608769 82 18343022229690278019
19319366 153 18338514141184027079
20511986 3 17845360082388299933
21049683 118 18268126764926517666
21304304 249 18339361860527875228
22182313 1 17772775967976609844
22956985 138 17683803203014933155
23559900 14 18341899615196046972
23845131 108 18334577923958966899
3178227 256 18340498811359651793
335352 9 18202002110616736204
3411729 13 18270963423912247831
4058900 60 18339652131149741577
4073 2 18410575131960687808
4093350 32 16558470790211231101
4340502 62 18336550426127316247
5385378 56 18265055735098882185
57527573 199 18413390946863716948
59520757 100 18187931733357105771
59755656 520 18334850632236831383
6086070 43 16558466513214854520
6669772 16 18411416172535951935
6700243 42 10882784007000077882

> <PUBCHEM_SHAPE_MULTIPOLES>
673.97
15.34
5.58
1.35
13.98
9
-0.24
-17.38
1.95
2.64
2.68
-1.02
0.54
0.74

> <PUBCHEM_SHAPE_SELFOVERLAP>
1439.252

> <PUBCHEM_SHAPE_VOLUME>
377.2

> <PUBCHEM_COORDINATE_TYPE>
2
5
10

$$$$
