44716394
  -OEChem-12032416163D

 60 63  0     1  0  0  0  0  0999 V2000
    3.6842   -1.5045   -0.5438 O   0  0  0  0  0  0  0  0  0  0  0  0
   -0.6382   -2.8813   -0.2258 N   0  0  2  0  0  0  0  0  0  0  0  0
   -4.1198    0.4966   -0.3137 N   0  0  0  0  0  0  0  0  0  0  0  0
    1.8637   -0.1582   -1.0051 N   0  0  0  0  0  0  0  0  0  0  0  0
   -6.4254    2.2068    0.0296 N   0  0  0  0  0  0  0  0  0  0  0  0
    3.8439    0.8352   -0.4400 N   0  0  0  0  0  0  0  0  0  0  0  0
   -1.9927   -1.0582    1.0425 C   0  0  2  0  0  0  0  0  0  0  0  0
   -2.7666   -1.5566   -0.1993 C   0  0  2  0  0  0  0  0  0  0  0  0
    0.2067   -1.6752   -0.0121 C   0  0  2  0  0  0  0  0  0  0  0  0
   -0.6168   -0.5229    0.6049 C   0  0  0  0  0  0  0  0  0  0  0  0
   -1.8586   -2.5258   -0.9894 C   0  0  0  0  0  0  0  0  0  0  0  0
   -1.7407   -2.2878    1.9359 C   0  0  0  0  0  0  0  0  0  0  0  0
   -1.0563   -3.3871    1.1043 C   0  0  0  0  0  0  0  0  0  0  0  0
   -3.2832   -0.4229   -1.0822 C   0  0  0  0  0  0  0  0  0  0  0  0
    0.9310   -1.2368   -1.2870 C   0  0  0  0  0  0  0  0  0  0  0  0
   -4.2054    1.8028   -0.9781 C   0  0  0  0  0  0  0  0  0  0  0  0
   -5.4614   -0.0640   -0.1118 C   0  0  0  0  0  0  0  0  0  0  0  0
   -5.0840    2.7675   -0.1745 C   0  0  0  0  0  0  0  0  0  0  0  0
   -6.3396    0.9002    0.6932 C   0  0  0  0  0  0  0  0  0  0  0  0
    3.1923   -0.3834   -0.6490 C   0  0  0  0  0  0  0  0  0  0  0  0
   -7.2607    3.1263    0.7996 C   0  0  0  0  0  0  0  0  0  0  0  0
    5.1920    1.0460   -0.0674 C   0  0  0  0  0  0  0  0  0  0  0  0
    5.6740    2.3444    0.0988 C   0  0  0  0  0  0  0  0  0  0  0  0
    6.0392   -0.0434    0.1342 C   0  0  0  0  0  0  0  0  0  0  0  0
    7.0033    2.5533    0.4663 C   0  0  0  0  0  0  0  0  0  0  0  0
    7.3685    0.1654    0.5019 C   0  0  0  0  0  0  0  0  0  0  0  0
    7.8505    1.4638    0.6678 C   0  0  0  0  0  0  0  0  0  0  0  0
   -2.5431   -0.2996    1.6074 H   0  0  0  0  0  0  0  0  0  0  0  0
   -3.6237   -2.1457    0.1534 H   0  0  0  0  0  0  0  0  0  0  0  0
    0.9918   -1.9490    0.7083 H   0  0  0  0  0  0  0  0  0  0  0  0
   -0.0848   -0.1275    1.4796 H   0  0  0  0  0  0  0  0  0  0  0  0
   -0.7410    0.3152   -0.0886 H   0  0  0  0  0  0  0  0  0  0  0  0
   -1.5875   -2.1214   -1.9710 H   0  0  0  0  0  0  0  0  0  0  0  0
   -2.4186   -3.4435   -1.2131 H   0  0  0  0  0  0  0  0  0  0  0  0
   -1.1072   -2.0093    2.7867 H   0  0  0  0  0  0  0  0  0  0  0  0
   -2.6862   -2.6636    2.3440 H   0  0  0  0  0  0  0  0  0  0  0  0
   -1.7317   -4.2432    0.9801 H   0  0  0  0  0  0  0  0  0  0  0  0
   -0.1861   -3.7777    1.6464 H   0  0  0  0  0  0  0  0  0  0  0  0
   -2.4234    0.1141   -1.5018 H   0  0  0  0  0  0  0  0  0  0  0  0
   -3.8265   -0.8285   -1.9463 H   0  0  0  0  0  0  0  0  0  0  0  0
    1.4843   -2.0765   -1.7227 H   0  0  0  0  0  0  0  0  0  0  0  0
    0.2384   -0.8572   -2.0448 H   0  0  0  0  0  0  0  0  0  0  0  0
   -3.2047    2.2443   -1.0621 H   0  0  0  0  0  0  0  0  0  0  0  0
   -4.6042    1.6980   -1.9963 H   0  0  0  0  0  0  0  0  0  0  0  0
   -5.9455   -0.2825   -1.0735 H   0  0  0  0  0  0  0  0  0  0  0  0
   -5.4138   -1.0033    0.4488 H   0  0  0  0  0  0  0  0  0  0  0  0
    1.5264    0.7973   -1.0673 H   0  0  0  0  0  0  0  0  0  0  0  0
   -4.6024    2.9905    0.7874 H   0  0  0  0  0  0  0  0  0  0  0  0
   -5.1571    3.7107   -0.7292 H   0  0  0  0  0  0  0  0  0  0  0  0
   -7.3417    0.4630    0.7804 H   0  0  0  0  0  0  0  0  0  0  0  0
   -5.9381    1.0029    1.7107 H   0  0  0  0  0  0  0  0  0  0  0  0
   -7.3586    4.0849    0.2781 H   0  0  0  0  0  0  0  0  0  0  0  0
   -8.2738    2.7240    0.9104 H   0  0  0  0  0  0  0  0  0  0  0  0
   -6.8546    3.3177    1.7995 H   0  0  0  0  0  0  0  0  0  0  0  0
    3.2892    1.6777   -0.5686 H   0  0  0  0  0  0  0  0  0  0  0  0
    5.0244    3.2023   -0.0550 H   0  0  0  0  0  0  0  0  0  0  0  0
    5.7402   -1.0763    0.0250 H   0  0  0  0  0  0  0  0  0  0  0  0
    7.3787    3.5642    0.5956 H   0  0  0  0  0  0  0  0  0  0  0  0
    8.0294   -0.6822    0.6592 H   0  0  0  0  0  0  0  0  0  0  0  0
    8.8855    1.6264    0.9540 H   0  0  0  0  0  0  0  0  0  0  0  0
  1 20  2  0  0  0  0
  2  9  1  0  0  0  0
  2 11  1  0  0  0  0
  2 13  1  0  0  0  0
  3 14  1  0  0  0  0
  3 16  1  0  0  0  0
  3 17  1  0  0  0  0
  4 15  1  0  0  0  0
  4 20  1  0  0  0  0
  4 47  1  0  0  0  0
  5 18  1  0  0  0  0
  5 19  1  0  0  0  0
  5 21  1  0  0  0  0
  6 20  1  0  0  0  0
  6 22  1  0  0  0  0
  6 55  1  0  0  0  0
  7  8  1  0  0  0  0
  7 10  1  0  0  0  0
  7 12  1  0  0  0  0
  7 28  1  0  0  0  0
  8 11  1  0  0  0  0
  8 14  1  0  0  0  0
  8 29  1  0  0  0  0
  9 10  1  0  0  0  0
  9 15  1  0  0  0  0
  9 30  1  0  0  0  0
 10 31  1  0  0  0  0
 10 32  1  0  0  0  0
 11 33  1  0  0  0  0
 11 34  1  0  0  0  0
 12 13  1  0  0  0  0
 12 35  1  0  0  0  0
 12 36  1  0  0  0  0
 13 37  1  0  0  0  0
 13 38  1  0  0  0  0
 14 39  1  0  0  0  0
 14 40  1  0  0  0  0
 15 41  1  0  0  0  0
 15 42  1  0  0  0  0
 16 18  1  0  0  0  0
 16 43  1  0  0  0  0
 16 44  1  0  0  0  0
 17 19  1  0  0  0  0
 17 45  1  0  0  0  0
 17 46  1  0  0  0  0
 18 48  1  0  0  0  0
 18 49  1  0  0  0  0
 19 50  1  0  0  0  0
 19 51  1  0  0  0  0
 21 52  1  0  0  0  0
 21 53  1  0  0  0  0
 21 54  1  0  0  0  0
 22 23  2  0  0  0  0
 22 24  1  0  0  0  0
 23 25  1  0  0  0  0
 23 56  1  0  0  0  0
 24 26  2  0  0  0  0
 24 57  1  0  0  0  0
 25 27  2  0  0  0  0
 25 58  1  0  0  0  0
 26 27  1  0  0  0  0
 26 59  1  0  0  0  0
 27 60  1  0  0  0  0
M  END
> <PUBCHEM_COMPOUND_CID>
44716394

> <PUBCHEM_CONFORMER_RMSD>
1

> <PUBCHEM_CONFORMER_DIVERSEORDER>
1
16
12
36
22
66
19
17
49
38
32
27
10
37
34
21
8
39
46
48
57
43
62
20
55
52
54
26
33
59
31
50
9
53
63
18
64
41
58
51
25
42
13
47
40
35
5
30
45
14
56
11
29
24
4
3
28
60
44
61
23
15
7
2
6
65

> <PUBCHEM_MMFF94_PARTIAL_CHARGES>
30
1 -0.57
11 0.27
13 0.27
14 0.27
15 0.3
16 0.27
17 0.27
18 0.27
19 0.27
2 -0.81
20 0.69
21 0.27
22 0.12
23 -0.15
24 -0.15
25 -0.15
26 -0.15
27 -0.15
3 -0.81
4 -0.73
47 0.37
5 -0.81
55 0.37
56 0.15
57 0.15
58 0.15
59 0.15
6 -0.55
60 0.15
9 0.27

> <PUBCHEM_EFFECTIVE_ROTOR_COUNT>
9.4

> <PUBCHEM_PHARMACOPHORE_FEATURES>
9
1 1 acceptor
1 2 cation
1 3 cation
1 4 donor
1 5 cation
1 6 donor
6 22 23 24 25 26 27 rings
6 3 5 16 17 18 19 rings
8 2 7 8 9 10 11 12 13 rings

> <PUBCHEM_HEAVY_ATOM_COUNT>
27

> <PUBCHEM_ATOM_DEF_STEREO_COUNT>
3

> <PUBCHEM_ATOM_UDEF_STEREO_COUNT>
0

> <PUBCHEM_BOND_DEF_STEREO_COUNT>
0

> <PUBCHEM_BOND_UDEF_STEREO_COUNT>
0

> <PUBCHEM_ISOTOPIC_ATOM_COUNT>
0

> <PUBCHEM_COMPONENT_COUNT>
1

> <PUBCHEM_CACTVS_TAUTO_COUNT>
3

> <PUBCHEM_CONFORMER_ID>
02AA516A00000001

> <PUBCHEM_MMFF94_ENERGY>
68.2801

> <PUBCHEM_FEATURE_SELFOVERLAP>
45.727

> <PUBCHEM_SHAPE_FINGERPRINT>
10074138 170 17386300895083826387
10291535 26 18340207487452770627
10369192 42 18341895182510092797
10692045 39 18041836191125985674
10883706 163 18187361042997430956
11135609 201 18410859820511790185
11297750 10 16770121509119210911
11475781 23 18060145327692403124
12107183 9 18113334241514761236
12293681 160 17917993837229229107
12633257 1 15502384451504877430
12760667 363 9151174259869845325
12895836 83 17917707977496902383
12895837 130 18201155542065231509
12988421 55 17967522472242051743
13540713 5 16517395402303771238
13690498 29 16557889278268954759
13914758 101 18343018904779267374
14251764 30 8358252640046615524
14394314 77 18410857621173023361
14950920 106 13767933411646321581
15519825 34 16515980275700029129
16126227 98 18341897390134098305
16994733 274 17917709063849386721
19438510 23 18335139778067292091
20621476 66 18411418410271753548
20715895 44 18412829079717047660
21033648 29 18261967287923984310
21298829 104 18413389834683899828
21307412 95 11239704276749600909
21401589 2 18261111864051670251
21424621 283 18409731733807126043
21585481 104 15768949947796219449
21756936 100 18334853935705251651
21859007 373 18335704897533027342
23522609 53 17386581296777558060
255183 451 10879406415117669395
270888 7 18413107230352018189
2838139 119 18343014514710586052
2916195 48 18410014321359753351
312425 54 17677042551867403218
4073 2 18041560369090692138
474113 269 12180137518662839897
504843 32 17489023872299046526
5104073 3 17967529077907223010
5385378 56 18113899304186228762
563151 248 15719398355739724289
563151 74 17313104116134867723
59682541 35 18187941560547883553
5969126 39 18125154098809161695
636775 72 18269550697257675640
636775 8 7853581240574913176
7226269 152 18413386536022344672
8217 86 9511463325349992028
8863177 126 10881406447911263876
9896288 288 12902085558599582551
9981440 41 18335145305822739731
999808 66 11458418038091327944

> <PUBCHEM_SHAPE_MULTIPOLES>
524.87
21.63
3.76
1.18
21.62
0.05
0.16
25.04
4.03
-4.05
0.77
-0.63
-0.55
0.51

> <PUBCHEM_SHAPE_SELFOVERLAP>
1098.481

> <PUBCHEM_SHAPE_VOLUME>
293.1

> <PUBCHEM_COORDINATE_TYPE>
2
5
10

$$$$
