44715973
  -OEChem-12032416253D

 53 56  0     1  0  0  0  0  0999 V2000
   -5.2875    1.1708    0.4140 O   0  0  0  0  0  0  0  0  0  0  0  0
   -1.8182    2.2632   -0.8522 N   0  0  1  0  0  0  0  0  0  0  0  0
    1.8588    1.1939   -0.8320 N   0  0  0  0  0  0  0  0  0  0  0  0
   -5.0153   -1.1222    0.6799 N   0  0  0  0  0  0  0  0  0  0  0  0
    1.9938    0.3520   -1.8695 N   0  0  0  0  0  0  0  0  0  0  0  0
    3.1136   -0.3360   -1.6760 N   0  0  0  0  0  0  0  0  0  0  0  0
    5.2730    0.1431    1.2205 N   0  0  0  0  0  0  0  0  0  0  0  0
   -2.1911    0.5130    1.0374 C   0  0  1  0  0  0  0  0  0  0  0  0
   -3.1664    0.2890   -0.1354 C   0  0  2  0  0  0  0  0  0  0  0  0
   -0.6423    1.3556   -0.7528 C   0  0  2  0  0  0  0  0  0  0  0  0
   -0.7633    0.4146    0.4687 C   0  0  0  0  0  0  0  0  0  0  0  0
   -2.3507    1.9491    1.5685 C   0  0  0  0  0  0  0  0  0  0  0  0
   -3.0193    1.4401   -1.1483 C   0  0  0  0  0  0  0  0  0  0  0  0
   -2.0570    2.9480    0.4386 C   0  0  0  0  0  0  0  0  0  0  0  0
    0.6811    2.1237   -0.7474 C   0  0  0  0  0  0  0  0  0  0  0  0
   -4.5826    0.1607    0.3420 C   0  0  0  0  0  0  0  0  0  0  0  0
   -4.1460   -2.2917    0.5793 C   0  0  0  0  0  0  0  0  0  0  0  0
    2.8855    1.0691    0.0524 C   0  0  0  0  0  0  0  0  0  0  0  0
   -6.3660   -1.3885    1.1579 C   0  0  0  0  0  0  0  0  0  0  0  0
    3.6718    0.0911   -0.5032 C   0  0  0  0  0  0  0  0  0  0  0  0
   -4.2853   -2.8871   -0.7821 C   0  0  0  0  0  0  0  0  0  0  0  0
    4.8886   -0.4116    0.0492 C   0  0  0  0  0  0  0  0  0  0  0  0
   -4.6763   -4.1463   -1.0088 C   0  0  0  0  0  0  0  0  0  0  0  0
    5.5972   -1.4041   -0.6087 C   0  0  0  0  0  0  0  0  0  0  0  0
    6.7759   -1.8567   -0.0266 C   0  0  0  0  0  0  0  0  0  0  0  0
    6.4239   -0.3222    1.7561 C   0  0  0  0  0  0  0  0  0  0  0  0
    7.2041   -1.3106    1.1783 C   0  0  0  0  0  0  0  0  0  0  0  0
   -2.3371   -0.2045    1.8509 H   0  0  0  0  0  0  0  0  0  0  0  0
   -2.8602   -0.6050   -0.6831 H   0  0  0  0  0  0  0  0  0  0  0  0
   -0.6426    0.7314   -1.6579 H   0  0  0  0  0  0  0  0  0  0  0  0
   -0.0438    0.6714    1.2557 H   0  0  0  0  0  0  0  0  0  0  0  0
   -0.5534   -0.6177    0.1629 H   0  0  0  0  0  0  0  0  0  0  0  0
   -1.6548    2.1192    2.3991 H   0  0  0  0  0  0  0  0  0  0  0  0
   -3.3593    2.1079    1.9649 H   0  0  0  0  0  0  0  0  0  0  0  0
   -2.9201    1.0220   -2.1593 H   0  0  0  0  0  0  0  0  0  0  0  0
   -3.8954    2.0958   -1.2118 H   0  0  0  0  0  0  0  0  0  0  0  0
   -2.8993    3.6439    0.3342 H   0  0  0  0  0  0  0  0  0  0  0  0
   -1.2009    3.5788    0.7036 H   0  0  0  0  0  0  0  0  0  0  0  0
    0.7776    2.7798   -1.6201 H   0  0  0  0  0  0  0  0  0  0  0  0
    0.8308    2.7150    0.1620 H   0  0  0  0  0  0  0  0  0  0  0  0
   -4.4345   -3.0037    1.3626 H   0  0  0  0  0  0  0  0  0  0  0  0
   -3.1002   -2.0485    0.7739 H   0  0  0  0  0  0  0  0  0  0  0  0
    2.9548    1.6620    0.9540 H   0  0  0  0  0  0  0  0  0  0  0  0
   -6.3099   -1.8024    2.1689 H   0  0  0  0  0  0  0  0  0  0  0  0
   -6.9586   -0.4704    1.1846 H   0  0  0  0  0  0  0  0  0  0  0  0
   -6.8521   -2.1050    0.4899 H   0  0  0  0  0  0  0  0  0  0  0  0
   -4.0486   -2.2689   -1.6440 H   0  0  0  0  0  0  0  0  0  0  0  0
   -4.7547   -4.5232   -2.0227 H   0  0  0  0  0  0  0  0  0  0  0  0
   -4.9242   -4.8187   -0.1950 H   0  0  0  0  0  0  0  0  0  0  0  0
    5.2663   -1.8327   -1.5492 H   0  0  0  0  0  0  0  0  0  0  0  0
    7.3600   -2.6335   -0.5107 H   0  0  0  0  0  0  0  0  0  0  0  0
    6.7140    0.1362    2.6958 H   0  0  0  0  0  0  0  0  0  0  0  0
    8.1198   -1.6481    1.6502 H   0  0  0  0  0  0  0  0  0  0  0  0
  1 16  2  0  0  0  0
  2 10  1  0  0  0  0
  2 13  1  0  0  0  0
  2 14  1  0  0  0  0
  3  5  1  0  0  0  0
  3 15  1  0  0  0  0
  3 18  1  0  0  0  0
  4 16  1  0  0  0  0
  4 17  1  0  0  0  0
  4 19  1  0  0  0  0
  5  6  2  0  0  0  0
  6 20  1  0  0  0  0
  7 22  1  0  0  0  0
  7 26  2  0  0  0  0
  8  9  1  0  0  0  0
  8 11  1  0  0  0  0
  8 12  1  0  0  0  0
  8 28  1  0  0  0  0
  9 13  1  0  0  0  0
  9 16  1  0  0  0  0
  9 29  1  0  0  0  0
 10 11  1  0  0  0  0
 10 15  1  0  0  0  0
 10 30  1  0  0  0  0
 11 31  1  0  0  0  0
 11 32  1  0  0  0  0
 12 14  1  0  0  0  0
 12 33  1  0  0  0  0
 12 34  1  0  0  0  0
 13 35  1  0  0  0  0
 13 36  1  0  0  0  0
 14 37  1  0  0  0  0
 14 38  1  0  0  0  0
 15 39  1  0  0  0  0
 15 40  1  0  0  0  0
 17 21  1  0  0  0  0
 17 41  1  0  0  0  0
 17 42  1  0  0  0  0
 18 20  2  0  0  0  0
 18 43  1  0  0  0  0
 19 44  1  0  0  0  0
 19 45  1  0  0  0  0
 19 46  1  0  0  0  0
 20 22  1  0  0  0  0
 21 23  2  0  0  0  0
 21 47  1  0  0  0  0
 22 24  2  0  0  0  0
 23 48  1  0  0  0  0
 23 49  1  0  0  0  0
 24 25  1  0  0  0  0
 24 50  1  0  0  0  0
 25 27  2  0  0  0  0
 25 51  1  0  0  0  0
 26 27  1  0  0  0  0
 26 52  1  0  0  0  0
 27 53  1  0  0  0  0
M  END
> <PUBCHEM_COMPOUND_CID>
44715973

> <PUBCHEM_CONFORMER_RMSD>
1

> <PUBCHEM_CONFORMER_DIVERSEORDER>
1
3
99
40
62
23
47
30
44
53
55
25
86
88
100
103
52
66
61
15
95
18
68
45
76
70
102
60
101
21
56
31
81
35
87
36
9
33
43
27
89
72
37
50
46
83
75
32
49
5
38
22
73
8
34
28
57
93
59
41
26
42
78
63
11
90
51
85
39
6
19
82
14
91
54
96
7
94
98
58
80
97
13
17
79
64
20
74
65
71
84
77
10
104
12
2
24
29
69
4
67
16
92
48

> <PUBCHEM_MMFF94_PARTIAL_CHARGES>
32
1 -0.57
10 0.27
13 0.27
14 0.27
15 0.26
16 0.57
17 0.44
18 -0.3
19 0.3
2 -0.81
20 0.17
21 -0.29
22 0.36
23 -0.3
24 -0.15
25 -0.15
26 0.16
27 -0.15
3 0.31
4 -0.66
43 0.15
47 0.15
48 0.15
49 0.15
5 -0.42
50 0.15
51 0.15
52 0.15
53 0.15
6 -0.23
7 -0.62
9 0.06

> <PUBCHEM_EFFECTIVE_ROTOR_COUNT>
8.2

> <PUBCHEM_PHARMACOPHORE_FEATURES>
7
1 1 acceptor
1 2 cation
1 23 hydrophobe
1 7 acceptor
5 3 5 6 18 20 rings
6 7 22 24 25 26 27 rings
8 2 8 9 10 11 12 13 14 rings

> <PUBCHEM_HEAVY_ATOM_COUNT>
27

> <PUBCHEM_ATOM_DEF_STEREO_COUNT>
2

> <PUBCHEM_ATOM_UDEF_STEREO_COUNT>
1

> <PUBCHEM_BOND_DEF_STEREO_COUNT>
0

> <PUBCHEM_BOND_UDEF_STEREO_COUNT>
0

> <PUBCHEM_ISOTOPIC_ATOM_COUNT>
0

> <PUBCHEM_COMPONENT_COUNT>
1

> <PUBCHEM_CACTVS_TAUTO_COUNT>
1

> <PUBCHEM_CONFORMER_ID>
02AA4FC500000001

> <PUBCHEM_MMFF94_ENERGY>
66.4994

> <PUBCHEM_FEATURE_SELFOVERLAP>
35.522

> <PUBCHEM_SHAPE_FINGERPRINT>
10 15 17346593072054940480
10074138 170 17630912416622344209
10319926 262 18130795508107604124
10622 236 18265050430498358335
11088757 655 18127682936412731871
11524674 6 17632858616437995719
12166972 35 17530971293297225044
12390115 104 9655584027905399527
12422481 6 17917719027625420134
12523318 42 18272373044657774761
12596602 18 18413105035972013600
13782708 43 18412539908306519130
14251751 18 18342738554440312762
14341114 328 14692563313152691404
14347332 77 17894630331413806012
15183329 4 13984658131776055496
15188451 53 18408038507301392720
15348495 7 18060133275697321544
15728490 51 18336827585184042612
16120349 67 11314845961562855047
17349148 13 17603589625190135560
17780758 139 18272651225310257769
17857418 61 17894915109752798936
17913733 40 16200434646042904630
18222031 100 17531250526828326348
20028762 73 18334858316683092226
21033648 29 14979418200611223841
21585480 29 17916290814066961446
22061861 79 14562532869107644050
229767 44 18131067198764511862
23522609 53 17680465244737883796
23559900 14 18335699485532180457
23569914 152 12688415248050400906
25122255 55 18340496586197249118
3004659 81 17385730188387565812
312425 54 18129949953595552122
392239 28 16773508940965585976
397830 11 18201145646797996776
463206 1 18188495803732521507
5080951 261 18336531743046225373
5104073 3 18272099330703208449
559249 180 18333453128032032457
5718773 13 18261393390362715059
5937810 71 9510886155193435962
59682541 52 13551462662393165048
6608658 132 8934724345118440187
7288768 16 12823299004802298557

> <PUBCHEM_SHAPE_MULTIPOLES>
519.89
18.24
3.36
1.48
21.61
2.18
-0.02
14.79
-6.15
-5.75
0.71
0.66
-0.05
-0.89

> <PUBCHEM_SHAPE_SELFOVERLAP>
1110.002

> <PUBCHEM_SHAPE_VOLUME>
283.4

> <PUBCHEM_COORDINATE_TYPE>
2
5
10

$$$$
