7687218
  -OEChem-12032416153D

 60 64  0     1  0  0  0  0  0999 V2000
    7.6618    2.7493    1.0566 Cl  0  0  0  0  0  0  0  0  0  0  0  0
   -2.1806   -3.7043   -2.4767 O   0  0  0  0  0  0  0  0  0  0  0  0
   -4.0735   -0.5326    0.9841 O   0  0  0  0  0  0  0  0  0  0  0  0
   -1.0540    3.0899   -0.7519 O   0  0  0  0  0  0  0  0  0  0  0  0
   -1.9463   -1.0584    1.7175 N   0  0  0  0  0  0  0  0  0  0  0  0
   -0.9550   -2.8531   -0.6715 N   0  0  0  0  0  0  0  0  0  0  0  0
   -2.3410    0.9480    0.5455 N   0  0  0  0  0  0  0  0  0  0  0  0
   -1.5174   -3.5033    1.7453 C   0  0  1  0  0  0  0  0  0  0  0  0
    0.3263   -1.9372    1.2878 C   0  0  2  0  0  0  0  0  0  0  0  0
   -0.0403   -3.2422    1.9977 C   0  0  0  0  0  0  0  0  0  0  0  0
   -2.3825   -2.3412    2.2718 C   0  0  0  0  0  0  0  0  0  0  0  0
   -1.7036   -3.7277    0.2439 C   0  0  0  0  0  0  0  0  0  0  0  0
   -0.5096   -0.7906    1.8909 C   0  0  0  0  0  0  0  0  0  0  0  0
    0.0901   -2.0165   -0.2239 C   0  0  0  0  0  0  0  0  0  0  0  0
    0.8205   -1.2935   -1.1155 C   0  0  0  0  0  0  0  0  0  0  0  0
   -1.2916   -2.9789   -2.0300 C   0  0  0  0  0  0  0  0  0  0  0  0
   -2.8844   -0.2195    1.0804 C   0  0  0  0  0  0  0  0  0  0  0  0
    0.4922   -1.4064   -2.5275 C   0  0  0  0  0  0  0  0  0  0  0  0
   -0.4945   -2.1777   -2.9822 C   0  0  0  0  0  0  0  0  0  0  0  0
    1.8875   -0.3915   -0.7135 C   0  0  0  0  0  0  0  0  0  0  0  0
    3.1554   -0.7862   -0.6095 C   0  0  0  0  0  0  0  0  0  0  0  0
   -3.0113    2.1683    0.2856 C   0  0  0  0  0  0  0  0  0  0  0  0
    4.2681    0.0871   -0.1975 C   0  0  0  0  0  0  0  0  0  0  0  0
   -2.3534    3.2134   -0.3586 C   0  0  0  0  0  0  0  0  0  0  0  0
   -4.3391    2.3121    0.6814 C   0  0  0  0  0  0  0  0  0  0  0  0
    4.1230    1.4618   -0.2925 C   0  0  0  0  0  0  0  0  0  0  0  0
    5.4387   -0.4831    0.2763 C   0  0  0  0  0  0  0  0  0  0  0  0
   -3.0271    4.4090   -0.6084 C   0  0  0  0  0  0  0  0  0  0  0  0
   -5.0127    3.5077    0.4316 C   0  0  0  0  0  0  0  0  0  0  0  0
   -4.3567    4.5562   -0.2132 C   0  0  0  0  0  0  0  0  0  0  0  0
    5.1770    2.2885    0.0969 C   0  0  0  0  0  0  0  0  0  0  0  0
    6.4926    0.3437    0.6657 C   0  0  0  0  0  0  0  0  0  0  0  0
    6.3617    1.7294    0.5760 C   0  0  0  0  0  0  0  0  0  0  0  0
   -0.8203    2.5796   -2.0626 C   0  0  0  0  0  0  0  0  0  0  0  0
   -1.8271   -4.4133    2.2737 H   0  0  0  0  0  0  0  0  0  0  0  0
    1.3838   -1.7449    1.5020 H   0  0  0  0  0  0  0  0  0  0  0  0
    0.1541   -3.1603    3.0741 H   0  0  0  0  0  0  0  0  0  0  0  0
    0.5721   -4.0723    1.6240 H   0  0  0  0  0  0  0  0  0  0  0  0
   -3.4383   -2.5289    2.0516 H   0  0  0  0  0  0  0  0  0  0  0  0
   -2.2883   -2.2684    3.3621 H   0  0  0  0  0  0  0  0  0  0  0  0
   -1.3836   -4.7505    0.0006 H   0  0  0  0  0  0  0  0  0  0  0  0
   -2.7687   -3.6776   -0.0165 H   0  0  0  0  0  0  0  0  0  0  0  0
   -0.3303   -0.7276    2.9721 H   0  0  0  0  0  0  0  0  0  0  0  0
   -0.2013    0.1723    1.4833 H   0  0  0  0  0  0  0  0  0  0  0  0
    1.0757   -0.8213   -3.2330 H   0  0  0  0  0  0  0  0  0  0  0  0
   -0.7270   -2.2432   -4.0383 H   0  0  0  0  0  0  0  0  0  0  0  0
    1.5575    0.6165   -0.4827 H   0  0  0  0  0  0  0  0  0  0  0  0
   -1.3668    0.9404    0.2650 H   0  0  0  0  0  0  0  0  0  0  0  0
    3.4199   -1.8193   -0.8264 H   0  0  0  0  0  0  0  0  0  0  0  0
   -4.8921    1.5513    1.2180 H   0  0  0  0  0  0  0  0  0  0  0  0
    3.2295    1.9408   -0.6801 H   0  0  0  0  0  0  0  0  0  0  0  0
    5.5551   -1.5609    0.3532 H   0  0  0  0  0  0  0  0  0  0  0  0
   -2.5222    5.2307   -1.1091 H   0  0  0  0  0  0  0  0  0  0  0  0
   -6.0455    3.6264    0.7465 H   0  0  0  0  0  0  0  0  0  0  0  0
   -4.8805    5.4880   -0.4057 H   0  0  0  0  0  0  0  0  0  0  0  0
    5.0633    3.3667    0.0171 H   0  0  0  0  0  0  0  0  0  0  0  0
    7.4098   -0.1060    1.0375 H   0  0  0  0  0  0  0  0  0  0  0  0
    0.2600    2.4959   -2.2098 H   0  0  0  0  0  0  0  0  0  0  0  0
   -1.2661    1.5868   -2.1801 H   0  0  0  0  0  0  0  0  0  0  0  0
   -1.2242    3.2633   -2.8157 H   0  0  0  0  0  0  0  0  0  0  0  0
  1 33  1  0  0  0  0
  2 16  2  0  0  0  0
  3 17  2  0  0  0  0
  4 24  1  0  0  0  0
  4 34  1  0  0  0  0
  5 11  1  0  0  0  0
  5 13  1  0  0  0  0
  5 17  1  0  0  0  0
  6 12  1  0  0  0  0
  6 14  1  0  0  0  0
  6 16  1  0  0  0  0
  7 17  1  0  0  0  0
  7 22  1  0  0  0  0
  7 48  1  0  0  0  0
  8 10  1  0  0  0  0
  8 11  1  0  0  0  0
  8 12  1  0  0  0  0
  8 35  1  0  0  0  0
  9 10  1  0  0  0  0
  9 13  1  0  0  0  0
  9 14  1  0  0  0  0
  9 36  1  0  0  0  0
 10 37  1  0  0  0  0
 10 38  1  0  0  0  0
 11 39  1  0  0  0  0
 11 40  1  0  0  0  0
 12 41  1  0  0  0  0
 12 42  1  0  0  0  0
 13 43  1  0  0  0  0
 13 44  1  0  0  0  0
 14 15  2  0  0  0  0
 15 18  1  0  0  0  0
 15 20  1  0  0  0  0
 16 19  1  0  0  0  0
 18 19  2  0  0  0  0
 18 45  1  0  0  0  0
 19 46  1  0  0  0  0
 20 21  2  0  0  0  0
 20 47  1  0  0  0  0
 21 23  1  0  0  0  0
 21 49  1  0  0  0  0
 22 24  1  0  0  0  0
 22 25  2  0  0  0  0
 23 26  2  0  0  0  0
 23 27  1  0  0  0  0
 24 28  2  0  0  0  0
 25 29  1  0  0  0  0
 25 50  1  0  0  0  0
 26 31  1  0  0  0  0
 26 51  1  0  0  0  0
 27 32  2  0  0  0  0
 27 52  1  0  0  0  0
 28 30  1  0  0  0  0
 28 53  1  0  0  0  0
 29 30  2  0  0  0  0
 29 54  1  0  0  0  0
 30 55  1  0  0  0  0
 31 33  2  0  0  0  0
 31 56  1  0  0  0  0
 32 33  1  0  0  0  0
 32 57  1  0  0  0  0
 34 58  1  0  0  0  0
 34 59  1  0  0  0  0
 34 60  1  0  0  0  0
M  END
> <PUBCHEM_COMPOUND_CID>
7687218

> <PUBCHEM_CONFORMER_RMSD>
1

> <PUBCHEM_CONFORMER_DIVERSEORDER>
1
28
11
20
23
24
7
4
21
13
27
12
26
25
17
19
6
31
16
2
30
10
9
32
14
3
15
29
18
8
22
5

> <PUBCHEM_MMFF94_PARTIAL_CHARGES>
44
1 -0.18
11 0.3
12 0.3
13 0.3
14 -0.03
16 0.62
17 0.69
18 -0.15
19 -0.14
2 -0.57
20 -0.15
21 -0.18
22 0.12
23 0.03
24 0.08
25 -0.15
26 -0.15
27 -0.15
28 -0.15
29 -0.15
3 -0.57
30 -0.15
31 -0.15
32 -0.15
33 0.18
34 0.28
4 -0.36
45 0.15
46 0.15
47 0.15
48 0.37
49 0.15
5 -0.66
50 0.15
51 0.15
52 0.15
53 0.15
54 0.15
55 0.15
56 0.15
57 0.15
6 -0.47
7 -0.55
9 0.14

> <PUBCHEM_EFFECTIVE_ROTOR_COUNT>
7

> <PUBCHEM_PHARMACOPHORE_FEATURES>
9
1 2 acceptor
1 3 acceptor
1 4 acceptor
1 7 donor
6 22 24 25 28 29 30 rings
6 23 26 27 31 32 33 rings
6 5 8 9 10 11 13 rings
6 6 14 15 16 18 19 rings
6 6 8 9 10 12 14 rings

> <PUBCHEM_HEAVY_ATOM_COUNT>
34

> <PUBCHEM_ATOM_DEF_STEREO_COUNT>
2

> <PUBCHEM_ATOM_UDEF_STEREO_COUNT>
0

> <PUBCHEM_BOND_DEF_STEREO_COUNT>
1

> <PUBCHEM_BOND_UDEF_STEREO_COUNT>
0

> <PUBCHEM_ISOTOPIC_ATOM_COUNT>
0

> <PUBCHEM_COMPONENT_COUNT>
1

> <PUBCHEM_CACTVS_TAUTO_COUNT>
2

> <PUBCHEM_CONFORMER_ID>
00754C3200000001

> <PUBCHEM_MMFF94_ENERGY>
115.1696

> <PUBCHEM_FEATURE_SELFOVERLAP>
47.263

> <PUBCHEM_SHAPE_FINGERPRINT>
10816530 23 17913490134849801133
11582403 64 18341613650971553651
12107183 9 18042396938425283618
12156800 1 17698399413336487467
12788726 201 18265592442153544598
13911987 19 17346604066585539122
15264996 74 17844792871289283988
15324884 4 17982490093797552959
15338160 23 18336546144446530908
15513586 35 17692825091664507704
16114785 44 18410567427132237066
17909252 39 10374994473296445898
19309040 13 16986896539999693657
24771293 8 18269296667796336915
2838139 119 18339359639254277588
376196 1 18195815059185288387
44249763 50 17916296307751879392
469060 322 17841720908710388846
5219985 13 18338800005105714908
550186 7 18264793050103152630
57527306 92 18264475356247860655
5951187 136 17620759388395644565
60111433 81 16965182108874723496
6677587 24 17622137102430576029
9981440 41 18114473249366107129

> <PUBCHEM_SHAPE_MULTIPOLES>
669.02
12.44
6.5
2.33
27.15
2.51
-1.1
17.04
4.81
-8.59
-0.55
-1.28
-2.66
1.15

> <PUBCHEM_SHAPE_SELFOVERLAP>
1452.893

> <PUBCHEM_SHAPE_VOLUME>
362

> <PUBCHEM_COORDINATE_TYPE>
2
5
10

$$$$
