7143702
  -OEChem-12032416413D

 56 61  0     1  0  0  0  0  0999 V2000
   -0.6592   -2.1506    1.4406 O   0  0  0  0  0  0  0  0  0  0  0  0
    3.0899    1.1575    2.4714 O   0  0  0  0  0  0  0  0  0  0  0  0
    3.7997   -0.1077    0.6358 N   0  0  0  0  0  0  0  0  0  0  0  0
    1.2512   -1.9016    0.1260 N   0  0  0  0  0  0  0  0  0  0  0  0
    3.5856   -2.5649    0.9488 C   0  0  1  0  0  0  0  0  0  0  0  0
    3.3069   -1.5891   -1.2946 C   0  0  2  0  0  0  0  0  0  0  0  0
    3.8936   -2.7747   -0.5300 C   0  0  0  0  0  0  0  0  0  0  0  0
    4.2163   -1.2514    1.4468 C   0  0  0  0  0  0  0  0  0  0  0  0
    2.0640   -2.5853    1.1430 C   0  0  0  0  0  0  0  0  0  0  0  0
    3.9741   -0.2835   -0.8155 C   0  0  0  0  0  0  0  0  0  0  0  0
    1.8069   -1.4957   -1.0899 C   0  0  0  0  0  0  0  0  0  0  0  0
    1.0232   -0.9857   -2.0533 C   0  0  0  0  0  0  0  0  0  0  0  0
   -0.1254   -1.7744    0.3955 C   0  0  0  0  0  0  0  0  0  0  0  0
    3.2366    1.0085    1.2593 C   0  0  0  0  0  0  0  0  0  0  0  0
   -0.9701   -1.1554   -0.6851 C   0  0  0  0  0  0  0  0  0  0  0  0
   -0.3853   -0.8098   -1.8417 C   0  0  0  0  0  0  0  0  0  0  0  0
    2.7486    2.0999    0.4094 C   0  0  0  0  0  0  0  0  0  0  0  0
   -2.4082   -0.9126   -0.4833 C   0  0  0  0  0  0  0  0  0  0  0  0
    1.4301    2.0924   -0.0387 C   0  0  0  0  0  0  0  0  0  0  0  0
    3.6060    3.1385    0.0551 C   0  0  0  0  0  0  0  0  0  0  0  0
   -2.8432    0.2954    0.0645 C   0  0  0  0  0  0  0  0  0  0  0  0
   -3.3355   -1.8885   -0.8389 C   0  0  0  0  0  0  0  0  0  0  0  0
   -4.2115    0.5417    0.2629 C   0  0  0  0  0  0  0  0  0  0  0  0
   -4.6987   -1.6607   -0.6486 C   0  0  0  0  0  0  0  0  0  0  0  0
   -5.1531   -0.4509   -0.0990 C   0  0  0  0  0  0  0  0  0  0  0  0
    0.9660    3.1304   -0.8467 C   0  0  0  0  0  0  0  0  0  0  0  0
    3.1416    4.1765   -0.7528 C   0  0  0  0  0  0  0  0  0  0  0  0
    1.8216    4.1723   -1.2036 C   0  0  0  0  0  0  0  0  0  0  0  0
   -4.6658    1.7514    0.8127 C   0  0  0  0  0  0  0  0  0  0  0  0
   -6.5215   -0.2045    0.0997 C   0  0  0  0  0  0  0  0  0  0  0  0
   -6.0291    1.9793    1.0028 C   0  0  0  0  0  0  0  0  0  0  0  0
   -6.9553    1.0033    0.6470 C   0  0  0  0  0  0  0  0  0  0  0  0
    4.0197   -3.3843    1.5347 H   0  0  0  0  0  0  0  0  0  0  0  0
    3.5304   -1.7232   -2.3608 H   0  0  0  0  0  0  0  0  0  0  0  0
    3.4618   -3.7190   -0.8847 H   0  0  0  0  0  0  0  0  0  0  0  0
    4.9769   -2.8361   -0.6904 H   0  0  0  0  0  0  0  0  0  0  0  0
    3.9699   -1.0899    2.5015 H   0  0  0  0  0  0  0  0  0  0  0  0
    5.3092   -1.3112    1.3757 H   0  0  0  0  0  0  0  0  0  0  0  0
    1.7983   -2.1861    2.1300 H   0  0  0  0  0  0  0  0  0  0  0  0
    1.7236   -3.6298    1.1384 H   0  0  0  0  0  0  0  0  0  0  0  0
    3.5884    0.5707   -1.3774 H   0  0  0  0  0  0  0  0  0  0  0  0
    5.0544   -0.3237   -1.0019 H   0  0  0  0  0  0  0  0  0  0  0  0
    1.4324   -0.6490   -3.0001 H   0  0  0  0  0  0  0  0  0  0  0  0
   -0.9490   -0.3557   -2.6514 H   0  0  0  0  0  0  0  0  0  0  0  0
   -2.1128    1.0548    0.3414 H   0  0  0  0  0  0  0  0  0  0  0  0
    0.7514    1.2960    0.2493 H   0  0  0  0  0  0  0  0  0  0  0  0
    4.6362    3.1505    0.4009 H   0  0  0  0  0  0  0  0  0  0  0  0
   -3.0126   -2.8351   -1.2657 H   0  0  0  0  0  0  0  0  0  0  0  0
   -5.4047   -2.4379   -0.9337 H   0  0  0  0  0  0  0  0  0  0  0  0
   -0.0630    3.1285   -1.1942 H   0  0  0  0  0  0  0  0  0  0  0  0
    3.8078    4.9879   -1.0309 H   0  0  0  0  0  0  0  0  0  0  0  0
    1.4599    4.9809   -1.8319 H   0  0  0  0  0  0  0  0  0  0  0  0
   -3.9600    2.5287    1.0981 H   0  0  0  0  0  0  0  0  0  0  0  0
   -7.2630   -0.9534   -0.1711 H   0  0  0  0  0  0  0  0  0  0  0  0
   -6.3673    2.9194    1.4289 H   0  0  0  0  0  0  0  0  0  0  0  0
   -8.0163    1.1814    0.7954 H   0  0  0  0  0  0  0  0  0  0  0  0
  1 13  2  0  0  0  0
  2 14  2  0  0  0  0
  3  8  1  0  0  0  0
  3 10  1  0  0  0  0
  3 14  1  0  0  0  0
  4  9  1  0  0  0  0
  4 11  1  0  0  0  0
  4 13  1  0  0  0  0
  5  7  1  0  0  0  0
  5  8  1  0  0  0  0
  5  9  1  0  0  0  0
  5 33  1  0  0  0  0
  6  7  1  0  0  0  0
  6 10  1  0  0  0  0
  6 11  1  0  0  0  0
  6 34  1  0  0  0  0
  7 35  1  0  0  0  0
  7 36  1  0  0  0  0
  8 37  1  0  0  0  0
  8 38  1  0  0  0  0
  9 39  1  0  0  0  0
  9 40  1  0  0  0  0
 10 41  1  0  0  0  0
 10 42  1  0  0  0  0
 11 12  2  0  0  0  0
 12 16  1  0  0  0  0
 12 43  1  0  0  0  0
 13 15  1  0  0  0  0
 14 17  1  0  0  0  0
 15 16  2  0  0  0  0
 15 18  1  0  0  0  0
 16 44  1  0  0  0  0
 17 19  2  0  0  0  0
 17 20  1  0  0  0  0
 18 21  2  0  0  0  0
 18 22  1  0  0  0  0
 19 26  1  0  0  0  0
 19 46  1  0  0  0  0
 20 27  2  0  0  0  0
 20 47  1  0  0  0  0
 21 23  1  0  0  0  0
 21 45  1  0  0  0  0
 22 24  2  0  0  0  0
 22 48  1  0  0  0  0
 23 25  1  0  0  0  0
 23 29  2  0  0  0  0
 24 25  1  0  0  0  0
 24 49  1  0  0  0  0
 25 30  2  0  0  0  0
 26 28  2  0  0  0  0
 26 50  1  0  0  0  0
 27 28  1  0  0  0  0
 27 51  1  0  0  0  0
 28 52  1  0  0  0  0
 29 31  1  0  0  0  0
 29 53  1  0  0  0  0
 30 32  1  0  0  0  0
 30 54  1  0  0  0  0
 31 32  2  0  0  0  0
 31 55  1  0  0  0  0
 32 56  1  0  0  0  0
M  END
> <PUBCHEM_COMPOUND_CID>
7143702

> <PUBCHEM_CONFORMER_RMSD>
0.8

> <PUBCHEM_CONFORMER_DIVERSEORDER>
1
13
8
12
9
6
11
4
10
14
2
3
7
5

> <PUBCHEM_MMFF94_PARTIAL_CHARGES>
42
1 -0.57
10 0.3
11 -0.03
12 -0.15
13 0.62
14 0.54
15 -0.01
16 -0.15
17 0.09
18 0.03
19 -0.15
2 -0.57
20 -0.15
21 -0.15
22 -0.15
24 -0.15
26 -0.15
27 -0.15
28 -0.15
29 -0.15
3 -0.66
30 -0.15
31 -0.15
32 -0.15
4 -0.47
43 0.15
44 0.15
45 0.15
46 0.15
47 0.15
48 0.15
49 0.15
50 0.15
51 0.15
52 0.15
53 0.15
54 0.15
55 0.15
56 0.15
6 0.14
8 0.3
9 0.3

> <PUBCHEM_EFFECTIVE_ROTOR_COUNT>
4

> <PUBCHEM_PHARMACOPHORE_FEATURES>
8
1 1 acceptor
1 2 acceptor
6 17 19 20 26 27 28 rings
6 18 21 22 23 24 25 rings
6 23 25 29 30 31 32 rings
6 3 5 6 7 8 10 rings
6 4 11 12 13 15 16 rings
6 4 5 6 7 9 11 rings

> <PUBCHEM_HEAVY_ATOM_COUNT>
32

> <PUBCHEM_ATOM_DEF_STEREO_COUNT>
2

> <PUBCHEM_ATOM_UDEF_STEREO_COUNT>
0

> <PUBCHEM_BOND_DEF_STEREO_COUNT>
0

> <PUBCHEM_BOND_UDEF_STEREO_COUNT>
0

> <PUBCHEM_ISOTOPIC_ATOM_COUNT>
0

> <PUBCHEM_COMPONENT_COUNT>
1

> <PUBCHEM_CACTVS_TAUTO_COUNT>
1

> <PUBCHEM_CONFORMER_ID>
006D011600000001

> <PUBCHEM_MMFF94_ENERGY>
99.4735

> <PUBCHEM_FEATURE_SELFOVERLAP>
42.22

> <PUBCHEM_SHAPE_FINGERPRINT>
10074138 170 15305310882536017747
10190108 129 18335970979959054546
10439779 11 17764874594031528873
10483366 6 18336845169018101740
10674148 151 18199194057089272660
11421498 54 17678740016968170442
11578080 2 17751383856461004866
12107698 1 18340769235237420065
12166972 35 18201443519511411355
12236239 1 18188497874471240871
12422481 6 18200298931922432041
12633257 1 17824239683303534482
12788726 201 17901678059905188166
13965767 371 17844218857900611850
14251764 38 18339365266168006529
14849402 71 18334579061887260740
15001296 14 18411419518806131857
15238133 3 18409450280769683294
15475509 84 17540243251162409234
17818456 19 17988647359197733561
17844677 252 18341899601958262523
20691752 17 18113329821360248407
20715895 44 17987520299992469409
21033648 29 17167852063897299071
21475661 188 18337676415975244764
21792934 111 18340212904657011201
21859007 373 17823406108141904877
21860390 5 18412545435702517254
22149856 69 17060073545198367123
22223350 30 17313678143247295459
23559900 14 17417543406117672959
338550 245 18412547596040016161
3411729 13 18341054115606530900
345986 75 17606388853035514994
3493558 16 18341337777058977873
3680242 22 18338803304004192675
397830 11 18114757048695734075
4058900 60 17899142882180445364
4144715 1 18271816683480123627
44280116 191 13175205196417318483
474 4 18265327481257320439
5104073 3 18337686282412052883
513532 50 17489595579959510036
53794403 172 18263372536920266245
54076057 255 18261974971894537116
5895379 119 17559132985592396161
9896288 288 17324931846758168864
9981440 41 17905329876827089457

> <PUBCHEM_SHAPE_MULTIPOLES>
636.84
13.18
4.5
1.59
24.44
4.43
-0.09
2.31
-3.42
-5.67
0.67
-1.25
-0.21
-1.52

> <PUBCHEM_SHAPE_SELFOVERLAP>
1432.178

> <PUBCHEM_SHAPE_VOLUME>
330.3

> <PUBCHEM_COORDINATE_TYPE>
2
5
10

$$$$
