11885092
  -OEChem-12032416133D

 76 79  0     1  0  0  0  0  0999 V2000
   -0.8310    3.1122    0.3600 S   0  0  0  0  0  0  0  0  0  0  0  0
   -7.7125   -0.4864   -0.7891 O   0  0  0  0  0  0  0  0  0  0  0  0
   -7.7181    1.2351    0.8785 O   0  0  0  0  0  0  0  0  0  0  0  0
    0.4670   -1.6187   -1.3965 O   0  0  0  0  0  0  0  0  0  0  0  0
    3.0761    0.6300   -0.1831 O   0  0  0  0  0  0  0  0  0  0  0  0
    5.0479   -2.4308   -2.0689 O   0  0  0  0  0  0  0  0  0  0  0  0
    0.1152    0.7409   -0.0577 N   0  0  0  0  0  0  0  0  0  0  0  0
    1.1180   -2.4727    0.6926 N   0  0  0  0  0  0  0  0  0  0  0  0
    1.7182    2.5259    0.1751 N   0  0  0  0  0  0  0  0  0  0  0  0
   -3.4825   -0.6095    0.2597 C   0  0  2  0  0  0  0  0  0  0  0  0
   -4.1203    0.7298   -0.3190 C   0  0  1  0  0  0  0  0  0  0  0  0
   -5.6945    0.8290   -0.3245 C   0  0  1  0  0  0  0  0  0  0  0  0
   -1.9616   -0.6811   -0.2254 C   0  0  1  0  0  0  0  0  0  0  0  0
   -4.2385   -1.8331   -0.3201 C   0  0  0  0  0  0  0  0  0  0  0  0
   -6.2889   -0.4918   -0.8903 C   0  0  1  0  0  0  0  0  0  0  0  0
   -3.4146    1.9914    0.2583 C   0  0  0  0  0  0  0  0  0  0  0  0
   -5.7525   -1.7384   -0.1955 C   0  0  0  0  0  0  0  0  0  0  0  0
   -3.5336   -0.6807    1.8058 C   0  0  0  0  0  0  0  0  0  0  0  0
   -1.2628    0.6376   -0.0145 C   0  0  0  0  0  0  0  0  0  0  0  0
   -6.3196    1.1716    1.0459 C   0  0  0  0  0  0  0  0  0  0  0  0
   -6.1268    1.9772   -1.2798 C   0  0  0  0  0  0  0  0  0  0  0  0
   -1.9342    1.8271    0.1826 C   0  0  0  0  0  0  0  0  0  0  0  0
   -1.1566   -1.8448    0.3686 C   0  0  0  0  0  0  0  0  0  0  0  0
    0.2260   -1.9536   -0.2415 C   0  0  0  0  0  0  0  0  0  0  0  0
    0.4554    1.9969    0.1347 C   0  0  0  0  0  0  0  0  0  0  0  0
    2.4989   -2.7282    0.5176 C   0  0  0  0  0  0  0  0  0  0  0  0
    2.9327    1.8312    0.0179 C   0  0  0  0  0  0  0  0  0  0  0  0
    4.1234    2.7749    0.1261 C   0  0  0  0  0  0  0  0  0  0  0  0
    3.0904   -2.4489   -0.7032 C   0  0  0  0  0  0  0  0  0  0  0  0
    3.2297   -3.2513    1.5715 C   0  0  0  0  0  0  0  0  0  0  0  0
    5.4610    2.0567   -0.0395 C   0  0  0  0  0  0  0  0  0  0  0  0
    4.4516   -2.7000   -0.8752 C   0  0  0  0  0  0  0  0  0  0  0  0
    4.5909   -3.5024    1.3994 C   0  0  0  0  0  0  0  0  0  0  0  0
    6.6321    3.0370    0.0363 C   0  0  0  0  0  0  0  0  0  0  0  0
    5.2019   -3.2267    0.1761 C   0  0  0  0  0  0  0  0  0  0  0  0
    7.9721    2.3138   -0.0957 C   0  0  0  0  0  0  0  0  0  0  0  0
    9.1400    3.2810    0.0127 C   0  0  0  0  0  0  0  0  0  0  0  0
   -3.8503    0.7097   -1.3893 H   0  0  0  0  0  0  0  0  0  0  0  0
   -1.9847   -0.8184   -1.3175 H   0  0  0  0  0  0  0  0  0  0  0  0
   -3.9097   -2.7570    0.1702 H   0  0  0  0  0  0  0  0  0  0  0  0
   -3.9904   -1.9470   -1.3837 H   0  0  0  0  0  0  0  0  0  0  0  0
   -6.0467   -0.5742   -1.9585 H   0  0  0  0  0  0  0  0  0  0  0  0
   -3.7074    2.8811   -0.3089 H   0  0  0  0  0  0  0  0  0  0  0  0
   -3.7011    2.1553    1.3025 H   0  0  0  0  0  0  0  0  0  0  0  0
   -6.0666   -1.7637    0.8540 H   0  0  0  0  0  0  0  0  0  0  0  0
   -6.2102   -2.6270   -0.6491 H   0  0  0  0  0  0  0  0  0  0  0  0
   -3.1271   -1.6298    2.1723 H   0  0  0  0  0  0  0  0  0  0  0  0
   -4.5454   -0.6412    2.2012 H   0  0  0  0  0  0  0  0  0  0  0  0
   -2.9608    0.1199    2.2823 H   0  0  0  0  0  0  0  0  0  0  0  0
   -6.1383    0.4089    1.7977 H   0  0  0  0  0  0  0  0  0  0  0  0
   -5.9684    2.1283    1.4448 H   0  0  0  0  0  0  0  0  0  0  0  0
   -5.8475    2.9591   -0.8832 H   0  0  0  0  0  0  0  0  0  0  0  0
   -5.6467    1.8696   -2.2595 H   0  0  0  0  0  0  0  0  0  0  0  0
   -7.2051    2.0075   -1.4639 H   0  0  0  0  0  0  0  0  0  0  0  0
   -1.0563   -1.7106    1.4520 H   0  0  0  0  0  0  0  0  0  0  0  0
   -1.6558   -2.8030    0.1922 H   0  0  0  0  0  0  0  0  0  0  0  0
   -8.0612    0.0961   -1.4838 H   0  0  0  0  0  0  0  0  0  0  0  0
   -7.9486    2.1399    0.6082 H   0  0  0  0  0  0  0  0  0  0  0  0
    0.7561   -2.7117    1.6133 H   0  0  0  0  0  0  0  0  0  0  0  0
    1.7582    3.5291    0.3365 H   0  0  0  0  0  0  0  0  0  0  0  0
    4.0153    3.5468   -0.6453 H   0  0  0  0  0  0  0  0  0  0  0  0
    4.0815    3.2674    1.1049 H   0  0  0  0  0  0  0  0  0  0  0  0
    2.5727   -2.0417   -1.5593 H   0  0  0  0  0  0  0  0  0  0  0  0
    2.7639   -3.4692    2.5284 H   0  0  0  0  0  0  0  0  0  0  0  0
    5.4832    1.5311   -1.0023 H   0  0  0  0  0  0  0  0  0  0  0  0
    5.5657    1.2916    0.7400 H   0  0  0  0  0  0  0  0  0  0  0  0
    5.1752   -3.9123    2.2180 H   0  0  0  0  0  0  0  0  0  0  0  0
    6.5984    3.5743    0.9921 H   0  0  0  0  0  0  0  0  0  0  0  0
    6.5379    3.7864   -0.7589 H   0  0  0  0  0  0  0  0  0  0  0  0
    6.2632   -3.4266    0.0551 H   0  0  0  0  0  0  0  0  0  0  0  0
    8.0214    1.7947   -1.0599 H   0  0  0  0  0  0  0  0  0  0  0  0
    8.0637    1.5525    0.6878 H   0  0  0  0  0  0  0  0  0  0  0  0
    5.9906   -2.6632   -2.0096 H   0  0  0  0  0  0  0  0  0  0  0  0
    9.1383    3.7917    0.9809 H   0  0  0  0  0  0  0  0  0  0  0  0
   10.0880    2.7430   -0.0857 H   0  0  0  0  0  0  0  0  0  0  0  0
    9.0960    4.0389   -0.7760 H   0  0  0  0  0  0  0  0  0  0  0  0
  1 22  1  0  0  0  0
  1 25  1  0  0  0  0
  2 15  1  0  0  0  0
  2 57  1  0  0  0  0
  3 20  1  0  0  0  0
  3 58  1  0  0  0  0
  4 24  2  0  0  0  0
  5 27  2  0  0  0  0
  6 32  1  0  0  0  0
  6 73  1  0  0  0  0
  7 19  1  0  0  0  0
  7 25  2  0  0  0  0
  8 24  1  0  0  0  0
  8 26  1  0  0  0  0
  8 59  1  0  0  0  0
  9 25  1  0  0  0  0
  9 27  1  0  0  0  0
  9 60  1  0  0  0  0
 10 11  1  0  0  0  0
 10 13  1  0  0  0  0
 10 14  1  0  0  0  0
 10 18  1  0  0  0  0
 11 12  1  0  0  0  0
 11 16  1  0  0  0  0
 11 38  1  0  0  0  0
 12 15  1  0  0  0  0
 12 20  1  0  0  0  0
 12 21  1  0  0  0  0
 13 19  1  0  0  0  0
 13 23  1  0  0  0  0
 13 39  1  0  0  0  0
 14 17  1  0  0  0  0
 14 40  1  0  0  0  0
 14 41  1  0  0  0  0
 15 17  1  0  0  0  0
 15 42  1  0  0  0  0
 16 22  1  0  0  0  0
 16 43  1  0  0  0  0
 16 44  1  0  0  0  0
 17 45  1  0  0  0  0
 17 46  1  0  0  0  0
 18 47  1  0  0  0  0
 18 48  1  0  0  0  0
 18 49  1  0  0  0  0
 19 22  2  0  0  0  0
 20 50  1  0  0  0  0
 20 51  1  0  0  0  0
 21 52  1  0  0  0  0
 21 53  1  0  0  0  0
 21 54  1  0  0  0  0
 23 24  1  0  0  0  0
 23 55  1  0  0  0  0
 23 56  1  0  0  0  0
 26 29  2  0  0  0  0
 26 30  1  0  0  0  0
 27 28  1  0  0  0  0
 28 31  1  0  0  0  0
 28 61  1  0  0  0  0
 28 62  1  0  0  0  0
 29 32  1  0  0  0  0
 29 63  1  0  0  0  0
 30 33  2  0  0  0  0
 30 64  1  0  0  0  0
 31 34  1  0  0  0  0
 31 65  1  0  0  0  0
 31 66  1  0  0  0  0
 32 35  2  0  0  0  0
 33 35  1  0  0  0  0
 33 67  1  0  0  0  0
 34 36  1  0  0  0  0
 34 68  1  0  0  0  0
 34 69  1  0  0  0  0
 35 70  1  0  0  0  0
 36 37  1  0  0  0  0
 36 71  1  0  0  0  0
 36 72  1  0  0  0  0
 37 74  1  0  0  0  0
 37 75  1  0  0  0  0
 37 76  1  0  0  0  0
M  END
> <PUBCHEM_COMPOUND_CID>
11885092

> <PUBCHEM_CONFORMER_RMSD>
1.2

> <PUBCHEM_CONFORMER_DIVERSEORDER>
1
24
53
28
39
48
41
54
46
38
11
26
40
43
7
35
51
37
49
25
55
4
19
33
13
2
22
27
20
30
52
15
18
14
45
34
50
36
29
32
17
9
23
6
42
31
8
5
47
44
12
21
3
10
16

> <PUBCHEM_MMFF94_PARTIAL_CHARGES>
35
1 -0.08
13 0.18
15 0.28
16 0.18
19 0.05
2 -0.68
20 0.28
22 -0.14
23 0.06
24 0.57
25 0.44
26 0.12
27 0.57
28 0.06
29 -0.15
3 -0.68
30 -0.15
32 0.08
33 -0.15
35 -0.15
4 -0.57
5 -0.57
57 0.4
58 0.4
59 0.37
6 -0.53
60 0.37
63 0.15
64 0.15
67 0.15
7 -0.57
70 0.15
73 0.45
8 -0.55
9 -0.49

> <PUBCHEM_EFFECTIVE_ROTOR_COUNT>
12.2

> <PUBCHEM_PHARMACOPHORE_FEATURES>
15
1 2 acceptor
1 2 donor
1 3 acceptor
1 3 donor
1 37 hydrophobe
1 4 acceptor
1 5 acceptor
1 6 donor
1 8 donor
1 9 donor
4 28 31 34 36 hydrophobe
5 1 7 19 22 25 rings
6 10 11 12 14 15 17 rings
6 10 11 13 16 19 22 rings
6 26 29 30 32 33 35 rings

> <PUBCHEM_HEAVY_ATOM_COUNT>
37

> <PUBCHEM_ATOM_DEF_STEREO_COUNT>
5

> <PUBCHEM_ATOM_UDEF_STEREO_COUNT>
0

> <PUBCHEM_BOND_DEF_STEREO_COUNT>
0

> <PUBCHEM_BOND_UDEF_STEREO_COUNT>
0

> <PUBCHEM_ISOTOPIC_ATOM_COUNT>
0

> <PUBCHEM_COMPONENT_COUNT>
1

> <PUBCHEM_CACTVS_TAUTO_COUNT>
39

> <PUBCHEM_CONFORMER_ID>
00B55A2400000001

> <PUBCHEM_MMFF94_ENERGY>
109.6146

> <PUBCHEM_FEATURE_SELFOVERLAP>
76.268

> <PUBCHEM_SHAPE_FINGERPRINT>
10050765 1 18266739086895507732
11135926 11 18336258028643148692
11136131 41 18333724707468020906
11578080 2 17604970564613208439
11719270 70 18410006681030106896
12107698 1 18338795589858242227
12166972 35 17895483501140043575
12522641 33 18336830883877668740
12788726 201 17974003943227550467
12838862 33 18267569364593425512
13811026 1 18335420192187320530
14068700 675 18267298738202509619
14394314 77 18413112770691726761
14931854 50 18263949682442000806
15001296 14 18409445877716269155
15890870 6 18336827606854441172
15927050 60 18268143343875176526
16067689 302 18412830213863038911
20554085 129 18058999710155122744
20609170 92 18187070729083091509
20642791 35 18410580565632686150
20721686 56 18408889537759513338
21133665 82 18266462200256750028
21279426 13 18336542725562340381
21360443 120 18261954146062413224
21781055 127 16701754748704354531
22311459 1 18337953492996199912
23559900 14 18339914923292488475
3411729 13 18410574007433565182
4073 2 18261960746619922019
4093350 32 17489875916468726108
5104073 3 18410582773657060635
59521660 218 18260823778577082603
59755656 215 18409730698963016524
6669772 16 18259702302708244306
99344 41 18410009957562795436

> <PUBCHEM_SHAPE_MULTIPOLES>
721
21.14
5.08
1.16
6.59
1.29
-0.01
-12.26
1.72
11.15
-0.56
-0.13
0.75
-0.29

> <PUBCHEM_SHAPE_SELFOVERLAP>
1508.967

> <PUBCHEM_SHAPE_VOLUME>
409.6

> <PUBCHEM_COORDINATE_TYPE>
2
5
10

$$$$
