7155401
  -OEChem-12032416363D

 55 59  0     1  0  0  0  0  0999 V2000
   -5.5478    2.0905    0.4916 S   0  0  0  0  0  0  0  0  0  0  0  0
   -2.3141   -4.5620   -1.9927 F   0  0  0  0  0  0  0  0  0  0  0  0
    4.1954    1.6590   -2.0337 O   0  0  0  0  0  0  0  0  0  0  0  0
    1.8668   -1.1878    1.3195 N   0  0  2  0  0  0  0  0  0  0  0  0
    2.5686    1.4137   -0.3666 N   0  0  0  0  0  0  0  0  0  0  0  0
    3.1993    0.8001    2.0442 C   0  0  1  0  0  0  0  0  0  0  0  0
    0.8477    1.0948    1.4356 C   0  0  2  0  0  0  0  0  0  0  0  0
    1.9318    1.5550    2.4067 C   0  0  0  0  0  0  0  0  0  0  0  0
    2.9716   -0.7202    2.1641 C   0  0  0  0  0  0  0  0  0  0  0  0
    0.6360   -0.4310    1.5871 C   0  0  0  0  0  0  0  0  0  0  0  0
    3.6262    1.2175    0.6353 C   0  0  0  0  0  0  0  0  0  0  0  0
    1.2042    1.4553   -0.0117 C   0  0  0  0  0  0  0  0  0  0  0  0
    1.6473   -2.6220    1.4907 C   0  0  0  0  0  0  0  0  0  0  0  0
    0.2725    1.7868   -0.9455 C   0  0  0  0  0  0  0  0  0  0  0  0
    3.0177    1.6694   -1.6744 C   0  0  0  0  0  0  0  0  0  0  0  0
    0.7013    2.0519   -2.3073 C   0  0  0  0  0  0  0  0  0  0  0  0
    1.9796    1.9903   -2.6789 C   0  0  0  0  0  0  0  0  0  0  0  0
    0.5860   -3.1423    0.5581 C   0  0  0  0  0  0  0  0  0  0  0  0
   -1.1214    1.8595   -0.6006 C   0  0  0  0  0  0  0  0  0  0  0  0
   -0.7400   -3.1492    0.9674 C   0  0  0  0  0  0  0  0  0  0  0  0
    0.9491   -3.6070   -0.6981 C   0  0  0  0  0  0  0  0  0  0  0  0
   -1.9184    0.7234   -0.7028 C   0  0  0  0  0  0  0  0  0  0  0  0
   -1.6640    3.0655   -0.1672 C   0  0  0  0  0  0  0  0  0  0  0  0
   -3.2708    0.7940   -0.3688 C   0  0  0  0  0  0  0  0  0  0  0  0
   -3.0165    3.1360    0.1670 C   0  0  0  0  0  0  0  0  0  0  0  0
   -1.7230   -3.6306    0.1029 C   0  0  0  0  0  0  0  0  0  0  0  0
   -0.0339   -4.0883   -1.5628 C   0  0  0  0  0  0  0  0  0  0  0  0
   -3.8199    2.0002    0.0661 C   0  0  0  0  0  0  0  0  0  0  0  0
   -1.3700   -4.1002   -1.1623 C   0  0  0  0  0  0  0  0  0  0  0  0
   -5.6611    0.8776    1.8372 C   0  0  0  0  0  0  0  0  0  0  0  0
    4.0005    1.0701    2.7435 H   0  0  0  0  0  0  0  0  0  0  0  0
   -0.0765    1.5970    1.7430 H   0  0  0  0  0  0  0  0  0  0  0  0
    2.0867    2.6391    2.3384 H   0  0  0  0  0  0  0  0  0  0  0  0
    1.6383    1.3365    3.4408 H   0  0  0  0  0  0  0  0  0  0  0  0
    3.8962   -1.2376    1.8790 H   0  0  0  0  0  0  0  0  0  0  0  0
    2.7787   -0.9667    3.2172 H   0  0  0  0  0  0  0  0  0  0  0  0
    0.2662   -0.6382    2.6007 H   0  0  0  0  0  0  0  0  0  0  0  0
   -0.1538   -0.7018    0.8864 H   0  0  0  0  0  0  0  0  0  0  0  0
    4.1478    2.1824    0.7031 H   0  0  0  0  0  0  0  0  0  0  0  0
    4.3617    0.5088    0.2334 H   0  0  0  0  0  0  0  0  0  0  0  0
    1.3770   -2.8648    2.5279 H   0  0  0  0  0  0  0  0  0  0  0  0
    2.5795   -3.1684    1.2934 H   0  0  0  0  0  0  0  0  0  0  0  0
   -0.0575    2.2971   -3.0448 H   0  0  0  0  0  0  0  0  0  0  0  0
    2.2874    2.1850   -3.6992 H   0  0  0  0  0  0  0  0  0  0  0  0
   -1.0295   -2.8001    1.9546 H   0  0  0  0  0  0  0  0  0  0  0  0
    1.9862   -3.5997   -1.0214 H   0  0  0  0  0  0  0  0  0  0  0  0
   -1.5100   -0.2220   -1.0517 H   0  0  0  0  0  0  0  0  0  0  0  0
   -1.0509    3.9595   -0.0828 H   0  0  0  0  0  0  0  0  0  0  0  0
   -3.8792   -0.1020   -0.4638 H   0  0  0  0  0  0  0  0  0  0  0  0
   -3.4265    4.0848    0.5043 H   0  0  0  0  0  0  0  0  0  0  0  0
   -2.7630   -3.6418    0.4151 H   0  0  0  0  0  0  0  0  0  0  0  0
    0.2404   -4.4530   -2.5482 H   0  0  0  0  0  0  0  0  0  0  0  0
   -5.4646   -0.1317    1.4667 H   0  0  0  0  0  0  0  0  0  0  0  0
   -6.6701    0.9022    2.2571 H   0  0  0  0  0  0  0  0  0  0  0  0
   -4.9470    1.1202    2.6289 H   0  0  0  0  0  0  0  0  0  0  0  0
  1 28  1  0  0  0  0
  1 30  1  0  0  0  0
  2 29  1  0  0  0  0
  3 15  2  0  0  0  0
  4  9  1  0  0  0  0
  4 10  1  0  0  0  0
  4 13  1  0  0  0  0
  5 11  1  0  0  0  0
  5 12  1  0  0  0  0
  5 15  1  0  0  0  0
  6  8  1  0  0  0  0
  6  9  1  0  0  0  0
  6 11  1  0  0  0  0
  6 31  1  0  0  0  0
  7  8  1  0  0  0  0
  7 10  1  0  0  0  0
  7 12  1  0  0  0  0
  7 32  1  0  0  0  0
  8 33  1  0  0  0  0
  8 34  1  0  0  0  0
  9 35  1  0  0  0  0
  9 36  1  0  0  0  0
 10 37  1  0  0  0  0
 10 38  1  0  0  0  0
 11 39  1  0  0  0  0
 11 40  1  0  0  0  0
 12 14  2  0  0  0  0
 13 18  1  0  0  0  0
 13 41  1  0  0  0  0
 13 42  1  0  0  0  0
 14 16  1  0  0  0  0
 14 19  1  0  0  0  0
 15 17  1  0  0  0  0
 16 17  2  0  0  0  0
 16 43  1  0  0  0  0
 17 44  1  0  0  0  0
 18 20  2  0  0  0  0
 18 21  1  0  0  0  0
 19 22  2  0  0  0  0
 19 23  1  0  0  0  0
 20 26  1  0  0  0  0
 20 45  1  0  0  0  0
 21 27  2  0  0  0  0
 21 46  1  0  0  0  0
 22 24  1  0  0  0  0
 22 47  1  0  0  0  0
 23 25  2  0  0  0  0
 23 48  1  0  0  0  0
 24 28  2  0  0  0  0
 24 49  1  0  0  0  0
 25 28  1  0  0  0  0
 25 50  1  0  0  0  0
 26 29  2  0  0  0  0
 26 51  1  0  0  0  0
 27 29  1  0  0  0  0
 27 52  1  0  0  0  0
 30 53  1  0  0  0  0
 30 54  1  0  0  0  0
 30 55  1  0  0  0  0
M  END
> <PUBCHEM_COMPOUND_CID>
7155401

> <PUBCHEM_CONFORMER_RMSD>
0.8

> <PUBCHEM_CONFORMER_DIVERSEORDER>
1
4
3
5
2

> <PUBCHEM_MMFF94_PARTIAL_CHARGES>
38
1 -0.33
10 0.27
11 0.3
12 -0.03
13 0.41
14 -0.03
15 0.62
16 -0.15
17 -0.14
18 -0.14
19 0.03
2 -0.19
20 -0.15
21 -0.15
22 -0.15
23 -0.15
24 -0.15
25 -0.15
26 -0.15
27 -0.15
28 0.1
29 0.19
3 -0.57
30 0.23
4 -0.81
43 0.15
44 0.15
45 0.15
46 0.15
47 0.15
48 0.15
49 0.15
5 -0.47
50 0.15
51 0.15
52 0.15
7 0.14
9 0.27

> <PUBCHEM_EFFECTIVE_ROTOR_COUNT>
5

> <PUBCHEM_PHARMACOPHORE_FEATURES>
8
1 3 acceptor
1 30 hydrophobe
1 4 cation
6 18 20 21 26 27 29 rings
6 19 22 23 24 25 28 rings
6 4 6 7 8 9 10 rings
6 5 12 14 15 16 17 rings
6 5 6 7 8 11 12 rings

> <PUBCHEM_HEAVY_ATOM_COUNT>
30

> <PUBCHEM_ATOM_DEF_STEREO_COUNT>
2

> <PUBCHEM_ATOM_UDEF_STEREO_COUNT>
0

> <PUBCHEM_BOND_DEF_STEREO_COUNT>
0

> <PUBCHEM_BOND_UDEF_STEREO_COUNT>
0

> <PUBCHEM_ISOTOPIC_ATOM_COUNT>
0

> <PUBCHEM_COMPONENT_COUNT>
1

> <PUBCHEM_CACTVS_TAUTO_COUNT>
1

> <PUBCHEM_CONFORMER_ID>
006D2EC900000001

> <PUBCHEM_MMFF94_ENERGY>
87.9693

> <PUBCHEM_FEATURE_SELFOVERLAP>
42.147

> <PUBCHEM_SHAPE_FINGERPRINT>
10064457 181 18269531910959284272
10764073 3 14173799042311358056
11421498 54 18126589832749782393
11513181 2 18058712633602645911
11578080 2 17340437082265639776
12156800 1 18410016550659329254
12293681 160 16600127231692191084
12422481 6 17975103501873100762
12553582 1 17543067235056597378
12788726 201 17759246579985463036
13383661 66 17481452398732731118
13583140 156 17698127726633306673
14114206 34 17395580948877915639
14468879 13 8492991231742084687
14863182 85 18338233743716677801
14932701 244 16473754261664635758
15324884 4 17249730332554272016
15392192 104 18190484722517006185
15664445 248 17250910039252041316
17492 54 17608403184429125374
1813 80 17105390766264474089
18681886 176 18260561038475473644
19301679 30 18115886109825782697
1979834 28 18338237042900291001
20775530 9 17043448636521282039
23419403 2 15948306635362849112
23559900 14 17901960634520114285
26353 1 17116099412533908396
27425 322 18131061675505030041
35225 105 17987228000986009555
5080951 261 17618556276927391756
6287921 2 18195242218222845147
7226269 152 16239834897953279820

> <PUBCHEM_SHAPE_MULTIPOLES>
598.13
7.4
6.08
2.51
12.79
9.54
-0.25
-4.78
3.09
-1.69
-3.54
-1.97
-0.68
-0.85

> <PUBCHEM_SHAPE_SELFOVERLAP>
1301.058

> <PUBCHEM_SHAPE_VOLUME>
330.7

> <PUBCHEM_COORDINATE_TYPE>
2
5
10

$$$$
