45783707
  -OEChem-12032416263D

 48 51  0     1  0  0  0  0  0999 V2000
    2.5620    2.3770   -0.0731 F   0  0  0  0  0  0  0  0  0  0  0  0
    1.8163    3.8055    1.3867 F   0  0  0  0  0  0  0  0  0  0  0  0
    1.8202    4.3064   -0.7291 F   0  0  0  0  0  0  0  0  0  0  0  0
   -1.5925   -1.6756    1.9970 O   0  0  0  0  0  0  0  0  0  0  0  0
    5.3426   -1.6278   -1.0732 O   0  0  0  0  0  0  0  0  0  0  0  0
   -3.7245   -0.3387   -0.6811 N   0  0  1  0  0  0  0  0  0  0  0  0
   -0.9584   -1.3106   -0.1200 N   0  0  0  0  0  0  0  0  0  0  0  0
   -0.1961   -1.7847    1.9843 N   0  0  0  0  0  0  0  0  0  0  0  0
    3.8102   -1.8434    0.6558 N   0  0  0  0  0  0  0  0  0  0  0  0
   -3.4428   -1.2264    0.4647 C   0  0  1  0  0  0  0  0  0  0  0  0
   -4.1407   -2.5530    0.1126 C   0  0  0  0  0  0  0  0  0  0  0  0
   -4.8373   -2.2956   -1.2161 C   0  0  0  0  0  0  0  0  0  0  0  0
   -4.9950   -0.7889   -1.2501 C   0  0  0  0  0  0  0  0  0  0  0  0
   -3.7550    1.0729   -0.3203 C   0  0  0  0  0  0  0  0  0  0  0  0
   -1.9596   -1.3957    0.7190 C   0  0  0  0  0  0  0  0  0  0  0  0
   -2.3699    1.6507   -0.1994 C   0  0  0  0  0  0  0  0  0  0  0  0
   -1.9556    2.2222    1.0038 C   0  0  0  0  0  0  0  0  0  0  0  0
   -1.5007    1.6138   -1.2897 C   0  0  0  0  0  0  0  0  0  0  0  0
    0.1027   -1.5566    0.7019 C   0  0  0  0  0  0  0  0  0  0  0  0
   -0.6724    2.7571    1.1164 C   0  0  0  0  0  0  0  0  0  0  0  0
   -0.2175    2.1487   -1.1772 C   0  0  0  0  0  0  0  0  0  0  0  0
    0.1967    2.7203    0.0259 C   0  0  0  0  0  0  0  0  0  0  0  0
    1.4500   -1.5688    0.2096 C   0  0  0  0  0  0  0  0  0  0  0  0
    1.5698    3.2893    0.1476 C   0  0  0  0  0  0  0  0  0  0  0  0
    1.7240   -1.3286   -1.1323 C   0  0  0  0  0  0  0  0  0  0  0  0
    2.5188   -1.8188    1.0551 C   0  0  0  0  0  0  0  0  0  0  0  0
    3.0401   -1.3456   -1.5811 C   0  0  0  0  0  0  0  0  0  0  0  0
    4.0377   -1.6056   -0.6554 C   0  0  0  0  0  0  0  0  0  0  0  0
    6.3270   -1.8994   -0.0824 C   0  0  0  0  0  0  0  0  0  0  0  0
   -3.9095   -0.8388    1.3813 H   0  0  0  0  0  0  0  0  0  0  0  0
   -3.4574   -3.4056    0.0349 H   0  0  0  0  0  0  0  0  0  0  0  0
   -4.8890   -2.7904    0.8787 H   0  0  0  0  0  0  0  0  0  0  0  0
   -5.7946   -2.8197   -1.2897 H   0  0  0  0  0  0  0  0  0  0  0  0
   -4.1993   -2.6324   -2.0426 H   0  0  0  0  0  0  0  0  0  0  0  0
   -5.1425   -0.4230   -2.2709 H   0  0  0  0  0  0  0  0  0  0  0  0
   -5.8491   -0.4817   -0.6333 H   0  0  0  0  0  0  0  0  0  0  0  0
   -4.2556    1.6491   -1.1112 H   0  0  0  0  0  0  0  0  0  0  0  0
   -4.3456    1.2476    0.5886 H   0  0  0  0  0  0  0  0  0  0  0  0
   -2.6213    2.2555    1.8620 H   0  0  0  0  0  0  0  0  0  0  0  0
   -1.8102    1.1755   -2.2348 H   0  0  0  0  0  0  0  0  0  0  0  0
   -0.3687    3.1963    2.0625 H   0  0  0  0  0  0  0  0  0  0  0  0
    0.4530    2.1144   -2.0318 H   0  0  0  0  0  0  0  0  0  0  0  0
    0.9334   -1.1251   -1.8498 H   0  0  0  0  0  0  0  0  0  0  0  0
    2.3904   -2.0151    2.1155 H   0  0  0  0  0  0  0  0  0  0  0  0
    3.2707   -1.1598   -2.6244 H   0  0  0  0  0  0  0  0  0  0  0  0
    6.3235   -1.1293    0.6963 H   0  0  0  0  0  0  0  0  0  0  0  0
    6.1833   -2.8944    0.3518 H   0  0  0  0  0  0  0  0  0  0  0  0
    7.3071   -1.8824   -0.5684 H   0  0  0  0  0  0  0  0  0  0  0  0
  1 24  1  0  0  0  0
  2 24  1  0  0  0  0
  3 24  1  0  0  0  0
  4  8  1  0  0  0  0
  4 15  1  0  0  0  0
  5 28  1  0  0  0  0
  5 29  1  0  0  0  0
  6 10  1  0  0  0  0
  6 13  1  0  0  0  0
  6 14  1  0  0  0  0
  7 15  2  0  0  0  0
  7 19  1  0  0  0  0
  8 19  2  0  0  0  0
  9 26  1  0  0  0  0
  9 28  2  0  0  0  0
 10 11  1  0  0  0  0
 10 15  1  0  0  0  0
 10 30  1  0  0  0  0
 11 12  1  0  0  0  0
 11 31  1  0  0  0  0
 11 32  1  0  0  0  0
 12 13  1  0  0  0  0
 12 33  1  0  0  0  0
 12 34  1  0  0  0  0
 13 35  1  0  0  0  0
 13 36  1  0  0  0  0
 14 16  1  0  0  0  0
 14 37  1  0  0  0  0
 14 38  1  0  0  0  0
 16 17  2  0  0  0  0
 16 18  1  0  0  0  0
 17 20  1  0  0  0  0
 17 39  1  0  0  0  0
 18 21  2  0  0  0  0
 18 40  1  0  0  0  0
 19 23  1  0  0  0  0
 20 22  2  0  0  0  0
 20 41  1  0  0  0  0
 21 22  1  0  0  0  0
 21 42  1  0  0  0  0
 22 24  1  0  0  0  0
 23 25  1  0  0  0  0
 23 26  2  0  0  0  0
 25 27  2  0  0  0  0
 25 43  1  0  0  0  0
 26 44  1  0  0  0  0
 27 28  1  0  0  0  0
 27 45  1  0  0  0  0
 29 46  1  0  0  0  0
 29 47  1  0  0  0  0
 29 48  1  0  0  0  0
M  END
> <PUBCHEM_COMPOUND_CID>
45783707

> <PUBCHEM_CONFORMER_RMSD>
0.8

> <PUBCHEM_CONFORMER_DIVERSEORDER>
1
59
10
18
16
31
69
34
29
45
58
66
61
53
62
51
72
20
65
11
33
26
37
9
15
4
54
52
67
68
39
3
32
41
50
73
12
2
60
55
46
28
71
35
57
48
42
24
47
30
56
5
43
21
64
8
14
13
44
40
63
6
27
38
17
49
36
19
70
23
22
25
7

> <PUBCHEM_MMFF94_PARTIAL_CHARGES>
34
1 -0.34
10 0.45
13 0.27
14 0.41
15 0.3
16 -0.14
17 -0.15
18 -0.15
19 0.46
2 -0.34
20 -0.15
21 -0.15
22 -0.14
23 0.05
24 1.16
25 -0.15
26 0.16
27 -0.15
28 0.39
29 0.28
3 -0.34
39 0.15
4 -0.02
40 0.15
41 0.15
42 0.15
43 0.15
44 0.15
45 0.15
5 -0.36
6 -0.81
7 -0.57
8 -0.41
9 -0.62

> <PUBCHEM_EFFECTIVE_ROTOR_COUNT>
7

> <PUBCHEM_PHARMACOPHORE_FEATURES>
6
1 6 cation
3 7 8 19 cation
5 4 7 8 15 19 rings
5 6 10 11 12 13 rings
6 16 17 18 20 21 22 rings
6 9 23 25 26 27 28 rings

> <PUBCHEM_HEAVY_ATOM_COUNT>
29

> <PUBCHEM_ATOM_DEF_STEREO_COUNT>
1

> <PUBCHEM_ATOM_UDEF_STEREO_COUNT>
0

> <PUBCHEM_BOND_DEF_STEREO_COUNT>
0

> <PUBCHEM_BOND_UDEF_STEREO_COUNT>
0

> <PUBCHEM_ISOTOPIC_ATOM_COUNT>
0

> <PUBCHEM_COMPONENT_COUNT>
1

> <PUBCHEM_CACTVS_TAUTO_COUNT>
1

> <PUBCHEM_CONFORMER_ID>
02BA9A9B00000001

> <PUBCHEM_MMFF94_ENERGY>
58.2546

> <PUBCHEM_FEATURE_SELFOVERLAP>
30.449

> <PUBCHEM_SHAPE_FINGERPRINT>
107951 10 16810936501353492225
1100329 8 18339645521537899337
11524674 6 17623841727763849952
12156800 1 15650103761687644996
12166972 35 17822298989224785238
12596599 1 18129668474044461225
12645989 146 18342461383891823198
12788726 201 18045501919948085666
133893 2 18122929747792900089
13402501 40 18263075681913399848
13761468 95 17395593696525512086
14784336 7 18114169814280615114
14787075 74 18261395503607541422
14790565 3 17547008525034712073
16090146 7 17846504691584004099
17492 54 17971180444812326749
17818456 19 17758664556331096786
19319366 153 17462568295853376427
20028762 73 16611954704300885991
20642791 239 18188761731333665621
20642791 35 18335406943072905925
20691752 17 17603856828454816677
20721686 56 18410012174408861760
20764821 26 18336279963652708208
20775438 99 17763160833203102039
20905425 154 18266741462312167621
21344244 246 18052247698741844471
23402539 116 18410012096145383014
23419403 2 18117533284467587725
23557571 272 18200311009333863182
23559900 14 18339070575413538581
238918 7 17760925547078603592
3298306 158 17977946018413942485
392239 28 18337956667466732952
4280585 95 18337943507074852066
5171179 24 18341041995113895353
57527358 35 15401958473922421819
59755656 215 17687735452645279471
7471813 234 18412545439834266102

> <PUBCHEM_SHAPE_MULTIPOLES>
543.32
9.67
4.78
1.5
6.54
5.51
0.2
-9.23
-3.25
1.06
0.55
-0.13
-0.3
0.05

> <PUBCHEM_SHAPE_SELFOVERLAP>
1183.918

> <PUBCHEM_SHAPE_VOLUME>
299.3

> <PUBCHEM_COORDINATE_TYPE>
2
5
10

$$$$
