71693216
  -OEChem-12032416303D

 60 62  0     1  0  0  0  0  0999 V2000
   -7.6814   -1.5919   -0.1942 Cl  0  0  0  0  0  0  0  0  0  0  0  0
    3.9448   -0.3210   -1.8124 O   0  0  0  0  0  0  0  0  0  0  0  0
    4.5617   -5.0746   -0.1905 O   0  0  0  0  0  0  0  0  0  0  0  0
    4.2412   -3.8849    1.7173 O   0  0  0  0  0  0  0  0  0  0  0  0
    3.5734    0.9341    0.1105 N   0  0  0  0  0  0  0  0  0  0  0  0
   -3.0551    0.1402    1.5027 N   0  0  0  0  0  0  0  0  0  0  0  0
   -1.8591   -0.8241   -0.1034 N   0  0  0  0  0  0  0  0  0  0  0  0
    0.9096    1.9383   -0.8586 C   0  0  1  0  0  0  0  0  0  0  0  0
    2.0288    2.7936   -0.2138 C   0  0  1  0  0  0  0  0  0  0  0  0
   -0.4491    2.2632   -0.2193 C   0  0  0  0  0  0  0  0  0  0  0  0
   -0.4540    2.0084    1.2998 C   0  0  2  0  0  0  0  0  0  0  0  0
    0.8337    2.1498   -2.3738 C   0  0  0  0  0  0  0  0  0  0  0  0
    0.7689    2.5973    1.9735 C   0  0  0  0  0  0  0  0  0  0  0  0
    1.8639    2.9546    1.2793 C   0  0  0  0  0  0  0  0  0  0  0  0
    3.4140    2.2096   -0.5144 C   0  0  0  0  0  0  0  0  0  0  0  0
   -0.5839    0.5128    1.6087 C   0  0  0  0  0  0  0  0  0  0  0  0
    0.2025    0.9366   -3.0495 C   0  0  0  0  0  0  0  0  0  0  0  0
    0.0487    3.4175   -2.6954 C   0  0  0  0  0  0  0  0  0  0  0  0
    0.6872    2.8088    3.4597 C   0  0  0  0  0  0  0  0  0  0  0  0
   -1.8124   -0.0738    0.9745 C   0  0  0  0  0  0  0  0  0  0  0  0
    3.8290   -0.2446   -0.5921 C   0  0  0  0  0  0  0  0  0  0  0  0
   -3.9643   -0.5155    0.7128 C   0  0  0  0  0  0  0  0  0  0  0  0
   -3.1932   -1.1095   -0.2825 C   0  0  0  0  0  0  0  0  0  0  0  0
    3.9489   -1.4445    0.3300 C   0  0  0  0  0  0  0  0  0  0  0  0
   -5.3526   -0.6363    0.7814 C   0  0  0  0  0  0  0  0  0  0  0  0
   -3.8280   -1.8731   -1.2764 C   0  0  0  0  0  0  0  0  0  0  0  0
    4.2282   -2.7377   -0.4291 C   0  0  0  0  0  0  0  0  0  0  0  0
   -5.9680   -1.3999   -0.2160 C   0  0  0  0  0  0  0  0  0  0  0  0
   -5.2212   -2.0083   -1.2275 C   0  0  0  0  0  0  0  0  0  0  0  0
    4.3381   -3.9251    0.4987 C   0  0  0  0  0  0  0  0  0  0  0  0
    1.1210    0.8787   -0.6706 H   0  0  0  0  0  0  0  0  0  0  0  0
    2.0046    3.8066   -0.6346 H   0  0  0  0  0  0  0  0  0  0  0  0
   -1.2693    1.7408   -0.7186 H   0  0  0  0  0  0  0  0  0  0  0  0
   -0.6697    3.3337   -0.3306 H   0  0  0  0  0  0  0  0  0  0  0  0
   -1.3390    2.5253    1.6984 H   0  0  0  0  0  0  0  0  0  0  0  0
    1.8384    2.2575   -2.7951 H   0  0  0  0  0  0  0  0  0  0  0  0
    2.6946    3.4164    1.8094 H   0  0  0  0  0  0  0  0  0  0  0  0
    4.1955    2.8600   -0.1031 H   0  0  0  0  0  0  0  0  0  0  0  0
    3.6031    2.1362   -1.5887 H   0  0  0  0  0  0  0  0  0  0  0  0
   -0.6416    0.3452    2.6915 H   0  0  0  0  0  0  0  0  0  0  0  0
    0.2960   -0.0423    1.2610 H   0  0  0  0  0  0  0  0  0  0  0  0
    0.1821    1.0719   -4.1365 H   0  0  0  0  0  0  0  0  0  0  0  0
    0.7796    0.0288   -2.8427 H   0  0  0  0  0  0  0  0  0  0  0  0
   -0.8272    0.7655   -2.7207 H   0  0  0  0  0  0  0  0  0  0  0  0
    0.4150    4.2916   -2.1490 H   0  0  0  0  0  0  0  0  0  0  0  0
    0.1623    3.6496   -3.7617 H   0  0  0  0  0  0  0  0  0  0  0  0
   -1.0283    3.3118   -2.5280 H   0  0  0  0  0  0  0  0  0  0  0  0
   -0.1824    3.4256    3.7086 H   0  0  0  0  0  0  0  0  0  0  0  0
    1.5740    3.3174    3.8529 H   0  0  0  0  0  0  0  0  0  0  0  0
    0.5981    1.8525    3.9834 H   0  0  0  0  0  0  0  0  0  0  0  0
    3.5530    0.8936    1.1256 H   0  0  0  0  0  0  0  0  0  0  0  0
   -3.2684    0.6850    2.3277 H   0  0  0  0  0  0  0  0  0  0  0  0
    4.7539   -1.2478    1.0485 H   0  0  0  0  0  0  0  0  0  0  0  0
    3.0150   -1.5348    0.8984 H   0  0  0  0  0  0  0  0  0  0  0  0
   -5.9193   -0.1579    1.5731 H   0  0  0  0  0  0  0  0  0  0  0  0
   -3.2564   -2.3493   -2.0666 H   0  0  0  0  0  0  0  0  0  0  0  0
    5.1685   -2.6490   -0.9849 H   0  0  0  0  0  0  0  0  0  0  0  0
    3.4181   -2.9334   -1.1409 H   0  0  0  0  0  0  0  0  0  0  0  0
   -5.7141   -2.5992   -1.9966 H   0  0  0  0  0  0  0  0  0  0  0  0
    4.6337   -5.8501    0.4060 H   0  0  0  0  0  0  0  0  0  0  0  0
  1 28  1  0  0  0  0
  2 21  2  0  0  0  0
  3 30  1  0  0  0  0
  3 60  1  0  0  0  0
  4 30  2  0  0  0  0
  5 15  1  0  0  0  0
  5 21  1  0  0  0  0
  5 51  1  0  0  0  0
  6 20  1  0  0  0  0
  6 22  1  0  0  0  0
  6 52  1  0  0  0  0
  7 20  2  0  0  0  0
  7 23  1  0  0  0  0
  8  9  1  0  0  0  0
  8 10  1  0  0  0  0
  8 12  1  0  0  0  0
  8 31  1  0  0  0  0
  9 14  1  0  0  0  0
  9 15  1  0  0  0  0
  9 32  1  0  0  0  0
 10 11  1  0  0  0  0
 10 33  1  0  0  0  0
 10 34  1  0  0  0  0
 11 13  1  0  0  0  0
 11 16  1  0  0  0  0
 11 35  1  0  0  0  0
 12 17  1  0  0  0  0
 12 18  1  0  0  0  0
 12 36  1  0  0  0  0
 13 14  2  0  0  0  0
 13 19  1  0  0  0  0
 14 37  1  0  0  0  0
 15 38  1  0  0  0  0
 15 39  1  0  0  0  0
 16 20  1  0  0  0  0
 16 40  1  0  0  0  0
 16 41  1  0  0  0  0
 17 42  1  0  0  0  0
 17 43  1  0  0  0  0
 17 44  1  0  0  0  0
 18 45  1  0  0  0  0
 18 46  1  0  0  0  0
 18 47  1  0  0  0  0
 19 48  1  0  0  0  0
 19 49  1  0  0  0  0
 19 50  1  0  0  0  0
 21 24  1  0  0  0  0
 22 23  2  0  0  0  0
 22 25  1  0  0  0  0
 23 26  1  0  0  0  0
 24 27  1  0  0  0  0
 24 53  1  0  0  0  0
 24 54  1  0  0  0  0
 25 28  2  0  0  0  0
 25 55  1  0  0  0  0
 26 29  2  0  0  0  0
 26 56  1  0  0  0  0
 27 30  1  0  0  0  0
 27 57  1  0  0  0  0
 27 58  1  0  0  0  0
 28 29  1  0  0  0  0
 29 59  1  0  0  0  0
M  END
> <PUBCHEM_COMPOUND_CID>
71693216

> <PUBCHEM_CONFORMER_RMSD>
1

> <PUBCHEM_CONFORMER_DIVERSEORDER>
1
68
110
47
54
89
100
109
69
108
76
61
57
51
44
94
19
49
86
38
106
65
95
58
87
40
97
56
72
73
84
27
105
70
67
88
66
103
77
85
17
107
62
98
64
90
71
11
104
22
23
99
93
36
42
101
28
9
80
31
102
25
4
29
45
75
96
82
37
59
78
83
92
18
63
50
41
8
6
16
34
33
5
91
81
20
3
13
79
24
32
35
52
2
43
60
7
74
48
30
26
55
10
46
21
14
15
12
39
53

> <PUBCHEM_MMFF94_PARTIAL_CHARGES>
32
1 -0.18
11 0.14
13 -0.28
14 -0.29
15 0.3
16 0.18
19 0.14
2 -0.57
20 0.01
21 0.57
22 -0.15
23 0.23
24 0.06
25 -0.15
26 -0.15
27 0.06
28 0.18
29 -0.15
3 -0.65
30 0.66
37 0.15
4 -0.57
5 -0.73
51 0.37
52 0.27
55 0.15
56 0.15
59 0.15
6 0.03
60 0.5
7 -0.57
9 0.14

> <PUBCHEM_EFFECTIVE_ROTOR_COUNT>
9.8

> <PUBCHEM_PHARMACOPHORE_FEATURES>
11
1 2 acceptor
1 3 acceptor
1 4 acceptor
1 5 donor
1 6 donor
3 12 17 18 hydrophobe
3 3 4 30 anion
3 6 7 20 cation
5 6 7 20 22 23 rings
6 22 23 25 26 28 29 rings
6 8 9 10 11 13 14 rings

> <PUBCHEM_HEAVY_ATOM_COUNT>
30

> <PUBCHEM_ATOM_DEF_STEREO_COUNT>
3

> <PUBCHEM_ATOM_UDEF_STEREO_COUNT>
0

> <PUBCHEM_BOND_DEF_STEREO_COUNT>
0

> <PUBCHEM_BOND_UDEF_STEREO_COUNT>
0

> <PUBCHEM_ISOTOPIC_ATOM_COUNT>
0

> <PUBCHEM_COMPONENT_COUNT>
1

> <PUBCHEM_CACTVS_TAUTO_COUNT>
6

> <PUBCHEM_CONFORMER_ID>
0445F3A000000001

> <PUBCHEM_MMFF94_ENERGY>
48.8252

> <PUBCHEM_FEATURE_SELFOVERLAP>
55.985

> <PUBCHEM_SHAPE_FINGERPRINT>
10622 236 18192997019806114330
11069576 57 18408895035924359310
11135609 149 18264183912155625055
12107183 9 18128550271146522073
12617007 42 17168143506791990348
131258 38 18058156409815598654
13165053 137 14511838377812351379
13533116 47 18270964660699441443
14068700 675 18201450151315572952
14674994 50 17758678845792083748
15163728 17 11458715966961097376
15183329 4 17488476324957476001
17349148 13 16056053457936865961
18681886 176 15265951058884091608
19315092 285 18341336613338897440
20775530 9 18189907405185504306
21285901 2 17749380494925500300
23559900 14 18187082906217260211
25222932 49 16839377586194139167
3004659 81 16843901956557801985
345986 75 18130791122761047592
376196 1 16160751351330686461
484985 159 17544757825006207694
57527585 103 17550106961928312822
70251023 43 18187644635825040946
8509985 295 17703235130089963997

> <PUBCHEM_SHAPE_MULTIPOLES>
586.7
12.8
5.34
2.62
20.85
5.05
-0.28
15.87
-0.72
-10.15
0.8
-0.99
-2.72
-1.36

> <PUBCHEM_SHAPE_SELFOVERLAP>
1222.914

> <PUBCHEM_SHAPE_VOLUME>
334.5

> <PUBCHEM_COORDINATE_TYPE>
2
5
10

$$$$
