23843914
  -OEChem-12032416133D

 74 77  0     1  0  0  0  0  0999 V2000
  -10.0283    0.1735   -0.5141 F   0  0  0  0  0  0  0  0  0  0  0  0
   -9.1547    1.0626    1.2609 F   0  0  0  0  0  0  0  0  0  0  0  0
   -8.8307    1.9806   -0.6836 F   0  0  0  0  0  0  0  0  0  0  0  0
   -1.8365    0.3896    0.8739 O   0  0  0  0  0  0  0  0  0  0  0  0
    5.3706   -2.0946    1.0080 O   0  0  0  0  0  0  0  0  0  0  0  0
    1.0041    2.2190   -1.6913 O   0  0  0  0  0  0  0  0  0  0  0  0
    6.5878    0.3410    1.8302 O   0  0  0  0  0  0  0  0  0  0  0  0
   -2.5280   -1.5329   -0.1538 O   0  0  0  0  0  0  0  0  0  0  0  0
    7.3565    0.3732   -0.3482 N   0  0  0  0  0  0  0  0  0  0  0  0
   -4.0208    0.1737    0.4285 N   0  0  0  0  0  0  0  0  0  0  0  0
    2.4970    0.4776    0.9694 C   0  0  2  0  0  0  0  0  0  0  0  0
    1.7891   -0.0390   -0.3476 C   0  0  2  0  0  0  0  0  0  0  0  0
    0.2430    0.3240   -0.4520 C   0  0  1  0  0  0  0  0  0  0  0  0
    3.9744   -0.0838    1.0848 C   0  0  1  0  0  0  0  0  0  0  0  0
    1.6655    0.0187    2.2009 C   0  0  0  0  0  0  0  0  0  0  0  0
    1.9975   -1.5739   -0.5329 C   0  0  0  0  0  0  0  0  0  0  0  0
   -0.4928   -0.0934    0.8538 C   0  0  1  0  0  0  0  0  0  0  0  0
    4.0302   -1.6150    0.9349 C   0  0  1  0  0  0  0  0  0  0  0  0
    0.1878    0.4006    2.1298 C   0  0  0  0  0  0  0  0  0  0  0  0
    3.4325   -2.0533   -0.3877 C   0  0  0  0  0  0  0  0  0  0  0  0
    2.6078    2.0247    1.0196 C   0  0  0  0  0  0  0  0  0  0  0  0
    0.0233    1.8264   -0.7600 C   0  0  0  0  0  0  0  0  0  0  0  0
    4.9632    0.5939    0.1070 C   0  0  0  0  0  0  0  0  0  0  0  0
   -0.4158   -0.4148   -1.6518 C   0  0  0  0  0  0  0  0  0  0  0  0
    6.3705    0.4224    0.6203 C   0  0  0  0  0  0  0  0  0  0  0  0
   -2.7859   -0.4373    0.3296 C   0  0  0  0  0  0  0  0  0  0  0  0
    8.7650    0.2178   -0.0157 C   0  0  0  0  0  0  0  0  0  0  0  0
    7.1660    0.4603   -1.7926 C   0  0  0  0  0  0  0  0  0  0  0  0
    9.4348   -0.1113   -1.3408 C   0  0  0  0  0  0  0  0  0  0  0  0
    8.5715    0.6342   -2.3507 C   0  0  0  0  0  0  0  0  0  0  0  0
   -5.2730   -0.3194   -0.0035 C   0  0  0  0  0  0  0  0  0  0  0  0
   -6.4254    0.4446    0.1813 C   0  0  0  0  0  0  0  0  0  0  0  0
   -5.3562   -1.5704   -0.6151 C   0  0  0  0  0  0  0  0  0  0  0  0
   -7.6610   -0.0425   -0.2451 C   0  0  0  0  0  0  0  0  0  0  0  0
   -6.5917   -2.0575   -1.0416 C   0  0  0  0  0  0  0  0  0  0  0  0
   -7.7441   -1.2935   -0.8564 C   0  0  0  0  0  0  0  0  0  0  0  0
   -8.8933    0.7742   -0.0483 C   0  0  0  0  0  0  0  0  0  0  0  0
    2.3208    0.4083   -1.1974 H   0  0  0  0  0  0  0  0  0  0  0  0
    4.3022    0.1408    2.1096 H   0  0  0  0  0  0  0  0  0  0  0  0
    1.7143   -1.0685    2.3197 H   0  0  0  0  0  0  0  0  0  0  0  0
    2.0953    0.4403    3.1188 H   0  0  0  0  0  0  0  0  0  0  0  0
    1.3772   -2.1296    0.1789 H   0  0  0  0  0  0  0  0  0  0  0  0
    1.6725   -1.8774   -1.5341 H   0  0  0  0  0  0  0  0  0  0  0  0
   -0.4979   -1.1887    0.9302 H   0  0  0  0  0  0  0  0  0  0  0  0
    3.4929   -2.0917    1.7608 H   0  0  0  0  0  0  0  0  0  0  0  0
    0.0514    1.4814    2.2432 H   0  0  0  0  0  0  0  0  0  0  0  0
   -0.3325   -0.0283    2.9968 H   0  0  0  0  0  0  0  0  0  0  0  0
    3.4538   -3.1492   -0.4507 H   0  0  0  0  0  0  0  0  0  0  0  0
    4.0381   -1.7185   -1.2369 H   0  0  0  0  0  0  0  0  0  0  0  0
    2.8780    2.4531    0.0503 H   0  0  0  0  0  0  0  0  0  0  0  0
    3.3659    2.3368    1.7492 H   0  0  0  0  0  0  0  0  0  0  0  0
    1.6942    2.5179    1.3491 H   0  0  0  0  0  0  0  0  0  0  0  0
    0.0926    2.4604    0.1234 H   0  0  0  0  0  0  0  0  0  0  0  0
   -0.9663    2.0165   -1.1918 H   0  0  0  0  0  0  0  0  0  0  0  0
    4.8344    0.2110   -0.9048 H   0  0  0  0  0  0  0  0  0  0  0  0
    4.8333    1.6772    0.0501 H   0  0  0  0  0  0  0  0  0  0  0  0
   -0.4916   -1.4940   -1.4903 H   0  0  0  0  0  0  0  0  0  0  0  0
    0.1806   -0.2671   -2.5610 H   0  0  0  0  0  0  0  0  0  0  0  0
   -1.4164   -0.0371   -1.8858 H   0  0  0  0  0  0  0  0  0  0  0  0
    5.3428   -3.0633    0.9268 H   0  0  0  0  0  0  0  0  0  0  0  0
    0.8631    3.1623   -1.8801 H   0  0  0  0  0  0  0  0  0  0  0  0
    8.9036   -0.5596    0.7416 H   0  0  0  0  0  0  0  0  0  0  0  0
    9.1188    1.1728    0.3883 H   0  0  0  0  0  0  0  0  0  0  0  0
    6.5078    1.2934   -2.0547 H   0  0  0  0  0  0  0  0  0  0  0  0
    6.7172   -0.4801   -2.1306 H   0  0  0  0  0  0  0  0  0  0  0  0
    9.3804   -1.1898   -1.5322 H   0  0  0  0  0  0  0  0  0  0  0  0
   10.4852    0.1906   -1.3691 H   0  0  0  0  0  0  0  0  0  0  0  0
    8.8442    1.6965   -2.3574 H   0  0  0  0  0  0  0  0  0  0  0  0
    8.6717    0.2478   -3.3686 H   0  0  0  0  0  0  0  0  0  0  0  0
   -4.0341    1.0921    0.8653 H   0  0  0  0  0  0  0  0  0  0  0  0
   -6.3644    1.4206    0.6576 H   0  0  0  0  0  0  0  0  0  0  0  0
   -4.5082   -2.2173   -0.7921 H   0  0  0  0  0  0  0  0  0  0  0  0
   -6.6576   -3.0314   -1.5180 H   0  0  0  0  0  0  0  0  0  0  0  0
   -8.6972   -1.6900   -1.1955 H   0  0  0  0  0  0  0  0  0  0  0  0
  1 37  1  0  0  0  0
  2 37  1  0  0  0  0
  3 37  1  0  0  0  0
  4 17  1  0  0  0  0
  4 26  1  0  0  0  0
  5 18  1  0  0  0  0
  5 60  1  0  0  0  0
  6 22  1  0  0  0  0
  6 61  1  0  0  0  0
  7 25  2  0  0  0  0
  8 26  2  0  0  0  0
  9 25  1  0  0  0  0
  9 27  1  0  0  0  0
  9 28  1  0  0  0  0
 10 26  1  0  0  0  0
 10 31  1  0  0  0  0
 10 70  1  0  0  0  0
 11 12  1  0  0  0  0
 11 14  1  0  0  0  0
 11 15  1  0  0  0  0
 11 21  1  0  0  0  0
 12 13  1  0  0  0  0
 12 16  1  0  0  0  0
 12 38  1  0  0  0  0
 13 17  1  0  0  0  0
 13 22  1  0  0  0  0
 13 24  1  0  0  0  0
 14 18  1  0  0  0  0
 14 23  1  0  0  0  0
 14 39  1  0  0  0  0
 15 19  1  0  0  0  0
 15 40  1  0  0  0  0
 15 41  1  0  0  0  0
 16 20  1  0  0  0  0
 16 42  1  0  0  0  0
 16 43  1  0  0  0  0
 17 19  1  0  0  0  0
 17 44  1  0  0  0  0
 18 20  1  0  0  0  0
 18 45  1  0  0  0  0
 19 46  1  0  0  0  0
 19 47  1  0  0  0  0
 20 48  1  0  0  0  0
 20 49  1  0  0  0  0
 21 50  1  0  0  0  0
 21 51  1  0  0  0  0
 21 52  1  0  0  0  0
 22 53  1  0  0  0  0
 22 54  1  0  0  0  0
 23 25  1  0  0  0  0
 23 55  1  0  0  0  0
 23 56  1  0  0  0  0
 24 57  1  0  0  0  0
 24 58  1  0  0  0  0
 24 59  1  0  0  0  0
 27 29  1  0  0  0  0
 27 62  1  0  0  0  0
 27 63  1  0  0  0  0
 28 30  1  0  0  0  0
 28 64  1  0  0  0  0
 28 65  1  0  0  0  0
 29 30  1  0  0  0  0
 29 66  1  0  0  0  0
 29 67  1  0  0  0  0
 30 68  1  0  0  0  0
 30 69  1  0  0  0  0
 31 32  1  0  0  0  0
 31 33  2  0  0  0  0
 32 34  2  0  0  0  0
 32 71  1  0  0  0  0
 33 35  1  0  0  0  0
 33 72  1  0  0  0  0
 34 36  1  0  0  0  0
 34 37  1  0  0  0  0
 35 36  2  0  0  0  0
 35 73  1  0  0  0  0
 36 74  1  0  0  0  0
M  END
> <PUBCHEM_COMPOUND_CID>
23843914

> <PUBCHEM_CONFORMER_RMSD>
1.2

> <PUBCHEM_CONFORMER_DIVERSEORDER>
7
24
39
94
41
6
13
15
27
69
16
21
55
97
17
64
93
74
90
11
96
62
57
40
77
83
58
35
92
85
44
91
53
38
98
60
59
26
42
2
50
37
78
22
48
19
28
20
86
63
89
87
68
46
54
18
45
29
70
65
36
67
5
9
56
73
80
79
1
66
82
52
43
49
88
61
32
76
10
25
75
33
14
30
95
12
71
31
3
23
47
34
84
4
72
8
51
81

> <PUBCHEM_MMFF94_PARTIAL_CHARGES>
32
1 -0.34
10 -0.55
17 0.28
18 0.28
2 -0.34
22 0.28
23 0.06
25 0.57
26 0.78
27 0.3
28 0.3
3 -0.34
31 0.12
32 -0.15
33 -0.15
34 -0.14
35 -0.15
36 -0.15
37 1.16
4 -0.43
5 -0.68
6 -0.68
60 0.4
61 0.4
7 -0.57
70 0.37
71 0.15
72 0.15
73 0.15
74 0.15
8 -0.57
9 -0.66

> <PUBCHEM_EFFECTIVE_ROTOR_COUNT>
11.6

> <PUBCHEM_PHARMACOPHORE_FEATURES>
11
1 10 donor
1 5 acceptor
1 5 donor
1 6 acceptor
1 6 donor
1 7 acceptor
1 8 acceptor
5 9 27 28 29 30 rings
6 11 12 13 15 17 19 rings
6 11 12 14 16 18 20 rings
6 31 32 33 34 35 36 rings

> <PUBCHEM_HEAVY_ATOM_COUNT>
37

> <PUBCHEM_ATOM_DEF_STEREO_COUNT>
5

> <PUBCHEM_ATOM_UDEF_STEREO_COUNT>
1

> <PUBCHEM_BOND_DEF_STEREO_COUNT>
0

> <PUBCHEM_BOND_UDEF_STEREO_COUNT>
0

> <PUBCHEM_ISOTOPIC_ATOM_COUNT>
0

> <PUBCHEM_COMPONENT_COUNT>
1

> <PUBCHEM_CACTVS_TAUTO_COUNT>
2

> <PUBCHEM_CONFORMER_ID>
016BD44A00000007

> <PUBCHEM_MMFF94_ENERGY>
123.1468

> <PUBCHEM_FEATURE_SELFOVERLAP>
55.879

> <PUBCHEM_SHAPE_FINGERPRINT>
10 15 13406791142333477593
10100884 174 10086766296859859413
11115154 58 18408609158089737944
11181472 205 18335704888437079753
11719270 70 16917347031090470383
12144603 126 18260268534280222109
12522641 33 17530965774211801378
13383665 225 18189914040778212276
13811026 1 15985108509003676040
14040221 8 18271527494873927489
14117953 113 18060701701523256332
14251764 18 18411976966753264339
1454969 45 18334296479046423238
15183329 4 17775284959343894843
15247644 1 13110966422506009652
15301273 46 16988844981703312068
15439362 3 17243307298925997844
15461852 350 16917058993856937959
15510794 2 16917349250891930911
15840311 113 17560795580898192672
15849732 13 16630526254451664884
15980000 95 18040435494864324477
16728433 281 18119805816812337733
16992787 43 16515402980128577004
19315958 150 14996282527306694002
19841028 212 18201439130345946510
21267235 1 16988565722950974850
21792961 116 16702025249174460473
249057 3 18341050804107305768
3178227 256 12535352307440969654
335352 9 16128657470598995424
3633792 109 18202285805215540187
4017518 198 17846785126076713758
4073 2 18336541742004696027
4625314 4 17988640843315269476
5028188 123 18129944606767561214
59682541 35 12540695929029278645
6081469 158 16845576409376128512
6523845 18 13758354445170837236

> <PUBCHEM_SHAPE_MULTIPOLES>
700.31
31.48
1.79
1.71
30.08
0.2
-0.44
3.53
-10.27
0.87
0.26
-2.74
-0.11
1.38

> <PUBCHEM_SHAPE_SELFOVERLAP>
1483.858

> <PUBCHEM_SHAPE_VOLUME>
389.2

> <PUBCHEM_COORDINATE_TYPE>
2
5
10

$$$$
