75368570
  -OEChem-12032416393D

 50 53  0     1  0  0  0  0  0999 V2000
   -4.3159   -2.0639   -0.7979 O   0  0  0  0  0  0  0  0  0  0  0  0
    7.0748    0.6702   -1.7778 O   0  0  0  0  0  0  0  0  0  0  0  0
   -2.0668   -1.5213   -0.5131 N   0  0  0  0  0  0  0  0  0  0  0  0
    0.6275   -1.8047    0.2461 N   0  0  2  0  0  0  0  0  0  0  0  0
   -3.5803    0.1323   -0.1938 N   0  0  0  0  0  0  0  0  0  0  0  0
   -5.9595    0.2436   -0.3429 N   0  0  0  0  0  0  0  0  0  0  0  0
    6.0687    1.5292    0.1736 N   0  0  0  0  0  0  0  0  0  0  0  0
   -1.2671   -0.3386   -0.3137 C   0  0  2  0  0  0  0  0  0  0  0  0
   -0.1353   -0.6154    0.6751 C   0  0  0  0  0  0  0  0  0  0  0  0
   -2.2810    0.7024    0.1453 C   0  0  0  0  0  0  0  0  0  0  0  0
   -1.4077   -2.7814   -0.7915 C   0  0  0  0  0  0  0  0  0  0  0  0
   -0.2460   -2.9934    0.1821 C   0  0  0  0  0  0  0  0  0  0  0  0
   -3.4434   -1.2450   -0.5402 C   0  0  0  0  0  0  0  0  0  0  0  0
    1.7499   -2.0446    1.1528 C   0  0  0  0  0  0  0  0  0  0  0  0
   -4.7913    0.8760   -0.0919 C   0  0  0  0  0  0  0  0  0  0  0  0
    2.8921   -1.0986    0.8937 C   0  0  0  0  0  0  0  0  0  0  0  0
   -4.6927    2.2121    0.2615 C   0  0  0  0  0  0  0  0  0  0  0  0
    3.1140   -0.0208    1.7510 C   0  0  0  0  0  0  0  0  0  0  0  0
    3.7290   -1.3003   -0.2040 C   0  0  0  0  0  0  0  0  0  0  0  0
   -5.8690    2.9464    0.3640 C   0  0  0  0  0  0  0  0  0  0  0  0
    4.1728    0.8550    1.5109 C   0  0  0  0  0  0  0  0  0  0  0  0
    4.7877   -0.4245   -0.4442 C   0  0  0  0  0  0  0  0  0  0  0  0
   -7.0817    0.9896   -0.2334 C   0  0  0  0  0  0  0  0  0  0  0  0
    5.0095    0.6531    0.4133 C   0  0  0  0  0  0  0  0  0  0  0  0
   -7.0904    2.3310    0.1135 C   0  0  0  0  0  0  0  0  0  0  0  0
    7.0062    1.4890   -0.8670 C   0  0  0  0  0  0  0  0  0  0  0  0
    7.9962    2.6228   -0.7715 C   0  0  0  0  0  0  0  0  0  0  0  0
   -0.8588   -0.0598   -1.2943 H   0  0  0  0  0  0  0  0  0  0  0  0
    0.5009    0.2756    0.7080 H   0  0  0  0  0  0  0  0  0  0  0  0
   -0.5405   -0.7697    1.6845 H   0  0  0  0  0  0  0  0  0  0  0  0
   -2.2451    0.8690    1.2278 H   0  0  0  0  0  0  0  0  0  0  0  0
   -2.1067    1.6432   -0.3867 H   0  0  0  0  0  0  0  0  0  0  0  0
   -1.0420   -2.7355   -1.8238 H   0  0  0  0  0  0  0  0  0  0  0  0
   -2.1334   -3.5982   -0.7263 H   0  0  0  0  0  0  0  0  0  0  0  0
   -0.6440   -3.2225    1.1798 H   0  0  0  0  0  0  0  0  0  0  0  0
    0.3255   -3.8672   -0.1532 H   0  0  0  0  0  0  0  0  0  0  0  0
    2.1474   -3.0591    1.0072 H   0  0  0  0  0  0  0  0  0  0  0  0
    1.4384   -2.0077    2.2057 H   0  0  0  0  0  0  0  0  0  0  0  0
   -3.7602    2.7211    0.4720 H   0  0  0  0  0  0  0  0  0  0  0  0
    2.4697    0.1480    2.6097 H   0  0  0  0  0  0  0  0  0  0  0  0
    3.5653   -2.1367   -0.8786 H   0  0  0  0  0  0  0  0  0  0  0  0
   -5.8350    3.9960    0.6406 H   0  0  0  0  0  0  0  0  0  0  0  0
    4.3338    1.6905    2.1873 H   0  0  0  0  0  0  0  0  0  0  0  0
    5.3920   -0.6454   -1.3129 H   0  0  0  0  0  0  0  0  0  0  0  0
   -8.0078    0.4630   -0.4388 H   0  0  0  0  0  0  0  0  0  0  0  0
   -8.0198    2.8837    0.1879 H   0  0  0  0  0  0  0  0  0  0  0  0
    6.1638    2.2891    0.8443 H   0  0  0  0  0  0  0  0  0  0  0  0
    8.5206    2.5780    0.1871 H   0  0  0  0  0  0  0  0  0  0  0  0
    7.4721    3.5788   -0.8576 H   0  0  0  0  0  0  0  0  0  0  0  0
    8.7285    2.5445   -1.5798 H   0  0  0  0  0  0  0  0  0  0  0  0
  1 13  2  0  0  0  0
  2 26  2  0  0  0  0
  3  8  1  0  0  0  0
  3 11  1  0  0  0  0
  3 13  1  0  0  0  0
  4  9  1  0  0  0  0
  4 12  1  0  0  0  0
  4 14  1  0  0  0  0
  5 10  1  0  0  0  0
  5 13  1  0  0  0  0
  5 15  1  0  0  0  0
  6 15  1  0  0  0  0
  6 23  2  0  0  0  0
  7 24  1  0  0  0  0
  7 26  1  0  0  0  0
  7 47  1  0  0  0  0
  8  9  1  0  0  0  0
  8 10  1  0  0  0  0
  8 28  1  0  0  0  0
  9 29  1  0  0  0  0
  9 30  1  0  0  0  0
 10 31  1  0  0  0  0
 10 32  1  0  0  0  0
 11 12  1  0  0  0  0
 11 33  1  0  0  0  0
 11 34  1  0  0  0  0
 12 35  1  0  0  0  0
 12 36  1  0  0  0  0
 14 16  1  0  0  0  0
 14 37  1  0  0  0  0
 14 38  1  0  0  0  0
 15 17  2  0  0  0  0
 16 18  2  0  0  0  0
 16 19  1  0  0  0  0
 17 20  1  0  0  0  0
 17 39  1  0  0  0  0
 18 21  1  0  0  0  0
 18 40  1  0  0  0  0
 19 22  2  0  0  0  0
 19 41  1  0  0  0  0
 20 25  2  0  0  0  0
 20 42  1  0  0  0  0
 21 24  2  0  0  0  0
 21 43  1  0  0  0  0
 22 24  1  0  0  0  0
 22 44  1  0  0  0  0
 23 25  1  0  0  0  0
 23 45  1  0  0  0  0
 25 46  1  0  0  0  0
 26 27  1  0  0  0  0
 27 48  1  0  0  0  0
 27 49  1  0  0  0  0
 27 50  1  0  0  0  0
M  END
> <PUBCHEM_COMPOUND_CID>
75368570

> <PUBCHEM_CONFORMER_RMSD>
0.8

> <PUBCHEM_CONFORMER_DIVERSEORDER>
1
52
26
16
36
23
48
40
42
37
45
50
27
10
21
24
35
33
32
5
14
47
43
18
34
31
51
39
38
44
17
7
41
19
49
12
28
46
30
8
22
20
2
29
11
25
6
3
4
15
9
13

> <PUBCHEM_MMFF94_PARTIAL_CHARGES>
36
1 -0.57
10 0.3
11 0.3
12 0.27
13 0.69
14 0.41
15 0.43
16 -0.14
17 -0.15
18 -0.15
19 -0.15
2 -0.57
20 -0.15
21 -0.15
22 -0.15
23 0.16
24 0.12
25 -0.15
26 0.57
27 0.06
3 -0.66
39 0.15
4 -0.81
40 0.15
41 0.15
42 0.15
43 0.15
44 0.15
45 0.15
46 0.15
47 0.37
5 -0.48
6 -0.62
7 -0.55
8 0.3
9 0.27

> <PUBCHEM_EFFECTIVE_ROTOR_COUNT>
6.2

> <PUBCHEM_PHARMACOPHORE_FEATURES>
9
1 1 acceptor
1 2 acceptor
1 4 cation
1 6 acceptor
1 7 donor
5 3 5 8 10 13 rings
6 16 18 19 21 22 24 rings
6 3 4 8 9 11 12 rings
6 6 15 17 20 23 25 rings

> <PUBCHEM_HEAVY_ATOM_COUNT>
27

> <PUBCHEM_ATOM_DEF_STEREO_COUNT>
1

> <PUBCHEM_ATOM_UDEF_STEREO_COUNT>
0

> <PUBCHEM_BOND_DEF_STEREO_COUNT>
0

> <PUBCHEM_BOND_UDEF_STEREO_COUNT>
0

> <PUBCHEM_ISOTOPIC_ATOM_COUNT>
0

> <PUBCHEM_COMPONENT_COUNT>
1

> <PUBCHEM_CACTVS_TAUTO_COUNT>
3

> <PUBCHEM_CONFORMER_ID>
047E087A00000001

> <PUBCHEM_MMFF94_ENERGY>
79.8946

> <PUBCHEM_FEATURE_SELFOVERLAP>
45.767

> <PUBCHEM_SHAPE_FINGERPRINT>
10 15 18187086144331944465
10280341 67 18341035407447005544
10554248 39 18122605194500374359
11991303 11 16486957523881661893
1200032 147 18040720264723372410
12342043 65 13986046729374036162
12390115 104 18273216396141598955
12895836 83 18411418431815057978
12895837 130 18263650726573620924
13757389 114 18200310047857372871
13782708 43 11239409629065761301
13885169 86 18333737935133757668
14251757 52 18260831501524691480
14257110 125 18410291384893348026
14394314 77 18333734632251621277
14428016 204 17967253079198073725
14528608 73 18200865189543821155
14790565 3 18341889663266283041
14840074 17 18040714757842381101
14931854 50 17775288235797533576
15064981 194 17753061767419530158
15183329 4 16917072135396618632
15188451 53 9223230741258048936
15198563 99 17842540011262508567
15575132 122 18262513681142768749
1577012 14 18333726940597299842
15840311 113 18188214191511568565
16126227 98 18409450310101270177
16992752 21 18268708497695583759
19427546 20 18341326795128626783
1979834 28 13912324543224037938
2026 5 10375869658877855909
20526848 3 18334577945106190388
21298829 104 18334860532532581428
21585482 111 18115305553556735997
23559900 14 17775281711947555832
23569914 152 17200249032270478118
23569943 247 9655283853428060229
270888 7 18407760339665693352
3014063 24 11024110936915053460
3472631 163 18411982468521637054
3986486 107 17703801293006353540
406291 66 10447930555534300324
4073 2 18187367644382828458
445580 37 18343866623701135721
5104073 3 13118264941808964196
54583773 228 18410566277189025005
5718773 13 9871751286781249156
5911458 16 18187370951903304556
5937810 71 18060148660302623544
59682541 52 17346323661873330294
6438161 24 9799400114733464737
7808743 9 18410567401088217722
9689198 14 18334304166694887536
9980921 221 16844745135167080544

> <PUBCHEM_SHAPE_MULTIPOLES>
519
21.66
3.24
1.15
8.11
0.26
-0.16
-22.97
5.33
-1.44
0.28
1.79
0
-2.08

> <PUBCHEM_SHAPE_SELFOVERLAP>
1115.117

> <PUBCHEM_SHAPE_VOLUME>
284.5

> <PUBCHEM_COORDINATE_TYPE>
2
5
10

$$$$
