7049279
  -OEChem-12032416153D

 54 55  0     1  0  0  0  0  0999 V2000
    0.1548   -2.0111   -2.1165 O   0  0  0  0  0  0  0  0  0  0  0  0
    1.3079   -4.2755    0.5152 O   0  0  0  0  0  0  0  0  0  0  0  0
   -2.9787   -2.0022    0.7756 O   0  0  0  0  0  0  0  0  0  0  0  0
    4.3168   -0.8369    1.4057 O   0  0  0  0  0  0  0  0  0  0  0  0
    3.4444    3.1099   -1.4584 O   0  0  0  0  0  0  0  0  0  0  0  0
   -3.3747    0.0508   -0.2307 N   0  0  0  0  0  0  0  0  0  0  0  0
   -1.2219   -0.7459   -0.0774 N   0  0  0  0  0  0  0  0  0  0  0  0
    3.3312    0.8919    0.1915 N   0  0  0  0  0  0  0  0  0  0  0  0
    5.6683    3.3457   -0.9341 N   0  0  0  0  0  0  0  0  0  0  0  0
   -4.8107    0.0515   -0.0607 C   0  0  0  0  0  0  0  0  0  0  0  0
   -5.2046    0.6471    1.2951 C   0  0  0  0  0  0  0  0  0  0  0  0
   -5.5015    0.7886   -1.2130 C   0  0  0  0  0  0  0  0  0  0  0  0
   -4.9925    2.1600    1.3532 C   0  0  0  0  0  0  0  0  0  0  0  0
   -5.2889    2.3012   -1.1508 C   0  0  0  0  0  0  0  0  0  0  0  0
   -5.6984    2.8721    0.2034 C   0  0  0  0  0  0  0  0  0  0  0  0
   -0.1594   -1.6595    0.2650 C   0  0  1  0  0  0  0  0  0  0  0  0
    0.0928   -2.6844   -0.8573 C   0  0  2  0  0  0  0  0  0  0  0  0
    1.4068   -3.4447   -0.6397 C   0  0  1  0  0  0  0  0  0  0  0  0
    2.6097   -2.4952   -0.5052 C   0  0  0  0  0  0  0  0  0  0  0  0
    1.0654   -0.8655    0.6315 C   0  0  0  0  0  0  0  0  0  0  0  0
    2.3001   -1.2475    0.2723 C   0  0  0  0  0  0  0  0  0  0  0  0
   -2.5633   -0.9926    0.2081 C   0  0  0  0  0  0  0  0  0  0  0  0
    3.4196   -0.3972    0.6874 C   0  0  0  0  0  0  0  0  0  0  0  0
    4.3164    1.9131    0.4668 C   0  0  2  0  0  0  0  0  0  0  0  0
    3.9560    2.6984    1.7179 C   0  0  0  0  0  0  0  0  0  0  0  0
    4.4043    2.8281   -0.7449 C   0  0  0  0  0  0  0  0  0  0  0  0
   -5.1402   -0.9948   -0.0806 H   0  0  0  0  0  0  0  0  0  0  0  0
   -4.6389    0.1706    2.1047 H   0  0  0  0  0  0  0  0  0  0  0  0
   -6.2649    0.4338    1.4824 H   0  0  0  0  0  0  0  0  0  0  0  0
   -6.5788    0.5825   -1.1731 H   0  0  0  0  0  0  0  0  0  0  0  0
   -5.1410    0.4105   -2.1772 H   0  0  0  0  0  0  0  0  0  0  0  0
   -5.3667    2.5457    2.3084 H   0  0  0  0  0  0  0  0  0  0  0  0
   -3.9195    2.3848    1.3195 H   0  0  0  0  0  0  0  0  0  0  0  0
   -5.8741    2.7837   -1.9420 H   0  0  0  0  0  0  0  0  0  0  0  0
   -4.2377    2.5421   -1.3482 H   0  0  0  0  0  0  0  0  0  0  0  0
   -5.4696    3.9432    0.2366 H   0  0  0  0  0  0  0  0  0  0  0  0
   -6.7840    2.7739    0.3264 H   0  0  0  0  0  0  0  0  0  0  0  0
   -0.4646   -2.2038    1.1684 H   0  0  0  0  0  0  0  0  0  0  0  0
   -0.7523   -3.3824   -0.8969 H   0  0  0  0  0  0  0  0  0  0  0  0
    1.5892   -4.1092   -1.4931 H   0  0  0  0  0  0  0  0  0  0  0  0
    3.4451   -3.0252   -0.0323 H   0  0  0  0  0  0  0  0  0  0  0  0
    2.9377   -2.1902   -1.5070 H   0  0  0  0  0  0  0  0  0  0  0  0
   -2.9258    0.8740   -0.6197 H   0  0  0  0  0  0  0  0  0  0  0  0
    0.9175    0.0280    1.2348 H   0  0  0  0  0  0  0  0  0  0  0  0
   -0.9915    0.0948   -0.5994 H   0  0  0  0  0  0  0  0  0  0  0  0
    0.2850   -2.6870   -2.8034 H   0  0  0  0  0  0  0  0  0  0  0  0
    2.1402   -4.7721    0.5927 H   0  0  0  0  0  0  0  0  0  0  0  0
    2.5393    1.1476   -0.3925 H   0  0  0  0  0  0  0  0  0  0  0  0
    5.2841    1.4203    0.6196 H   0  0  0  0  0  0  0  0  0  0  0  0
    4.7040    3.4708    1.9258 H   0  0  0  0  0  0  0  0  0  0  0  0
    3.8918    2.0400    2.5908 H   0  0  0  0  0  0  0  0  0  0  0  0
    2.9867    3.1978    1.6065 H   0  0  0  0  0  0  0  0  0  0  0  0
    5.8610    3.9810   -1.7014 H   0  0  0  0  0  0  0  0  0  0  0  0
    6.4474    3.1197   -0.3242 H   0  0  0  0  0  0  0  0  0  0  0  0
  1 17  1  0  0  0  0
  1 46  1  0  0  0  0
  2 18  1  0  0  0  0
  2 47  1  0  0  0  0
  3 22  2  0  0  0  0
  4 23  2  0  0  0  0
  5 26  2  0  0  0  0
  6 10  1  0  0  0  0
  6 22  1  0  0  0  0
  6 43  1  0  0  0  0
  7 16  1  0  0  0  0
  7 22  1  0  0  0  0
  7 45  1  0  0  0  0
  8 23  1  0  0  0  0
  8 24  1  0  0  0  0
  8 48  1  0  0  0  0
  9 26  1  0  0  0  0
  9 53  1  0  0  0  0
  9 54  1  0  0  0  0
 10 11  1  0  0  0  0
 10 12  1  0  0  0  0
 10 27  1  0  0  0  0
 11 13  1  0  0  0  0
 11 28  1  0  0  0  0
 11 29  1  0  0  0  0
 12 14  1  0  0  0  0
 12 30  1  0  0  0  0
 12 31  1  0  0  0  0
 13 15  1  0  0  0  0
 13 32  1  0  0  0  0
 13 33  1  0  0  0  0
 14 15  1  0  0  0  0
 14 34  1  0  0  0  0
 14 35  1  0  0  0  0
 15 36  1  0  0  0  0
 15 37  1  0  0  0  0
 16 17  1  0  0  0  0
 16 20  1  0  0  0  0
 16 38  1  0  0  0  0
 17 18  1  0  0  0  0
 17 39  1  0  0  0  0
 18 19  1  0  0  0  0
 18 40  1  0  0  0  0
 19 21  1  0  0  0  0
 19 41  1  0  0  0  0
 19 42  1  0  0  0  0
 20 21  2  0  0  0  0
 20 44  1  0  0  0  0
 21 23  1  0  0  0  0
 24 25  1  0  0  0  0
 24 26  1  0  0  0  0
 24 49  1  0  0  0  0
 25 50  1  0  0  0  0
 25 51  1  0  0  0  0
 25 52  1  0  0  0  0
M  END
> <PUBCHEM_COMPOUND_CID>
7049279

> <PUBCHEM_CONFORMER_RMSD>
1

> <PUBCHEM_CONFORMER_DIVERSEORDER>
1
122
105
14
81
68
82
99
97
104
118
119
103
6
45
26
98
19
18
95
37
115
112
44
109
57
123
41
34
2
77
102
4
85
76
93
106
72
94
53
86
10
89
50
17
39
46
87
7
16
8
69
90
78
63
55
61
58
108
27
91
96
75
22
21
33
43
20
65
100
62
117
48
80
71
3
42
101
73
29
54
11
70
110
107
64
56
88
113
49
25
111
38
35
60
52
114
51
92
23
116
74
36
121
84
28
83
59
47
24
13
12
5
31
32
120
30
67
66
9
15
79
40

> <PUBCHEM_MMFF94_PARTIAL_CHARGES>
28
1 -0.68
10 0.3
16 0.44
17 0.28
18 0.28
19 0.14
2 -0.68
20 -0.29
21 -0.12
22 0.69
23 0.62
24 0.36
26 0.57
3 -0.57
4 -0.57
43 0.37
44 0.15
45 0.37
46 0.4
47 0.4
48 0.37
5 -0.57
53 0.37
54 0.37
6 -0.73
7 -0.73
8 -0.73
9 -0.8

> <PUBCHEM_EFFECTIVE_ROTOR_COUNT>
10

> <PUBCHEM_PHARMACOPHORE_FEATURES>
13
1 1 acceptor
1 1 donor
1 2 acceptor
1 2 donor
1 3 acceptor
1 4 acceptor
1 5 acceptor
1 6 donor
1 7 donor
1 8 donor
1 9 donor
6 10 11 12 13 14 15 rings
6 16 17 18 19 20 21 rings

> <PUBCHEM_HEAVY_ATOM_COUNT>
26

> <PUBCHEM_ATOM_DEF_STEREO_COUNT>
4

> <PUBCHEM_ATOM_UDEF_STEREO_COUNT>
0

> <PUBCHEM_BOND_DEF_STEREO_COUNT>
0

> <PUBCHEM_BOND_UDEF_STEREO_COUNT>
0

> <PUBCHEM_ISOTOPIC_ATOM_COUNT>
0

> <PUBCHEM_COMPONENT_COUNT>
1

> <PUBCHEM_CACTVS_TAUTO_COUNT>
12

> <PUBCHEM_CONFORMER_ID>
006B903F00000001

> <PUBCHEM_MMFF94_ENERGY>
37.348

> <PUBCHEM_FEATURE_SELFOVERLAP>
66.032

> <PUBCHEM_SHAPE_FINGERPRINT>
10763959 59 18339923706295003822
10937287 8 18340763861922180834
11796584 16 9438868065488411530
12107183 9 18262222418504627506
12403259 118 18336251444690243202
12422481 6 17894620452957669332
12769317 202 18272362062141478169
13383661 66 11741259794209135789
13944108 23 18195254312872330596
14251764 38 18124877859376141105
14251764 75 18339650030684023281
14790565 3 18338801237814147756
14848178 96 18412824660021419201
15163728 17 18340501052556743239
16988056 13 18196656190302662222
17844677 252 18268997475815895667
17980427 26 18261377941239374342
20567600 9 18270975552388695348
21033648 29 16732970995606582079
21315764 268 17974850571755603037
21388113 180 18334576828483434157
23559900 14 18198902513733091939
245318 6 18335994137357512973
2838139 119 18200584899529905536
3388396 114 16539887223037090972
4058900 60 18336273396352313690
474 4 18412260618977843851
550186 72 18123185973147435599
57724786 102 18198071279095327905
6034566 193 18191881221261230109
633830 44 18413670218670514838

> <PUBCHEM_SHAPE_MULTIPOLES>
485.8
14.35
5.04
1.43
13.26
0.24
-0.14
-16.89
0.29
-5.74
-0.94
-0.05
-0.54
-0.62

> <PUBCHEM_SHAPE_SELFOVERLAP>
990.937

> <PUBCHEM_SHAPE_VOLUME>
276.5

> <PUBCHEM_COORDINATE_TYPE>
2
5
10

$$$$
