7134512
  -OEChem-12032416153D

 63 65  0     1  0  0  0  0  0999 V2000
   -2.5709    3.5401    2.5537 S   0  0  0  0  0  0  0  0  0  0  0  0
   -1.0499   -2.2137   -2.4981 O   0  0  0  0  0  0  0  0  0  0  0  0
   -4.9103   -1.9655   -0.1436 O   0  0  0  0  0  0  0  0  0  0  0  0
   -3.4851   -4.3893    0.3055 O   0  0  0  0  0  0  0  0  0  0  0  0
    1.4282   -2.3455   -1.9608 O   0  0  0  0  0  0  0  0  0  0  0  0
   -3.1971    1.8002   -1.7950 O   0  0  0  0  0  0  0  0  0  0  0  0
    1.8213   -3.9254    2.3325 O   0  0  0  0  0  0  0  0  0  0  0  0
    4.0441    3.4635   -1.7515 O   0  0  0  0  0  0  0  0  0  0  0  0
   -3.2968    0.4462    0.0881 N   0  0  0  0  0  0  0  0  0  0  0  0
    1.1232   -2.1651    0.3399 N   0  0  0  0  0  0  0  0  0  0  0  0
    3.8812   -4.1327    1.3375 N   0  0  0  0  0  0  0  0  0  0  0  0
   -0.7921   -2.1573   -1.1000 C   0  0  1  0  0  0  0  0  0  0  0  0
   -2.8508   -0.7718   -0.5524 C   0  0  1  0  0  0  0  0  0  0  0  0
   -1.3208   -0.8482   -0.5104 C   0  0  0  0  0  0  0  0  0  0  0  0
   -3.5018   -1.9966    0.1036 C   0  0  2  0  0  0  0  0  0  0  0  0
   -1.4327   -3.3681   -0.4247 C   0  0  0  0  0  0  0  0  0  0  0  0
   -2.9605   -3.3096   -0.4676 C   0  0  1  0  0  0  0  0  0  0  0  0
    0.7020   -2.2270   -0.9774 C   0  0  0  0  0  0  0  0  0  0  0  0
   -3.4323    1.6399   -0.5986 C   0  0  0  0  0  0  0  0  0  0  0  0
    2.5130   -2.2350    0.7296 C   0  0  1  0  0  0  0  0  0  0  0  0
    2.9567   -0.9998    1.5237 C   0  0  0  0  0  0  0  0  0  0  0  0
   -3.9299    2.7723    0.2782 C   0  0  0  0  0  0  0  0  0  0  0  0
    2.6803   -3.4947    1.5669 C   0  0  0  0  0  0  0  0  0  0  0  0
    3.2461    0.1883    0.6514 C   0  0  0  0  0  0  0  0  0  0  0  0
   -2.7496    3.4969    0.8629 C   0  0  0  0  0  0  0  0  0  0  0  0
    4.5301    0.3804    0.1566 C   0  0  0  0  0  0  0  0  0  0  0  0
    2.2265    1.0826    0.3495 C   0  0  0  0  0  0  0  0  0  0  0  0
   -1.7601    4.1532    0.1942 C   0  0  0  0  0  0  0  0  0  0  0  0
    4.7988    1.4844   -0.6527 C   0  0  0  0  0  0  0  0  0  0  0  0
    2.4952    2.1864   -0.4600 C   0  0  0  0  0  0  0  0  0  0  0  0
   -0.8128    4.7173    1.0966 C   0  0  0  0  0  0  0  0  0  0  0  0
    3.7813    2.3873   -0.9610 C   0  0  0  0  0  0  0  0  0  0  0  0
   -1.1331    4.4591    2.4113 C   0  0  0  0  0  0  0  0  0  0  0  0
    2.9585    4.3473   -2.0275 C   0  0  0  0  0  0  0  0  0  0  0  0
   -3.1761   -0.7228   -1.6001 H   0  0  0  0  0  0  0  0  0  0  0  0
   -0.9054    0.0044   -1.0652 H   0  0  0  0  0  0  0  0  0  0  0  0
   -0.9981   -0.7134    0.5296 H   0  0  0  0  0  0  0  0  0  0  0  0
   -3.3663   -1.9678    1.1925 H   0  0  0  0  0  0  0  0  0  0  0  0
   -1.1080   -4.2960   -0.9150 H   0  0  0  0  0  0  0  0  0  0  0  0
   -1.1195   -3.4706    0.6219 H   0  0  0  0  0  0  0  0  0  0  0  0
   -3.3112   -3.4531   -1.4971 H   0  0  0  0  0  0  0  0  0  0  0  0
   -3.4532    0.4312    1.0920 H   0  0  0  0  0  0  0  0  0  0  0  0
   -0.7307   -1.3878   -2.9005 H   0  0  0  0  0  0  0  0  0  0  0  0
   -5.3232   -2.6436    0.4171 H   0  0  0  0  0  0  0  0  0  0  0  0
   -4.4409   -4.4371    0.1357 H   0  0  0  0  0  0  0  0  0  0  0  0
    0.4427   -2.1102    1.0905 H   0  0  0  0  0  0  0  0  0  0  0  0
    3.1262   -2.3373   -0.1745 H   0  0  0  0  0  0  0  0  0  0  0  0
    2.1995   -0.7329    2.2739 H   0  0  0  0  0  0  0  0  0  0  0  0
    3.8594   -1.2322    2.1054 H   0  0  0  0  0  0  0  0  0  0  0  0
   -4.5171    3.4580   -0.3440 H   0  0  0  0  0  0  0  0  0  0  0  0
   -4.6072    2.3810    1.0461 H   0  0  0  0  0  0  0  0  0  0  0  0
    4.5816   -3.7673    0.7001 H   0  0  0  0  0  0  0  0  0  0  0  0
    4.1126   -4.9943    1.8206 H   0  0  0  0  0  0  0  0  0  0  0  0
    5.3293   -0.3181    0.3883 H   0  0  0  0  0  0  0  0  0  0  0  0
    1.2215    0.9368    0.7357 H   0  0  0  0  0  0  0  0  0  0  0  0
   -1.7009    4.2374   -0.8834 H   0  0  0  0  0  0  0  0  0  0  0  0
    5.8025    1.6350   -1.0408 H   0  0  0  0  0  0  0  0  0  0  0  0
    1.6589    2.8476   -0.6599 H   0  0  0  0  0  0  0  0  0  0  0  0
    0.0600    5.2826    0.7964 H   0  0  0  0  0  0  0  0  0  0  0  0
   -0.5910    4.7656    3.2947 H   0  0  0  0  0  0  0  0  0  0  0  0
    2.1632    3.8446   -2.5884 H   0  0  0  0  0  0  0  0  0  0  0  0
    3.3463    5.1459   -2.6682 H   0  0  0  0  0  0  0  0  0  0  0  0
    2.5846    4.8229   -1.1143 H   0  0  0  0  0  0  0  0  0  0  0  0
  1 25  1  0  0  0  0
  1 33  1  0  0  0  0
  2 12  1  0  0  0  0
  2 43  1  0  0  0  0
  3 15  1  0  0  0  0
  3 44  1  0  0  0  0
  4 17  1  0  0  0  0
  4 45  1  0  0  0  0
  5 18  2  0  0  0  0
  6 19  2  0  0  0  0
  7 23  2  0  0  0  0
  8 32  1  0  0  0  0
  8 34  1  0  0  0  0
  9 13  1  0  0  0  0
  9 19  1  0  0  0  0
  9 42  1  0  0  0  0
 10 18  1  0  0  0  0
 10 20  1  0  0  0  0
 10 46  1  0  0  0  0
 11 23  1  0  0  0  0
 11 52  1  0  0  0  0
 11 53  1  0  0  0  0
 12 14  1  0  0  0  0
 12 16  1  0  0  0  0
 12 18  1  0  0  0  0
 13 14  1  0  0  0  0
 13 15  1  0  0  0  0
 13 35  1  0  0  0  0
 14 36  1  0  0  0  0
 14 37  1  0  0  0  0
 15 17  1  0  0  0  0
 15 38  1  0  0  0  0
 16 17  1  0  0  0  0
 16 39  1  0  0  0  0
 16 40  1  0  0  0  0
 17 41  1  0  0  0  0
 19 22  1  0  0  0  0
 20 21  1  0  0  0  0
 20 23  1  0  0  0  0
 20 47  1  0  0  0  0
 21 24  1  0  0  0  0
 21 48  1  0  0  0  0
 21 49  1  0  0  0  0
 22 25  1  0  0  0  0
 22 50  1  0  0  0  0
 22 51  1  0  0  0  0
 24 26  2  0  0  0  0
 24 27  1  0  0  0  0
 25 28  2  0  0  0  0
 26 29  1  0  0  0  0
 26 54  1  0  0  0  0
 27 30  2  0  0  0  0
 27 55  1  0  0  0  0
 28 31  1  0  0  0  0
 28 56  1  0  0  0  0
 29 32  2  0  0  0  0
 29 57  1  0  0  0  0
 30 32  1  0  0  0  0
 30 58  1  0  0  0  0
 31 33  2  0  0  0  0
 31 59  1  0  0  0  0
 33 60  1  0  0  0  0
 34 61  1  0  0  0  0
 34 62  1  0  0  0  0
 34 63  1  0  0  0  0
M  END
> <PUBCHEM_COMPOUND_CID>
7134512

> <PUBCHEM_CONFORMER_RMSD>
1.2

> <PUBCHEM_CONFORMER_DIVERSEORDER>
1
136
34
169
17
70
20
212
234
214
108
213
57
139
94
224
91
73
89
130
18
84
241
140
184
228
201
52
133
243
29
12
208
99
217
86
77
39
226
82
45
114
120
223
240
54
40
147
185
68
236
159
85
22
177
221
154
145
193
81
101
174
67
55
105
74
229
25
210
8
117
238
79
220
186
230
63
207
202
125
95
128
126
165
103
60
129
209
152
233
116
142
132
196
109
75
41
219
153
190
104
180
19
237
162
216
148
206
176
179
5
158
131
181
88
134
21
146
203
173
4
197
59
61
11
46
215
204
100
211
32
122
218
183
182
43
124
14
168
187
231
111
16
113
127
56
121
26
35
242
72
10
189
38
115
65
135
172
42
71
144
163
123
119
28
23
112
44
48
66
64
151
200
30
222
83
138
76
150
102
36
157
37
171
178
149
170
69
199
156
31
107
13
2
164
188
80
87
137
92
58
9
205
175
192
118
6
225
90
97
235
143
166
161
27
47
155
93
198
110
194
195
15
62
50
96
141
191
232
227
7
78
24
167
3
49
160
53
239
106
51
33
98

> <PUBCHEM_MMFF94_PARTIAL_CHARGES>
46
1 -0.08
10 -0.73
11 -0.8
12 0.34
13 0.3
15 0.28
17 0.28
18 0.57
19 0.57
2 -0.68
20 0.36
21 0.14
22 0.24
23 0.57
24 -0.14
25 -0.14
26 -0.15
27 -0.15
28 -0.15
29 -0.15
3 -0.68
30 -0.15
31 -0.15
32 0.08
33 -0.11
34 0.28
4 -0.68
42 0.37
43 0.4
44 0.4
45 0.4
46 0.37
5 -0.57
52 0.37
53 0.37
54 0.15
55 0.15
56 0.15
57 0.15
58 0.15
59 0.15
6 -0.57
60 0.15
7 -0.57
8 -0.36
9 -0.73

> <PUBCHEM_EFFECTIVE_ROTOR_COUNT>
12.2

> <PUBCHEM_PHARMACOPHORE_FEATURES>
16
1 10 donor
1 11 donor
1 2 acceptor
1 2 donor
1 3 acceptor
1 3 donor
1 4 acceptor
1 4 donor
1 5 acceptor
1 6 acceptor
1 7 acceptor
1 8 acceptor
1 9 donor
5 1 25 28 31 33 rings
6 12 13 14 15 16 17 rings
6 24 26 27 29 30 32 rings

> <PUBCHEM_HEAVY_ATOM_COUNT>
34

> <PUBCHEM_ATOM_DEF_STEREO_COUNT>
5

> <PUBCHEM_ATOM_UDEF_STEREO_COUNT>
0

> <PUBCHEM_BOND_DEF_STEREO_COUNT>
0

> <PUBCHEM_BOND_UDEF_STEREO_COUNT>
0

> <PUBCHEM_ISOTOPIC_ATOM_COUNT>
0

> <PUBCHEM_COMPONENT_COUNT>
1

> <PUBCHEM_CACTVS_TAUTO_COUNT>
8

> <PUBCHEM_CONFORMER_ID>
006CDD3000000001

> <PUBCHEM_MMFF94_ENERGY>
83.2837

> <PUBCHEM_FEATURE_SELFOVERLAP>
81.228

> <PUBCHEM_SHAPE_FINGERPRINT>
10006869 2 18413385428622382807
10258939 38 15793674859223180687
11059048 146 18127141779080854104
11421498 54 18337954613986991226
11513181 2 17486763087428971926
12633257 1 17904757787114891591
12788726 201 18053119585719422692
12978246 48 17909548363677879769
15444296 121 18048882892539993890
15968369 26 16177061610033006541
19315092 285 16735481270557497235
19319366 153 18118963835158329660
20739085 24 17832989352119503404
20764821 26 17544194878952440212
21033650 10 18051160222129267052
3534868 343 18268688615669705887
437795 96 16102477720141364497
6371009 1 17836347269178370585

> <PUBCHEM_SHAPE_MULTIPOLES>
647.53
8.97
8.41
2.1
0.85
1.16
0.34
2.76
1.97
-1.58
-0.1
0.48
0.93
-5.17

> <PUBCHEM_SHAPE_SELFOVERLAP>
1354.097

> <PUBCHEM_SHAPE_VOLUME>
368.2

> <PUBCHEM_COORDINATE_TYPE>
2
5
10

$$$$
