40780647
  -OEChem-12032416293D

 58 61  0     1  0  0  0  0  0999 V2000
   -9.3689    1.1508   -0.5785 F   0  0  0  0  0  0  0  0  0  0  0  0
    3.0132    2.5224   -0.5678 O   0  0  0  0  0  0  0  0  0  0  0  0
    2.3531    0.7518    0.7781 N   0  0  0  0  0  0  0  0  0  0  0  0
   -4.1890   -0.7288   -0.1848 N   0  0  0  0  0  0  0  0  0  0  0  0
   -3.8917   -1.9618   -0.6293 N   0  0  0  0  0  0  0  0  0  0  0  0
    8.4668   -0.7798   -0.4509 N   0  0  0  0  0  0  0  0  0  0  0  0
   -0.6230   -0.6628    0.6509 C   0  0  2  0  0  0  0  0  0  0  0  0
    0.0205    0.5469   -0.0539 C   0  0  0  0  0  0  0  0  0  0  0  0
    0.9737    1.1835    0.9716 C   0  0  1  0  0  0  0  0  0  0  0  0
   -2.0512   -0.9121    0.2245 C   0  0  0  0  0  0  0  0  0  0  0  0
   -0.4529   -0.3129    2.1003 C   0  0  0  0  0  0  0  0  0  0  0  0
    0.4211    0.6848    2.2703 C   0  0  0  0  0  0  0  0  0  0  0  0
   -3.1214   -0.0582    0.3357 C   0  0  0  0  0  0  0  0  0  0  0  0
   -2.5844   -2.0681   -0.3767 C   0  0  0  0  0  0  0  0  0  0  0  0
   -3.2119    1.3111    0.8820 C   0  0  0  0  0  0  0  0  0  0  0  0
   -1.8763   -3.3103   -0.7330 C   0  0  0  0  0  0  0  0  0  0  0  0
    3.2662    1.4704    0.0134 C   0  0  0  0  0  0  0  0  0  0  0  0
   -5.4973   -0.2541   -0.2843 C   0  0  0  0  0  0  0  0  0  0  0  0
    4.6254    0.8831   -0.1076 C   0  0  0  0  0  0  0  0  0  0  0  0
   -5.7673    0.8967   -1.0249 C   0  0  0  0  0  0  0  0  0  0  0  0
   -6.5353   -0.9304    0.3568 C   0  0  0  0  0  0  0  0  0  0  0  0
    5.4077    1.1608   -1.2287 C   0  0  0  0  0  0  0  0  0  0  0  0
    5.1191    0.0533    0.8991 C   0  0  0  0  0  0  0  0  0  0  0  0
   -7.0750    1.3712   -1.1244 C   0  0  0  0  0  0  0  0  0  0  0  0
   -7.8431   -0.4559    0.2574 C   0  0  0  0  0  0  0  0  0  0  0  0
    7.1770   -0.2213   -0.3364 C   0  0  0  0  0  0  0  0  0  0  0  0
    6.6835    0.6087   -1.3431 C   0  0  0  0  0  0  0  0  0  0  0  0
    6.3948   -0.4990    0.7847 C   0  0  0  0  0  0  0  0  0  0  0  0
   -8.1129    0.6950   -0.4831 C   0  0  0  0  0  0  0  0  0  0  0  0
    9.2885   -0.4977   -1.6112 C   0  0  0  0  0  0  0  0  0  0  0  0
    8.9910   -1.6372    0.5937 C   0  0  0  0  0  0  0  0  0  0  0  0
   -0.0230   -1.5602    0.4517 H   0  0  0  0  0  0  0  0  0  0  0  0
    0.5339    0.2386   -0.9729 H   0  0  0  0  0  0  0  0  0  0  0  0
   -0.7270    1.2907   -0.3562 H   0  0  0  0  0  0  0  0  0  0  0  0
    0.9230    2.2757    0.9104 H   0  0  0  0  0  0  0  0  0  0  0  0
   -0.9443   -0.8305    2.9123 H   0  0  0  0  0  0  0  0  0  0  0  0
    0.7106    1.0776    3.2348 H   0  0  0  0  0  0  0  0  0  0  0  0
    2.6070   -0.1553    1.1556 H   0  0  0  0  0  0  0  0  0  0  0  0
   -3.1793    2.0510    0.0758 H   0  0  0  0  0  0  0  0  0  0  0  0
   -4.1347    1.4599    1.4526 H   0  0  0  0  0  0  0  0  0  0  0  0
   -2.3925    1.5400    1.5667 H   0  0  0  0  0  0  0  0  0  0  0  0
   -1.4477   -3.7775    0.1597 H   0  0  0  0  0  0  0  0  0  0  0  0
   -2.5436   -4.0401   -1.2038 H   0  0  0  0  0  0  0  0  0  0  0  0
   -1.0630   -3.1011   -1.4355 H   0  0  0  0  0  0  0  0  0  0  0  0
   -4.9759    1.4304   -1.5453 H   0  0  0  0  0  0  0  0  0  0  0  0
   -6.3425   -1.8264    0.9418 H   0  0  0  0  0  0  0  0  0  0  0  0
    5.0386    1.8012   -2.0255 H   0  0  0  0  0  0  0  0  0  0  0  0
    4.5544   -0.1630    1.8013 H   0  0  0  0  0  0  0  0  0  0  0  0
   -7.2863    2.2653   -1.7036 H   0  0  0  0  0  0  0  0  0  0  0  0
   -8.6514   -0.9814    0.7572 H   0  0  0  0  0  0  0  0  0  0  0  0
    7.2524    0.8541   -2.2344 H   0  0  0  0  0  0  0  0  0  0  0  0
    6.7359   -1.1327    1.5973 H   0  0  0  0  0  0  0  0  0  0  0  0
   10.2582   -1.0048   -1.5536 H   0  0  0  0  0  0  0  0  0  0  0  0
    9.5018    0.5738   -1.6940 H   0  0  0  0  0  0  0  0  0  0  0  0
    8.8082   -0.8491   -2.5313 H   0  0  0  0  0  0  0  0  0  0  0  0
   10.0014   -1.9901    0.3587 H   0  0  0  0  0  0  0  0  0  0  0  0
    8.3710   -2.5317    0.7202 H   0  0  0  0  0  0  0  0  0  0  0  0
    9.0625   -1.1016    1.5469 H   0  0  0  0  0  0  0  0  0  0  0  0
  1 29  1  0  0  0  0
  2 17  2  0  0  0  0
  3  9  1  0  0  0  0
  3 17  1  0  0  0  0
  3 38  1  0  0  0  0
  4  5  1  0  0  0  0
  4 13  1  0  0  0  0
  4 18  1  0  0  0  0
  5 14  2  0  0  0  0
  6 26  1  0  0  0  0
  6 30  1  0  0  0  0
  6 31  1  0  0  0  0
  7  8  1  0  0  0  0
  7 10  1  0  0  0  0
  7 11  1  0  0  0  0
  7 32  1  0  0  0  0
  8  9  1  0  0  0  0
  8 33  1  0  0  0  0
  8 34  1  0  0  0  0
  9 12  1  0  0  0  0
  9 35  1  0  0  0  0
 10 13  2  0  0  0  0
 10 14  1  0  0  0  0
 11 12  2  0  0  0  0
 11 36  1  0  0  0  0
 12 37  1  0  0  0  0
 13 15  1  0  0  0  0
 14 16  1  0  0  0  0
 15 39  1  0  0  0  0
 15 40  1  0  0  0  0
 15 41  1  0  0  0  0
 16 42  1  0  0  0  0
 16 43  1  0  0  0  0
 16 44  1  0  0  0  0
 17 19  1  0  0  0  0
 18 20  2  0  0  0  0
 18 21  1  0  0  0  0
 19 22  2  0  0  0  0
 19 23  1  0  0  0  0
 20 24  1  0  0  0  0
 20 45  1  0  0  0  0
 21 25  2  0  0  0  0
 21 46  1  0  0  0  0
 22 27  1  0  0  0  0
 22 47  1  0  0  0  0
 23 28  2  0  0  0  0
 23 48  1  0  0  0  0
 24 29  2  0  0  0  0
 24 49  1  0  0  0  0
 25 29  1  0  0  0  0
 25 50  1  0  0  0  0
 26 27  2  0  0  0  0
 26 28  1  0  0  0  0
 27 51  1  0  0  0  0
 28 52  1  0  0  0  0
 30 53  1  0  0  0  0
 30 54  1  0  0  0  0
 30 55  1  0  0  0  0
 31 56  1  0  0  0  0
 31 57  1  0  0  0  0
 31 58  1  0  0  0  0
M  END
> <PUBCHEM_COMPOUND_CID>
40780647

> <PUBCHEM_CONFORMER_RMSD>
0.8

> <PUBCHEM_CONFORMER_DIVERSEORDER>
1
28
36
34
2
39
17
9
19
11
32
23
26
15
29
31
13
7
12
37
38
21
4
16
10
33
40
3
20
22
8
6
25
30
5
18
27
35
14
24

> <PUBCHEM_MMFF94_PARTIAL_CHARGES>
41
1 -0.19
10 -0.18
11 -0.29
12 -0.29
13 -0.33
14 0.11
15 0.18
16 0.18
17 0.54
18 -0.02
19 0.09
2 -0.57
20 -0.15
21 -0.15
22 -0.15
23 -0.15
24 -0.15
25 -0.15
26 0.1
27 -0.15
28 -0.15
29 0.19
3 -0.73
30 0.37
31 0.37
36 0.15
37 0.15
38 0.37
4 0.59
45 0.15
46 0.15
47 0.15
48 0.15
49 0.15
5 -0.71
50 0.15
51 0.15
52 0.15
6 -0.84
7 0.32
9 0.44

> <PUBCHEM_EFFECTIVE_ROTOR_COUNT>
6.6

> <PUBCHEM_PHARMACOPHORE_FEATURES>
8
1 2 acceptor
1 3 donor
1 5 acceptor
1 6 cation
5 4 5 10 13 14 rings
5 7 8 9 11 12 rings
6 18 20 21 24 25 29 rings
6 19 22 23 26 27 28 rings

> <PUBCHEM_HEAVY_ATOM_COUNT>
31

> <PUBCHEM_ATOM_DEF_STEREO_COUNT>
2

> <PUBCHEM_ATOM_UDEF_STEREO_COUNT>
0

> <PUBCHEM_BOND_DEF_STEREO_COUNT>
0

> <PUBCHEM_BOND_UDEF_STEREO_COUNT>
0

> <PUBCHEM_ISOTOPIC_ATOM_COUNT>
0

> <PUBCHEM_COMPONENT_COUNT>
1

> <PUBCHEM_CACTVS_TAUTO_COUNT>
2

> <PUBCHEM_CONFORMER_ID>
026E436700000001

> <PUBCHEM_MMFF94_ENERGY>
100.5715

> <PUBCHEM_FEATURE_SELFOVERLAP>
40.597

> <PUBCHEM_SHAPE_FINGERPRINT>
10 15 10665225964604697772
10162869 55 12391504287236224904
10165383 225 18413106144421416679
10290309 65 12252441359311302728
10299344 5 17749106694759720676
10369192 42 15068336813207551482
10483366 6 18413670197079068497
106641 1 10809346633465005249
10670039 82 18343581812084027801
10674148 151 17967529086892536168
10930396 42 15697703836795541946
11135609 201 8862938348133062614
11408170 108 15841284666203556046
11724838 91 10952048962078860664
11796584 16 18129660928151094418
11828422 8 17054693826843520321
12202916 173 16271929315643715038
12559415 135 18342739585971397056
12643181 29 17418371419893175687
12664476 115 14129058136724609702
12758862 11 18130782395166248792
12758862 56 18342734152367788882
13177829 20 10735879469698989908
13782708 43 17415275311409244543
14117953 113 18343868810129601358
14294032 229 18190743025011485153
14849402 71 15936699258775563421
14856354 85 16515687779985072187
15183329 4 18411983563395691832
15188451 53 17274827944094511096
15230672 131 18410288129456818090
15326923 82 11095878264357362921
15392192 104 14201117912342777737
15444296 9 18410012100455441412
15706992 2 17023190393147609357
15728490 51 8862936178563246033
15773216 30 16661198136537001858
15849732 13 17894349995093682085
16992610 120 15574723478192231810
18608769 82 10953746616458596548
19309040 13 16446187739918575126
19611394 137 17678187182363792859
20105231 36 17968100841460447083
21033648 29 14779834940137412036
21365058 27 15936407845144166723
21781055 127 17917713436252980795
21792961 116 18343022199483108611
22224240 67 12391514183442339356
23559900 14 17845084254412369216
249057 3 18411417332203222788
3004659 81 18410011066212321472
335352 9 18341609330724291383
3383291 50 16988846098527217607
34797466 226 12901544624912167058
4149490 64 13685716408373803679
5028188 123 16877666802920792291
5085150 59 17918274251523506454
5381727 24 17917991703522116959
5758199 1 15285356219743948545
59682541 35 8502650402737378196
5969126 39 15339123420647534833
59755656 520 17095798910676454027
6081469 158 18272652321170158732
6126387 218 13973970887681591891
9689198 14 16877943841159024949

> <PUBCHEM_SHAPE_MULTIPOLES>
604.9
29.79
2.04
1.43
16.51
1.03
-0.41
1.18
10.9
-0.78
0.47
1.08
-0.21
-0.07

> <PUBCHEM_SHAPE_SELFOVERLAP>
1312.251

> <PUBCHEM_SHAPE_VOLUME>
335.3

> <PUBCHEM_COORDINATE_TYPE>
2
5
10

$$$$
