40780078
  -OEChem-12032416163D

 59 63  0     1  0  0  0  0  0999 V2000
    4.7497   -4.6209   -0.4419 S   0  0  0  0  0  0  0  0  0  0  0  0
   -8.4047   -1.3978    0.5590 F   0  0  0  0  0  0  0  0  0  0  0  0
   -6.8792   -1.5939    2.0959 F   0  0  0  0  0  0  0  0  0  0  0  0
   -7.7770    0.3409    1.7037 F   0  0  0  0  0  0  0  0  0  0  0  0
   -0.8398    1.9587   -0.2000 O   0  0  0  0  0  0  0  0  0  0  0  0
   -1.6939    1.1637   -2.1668 O   0  0  0  0  0  0  0  0  0  0  0  0
    2.4974    3.5746   -0.4938 N   0  0  2  0  0  0  0  0  0  0  0  0
    5.3801   -0.2103   -0.3851 N   0  0  0  0  0  0  0  0  0  0  0  0
    5.3872   -1.5496   -0.4959 N   0  0  0  0  0  0  0  0  0  0  0  0
   -2.8848    1.0182   -0.1566 N   0  0  0  0  0  0  0  0  0  0  0  0
    3.1494    2.2096    1.6263 C   0  0  2  0  0  0  0  0  0  0  0  0
    4.0178    1.7769    0.4127 C   0  0  2  0  0  0  0  0  0  0  0  0
    1.2779    3.0105    0.1424 C   0  0  2  0  0  0  0  0  0  0  0  0
    1.6571    2.0321    1.2748 C   0  0  0  0  0  0  0  0  0  0  0  0
    3.3907    3.7207    1.8302 C   0  0  0  0  0  0  0  0  0  0  0  0
    3.4383    2.4822   -0.8468 C   0  0  0  0  0  0  0  0  0  0  0  0
    3.1613    4.4548    0.4975 C   0  0  0  0  0  0  0  0  0  0  0  0
    4.2471    0.2893    0.1871 C   0  0  0  0  0  0  0  0  0  0  0  0
    0.3343    2.3664   -0.8755 C   0  0  0  0  0  0  0  0  0  0  0  0
    3.4581   -0.7988    0.4700 C   0  0  0  0  0  0  0  0  0  0  0  0
    4.2106   -1.9035    0.0281 C   0  0  0  0  0  0  0  0  0  0  0  0
    6.5186    0.5423   -0.8582 C   0  0  0  0  0  0  0  0  0  0  0  0
    3.7920   -3.3142    0.1126 C   0  0  0  0  0  0  0  0  0  0  0  0
   -1.8136    1.3523   -0.9624 C   0  0  0  0  0  0  0  0  0  0  0  0
    2.5936   -3.7399    0.6422 C   0  0  0  0  0  0  0  0  0  0  0  0
    2.4602   -5.1576    0.5923 C   0  0  0  0  0  0  0  0  0  0  0  0
    3.5614   -5.7613    0.0263 C   0  0  0  0  0  0  0  0  0  0  0  0
   -4.0906    0.3829   -0.5309 C   0  0  0  0  0  0  0  0  0  0  0  0
   -5.0692    0.1233    0.4285 C   0  0  0  0  0  0  0  0  0  0  0  0
   -4.3019    0.0156   -1.8598 C   0  0  0  0  0  0  0  0  0  0  0  0
   -6.2592   -0.5034    0.0590 C   0  0  0  0  0  0  0  0  0  0  0  0
   -5.4921   -0.6113   -2.2294 C   0  0  0  0  0  0  0  0  0  0  0  0
   -6.4708   -0.8708   -1.2700 C   0  0  0  0  0  0  0  0  0  0  0  0
   -7.3061   -0.7816    1.0843 C   0  0  0  0  0  0  0  0  0  0  0  0
    3.4079    1.6461    2.5290 H   0  0  0  0  0  0  0  0  0  0  0  0
    5.0129    2.2075    0.6002 H   0  0  0  0  0  0  0  0  0  0  0  0
    0.7108    3.8374    0.5952 H   0  0  0  0  0  0  0  0  0  0  0  0
    1.4311    1.0013    0.9989 H   0  0  0  0  0  0  0  0  0  0  0  0
    1.0490    2.2561    2.1607 H   0  0  0  0  0  0  0  0  0  0  0  0
    4.4125    3.9014    2.1838 H   0  0  0  0  0  0  0  0  0  0  0  0
    2.7090    4.1070    2.5977 H   0  0  0  0  0  0  0  0  0  0  0  0
    4.2648    2.9061   -1.4323 H   0  0  0  0  0  0  0  0  0  0  0  0
    2.9572    1.7674   -1.5243 H   0  0  0  0  0  0  0  0  0  0  0  0
    2.5544    5.3528    0.6665 H   0  0  0  0  0  0  0  0  0  0  0  0
    4.1153    4.8168    0.0933 H   0  0  0  0  0  0  0  0  0  0  0  0
    0.7936    1.4928   -1.3510 H   0  0  0  0  0  0  0  0  0  0  0  0
    0.0726    3.0949   -1.6526 H   0  0  0  0  0  0  0  0  0  0  0  0
    2.4868   -0.8031    0.9382 H   0  0  0  0  0  0  0  0  0  0  0  0
    7.0083    1.0054    0.0018 H   0  0  0  0  0  0  0  0  0  0  0  0
    7.2174   -0.1324   -1.3604 H   0  0  0  0  0  0  0  0  0  0  0  0
    6.1721    1.2981   -1.5663 H   0  0  0  0  0  0  0  0  0  0  0  0
    1.8324   -3.0879    1.0519 H   0  0  0  0  0  0  0  0  0  0  0  0
   -2.7984    1.2578    0.8281 H   0  0  0  0  0  0  0  0  0  0  0  0
    1.6002   -5.7067    0.9530 H   0  0  0  0  0  0  0  0  0  0  0  0
    3.7249   -6.8176   -0.1347 H   0  0  0  0  0  0  0  0  0  0  0  0
   -4.9079    0.4083    1.4658 H   0  0  0  0  0  0  0  0  0  0  0  0
   -3.5910    0.1838   -2.6567 H   0  0  0  0  0  0  0  0  0  0  0  0
   -5.6576   -0.8977   -3.2639 H   0  0  0  0  0  0  0  0  0  0  0  0
   -7.3904   -1.3599   -1.5786 H   0  0  0  0  0  0  0  0  0  0  0  0
  1 23  1  0  0  0  0
  1 27  1  0  0  0  0
  2 34  1  0  0  0  0
  3 34  1  0  0  0  0
  4 34  1  0  0  0  0
  5 19  1  0  0  0  0
  5 24  1  0  0  0  0
  6 24  2  0  0  0  0
  7 13  1  0  0  0  0
  7 16  1  0  0  0  0
  7 17  1  0  0  0  0
  8  9  1  0  0  0  0
  8 18  1  0  0  0  0
  8 22  1  0  0  0  0
  9 21  2  0  0  0  0
 10 24  1  0  0  0  0
 10 28  1  0  0  0  0
 10 53  1  0  0  0  0
 11 12  1  0  0  0  0
 11 14  1  0  0  0  0
 11 15  1  0  0  0  0
 11 35  1  0  0  0  0
 12 16  1  0  0  0  0
 12 18  1  0  0  0  0
 12 36  1  0  0  0  0
 13 14  1  0  0  0  0
 13 19  1  0  0  0  0
 13 37  1  0  0  0  0
 14 38  1  0  0  0  0
 14 39  1  0  0  0  0
 15 17  1  0  0  0  0
 15 40  1  0  0  0  0
 15 41  1  0  0  0  0
 16 42  1  0  0  0  0
 16 43  1  0  0  0  0
 17 44  1  0  0  0  0
 17 45  1  0  0  0  0
 18 20  2  0  0  0  0
 19 46  1  0  0  0  0
 19 47  1  0  0  0  0
 20 21  1  0  0  0  0
 20 48  1  0  0  0  0
 21 23  1  0  0  0  0
 22 49  1  0  0  0  0
 22 50  1  0  0  0  0
 22 51  1  0  0  0  0
 23 25  2  0  0  0  0
 25 26  1  0  0  0  0
 25 52  1  0  0  0  0
 26 27  2  0  0  0  0
 26 54  1  0  0  0  0
 27 55  1  0  0  0  0
 28 29  1  0  0  0  0
 28 30  2  0  0  0  0
 29 31  2  0  0  0  0
 29 56  1  0  0  0  0
 30 32  1  0  0  0  0
 30 57  1  0  0  0  0
 31 33  1  0  0  0  0
 31 34  1  0  0  0  0
 32 33  2  0  0  0  0
 32 58  1  0  0  0  0
 33 59  1  0  0  0  0
M  END
> <PUBCHEM_COMPOUND_CID>
40780078

> <PUBCHEM_CONFORMER_RMSD>
1.2

> <PUBCHEM_CONFORMER_DIVERSEORDER>
1
51
14
118
17
40
64
116
106
55
127
141
130
49
44
8
74
110
144
59
125
139
88
101
12
83
16
105
42
71
5
69
50
128
108
4
70
35
131
63
13
82
2
142
18
100
46
31
23
115
129
65
85
126
28
47
34
15
43
78
138
21
121
90
96
76
68
136
39
3
81
61
11
67
33
6
25
45
72
99
66
86
54
87
7
9
10
37
124
137
120
32
58
27
95
117
26
73
75
53
109
30
135
60
122
38
132
36
143
104
48
56
89
24
112
94
22
107
111
29
20
123
52
62
57
79
114
80
133
41
97
102
91
84
19
92
113
140
134
119
93
103
98
77

> <PUBCHEM_MMFF94_PARTIAL_CHARGES>
40
1 -0.08
10 -0.55
12 0.18
13 0.27
16 0.27
17 0.27
18 -0.33
19 0.28
2 -0.34
20 -0.15
21 0.29
22 0.26
23 0.04
24 0.78
25 -0.15
26 -0.15
27 -0.11
28 0.12
29 -0.15
3 -0.34
30 -0.15
31 -0.14
32 -0.15
33 -0.15
34 1.16
4 -0.34
48 0.15
5 -0.43
52 0.15
53 0.37
54 0.15
55 0.15
56 0.15
57 0.15
58 0.15
59 0.15
6 -0.57
7 -0.81
8 0.31
9 -0.71

> <PUBCHEM_EFFECTIVE_ROTOR_COUNT>
9.2

> <PUBCHEM_PHARMACOPHORE_FEATURES>
8
1 10 donor
1 6 acceptor
1 7 cation
1 9 acceptor
5 1 23 25 26 27 rings
5 8 9 18 20 21 rings
6 28 29 30 31 32 33 rings
8 7 11 12 13 14 15 16 17 rings

> <PUBCHEM_HEAVY_ATOM_COUNT>
34

> <PUBCHEM_ATOM_DEF_STEREO_COUNT>
3

> <PUBCHEM_ATOM_UDEF_STEREO_COUNT>
0

> <PUBCHEM_BOND_DEF_STEREO_COUNT>
0

> <PUBCHEM_BOND_UDEF_STEREO_COUNT>
0

> <PUBCHEM_ISOTOPIC_ATOM_COUNT>
0

> <PUBCHEM_COMPONENT_COUNT>
1

> <PUBCHEM_CACTVS_TAUTO_COUNT>
2

> <PUBCHEM_CONFORMER_ID>
026E412E00000001

> <PUBCHEM_MMFF94_ENERGY>
72.6211

> <PUBCHEM_FEATURE_SELFOVERLAP>
40.597

> <PUBCHEM_SHAPE_FINGERPRINT>
10075450 59 17771356270922763551
10319688 140 18409166615153832372
10622 236 18128251186207532219
10838868 229 18264209102856123409
11014199 57 17762896564212804246
117089 54 18195248810845352414
11828042 200 17834689197445576078
12107183 9 17985552156857034777
12522641 24 18272653476237085697
12841400 136 18119241770972154087
13008946 62 16885571363474814357
13383668 40 18335137533028452647
13533116 47 18343020042476433809
13553639 21 18262232227668015795
1361 2 18410569613196789634
15219648 89 17129318450245831155
15467298 65 18057308690941593199
15475509 35 18410576188517445757
15483637 11 17976538639452219222
15776043 110 18131360691596714657
19301676 85 17473811832955258071
19319366 153 18128241479993289276
20156587 191 18044084667510443421
20775530 9 18054776300939774494
22033318 11 17843986762067848377
23569914 152 17473784409731569997
25222932 49 18271236137240240174
2835820 90 17677351484164472811
3178227 256 18411981382216742184
345986 75 17774996843588310224
34797466 226 16878224281186410973
3991529 202 18194699085923716251
404807 78 17822869679099806762
44344687 77 18189065226575892883
4435113 14 17750531718186646739
46194498 28 17821443582496125788
5309563 4 18268986484730834798
6201460 15 17688593762878190278
6422251 121 18190173490861980483
6441014 3 17834390116516404851
6700243 42 16878497930552652591
86090 222 17968099719919997339
9831232 110 18334295362244059165

> <PUBCHEM_SHAPE_MULTIPOLES>
650.07
20.26
7.06
1.63
46.87
7.04
-0.04
11.68
2.62
-16.37
1.58
2.49
-0.46
1.41

> <PUBCHEM_SHAPE_SELFOVERLAP>
1401.261

> <PUBCHEM_SHAPE_VOLUME>
364.3

> <PUBCHEM_COORDINATE_TYPE>
2
5
10

$$$$
