28963143
  -OEChem-12032416283D

 69 70  0     1  0  0  0  0  0999 V2000
   -0.7612   -1.7894   -0.7767 O   0  0  0  0  0  0  0  0  0  0  0  0
   -5.0699    1.2182   -0.6431 O   0  0  0  0  0  0  0  0  0  0  0  0
    5.4828   -0.1860    1.6279 O   0  0  0  0  0  0  0  0  0  0  0  0
    4.3282    0.0213   -0.3751 N   0  0  0  0  0  0  0  0  0  0  0  0
   -5.1804   -0.7669    0.5406 N   0  0  0  0  0  0  0  0  0  0  0  0
    6.5727   -0.4592   -0.4021 N   0  0  0  0  0  0  0  0  0  0  0  0
    0.4078    1.7549    0.0278 C   0  0  1  0  0  0  0  0  0  0  0  0
    0.4848    0.1981   -0.1114 C   0  0  2  0  0  0  0  0  0  0  0  0
    1.8765   -0.2432   -0.6912 C   0  0  1  0  0  0  0  0  0  0  0  0
   -0.7590   -0.3634   -0.8587 C   0  0  2  0  0  0  0  0  0  0  0  0
   -0.9267    2.1470    0.7048 C   0  0  0  0  0  0  0  0  0  0  0  0
   -2.0920    0.1171   -0.2391 C   0  0  1  0  0  0  0  0  0  0  0  0
    1.5583    2.2370    0.9413 C   0  0  0  0  0  0  0  0  0  0  0  0
    3.0286    0.3106    0.1937 C   0  0  2  0  0  0  0  0  0  0  0  0
   -2.1478    1.6324   -0.0459 C   0  0  0  0  0  0  0  0  0  0  0  0
    2.9334    1.8156    0.4433 C   0  0  0  0  0  0  0  0  0  0  0  0
    0.5040    2.4789   -1.3391 C   0  0  0  0  0  0  0  0  0  0  0  0
   -3.3006   -0.3389   -1.0657 C   0  0  2  0  0  0  0  0  0  0  0  0
    2.0316   -1.7673   -0.8276 C   0  0  0  0  0  0  0  0  0  0  0  0
   -3.1991    0.2387   -2.4784 C   0  0  0  0  0  0  0  0  0  0  0  0
   -4.5948    0.1076   -0.3810 C   0  0  0  0  0  0  0  0  0  0  0  0
    5.4615   -0.2055    0.3980 C   0  0  0  0  0  0  0  0  0  0  0  0
   -6.4026   -0.3625    1.2271 C   0  0  0  0  0  0  0  0  0  0  0  0
   -4.7045   -2.1064    0.8804 C   0  0  0  0  0  0  0  0  0  0  0  0
    7.8831   -0.7285    0.1413 C   0  0  0  0  0  0  0  0  0  0  0  0
   -6.0976    0.3641    2.5206 C   0  0  0  0  0  0  0  0  0  0  0  0
   -5.3242   -3.1589   -0.0155 C   0  0  0  0  0  0  0  0  0  0  0  0
    8.0070   -2.1655    0.6039 C   0  0  0  0  0  0  0  0  0  0  0  0
    0.4444   -0.2257    0.9050 H   0  0  0  0  0  0  0  0  0  0  0  0
    1.9849    0.1664   -1.7034 H   0  0  0  0  0  0  0  0  0  0  0  0
   -0.6632   -0.0990   -1.9132 H   0  0  0  0  0  0  0  0  0  0  0  0
   -0.9979    3.2381    0.8014 H   0  0  0  0  0  0  0  0  0  0  0  0
   -0.9523    1.7479    1.7279 H   0  0  0  0  0  0  0  0  0  0  0  0
   -2.1784   -0.3372    0.7583 H   0  0  0  0  0  0  0  0  0  0  0  0
    1.4187    1.8347    1.9537 H   0  0  0  0  0  0  0  0  0  0  0  0
    1.5330    3.3297    1.0399 H   0  0  0  0  0  0  0  0  0  0  0  0
    2.9762   -0.1918    1.1695 H   0  0  0  0  0  0  0  0  0  0  0  0
   -3.0198    1.9139    0.5549 H   0  0  0  0  0  0  0  0  0  0  0  0
   -2.2280    2.1854   -0.9832 H   0  0  0  0  0  0  0  0  0  0  0  0
    3.1888    2.3672   -0.4697 H   0  0  0  0  0  0  0  0  0  0  0  0
    3.6851    2.1173    1.1842 H   0  0  0  0  0  0  0  0  0  0  0  0
    1.4588    2.3092   -1.8431 H   0  0  0  0  0  0  0  0  0  0  0  0
    0.4009    3.5626   -1.2088 H   0  0  0  0  0  0  0  0  0  0  0  0
   -0.2752    2.1606   -2.0372 H   0  0  0  0  0  0  0  0  0  0  0  0
   -3.3015   -1.4259   -1.1792 H   0  0  0  0  0  0  0  0  0  0  0  0
    1.7748   -2.2782    0.1060 H   0  0  0  0  0  0  0  0  0  0  0  0
    3.0555   -2.0525   -1.0904 H   0  0  0  0  0  0  0  0  0  0  0  0
    1.4049   -2.1572   -1.6345 H   0  0  0  0  0  0  0  0  0  0  0  0
    4.4335    0.0629   -1.3843 H   0  0  0  0  0  0  0  0  0  0  0  0
   -0.7980   -2.0380    0.1627 H   0  0  0  0  0  0  0  0  0  0  0  0
   -3.1696    1.3289   -2.5286 H   0  0  0  0  0  0  0  0  0  0  0  0
   -4.0972   -0.0502   -3.0406 H   0  0  0  0  0  0  0  0  0  0  0  0
   -2.3578   -0.1663   -3.0457 H   0  0  0  0  0  0  0  0  0  0  0  0
    6.4569   -0.4677   -1.4107 H   0  0  0  0  0  0  0  0  0  0  0  0
   -7.0277   -1.2418    1.4174 H   0  0  0  0  0  0  0  0  0  0  0  0
   -6.9791    0.3024    0.5740 H   0  0  0  0  0  0  0  0  0  0  0  0
   -4.9401   -2.3151    1.9303 H   0  0  0  0  0  0  0  0  0  0  0  0
   -3.6162   -2.1511    0.7960 H   0  0  0  0  0  0  0  0  0  0  0  0
    8.6148   -0.5165   -0.6443 H   0  0  0  0  0  0  0  0  0  0  0  0
    8.0664   -0.0464    0.9782 H   0  0  0  0  0  0  0  0  0  0  0  0
   -5.5389   -0.2741    3.2127 H   0  0  0  0  0  0  0  0  0  0  0  0
   -5.4963    1.2610    2.3380 H   0  0  0  0  0  0  0  0  0  0  0  0
   -7.0253    0.6704    3.0138 H   0  0  0  0  0  0  0  0  0  0  0  0
   -6.4134   -3.1817    0.0922 H   0  0  0  0  0  0  0  0  0  0  0  0
   -5.1021   -2.9698   -1.0705 H   0  0  0  0  0  0  0  0  0  0  0  0
   -4.9389   -4.1506    0.2411 H   0  0  0  0  0  0  0  0  0  0  0  0
    7.8177   -2.8600   -0.2215 H   0  0  0  0  0  0  0  0  0  0  0  0
    9.0134   -2.3569    0.9886 H   0  0  0  0  0  0  0  0  0  0  0  0
    7.2896   -2.3921    1.3994 H   0  0  0  0  0  0  0  0  0  0  0  0
  1 10  1  0  0  0  0
  1 50  1  0  0  0  0
  2 21  2  0  0  0  0
  3 22  2  0  0  0  0
  4 14  1  0  0  0  0
  4 22  1  0  0  0  0
  4 49  1  0  0  0  0
  5 21  1  0  0  0  0
  5 23  1  0  0  0  0
  5 24  1  0  0  0  0
  6 22  1  0  0  0  0
  6 25  1  0  0  0  0
  6 54  1  0  0  0  0
  7  8  1  0  0  0  0
  7 11  1  0  0  0  0
  7 13  1  0  0  0  0
  7 17  1  0  0  0  0
  8  9  1  0  0  0  0
  8 10  1  0  0  0  0
  8 29  1  0  0  0  0
  9 14  1  0  0  0  0
  9 19  1  0  0  0  0
  9 30  1  0  0  0  0
 10 12  1  0  0  0  0
 10 31  1  0  0  0  0
 11 15  1  0  0  0  0
 11 32  1  0  0  0  0
 11 33  1  0  0  0  0
 12 15  1  0  0  0  0
 12 18  1  0  0  0  0
 12 34  1  0  0  0  0
 13 16  1  0  0  0  0
 13 35  1  0  0  0  0
 13 36  1  0  0  0  0
 14 16  1  0  0  0  0
 14 37  1  0  0  0  0
 15 38  1  0  0  0  0
 15 39  1  0  0  0  0
 16 40  1  0  0  0  0
 16 41  1  0  0  0  0
 17 42  1  0  0  0  0
 17 43  1  0  0  0  0
 17 44  1  0  0  0  0
 18 20  1  0  0  0  0
 18 21  1  0  0  0  0
 18 45  1  0  0  0  0
 19 46  1  0  0  0  0
 19 47  1  0  0  0  0
 19 48  1  0  0  0  0
 20 51  1  0  0  0  0
 20 52  1  0  0  0  0
 20 53  1  0  0  0  0
 23 26  1  0  0  0  0
 23 55  1  0  0  0  0
 23 56  1  0  0  0  0
 24 27  1  0  0  0  0
 24 57  1  0  0  0  0
 24 58  1  0  0  0  0
 25 28  1  0  0  0  0
 25 59  1  0  0  0  0
 25 60  1  0  0  0  0
 26 61  1  0  0  0  0
 26 62  1  0  0  0  0
 26 63  1  0  0  0  0
 27 64  1  0  0  0  0
 27 65  1  0  0  0  0
 27 66  1  0  0  0  0
 28 67  1  0  0  0  0
 28 68  1  0  0  0  0
 28 69  1  0  0  0  0
M  END
> <PUBCHEM_COMPOUND_CID>
28963143

> <PUBCHEM_CONFORMER_RMSD>
1

> <PUBCHEM_CONFORMER_DIVERSEORDER>
1
55
64
44
40
62
38
34
31
15
4
52
39
49
3
48
24
12
51
29
20
16
57
53
33
23
61
41
5
13
59
54
60
18
9
36
2
19
7
37
32
45
17
27
50
28
11
8
14
26
43
56
47
21
46
10
6
63
42
30
25
58
35
22

> <PUBCHEM_MMFF94_PARTIAL_CHARGES>
17
1 -0.68
10 0.28
14 0.3
18 0.06
2 -0.57
21 0.57
22 0.69
23 0.3
24 0.3
25 0.3
3 -0.57
4 -0.73
49 0.37
5 -0.66
50 0.4
54 0.37
6 -0.73

> <PUBCHEM_EFFECTIVE_ROTOR_COUNT>
10.6

> <PUBCHEM_PHARMACOPHORE_FEATURES>
9
1 1 acceptor
1 1 donor
1 2 acceptor
1 20 hydrophobe
1 3 acceptor
1 4 donor
1 6 donor
6 7 8 10 11 12 15 rings
6 7 8 9 13 14 16 rings

> <PUBCHEM_HEAVY_ATOM_COUNT>
28

> <PUBCHEM_ATOM_DEF_STEREO_COUNT>
7

> <PUBCHEM_ATOM_UDEF_STEREO_COUNT>
0

> <PUBCHEM_BOND_DEF_STEREO_COUNT>
0

> <PUBCHEM_BOND_UDEF_STEREO_COUNT>
0

> <PUBCHEM_ISOTOPIC_ATOM_COUNT>
0

> <PUBCHEM_COMPONENT_COUNT>
1

> <PUBCHEM_CACTVS_TAUTO_COUNT>
3

> <PUBCHEM_CONFORMER_ID>
01B9F14700000001

> <PUBCHEM_MMFF94_ENERGY>
68.097

> <PUBCHEM_FEATURE_SELFOVERLAP>
45.737

> <PUBCHEM_SHAPE_FINGERPRINT>
10906281 52 17916876827952148436
11646440 116 17775286067149811128
11963148 33 18335975416133769746
12166972 35 17603871122016463700
12236239 1 18040998432501405404
12422481 6 17704081698118839725
12616971 3 17703505592517456540
13140716 1 18128250297259993406
13668630 136 17676207936442192682
13673619 4 17821449084132635109
13685833 64 18411136940148958592
13782708 43 17822003250550797570
13862211 1 18272642455303245374
14420673 8 18408323302451646003
14849402 71 17987517198636374208
14955137 171 18340205296919593056
15131766 46 13900183848106044498
15183329 4 14129057011037229880
17980427 23 14045742677131081345
18681886 176 13695874774179298789
21150785 3 13840270294965652562
21267235 1 18412829067195876348
21792961 116 18115017507247322268
22122407 14 13326284953094527466
23522609 53 18121812605267260909
23559900 14 18335131016387040941
23569914 152 12185122617497549523
2838139 119 9079115544444766882
3178227 256 18341336651935652482
335352 9 18272363174606813580
3383291 50 18410006646407047098
392239 28 18411706504125396499
465052 167 18409449202743155638
5104073 3 18129940216535453049
59755656 215 18201435832121650390
636775 8 18339369579080504806
7495541 125 18040715908714170788
999808 66 18260834795247480826

> <PUBCHEM_SHAPE_MULTIPOLES>
543.68
18.52
2.58
1.55
21.41
0.4
-0.06
12.27
-7.41
-0.75
-0.11
-2.15
-0.21
0.09

> <PUBCHEM_SHAPE_SELFOVERLAP>
1089.669

> <PUBCHEM_SHAPE_VOLUME>
317.4

> <PUBCHEM_COORDINATE_TYPE>
2
5
10

$$$$
