56774179
  -OEChem-12032416393D

 60 63  0     1  0  0  0  0  0999 V2000
   -5.0910    0.0157    1.4853 O   0  0  0  0  0  0  0  0  0  0  0  0
    3.4513    2.2946   -0.0984 O   0  0  0  0  0  0  0  0  0  0  0  0
   -3.2118   -0.7975    0.4113 N   0  0  0  0  0  0  0  0  0  0  0  0
    2.1908    2.8412    0.1092 N   0  0  0  0  0  0  0  0  0  0  0  0
   -2.3464    1.5994    0.4930 C   0  0  0  0  0  0  0  0  0  0  0  0
   -0.8041    1.6238    0.5326 C   0  0  1  0  0  0  0  0  0  0  0  0
   -2.2603    0.1479    1.0089 C   0  0  2  0  0  0  0  0  0  0  0  0
   -0.8524    0.0891    0.3804 C   0  0  0  0  0  0  0  0  0  0  0  0
   -0.0833    2.3620   -0.6033 C   0  0  0  0  0  0  0  0  0  0  0  0
   -2.9909    2.6023    1.4243 C   0  0  0  0  0  0  0  0  0  0  0  0
   -2.9728    1.6951   -0.8861 C   0  0  0  0  0  0  0  0  0  0  0  0
   -5.3585   -1.8765   -0.0482 C   0  0  0  0  0  0  0  0  0  0  0  0
   -4.5727   -0.7865    0.7030 C   0  0  0  0  0  0  0  0  0  0  0  0
    1.3590    2.0693   -0.5960 C   0  0  0  0  0  0  0  0  0  0  0  0
   -5.5092   -1.7185   -1.5755 C   0  0  0  0  0  0  0  0  0  0  0  0
   -6.8985   -1.8235    0.0321 C   0  0  0  0  0  0  0  0  0  0  0  0
   -6.9154   -2.3351   -1.4235 C   0  0  0  0  0  0  0  0  0  0  0  0
    2.0310    1.0302   -1.2626 C   0  0  0  0  0  0  0  0  0  0  0  0
    4.7097   -0.7984   -0.4450 C   0  0  0  0  0  0  0  0  0  0  0  0
    4.6209    0.4962   -1.2508 C   0  0  0  0  0  0  0  0  0  0  0  0
    3.3432    1.2168   -0.9169 C   0  0  0  0  0  0  0  0  0  0  0  0
    5.1440   -0.5097    0.9983 C   0  0  0  0  0  0  0  0  0  0  0  0
    5.6696   -1.7899   -1.1165 C   0  0  0  0  0  0  0  0  0  0  0  0
    5.2918   -1.7945    1.8102 C   0  0  0  0  0  0  0  0  0  0  0  0
    5.8163   -3.0726   -0.3010 C   0  0  0  0  0  0  0  0  0  0  0  0
    6.2397   -2.7810    1.1353 C   0  0  0  0  0  0  0  0  0  0  0  0
   -0.4090    1.9269    1.5147 H   0  0  0  0  0  0  0  0  0  0  0  0
   -2.2368    0.0556    2.1028 H   0  0  0  0  0  0  0  0  0  0  0  0
   -0.8214   -0.2813   -0.6515 H   0  0  0  0  0  0  0  0  0  0  0  0
   -0.1072   -0.4604    0.9637 H   0  0  0  0  0  0  0  0  0  0  0  0
   -0.4856    2.0809   -1.5834 H   0  0  0  0  0  0  0  0  0  0  0  0
   -0.2533    3.4408   -0.4984 H   0  0  0  0  0  0  0  0  0  0  0  0
   -4.0753    2.4639    1.4803 H   0  0  0  0  0  0  0  0  0  0  0  0
   -2.8054    3.6283    1.0870 H   0  0  0  0  0  0  0  0  0  0  0  0
   -2.5989    2.5179    2.4440 H   0  0  0  0  0  0  0  0  0  0  0  0
   -4.0570    1.5394   -0.8478 H   0  0  0  0  0  0  0  0  0  0  0  0
   -2.5666    0.9716   -1.6013 H   0  0  0  0  0  0  0  0  0  0  0  0
   -2.8222    2.6928   -1.3154 H   0  0  0  0  0  0  0  0  0  0  0  0
   -2.8787   -1.5017   -0.2430 H   0  0  0  0  0  0  0  0  0  0  0  0
   -4.9838   -2.8761    0.2221 H   0  0  0  0  0  0  0  0  0  0  0  0
   -4.8079   -2.2943   -2.1851 H   0  0  0  0  0  0  0  0  0  0  0  0
   -5.5167   -0.6797   -1.9258 H   0  0  0  0  0  0  0  0  0  0  0  0
   -7.3197   -0.8179    0.1467 H   0  0  0  0  0  0  0  0  0  0  0  0
   -7.3596   -2.4877    0.7678 H   0  0  0  0  0  0  0  0  0  0  0  0
   -6.9306   -3.4278   -1.5081 H   0  0  0  0  0  0  0  0  0  0  0  0
   -7.6918   -1.9150   -2.0673 H   0  0  0  0  0  0  0  0  0  0  0  0
    3.7216   -1.2800   -0.4127 H   0  0  0  0  0  0  0  0  0  0  0  0
    1.6249    0.2586   -1.9000 H   0  0  0  0  0  0  0  0  0  0  0  0
    4.6054    0.2774   -2.3259 H   0  0  0  0  0  0  0  0  0  0  0  0
    5.4868    1.1437   -1.0699 H   0  0  0  0  0  0  0  0  0  0  0  0
    6.1012    0.0275    1.0015 H   0  0  0  0  0  0  0  0  0  0  0  0
    4.4144    0.1384    1.4974 H   0  0  0  0  0  0  0  0  0  0  0  0
    5.3071   -2.0426   -2.1201 H   0  0  0  0  0  0  0  0  0  0  0  0
    6.6564   -1.3259   -1.2417 H   0  0  0  0  0  0  0  0  0  0  0  0
    4.3073   -2.2616    1.9362 H   0  0  0  0  0  0  0  0  0  0  0  0
    5.6623   -1.5556    2.8135 H   0  0  0  0  0  0  0  0  0  0  0  0
    6.5541   -3.7287   -0.7764 H   0  0  0  0  0  0  0  0  0  0  0  0
    4.8623   -3.6141   -0.2978 H   0  0  0  0  0  0  0  0  0  0  0  0
    6.2695   -3.7147    1.7080 H   0  0  0  0  0  0  0  0  0  0  0  0
    7.2569   -2.3705    1.1396 H   0  0  0  0  0  0  0  0  0  0  0  0
  1 13  2  0  0  0  0
  2  4  1  0  0  0  0
  2 21  1  0  0  0  0
  3  7  1  0  0  0  0
  3 13  1  0  0  0  0
  3 39  1  0  0  0  0
  4 14  2  0  0  0  0
  5  6  1  0  0  0  0
  5  7  1  0  0  0  0
  5 10  1  0  0  0  0
  5 11  1  0  0  0  0
  6  8  1  0  0  0  0
  6  9  1  0  0  0  0
  6 27  1  0  0  0  0
  7  8  1  0  0  0  0
  7 28  1  0  0  0  0
  8 29  1  0  0  0  0
  8 30  1  0  0  0  0
  9 14  1  0  0  0  0
  9 31  1  0  0  0  0
  9 32  1  0  0  0  0
 10 33  1  0  0  0  0
 10 34  1  0  0  0  0
 10 35  1  0  0  0  0
 11 36  1  0  0  0  0
 11 37  1  0  0  0  0
 11 38  1  0  0  0  0
 12 13  1  0  0  0  0
 12 15  1  0  0  0  0
 12 16  1  0  0  0  0
 12 40  1  0  0  0  0
 14 18  1  0  0  0  0
 15 17  1  0  0  0  0
 15 41  1  0  0  0  0
 15 42  1  0  0  0  0
 16 17  1  0  0  0  0
 16 43  1  0  0  0  0
 16 44  1  0  0  0  0
 17 45  1  0  0  0  0
 17 46  1  0  0  0  0
 18 21  2  0  0  0  0
 18 48  1  0  0  0  0
 19 20  1  0  0  0  0
 19 22  1  0  0  0  0
 19 23  1  0  0  0  0
 19 47  1  0  0  0  0
 20 21  1  0  0  0  0
 20 49  1  0  0  0  0
 20 50  1  0  0  0  0
 22 24  1  0  0  0  0
 22 51  1  0  0  0  0
 22 52  1  0  0  0  0
 23 25  1  0  0  0  0
 23 53  1  0  0  0  0
 23 54  1  0  0  0  0
 24 26  1  0  0  0  0
 24 55  1  0  0  0  0
 24 56  1  0  0  0  0
 25 26  1  0  0  0  0
 25 57  1  0  0  0  0
 25 58  1  0  0  0  0
 26 59  1  0  0  0  0
 26 60  1  0  0  0  0
M  END
> <PUBCHEM_COMPOUND_CID>
56774179

> <PUBCHEM_CONFORMER_RMSD>
1

> <PUBCHEM_CONFORMER_DIVERSEORDER>
1
151
113
160
175
86
74
125
170
154
33
106
146
124
22
70
66
62
155
55
59
5
41
176
126
119
174
20
168
142
127
32
132
43
58
60
28
129
153
167
85
26
177
82
79
134
162
116
166
135
118
69
133
152
111
17
169
27
72
103
141
112
37
6
138
18
156
52
76
63
157
180
149
89
3
121
73
88
115
98
30
45
137
29
19
147
143
56
9
67
122
105
42
14
39
145
57
92
96
100
108
35
101
77
10
144
110
173
13
87
44
84
158
91
109
36
34
179
8
83
68
21
172
38
148
94
46
120
31
139
150
51
102
130
163
128
53
64
81
12
15
136
161
50
54
107
117
114
123
23
47
90
48
78
171
165
159
16
65
49
104
25
75
95
7
99
71
61
4
2
40
178
80
164
97
24
140
11
93
131

> <PUBCHEM_MMFF94_PARTIAL_CHARGES>
14
1 -0.57
12 0.05
13 0.58
14 0.11
18 -0.15
2 -0.02
20 0.18
21 -0.04
3 -0.65
39 0.37
4 -0.41
48 0.15
7 0.22
9 0.18

> <PUBCHEM_EFFECTIVE_ROTOR_COUNT>
9.8

> <PUBCHEM_PHARMACOPHORE_FEATURES>
8
1 1 acceptor
1 3 donor
1 4 acceptor
3 5 10 11 hydrophobe
4 12 15 16 17 rings
4 5 6 7 8 rings
5 2 4 14 18 21 rings
6 19 22 23 24 25 26 rings

> <PUBCHEM_HEAVY_ATOM_COUNT>
26

> <PUBCHEM_ATOM_DEF_STEREO_COUNT>
2

> <PUBCHEM_ATOM_UDEF_STEREO_COUNT>
0

> <PUBCHEM_BOND_DEF_STEREO_COUNT>
0

> <PUBCHEM_BOND_UDEF_STEREO_COUNT>
0

> <PUBCHEM_ISOTOPIC_ATOM_COUNT>
0

> <PUBCHEM_COMPONENT_COUNT>
1

> <PUBCHEM_CACTVS_TAUTO_COUNT>
2

> <PUBCHEM_CONFORMER_ID>
03624E2300000001

> <PUBCHEM_MMFF94_ENERGY>
39.9454

> <PUBCHEM_FEATURE_SELFOVERLAP>
40.597

> <PUBCHEM_SHAPE_FINGERPRINT>
10 15 13901910029030792235
10319926 262 17274271547327747208
10622 236 18408324371634479188
10693767 8 18267294512556518719
11211813 128 18412261702618111114
11796584 16 18044940074297365364
1200032 147 10952047871320873630
12422481 6 17703799097686910327
12760667 363 18412268363320427291
13383668 1 18192973019491512152
13533116 47 18337954592491126608
13540713 5 18267607791112298649
1361 4 18264489662335504055
13782708 43 18260261962837906263
14118638 360 18335426794074534452
14251740 57 18342178839499221738
14251751 18 18202563968856783555
14347332 77 18410573981262951569
14565420 104 17557978735282348720
14931854 50 17458634376515051130
15001296 14 18262795301847661098
15183329 4 16805315600412052215
15188451 53 18273209785653985218
15350500 16 17749655317546762322
15519825 34 15769196358860087495
155225 6 10447634821355993602
17857418 61 18409733971189694497
18393751 57 10591777497812569045
19841028 212 18338515356697116963
19958102 18 17676201399042934727
20028762 73 18273498974624783318
208703 8 18409725153854730462
21315763 87 17988922271559432954
21315764 119 17023179457559376743
21401589 2 12463562972085024348
21585483 132 18270104851165937639
21703447 108 18341609382101297856
22002106 203 18336537228258396706
22061861 79 17968092075300047231
23522609 53 18051171134866543357
23559900 14 17968384562203750161
23569914 152 17755828984920774383
23569943 247 18408324372379044963
23622692 118 18411419501024615673
2748736 6 9655570782147527158
3014063 24 18341892999960298646
34797466 226 14996862024804021605
3504750 166 18202005383275852625
3729539 64 17603577522194381355
397830 11 12751238159953766063
406291 66 18411133632297082391
437795 70 15502367911839009695
44062 13 18115025186807603172
474113 269 18201430381728985199
5085150 59 17703791414797675687
5104073 3 17989494008536251584
513202 73 18334855018242446789
531348 171 18410008845888374319
5718773 13 18410008836264841518
5874358 3 17631151131015568511
5951187 136 7925626744153536218
59682541 52 14851877033310925298
6034566 193 8574709118157727213
6058803 2 18267892560297640760
6712543 237 16630528410414907351
96874 4 18343015618834224935

> <PUBCHEM_SHAPE_MULTIPOLES>
513.37
19.19
3.74
1.53
4.01
0.05
0.08
21.99
-0.92
-1.23
-0.12
-0.12
0.31
-2.94

> <PUBCHEM_SHAPE_SELFOVERLAP>
1068.775

> <PUBCHEM_SHAPE_VOLUME>
293.7

> <PUBCHEM_COORDINATE_TYPE>
2
5
10

$$$$
