45783659
  -OEChem-12032416263D

 48 52  0     1  0  0  0  0  0999 V2000
   -2.6808    1.0269   -2.4446 F   0  0  0  0  0  0  0  0  0  0  0  0
   -1.8784   -0.5254    2.1376 O   0  0  0  0  0  0  0  0  0  0  0  0
   -3.9853   -0.8654   -0.6541 N   0  0  1  0  0  0  0  0  0  0  0  0
   -0.9762   -1.1786    0.1944 N   0  0  0  0  0  0  0  0  0  0  0  0
   -0.5136   -0.2212    2.2201 N   0  0  0  0  0  0  0  0  0  0  0  0
    3.5736    0.1696    1.2454 N   0  0  0  0  0  0  0  0  0  0  0  0
    5.3144   -0.1466   -0.2938 N   0  0  0  0  0  0  0  0  0  0  0  0
    7.4655    0.3667   -0.0914 N   0  0  0  0  0  0  0  0  0  0  0  0
   -3.4797   -1.5089    0.5750 C   0  0  1  0  0  0  0  0  0  0  0  0
   -3.5992   -3.0198    0.3030 C   0  0  0  0  0  0  0  0  0  0  0  0
   -4.2371   -3.1268   -1.0748 C   0  0  0  0  0  0  0  0  0  0  0  0
   -4.9459   -1.7981   -1.2438 C   0  0  0  0  0  0  0  0  0  0  0  0
   -4.5712    0.4474   -0.4159 C   0  0  0  0  0  0  0  0  0  0  0  0
   -2.0657   -1.0860    0.9141 C   0  0  0  0  0  0  0  0  0  0  0  0
   -3.5181    1.5146   -0.2775 C   0  0  0  0  0  0  0  0  0  0  0  0
   -2.6174    1.7479   -1.3166 C   0  0  0  0  0  0  0  0  0  0  0  0
   -3.4443    2.2705    0.8924 C   0  0  0  0  0  0  0  0  0  0  0  0
   -0.0504   -0.6355    1.0370 C   0  0  0  0  0  0  0  0  0  0  0  0
    1.3308   -0.5229    0.6668 C   0  0  0  0  0  0  0  0  0  0  0  0
   -1.6429    2.7373   -1.1859 C   0  0  0  0  0  0  0  0  0  0  0  0
   -2.4697    3.2599    1.0232 C   0  0  0  0  0  0  0  0  0  0  0  0
   -1.5691    3.4934   -0.0160 C   0  0  0  0  0  0  0  0  0  0  0  0
    1.7794   -0.9659   -0.5726 C   0  0  0  0  0  0  0  0  0  0  0  0
    2.2595    0.0324    1.5320 C   0  0  0  0  0  0  0  0  0  0  0  0
    3.1242   -0.8420   -0.9039 C   0  0  0  0  0  0  0  0  0  0  0  0
    3.9728   -0.2723    0.0317 C   0  0  0  0  0  0  0  0  0  0  0  0
    5.9030   -0.5328   -1.4650 C   0  0  0  0  0  0  0  0  0  0  0  0
    6.2914    0.3877    0.4994 C   0  0  0  0  0  0  0  0  0  0  0  0
    7.2304   -0.2060   -1.3164 C   0  0  0  0  0  0  0  0  0  0  0  0
   -4.1305   -1.2792    1.4305 H   0  0  0  0  0  0  0  0  0  0  0  0
   -2.6439   -3.5549    0.3323 H   0  0  0  0  0  0  0  0  0  0  0  0
   -4.2615   -3.4766    1.0487 H   0  0  0  0  0  0  0  0  0  0  0  0
   -3.4578   -3.2445   -1.8380 H   0  0  0  0  0  0  0  0  0  0  0  0
   -4.9189   -3.9789   -1.1502 H   0  0  0  0  0  0  0  0  0  0  0  0
   -5.1410   -1.5777   -2.2978 H   0  0  0  0  0  0  0  0  0  0  0  0
   -5.8976   -1.8023   -0.6972 H   0  0  0  0  0  0  0  0  0  0  0  0
   -5.1895    0.7415   -1.2758 H   0  0  0  0  0  0  0  0  0  0  0  0
   -5.2520    0.4383    0.4454 H   0  0  0  0  0  0  0  0  0  0  0  0
   -4.1378    2.0983    1.7111 H   0  0  0  0  0  0  0  0  0  0  0  0
   -0.9412    2.9180   -1.9947 H   0  0  0  0  0  0  0  0  0  0  0  0
   -2.4113    3.8476    1.9347 H   0  0  0  0  0  0  0  0  0  0  0  0
   -0.8095    4.2629    0.0862 H   0  0  0  0  0  0  0  0  0  0  0  0
    1.1033   -1.4105   -1.2986 H   0  0  0  0  0  0  0  0  0  0  0  0
    1.9911    0.4027    2.5170 H   0  0  0  0  0  0  0  0  0  0  0  0
    3.4255   -1.2009   -1.8795 H   0  0  0  0  0  0  0  0  0  0  0  0
    5.3981   -0.9922   -2.3019 H   0  0  0  0  0  0  0  0  0  0  0  0
    6.1076    0.7776    1.4922 H   0  0  0  0  0  0  0  0  0  0  0  0
    8.0286   -0.3538   -2.0290 H   0  0  0  0  0  0  0  0  0  0  0  0
  1 16  1  0  0  0  0
  2  5  1  0  0  0  0
  2 14  1  0  0  0  0
  3  9  1  0  0  0  0
  3 12  1  0  0  0  0
  3 13  1  0  0  0  0
  4 14  2  0  0  0  0
  4 18  1  0  0  0  0
  5 18  2  0  0  0  0
  6 24  1  0  0  0  0
  6 26  2  0  0  0  0
  7 26  1  0  0  0  0
  7 27  1  0  0  0  0
  7 28  1  0  0  0  0
  8 28  2  0  0  0  0
  8 29  1  0  0  0  0
  9 10  1  0  0  0  0
  9 14  1  0  0  0  0
  9 30  1  0  0  0  0
 10 11  1  0  0  0  0
 10 31  1  0  0  0  0
 10 32  1  0  0  0  0
 11 12  1  0  0  0  0
 11 33  1  0  0  0  0
 11 34  1  0  0  0  0
 12 35  1  0  0  0  0
 12 36  1  0  0  0  0
 13 15  1  0  0  0  0
 13 37  1  0  0  0  0
 13 38  1  0  0  0  0
 15 16  1  0  0  0  0
 15 17  2  0  0  0  0
 16 20  2  0  0  0  0
 17 21  1  0  0  0  0
 17 39  1  0  0  0  0
 18 19  1  0  0  0  0
 19 23  1  0  0  0  0
 19 24  2  0  0  0  0
 20 22  1  0  0  0  0
 20 40  1  0  0  0  0
 21 22  2  0  0  0  0
 21 41  1  0  0  0  0
 22 42  1  0  0  0  0
 23 25  2  0  0  0  0
 23 43  1  0  0  0  0
 24 44  1  0  0  0  0
 25 26  1  0  0  0  0
 25 45  1  0  0  0  0
 27 29  2  0  0  0  0
 27 46  1  0  0  0  0
 28 47  1  0  0  0  0
 29 48  1  0  0  0  0
M  END
> <PUBCHEM_COMPOUND_CID>
45783659

> <PUBCHEM_CONFORMER_RMSD>
0.8

> <PUBCHEM_CONFORMER_DIVERSEORDER>
1
107
97
172
20
170
121
35
92
214
117
171
187
200
204
71
64
27
216
10
218
195
25
162
177
178
19
51
210
135
58
181
222
83
209
161
105
38
202
78
154
179
128
5
33
194
62
96
43
88
9
63
185
23
36
85
150
26
190
175
158
49
77
109
84
188
167
44
152
115
173
137
148
143
144
7
196
205
199
79
73
201
151
163
4
215
197
134
90
65
174
116
46
169
61
24
113
193
220
182
140
47
17
3
189
80
31
165
76
110
156
191
127
206
212
11
129
86
123
99
184
103
48
211
149
208
89
130
55
32
100
57
138
132
180
133
119
141
120
18
45
2
192
159
217
21
29
126
101
147
146
22
8
14
125
157
183
112
153
114
139
106
81
122
94
203
98
102
160
219
54
186
213
104
34
166
70
69
118
198
111
82
56
136
42
6
207
93
124
28
168
37
39
176
95
15
142
74
41
131
155
66
68
221
60
87
53
164
59
75
145
72
67
91
52
50
13
108
40
16
30
12

> <PUBCHEM_MMFF94_PARTIAL_CHARGES>
37
1 -0.19
12 0.27
13 0.41
14 0.3
15 -0.14
16 0.19
17 -0.15
18 0.46
19 0.05
2 -0.02
20 -0.15
21 -0.15
22 -0.15
23 -0.15
24 0.16
25 -0.15
26 0.29
27 -0.3
28 0.04
29 0.08
3 -0.81
39 0.15
4 -0.57
40 0.15
41 0.15
42 0.15
43 0.15
44 0.15
45 0.15
46 0.15
47 0.15
48 0.15
5 -0.41
6 -0.62
7 0.33
8 -0.57
9 0.45

> <PUBCHEM_EFFECTIVE_ROTOR_COUNT>
6

> <PUBCHEM_PHARMACOPHORE_FEATURES>
9
1 3 cation
3 4 5 18 cation
3 6 7 26 cation
3 7 8 28 cation
5 2 4 5 14 18 rings
5 3 9 10 11 12 rings
5 7 8 27 28 29 rings
6 15 16 17 20 21 22 rings
6 6 19 23 24 25 26 rings

> <PUBCHEM_HEAVY_ATOM_COUNT>
29

> <PUBCHEM_ATOM_DEF_STEREO_COUNT>
1

> <PUBCHEM_ATOM_UDEF_STEREO_COUNT>
0

> <PUBCHEM_BOND_DEF_STEREO_COUNT>
0

> <PUBCHEM_BOND_UDEF_STEREO_COUNT>
0

> <PUBCHEM_ISOTOPIC_ATOM_COUNT>
0

> <PUBCHEM_COMPONENT_COUNT>
1

> <PUBCHEM_CACTVS_TAUTO_COUNT>
1

> <PUBCHEM_CONFORMER_ID>
02BA9A6B00000001

> <PUBCHEM_MMFF94_ENERGY>
56.9458

> <PUBCHEM_FEATURE_SELFOVERLAP>
45.793

> <PUBCHEM_SHAPE_FINGERPRINT>
10165383 225 18130515111631805089
10291535 26 18334021579063178289
10454371 7 18409455786775566148
10670039 82 18260546727917814162
10937287 8 17617936937810672833
11101153 10 18264497363417678764
11477941 20 18409724101714097260
11607047 141 17767961297550295463
12107698 1 18334573585925375348
12788726 201 18260819402390829091
13761468 95 17753330868273746996
13782708 43 18060703905648938342
13947920 75 18259982673614413863
14713325 29 18341898459164275599
14910302 57 18201712921251039927
15183329 4 17895194364690775602
15324884 4 17841405319298679635
15463212 79 18188772734628376347
15876981 60 18262243317055847829
17492 54 17896578649845736333
17686467 74 18191585466245929432
17980427 23 17749122092644868942
19489759 90 18187366541018883274
20771845 65 17771631437008688915
20775438 99 16897342812872516135
21236236 1 18334016077552950044
21927370 108 18041858301986396779
23198884 109 18341898437504679912
23557571 272 18413105074199275215
255183 451 17907292514280175103
4169191 19 16516829124863116612
469060 322 17096389296975959609
497634 4 17775577441525096034
531348 171 18340772520671669286
58260988 114 14764055835586391975
68570916 9 10735865172475944234
7237137 82 18408885135623613632

> <PUBCHEM_SHAPE_MULTIPOLES>
553.78
15.11
3.27
1.73
32.68
1.57
0.07
-3.23
-5.29
-7
-0.42
-0.34
0.1
0.06

> <PUBCHEM_SHAPE_SELFOVERLAP>
1228.303

> <PUBCHEM_SHAPE_VOLUME>
300.2

> <PUBCHEM_COORDINATE_TYPE>
2
5
10

$$$$
