25389414
  -OEChem-12032416283D

 64 69  0     1  0  0  0  0  0999 V2000
    4.1035    1.3769   -2.9022 O   0  0  0  0  0  0  0  0  0  0  0  0
   -5.6195   -1.0479   -0.3889 O   0  0  0  0  0  0  0  0  0  0  0  0
   -4.6521    2.1579    0.7763 O   0  0  0  0  0  0  0  0  0  0  0  0
   -1.6392   -3.2875   -0.5256 N   0  0  2  0  0  0  0  0  0  0  0  0
    2.3030   -0.9946    1.1392 N   0  0  2  0  0  0  0  0  0  0  0  0
    3.9271    1.1477   -0.5786 N   0  0  0  0  0  0  0  0  0  0  0  0
   -3.6991   -0.4114    0.7478 N   0  0  0  0  0  0  0  0  0  0  0  0
    0.2441   -1.5409   -0.9370 C   0  0  2  0  0  0  0  0  0  0  0  0
    0.6485   -2.5370    0.1735 C   0  0  2  0  0  0  0  0  0  0  0  0
   -1.0763   -0.8512   -0.5473 C   0  0  0  0  0  0  0  0  0  0  0  0
   -2.1976   -1.9101   -0.4555 C   0  0  2  0  0  0  0  0  0  0  0  0
   -0.5572   -3.4555    0.4744 C   0  0  0  0  0  0  0  0  0  0  0  0
   -0.0320   -2.3718   -2.2046 C   0  0  0  0  0  0  0  0  0  0  0  0
    1.1608   -1.8586    1.4272 C   0  0  0  0  0  0  0  0  0  0  0  0
   -1.0538   -3.4746   -1.8755 C   0  0  0  0  0  0  0  0  0  0  0  0
    4.7701   -0.9045    0.7018 C   0  0  2  0  0  0  0  0  0  0  0  0
    3.6944    0.9290    1.9190 C   0  0  1  0  0  0  0  0  0  0  0  0
    3.5271   -1.7838    0.9542 C   0  0  0  0  0  0  0  0  0  0  0  0
    2.4721    0.0219    2.1886 C   0  0  0  0  0  0  0  0  0  0  0  0
    4.9581    0.0754    1.8527 C   0  0  0  0  0  0  0  0  0  0  0  0
   -3.0784   -1.6996    0.7782 C   0  0  0  0  0  0  0  0  0  0  0  0
    4.6768   -0.1152   -0.6111 C   0  0  0  0  0  0  0  0  0  0  0  0
    3.5035    1.7086    0.6313 C   0  0  0  0  0  0  0  0  0  0  0  0
    2.9163    2.9176    0.6464 C   0  0  0  0  0  0  0  0  0  0  0  0
    3.7421    1.8082   -1.8073 C   0  0  0  0  0  0  0  0  0  0  0  0
    2.6946    3.6420   -0.5731 C   0  0  0  0  0  0  0  0  0  0  0  0
    3.0667    3.1349   -1.7512 C   0  0  0  0  0  0  0  0  0  0  0  0
   -4.9408   -0.1822    0.1573 C   0  0  0  0  0  0  0  0  0  0  0  0
   -5.4365    1.2180    0.1862 C   0  0  0  0  0  0  0  0  0  0  0  0
   -6.5942    1.7860   -0.2927 C   0  0  0  0  0  0  0  0  0  0  0  0
   -6.5160    3.1634    0.0233 C   0  0  0  0  0  0  0  0  0  0  0  0
   -5.3162    3.3388    0.6730 C   0  0  0  0  0  0  0  0  0  0  0  0
    1.0232   -0.8003   -1.1438 H   0  0  0  0  0  0  0  0  0  0  0  0
    1.4399   -3.1834   -0.2289 H   0  0  0  0  0  0  0  0  0  0  0  0
   -0.9504   -0.2968    0.3884 H   0  0  0  0  0  0  0  0  0  0  0  0
   -1.3406   -0.1117   -1.3140 H   0  0  0  0  0  0  0  0  0  0  0  0
   -2.8545   -1.7783   -1.3281 H   0  0  0  0  0  0  0  0  0  0  0  0
   -0.2244   -4.5019    0.4660 H   0  0  0  0  0  0  0  0  0  0  0  0
   -0.9474   -3.2988    1.4863 H   0  0  0  0  0  0  0  0  0  0  0  0
    0.8961   -2.8223   -2.5756 H   0  0  0  0  0  0  0  0  0  0  0  0
   -0.4196   -1.7240   -3.0002 H   0  0  0  0  0  0  0  0  0  0  0  0
    1.4175   -2.6068    2.1894 H   0  0  0  0  0  0  0  0  0  0  0  0
    0.3474   -1.2676    1.8664 H   0  0  0  0  0  0  0  0  0  0  0  0
   -1.8497   -3.4831   -2.6305 H   0  0  0  0  0  0  0  0  0  0  0  0
   -0.5788   -4.4619   -1.9402 H   0  0  0  0  0  0  0  0  0  0  0  0
    5.6399   -1.5706    0.6424 H   0  0  0  0  0  0  0  0  0  0  0  0
    3.7980    1.6266    2.7606 H   0  0  0  0  0  0  0  0  0  0  0  0
    3.4248   -2.4628    0.1007 H   0  0  0  0  0  0  0  0  0  0  0  0
    3.7165   -2.4082    1.8381 H   0  0  0  0  0  0  0  0  0  0  0  0
    2.5901   -0.4580    3.1697 H   0  0  0  0  0  0  0  0  0  0  0  0
    1.5712    0.6468    2.2437 H   0  0  0  0  0  0  0  0  0  0  0  0
    5.8468    0.6988    1.6937 H   0  0  0  0  0  0  0  0  0  0  0  0
    5.1073   -0.4640    2.7960 H   0  0  0  0  0  0  0  0  0  0  0  0
   -2.5002   -1.7464    1.7064 H   0  0  0  0  0  0  0  0  0  0  0  0
   -3.8550   -2.4716    0.8277 H   0  0  0  0  0  0  0  0  0  0  0  0
    5.6932    0.1535   -0.9301 H   0  0  0  0  0  0  0  0  0  0  0  0
    4.2667   -0.7435   -1.4119 H   0  0  0  0  0  0  0  0  0  0  0  0
   -3.2049    0.3699    1.1697 H   0  0  0  0  0  0  0  0  0  0  0  0
    2.5724    3.3720    1.5696 H   0  0  0  0  0  0  0  0  0  0  0  0
    2.2070    4.6085   -0.5134 H   0  0  0  0  0  0  0  0  0  0  0  0
    2.9018    3.6682   -2.6799 H   0  0  0  0  0  0  0  0  0  0  0  0
   -7.3966    1.2758   -0.8062 H   0  0  0  0  0  0  0  0  0  0  0  0
   -7.2430    3.9321   -0.1951 H   0  0  0  0  0  0  0  0  0  0  0  0
   -4.8159    4.1952    1.1009 H   0  0  0  0  0  0  0  0  0  0  0  0
  1 25  2  0  0  0  0
  2 28  2  0  0  0  0
  3 29  1  0  0  0  0
  3 32  1  0  0  0  0
  4 11  1  0  0  0  0
  4 12  1  0  0  0  0
  4 15  1  0  0  0  0
  5 14  1  0  0  0  0
  5 18  1  0  0  0  0
  5 19  1  0  0  0  0
  6 22  1  0  0  0  0
  6 23  1  0  0  0  0
  6 25  1  0  0  0  0
  7 21  1  0  0  0  0
  7 28  1  0  0  0  0
  7 58  1  0  0  0  0
  8  9  1  0  0  0  0
  8 10  1  0  0  0  0
  8 13  1  0  0  0  0
  8 33  1  0  0  0  0
  9 12  1  0  0  0  0
  9 14  1  0  0  0  0
  9 34  1  0  0  0  0
 10 11  1  0  0  0  0
 10 35  1  0  0  0  0
 10 36  1  0  0  0  0
 11 21  1  0  0  0  0
 11 37  1  0  0  0  0
 12 38  1  0  0  0  0
 12 39  1  0  0  0  0
 13 15  1  0  0  0  0
 13 40  1  0  0  0  0
 13 41  1  0  0  0  0
 14 42  1  0  0  0  0
 14 43  1  0  0  0  0
 15 44  1  0  0  0  0
 15 45  1  0  0  0  0
 16 18  1  0  0  0  0
 16 20  1  0  0  0  0
 16 22  1  0  0  0  0
 16 46  1  0  0  0  0
 17 19  1  0  0  0  0
 17 20  1  0  0  0  0
 17 23  1  0  0  0  0
 17 47  1  0  0  0  0
 18 48  1  0  0  0  0
 18 49  1  0  0  0  0
 19 50  1  0  0  0  0
 19 51  1  0  0  0  0
 20 52  1  0  0  0  0
 20 53  1  0  0  0  0
 21 54  1  0  0  0  0
 21 55  1  0  0  0  0
 22 56  1  0  0  0  0
 22 57  1  0  0  0  0
 23 24  2  0  0  0  0
 24 26  1  0  0  0  0
 24 59  1  0  0  0  0
 25 27  1  0  0  0  0
 26 27  2  0  0  0  0
 26 60  1  0  0  0  0
 27 61  1  0  0  0  0
 28 29  1  0  0  0  0
 29 30  2  0  0  0  0
 30 31  1  0  0  0  0
 30 62  1  0  0  0  0
 31 32  2  0  0  0  0
 31 63  1  0  0  0  0
 32 64  1  0  0  0  0
M  END
> <PUBCHEM_COMPOUND_CID>
25389414

> <PUBCHEM_CONFORMER_RMSD>
1

> <PUBCHEM_CONFORMER_DIVERSEORDER>
1
38
48
9
12
39
6
33
8
45
22
54
47
28
52
46
55
30
20
15
44
23
31
36
11
26
7
10
43
53
51
49
32
35
37
41
3
17
21
19
24
13
18
34
50
42
5
14
29
40
4
27
16
25
2

> <PUBCHEM_MMFF94_PARTIAL_CHARGES>
33
1 -0.57
11 0.27
12 0.27
14 0.27
15 0.27
17 0.14
18 0.27
19 0.27
2 -0.57
21 0.3
22 0.3
23 -0.03
24 -0.15
25 0.62
26 -0.15
27 -0.14
28 0.71
29 0.05
3 -0.28
30 -0.15
31 -0.15
32 -0.01
4 -0.81
5 -0.81
58 0.37
59 0.15
6 -0.47
60 0.15
61 0.15
62 0.15
63 0.15
64 0.15
7 -0.73

> <PUBCHEM_EFFECTIVE_ROTOR_COUNT>
8.2

> <PUBCHEM_PHARMACOPHORE_FEATURES>
11
1 1 acceptor
1 2 acceptor
1 3 acceptor
1 4 cation
1 5 cation
1 7 donor
5 3 29 30 31 32 rings
6 5 16 17 18 19 20 rings
6 6 16 17 20 22 23 rings
6 6 23 24 25 26 27 rings
8 4 8 9 10 11 12 13 15 rings

> <PUBCHEM_HEAVY_ATOM_COUNT>
32

> <PUBCHEM_ATOM_DEF_STEREO_COUNT>
5

> <PUBCHEM_ATOM_UDEF_STEREO_COUNT>
0

> <PUBCHEM_BOND_DEF_STEREO_COUNT>
0

> <PUBCHEM_BOND_UDEF_STEREO_COUNT>
0

> <PUBCHEM_ISOTOPIC_ATOM_COUNT>
0

> <PUBCHEM_COMPONENT_COUNT>
1

> <PUBCHEM_CACTVS_TAUTO_COUNT>
6

> <PUBCHEM_CONFORMER_ID>
0183696600000001

> <PUBCHEM_MMFF94_ENERGY>
67.1805

> <PUBCHEM_FEATURE_SELFOVERLAP>
57.376

> <PUBCHEM_SHAPE_FINGERPRINT>
10674148 151 18041858298229493812
10763959 59 18339925913549627739
10811444 77 18191015717344097541
11069576 57 11959742581285316712
12047536 79 14490190523286277647
12422481 6 17822571612648425997
13617811 41 17266367437615041911
14117953 113 18266458702829492805
14790565 3 18410012169576019023
14950920 106 17385998524584591131
15001296 14 18334011731068035617
15163728 17 18342185436347533315
15238133 3 18408322211872525898
16708801 149 18411420626929040109
16988056 13 17840875070677383623
20567600 9 18199756851462930593
21223535 225 18048890873011054404
21458453 9 16660937668228789649
21864079 5 18048033257882401666
22122407 14 18187933897518950041
23559900 14 17771063796655561191
245318 6 18260839206622278261
2838139 119 18272358776992955147
3298306 158 18273214188570613073
338550 245 18409164411340140280
3388396 114 17045684510142780636
4144715 1 18261122880258546795

> <PUBCHEM_SHAPE_MULTIPOLES>
621.01
14.45
5.01
2.02
20.98
0.89
0.71
13.82
-2
2.44
1.48
-2.94
0.03
-2.35

> <PUBCHEM_SHAPE_SELFOVERLAP>
1352.818

> <PUBCHEM_SHAPE_VOLUME>
327.4

> <PUBCHEM_COORDINATE_TYPE>
2
5
10

$$$$
