75366980
  -OEChem-12032416413D

 64 67  0     1  0  0  0  0  0999 V2000
   -0.1382    4.9130    0.7914 F   0  0  0  0  0  0  0  0  0  0  0  0
    3.5769   -0.1214    0.3978 O   0  0  0  0  0  0  0  0  0  0  0  0
    6.2399   -0.9385   -0.5661 O   0  0  0  0  0  0  0  0  0  0  0  0
    0.0038    1.2717    2.6424 O   0  0  0  0  0  0  0  0  0  0  0  0
   -0.0068   -0.0747   -2.3596 O   0  0  0  0  0  0  0  0  0  0  0  0
    1.9254    0.9761   -1.6198 N   0  0  0  0  0  0  0  0  0  0  0  0
    1.3376    0.8961    2.5391 N   0  0  0  0  0  0  0  0  0  0  0  0
   -3.0143   -0.6120    1.9301 N   0  0  2  0  0  0  0  0  0  0  0  0
    3.0109   -1.3618    0.8280 C   0  0  1  0  0  0  0  0  0  0  0  0
    4.0179   -0.0928   -0.9660 C   0  0  1  0  0  0  0  0  0  0  0  0
    5.0178   -1.2203   -1.2533 C   0  0  2  0  0  0  0  0  0  0  0  0
    4.0194   -2.4984    0.6687 C   0  0  0  0  0  0  0  0  0  0  0  0
    4.5158   -2.5790   -0.7721 C   0  0  0  0  0  0  0  0  0  0  0  0
    2.6040   -1.1982    2.2874 C   0  0  0  0  0  0  0  0  0  0  0  0
    2.8317   -0.0881   -1.9279 C   0  0  0  0  0  0  0  0  0  0  0  0
    1.3140   -0.4347    2.4243 C   0  0  0  0  0  0  0  0  0  0  0  0
    0.0063   -0.9494    2.4487 C   0  0  0  0  0  0  0  0  0  0  0  0
   -0.7793    0.1641    2.5874 C   0  0  0  0  0  0  0  0  0  0  0  0
    0.5558    0.8979   -1.8637 C   0  0  0  0  0  0  0  0  0  0  0  0
   -2.2280    0.3804    2.6829 C   0  0  0  0  0  0  0  0  0  0  0  0
   -0.2455    2.0983   -1.5114 C   0  0  0  0  0  0  0  0  0  0  0  0
   -2.9851   -0.2978    0.5058 C   0  0  0  0  0  0  0  0  0  0  0  0
   -4.3854   -0.6454    2.4270 C   0  0  0  0  0  0  0  0  0  0  0  0
   -3.2913   -1.5046   -0.3408 C   0  0  0  0  0  0  0  0  0  0  0  0
    0.1930    2.9590   -0.5052 C   0  0  0  0  0  0  0  0  0  0  0  0
   -1.4370    2.3641   -2.1865 C   0  0  0  0  0  0  0  0  0  0  0  0
   -2.2569   -2.3365   -0.7692 C   0  0  0  0  0  0  0  0  0  0  0  0
   -4.6094   -1.7906   -0.6969 C   0  0  0  0  0  0  0  0  0  0  0  0
   -0.5598    4.0857   -0.1739 C   0  0  0  0  0  0  0  0  0  0  0  0
   -2.1900    3.4906   -1.8550 C   0  0  0  0  0  0  0  0  0  0  0  0
   -1.7512    4.3515   -0.8489 C   0  0  0  0  0  0  0  0  0  0  0  0
   -2.5405   -3.4547   -1.5537 C   0  0  0  0  0  0  0  0  0  0  0  0
   -4.8930   -2.9087   -1.4813 C   0  0  0  0  0  0  0  0  0  0  0  0
   -3.8586   -3.7408   -1.9095 C   0  0  0  0  0  0  0  0  0  0  0  0
    2.1208   -1.5832    0.2266 H   0  0  0  0  0  0  0  0  0  0  0  0
    4.5441    0.8650   -1.0700 H   0  0  0  0  0  0  0  0  0  0  0  0
    5.2537   -1.2565   -2.3227 H   0  0  0  0  0  0  0  0  0  0  0  0
    3.5717   -3.4552    0.9605 H   0  0  0  0  0  0  0  0  0  0  0  0
    4.8791   -2.3257    1.3287 H   0  0  0  0  0  0  0  0  0  0  0  0
    5.3141   -3.3279   -0.8318 H   0  0  0  0  0  0  0  0  0  0  0  0
    3.6990   -2.9225   -1.4176 H   0  0  0  0  0  0  0  0  0  0  0  0
    3.3907   -0.6841    2.8545 H   0  0  0  0  0  0  0  0  0  0  0  0
    2.4593   -2.1813    2.7534 H   0  0  0  0  0  0  0  0  0  0  0  0
    2.2855   -1.0361   -1.9101 H   0  0  0  0  0  0  0  0  0  0  0  0
    3.1779    0.0660   -2.9560 H   0  0  0  0  0  0  0  0  0  0  0  0
    6.8752   -1.6372   -0.7980 H   0  0  0  0  0  0  0  0  0  0  0  0
    2.3344    1.8573   -1.3270 H   0  0  0  0  0  0  0  0  0  0  0  0
   -0.3152   -1.9780    2.3759 H   0  0  0  0  0  0  0  0  0  0  0  0
   -2.4729    0.3080    3.7514 H   0  0  0  0  0  0  0  0  0  0  0  0
   -2.4954    1.4011    2.3780 H   0  0  0  0  0  0  0  0  0  0  0  0
   -1.9928    0.0568    0.1971 H   0  0  0  0  0  0  0  0  0  0  0  0
   -3.6636    0.5289    0.2517 H   0  0  0  0  0  0  0  0  0  0  0  0
   -4.3987   -0.8459    3.5051 H   0  0  0  0  0  0  0  0  0  0  0  0
   -4.9614   -1.4599    1.9790 H   0  0  0  0  0  0  0  0  0  0  0  0
   -4.9167    0.2979    2.2553 H   0  0  0  0  0  0  0  0  0  0  0  0
    1.1010    2.7742    0.0607 H   0  0  0  0  0  0  0  0  0  0  0  0
   -1.7941    1.7071   -2.9751 H   0  0  0  0  0  0  0  0  0  0  0  0
   -1.2257   -2.1269   -0.4974 H   0  0  0  0  0  0  0  0  0  0  0  0
   -5.4251   -1.1454   -0.3821 H   0  0  0  0  0  0  0  0  0  0  0  0
   -3.1176    3.6977   -2.3804 H   0  0  0  0  0  0  0  0  0  0  0  0
   -2.3371    5.2287   -0.5909 H   0  0  0  0  0  0  0  0  0  0  0  0
   -1.7351   -4.1025   -1.8870 H   0  0  0  0  0  0  0  0  0  0  0  0
   -5.9188   -3.1299   -1.7610 H   0  0  0  0  0  0  0  0  0  0  0  0
   -4.0793   -4.6110   -2.5207 H   0  0  0  0  0  0  0  0  0  0  0  0
  1 29  1  0  0  0  0
  2  9  1  0  0  0  0
  2 10  1  0  0  0  0
  3 11  1  0  0  0  0
  3 46  1  0  0  0  0
  4  7  1  0  0  0  0
  4 18  1  0  0  0  0
  5 19  2  0  0  0  0
  6 15  1  0  0  0  0
  6 19  1  0  0  0  0
  6 47  1  0  0  0  0
  7 16  2  0  0  0  0
  8 20  1  0  0  0  0
  8 22  1  0  0  0  0
  8 23  1  0  0  0  0
  9 12  1  0  0  0  0
  9 14  1  0  0  0  0
  9 35  1  0  0  0  0
 10 11  1  0  0  0  0
 10 15  1  0  0  0  0
 10 36  1  0  0  0  0
 11 13  1  0  0  0  0
 11 37  1  0  0  0  0
 12 13  1  0  0  0  0
 12 38  1  0  0  0  0
 12 39  1  0  0  0  0
 13 40  1  0  0  0  0
 13 41  1  0  0  0  0
 14 16  1  0  0  0  0
 14 42  1  0  0  0  0
 14 43  1  0  0  0  0
 15 44  1  0  0  0  0
 15 45  1  0  0  0  0
 16 17  1  0  0  0  0
 17 18  2  0  0  0  0
 17 48  1  0  0  0  0
 18 20  1  0  0  0  0
 19 21  1  0  0  0  0
 20 49  1  0  0  0  0
 20 50  1  0  0  0  0
 21 25  2  0  0  0  0
 21 26  1  0  0  0  0
 22 24  1  0  0  0  0
 22 51  1  0  0  0  0
 22 52  1  0  0  0  0
 23 53  1  0  0  0  0
 23 54  1  0  0  0  0
 23 55  1  0  0  0  0
 24 27  2  0  0  0  0
 24 28  1  0  0  0  0
 25 29  1  0  0  0  0
 25 56  1  0  0  0  0
 26 30  2  0  0  0  0
 26 57  1  0  0  0  0
 27 32  1  0  0  0  0
 27 58  1  0  0  0  0
 28 33  2  0  0  0  0
 28 59  1  0  0  0  0
 29 31  2  0  0  0  0
 30 31  1  0  0  0  0
 30 60  1  0  0  0  0
 31 61  1  0  0  0  0
 32 34  2  0  0  0  0
 32 62  1  0  0  0  0
 33 34  1  0  0  0  0
 33 63  1  0  0  0  0
 34 64  1  0  0  0  0
M  END
> <PUBCHEM_COMPOUND_CID>
75366980

> <PUBCHEM_CONFORMER_RMSD>
1.6

> <PUBCHEM_CONFORMER_DIVERSEORDER>
2
94
88
60
33
107
13
108
9
104
31
113
106
18
95
115
87
96
77
83
16
25
62
42
53
112
40
103
39
84
92
114
82
57
23
4
105
55
93
98
32
36
111
24
5
80
74
8
71
47
109
76
19
73
29
17
79
30
49
58
67
101
1
90
34
64
110
56
11
46
61
63
86
78
38
48
12
3
51
54
81
68
50
89
75
35
72
70
85
91
6
69
10
52
97
100
7
43
27
20
99
102
66
15
41
26
45
28
59
65
44
21
37
14
22

> <PUBCHEM_MMFF94_PARTIAL_CHARGES>
44
1 -0.19
10 0.28
11 0.28
14 0.18
15 0.3
16 0.11
17 -0.15
18 -0.04
19 0.54
2 -0.56
20 0.45
21 0.09
22 0.41
23 0.27
24 -0.14
25 -0.15
26 -0.15
27 -0.15
28 -0.15
29 0.19
3 -0.68
30 -0.15
31 -0.15
32 -0.15
33 -0.15
34 -0.15
4 -0.02
46 0.4
47 0.37
48 0.15
5 -0.57
56 0.15
57 0.15
58 0.15
59 0.15
6 -0.73
60 0.15
61 0.15
62 0.15
63 0.15
64 0.15
7 -0.41
8 -0.81
9 0.28

> <PUBCHEM_EFFECTIVE_ROTOR_COUNT>
11.2

> <PUBCHEM_PHARMACOPHORE_FEATURES>
11
1 2 acceptor
1 3 acceptor
1 3 donor
1 5 acceptor
1 6 donor
1 7 acceptor
1 8 cation
5 4 7 16 17 18 rings
6 2 9 10 11 12 13 rings
6 21 25 26 29 30 31 rings
6 24 27 28 32 33 34 rings

> <PUBCHEM_HEAVY_ATOM_COUNT>
34

> <PUBCHEM_ATOM_DEF_STEREO_COUNT>
3

> <PUBCHEM_ATOM_UDEF_STEREO_COUNT>
0

> <PUBCHEM_BOND_DEF_STEREO_COUNT>
0

> <PUBCHEM_BOND_UDEF_STEREO_COUNT>
0

> <PUBCHEM_ISOTOPIC_ATOM_COUNT>
0

> <PUBCHEM_COMPONENT_COUNT>
1

> <PUBCHEM_CACTVS_TAUTO_COUNT>
2

> <PUBCHEM_CONFORMER_ID>
047E024400000002

> <PUBCHEM_MMFF94_ENERGY>
71.2305

> <PUBCHEM_FEATURE_SELFOVERLAP>
55.824

> <PUBCHEM_SHAPE_FINGERPRINT>
10816530 23 18121501246313468124
11112662 9 17249766547249234173
11578080 2 18341880871431727480
12156800 1 18046878572719424329
12166972 35 18128251380193782215
12422481 6 17614602187910350513
12788726 201 18188199910323361327
14114206 34 17313374622192501805
14279260 333 17097495294131427410
17357779 13 17604447240402657618
20600515 1 17845396447131999381
24941158 1 17758120684695659267
26353 1 18335975471471394401
3493558 16 16827268754884339788
35225 105 17773023172882114942
469060 322 18413392034007588918
50150288 127 18044379326976429345
513532 50 17756123928629724175
57527452 28 15107558471813159255
6438718 38 17825956918312552664

> <PUBCHEM_SHAPE_MULTIPOLES>
654.01
9.35
5.35
3.39
6.2
5.75
2.1
-10.91
-3
-4.56
-3.02
-1.16
-0.26
-1.22

> <PUBCHEM_SHAPE_SELFOVERLAP>
1390.375

> <PUBCHEM_SHAPE_VOLUME>
364.7

> <PUBCHEM_COORDINATE_TYPE>
2
5
10

$$$$
