11884556
  -OEChem-12032416333D

 68 72  0     1  0  0  0  0  0999 V2000
   -3.5520   -0.5794   -2.4449 O   0  0  0  0  0  0  0  0  0  0  0  0
   -0.0979    0.8056    2.3204 O   0  0  0  0  0  0  0  0  0  0  0  0
    2.8183    0.6415   -1.5243 O   0  0  0  0  0  0  0  0  0  0  0  0
    6.2850   -0.7602    1.9388 O   0  0  0  0  0  0  0  0  0  0  0  0
   -4.1368    0.8609   -0.7198 N   0  0  0  0  0  0  0  0  0  0  0  0
   -1.5378    1.9296    0.8631 N   0  0  0  0  0  0  0  0  0  0  0  0
   -4.2660   -1.4869   -0.4625 N   0  0  0  0  0  0  0  0  0  0  0  0
    2.0513    1.0503    0.6254 N   0  0  0  0  0  0  0  0  0  0  0  0
    4.1347    0.1280    0.3497 N   0  0  0  0  0  0  0  0  0  0  0  0
   -4.0245    2.2684    1.3592 C   0  0  1  0  0  0  0  0  0  0  0  0
   -3.0753    3.1212   -0.7370 C   0  0  2  0  0  0  0  0  0  0  0  0
   -3.8924    3.5112    0.4908 C   0  0  0  0  0  0  0  0  0  0  0  0
   -4.7331    1.1317    0.5975 C   0  0  0  0  0  0  0  0  0  0  0  0
   -3.8362    2.0466   -1.5317 C   0  0  0  0  0  0  0  0  0  0  0  0
   -2.6296    1.8513    1.8415 C   0  0  0  0  0  0  0  0  0  0  0  0
   -1.7031    2.6036   -0.3504 C   0  0  0  0  0  0  0  0  0  0  0  0
   -3.9548   -0.4133   -1.2889 C   0  0  0  0  0  0  0  0  0  0  0  0
   -4.1385   -2.8588   -0.9014 C   0  0  0  0  0  0  0  0  0  0  0  0
   -0.6587    2.7674   -1.1798 C   0  0  0  0  0  0  0  0  0  0  0  0
   -0.2957    1.3901    1.2542 C   0  0  0  0  0  0  0  0  0  0  0  0
   -5.1928   -3.7503   -0.2364 C   0  0  0  0  0  0  0  0  0  0  0  0
   -2.7232   -3.3889   -0.6482 C   0  0  0  0  0  0  0  0  0  0  0  0
   -4.9090   -3.9845    1.2473 C   0  0  0  0  0  0  0  0  0  0  0  0
   -2.4434   -3.6239    0.8362 C   0  0  0  0  0  0  0  0  0  0  0  0
    0.8362    1.5714    0.2908 C   0  0  0  0  0  0  0  0  0  0  0  0
   -3.4992   -4.5224    1.4729 C   0  0  0  0  0  0  0  0  0  0  0  0
    0.6347    2.2380   -0.8507 C   0  0  0  0  0  0  0  0  0  0  0  0
    2.9958    0.6046   -0.3087 C   0  0  0  0  0  0  0  0  0  0  0  0
    5.3108   -0.4070   -0.2257 C   0  0  0  0  0  0  0  0  0  0  0  0
    6.3635   -0.8407    0.5803 C   0  0  0  0  0  0  0  0  0  0  0  0
    5.4119   -0.4987   -1.6140 C   0  0  0  0  0  0  0  0  0  0  0  0
    7.5170   -1.3661   -0.0020 C   0  0  0  0  0  0  0  0  0  0  0  0
    6.5656   -1.0239   -2.1961 C   0  0  0  0  0  0  0  0  0  0  0  0
    7.6181   -1.4576   -1.3902 C   0  0  0  0  0  0  0  0  0  0  0  0
    6.7572    0.4413    2.5443 C   0  0  0  0  0  0  0  0  0  0  0  0
   -4.6335    2.5023    2.2414 H   0  0  0  0  0  0  0  0  0  0  0  0
   -2.9682    4.0101   -1.3723 H   0  0  0  0  0  0  0  0  0  0  0  0
   -4.8820    3.8795    0.1945 H   0  0  0  0  0  0  0  0  0  0  0  0
   -3.4006    4.3205    1.0450 H   0  0  0  0  0  0  0  0  0  0  0  0
   -4.7767    0.2549    1.2417 H   0  0  0  0  0  0  0  0  0  0  0  0
   -5.7727    1.4229    0.4006 H   0  0  0  0  0  0  0  0  0  0  0  0
   -4.7995    2.4448   -1.8745 H   0  0  0  0  0  0  0  0  0  0  0  0
   -3.2737    1.7672   -2.4296 H   0  0  0  0  0  0  0  0  0  0  0  0
   -2.3323    2.5093    2.6696 H   0  0  0  0  0  0  0  0  0  0  0  0
   -2.6546    0.8363    2.2578 H   0  0  0  0  0  0  0  0  0  0  0  0
   -4.3191   -2.8766   -1.9834 H   0  0  0  0  0  0  0  0  0  0  0  0
   -0.7631    3.2814   -2.1297 H   0  0  0  0  0  0  0  0  0  0  0  0
   -4.4663   -1.3480    0.5164 H   0  0  0  0  0  0  0  0  0  0  0  0
   -6.1906   -3.3096   -0.3501 H   0  0  0  0  0  0  0  0  0  0  0  0
   -5.2135   -4.7209   -0.7483 H   0  0  0  0  0  0  0  0  0  0  0  0
   -2.5986   -4.3390   -1.1835 H   0  0  0  0  0  0  0  0  0  0  0  0
   -1.9739   -2.6980   -1.0528 H   0  0  0  0  0  0  0  0  0  0  0  0
   -5.0408   -3.0521    1.8086 H   0  0  0  0  0  0  0  0  0  0  0  0
   -5.6392   -4.6965    1.6490 H   0  0  0  0  0  0  0  0  0  0  0  0
   -1.4539   -4.0800    0.9544 H   0  0  0  0  0  0  0  0  0  0  0  0
   -2.4136   -2.6627    1.3638 H   0  0  0  0  0  0  0  0  0  0  0  0
   -3.4224   -5.5311    1.0485 H   0  0  0  0  0  0  0  0  0  0  0  0
   -3.3067   -4.6136    2.5478 H   0  0  0  0  0  0  0  0  0  0  0  0
    1.4145    2.4611   -1.5688 H   0  0  0  0  0  0  0  0  0  0  0  0
    2.1734    0.7482    1.5882 H   0  0  0  0  0  0  0  0  0  0  0  0
    4.1241    0.1656    1.3657 H   0  0  0  0  0  0  0  0  0  0  0  0
    4.6451   -0.1864   -2.3077 H   0  0  0  0  0  0  0  0  0  0  0  0
    8.3409   -1.7068    0.6194 H   0  0  0  0  0  0  0  0  0  0  0  0
    6.6458   -1.0959   -3.2769 H   0  0  0  0  0  0  0  0  0  0  0  0
    8.5162   -1.8668   -1.8435 H   0  0  0  0  0  0  0  0  0  0  0  0
    7.8304    0.5621    2.3655 H   0  0  0  0  0  0  0  0  0  0  0  0
    6.2138    1.3112    2.1621 H   0  0  0  0  0  0  0  0  0  0  0  0
    6.5886    0.3706    3.6223 H   0  0  0  0  0  0  0  0  0  0  0  0
  1 17  2  0  0  0  0
  2 20  2  0  0  0  0
  3 28  2  0  0  0  0
  4 30  1  0  0  0  0
  4 35  1  0  0  0  0
  5 13  1  0  0  0  0
  5 14  1  0  0  0  0
  5 17  1  0  0  0  0
  6 15  1  0  0  0  0
  6 16  1  0  0  0  0
  6 20  1  0  0  0  0
  7 17  1  0  0  0  0
  7 18  1  0  0  0  0
  7 48  1  0  0  0  0
  8 25  1  0  0  0  0
  8 28  1  0  0  0  0
  8 60  1  0  0  0  0
  9 28  1  0  0  0  0
  9 29  1  0  0  0  0
  9 61  1  0  0  0  0
 10 12  1  0  0  0  0
 10 13  1  0  0  0  0
 10 15  1  0  0  0  0
 10 36  1  0  0  0  0
 11 12  1  0  0  0  0
 11 14  1  0  0  0  0
 11 16  1  0  0  0  0
 11 37  1  0  0  0  0
 12 38  1  0  0  0  0
 12 39  1  0  0  0  0
 13 40  1  0  0  0  0
 13 41  1  0  0  0  0
 14 42  1  0  0  0  0
 14 43  1  0  0  0  0
 15 44  1  0  0  0  0
 15 45  1  0  0  0  0
 16 19  2  0  0  0  0
 18 21  1  0  0  0  0
 18 22  1  0  0  0  0
 18 46  1  0  0  0  0
 19 27  1  0  0  0  0
 19 47  1  0  0  0  0
 20 25  1  0  0  0  0
 21 23  1  0  0  0  0
 21 49  1  0  0  0  0
 21 50  1  0  0  0  0
 22 24  1  0  0  0  0
 22 51  1  0  0  0  0
 22 52  1  0  0  0  0
 23 26  1  0  0  0  0
 23 53  1  0  0  0  0
 23 54  1  0  0  0  0
 24 26  1  0  0  0  0
 24 55  1  0  0  0  0
 24 56  1  0  0  0  0
 25 27  2  0  0  0  0
 26 57  1  0  0  0  0
 26 58  1  0  0  0  0
 27 59  1  0  0  0  0
 29 30  1  0  0  0  0
 29 31  2  0  0  0  0
 30 32  2  0  0  0  0
 31 33  1  0  0  0  0
 31 62  1  0  0  0  0
 32 34  1  0  0  0  0
 32 63  1  0  0  0  0
 33 34  2  0  0  0  0
 33 64  1  0  0  0  0
 34 65  1  0  0  0  0
 35 66  1  0  0  0  0
 35 67  1  0  0  0  0
 35 68  1  0  0  0  0
M  END
> <PUBCHEM_COMPOUND_CID>
11884556

> <PUBCHEM_CONFORMER_RMSD>
1

> <PUBCHEM_CONFORMER_DIVERSEORDER>
1
63
98
107
56
58
110
21
94
81
108
54
89
115
14
42
37
10
96
105
100
84
106
13
43
70
27
49
95
82
97
34
74
59
103
52
66
93
86
23
65
112
61
32
55
29
7
114
25
109
90
51
19
60
72
22
41
101
79
9
104
6
39
68
45
20
83
69
5
87
28
57
40
2
15
12
73
50
8
102
11
67
64
76
48
35
33
16
92
38
71
47
44
3
116
80
26
77
17
111
31
46
4
113
18
85
36
62
78
75
91
99
30
88
24
53

> <PUBCHEM_MMFF94_PARTIAL_CHARGES>
37
1 -0.57
11 0.14
13 0.3
14 0.3
15 0.3
16 -0.03
17 0.69
18 0.3
19 -0.15
2 -0.57
20 0.62
25 0.12
27 -0.15
28 0.69
29 0.12
3 -0.57
30 0.08
31 -0.15
32 -0.15
33 -0.15
34 -0.15
35 0.28
4 -0.36
47 0.15
48 0.37
5 -0.66
59 0.15
6 -0.47
60 0.37
61 0.37
62 0.15
63 0.15
64 0.15
65 0.15
7 -0.73
8 -0.54
9 -0.55

> <PUBCHEM_EFFECTIVE_ROTOR_COUNT>
10.2

> <PUBCHEM_PHARMACOPHORE_FEATURES>
12
1 1 acceptor
1 2 acceptor
1 3 acceptor
1 4 acceptor
1 7 donor
1 8 donor
1 9 donor
6 18 21 22 23 24 26 rings
6 29 30 31 32 33 34 rings
6 5 10 11 12 13 14 rings
6 6 10 11 12 15 16 rings
6 6 16 19 20 25 27 rings

> <PUBCHEM_HEAVY_ATOM_COUNT>
35

> <PUBCHEM_ATOM_DEF_STEREO_COUNT>
2

> <PUBCHEM_ATOM_UDEF_STEREO_COUNT>
0

> <PUBCHEM_BOND_DEF_STEREO_COUNT>
0

> <PUBCHEM_BOND_UDEF_STEREO_COUNT>
0

> <PUBCHEM_ISOTOPIC_ATOM_COUNT>
0

> <PUBCHEM_COMPONENT_COUNT>
1

> <PUBCHEM_CACTVS_TAUTO_COUNT>
6

> <PUBCHEM_CONFORMER_ID>
00B5580C00000001

> <PUBCHEM_MMFF94_ENERGY>
97.7718

> <PUBCHEM_FEATURE_SELFOVERLAP>
62.497

> <PUBCHEM_SHAPE_FINGERPRINT>
10319688 45 18335701619909367868
10554248 39 15936691476811787002
11285246 1 17678174004491875715
11387372 6 18412552020198553167
117089 54 18047480207940159907
12717326 25 17343529733337839755
13782708 43 18272650147842892848
14150023 24 18052263899886382409
14211702 104 18340764948828228474
14844126 61 17632287987298911037
14856354 85 18342462495612925116
15183329 4 15792023225523139144
15510800 12 18272927262948153439
17627616 140 18191020101909672579
17909252 39 17904488750374383481
18603816 31 18260832549311842642
19309040 13 14925324358702174063
19958102 18 18267299842278136806
20775530 9 18192704764677410915
21703447 108 18193838374129762624
23379529 103 18119248617455095479
23428019 142 18334008406488840499
23466295 7 18337396049617054665
23536364 44 18187920746313758883
249057 3 18340768126910050469
3383291 50 17989202660252394071
395649 100 18408046213296012238
397830 11 18131342034522973224
4073 2 17988640766728694192
437795 139 18114176505680814846
4435113 14 18130788984263252018
484985 159 18334576854706717279
49967989 163 18261970625784045118
57527585 21 14057817475615743079
70634741 139 18340209691298644060
9896288 288 18269004085939922017

> <PUBCHEM_SHAPE_MULTIPOLES>
671.9
18.87
5.41
2.13
42.5
4.78
-0.33
12.51
0.91
-12.99
-0.9
1.6
0
1.19

> <PUBCHEM_SHAPE_SELFOVERLAP>
1443.124

> <PUBCHEM_SHAPE_VOLUME>
360

> <PUBCHEM_COORDINATE_TYPE>
2
5
10

$$$$
