45783753
  -OEChem-12032416203D

 39 42  0     1  0  0  0  0  0999 V2000
   -0.4967   -0.4270    2.0423 O   0  0  0  0  0  0  0  0  0  0  0  0
   -2.8911   -0.5724   -0.5257 N   0  0  1  0  0  0  0  0  0  0  0  0
    0.1846   -0.9704   -0.0211 N   0  0  0  0  0  0  0  0  0  0  0  0
   -1.5549    2.0751   -1.1341 N   0  0  0  0  0  0  0  0  0  0  0  0
   -2.0312    2.4956    0.9938 N   0  0  0  0  0  0  0  0  0  0  0  0
    0.8743   -0.1437    1.9976 N   0  0  0  0  0  0  0  0  0  0  0  0
    4.0957   -0.0220   -1.5608 N   0  0  0  0  0  0  0  0  0  0  0  0
    1.7727    0.0005   -2.0091 N   0  0  0  0  0  0  0  0  0  0  0  0
    4.9068   -0.3902    0.6783 N   0  0  0  0  0  0  0  0  0  0  0  0
   -2.2705   -1.2953    0.6024 C   0  0  1  0  0  0  0  0  0  0  0  0
   -2.4444   -2.7854    0.2552 C   0  0  0  0  0  0  0  0  0  0  0  0
   -3.2254   -2.8008   -1.0512 C   0  0  0  0  0  0  0  0  0  0  0  0
   -3.9246   -1.4565   -1.0647 C   0  0  0  0  0  0  0  0  0  0  0  0
   -3.4255    0.7299   -0.1489 C   0  0  0  0  0  0  0  0  0  0  0  0
   -0.8215   -0.9098    0.8143 C   0  0  0  0  0  0  0  0  0  0  0  0
   -2.3452    1.7748   -0.0596 C   0  0  0  0  0  0  0  0  0  0  0  0
    1.2032   -0.4901    0.7495 C   0  0  0  0  0  0  0  0  0  0  0  0
   -0.6814    3.0495   -0.7407 C   0  0  0  0  0  0  0  0  0  0  0  0
   -0.9947    3.2923    0.5760 C   0  0  0  0  0  0  0  0  0  0  0  0
    2.5396   -0.3706    0.2424 C   0  0  0  0  0  0  0  0  0  0  0  0
    2.8384   -0.1340   -1.0840 C   0  0  0  0  0  0  0  0  0  0  0  0
    3.6247   -0.4909    1.0864 C   0  0  0  0  0  0  0  0  0  0  0  0
    5.0674   -0.1586   -0.6385 C   0  0  0  0  0  0  0  0  0  0  0  0
   -2.8236   -1.1110    1.5343 H   0  0  0  0  0  0  0  0  0  0  0  0
   -1.5009   -3.3319    0.1511 H   0  0  0  0  0  0  0  0  0  0  0  0
   -3.0325   -3.2794    1.0383 H   0  0  0  0  0  0  0  0  0  0  0  0
   -3.9262   -3.6391   -1.1045 H   0  0  0  0  0  0  0  0  0  0  0  0
   -2.5328   -2.8805   -1.8984 H   0  0  0  0  0  0  0  0  0  0  0  0
   -4.8134   -1.4833   -0.4214 H   0  0  0  0  0  0  0  0  0  0  0  0
   -4.2257   -1.1702   -2.0771 H   0  0  0  0  0  0  0  0  0  0  0  0
   -4.1284    1.0794   -0.9178 H   0  0  0  0  0  0  0  0  0  0  0  0
   -3.9924    0.6897    0.7895 H   0  0  0  0  0  0  0  0  0  0  0  0
   -1.6042    1.6521   -2.0514 H   0  0  0  0  0  0  0  0  0  0  0  0
    0.0581    3.4636   -1.4105 H   0  0  0  0  0  0  0  0  0  0  0  0
   -0.5257    3.9992    1.2446 H   0  0  0  0  0  0  0  0  0  0  0  0
    3.5157   -0.6844    2.1495 H   0  0  0  0  0  0  0  0  0  0  0  0
    2.0345    0.1845   -2.9703 H   0  0  0  0  0  0  0  0  0  0  0  0
    0.9215   -0.5242   -1.8532 H   0  0  0  0  0  0  0  0  0  0  0  0
    6.0870   -0.0732   -0.9938 H   0  0  0  0  0  0  0  0  0  0  0  0
  1  6  1  0  0  0  0
  1 15  1  0  0  0  0
  2 10  1  0  0  0  0
  2 13  1  0  0  0  0
  2 14  1  0  0  0  0
  3 15  2  0  0  0  0
  3 17  1  0  0  0  0
  4 16  1  0  0  0  0
  4 18  1  0  0  0  0
  4 33  1  0  0  0  0
  5 16  2  0  0  0  0
  5 19  1  0  0  0  0
  6 17  2  0  0  0  0
  7 21  2  0  0  0  0
  7 23  1  0  0  0  0
  8 21  1  0  0  0  0
  8 37  1  0  0  0  0
  8 38  1  0  0  0  0
  9 22  1  0  0  0  0
  9 23  2  0  0  0  0
 10 11  1  0  0  0  0
 10 15  1  0  0  0  0
 10 24  1  0  0  0  0
 11 12  1  0  0  0  0
 11 25  1  0  0  0  0
 11 26  1  0  0  0  0
 12 13  1  0  0  0  0
 12 27  1  0  0  0  0
 12 28  1  0  0  0  0
 13 29  1  0  0  0  0
 13 30  1  0  0  0  0
 14 16  1  0  0  0  0
 14 31  1  0  0  0  0
 14 32  1  0  0  0  0
 17 20  1  0  0  0  0
 18 19  2  0  0  0  0
 18 34  1  0  0  0  0
 19 35  1  0  0  0  0
 20 21  1  0  0  0  0
 20 22  2  0  0  0  0
 22 36  1  0  0  0  0
 23 39  1  0  0  0  0
M  END
> <PUBCHEM_COMPOUND_CID>
45783753

> <PUBCHEM_CONFORMER_RMSD>
0.8

> <PUBCHEM_CONFORMER_DIVERSEORDER>
1
32
66
52
85
35
36
76
44
74
79
86
72
43
8
78
23
75
57
19
25
2
29
70
59
49
9
65
62
64
39
37
26
58
83
31
68
10
67
45
71
63
18
87
7
6
40
56
80
17
77
73
81
20
42
51
41
11
61
82
46
69
5
14
15
4
3
16
60
22
48
33
84
54
47
12
27
24
21
53
50
55
28
30
13
38
34

> <PUBCHEM_MMFF94_PARTIAL_CHARGES>
28
1 -0.02
10 0.45
13 0.27
14 0.45
15 0.3
16 0.01
17 0.46
18 -0.3
19 0.08
2 -0.81
20 0.05
21 0.41
22 0.16
23 0.47
3 -0.57
33 0.27
34 0.15
35 0.15
36 0.15
37 0.4
38 0.4
39 0.15
4 0.03
5 -0.57
6 -0.41
7 -0.62
8 -0.9
9 -0.62

> <PUBCHEM_EFFECTIVE_ROTOR_COUNT>
5

> <PUBCHEM_PHARMACOPHORE_FEATURES>
11
1 2 cation
1 4 donor
1 8 donor
3 3 6 17 cation
3 4 5 16 cation
3 7 8 21 cation
3 7 9 23 cation
5 1 3 6 15 17 rings
5 2 10 11 12 13 rings
5 4 5 16 18 19 rings
6 7 9 20 21 22 23 rings

> <PUBCHEM_HEAVY_ATOM_COUNT>
23

> <PUBCHEM_ATOM_DEF_STEREO_COUNT>
1

> <PUBCHEM_ATOM_UDEF_STEREO_COUNT>
0

> <PUBCHEM_BOND_DEF_STEREO_COUNT>
0

> <PUBCHEM_BOND_UDEF_STEREO_COUNT>
0

> <PUBCHEM_ISOTOPIC_ATOM_COUNT>
0

> <PUBCHEM_COMPONENT_COUNT>
1

> <PUBCHEM_CACTVS_TAUTO_COUNT>
11

> <PUBCHEM_CONFORMER_ID>
02BA9AC900000001

> <PUBCHEM_MMFF94_ENERGY>
43.0029

> <PUBCHEM_FEATURE_SELFOVERLAP>
55.963

> <PUBCHEM_SHAPE_FINGERPRINT>
11640471 11 17678173785169046137
12156800 1 15941696504342404908
12173636 292 17910111313678942201
12236239 1 17749103383361307227
12788726 201 18335411349071223827
13009979 54 17752177557653538907
13583140 156 17845068728912799850
13994607 96 17314537896477596017
14081887 123 18340195315573683808
14790565 3 18123750855752757513
14910302 57 18059297556824504870
15961568 22 18194671795385856752
17349148 13 17603301549223283050
17357779 13 18058995289868539277
17492 54 18043510765121248813
17818456 19 17976524036747510210
1813 80 18056491762096014407
192875 21 17676201381805095468
20300324 65 18408886243577404900
20600515 1 17979600706552480635
20775438 99 16969961148950066511
20905425 154 17977661245187250069
22620623 9 18273219672689728349
23402539 116 18410285921726849415
23419403 2 17631148957054805825
23557571 272 18272368680717599374
23559900 14 18201438009648937362
4921388 177 18059299764047161545
531348 171 18268159660788217630
6438718 38 18191892066032326256
7471813 234 18263359368787348654
81228 2 18411142424463499755
84936 31 17055821917488559745

> <PUBCHEM_SHAPE_MULTIPOLES>
427.61
8.11
3.17
1.58
8.75
2.24
0.06
-3.43
-2.17
-4.35
-0.22
0.68
-0.1
-0.63

> <PUBCHEM_SHAPE_SELFOVERLAP>
936.426

> <PUBCHEM_SHAPE_VOLUME>
230.1

> <PUBCHEM_COORDINATE_TYPE>
2
5
10

$$$$
