75368415
  -OEChem-12032416383D

 34 36  0     1  0  0  0  0  0999 V2000
   -1.5597    1.7380   -0.0471 S   0  0  0  0  0  0  0  0  0  0  0  0
    4.1771   -1.4612    1.2700 O   0  0  0  0  0  0  0  0  0  0  0  0
   -1.7256    2.3136   -1.3638 O   0  0  0  0  0  0  0  0  0  0  0  0
   -2.0150    2.4356    1.1357 O   0  0  0  0  0  0  0  0  0  0  0  0
    2.5692    0.0550    0.4609 N   0  0  0  0  0  0  0  0  0  0  0  0
    0.0830    1.2973    0.1663 N   0  0  2  0  0  0  0  0  0  0  0  0
    3.9327   -0.9598   -1.0088 N   0  0  0  0  0  0  0  0  0  0  0  0
    2.2473    0.6623   -0.8161 C   0  0  2  0  0  0  0  0  0  0  0  0
    0.7384    0.6763   -1.0331 C   0  0  0  0  0  0  0  0  0  0  0  0
    1.8887    0.5016    1.6605 C   0  0  0  0  0  0  0  0  0  0  0  0
    3.0279   -0.1797   -1.8218 C   0  0  0  0  0  0  0  0  0  0  0  0
    0.3820    0.5338    1.4239 C   0  0  0  0  0  0  0  0  0  0  0  0
    3.6246   -0.8578    0.3603 C   0  0  0  0  0  0  0  0  0  0  0  0
   -2.3075    0.1392   -0.0572 C   0  0  0  0  0  0  0  0  0  0  0  0
   -2.7431   -0.4344    1.1373 C   0  0  0  0  0  0  0  0  0  0  0  0
   -2.4596   -0.5522   -1.2590 C   0  0  0  0  0  0  0  0  0  0  0  0
   -3.3308   -1.6996    1.1301 C   0  0  0  0  0  0  0  0  0  0  0  0
   -3.0471   -1.8173   -1.2664 C   0  0  0  0  0  0  0  0  0  0  0  0
   -3.4827   -2.3909   -0.0718 C   0  0  0  0  0  0  0  0  0  0  0  0
    2.6402    1.6868   -0.7884 H   0  0  0  0  0  0  0  0  0  0  0  0
    0.5152    1.2501   -1.9378 H   0  0  0  0  0  0  0  0  0  0  0  0
    0.3668   -0.3461   -1.1626 H   0  0  0  0  0  0  0  0  0  0  0  0
    2.2631    1.5065    1.8866 H   0  0  0  0  0  0  0  0  0  0  0  0
    2.1464   -0.1546    2.4976 H   0  0  0  0  0  0  0  0  0  0  0  0
    2.3968   -0.8756   -2.3830 H   0  0  0  0  0  0  0  0  0  0  0  0
    3.6034    0.4312   -2.5225 H   0  0  0  0  0  0  0  0  0  0  0  0
    0.0221   -0.4960    1.3285 H   0  0  0  0  0  0  0  0  0  0  0  0
   -0.1019    1.0059    2.2843 H   0  0  0  0  0  0  0  0  0  0  0  0
    4.6554   -1.5681   -1.3803 H   0  0  0  0  0  0  0  0  0  0  0  0
   -2.6339    0.0842    2.0855 H   0  0  0  0  0  0  0  0  0  0  0  0
   -2.1246   -0.1267   -2.2007 H   0  0  0  0  0  0  0  0  0  0  0  0
   -3.6694   -2.1466    2.0602 H   0  0  0  0  0  0  0  0  0  0  0  0
   -3.1645   -2.3562   -2.2019 H   0  0  0  0  0  0  0  0  0  0  0  0
   -3.9397   -3.3761   -0.0775 H   0  0  0  0  0  0  0  0  0  0  0  0
  1  3  2  0  0  0  0
  1  4  2  0  0  0  0
  1  6  1  0  0  0  0
  1 14  1  0  0  0  0
  2 13  2  0  0  0  0
  5  8  1  0  0  0  0
  5 10  1  0  0  0  0
  5 13  1  0  0  0  0
  6  9  1  0  0  0  0
  6 12  1  0  0  0  0
  7 11  1  0  0  0  0
  7 13  1  0  0  0  0
  7 29  1  0  0  0  0
  8  9  1  0  0  0  0
  8 11  1  0  0  0  0
  8 20  1  0  0  0  0
  9 21  1  0  0  0  0
  9 22  1  0  0  0  0
 10 12  1  0  0  0  0
 10 23  1  0  0  0  0
 10 24  1  0  0  0  0
 11 25  1  0  0  0  0
 11 26  1  0  0  0  0
 12 27  1  0  0  0  0
 12 28  1  0  0  0  0
 14 15  2  0  0  0  0
 14 16  1  0  0  0  0
 15 17  1  0  0  0  0
 15 30  1  0  0  0  0
 16 18  2  0  0  0  0
 16 31  1  0  0  0  0
 17 19  2  0  0  0  0
 17 32  1  0  0  0  0
 18 19  1  0  0  0  0
 18 33  1  0  0  0  0
 19 34  1  0  0  0  0
M  END
> <PUBCHEM_COMPOUND_CID>
75368415

> <PUBCHEM_CONFORMER_RMSD>
0.6

> <PUBCHEM_CONFORMER_DIVERSEORDER>
1
9
16
7
3
8
6
17
2
14
12
15
11
4
5
13
10

> <PUBCHEM_MMFF94_PARTIAL_CHARGES>
25
1 1.45
10 0.3
11 0.3
12 0.36
13 0.69
14 -0.01
15 -0.15
16 -0.15
17 -0.15
18 -0.15
19 -0.15
2 -0.57
29 0.37
3 -0.65
30 0.15
31 0.15
32 0.15
33 0.15
34 0.15
4 -0.65
5 -0.66
6 -0.85
7 -0.73
8 0.3
9 0.36

> <PUBCHEM_EFFECTIVE_ROTOR_COUNT>
3.2

> <PUBCHEM_PHARMACOPHORE_FEATURES>
7
1 2 acceptor
1 3 acceptor
1 4 acceptor
1 7 donor
5 5 7 8 11 13 rings
6 14 15 16 17 18 19 rings
6 5 6 8 9 10 12 rings

> <PUBCHEM_HEAVY_ATOM_COUNT>
19

> <PUBCHEM_ATOM_DEF_STEREO_COUNT>
1

> <PUBCHEM_ATOM_UDEF_STEREO_COUNT>
0

> <PUBCHEM_BOND_DEF_STEREO_COUNT>
0

> <PUBCHEM_BOND_UDEF_STEREO_COUNT>
0

> <PUBCHEM_ISOTOPIC_ATOM_COUNT>
0

> <PUBCHEM_COMPONENT_COUNT>
1

> <PUBCHEM_CACTVS_TAUTO_COUNT>
2

> <PUBCHEM_CONFORMER_ID>
047E07DF00000001

> <PUBCHEM_MMFF94_ENERGY>
35.496

> <PUBCHEM_FEATURE_SELFOVERLAP>
35.637

> <PUBCHEM_SHAPE_FINGERPRINT>
10062212 137 17750511780694795850
10618630 7 18339643450920135071
11578080 2 18339350985444848273
12173636 292 11097841991860897807
12202030 40 18059849588664902809
12346177 29 18337101255271707932
12363563 72 18340477988899017615
12553582 1 18341905141969922959
12633257 1 16558485170088850331
12714826 92 18272943695202630125
12892183 10 15195295265025255063
13583140 156 18127383723832382208
14123260 362 9223230745337030706
14251764 30 17459766993708579907
14957384 54 11383844739890095266
15209294 21 12679453180290815562
15239191 94 18343309188195779966
15342168 16 9510920188165720195
16752209 62 18188475913980994767
1813 80 18265905820574318597
18186145 218 14923945643707734898
19766037 51 18188212125505789179
19862831 5 17095235930061967103
20291156 8 18263369234111105239
20361792 2 18265050422013255941
20671657 53 17822565122546386493
21452121 199 18270395138955732645
21634736 98 17894921775378570486
21731516 1 18337955700603056485
22646028 28 18335700576215983582
23402539 116 17096085763242063690
23503958 8 18336540530333080554
23557571 272 18339625811321249648
23559900 14 18337375102808760416
27216 239 11527950092807269999
31174 14 17488454359381862241
4028521 119 12324230698498192719
5262128 65 17676214588665909526
568465 68 17060338521997047862
633830 44 15864927408937964220
81228 2 18412819179954898937

> <PUBCHEM_SHAPE_MULTIPOLES>
362.31
7.42
2.27
1.73
3.48
0.49
-0.03
-5.22
0.08
-2.04
-0.02
0.46
-0.03
-0.17

> <PUBCHEM_SHAPE_SELFOVERLAP>
758.84

> <PUBCHEM_SHAPE_VOLUME>
204.9

> <PUBCHEM_COORDINATE_TYPE>
2
5
10

$$$$
