51138139
  -OEChem-12032416273D

 63 67  0     1  0  0  0  0  0999 V2000
   -2.9824    2.5868   -0.9728 O   0  0  0  0  0  0  0  0  0  0  0  0
    6.8612   -0.0843   -0.7325 O   0  0  0  0  0  0  0  0  0  0  0  0
   -1.8681   -0.2343   -0.4387 N   0  0  0  0  0  0  0  0  0  0  0  0
   -4.1328    1.4806    0.7219 N   0  0  0  0  0  0  0  0  0  0  0  0
    2.8331    0.8465    1.0561 N   0  0  0  0  0  0  0  0  0  0  0  0
    6.1902   -0.0047    0.4818 N   0  0  0  0  0  0  0  0  0  0  0  0
   -6.2629    1.3673   -0.4250 C   0  0  0  0  0  0  0  0  0  0  0  0
   -7.1668    0.2830    0.0839 C   0  0  0  0  0  0  0  0  0  0  0  0
   -7.7491    1.5733   -0.4138 C   0  0  0  0  0  0  0  0  0  0  0  0
   -5.4152    2.1219    0.5418 C   0  0  0  0  0  0  0  0  0  0  0  0
   -1.3826   -1.4379    0.2497 C   0  0  2  0  0  0  0  0  0  0  0  0
   -1.8194    0.9832    0.3579 C   0  0  1  0  0  0  0  0  0  0  0  0
   -0.5624    1.7984    0.0605 C   0  0  0  0  0  0  0  0  0  0  0  0
    0.0981   -1.4327    0.6429 C   0  0  0  0  0  0  0  0  0  0  0  0
    0.9259   -0.2748    0.7065 C   0  0  0  0  0  0  0  0  0  0  0  0
    0.7051    1.1265    0.4708 C   0  0  0  0  0  0  0  0  0  0  0  0
   -1.7375   -2.5981   -0.6977 C   0  0  0  0  0  0  0  0  0  0  0  0
   -3.0246    1.7715   -0.0553 C   0  0  0  0  0  0  0  0  0  0  0  0
    2.2644   -0.4046    1.0949 C   0  0  0  0  0  0  0  0  0  0  0  0
   -3.2227   -2.9709   -0.6570 C   0  0  0  0  0  0  0  0  0  0  0  0
    1.9043    1.7745    0.6883 C   0  0  0  0  0  0  0  0  0  0  0  0
    0.6952   -2.6516    1.0540 C   0  0  0  0  0  0  0  0  0  0  0  0
    2.8467   -1.6220    1.4515 C   0  0  0  0  0  0  0  0  0  0  0  0
    4.2103    1.1563    1.3758 C   0  0  0  0  0  0  0  0  0  0  0  0
    2.0318   -2.7466    1.4368 C   0  0  0  0  0  0  0  0  0  0  0  0
   -3.4692   -4.1639   -1.5835 C   0  0  0  0  0  0  0  0  0  0  0  0
   -4.1330   -1.8090   -1.0574 C   0  0  0  0  0  0  0  0  0  0  0  0
    5.1710    0.8300    0.2596 C   0  0  0  0  0  0  0  0  0  0  0  0
    5.1481    1.3039   -1.0636 C   0  0  0  0  0  0  0  0  0  0  0  0
    6.2312    0.6992   -1.6448 C   0  0  0  0  0  0  0  0  0  0  0  0
    6.8119    0.7325   -2.9924 C   0  0  0  0  0  0  0  0  0  0  0  0
   -5.7911    1.2330   -1.3911 H   0  0  0  0  0  0  0  0  0  0  0  0
   -7.2935   -0.5981   -0.5332 H   0  0  0  0  0  0  0  0  0  0  0  0
   -7.2032    0.0908    1.1491 H   0  0  0  0  0  0  0  0  0  0  0  0
   -8.1751    2.2491    0.3175 H   0  0  0  0  0  0  0  0  0  0  0  0
   -8.2676    1.5584   -1.3647 H   0  0  0  0  0  0  0  0  0  0  0  0
   -5.8824    2.1930    1.5300 H   0  0  0  0  0  0  0  0  0  0  0  0
   -5.2551    3.1400    0.1705 H   0  0  0  0  0  0  0  0  0  0  0  0
   -1.9463   -1.5666    1.1840 H   0  0  0  0  0  0  0  0  0  0  0  0
   -1.8839    0.7730    1.4340 H   0  0  0  0  0  0  0  0  0  0  0  0
   -0.4896    2.0335   -1.0108 H   0  0  0  0  0  0  0  0  0  0  0  0
   -0.6337    2.7656    0.5773 H   0  0  0  0  0  0  0  0  0  0  0  0
   -1.3933   -0.1095   -1.3321 H   0  0  0  0  0  0  0  0  0  0  0  0
   -4.0647    0.7660    1.4407 H   0  0  0  0  0  0  0  0  0  0  0  0
   -1.1849   -3.5098   -0.4537 H   0  0  0  0  0  0  0  0  0  0  0  0
   -1.4297   -2.3616   -1.7272 H   0  0  0  0  0  0  0  0  0  0  0  0
   -3.4881   -3.2817    0.3616 H   0  0  0  0  0  0  0  0  0  0  0  0
    2.1591    2.8234    0.6098 H   0  0  0  0  0  0  0  0  0  0  0  0
    0.1055   -3.5633    1.1157 H   0  0  0  0  0  0  0  0  0  0  0  0
    3.8851   -1.6997    1.7541 H   0  0  0  0  0  0  0  0  0  0  0  0
    4.4694    0.6215    2.2971 H   0  0  0  0  0  0  0  0  0  0  0  0
    4.2749    2.2274    1.6033 H   0  0  0  0  0  0  0  0  0  0  0  0
    2.4380   -3.7087    1.7377 H   0  0  0  0  0  0  0  0  0  0  0  0
   -3.2372   -3.9141   -2.6246 H   0  0  0  0  0  0  0  0  0  0  0  0
   -4.5159   -4.4830   -1.5377 H   0  0  0  0  0  0  0  0  0  0  0  0
   -2.8506   -5.0199   -1.2933 H   0  0  0  0  0  0  0  0  0  0  0  0
   -4.2224   -1.0792   -0.2515 H   0  0  0  0  0  0  0  0  0  0  0  0
   -3.7987   -1.3182   -1.9770 H   0  0  0  0  0  0  0  0  0  0  0  0
   -5.1518   -2.1714   -1.2393 H   0  0  0  0  0  0  0  0  0  0  0  0
    4.4499    1.9842   -1.5285 H   0  0  0  0  0  0  0  0  0  0  0  0
    7.8411    1.1029   -2.9590 H   0  0  0  0  0  0  0  0  0  0  0  0
    6.8208   -0.2694   -3.4326 H   0  0  0  0  0  0  0  0  0  0  0  0
    6.2373    1.3880   -3.6542 H   0  0  0  0  0  0  0  0  0  0  0  0
  1 18  2  0  0  0  0
  2  6  1  0  0  0  0
  2 30  1  0  0  0  0
  3 11  1  0  0  0  0
  3 12  1  0  0  0  0
  3 43  1  0  0  0  0
  4 10  1  0  0  0  0
  4 18  1  0  0  0  0
  4 44  1  0  0  0  0
  5 19  1  0  0  0  0
  5 21  1  0  0  0  0
  5 24  1  0  0  0  0
  6 28  2  0  0  0  0
  7  8  1  0  0  0  0
  7  9  1  0  0  0  0
  7 10  1  0  0  0  0
  7 32  1  0  0  0  0
  8  9  1  0  0  0  0
  8 33  1  0  0  0  0
  8 34  1  0  0  0  0
  9 35  1  0  0  0  0
  9 36  1  0  0  0  0
 10 37  1  0  0  0  0
 10 38  1  0  0  0  0
 11 14  1  0  0  0  0
 11 17  1  0  0  0  0
 11 39  1  0  0  0  0
 12 13  1  0  0  0  0
 12 18  1  0  0  0  0
 12 40  1  0  0  0  0
 13 16  1  0  0  0  0
 13 41  1  0  0  0  0
 13 42  1  0  0  0  0
 14 15  2  0  0  0  0
 14 22  1  0  0  0  0
 15 16  1  0  0  0  0
 15 19  1  0  0  0  0
 16 21  2  0  0  0  0
 17 20  1  0  0  0  0
 17 45  1  0  0  0  0
 17 46  1  0  0  0  0
 19 23  2  0  0  0  0
 20 26  1  0  0  0  0
 20 27  1  0  0  0  0
 20 47  1  0  0  0  0
 21 48  1  0  0  0  0
 22 25  2  0  0  0  0
 22 49  1  0  0  0  0
 23 25  1  0  0  0  0
 23 50  1  0  0  0  0
 24 28  1  0  0  0  0
 24 51  1  0  0  0  0
 24 52  1  0  0  0  0
 25 53  1  0  0  0  0
 26 54  1  0  0  0  0
 26 55  1  0  0  0  0
 26 56  1  0  0  0  0
 27 57  1  0  0  0  0
 27 58  1  0  0  0  0
 27 59  1  0  0  0  0
 28 29  1  0  0  0  0
 29 30  2  0  0  0  0
 29 60  1  0  0  0  0
 30 31  1  0  0  0  0
 31 61  1  0  0  0  0
 31 62  1  0  0  0  0
 31 63  1  0  0  0  0
M  END
> <PUBCHEM_COMPOUND_CID>
51138139

> <PUBCHEM_CONFORMER_RMSD>
1

> <PUBCHEM_CONFORMER_DIVERSEORDER>
1
121
34
167
23
129
53
82
103
85
11
120
84
90
50
87
66
49
145
95
127
92
113
136
28
5
122
135
25
108
146
117
161
71
16
69
74
141
101
123
100
81
105
112
99
55
27
42
110
83
124
10
65
21
140
109
133
73
2
134
89
148
97
45
76
153
35
6
88
57
31
106
143
60
130
26
86
147
8
163
59
158
94
40
7
119
151
149
20
44
15
32
47
58
144
156
22
91
138
38
137
77
56
152
79
9
160
78
116
115
36
142
61
157
80
63
165
3
24
70
126
132
154
17
68
12
51
39
75
107
93
139
131
48
128
159
54
43
166
104
64
62
18
98
13
125
111
118
67
46
4
29
30
162
155
14
41
72
114
150
96
164
37
52
33
19
102

> <PUBCHEM_MMFF94_PARTIAL_CHARGES>
38
1 -0.57
10 0.4
11 0.41
12 0.33
13 0.18
14 -0.14
16 -0.18
18 0.57
19 -0.15
2 -0.02
21 -0.3
22 -0.15
23 -0.15
24 0.44
25 -0.15
28 0.11
29 -0.15
3 -0.9
30 -0.04
31 0.18
32 0.1
33 0.1
34 0.1
35 0.1
36 0.1
4 -0.73
43 0.36
44 0.37
48 0.15
49 0.15
5 0.05
50 0.15
53 0.15
6 -0.41
60 0.15
7 -0.19
8 -0.2
9 -0.2

> <PUBCHEM_EFFECTIVE_ROTOR_COUNT>
9.4

> <PUBCHEM_PHARMACOPHORE_FEATURES>
11
1 1 acceptor
1 3 cation
1 3 donor
1 4 donor
1 5 cation
1 6 acceptor
3 20 26 27 hydrophobe
5 2 6 28 29 30 rings
5 5 15 16 19 21 rings
6 14 15 19 22 23 25 rings
7 3 11 12 13 14 15 16 rings

> <PUBCHEM_HEAVY_ATOM_COUNT>
31

> <PUBCHEM_ATOM_DEF_STEREO_COUNT>
2

> <PUBCHEM_ATOM_UDEF_STEREO_COUNT>
0

> <PUBCHEM_BOND_DEF_STEREO_COUNT>
0

> <PUBCHEM_BOND_UDEF_STEREO_COUNT>
0

> <PUBCHEM_ISOTOPIC_ATOM_COUNT>
0

> <PUBCHEM_COMPONENT_COUNT>
1

> <PUBCHEM_CACTVS_TAUTO_COUNT>
2

> <PUBCHEM_CONFORMER_ID>
030C4E5B00000001

> <PUBCHEM_MMFF94_ENERGY>
60.3416

> <PUBCHEM_FEATURE_SELFOVERLAP>
55.952

> <PUBCHEM_SHAPE_FINGERPRINT>
10190108 129 18190756404277107483
10906281 52 18113620092625602195
12954195 1 18272654579563599842
13540713 5 18262498343645841050
13782708 43 16701458008285194174
14114211 68 18260841358448047834
14294032 229 18261107426902951037
1454969 45 18113621170857578557
14790565 3 18408041809978327808
14840074 17 17313106371293657404
15131766 46 16299247859300253100
15183329 4 17989212516901221960
15629462 23 16271659914168174713
16752209 62 18263359343429099058
19319366 153 18113897109152024610
19841028 212 14476688456130974108
20771845 171 17676775271282747826
21344244 181 17703796894785308366
21641784 216 18041548260654452686
22393880 68 18271236214190844362
23559900 14 17916575570024094657
23576562 1 18263371454509718157
25147074 1 18261658316714520010
27425 322 16733563710036746650
350125 39 18410284801230677427
3610482 184 18115040687802971548
38570 142 18335146379421651395
45377200 153 17059763534263302863
5486654 2 18343295947618766985
563151 40 18409454691200313395
58260988 647 16128106542332960452
59755656 215 18202285788046181373
59755656 520 18341888589640523069

> <PUBCHEM_SHAPE_MULTIPOLES>
606.3
17.8
3.66
1.65
0.54
3.49
-0.87
-10.02
-8.28
4.95
-0.59
-3.08
0.36
-2.3

> <PUBCHEM_SHAPE_SELFOVERLAP>
1300.826

> <PUBCHEM_SHAPE_VOLUME>
337.8

> <PUBCHEM_COORDINATE_TYPE>
2
5
10

$$$$
