45783568
  -OEChem-12032416203D

 59 63  0     1  0  0  0  0  0999 V2000
   -2.4128   -2.2750    1.5311 O   0  0  0  0  0  0  0  0  0  0  0  0
    4.9101   -1.0107   -0.0956 O   0  0  0  0  0  0  0  0  0  0  0  0
    7.2342    0.5462   -0.1899 O   0  0  0  0  0  0  0  0  0  0  0  0
   -4.0933   -0.1313   -0.9357 N   0  0  1  0  0  0  0  0  0  0  0  0
   -1.4745    2.2509    1.8981 N   0  0  0  0  0  0  0  0  0  0  0  0
   -1.4180   -1.2128   -0.1715 N   0  0  0  0  0  0  0  0  0  0  0  0
   -1.0352   -2.3621    1.7693 N   0  0  0  0  0  0  0  0  0  0  0  0
    2.7205   -0.6810   -0.7891 N   0  0  0  0  0  0  0  0  0  0  0  0
   -3.9672   -1.3509   -0.1129 C   0  0  1  0  0  0  0  0  0  0  0  0
   -4.4821   -2.4870   -1.0159 C   0  0  0  0  0  0  0  0  0  0  0  0
   -5.1944   -0.3738   -1.8681 C   0  0  0  0  0  0  0  0  0  0  0  0
   -4.9312   -1.8025   -2.2991 C   0  0  0  0  0  0  0  0  0  0  0  0
   -4.2997    1.0757   -0.1458 C   0  0  0  0  0  0  0  0  0  0  0  0
   -2.5508   -1.5839    0.3694 C   0  0  0  0  0  0  0  0  0  0  0  0
   -3.0111    1.5903    0.4388 C   0  0  0  0  0  0  0  0  0  0  0  0
   -1.8475    1.9757   -0.2842 C   0  0  0  0  0  0  0  0  0  0  0  0
   -2.7510    1.7707    1.7777 C   0  0  0  0  0  0  0  0  0  0  0  0
   -0.8987    2.3859    0.6548 C   0  0  0  0  0  0  0  0  0  0  0  0
   -1.5095    2.0149   -1.6514 C   0  0  0  0  0  0  0  0  0  0  0  0
   -0.5167   -1.7127    0.7227 C   0  0  0  0  0  0  0  0  0  0  0  0
    0.3763    2.8352    0.2934 C   0  0  0  0  0  0  0  0  0  0  0  0
   -0.8373    2.5658    3.1584 C   0  0  0  0  0  0  0  0  0  0  0  0
   -0.2378    2.4621   -2.0278 C   0  0  0  0  0  0  0  0  0  0  0  0
    0.6891    2.8655   -1.0686 C   0  0  0  0  0  0  0  0  0  0  0  0
    0.8965   -1.5473    0.5403 C   0  0  0  0  0  0  0  0  0  0  0  0
    1.8024   -2.0627    1.4608 C   0  0  0  0  0  0  0  0  0  0  0  0
    1.4019   -0.8706   -0.5579 C   0  0  0  0  0  0  0  0  0  0  0  0
    3.1669   -1.8879    1.2575 C   0  0  0  0  0  0  0  0  0  0  0  0
    3.5708   -1.1959    0.1271 C   0  0  0  0  0  0  0  0  0  0  0  0
    5.2702   -0.2938   -1.2707 C   0  0  0  0  0  0  0  0  0  0  0  0
    6.7805   -0.1705   -1.3318 C   0  0  0  0  0  0  0  0  0  0  0  0
    8.6493    0.6731   -0.1835 C   0  0  0  0  0  0  0  0  0  0  0  0
   -4.6278   -1.2987    0.7641 H   0  0  0  0  0  0  0  0  0  0  0  0
   -5.3418   -2.9748   -0.5405 H   0  0  0  0  0  0  0  0  0  0  0  0
   -3.7332   -3.2579   -1.2277 H   0  0  0  0  0  0  0  0  0  0  0  0
   -5.1726    0.3134   -2.7196 H   0  0  0  0  0  0  0  0  0  0  0  0
   -6.1710   -0.2993   -1.3732 H   0  0  0  0  0  0  0  0  0  0  0  0
   -4.1239   -1.8357   -3.0414 H   0  0  0  0  0  0  0  0  0  0  0  0
   -5.8142   -2.2790   -2.7351 H   0  0  0  0  0  0  0  0  0  0  0  0
   -5.0561    0.9311    0.6364 H   0  0  0  0  0  0  0  0  0  0  0  0
   -4.6823    1.8778   -0.7926 H   0  0  0  0  0  0  0  0  0  0  0  0
   -3.3686    1.5950    2.6485 H   0  0  0  0  0  0  0  0  0  0  0  0
   -2.2191    1.7065   -2.4138 H   0  0  0  0  0  0  0  0  0  0  0  0
    1.1031    3.1490    1.0352 H   0  0  0  0  0  0  0  0  0  0  0  0
    0.0503    1.9364    3.2619 H   0  0  0  0  0  0  0  0  0  0  0  0
   -0.5644    3.6241    3.1522 H   0  0  0  0  0  0  0  0  0  0  0  0
   -1.5297    2.3669    3.9803 H   0  0  0  0  0  0  0  0  0  0  0  0
    0.0289    2.4938   -3.0808 H   0  0  0  0  0  0  0  0  0  0  0  0
    1.6718    3.2075   -1.3831 H   0  0  0  0  0  0  0  0  0  0  0  0
    1.4800   -2.6046    2.3460 H   0  0  0  0  0  0  0  0  0  0  0  0
    0.7586   -0.4492   -1.3237 H   0  0  0  0  0  0  0  0  0  0  0  0
    3.8868   -2.2834    1.9658 H   0  0  0  0  0  0  0  0  0  0  0  0
    4.8314    0.7112   -1.2325 H   0  0  0  0  0  0  0  0  0  0  0  0
    4.9143   -0.8232   -2.1624 H   0  0  0  0  0  0  0  0  0  0  0  0
    7.2336   -1.1687   -1.3275 H   0  0  0  0  0  0  0  0  0  0  0  0
    7.0763    0.3588   -2.2442 H   0  0  0  0  0  0  0  0  0  0  0  0
    9.1231   -0.3127   -0.1468 H   0  0  0  0  0  0  0  0  0  0  0  0
    8.9894    1.2226   -1.0666 H   0  0  0  0  0  0  0  0  0  0  0  0
    8.9406    1.2330    0.7092 H   0  0  0  0  0  0  0  0  0  0  0  0
  1  7  1  0  0  0  0
  1 14  1  0  0  0  0
  2 29  1  0  0  0  0
  2 30  1  0  0  0  0
  3 31  1  0  0  0  0
  3 32  1  0  0  0  0
  4  9  1  0  0  0  0
  4 11  1  0  0  0  0
  4 13  1  0  0  0  0
  5 17  1  0  0  0  0
  5 18  1  0  0  0  0
  5 22  1  0  0  0  0
  6 14  2  0  0  0  0
  6 20  1  0  0  0  0
  7 20  2  0  0  0  0
  8 27  1  0  0  0  0
  8 29  2  0  0  0  0
  9 10  1  0  0  0  0
  9 14  1  0  0  0  0
  9 33  1  0  0  0  0
 10 12  1  0  0  0  0
 10 34  1  0  0  0  0
 10 35  1  0  0  0  0
 11 12  1  0  0  0  0
 11 36  1  0  0  0  0
 11 37  1  0  0  0  0
 12 38  1  0  0  0  0
 12 39  1  0  0  0  0
 13 15  1  0  0  0  0
 13 40  1  0  0  0  0
 13 41  1  0  0  0  0
 15 16  1  0  0  0  0
 15 17  2  0  0  0  0
 16 18  1  0  0  0  0
 16 19  2  0  0  0  0
 17 42  1  0  0  0  0
 18 21  2  0  0  0  0
 19 23  1  0  0  0  0
 19 43  1  0  0  0  0
 20 25  1  0  0  0  0
 21 24  1  0  0  0  0
 21 44  1  0  0  0  0
 22 45  1  0  0  0  0
 22 46  1  0  0  0  0
 22 47  1  0  0  0  0
 23 24  2  0  0  0  0
 23 48  1  0  0  0  0
 24 49  1  0  0  0  0
 25 26  1  0  0  0  0
 25 27  2  0  0  0  0
 26 28  2  0  0  0  0
 26 50  1  0  0  0  0
 27 51  1  0  0  0  0
 28 29  1  0  0  0  0
 28 52  1  0  0  0  0
 30 31  1  0  0  0  0
 30 53  1  0  0  0  0
 30 54  1  0  0  0  0
 31 55  1  0  0  0  0
 31 56  1  0  0  0  0
 32 57  1  0  0  0  0
 32 58  1  0  0  0  0
 32 59  1  0  0  0  0
M  END
> <PUBCHEM_COMPOUND_CID>
45783568

> <PUBCHEM_CONFORMER_RMSD>
1

> <PUBCHEM_CONFORMER_DIVERSEORDER>
1
175
62
187
22
157
43
49
86
100
165
148
130
106
94
74
169
24
183
182
176
80
91
189
45
4
65
173
85
57
93
20
48
29
124
111
105
170
151
110
179
177
41
119
63
95
155
156
31
60
153
150
83
180
188
14
149
39
123
34
162
167
120
88
40
67
178
68
98
135
90
142
84
113
164
108
76
25
184
161
17
89
159
33
181
66
114
172
79
186
128
126
37
75
5
102
61
96
107
132
13
28
145
141
77
21
154
70
185
127
36
2
131
99
97
103
23
158
44
12
3
78
16
134
137
152
71
143
18
73
118
133
58
190
116
30
146
171
82
101
92
19
32
191
69
87
160
168
125
109
54
122
10
136
163
52
144
174
47
121
117
115
59
11
64
166
140
81
53
51
138
6
104
56
27
15
147
7
72
8
112
55
35
50
129
42
46
38
139
9
26

> <PUBCHEM_MMFF94_PARTIAL_CHARGES>
37
1 -0.02
11 0.27
13 0.45
14 0.3
15 -0.18
17 -0.3
18 -0.15
19 -0.15
2 -0.36
20 0.46
21 -0.15
22 0.26
23 -0.15
24 -0.15
25 0.05
26 -0.15
27 0.16
28 -0.15
29 0.39
3 -0.56
30 0.28
31 0.28
32 0.28
4 -0.81
42 0.15
43 0.15
44 0.15
48 0.15
49 0.15
5 0.05
50 0.15
51 0.15
52 0.15
6 -0.57
7 -0.41
8 -0.62
9 0.45

> <PUBCHEM_EFFECTIVE_ROTOR_COUNT>
9

> <PUBCHEM_PHARMACOPHORE_FEATURES>
9
1 3 acceptor
1 4 cation
1 5 cation
3 6 7 20 cation
5 1 6 7 14 20 rings
5 4 9 10 11 12 rings
5 5 15 16 17 18 rings
6 16 18 19 21 23 24 rings
6 8 25 26 27 28 29 rings

> <PUBCHEM_HEAVY_ATOM_COUNT>
32

> <PUBCHEM_ATOM_DEF_STEREO_COUNT>
1

> <PUBCHEM_ATOM_UDEF_STEREO_COUNT>
0

> <PUBCHEM_BOND_DEF_STEREO_COUNT>
0

> <PUBCHEM_BOND_UDEF_STEREO_COUNT>
0

> <PUBCHEM_ISOTOPIC_ATOM_COUNT>
0

> <PUBCHEM_COMPONENT_COUNT>
1

> <PUBCHEM_CACTVS_TAUTO_COUNT>
1

> <PUBCHEM_CONFORMER_ID>
02BA9A1000000001

> <PUBCHEM_MMFF94_ENERGY>
63.6112

> <PUBCHEM_FEATURE_SELFOVERLAP>
45.766

> <PUBCHEM_SHAPE_FINGERPRINT>
10454371 7 18343592837243386252
10871710 139 18189334568127430397
11477941 20 17988917886276497708
13782708 43 17203334369320263934
14068700 675 18272649086242445149
14394314 77 18261116218664192997
14840074 17 18117854209014817225
14931854 50 18260821588318218823
15021287 119 11815893466375477666
15274700 242 17313661529960346801
17492 54 18040989618917231983
18336668 15 18259993690380043557
20691752 17 17896578679688889721
20775438 99 17120258835353725423
20775530 9 18339631352461628959
20905425 154 18125159596471853495
21304303 282 15069453822495344244
21304303 64 17676489394165285581
21344244 246 17909258431952494927
21623110 236 18336278898337684556
23419403 2 17766509773932540833
27425 322 16624644760369928256
392239 28 18336274466327080468
469060 322 17676213480996974212
484989 97 17897727798316418419

> <PUBCHEM_SHAPE_MULTIPOLES>
616.03
13.8
3.71
2.2
32.81
1.41
0.62
-3.67
-7.16
-2.63
0.9
-1.56
0.77
-1.76

> <PUBCHEM_SHAPE_SELFOVERLAP>
1341.446

> <PUBCHEM_SHAPE_VOLUME>
339.7

> <PUBCHEM_COORDINATE_TYPE>
2
5
10

$$$$
