75536804
  -OEChem-12032416393D

 44 46  0     1  0  0  0  0  0999 V2000
    0.4157   -0.9226    0.0174 O   0  0  0  0  0  0  0  0  0  0  0  0
   -0.8199    2.4390    0.2971 O   0  0  0  0  0  0  0  0  0  0  0  0
    3.7918    2.0113   -0.0063 O   0  0  0  0  0  0  0  0  0  0  0  0
   -3.0366    0.2182    0.1231 N   0  0  0  0  0  0  0  0  0  0  0  0
    2.9178    0.1079    0.9918 N   0  0  0  0  0  0  0  0  0  0  0  0
   -8.0286   -0.3755    0.2750 N   0  0  0  0  0  0  0  0  0  0  0  0
    7.4986   -1.2841   -0.6202 N   0  0  0  0  0  0  0  0  0  0  0  0
   -1.6440    0.2184   -0.2945 C   0  0  1  0  0  0  0  0  0  0  0  0
   -0.7426    1.0578    0.5919 C   0  0  1  0  0  0  0  0  0  0  0  0
    0.6244    0.4802    0.2507 C   0  0  1  0  0  0  0  0  0  0  0  0
   -0.9912   -1.1492   -0.1781 C   0  0  0  0  0  0  0  0  0  0  0  0
    1.6490    0.6700    1.3550 C   0  0  0  0  0  0  0  0  0  0  0  0
   -3.8998   -0.3089   -0.9272 C   0  0  0  0  0  0  0  0  0  0  0  0
   -5.3450   -0.3322   -0.5060 C   0  0  0  0  0  0  0  0  0  0  0  0
    3.9025    0.8353    0.3300 C   0  0  0  0  0  0  0  0  0  0  0  0
   -5.8022   -1.3133    0.3669 C   0  0  0  0  0  0  0  0  0  0  0  0
   -6.2281    0.6273   -0.9887 C   0  0  0  0  0  0  0  0  0  0  0  0
    5.1514    0.1009    0.0013 C   0  0  0  0  0  0  0  0  0  0  0  0
   -7.1409   -1.2913    0.7233 C   0  0  0  0  0  0  0  0  0  0  0  0
   -7.5478    0.5625   -0.5715 C   0  0  0  0  0  0  0  0  0  0  0  0
    5.9252    0.4913   -1.0861 C   0  0  0  0  0  0  0  0  0  0  0  0
    5.5499   -0.9812    0.7784 C   0  0  0  0  0  0  0  0  0  0  0  0
    7.0793   -0.2276   -1.3522 C   0  0  0  0  0  0  0  0  0  0  0  0
    6.7209   -1.6343    0.4288 C   0  0  0  0  0  0  0  0  0  0  0  0
   -1.5561    0.5964   -1.3230 H   0  0  0  0  0  0  0  0  0  0  0  0
   -0.9817    0.9086    1.6522 H   0  0  0  0  0  0  0  0  0  0  0  0
    1.0068    0.9132   -0.6831 H   0  0  0  0  0  0  0  0  0  0  0  0
   -1.3515   -1.7103    0.6919 H   0  0  0  0  0  0  0  0  0  0  0  0
   -1.1381   -1.7651   -1.0705 H   0  0  0  0  0  0  0  0  0  0  0  0
    1.3332    0.1507    2.2665 H   0  0  0  0  0  0  0  0  0  0  0  0
    1.7749    1.7331    1.5868 H   0  0  0  0  0  0  0  0  0  0  0  0
   -3.3209    1.1751    0.3346 H   0  0  0  0  0  0  0  0  0  0  0  0
   -3.6092   -1.3331   -1.1940 H   0  0  0  0  0  0  0  0  0  0  0  0
   -3.7979    0.2891   -1.8423 H   0  0  0  0  0  0  0  0  0  0  0  0
   -0.6082    2.5633   -0.6435 H   0  0  0  0  0  0  0  0  0  0  0  0
    3.0486   -0.8801    1.1804 H   0  0  0  0  0  0  0  0  0  0  0  0
   -5.1406   -2.0768    0.7618 H   0  0  0  0  0  0  0  0  0  0  0  0
   -5.9067    1.4084   -1.6692 H   0  0  0  0  0  0  0  0  0  0  0  0
   -7.5474   -2.0347    1.4012 H   0  0  0  0  0  0  0  0  0  0  0  0
   -8.2763    1.2878   -0.9187 H   0  0  0  0  0  0  0  0  0  0  0  0
    5.6476    1.3265   -1.7200 H   0  0  0  0  0  0  0  0  0  0  0  0
    5.0062   -1.3167    1.6540 H   0  0  0  0  0  0  0  0  0  0  0  0
    7.7170    0.0357   -2.1896 H   0  0  0  0  0  0  0  0  0  0  0  0
    7.0794   -2.4799    1.0066 H   0  0  0  0  0  0  0  0  0  0  0  0
  1 10  1  0  0  0  0
  1 11  1  0  0  0  0
  2  9  1  0  0  0  0
  2 35  1  0  0  0  0
  3 15  2  0  0  0  0
  4  8  1  0  0  0  0
  4 13  1  0  0  0  0
  4 32  1  0  0  0  0
  5 12  1  0  0  0  0
  5 15  1  0  0  0  0
  5 36  1  0  0  0  0
  6 19  2  0  0  0  0
  6 20  1  0  0  0  0
  7 23  2  0  0  0  0
  7 24  1  0  0  0  0
  8  9  1  0  0  0  0
  8 11  1  0  0  0  0
  8 25  1  0  0  0  0
  9 10  1  0  0  0  0
  9 26  1  0  0  0  0
 10 12  1  0  0  0  0
 10 27  1  0  0  0  0
 11 28  1  0  0  0  0
 11 29  1  0  0  0  0
 12 30  1  0  0  0  0
 12 31  1  0  0  0  0
 13 14  1  0  0  0  0
 13 33  1  0  0  0  0
 13 34  1  0  0  0  0
 14 16  2  0  0  0  0
 14 17  1  0  0  0  0
 15 18  1  0  0  0  0
 16 19  1  0  0  0  0
 16 37  1  0  0  0  0
 17 20  2  0  0  0  0
 17 38  1  0  0  0  0
 18 21  2  0  0  0  0
 18 22  1  0  0  0  0
 19 39  1  0  0  0  0
 20 40  1  0  0  0  0
 21 23  1  0  0  0  0
 21 41  1  0  0  0  0
 22 24  2  0  0  0  0
 22 42  1  0  0  0  0
 23 43  1  0  0  0  0
 24 44  1  0  0  0  0
M  END
> <PUBCHEM_COMPOUND_CID>
75536804

> <PUBCHEM_CONFORMER_RMSD>
0.8

> <PUBCHEM_CONFORMER_DIVERSEORDER>
1
221
124
132
265
141
112
186
107
106
267
197
84
230
21
199
69
193
60
34
123
253
212
51
163
189
262
249
226
5
17
172
286
277
154
103
118
280
278
55
244
4
200
119
145
135
223
240
120
38
284
91
95
160
22
185
98
238
137
220
117
46
184
242
62
204
89
241
71
7
77
272
190
288
167
100
149
31
87
79
182
128
263
153
259
27
78
256
97
130
125
209
28
57
255
139
274
76
229
159
29
52
168
11
261
37
224
59
175
166
192
203
42
222
25
290
110
260
227
217
33
207
150
275
92
75
282
10
121
173
228
198
266
138
171
250
140
54
196
195
116
273
16
213
66
83
90
231
201
225
144
74
93
136
179
129
235
108
258
2
243
115
20
269
289
247
206
268
215
279
43
81
111
170
41
72
23
18
102
155
214
283
126
30
24
264
285
178
142
239
237
165
188
35
251
181
248
205
67
58
53
14
270
133
49
211
13
287
257
47
187
134
208
105
56
131
113
254
127
194
45
70
219
177
26
156
32
39
281
245
85
151
101
210
276
50
104
148
44
109
271
9
94
161
15
233
169
86
82
143
191
122
232
40
48
162
19
73
164
147
157
6
174
180
158
152
12
183
252
246
114
63
36
176
88
3
202
64
216
99
61
68
96
234
65
236
218
8
80
146

> <PUBCHEM_MMFF94_PARTIAL_CHARGES>
35
1 -0.56
10 0.28
11 0.28
12 0.3
13 0.41
14 -0.14
15 0.54
16 -0.15
17 -0.15
18 0.09
19 0.16
2 -0.68
20 0.16
21 -0.15
22 -0.15
23 0.16
24 0.16
3 -0.57
32 0.36
35 0.4
36 0.37
37 0.15
38 0.15
39 0.15
4 -0.9
40 0.15
41 0.15
42 0.15
43 0.15
44 0.15
5 -0.73
6 -0.62
7 -0.62
8 0.27
9 0.28

> <PUBCHEM_EFFECTIVE_ROTOR_COUNT>
8

> <PUBCHEM_PHARMACOPHORE_FEATURES>
12
1 1 acceptor
1 2 acceptor
1 2 donor
1 3 acceptor
1 4 cation
1 4 donor
1 5 donor
1 6 acceptor
1 7 acceptor
5 1 8 9 10 11 rings
6 6 14 16 17 19 20 rings
6 7 18 21 22 23 24 rings

> <PUBCHEM_HEAVY_ATOM_COUNT>
24

> <PUBCHEM_ATOM_DEF_STEREO_COUNT>
3

> <PUBCHEM_ATOM_UDEF_STEREO_COUNT>
0

> <PUBCHEM_BOND_DEF_STEREO_COUNT>
0

> <PUBCHEM_BOND_UDEF_STEREO_COUNT>
0

> <PUBCHEM_ISOTOPIC_ATOM_COUNT>
0

> <PUBCHEM_COMPONENT_COUNT>
1

> <PUBCHEM_CACTVS_TAUTO_COUNT>
2

> <PUBCHEM_CONFORMER_ID>
048099A400000001

> <PUBCHEM_MMFF94_ENERGY>
57.8088

> <PUBCHEM_FEATURE_SELFOVERLAP>
60.898

> <PUBCHEM_SHAPE_FINGERPRINT>
10 15 10592040267304553744
10162869 55 9006765467908763145
10299344 5 18113899355767670283
106641 1 8790877493460790973
11315181 36 11530480022635456175
11524674 6 17346596400539012247
11638347 137 11959738166137720268
12166972 35 18113338630433677260
125118 31 10303820890538369642
13533116 47 16370991971943284176
13673619 4 17917710193093898440
13685833 64 17775566438309363856
14216079 64 17775005665741039446
14251752 14 18341609304738411077
14251764 18 11743834768197995697
14294032 229 18125167035008252593
14347424 109 15410607108497244458
14856354 85 17967534593383358015
14933364 13 17967811656784902117
15131766 46 12821570633170143530
15183329 4 17917993875488145767
15352257 5 18408886256573875739
15849732 13 17748828531208440751
16090146 7 16733281061653321408
17093844 174 12967130519779962359
21150785 3 16950284009548121734
21267235 1 18412546509027674576
21365058 27 15936408940566640003
21781051 124 18409736196141730682
21792961 116 18337383851904756893
220451 1 16805313401789730083
221357 26 17749106678387395740
22224240 67 13183019613975131028
23035841 295 18272931635477827335
23559900 14 18200303459018616992
246663 6 18272654545129995410
24771293 8 11602819077647445663
28498 318 17775004565801974701
3004659 81 18413106169811613600
328311 84 18412265051600150051
34797466 226 16370727024006022030
4107672 100 17968089790704636621
444769 64 17775565356078352191
445580 37 17603580790885929301
5207 217 13623529060992684641
5758199 1 13767924598922178849
59682541 35 9799683797080493654
59755656 215 18272651225157348663
6438161 24 18261385621436841850

> <PUBCHEM_SHAPE_MULTIPOLES>
456.38
25.4
1.55
1.06
8.5
0.28
0.07
-7.97
4.95
-0.67
-0.22
-0.68
0.04
0.51

> <PUBCHEM_SHAPE_SELFOVERLAP>
967.606

> <PUBCHEM_SHAPE_VOLUME>
252.3

> <PUBCHEM_COORDINATE_TYPE>
2
5
10

$$$$
