45783775
  -OEChem-12032416263D

 51 54  0     1  0  0  0  0  0999 V2000
   -0.1897   -1.8684    1.8767 O   0  0  0  0  0  0  0  0  0  0  0  0
   -2.7604   -1.0226   -0.6098 N   0  0  1  0  0  0  0  0  0  0  0  0
   -3.2988    3.1336    0.0975 N   0  0  0  0  0  0  0  0  0  0  0  0
    0.1880   -0.9804   -0.1447 N   0  0  0  0  0  0  0  0  0  0  0  0
    1.1478   -1.4527    1.8776 N   0  0  0  0  0  0  0  0  0  0  0  0
    4.8448    0.1667    0.6438 N   0  0  0  0  0  0  0  0  0  0  0  0
    6.1517    1.2152   -1.0498 N   0  0  0  0  0  0  0  0  0  0  0  0
   -3.2947    0.2103   -0.0359 C   0  0  0  0  0  0  0  0  0  0  0  0
   -2.1308   -1.9059    0.3920 C   0  0  1  0  0  0  0  0  0  0  0  0
   -3.7970   -1.8175   -1.2686 C   0  0  0  0  0  0  0  0  0  0  0  0
   -3.9208    1.0770   -1.1314 C   0  0  0  0  0  0  0  0  0  0  0  0
   -2.1993    0.9967    0.6901 C   0  0  0  0  0  0  0  0  0  0  0  0
   -2.3058   -3.3270   -0.1746 C   0  0  0  0  0  0  0  0  0  0  0  0
   -3.0964   -3.1471   -1.4627 C   0  0  0  0  0  0  0  0  0  0  0  0
   -4.3974    2.4172   -0.5654 C   0  0  0  0  0  0  0  0  0  0  0  0
   -2.7320    2.3396    1.1965 C   0  0  0  0  0  0  0  0  0  0  0  0
   -0.6807   -1.5537    0.6493 C   0  0  0  0  0  0  0  0  0  0  0  0
   -3.7575    4.4328    0.5883 C   0  0  0  0  0  0  0  0  0  0  0  0
    1.2948   -0.9397    0.6525 C   0  0  0  0  0  0  0  0  0  0  0  0
    2.5334   -0.3806    0.1935 C   0  0  0  0  0  0  0  0  0  0  0  0
    2.6514    0.1435   -1.0891 C   0  0  0  0  0  0  0  0  0  0  0  0
    3.6495   -0.3454    1.0137 C   0  0  0  0  0  0  0  0  0  0  0  0
    3.8650    0.6791   -1.5062 C   0  0  0  0  0  0  0  0  0  0  0  0
    4.9216    0.6670   -0.6099 C   0  0  0  0  0  0  0  0  0  0  0  0
    7.3136    1.2622   -0.2233 C   0  0  0  0  0  0  0  0  0  0  0  0
   -4.0789   -0.0315    0.6966 H   0  0  0  0  0  0  0  0  0  0  0  0
   -2.6771   -1.8617    1.3450 H   0  0  0  0  0  0  0  0  0  0  0  0
   -4.6848   -1.9460   -0.6365 H   0  0  0  0  0  0  0  0  0  0  0  0
   -4.0991   -1.4107   -2.2383 H   0  0  0  0  0  0  0  0  0  0  0  0
   -3.1951    1.2601   -1.9355 H   0  0  0  0  0  0  0  0  0  0  0  0
   -4.7889    0.5861   -1.5854 H   0  0  0  0  0  0  0  0  0  0  0  0
   -1.8358    0.4665    1.5751 H   0  0  0  0  0  0  0  0  0  0  0  0
   -1.3498    1.1884    0.0224 H   0  0  0  0  0  0  0  0  0  0  0  0
   -1.3607   -3.8461   -0.3675 H   0  0  0  0  0  0  0  0  0  0  0  0
   -2.8860   -3.9358    0.5296 H   0  0  0  0  0  0  0  0  0  0  0  0
   -3.7968   -3.9694   -1.6363 H   0  0  0  0  0  0  0  0  0  0  0  0
   -2.4098   -3.0976   -2.3171 H   0  0  0  0  0  0  0  0  0  0  0  0
   -5.2304    2.2486    0.1301 H   0  0  0  0  0  0  0  0  0  0  0  0
   -4.7842    3.0200   -1.3962 H   0  0  0  0  0  0  0  0  0  0  0  0
   -1.8993    2.8858    1.6565 H   0  0  0  0  0  0  0  0  0  0  0  0
   -3.4813    2.1676    1.9807 H   0  0  0  0  0  0  0  0  0  0  0  0
   -4.1338    5.0456   -0.2385 H   0  0  0  0  0  0  0  0  0  0  0  0
   -4.5530    4.3359    1.3360 H   0  0  0  0  0  0  0  0  0  0  0  0
   -2.9275    4.9893    1.0377 H   0  0  0  0  0  0  0  0  0  0  0  0
    1.8154    0.1481   -1.7837 H   0  0  0  0  0  0  0  0  0  0  0  0
    3.6408   -0.7334    2.0280 H   0  0  0  0  0  0  0  0  0  0  0  0
    3.9634    1.0901   -2.5057 H   0  0  0  0  0  0  0  0  0  0  0  0
    6.2581    1.3727   -2.0461 H   0  0  0  0  0  0  0  0  0  0  0  0
    7.6347    0.2567    0.0677 H   0  0  0  0  0  0  0  0  0  0  0  0
    8.1395    1.7314   -0.7671 H   0  0  0  0  0  0  0  0  0  0  0  0
    7.1337    1.8531    0.6807 H   0  0  0  0  0  0  0  0  0  0  0  0
  1  5  1  0  0  0  0
  1 17  1  0  0  0  0
  2  8  1  0  0  0  0
  2  9  1  0  0  0  0
  2 10  1  0  0  0  0
  3 15  1  0  0  0  0
  3 16  1  0  0  0  0
  3 18  1  0  0  0  0
  4 17  2  0  0  0  0
  4 19  1  0  0  0  0
  5 19  2  0  0  0  0
  6 22  1  0  0  0  0
  6 24  2  0  0  0  0
  7 24  1  0  0  0  0
  7 25  1  0  0  0  0
  7 48  1  0  0  0  0
  8 11  1  0  0  0  0
  8 12  1  0  0  0  0
  8 26  1  0  0  0  0
  9 13  1  0  0  0  0
  9 17  1  0  0  0  0
  9 27  1  0  0  0  0
 10 14  1  0  0  0  0
 10 28  1  0  0  0  0
 10 29  1  0  0  0  0
 11 15  1  0  0  0  0
 11 30  1  0  0  0  0
 11 31  1  0  0  0  0
 12 16  1  0  0  0  0
 12 32  1  0  0  0  0
 12 33  1  0  0  0  0
 13 14  1  0  0  0  0
 13 34  1  0  0  0  0
 13 35  1  0  0  0  0
 14 36  1  0  0  0  0
 14 37  1  0  0  0  0
 15 38  1  0  0  0  0
 15 39  1  0  0  0  0
 16 40  1  0  0  0  0
 16 41  1  0  0  0  0
 18 42  1  0  0  0  0
 18 43  1  0  0  0  0
 18 44  1  0  0  0  0
 19 20  1  0  0  0  0
 20 21  1  0  0  0  0
 20 22  2  0  0  0  0
 21 23  2  0  0  0  0
 21 45  1  0  0  0  0
 22 46  1  0  0  0  0
 23 24  1  0  0  0  0
 23 47  1  0  0  0  0
 25 49  1  0  0  0  0
 25 50  1  0  0  0  0
 25 51  1  0  0  0  0
M  END
> <PUBCHEM_COMPOUND_CID>
45783775

> <PUBCHEM_CONFORMER_RMSD>
0.8

> <PUBCHEM_CONFORMER_DIVERSEORDER>
1
42
40
49
52
20
38
5
37
48
45
51
41
13
14
16
47
36
31
26
19
25
2
46
3
35
17
15
32
27
8
34
10
30
11
33
21
7
22
23
4
9
50
44
43
18
12
29
28
24
6
39

> <PUBCHEM_MMFF94_PARTIAL_CHARGES>
25
1 -0.02
10 0.27
15 0.27
16 0.27
17 0.3
18 0.27
19 0.46
2 -0.81
20 0.05
21 -0.15
22 0.16
23 -0.15
24 0.41
25 0.37
3 -0.81
4 -0.57
45 0.15
46 0.15
47 0.15
48 0.4
5 -0.41
6 -0.62
7 -0.87
8 0.27
9 0.45

> <PUBCHEM_EFFECTIVE_ROTOR_COUNT>
6.2

> <PUBCHEM_PHARMACOPHORE_FEATURES>
9
1 2 cation
1 3 cation
1 7 donor
3 4 5 19 cation
3 6 7 24 cation
5 1 4 5 17 19 rings
5 2 9 10 13 14 rings
6 3 8 11 12 15 16 rings
6 6 20 21 22 23 24 rings

> <PUBCHEM_HEAVY_ATOM_COUNT>
25

> <PUBCHEM_ATOM_DEF_STEREO_COUNT>
1

> <PUBCHEM_ATOM_UDEF_STEREO_COUNT>
0

> <PUBCHEM_BOND_DEF_STEREO_COUNT>
0

> <PUBCHEM_BOND_UDEF_STEREO_COUNT>
0

> <PUBCHEM_ISOTOPIC_ATOM_COUNT>
0

> <PUBCHEM_COMPONENT_COUNT>
1

> <PUBCHEM_CACTVS_TAUTO_COUNT>
8

> <PUBCHEM_CONFORMER_ID>
02BA9ADF00000001

> <PUBCHEM_MMFF94_ENERGY>
49.2107

> <PUBCHEM_FEATURE_SELFOVERLAP>
45.674

> <PUBCHEM_SHAPE_FINGERPRINT>
10087517 78 18335701689272182348
10291535 26 18336552723523473426
10871710 139 18408039594297611149
10937287 8 18053103926352868881
11049842 53 18055617430950430867
11089746 13 18115022035145262780
11370993 144 14057275342450887341
11477941 20 17985540285182099036
11640471 11 18188768328149867563
12107183 9 18118956989371155802
12173636 292 18269825437962315447
12788726 201 18337941377378429939
14142880 1 18113902641744524213
14187579 7 18267869556705419732
14251764 38 18267025140718760640
14251764 75 17981335486567200361
14294032 229 18342745092240244121
14713325 29 18342468074859844359
14739800 52 18266999783342089672
14767858 380 18268125619193635901
15064981 113 18129647600804058110
15163728 17 18341338773222436783
15183329 4 17676481770957115058
15289351 153 18046351006158548276
15463212 79 18335978688570729955
16992828 155 17968370135245840165
16994733 274 15648428149639599079
17818456 19 18124299528996906554
19489759 90 18338517560035951622
20511986 3 17968646142850059284
21033650 10 18265356000467881142
21756936 100 18186810191997634170
22393880 68 18059305292366826678
235170 7 17489311927265113974
23522609 53 11167111345203263794
23557571 272 18130226059399191526
25147074 1 18115292424336908490
255183 451 17408789365548054327
312425 83 18270699614051792510
341906 21 18340476829526775952
3610482 184 18261692431850190220
38570 142 17969518017285022806
397830 11 10881687962133290462
4169191 19 17169276043546814932
44802255 64 17845941844376917852
46194498 28 16414042327326481777
469060 322 18042427840403702825
474 4 17822571603551802963
484985 159 13901904561806366493
5048184 11 18336830762705980889
5104073 3 16588866940571760616
5283173 99 18342739646116418960
531348 171 18343308050599457870
5364581 5 11242545487556965830
6299153 45 18115017495285534690
6327066 14 18264203626188025365
633830 44 17894915088146671906
7288768 16 17604159137953780209
7808743 9 18411699842256781809

> <PUBCHEM_SHAPE_MULTIPOLES>
478.73
13.01
4.09
1.46
23.91
2.05
0.13
8.71
-4.16
-8.53
0.13
0.18
-0.43
-1.92

> <PUBCHEM_SHAPE_SELFOVERLAP>
1019.43

> <PUBCHEM_SHAPE_VOLUME>
268.4

> <PUBCHEM_COORDINATE_TYPE>
2
5
10

$$$$
