23928013
  -OEChem-12032416153D

 71 75  0     1  0  0  0  0  0999 V2000
    2.8570   -2.1282    0.7190 S   0  0  0  0  0  0  0  0  0  0  0  0
   -7.2172   -1.6686   -2.8143 S   0  0  0  0  0  0  0  0  0  0  0  0
   -2.3061    1.9577   -0.9549 O   0  0  0  0  0  0  0  0  0  0  0  0
   -6.4354    0.2871    1.8057 O   0  0  0  0  0  0  0  0  0  0  0  0
    5.5610    1.3863   -0.7794 O   0  0  0  0  0  0  0  0  0  0  0  0
    2.8253    0.3222   -0.1064 N   0  0  0  0  0  0  0  0  0  0  0  0
   -6.6892    0.3903   -0.5025 N   0  0  0  0  0  0  0  0  0  0  0  0
    4.9767   -0.7574    0.0082 N   0  0  0  0  0  0  0  0  0  0  0  0
    8.3379    0.7781   -0.2633 N   0  0  0  0  0  0  0  0  0  0  0  0
   -1.0102   -0.8532    1.3007 C   0  0  1  0  0  0  0  0  0  0  0  0
   -1.0149    0.1960    0.1200 C   0  0  1  0  0  0  0  0  0  0  0  0
   -2.2218    1.1700    0.2320 C   0  0  2  0  0  0  0  0  0  0  0  0
   -3.5707    0.4350    0.3895 C   0  0  1  0  0  0  0  0  0  0  0  0
   -2.3842   -1.5594    1.3754 C   0  0  0  0  0  0  0  0  0  0  0  0
    0.3793    0.9333   -0.0223 C   0  0  1  0  0  0  0  0  0  0  0  0
   -3.5484   -0.5896    1.5238 C   0  0  0  0  0  0  0  0  0  0  0  0
    0.0648   -1.9511    1.0272 C   0  0  0  0  0  0  0  0  0  0  0  0
   -0.7110   -0.1877    2.6694 C   0  0  0  0  0  0  0  0  0  0  0  0
   -4.7313    1.4139    0.6056 C   0  0  2  0  0  0  0  0  0  0  0  0
    1.5164   -0.0446    0.1529 C   0  0  0  0  0  0  0  0  0  0  0  0
    1.3568   -1.3280    0.6329 C   0  0  0  0  0  0  0  0  0  0  0  0
    0.5353    1.6846   -1.3526 C   0  0  0  0  0  0  0  0  0  0  0  0
   -4.5184    2.2386    1.8634 C   0  0  0  0  0  0  0  0  0  0  0  0
   -6.0265    0.6471    0.6986 C   0  0  0  0  0  0  0  0  0  0  0  0
    3.6153   -0.6987    0.1454 C   0  0  0  0  0  0  0  0  0  0  0  0
   -6.1699    0.7025   -1.8394 C   0  0  0  0  0  0  0  0  0  0  0  0
   -7.9523   -0.3500   -0.4914 C   0  0  0  0  0  0  0  0  0  0  0  0
   -5.7828   -0.5675   -2.5886 C   0  0  0  0  0  0  0  0  0  0  0  0
   -7.7817   -1.7441   -1.0835 C   0  0  0  0  0  0  0  0  0  0  0  0
    5.8693    0.2509   -0.4335 C   0  0  0  0  0  0  0  0  0  0  0  0
    7.3112   -0.1102   -0.4494 C   0  0  0  0  0  0  0  0  0  0  0  0
    7.8625   -1.3568   -0.6478 C   0  0  0  0  0  0  0  0  0  0  0  0
    9.5363    0.1173   -0.3392 C   0  0  0  0  0  0  0  0  0  0  0  0
    9.2702   -1.2128   -0.5782 C   0  0  0  0  0  0  0  0  0  0  0  0
    8.1967    2.1973   -0.0228 C   0  0  0  0  0  0  0  0  0  0  0  0
   -1.1536   -0.3750   -0.8124 H   0  0  0  0  0  0  0  0  0  0  0  0
   -2.0275    1.8541    1.0607 H   0  0  0  0  0  0  0  0  0  0  0  0
   -3.7521   -0.1131   -0.5416 H   0  0  0  0  0  0  0  0  0  0  0  0
   -2.5426   -2.1536    0.4651 H   0  0  0  0  0  0  0  0  0  0  0  0
   -2.3995   -2.2712    2.2107 H   0  0  0  0  0  0  0  0  0  0  0  0
    0.4663    1.6708    0.7867 H   0  0  0  0  0  0  0  0  0  0  0  0
   -3.4861   -0.1285    2.5118 H   0  0  0  0  0  0  0  0  0  0  0  0
   -4.4596   -1.1976    1.5190 H   0  0  0  0  0  0  0  0  0  0  0  0
    0.1902   -2.5875    1.9121 H   0  0  0  0  0  0  0  0  0  0  0  0
   -0.2631   -2.6017    0.2057 H   0  0  0  0  0  0  0  0  0  0  0  0
   -0.7945   -0.9199    3.4812 H   0  0  0  0  0  0  0  0  0  0  0  0
    0.2993    0.2291    2.7213 H   0  0  0  0  0  0  0  0  0  0  0  0
   -1.4025    0.6287    2.8956 H   0  0  0  0  0  0  0  0  0  0  0  0
   -4.7834    2.1548   -0.1941 H   0  0  0  0  0  0  0  0  0  0  0  0
    0.2943    1.0392   -2.2043 H   0  0  0  0  0  0  0  0  0  0  0  0
    1.5603    2.0455   -1.4947 H   0  0  0  0  0  0  0  0  0  0  0  0
   -0.0997    2.5724   -1.3935 H   0  0  0  0  0  0  0  0  0  0  0  0
   -2.4437    1.3562   -1.7065 H   0  0  0  0  0  0  0  0  0  0  0  0
   -3.6574    2.9079    1.7885 H   0  0  0  0  0  0  0  0  0  0  0  0
   -5.3873    2.8918    2.0198 H   0  0  0  0  0  0  0  0  0  0  0  0
   -4.4250    1.6549    2.7821 H   0  0  0  0  0  0  0  0  0  0  0  0
   -6.9506    1.2536   -2.3786 H   0  0  0  0  0  0  0  0  0  0  0  0
   -5.2985    1.3534   -1.8226 H   0  0  0  0  0  0  0  0  0  0  0  0
   -8.3259   -0.4414    0.5340 H   0  0  0  0  0  0  0  0  0  0  0  0
   -8.6950    0.2329   -1.0496 H   0  0  0  0  0  0  0  0  0  0  0  0
    5.3772   -1.6524    0.2770 H   0  0  0  0  0  0  0  0  0  0  0  0
   -5.0087   -1.1291   -2.0584 H   0  0  0  0  0  0  0  0  0  0  0  0
   -5.3914   -0.3129   -3.5784 H   0  0  0  0  0  0  0  0  0  0  0  0
   -7.0527   -2.3245   -0.5078 H   0  0  0  0  0  0  0  0  0  0  0  0
   -8.7342   -2.2821   -1.0564 H   0  0  0  0  0  0  0  0  0  0  0  0
    7.3219   -2.2756   -0.8301 H   0  0  0  0  0  0  0  0  0  0  0  0
   10.4759    0.6399   -0.2200 H   0  0  0  0  0  0  0  0  0  0  0  0
   10.0101   -1.9926   -0.6915 H   0  0  0  0  0  0  0  0  0  0  0  0
    9.1675    2.6144    0.2590 H   0  0  0  0  0  0  0  0  0  0  0  0
    7.4901    2.3497    0.7968 H   0  0  0  0  0  0  0  0  0  0  0  0
    7.8483    2.6723   -0.9431 H   0  0  0  0  0  0  0  0  0  0  0  0
  1 21  1  0  0  0  0
  1 25  1  0  0  0  0
  2 28  1  0  0  0  0
  2 29  1  0  0  0  0
  3 12  1  0  0  0  0
  3 53  1  0  0  0  0
  4 24  2  0  0  0  0
  5 30  2  0  0  0  0
  6 20  1  0  0  0  0
  6 25  2  0  0  0  0
  7 24  1  0  0  0  0
  7 26  1  0  0  0  0
  7 27  1  0  0  0  0
  8 25  1  0  0  0  0
  8 30  1  0  0  0  0
  8 61  1  0  0  0  0
  9 31  1  0  0  0  0
  9 33  1  0  0  0  0
  9 35  1  0  0  0  0
 10 11  1  0  0  0  0
 10 14  1  0  0  0  0
 10 17  1  0  0  0  0
 10 18  1  0  0  0  0
 11 12  1  0  0  0  0
 11 15  1  0  0  0  0
 11 36  1  0  0  0  0
 12 13  1  0  0  0  0
 12 37  1  0  0  0  0
 13 16  1  0  0  0  0
 13 19  1  0  0  0  0
 13 38  1  0  0  0  0
 14 16  1  0  0  0  0
 14 39  1  0  0  0  0
 14 40  1  0  0  0  0
 15 20  1  0  0  0  0
 15 22  1  0  0  0  0
 15 41  1  0  0  0  0
 16 42  1  0  0  0  0
 16 43  1  0  0  0  0
 17 21  1  0  0  0  0
 17 44  1  0  0  0  0
 17 45  1  0  0  0  0
 18 46  1  0  0  0  0
 18 47  1  0  0  0  0
 18 48  1  0  0  0  0
 19 23  1  0  0  0  0
 19 24  1  0  0  0  0
 19 49  1  0  0  0  0
 20 21  2  0  0  0  0
 22 50  1  0  0  0  0
 22 51  1  0  0  0  0
 22 52  1  0  0  0  0
 23 54  1  0  0  0  0
 23 55  1  0  0  0  0
 23 56  1  0  0  0  0
 26 28  1  0  0  0  0
 26 57  1  0  0  0  0
 26 58  1  0  0  0  0
 27 29  1  0  0  0  0
 27 59  1  0  0  0  0
 27 60  1  0  0  0  0
 28 62  1  0  0  0  0
 28 63  1  0  0  0  0
 29 64  1  0  0  0  0
 29 65  1  0  0  0  0
 30 31  1  0  0  0  0
 31 32  2  0  0  0  0
 32 34  1  0  0  0  0
 32 66  1  0  0  0  0
 33 34  2  0  0  0  0
 33 67  1  0  0  0  0
 34 68  1  0  0  0  0
 35 69  1  0  0  0  0
 35 70  1  0  0  0  0
 35 71  1  0  0  0  0
M  END
> <PUBCHEM_COMPOUND_CID>
23928013

> <PUBCHEM_CONFORMER_RMSD>
1

> <PUBCHEM_CONFORMER_DIVERSEORDER>
1
92
67
32
89
79
61
94
35
29
74
47
20
91
87
93
44
11
27
97
52
85
84
76
30
55
34
71
70
22
12
59
50
78
95
64
28
17
63
36
23
56
81
46
96
88
43
49
42
37
86
8
75
69
80
83
39
19
24
68
58
65
66
15
9
25
41
90
48
51
62
14
5
57
77
16
73
21
82
3
40
45
72
26
53
6
10
60
38
2
31
4
13
33
18
7
54

> <PUBCHEM_MMFF94_PARTIAL_CHARGES>
32
1 -0.08
12 0.28
15 0.18
17 0.18
19 0.06
2 -0.46
20 0.05
21 -0.14
24 0.57
25 0.44
26 0.3
27 0.3
28 0.23
29 0.23
3 -0.68
30 0.71
31 -0.24
32 -0.15
33 -0.3
34 -0.15
35 0.26
4 -0.57
5 -0.57
53 0.4
6 -0.57
61 0.37
66 0.15
67 0.15
68 0.15
7 -0.66
8 -0.49
9 0.05

> <PUBCHEM_EFFECTIVE_ROTOR_COUNT>
8.4

> <PUBCHEM_PHARMACOPHORE_FEATURES>
12
1 23 hydrophobe
1 3 acceptor
1 3 donor
1 4 acceptor
1 5 acceptor
1 8 donor
1 9 cation
5 1 6 20 21 25 rings
5 9 31 32 33 34 rings
6 10 11 12 13 14 16 rings
6 10 11 15 17 20 21 rings
6 2 7 26 27 28 29 rings

> <PUBCHEM_HEAVY_ATOM_COUNT>
35

> <PUBCHEM_ATOM_DEF_STEREO_COUNT>
5

> <PUBCHEM_ATOM_UDEF_STEREO_COUNT>
1

> <PUBCHEM_BOND_DEF_STEREO_COUNT>
0

> <PUBCHEM_BOND_UDEF_STEREO_COUNT>
0

> <PUBCHEM_ISOTOPIC_ATOM_COUNT>
0

> <PUBCHEM_COMPONENT_COUNT>
1

> <PUBCHEM_CACTVS_TAUTO_COUNT>
3

> <PUBCHEM_CONFORMER_ID>
016D1CCD00000001

> <PUBCHEM_MMFF94_ENERGY>
90.1501

> <PUBCHEM_FEATURE_SELFOVERLAP>
60.978

> <PUBCHEM_SHAPE_FINGERPRINT>
10 15 16660645146179539994
10299344 5 17847059974102436782
11135926 11 18113340790838935675
11315181 36 18409174311434585833
11477941 20 18272366452442794233
11578821 258 16877951546547087996
12082328 90 17489590026054872213
12144603 126 18343304730932369409
12838862 33 17821719559913949664
13673619 4 12823294589855629506
13811026 1 18259708917205858170
14117953 113 17749396958099447110
14150023 24 16153422848907036258
14856354 85 17274816961752450077
15289351 153 17604141537874074752
15301273 46 14996283592211027042
15461852 350 17704075096754040412
1577012 14 18337391526589322041
17324776 126 14185305969131676437
1754911 235 18409727348392426357
17686467 74 16128368281818661650
19611394 137 15266770130975300111
20105231 36 13470690356225914268
20982279 24 13326034230278764276
21150785 3 17560803225659773842
21772524 286 12901809585339744878
21781051 124 14692567767059924076
21792961 116 17240760649648742966
23559900 14 18261677085595171568
24771293 8 18260836959932408668
249057 3 17240488030910473156
2747138 104 14117796912436323682
335352 9 18259992578790076676
335507 130 17561085817190909789
395649 100 18342455988858952871
4339292 15 15984810559424091965
437795 83 17895185555259392709
504579 68 18411696595414389334
54039377 194 18130503137521797455
6009941 240 15864078679954801672
6201320 215 13840528649775207271
636775 8 15769776887729197590
6691757 9 18187938278169626259

> <PUBCHEM_SHAPE_MULTIPOLES>
690.45
29.3
2.07
1.99
42.11
0.24
-0.29
9.04
10.9
-3.63
0.37
-1.47
0.12
-3.14

> <PUBCHEM_SHAPE_SELFOVERLAP>
1447.727

> <PUBCHEM_SHAPE_VOLUME>
395.6

> <PUBCHEM_COORDINATE_TYPE>
2
5
10

$$$$
