75536305
  -OEChem-12032416303D

 57 60  0     1  0  0  0  0  0999 V2000
    3.5251   -0.0629    0.8445 O   0  0  0  0  0  0  0  0  0  0  0  0
    6.2313    0.7955    1.6368 O   0  0  0  0  0  0  0  0  0  0  0  0
   -0.2159   -2.2148   -1.4802 O   0  0  0  0  0  0  0  0  0  0  0  0
    0.8772    1.4951   -1.5259 O   0  0  0  0  0  0  0  0  0  0  0  0
   -1.6397    1.2014   -0.6167 O   0  0  0  0  0  0  0  0  0  0  0  0
    1.6881    2.0718    0.5780 N   0  0  0  0  0  0  0  0  0  0  0  0
    1.1507   -2.1950   -1.7314 N   0  0  0  0  0  0  0  0  0  0  0  0
    3.7493   -0.6375   -0.4453 C   0  0  1  0  0  0  0  0  0  0  0  0
    3.9625    1.2943    0.9919 C   0  0  1  0  0  0  0  0  0  0  0  0
    5.4465    1.4449    0.6330 C   0  0  2  0  0  0  0  0  0  0  0  0
    5.2366   -0.6151   -0.7941 C   0  0  0  0  0  0  0  0  0  0  0  0
    5.7874    0.8056   -0.7104 C   0  0  0  0  0  0  0  0  0  0  0  0
    3.2222   -2.0668   -0.4083 C   0  0  0  0  0  0  0  0  0  0  0  0
    3.0608    2.2506    0.2140 C   0  0  0  0  0  0  0  0  0  0  0  0
    1.7223   -2.1112   -0.5267 C   0  0  0  0  0  0  0  0  0  0  0  0
    0.7758   -2.0750    0.5118 C   0  0  0  0  0  0  0  0  0  0  0  0
    0.6965    1.7049   -0.3295 C   0  0  0  0  0  0  0  0  0  0  0  0
   -0.4265   -2.1427   -0.1410 C   0  0  0  0  0  0  0  0  0  0  0  0
   -0.6627    1.5868    0.3267 C   0  0  0  0  0  0  0  0  0  0  0  0
   -1.7989   -2.1552    0.2746 C   0  0  0  0  0  0  0  0  0  0  0  0
   -2.1175   -2.0879    1.6308 C   0  0  0  0  0  0  0  0  0  0  0  0
   -2.8152   -2.2349   -0.6774 C   0  0  0  0  0  0  0  0  0  0  0  0
   -3.4525   -2.1002    2.0352 C   0  0  0  0  0  0  0  0  0  0  0  0
   -4.1501   -2.2471   -0.2732 C   0  0  0  0  0  0  0  0  0  0  0  0
   -2.9259    1.6372   -0.4016 C   0  0  0  0  0  0  0  0  0  0  0  0
   -4.4688   -2.1798    1.0833 C   0  0  0  0  0  0  0  0  0  0  0  0
   -3.3814    1.8514    0.8993 C   0  0  0  0  0  0  0  0  0  0  0  0
   -3.7752    1.8650   -1.4843 C   0  0  0  0  0  0  0  0  0  0  0  0
   -4.6864    2.2934    1.1176 C   0  0  0  0  0  0  0  0  0  0  0  0
   -5.0800    2.3071   -1.2661 C   0  0  0  0  0  0  0  0  0  0  0  0
   -5.5357    2.5213    0.0347 C   0  0  0  0  0  0  0  0  0  0  0  0
    3.1973   -0.0670   -1.2011 H   0  0  0  0  0  0  0  0  0  0  0  0
    3.8450    1.5113    2.0615 H   0  0  0  0  0  0  0  0  0  0  0  0
    5.7338    2.5022    0.6373 H   0  0  0  0  0  0  0  0  0  0  0  0
    5.4034   -1.0186   -1.7993 H   0  0  0  0  0  0  0  0  0  0  0  0
    5.7911   -1.2503   -0.0916 H   0  0  0  0  0  0  0  0  0  0  0  0
    6.8733    0.7751   -0.8579 H   0  0  0  0  0  0  0  0  0  0  0  0
    5.3656    1.4059   -1.5248 H   0  0  0  0  0  0  0  0  0  0  0  0
    3.5177   -2.5632    0.5249 H   0  0  0  0  0  0  0  0  0  0  0  0
    3.6471   -2.6521   -1.2340 H   0  0  0  0  0  0  0  0  0  0  0  0
    3.1729    2.1288   -0.8671 H   0  0  0  0  0  0  0  0  0  0  0  0
    3.3241    3.2870    0.4523 H   0  0  0  0  0  0  0  0  0  0  0  0
    7.1675    0.9423    1.4184 H   0  0  0  0  0  0  0  0  0  0  0  0
    1.4256    2.2579    1.5417 H   0  0  0  0  0  0  0  0  0  0  0  0
    0.9534   -2.0078    1.5752 H   0  0  0  0  0  0  0  0  0  0  0  0
   -0.6025    0.8395    1.1253 H   0  0  0  0  0  0  0  0  0  0  0  0
   -0.8768    2.5740    0.7577 H   0  0  0  0  0  0  0  0  0  0  0  0
   -1.3480   -2.0234    2.3957 H   0  0  0  0  0  0  0  0  0  0  0  0
   -2.6075   -2.2867   -1.7431 H   0  0  0  0  0  0  0  0  0  0  0  0
   -3.7010   -2.0463    3.0911 H   0  0  0  0  0  0  0  0  0  0  0  0
   -4.9419   -2.3069   -1.0142 H   0  0  0  0  0  0  0  0  0  0  0  0
   -5.5082   -2.1877    1.3978 H   0  0  0  0  0  0  0  0  0  0  0  0
   -2.7604    1.6588    1.7692 H   0  0  0  0  0  0  0  0  0  0  0  0
   -3.4257    1.6989   -2.4995 H   0  0  0  0  0  0  0  0  0  0  0  0
   -5.0437    2.4535    2.1307 H   0  0  0  0  0  0  0  0  0  0  0  0
   -5.7416    2.4837   -2.1091 H   0  0  0  0  0  0  0  0  0  0  0  0
   -6.5523    2.8636    0.2046 H   0  0  0  0  0  0  0  0  0  0  0  0
  1  8  1  0  0  0  0
  1  9  1  0  0  0  0
  2 10  1  0  0  0  0
  2 43  1  0  0  0  0
  3  7  1  0  0  0  0
  3 18  1  0  0  0  0
  4 17  2  0  0  0  0
  5 19  1  0  0  0  0
  5 25  1  0  0  0  0
  6 14  1  0  0  0  0
  6 17  1  0  0  0  0
  6 44  1  0  0  0  0
  7 15  2  0  0  0  0
  8 11  1  0  0  0  0
  8 13  1  0  0  0  0
  8 32  1  0  0  0  0
  9 10  1  0  0  0  0
  9 14  1  0  0  0  0
  9 33  1  0  0  0  0
 10 12  1  0  0  0  0
 10 34  1  0  0  0  0
 11 12  1  0  0  0  0
 11 35  1  0  0  0  0
 11 36  1  0  0  0  0
 12 37  1  0  0  0  0
 12 38  1  0  0  0  0
 13 15  1  0  0  0  0
 13 39  1  0  0  0  0
 13 40  1  0  0  0  0
 14 41  1  0  0  0  0
 14 42  1  0  0  0  0
 15 16  1  0  0  0  0
 16 18  2  0  0  0  0
 16 45  1  0  0  0  0
 17 19  1  0  0  0  0
 18 20  1  0  0  0  0
 19 46  1  0  0  0  0
 19 47  1  0  0  0  0
 20 21  2  0  0  0  0
 20 22  1  0  0  0  0
 21 23  1  0  0  0  0
 21 48  1  0  0  0  0
 22 24  2  0  0  0  0
 22 49  1  0  0  0  0
 23 26  2  0  0  0  0
 23 50  1  0  0  0  0
 24 26  1  0  0  0  0
 24 51  1  0  0  0  0
 25 27  2  0  0  0  0
 25 28  1  0  0  0  0
 26 52  1  0  0  0  0
 27 29  1  0  0  0  0
 27 53  1  0  0  0  0
 28 30  2  0  0  0  0
 28 54  1  0  0  0  0
 29 31  2  0  0  0  0
 29 55  1  0  0  0  0
 30 31  1  0  0  0  0
 30 56  1  0  0  0  0
 31 57  1  0  0  0  0
M  END
> <PUBCHEM_COMPOUND_CID>
75536305

> <PUBCHEM_CONFORMER_RMSD>
1.2

> <PUBCHEM_CONFORMER_DIVERSEORDER>
1
31
102
147
24
5
94
89
148
124
143
44
27
116
87
129
92
40
2
97
45
15
140
79
120
4
85
122
123
51
65
113
114
49
58
56
3
105
55
100
119
38
91
67
95
14
8
98
26
81
134
62
133
117
151
37
73
19
132
83
12
17
34
103
29
128
69
68
121
115
78
57
84
144
70
106
80
36
20
41
39
11
136
93
59
53
88
141
43
76
86
135
74
137
30
150
112
33
127
10
47
63
25
82
64
50
109
125
52
99
108
90
138
22
142
96
35
32
145
75
9
71
118
131
110
60
21
72
101
13
42
6
130
66
16
23
18
54
28
107
46
48
111
126
104
146
77
149
139
7
61

> <PUBCHEM_MMFF94_PARTIAL_CHARGES>
42
1 -0.56
10 0.28
13 0.18
14 0.3
15 0.11
16 -0.15
17 0.57
18 0.09
19 0.34
2 -0.68
20 0.05
21 -0.15
22 -0.15
23 -0.15
24 -0.15
25 0.08
26 -0.15
27 -0.15
28 -0.15
29 -0.15
3 -0.02
30 -0.15
31 -0.15
4 -0.57
43 0.4
44 0.37
45 0.15
48 0.15
49 0.15
5 -0.36
50 0.15
51 0.15
52 0.15
53 0.15
54 0.15
55 0.15
56 0.15
57 0.15
6 -0.73
7 -0.41
8 0.28
9 0.28

> <PUBCHEM_EFFECTIVE_ROTOR_COUNT>
10.2

> <PUBCHEM_PHARMACOPHORE_FEATURES>
11
1 1 acceptor
1 2 acceptor
1 2 donor
1 4 acceptor
1 5 acceptor
1 6 donor
1 7 acceptor
5 3 7 15 16 18 rings
6 1 8 9 10 11 12 rings
6 20 21 22 23 24 26 rings
6 25 27 28 29 30 31 rings

> <PUBCHEM_HEAVY_ATOM_COUNT>
31

> <PUBCHEM_ATOM_DEF_STEREO_COUNT>
3

> <PUBCHEM_ATOM_UDEF_STEREO_COUNT>
0

> <PUBCHEM_BOND_DEF_STEREO_COUNT>
0

> <PUBCHEM_BOND_UDEF_STEREO_COUNT>
0

> <PUBCHEM_ISOTOPIC_ATOM_COUNT>
0

> <PUBCHEM_COMPONENT_COUNT>
1

> <PUBCHEM_CACTVS_TAUTO_COUNT>
2

> <PUBCHEM_CONFORMER_ID>
048097B100000001

> <PUBCHEM_MMFF94_ENERGY>
66.1699

> <PUBCHEM_FEATURE_SELFOVERLAP>
55.833

> <PUBCHEM_SHAPE_FINGERPRINT>
11112241 14 17703209806736102752
11513181 2 18060135410133233006
11578080 2 18201170858013651899
12107698 1 18189049965934604003
12422481 6 18193584301012408019
12597179 24 18409727327149568233
12633257 1 18263070020893043162
13140716 1 18265333915335101442
13402501 40 18411702071323410405
13726171 33 18189916364672387212
14251764 38 18410013277324264085
15968369 153 18342189877712573201
21033648 144 18338790113727253061
21033648 29 18201992266160907474
21236236 1 18409729586064976025
21279426 13 18342464712316631110
21360443 126 18187642492778479901
22182313 1 18270978885346529910
23559900 14 18342738486343302060
3052486 1 18260553333508859462
338550 245 18335708294477982132
350125 39 18410301345455263781
4144715 1 18335993007923987106
469060 322 17095240332656926447
5081480 168 16771299953602231622
508706 21 18261117395637452699
5104073 3 18335416842587759170
5265222 85 18124322859665660868
56638632 10 17559955609157881504
6669772 16 18188203183615948875

> <PUBCHEM_SHAPE_MULTIPOLES>
598.66
13.12
4.09
1.51
8.22
0.66
-0.12
-6.74
-1.73
-4.24
0
-0.51
0.25
2.06

> <PUBCHEM_SHAPE_SELFOVERLAP>
1282.219

> <PUBCHEM_SHAPE_VOLUME>
330.7

> <PUBCHEM_COORDINATE_TYPE>
2
5
10

$$$$
