75367755
  -OEChem-12032416403D

 33 34  0     1  0  0  0  0  0999 V2000
    3.2694   -0.4148   -1.8139 O   0  0  0  0  0  0  0  0  0  0  0  0
    4.4694   -0.9370    1.5393 O   0  0  0  0  0  0  0  0  0  0  0  0
    1.2204    0.4696    0.3645 N   0  0  2  0  0  0  0  0  0  0  0  0
   -3.9478   -2.9451    0.0143 N   0  0  0  0  0  0  0  0  0  0  0  0
    2.3672    0.1829    1.2334 C   0  0  0  0  0  0  0  0  0  0  0  0
    3.6822   -0.2495    0.5657 C   0  0  2  0  0  0  0  0  0  0  0  0
    1.5679    1.1252   -0.8970 C   0  0  0  0  0  0  0  0  0  0  0  0
    0.2084    1.2276    1.1013 C   0  0  0  0  0  0  0  0  0  0  0  0
    3.5045   -1.1729   -0.6320 C   0  0  0  0  0  0  0  0  0  0  0  0
    1.9423    0.0757   -1.9444 C   0  0  0  0  0  0  0  0  0  0  0  0
   -1.1771    0.9793    0.5669 C   0  0  0  0  0  0  0  0  0  0  0  0
   -1.6968   -0.3149    0.5463 C   0  0  0  0  0  0  0  0  0  0  0  0
   -1.9419    2.0456    0.0934 C   0  0  0  0  0  0  0  0  0  0  0  0
   -2.9811   -0.5433    0.0522 C   0  0  0  0  0  0  0  0  0  0  0  0
   -3.2265    1.8173   -0.4003 C   0  0  0  0  0  0  0  0  0  0  0  0
   -3.7460    0.5230   -0.4212 C   0  0  0  0  0  0  0  0  0  0  0  0
   -3.5145   -1.8686    0.0314 C   0  0  0  0  0  0  0  0  0  0  0  0
    2.0619   -0.5967    1.9448 H   0  0  0  0  0  0  0  0  0  0  0  0
    2.6051    1.0606    1.8520 H   0  0  0  0  0  0  0  0  0  0  0  0
    4.2435    0.6405    0.2553 H   0  0  0  0  0  0  0  0  0  0  0  0
    2.3636    1.8677   -0.7618 H   0  0  0  0  0  0  0  0  0  0  0  0
    0.7014    1.6616   -1.3021 H   0  0  0  0  0  0  0  0  0  0  0  0
    0.4514    2.2986    1.1199 H   0  0  0  0  0  0  0  0  0  0  0  0
    0.1796    0.9133    2.1547 H   0  0  0  0  0  0  0  0  0  0  0  0
    4.4305   -1.7346   -0.8008 H   0  0  0  0  0  0  0  0  0  0  0  0
    2.7174   -1.9207   -0.4756 H   0  0  0  0  0  0  0  0  0  0  0  0
    1.2331   -0.7615   -1.9584 H   0  0  0  0  0  0  0  0  0  0  0  0
    1.8874    0.5435   -2.9339 H   0  0  0  0  0  0  0  0  0  0  0  0
    4.6093   -0.3285    2.2849 H   0  0  0  0  0  0  0  0  0  0  0  0
   -1.1022   -1.1458    0.9210 H   0  0  0  0  0  0  0  0  0  0  0  0
   -1.5500    3.0591    0.1027 H   0  0  0  0  0  0  0  0  0  0  0  0
   -3.8219    2.6475   -0.7690 H   0  0  0  0  0  0  0  0  0  0  0  0
   -4.7488    0.3612   -0.8093 H   0  0  0  0  0  0  0  0  0  0  0  0
  1  9  1  0  0  0  0
  1 10  1  0  0  0  0
  2  6  1  0  0  0  0
  2 29  1  0  0  0  0
  3  5  1  0  0  0  0
  3  7  1  0  0  0  0
  3  8  1  0  0  0  0
  4 17  3  0  0  0  0
  5  6  1  0  0  0  0
  5 18  1  0  0  0  0
  5 19  1  0  0  0  0
  6  9  1  0  0  0  0
  6 20  1  0  0  0  0
  7 10  1  0  0  0  0
  7 21  1  0  0  0  0
  7 22  1  0  0  0  0
  8 11  1  0  0  0  0
  8 23  1  0  0  0  0
  8 24  1  0  0  0  0
  9 25  1  0  0  0  0
  9 26  1  0  0  0  0
 10 27  1  0  0  0  0
 10 28  1  0  0  0  0
 11 12  2  0  0  0  0
 11 13  1  0  0  0  0
 12 14  1  0  0  0  0
 12 30  1  0  0  0  0
 13 15  2  0  0  0  0
 13 31  1  0  0  0  0
 14 16  2  0  0  0  0
 14 17  1  0  0  0  0
 15 16  1  0  0  0  0
 15 32  1  0  0  0  0
 16 33  1  0  0  0  0
M  END
> <PUBCHEM_COMPOUND_CID>
75367755

> <PUBCHEM_CONFORMER_RMSD>
0.6

> <PUBCHEM_CONFORMER_DIVERSEORDER>
1
67
22
69
79
51
70
78
16
44
60
48
20
71
68
35
50
14
41
64
77
11
49
74
31
13
62
57
65
54
10
15
63
6
25
80
34
47
56
19
12
29
66
59
73
52
4
39
21
43
58
3
7
27
5
28
30
72
33
17
2
9
46
8
45
42
61
75
55
18
32
23
38
76
24
26
53
40
36
37

> <PUBCHEM_MMFF94_PARTIAL_CHARGES>
22
1 -0.56
10 0.28
11 -0.14
12 -0.15
13 -0.15
14 0.07
15 -0.15
16 -0.15
17 0.48
2 -0.68
29 0.4
3 -0.81
30 0.15
31 0.15
32 0.15
33 0.15
4 -0.56
5 0.27
6 0.28
7 0.27
8 0.41
9 0.28

> <PUBCHEM_EFFECTIVE_ROTOR_COUNT>
3.4

> <PUBCHEM_PHARMACOPHORE_FEATURES>
7
1 1 acceptor
1 2 acceptor
1 2 donor
1 3 cation
1 4 acceptor
6 11 12 13 14 15 16 rings
7 1 3 5 6 7 9 10 rings

> <PUBCHEM_HEAVY_ATOM_COUNT>
17

> <PUBCHEM_ATOM_DEF_STEREO_COUNT>
1

> <PUBCHEM_ATOM_UDEF_STEREO_COUNT>
0

> <PUBCHEM_BOND_DEF_STEREO_COUNT>
0

> <PUBCHEM_BOND_UDEF_STEREO_COUNT>
0

> <PUBCHEM_ISOTOPIC_ATOM_COUNT>
0

> <PUBCHEM_COMPONENT_COUNT>
1

> <PUBCHEM_CACTVS_TAUTO_COUNT>
1

> <PUBCHEM_CONFORMER_ID>
047E054B00000001

> <PUBCHEM_MMFF94_ENERGY>
44.8838

> <PUBCHEM_FEATURE_SELFOVERLAP>
35.522

> <PUBCHEM_SHAPE_FINGERPRINT>
10062212 137 17895191065322014011
11471102 22 16271925965764590612
11578080 2 17532905329919041004
12202030 40 17917437557291238001
12346177 29 18409441467122057261
12363563 72 18270401710598469987
13296908 3 17847064358879151108
13693222 15 15913324654722319064
14115302 16 18408323255175409045
14251764 30 17533230897647080643
14252887 29 16988848280528436722
14386348 63 17846499218560824759
15342816 4 18193563500137828111
15375358 24 17560510703626576057
16752209 62 18261103097997402971
17834072 14 18060413582342856296
18186145 218 14056725634171790080
19107657 162 18131634482349463630
19433438 15 17458347390256100861
20279233 1 17846213324020756861
20403669 9 18271524307860442175
204376 136 15912460512172221040
20626108 58 18187074083721061146
20645476 183 17458622273169973897
20645477 70 16343135806019758900
20871998 22 18051973912157013433
21639500 275 15791740723458089332
21728266 224 18335123293935674794
231179 274 12613036119368043708
23402539 116 16588298325060187904
23557571 272 18201433662435334289
23559900 14 18200314299985083004
23598291 2 17530683199411550255
25 1 14418138387613802696
3082319 5 17676213476179806205
4028521 119 12324232884657521999
59027123 10 16805599257184702687
633830 44 15574998325395983876
74978 22 16878239622487325208
81228 2 17344082778933556185
9709674 26 18131067091310142061

> <PUBCHEM_SHAPE_MULTIPOLES>
328.15
8.51
2.12
1.42
1.8
0.92
0.38
4.02
-0.02
-3.06
-0.02
1.82
-0.02
0.13

> <PUBCHEM_SHAPE_SELFOVERLAP>
679.629

> <PUBCHEM_SHAPE_VOLUME>
183.7

> <PUBCHEM_COORDINATE_TYPE>
2
5
10

$$$$
