75366945
  -OEChem-12032416393D

 61 64  0     1  0  0  0  0  0999 V2000
   -6.3874   -1.0642    0.1219 F   0  0  0  0  0  0  0  0  0  0  0  0
    3.1086   -0.3682    0.6958 O   0  0  0  0  0  0  0  0  0  0  0  0
    5.7734    0.5511    1.5571 O   0  0  0  0  0  0  0  0  0  0  0  0
    1.7701    3.6681   -0.3560 O   0  0  0  0  0  0  0  0  0  0  0  0
   -0.5709   -3.1053   -1.0362 O   0  0  0  0  0  0  0  0  0  0  0  0
   -0.2276    2.5253   -0.6629 N   0  0  0  0  0  0  0  0  0  0  0  0
    1.7820    1.4445   -1.0237 N   0  0  0  0  0  0  0  0  0  0  0  0
    0.7960   -3.3354   -0.9369 N   0  0  0  0  0  0  0  0  0  0  0  0
    3.7714    0.8188    0.2409 C   0  0  1  0  0  0  0  0  0  0  0  0
    5.2939    0.6321    0.2122 C   0  0  2  0  0  0  0  0  0  0  0  0
    3.4149   -1.5555   -0.0392 C   0  0  1  0  0  0  0  0  0  0  0  0
   -1.1157    3.6138   -0.3201 C   0  0  0  0  0  0  0  0  0  0  0  0
    5.7091   -0.6480   -0.5078 C   0  0  0  0  0  0  0  0  0  0  0  0
    4.9143   -1.8453    0.0055 C   0  0  0  0  0  0  0  0  0  0  0  0
   -1.3861    3.6505    1.1879 C   0  0  0  0  0  0  0  0  0  0  0  0
   -2.4220    3.5305   -1.1168 C   0  0  0  0  0  0  0  0  0  0  0  0
   -2.2841    2.5025    1.6490 C   0  0  0  0  0  0  0  0  0  0  0  0
   -3.3185    2.3829   -0.6518 C   0  0  0  0  0  0  0  0  0  0  0  0
   -3.5823    2.4471    0.8496 C   0  0  0  0  0  0  0  0  0  0  0  0
    3.2029    1.2882   -1.0967 C   0  0  0  0  0  0  0  0  0  0  0  0
    2.6227   -2.6980    0.5847 C   0  0  0  0  0  0  0  0  0  0  0  0
    1.1598    2.6420   -0.6532 C   0  0  0  0  0  0  0  0  0  0  0  0
    1.1793   -2.6735    0.1586 C   0  0  0  0  0  0  0  0  0  0  0  0
    0.1082   -2.0136    0.7854 C   0  0  0  0  0  0  0  0  0  0  0  0
   -0.9686   -2.3168   -0.0050 C   0  0  0  0  0  0  0  0  0  0  0  0
   -2.3652   -1.9928    0.0277 C   0  0  0  0  0  0  0  0  0  0  0  0
   -3.0009   -1.7689    1.2490 C   0  0  0  0  0  0  0  0  0  0  0  0
   -3.0883   -1.9028   -1.1617 C   0  0  0  0  0  0  0  0  0  0  0  0
   -4.3595   -1.4550    1.2810 C   0  0  0  0  0  0  0  0  0  0  0  0
   -4.4470   -1.5890   -1.1299 C   0  0  0  0  0  0  0  0  0  0  0  0
   -5.0826   -1.3651    0.0915 C   0  0  0  0  0  0  0  0  0  0  0  0
    3.5359    1.5781    0.9977 H   0  0  0  0  0  0  0  0  0  0  0  0
    5.7758    1.5025   -0.2465 H   0  0  0  0  0  0  0  0  0  0  0  0
    3.1041   -1.4287   -1.0832 H   0  0  0  0  0  0  0  0  0  0  0  0
   -0.6068    4.5456   -0.5965 H   0  0  0  0  0  0  0  0  0  0  0  0
    5.5413   -0.5376   -1.5856 H   0  0  0  0  0  0  0  0  0  0  0  0
    6.7783   -0.8423   -0.3632 H   0  0  0  0  0  0  0  0  0  0  0  0
    5.1539   -2.7326   -0.5914 H   0  0  0  0  0  0  0  0  0  0  0  0
    5.2201   -2.0548    1.0385 H   0  0  0  0  0  0  0  0  0  0  0  0
   -1.8744    4.6009    1.4384 H   0  0  0  0  0  0  0  0  0  0  0  0
   -0.4444    3.6215    1.7490 H   0  0  0  0  0  0  0  0  0  0  0  0
   -2.2089    3.4142   -2.1863 H   0  0  0  0  0  0  0  0  0  0  0  0
   -2.9703    4.4743   -1.0023 H   0  0  0  0  0  0  0  0  0  0  0  0
   -2.5140    2.6222    2.7139 H   0  0  0  0  0  0  0  0  0  0  0  0
   -1.7500    1.5500    1.5457 H   0  0  0  0  0  0  0  0  0  0  0  0
   -2.8564    1.4212   -0.9022 H   0  0  0  0  0  0  0  0  0  0  0  0
   -4.2714    2.4224   -1.1919 H   0  0  0  0  0  0  0  0  0  0  0  0
   -4.1839    3.3368    1.0737 H   0  0  0  0  0  0  0  0  0  0  0  0
   -4.1733    1.5803    1.1614 H   0  0  0  0  0  0  0  0  0  0  0  0
    3.3974    0.5747   -1.9023 H   0  0  0  0  0  0  0  0  0  0  0  0
    3.6575    2.2427   -1.3846 H   0  0  0  0  0  0  0  0  0  0  0  0
    2.6685   -2.6466    1.6800 H   0  0  0  0  0  0  0  0  0  0  0  0
    3.0494   -3.6650    0.2886 H   0  0  0  0  0  0  0  0  0  0  0  0
   -0.6253    1.6102   -0.8501 H   0  0  0  0  0  0  0  0  0  0  0  0
    1.1972    0.6423   -1.2377 H   0  0  0  0  0  0  0  0  0  0  0  0
    6.7426    0.4811    1.5198 H   0  0  0  0  0  0  0  0  0  0  0  0
    0.1229   -1.4053    1.6782 H   0  0  0  0  0  0  0  0  0  0  0  0
   -2.4593   -1.8361    2.1895 H   0  0  0  0  0  0  0  0  0  0  0  0
   -2.6169   -2.0640   -2.1282 H   0  0  0  0  0  0  0  0  0  0  0  0
   -4.8549   -1.2802    2.2315 H   0  0  0  0  0  0  0  0  0  0  0  0
   -5.0100   -1.5164   -2.0556 H   0  0  0  0  0  0  0  0  0  0  0  0
  1 31  1  0  0  0  0
  2  9  1  0  0  0  0
  2 11  1  0  0  0  0
  3 10  1  0  0  0  0
  3 56  1  0  0  0  0
  4 22  2  0  0  0  0
  5  8  1  0  0  0  0
  5 25  1  0  0  0  0
  6 12  1  0  0  0  0
  6 22  1  0  0  0  0
  6 54  1  0  0  0  0
  7 20  1  0  0  0  0
  7 22  1  0  0  0  0
  7 55  1  0  0  0  0
  8 23  2  0  0  0  0
  9 10  1  0  0  0  0
  9 20  1  0  0  0  0
  9 32  1  0  0  0  0
 10 13  1  0  0  0  0
 10 33  1  0  0  0  0
 11 14  1  0  0  0  0
 11 21  1  0  0  0  0
 11 34  1  0  0  0  0
 12 15  1  0  0  0  0
 12 16  1  0  0  0  0
 12 35  1  0  0  0  0
 13 14  1  0  0  0  0
 13 36  1  0  0  0  0
 13 37  1  0  0  0  0
 14 38  1  0  0  0  0
 14 39  1  0  0  0  0
 15 17  1  0  0  0  0
 15 40  1  0  0  0  0
 15 41  1  0  0  0  0
 16 18  1  0  0  0  0
 16 42  1  0  0  0  0
 16 43  1  0  0  0  0
 17 19  1  0  0  0  0
 17 44  1  0  0  0  0
 17 45  1  0  0  0  0
 18 19  1  0  0  0  0
 18 46  1  0  0  0  0
 18 47  1  0  0  0  0
 19 48  1  0  0  0  0
 19 49  1  0  0  0  0
 20 50  1  0  0  0  0
 20 51  1  0  0  0  0
 21 23  1  0  0  0  0
 21 52  1  0  0  0  0
 21 53  1  0  0  0  0
 23 24  1  0  0  0  0
 24 25  2  0  0  0  0
 24 57  1  0  0  0  0
 25 26  1  0  0  0  0
 26 27  2  0  0  0  0
 26 28  1  0  0  0  0
 27 29  1  0  0  0  0
 27 58  1  0  0  0  0
 28 30  2  0  0  0  0
 28 59  1  0  0  0  0
 29 31  2  0  0  0  0
 29 60  1  0  0  0  0
 30 31  1  0  0  0  0
 30 61  1  0  0  0  0
M  END
> <PUBCHEM_COMPOUND_CID>
75366945

> <PUBCHEM_CONFORMER_RMSD>
1.2

> <PUBCHEM_CONFORMER_DIVERSEORDER>
1
92
121
119
3
101
75
44
60
41
80
116
107
13
82
22
56
9
97
36
105
10
28
117
79
32
50
111
81
108
110
76
53
14
46
54
118
64
12
85
68
86
109
21
106
31
74
30
37
87
65
4
91
45
69
16
99
94
67
23
59
84
72
104
102
114
18
98
63
51
113
78
95
19
17
120
103
35
33
61
73
66
90
83
48
20
43
6
115
25
27
38
89
42
47
57
40
8
100
34
2
70
77
88
26
93
49
71
7
24
15
39
112
11
96
29
58
62
55
52
5

> <PUBCHEM_MMFF94_PARTIAL_CHARGES>
32
1 -0.19
10 0.28
11 0.28
12 0.3
2 -0.56
20 0.3
21 0.18
22 0.69
23 0.11
24 -0.15
25 0.09
26 0.05
27 -0.15
28 -0.15
29 -0.15
3 -0.68
30 -0.15
31 0.19
4 -0.57
5 -0.02
54 0.37
55 0.37
56 0.4
57 0.15
58 0.15
59 0.15
6 -0.73
60 0.15
61 0.15
7 -0.73
8 -0.41
9 0.28

> <PUBCHEM_EFFECTIVE_ROTOR_COUNT>
10.4

> <PUBCHEM_PHARMACOPHORE_FEATURES>
11
1 2 acceptor
1 3 acceptor
1 3 donor
1 4 acceptor
1 6 donor
1 7 donor
1 8 acceptor
5 5 8 23 24 25 rings
6 12 15 16 17 18 19 rings
6 2 9 10 11 13 14 rings
6 26 27 28 29 30 31 rings

> <PUBCHEM_HEAVY_ATOM_COUNT>
31

> <PUBCHEM_ATOM_DEF_STEREO_COUNT>
3

> <PUBCHEM_ATOM_UDEF_STEREO_COUNT>
0

> <PUBCHEM_BOND_DEF_STEREO_COUNT>
0

> <PUBCHEM_BOND_UDEF_STEREO_COUNT>
0

> <PUBCHEM_ISOTOPIC_ATOM_COUNT>
0

> <PUBCHEM_COMPONENT_COUNT>
1

> <PUBCHEM_CACTVS_TAUTO_COUNT>
3

> <PUBCHEM_CONFORMER_ID>
047E022100000001

> <PUBCHEM_MMFF94_ENERGY>
42.0453

> <PUBCHEM_FEATURE_SELFOVERLAP>
55.873

> <PUBCHEM_SHAPE_FINGERPRINT>
10190206 1 17828236451611680340
10670039 82 18337124397246576070
10864689 126 17040924161770352580
11513181 2 18129379302328660230
11646440 116 18337956804199019010
12156800 1 18050881869002690350
12422481 6 18193869005714984513
12788726 201 18266756833837057532
12978246 48 18337111262503166472
13122387 1 17545322978003376285
14394314 77 18341901831041092817
14464042 87 18412266155069057091
14840074 17 18271813449269243619
15001296 14 18191023606523338688
150020 26 17683537503911224579
15297060 5 18059014956260063489
19611394 137 18117290353208997251
19930381 70 17832145300899031467
20764821 26 18265354848783863924
21133410 90 17560787806616841217
22113638 7 18123188171411185463
24941158 1 16342588232544772606
3027735 51 18410578383709814705
3052486 1 18335997376300320334
338550 245 18334020479572954764
373842 8 18264201431111265387
463206 1 18267586999480768443
469060 322 17167864123342611342
508706 21 18260840266898633267
6287921 2 17264130562943662065
653340 110 18341045242615449968

> <PUBCHEM_SHAPE_MULTIPOLES>
592.27
11.74
5.67
1.29
5.59
3.37
0.17
-3.38
1.25
-3.28
-0.49
-0.58
0.27
-0.46

> <PUBCHEM_SHAPE_SELFOVERLAP>
1251.184

> <PUBCHEM_SHAPE_VOLUME>
331.3

> <PUBCHEM_COORDINATE_TYPE>
2
5
10

$$$$
