25338519
  -OEChem-12032416213D

 51 55  0     1  0  0  0  0  0999 V2000
    0.5929   -3.8652   -0.5934 O   0  0  0  0  0  0  0  0  0  0  0  0
   -4.6405    0.5403   -1.7013 O   0  0  0  0  0  0  0  0  0  0  0  0
   -2.2021   -2.7876    1.2622 N   0  0  1  0  0  0  0  0  0  0  0  0
   -3.4534   -0.2985    0.1055 N   0  0  0  0  0  0  0  0  0  0  0  0
    0.4595   -1.6983   -0.0423 N   0  0  0  0  0  0  0  0  0  0  0  0
    1.8995   -3.3652   -0.6605 N   0  0  0  0  0  0  0  0  0  0  0  0
   -3.2929    4.4161   -0.8680 N   0  0  0  0  0  0  0  0  0  0  0  0
   -3.6644   -1.6961   -0.1886 C   0  0  1  0  0  0  0  0  0  0  0  0
   -1.6712   -3.1047   -0.0773 C   0  0  1  0  0  0  0  0  0  0  0  0
   -2.5334   -2.2682   -1.0431 C   0  0  0  0  0  0  0  0  0  0  0  0
   -3.6353   -2.5390    1.0774 C   0  0  0  0  0  0  0  0  0  0  0  0
   -0.1917   -2.8195   -0.2232 C   0  0  0  0  0  0  0  0  0  0  0  0
   -1.9541   -3.8387    2.2416 C   0  0  0  0  0  0  0  0  0  0  0  0
   -3.9677    0.7148   -0.6887 C   0  0  0  0  0  0  0  0  0  0  0  0
    1.7386   -2.0823   -0.3222 C   0  0  0  0  0  0  0  0  0  0  0  0
   -3.6389    2.1004   -0.2656 C   0  0  0  0  0  0  0  0  0  0  0  0
    2.8340   -1.1586   -0.2559 C   0  0  0  0  0  0  0  0  0  0  0  0
    2.6048    0.1700    0.1028 C   0  0  0  0  0  0  0  0  0  0  0  0
    4.1249   -1.5885   -0.5487 C   0  0  0  0  0  0  0  0  0  0  0  0
   -3.3747    2.3997    1.0663 C   0  0  0  0  0  0  0  0  0  0  0  0
   -3.5857    3.1350   -1.1857 C   0  0  0  0  0  0  0  0  0  0  0  0
    3.6664    1.0868    0.1728 C   0  0  0  0  0  0  0  0  0  0  0  0
    4.9791    0.6496   -0.1250 C   0  0  0  0  0  0  0  0  0  0  0  0
    5.1915   -0.6914   -0.4841 C   0  0  0  0  0  0  0  0  0  0  0  0
   -3.0697    3.7060    1.4323 C   0  0  0  0  0  0  0  0  0  0  0  0
    3.4540    2.4278    0.5319 C   0  0  0  0  0  0  0  0  0  0  0  0
    6.0407    1.5664   -0.0551 C   0  0  0  0  0  0  0  0  0  0  0  0
   -3.0418    4.6688    0.4362 C   0  0  0  0  0  0  0  0  0  0  0  0
    4.5205    3.3249    0.5963 C   0  0  0  0  0  0  0  0  0  0  0  0
    5.8114    2.8951    0.3034 C   0  0  0  0  0  0  0  0  0  0  0  0
   -4.6263   -1.7989   -0.7035 H   0  0  0  0  0  0  0  0  0  0  0  0
   -1.8487   -4.1646   -0.3101 H   0  0  0  0  0  0  0  0  0  0  0  0
   -1.9699   -1.4835   -1.5614 H   0  0  0  0  0  0  0  0  0  0  0  0
   -2.9538   -2.9319   -1.8092 H   0  0  0  0  0  0  0  0  0  0  0  0
   -4.0736   -2.0243    1.9391 H   0  0  0  0  0  0  0  0  0  0  0  0
   -4.1802   -3.4775    0.9114 H   0  0  0  0  0  0  0  0  0  0  0  0
   -2.8204   -0.0790    0.8678 H   0  0  0  0  0  0  0  0  0  0  0  0
   -0.8787   -3.9897    2.3838 H   0  0  0  0  0  0  0  0  0  0  0  0
   -2.3996   -4.7960    1.9483 H   0  0  0  0  0  0  0  0  0  0  0  0
   -2.3650   -3.5541    3.2165 H   0  0  0  0  0  0  0  0  0  0  0  0
    1.5981    0.5154    0.3336 H   0  0  0  0  0  0  0  0  0  0  0  0
    4.3419   -2.6155   -0.8316 H   0  0  0  0  0  0  0  0  0  0  0  0
   -3.4231    1.6494    1.8497 H   0  0  0  0  0  0  0  0  0  0  0  0
   -3.7774    2.9695   -2.2414 H   0  0  0  0  0  0  0  0  0  0  0  0
    6.1924   -1.0489   -0.7171 H   0  0  0  0  0  0  0  0  0  0  0  0
    2.4535    2.7863    0.7650 H   0  0  0  0  0  0  0  0  0  0  0  0
   -2.8663    3.9641    2.4653 H   0  0  0  0  0  0  0  0  0  0  0  0
    7.0580    1.2525   -0.2799 H   0  0  0  0  0  0  0  0  0  0  0  0
   -2.8106    5.7029    0.6697 H   0  0  0  0  0  0  0  0  0  0  0  0
    4.3427    4.3594    0.8752 H   0  0  0  0  0  0  0  0  0  0  0  0
    6.6412    3.5941    0.3537 H   0  0  0  0  0  0  0  0  0  0  0  0
  1  6  1  0  0  0  0
  1 12  1  0  0  0  0
  2 14  2  0  0  0  0
  3  9  1  0  0  0  0
  3 11  1  0  0  0  0
  3 13  1  0  0  0  0
  4  8  1  0  0  0  0
  4 14  1  0  0  0  0
  4 37  1  0  0  0  0
  5 12  2  0  0  0  0
  5 15  1  0  0  0  0
  6 15  2  0  0  0  0
  7 21  1  0  0  0  0
  7 28  2  0  0  0  0
  8 10  1  0  0  0  0
  8 11  1  0  0  0  0
  8 31  1  0  0  0  0
  9 10  1  0  0  0  0
  9 12  1  0  0  0  0
  9 32  1  0  0  0  0
 10 33  1  0  0  0  0
 10 34  1  0  0  0  0
 11 35  1  0  0  0  0
 11 36  1  0  0  0  0
 13 38  1  0  0  0  0
 13 39  1  0  0  0  0
 13 40  1  0  0  0  0
 14 16  1  0  0  0  0
 15 17  1  0  0  0  0
 16 20  1  0  0  0  0
 16 21  2  0  0  0  0
 17 18  2  0  0  0  0
 17 19  1  0  0  0  0
 18 22  1  0  0  0  0
 18 41  1  0  0  0  0
 19 24  2  0  0  0  0
 19 42  1  0  0  0  0
 20 25  2  0  0  0  0
 20 43  1  0  0  0  0
 21 44  1  0  0  0  0
 22 23  1  0  0  0  0
 22 26  2  0  0  0  0
 23 24  1  0  0  0  0
 23 27  2  0  0  0  0
 24 45  1  0  0  0  0
 25 28  1  0  0  0  0
 25 47  1  0  0  0  0
 26 29  1  0  0  0  0
 26 46  1  0  0  0  0
 27 30  1  0  0  0  0
 27 48  1  0  0  0  0
 28 49  1  0  0  0  0
 29 30  2  0  0  0  0
 29 50  1  0  0  0  0
 30 51  1  0  0  0  0
M  END
> <PUBCHEM_COMPOUND_CID>
25338519

> <PUBCHEM_CONFORMER_RMSD>
0.8

> <PUBCHEM_CONFORMER_DIVERSEORDER>
1
165
135
35
45
124
144
30
160
83
41
107
71
164
18
81
38
95
151
123
37
161
108
23
9
149
106
110
43
79
87
159
20
137
29
5
121
70
13
21
139
40
63
57
131
80
119
142
6
90
7
16
138
152
77
132
10
103
141
56
59
120
140
44
154
113
89
31
8
104
72
94
166
53
19
163
54
3
42
136
122
98
25
105
64
155
101
82
27
167
157
127
130
33
65
112
115
24
118
69
84
116
128
146
17
134
96
117
85
148
36
147
47
46
162
74
143
52
15
158
68
78
75
150
28
92
100
2
4
129
114
73
156
125
39
12
76
102
93
11
99
58
109
66
50
145
86
34
26
133
61
51
111
55
126
14
22
97
62
88
67
60
153
32
91
48
49

> <PUBCHEM_MMFF94_PARTIAL_CHARGES>
39
1 -0.02
11 0.27
12 0.3
13 0.27
14 0.54
15 0.46
16 0.09
17 0.05
18 -0.15
19 -0.15
2 -0.57
20 -0.15
21 0.16
24 -0.15
25 -0.15
26 -0.15
27 -0.15
28 0.16
29 -0.15
3 -0.81
30 -0.15
37 0.37
4 -0.73
41 0.15
42 0.15
43 0.15
44 0.15
45 0.15
46 0.15
47 0.15
48 0.15
49 0.15
5 -0.57
50 0.15
51 0.15
6 -0.41
7 -0.62
8 0.3
9 0.45

> <PUBCHEM_EFFECTIVE_ROTOR_COUNT>
6

> <PUBCHEM_PHARMACOPHORE_FEATURES>
10
1 2 acceptor
1 3 cation
1 4 donor
1 7 acceptor
3 5 6 15 cation
5 1 5 6 12 15 rings
5 3 8 9 10 11 rings
6 17 18 19 22 23 24 rings
6 22 23 26 27 29 30 rings
6 7 16 20 21 25 28 rings

> <PUBCHEM_HEAVY_ATOM_COUNT>
30

> <PUBCHEM_ATOM_DEF_STEREO_COUNT>
2

> <PUBCHEM_ATOM_UDEF_STEREO_COUNT>
0

> <PUBCHEM_BOND_DEF_STEREO_COUNT>
0

> <PUBCHEM_BOND_UDEF_STEREO_COUNT>
0

> <PUBCHEM_ISOTOPIC_ATOM_COUNT>
0

> <PUBCHEM_COMPONENT_COUNT>
1

> <PUBCHEM_CACTVS_TAUTO_COUNT>
2

> <PUBCHEM_CONFORMER_ID>
0182A29700000001

> <PUBCHEM_MMFF94_ENERGY>
74.4909

> <PUBCHEM_FEATURE_SELFOVERLAP>
50.774

> <PUBCHEM_SHAPE_FINGERPRINT>
100830 39 18338515374072015608
10439779 11 18195231227380741466
11059048 146 18198914625350845560
11408170 253 17905059389079608908
12107183 9 18117544142752294426
13627167 48 18050589605480283284
14251764 38 18412543185028838682
14347329 18 18413384350368904784
14363568 33 17038961001023379569
15320291 9 18411978044722146444
15320467 1 18412261761497673352
15322535 138 18338789040065037008
15419008 145 18336815507826106504
15721738 15 17109289630128540836
16067690 210 18043796796361863736
16708801 149 18338781348121325872
16992787 43 18411692181232592333
16993438 75 18409453626016736864
19611394 137 17539133165689998875
20398071 114 18338513032676308341
21033648 144 17700412774320813430
21859007 373 18128528453282422024
23398203 216 18268733639727161889
25019877 29 16841661198826064895
325973 47 18195526110871206140
376196 1 18266739069757628847
4144715 1 18334021605677838858
4173938 77 16975351500436261385
437795 96 17694204969877275160
4487111 67 18340763857680370408
4756261 7 18055946297729832041
50150288 127 16629145194653751273
5047190 92 18339364042366870353
550186 7 18199761404291964420
6036956 94 18336548334442268573
6371009 1 18195785432347756822
653340 110 18340205292978073068
7288768 16 18114187372275069451

> <PUBCHEM_SHAPE_MULTIPOLES>
580.74
13.13
7.08
1.26
13.93
3.08
0.34
10.27
-0.68
-6.41
1.27
-1.56
-0.3
2.04

> <PUBCHEM_SHAPE_SELFOVERLAP>
1284.787

> <PUBCHEM_SHAPE_VOLUME>
312

> <PUBCHEM_COORDINATE_TYPE>
2
5
10

$$$$
