25391126
  -OEChem-12032416233D

 61 64  0     1  0  0  0  0  0999 V2000
    1.3065   -0.6518    0.8001 O   0  0  0  0  0  0  0  0  0  0  0  0
   -2.5217   -1.7055   -1.0659 O   0  0  0  0  0  0  0  0  0  0  0  0
   -4.6366    0.7666    1.2310 O   0  0  0  0  0  0  0  0  0  0  0  0
    0.0105   -2.4532    0.1012 N   0  0  0  0  0  0  0  0  0  0  0  0
    4.8639   -1.2499    0.1876 N   0  0  0  0  0  0  0  0  0  0  0  0
   -2.1773   -4.2686    0.5432 N   0  0  0  0  0  0  0  0  0  0  0  0
   -2.1216    0.1098    0.3357 N   0  0  0  0  0  0  0  0  0  0  0  0
    0.9633    2.6093   -1.8710 N   0  0  0  0  0  0  0  0  0  0  0  0
   -5.2216    1.3124   -0.9223 N   0  0  0  0  0  0  0  0  0  0  0  0
    2.2447   -2.0422   -0.8677 C   0  0  0  0  0  0  0  0  0  0  0  0
   -1.1589   -2.0191    0.8721 C   0  0  2  0  0  0  0  0  0  0  0  0
    3.2037   -3.0392   -0.2139 C   0  0  0  0  0  0  0  0  0  0  0  0
    2.9979   -0.8110   -1.3757 C   0  0  0  0  0  0  0  0  0  0  0  0
    1.1528   -1.6461    0.0860 C   0  0  0  0  0  0  0  0  0  0  0  0
   -0.1774   -3.6385   -0.7473 C   0  0  0  0  0  0  0  0  0  0  0  0
   -1.9331   -3.1820    1.4937 C   0  0  0  0  0  0  0  0  0  0  0  0
    4.1405   -2.3681    0.7919 C   0  0  0  0  0  0  0  0  0  0  0  0
    3.9432   -0.2338   -0.3209 C   0  0  0  0  0  0  0  0  0  0  0  0
   -0.9163   -4.7529   -0.0139 C   0  0  0  0  0  0  0  0  0  0  0  0
   -2.0133   -1.2117   -0.0628 C   0  0  0  0  0  0  0  0  0  0  0  0
   -2.8702    1.0999   -0.4044 C   0  0  2  0  0  0  0  0  0  0  0  0
   -2.3183    2.5154   -0.2010 C   0  0  0  0  0  0  0  0  0  0  0  0
   -0.8777    2.6480   -0.6316 C   0  0  0  0  0  0  0  0  0  0  0  0
   -4.3129    1.0197    0.0730 C   0  0  0  0  0  0  0  0  0  0  0  0
    0.2096    3.0898    0.1731 C   0  0  0  0  0  0  0  0  0  0  0  0
   -0.3828    2.3601   -1.8826 C   0  0  0  0  0  0  0  0  0  0  0  0
    1.3527    3.0560   -0.6284 C   0  0  0  0  0  0  0  0  0  0  0  0
    0.3314    3.5164    1.5105 C   0  0  0  0  0  0  0  0  0  0  0  0
    2.6167    3.4291   -0.1574 C   0  0  0  0  0  0  0  0  0  0  0  0
    1.5893    3.8925    1.9953 C   0  0  0  0  0  0  0  0  0  0  0  0
    2.7130    3.8487    1.1724 C   0  0  0  0  0  0  0  0  0  0  0  0
    1.8008   -2.4861   -1.7640 H   0  0  0  0  0  0  0  0  0  0  0  0
   -0.8108   -1.3846    1.6957 H   0  0  0  0  0  0  0  0  0  0  0  0
    3.8067   -3.5163   -0.9976 H   0  0  0  0  0  0  0  0  0  0  0  0
    2.6563   -3.8411    0.2947 H   0  0  0  0  0  0  0  0  0  0  0  0
    2.2963   -0.0355   -1.7027 H   0  0  0  0  0  0  0  0  0  0  0  0
    3.5860   -1.0941   -2.2591 H   0  0  0  0  0  0  0  0  0  0  0  0
    0.7759   -4.0545   -1.0761 H   0  0  0  0  0  0  0  0  0  0  0  0
   -0.7172   -3.3298   -1.6489 H   0  0  0  0  0  0  0  0  0  0  0  0
   -1.3737   -3.5823    2.3487 H   0  0  0  0  0  0  0  0  0  0  0  0
   -2.8954   -2.8325    1.8854 H   0  0  0  0  0  0  0  0  0  0  0  0
    3.5835   -2.0280    1.6730 H   0  0  0  0  0  0  0  0  0  0  0  0
    4.8684   -3.1067    1.1455 H   0  0  0  0  0  0  0  0  0  0  0  0
    4.5382    0.5571   -0.7928 H   0  0  0  0  0  0  0  0  0  0  0  0
    3.4150    0.2485    0.5061 H   0  0  0  0  0  0  0  0  0  0  0  0
   -1.1218   -5.5762   -0.7065 H   0  0  0  0  0  0  0  0  0  0  0  0
   -0.2907   -5.1623    0.7887 H   0  0  0  0  0  0  0  0  0  0  0  0
    5.4783   -0.8296    0.8843 H   0  0  0  0  0  0  0  0  0  0  0  0
   -2.7650   -3.9224   -0.2154 H   0  0  0  0  0  0  0  0  0  0  0  0
   -1.7146    0.3993    1.2202 H   0  0  0  0  0  0  0  0  0  0  0  0
   -2.8333    0.8252   -1.4662 H   0  0  0  0  0  0  0  0  0  0  0  0
   -2.4211    2.8041    0.8525 H   0  0  0  0  0  0  0  0  0  0  0  0
   -2.9194    3.2345   -0.7725 H   0  0  0  0  0  0  0  0  0  0  0  0
   -0.8649    2.0011   -2.7812 H   0  0  0  0  0  0  0  0  0  0  0  0
    1.5826    2.4824   -2.6595 H   0  0  0  0  0  0  0  0  0  0  0  0
   -0.5322    3.5567    2.1679 H   0  0  0  0  0  0  0  0  0  0  0  0
    3.4922    3.3937   -0.7969 H   0  0  0  0  0  0  0  0  0  0  0  0
   -4.9384    1.5419   -1.8695 H   0  0  0  0  0  0  0  0  0  0  0  0
   -6.2187    1.3084   -0.7342 H   0  0  0  0  0  0  0  0  0  0  0  0
    1.6894    4.2219    3.0261 H   0  0  0  0  0  0  0  0  0  0  0  0
    3.6806    4.1445    1.5698 H   0  0  0  0  0  0  0  0  0  0  0  0
  1 14  2  0  0  0  0
  2 20  2  0  0  0  0
  3 24  2  0  0  0  0
  4 11  1  0  0  0  0
  4 14  1  0  0  0  0
  4 15  1  0  0  0  0
  5 17  1  0  0  0  0
  5 18  1  0  0  0  0
  5 48  1  0  0  0  0
  6 16  1  0  0  0  0
  6 19  1  0  0  0  0
  6 49  1  0  0  0  0
  7 20  1  0  0  0  0
  7 21  1  0  0  0  0
  7 50  1  0  0  0  0
  8 26  1  0  0  0  0
  8 27  1  0  0  0  0
  8 55  1  0  0  0  0
  9 24  1  0  0  0  0
  9 58  1  0  0  0  0
  9 59  1  0  0  0  0
 10 12  1  0  0  0  0
 10 13  1  0  0  0  0
 10 14  1  0  0  0  0
 10 32  1  0  0  0  0
 11 16  1  0  0  0  0
 11 20  1  0  0  0  0
 11 33  1  0  0  0  0
 12 17  1  0  0  0  0
 12 34  1  0  0  0  0
 12 35  1  0  0  0  0
 13 18  1  0  0  0  0
 13 36  1  0  0  0  0
 13 37  1  0  0  0  0
 15 19  1  0  0  0  0
 15 38  1  0  0  0  0
 15 39  1  0  0  0  0
 16 40  1  0  0  0  0
 16 41  1  0  0  0  0
 17 42  1  0  0  0  0
 17 43  1  0  0  0  0
 18 44  1  0  0  0  0
 18 45  1  0  0  0  0
 19 46  1  0  0  0  0
 19 47  1  0  0  0  0
 21 22  1  0  0  0  0
 21 24  1  0  0  0  0
 21 51  1  0  0  0  0
 22 23  1  0  0  0  0
 22 52  1  0  0  0  0
 22 53  1  0  0  0  0
 23 25  1  0  0  0  0
 23 26  2  0  0  0  0
 25 27  1  0  0  0  0
 25 28  2  0  0  0  0
 26 54  1  0  0  0  0
 27 29  2  0  0  0  0
 28 30  1  0  0  0  0
 28 56  1  0  0  0  0
 29 31  1  0  0  0  0
 29 57  1  0  0  0  0
 30 31  2  0  0  0  0
 30 60  1  0  0  0  0
 31 61  1  0  0  0  0
M  END
> <PUBCHEM_COMPOUND_CID>
25391126

> <PUBCHEM_CONFORMER_RMSD>
1

> <PUBCHEM_CONFORMER_DIVERSEORDER>
1
8
179
265
118
219
82
140
158
67
90
261
37
212
11
122
32
241
185
250
189
273
105
110
208
102
269
258
153
156
257
199
151
59
139
63
36
147
267
30
161
101
178
23
98
80
172
166
276
47
245
22
262
125
224
87
162
211
104
56
52
246
111
177
64
2
88
62
222
155
164
120
38
99
149
242
141
230
268
24
170
181
217
65
12
169
83
271
95
165
21
41
58
154
186
251
163
128
193
92
17
207
89
210
197
131
29
138
249
260
10
108
263
264
240
226
127
187
238
25
49
91
244
13
171
112
126
198
220
223
190
84
33
93
7
40
194
259
18
176
203
192
85
54
191
116
247
152
266
26
229
51
233
231
200
180
253
31
215
148
232
157
48
143
145
9
35
204
68
57
136
234
274
196
119
103
175
74
206
254
107
61
256
209
53
81
174
159
123
76
42
270
50
142
45
121
34
28
6
134
218
227
235
16
73
117
15
43
221
46
71
184
137
182
75
79
202
275
94
114
14
144
225
55
272
243
183
97
214
133
20
188
252
150
77
167
132
213
168
228
44
69
70
109
216
60
173
96
255
86
4
201
130
72
129
100
5
66
135
106
78
195
27
236
160
113
205
124
237
248
19
115
239
146
3
39

> <PUBCHEM_MMFF94_PARTIAL_CHARGES>
39
1 -0.57
10 0.06
11 0.36
14 0.57
15 0.3
16 0.27
17 0.27
18 0.27
19 0.27
2 -0.57
20 0.57
21 0.36
22 0.18
23 -0.18
24 0.57
26 -0.3
27 -0.15
28 -0.15
29 -0.15
3 -0.57
30 -0.15
31 -0.15
4 -0.66
48 0.36
49 0.36
5 -0.9
50 0.37
54 0.15
55 0.27
56 0.15
57 0.15
58 0.37
59 0.37
6 -0.9
60 0.15
61 0.15
7 -0.73
8 0.03
9 -0.8

> <PUBCHEM_EFFECTIVE_ROTOR_COUNT>
10.4

> <PUBCHEM_PHARMACOPHORE_FEATURES>
15
1 1 acceptor
1 2 acceptor
1 3 acceptor
1 5 cation
1 5 donor
1 6 cation
1 6 donor
1 7 donor
1 8 cation
1 8 donor
1 9 donor
5 8 23 25 26 27 rings
6 25 27 28 29 30 31 rings
6 4 6 11 15 16 19 rings
6 5 10 12 13 17 18 rings

> <PUBCHEM_HEAVY_ATOM_COUNT>
31

> <PUBCHEM_ATOM_DEF_STEREO_COUNT>
2

> <PUBCHEM_ATOM_UDEF_STEREO_COUNT>
0

> <PUBCHEM_BOND_DEF_STEREO_COUNT>
0

> <PUBCHEM_BOND_UDEF_STEREO_COUNT>
0

> <PUBCHEM_ISOTOPIC_ATOM_COUNT>
0

> <PUBCHEM_COMPONENT_COUNT>
1

> <PUBCHEM_CACTVS_TAUTO_COUNT>
4

> <PUBCHEM_CONFORMER_ID>
0183701600000001

> <PUBCHEM_MMFF94_ENERGY>
58.5397

> <PUBCHEM_FEATURE_SELFOVERLAP>
76.215

> <PUBCHEM_SHAPE_FINGERPRINT>
10006869 2 17116355062363521769
1100329 8 18411139130149769261
12788726 201 18124328116414785678
13122387 1 18338239254307099692
13140716 1 18337679731489550177
13402501 40 18338792317504437304
14178342 30 17906173210862479965
14725015 67 18193826055630755424
14955137 171 18269011799363016435
15439362 3 18338223959992719605
15927050 60 18268153247747605165
16728300 4 17179640125416230306
19930381 70 18050288068104034445
20764821 26 18119814857116069508
20775438 99 17908950504573402311
20905425 154 17907031907931454988
22113638 7 18335706009381093078
3178227 256 18265065661084977025
392239 28 17981324482749451512
469060 322 17905904581953292432
484985 159 15372240723555646792
6004065 56 18341317908682541919
653340 110 17620757618805906353

> <PUBCHEM_SHAPE_MULTIPOLES>
590.47
7.45
7.12
1.47
0.95
1.65
-0.04
-1.76
-1.66
0.86
-0.1
-1.01
-0.13
-1.24

> <PUBCHEM_SHAPE_SELFOVERLAP>
1260.115

> <PUBCHEM_SHAPE_VOLUME>
323.9

> <PUBCHEM_COORDINATE_TYPE>
2
5
10

$$$$
