11887581
  -OEChem-12032416133D

 65 67  0     1  0  0  0  0  0999 V2000
    2.6825    0.7287    1.4898 O   0  0  0  0  0  0  0  0  0  0  0  0
    5.0340    0.7960   -1.4257 O   0  0  0  0  0  0  0  0  0  0  0  0
   -0.9398    4.1753    1.1354 O   0  0  0  0  0  0  0  0  0  0  0  0
    2.4491   -4.3700    1.3427 O   0  0  0  0  0  0  0  0  0  0  0  0
    2.6140   -3.5181   -0.7869 O   0  0  0  0  0  0  0  0  0  0  0  0
   -3.7269   -3.4135   -1.6992 O   0  0  0  0  0  0  0  0  0  0  0  0
    3.3820    2.2356   -0.6442 N   0  0  0  0  0  0  0  0  0  0  0  0
    0.5999    2.8962   -0.0248 N   0  0  0  0  0  0  0  0  0  0  0  0
    1.9975   -0.9693    0.0524 N   0  0  0  0  0  0  0  0  0  0  0  0
   -1.7068    2.6448   -0.4423 N   0  0  0  0  0  0  0  0  0  0  0  0
    2.3237    1.2409   -0.8169 C   0  0  2  0  0  0  0  0  0  0  0  0
    0.9337    1.8496   -1.0027 C   0  0  0  0  0  0  0  0  0  0  0  0
    2.9807    3.5670   -0.1768 C   0  0  0  0  0  0  0  0  0  0  0  0
    1.7164    3.5361    0.6694 C   0  0  0  0  0  0  0  0  0  0  0  0
    2.3536    0.3286    0.3762 C   0  0  0  0  0  0  0  0  0  0  0  0
    4.6868    1.9120   -1.0315 C   0  0  0  0  0  0  0  0  0  0  0  0
   -0.7184    3.3022    0.2933 C   0  0  0  0  0  0  0  0  0  0  0  0
    1.9689   -2.0452    1.0168 C   0  0  1  0  0  0  0  0  0  0  0  0
    0.6043   -2.1319    1.7163 C   0  0  0  0  0  0  0  0  0  0  0  0
    5.7074    3.0196   -0.9395 C   0  0  0  0  0  0  0  0  0  0  0  0
    2.3850   -3.3787    0.4102 C   0  0  0  0  0  0  0  0  0  0  0  0
   -0.5525   -2.4736    0.8045 C   0  0  0  0  0  0  0  0  0  0  0  0
   -3.0316    2.3470   -0.0375 C   0  0  0  0  0  0  0  0  0  0  0  0
   -1.2684   -1.4560    0.1738 C   0  0  0  0  0  0  0  0  0  0  0  0
   -0.9033   -3.8070    0.5938 C   0  0  0  0  0  0  0  0  0  0  0  0
   -3.8931    1.6782   -0.9070 C   0  0  0  0  0  0  0  0  0  0  0  0
   -3.4739    2.7218    1.2311 C   0  0  0  0  0  0  0  0  0  0  0  0
   -2.3352   -1.7719   -0.6674 C   0  0  0  0  0  0  0  0  0  0  0  0
   -1.9702   -4.1231   -0.2473 C   0  0  0  0  0  0  0  0  0  0  0  0
   -2.6861   -3.1054   -0.8779 C   0  0  0  0  0  0  0  0  0  0  0  0
    2.8156   -5.6630    0.8508 C   0  0  0  0  0  0  0  0  0  0  0  0
   -5.1971    1.3843   -0.5079 C   0  0  0  0  0  0  0  0  0  0  0  0
   -4.7776    2.4277    1.6303 C   0  0  0  0  0  0  0  0  0  0  0  0
   -5.6392    1.7590    0.7607 C   0  0  0  0  0  0  0  0  0  0  0  0
   -4.4150   -2.3241   -2.3120 C   0  0  0  0  0  0  0  0  0  0  0  0
    2.5640    0.6503   -1.7105 H   0  0  0  0  0  0  0  0  0  0  0  0
    0.1722    1.0659   -0.9834 H   0  0  0  0  0  0  0  0  0  0  0  0
    0.8786    2.3344   -1.9854 H   0  0  0  0  0  0  0  0  0  0  0  0
    3.7912    4.0239    0.3978 H   0  0  0  0  0  0  0  0  0  0  0  0
    2.8223    4.1788   -1.0731 H   0  0  0  0  0  0  0  0  0  0  0  0
    1.8718    3.0017    1.6110 H   0  0  0  0  0  0  0  0  0  0  0  0
    1.4393    4.5617    0.9385 H   0  0  0  0  0  0  0  0  0  0  0  0
    1.7218   -1.1856   -0.9013 H   0  0  0  0  0  0  0  0  0  0  0  0
    2.7280   -1.8116    1.7750 H   0  0  0  0  0  0  0  0  0  0  0  0
    0.6435   -2.8743    2.5246 H   0  0  0  0  0  0  0  0  0  0  0  0
    0.3863   -1.1781    2.2160 H   0  0  0  0  0  0  0  0  0  0  0  0
    5.9174    3.2463    0.1090 H   0  0  0  0  0  0  0  0  0  0  0  0
    5.3554    3.9145   -1.4591 H   0  0  0  0  0  0  0  0  0  0  0  0
    6.6376    2.6961   -1.4167 H   0  0  0  0  0  0  0  0  0  0  0  0
   -1.4519    2.2868   -1.3581 H   0  0  0  0  0  0  0  0  0  0  0  0
   -1.0129   -0.4145    0.3422 H   0  0  0  0  0  0  0  0  0  0  0  0
   -0.3608   -4.6108    1.0832 H   0  0  0  0  0  0  0  0  0  0  0  0
   -2.8449   -0.9383   -1.1318 H   0  0  0  0  0  0  0  0  0  0  0  0
   -2.2399   -5.1635   -0.4064 H   0  0  0  0  0  0  0  0  0  0  0  0
   -3.5624    1.3840   -1.8998 H   0  0  0  0  0  0  0  0  0  0  0  0
   -2.8434    3.2202    1.9573 H   0  0  0  0  0  0  0  0  0  0  0  0
    2.0815   -6.0113    0.1181 H   0  0  0  0  0  0  0  0  0  0  0  0
    3.8169   -5.6310    0.4109 H   0  0  0  0  0  0  0  0  0  0  0  0
    2.8249   -6.3574    1.6950 H   0  0  0  0  0  0  0  0  0  0  0  0
   -5.8681    0.8642   -1.1853 H   0  0  0  0  0  0  0  0  0  0  0  0
   -5.1211    2.7139    2.6202 H   0  0  0  0  0  0  0  0  0  0  0  0
   -6.6540    1.5288    1.0720 H   0  0  0  0  0  0  0  0  0  0  0  0
   -4.9027   -1.6883   -1.5659 H   0  0  0  0  0  0  0  0  0  0  0  0
   -3.7580   -1.7548   -2.9782 H   0  0  0  0  0  0  0  0  0  0  0  0
   -5.2080   -2.7516   -2.9343 H   0  0  0  0  0  0  0  0  0  0  0  0
  1 15  2  0  0  0  0
  2 16  2  0  0  0  0
  3 17  2  0  0  0  0
  4 21  1  0  0  0  0
  4 31  1  0  0  0  0
  5 21  2  0  0  0  0
  6 30  1  0  0  0  0
  6 35  1  0  0  0  0
  7 11  1  0  0  0  0
  7 13  1  0  0  0  0
  7 16  1  0  0  0  0
  8 12  1  0  0  0  0
  8 14  1  0  0  0  0
  8 17  1  0  0  0  0
  9 15  1  0  0  0  0
  9 18  1  0  0  0  0
  9 43  1  0  0  0  0
 10 17  1  0  0  0  0
 10 23  1  0  0  0  0
 10 50  1  0  0  0  0
 11 12  1  0  0  0  0
 11 15  1  0  0  0  0
 11 36  1  0  0  0  0
 12 37  1  0  0  0  0
 12 38  1  0  0  0  0
 13 14  1  0  0  0  0
 13 39  1  0  0  0  0
 13 40  1  0  0  0  0
 14 41  1  0  0  0  0
 14 42  1  0  0  0  0
 16 20  1  0  0  0  0
 18 19  1  0  0  0  0
 18 21  1  0  0  0  0
 18 44  1  0  0  0  0
 19 22  1  0  0  0  0
 19 45  1  0  0  0  0
 19 46  1  0  0  0  0
 20 47  1  0  0  0  0
 20 48  1  0  0  0  0
 20 49  1  0  0  0  0
 22 24  2  0  0  0  0
 22 25  1  0  0  0  0
 23 26  2  0  0  0  0
 23 27  1  0  0  0  0
 24 28  1  0  0  0  0
 24 51  1  0  0  0  0
 25 29  2  0  0  0  0
 25 52  1  0  0  0  0
 26 32  1  0  0  0  0
 26 55  1  0  0  0  0
 27 33  2  0  0  0  0
 27 56  1  0  0  0  0
 28 30  2  0  0  0  0
 28 53  1  0  0  0  0
 29 30  1  0  0  0  0
 29 54  1  0  0  0  0
 31 57  1  0  0  0  0
 31 58  1  0  0  0  0
 31 59  1  0  0  0  0
 32 34  2  0  0  0  0
 32 60  1  0  0  0  0
 33 34  1  0  0  0  0
 33 61  1  0  0  0  0
 34 62  1  0  0  0  0
 35 63  1  0  0  0  0
 35 64  1  0  0  0  0
 35 65  1  0  0  0  0
M  END
> <PUBCHEM_COMPOUND_CID>
11887581

> <PUBCHEM_CONFORMER_RMSD>
1.2

> <PUBCHEM_CONFORMER_DIVERSEORDER>
1
29
135
137
141
66
5
151
39
94
53
149
46
47
152
145
138
126
132
57
150
41
114
40
75
26
31
52
91
139
69
104
80
22
36
43
116
44
72
118
103
102
61
121
14
110
136
33
106
127
16
82
130
56
144
96
74
71
70
98
60
32
27
55
68
115
87
128
58
13
21
85
90
18
129
146
38
112
50
51
133
6
25
78
8
45
131
19
97
54
49
95
142
4
35
105
23
107
89
83
147
20
67
143
24
123
9
17
140
10
92
76
124
15
122
101
62
117
99
7
108
73
30
65
88
119
48
93
86
42
12
59
37
28
84
134
77
63
100
79
11
120
81
34
3
148
125
2
64
111
113
109

> <PUBCHEM_MMFF94_PARTIAL_CHARGES>
46
1 -0.57
10 -0.55
11 0.36
12 0.3
13 0.3
14 0.3
15 0.57
16 0.57
17 0.69
18 0.36
19 0.14
2 -0.57
20 0.06
21 0.66
22 -0.14
23 0.12
24 -0.15
25 -0.15
26 -0.15
27 -0.15
28 -0.15
29 -0.15
3 -0.57
30 0.08
31 0.28
32 -0.15
33 -0.15
34 -0.15
35 0.28
4 -0.43
43 0.37
5 -0.57
50 0.37
51 0.15
52 0.15
53 0.15
54 0.15
55 0.15
56 0.15
6 -0.36
60 0.15
61 0.15
62 0.15
7 -0.66
8 -0.66
9 -0.73

> <PUBCHEM_EFFECTIVE_ROTOR_COUNT>
13.2

> <PUBCHEM_PHARMACOPHORE_FEATURES>
10
1 1 acceptor
1 10 donor
1 2 acceptor
1 3 acceptor
1 5 acceptor
1 6 acceptor
1 9 donor
6 22 24 25 28 29 30 rings
6 23 26 27 32 33 34 rings
6 7 8 11 12 13 14 rings

> <PUBCHEM_HEAVY_ATOM_COUNT>
35

> <PUBCHEM_ATOM_DEF_STEREO_COUNT>
2

> <PUBCHEM_ATOM_UDEF_STEREO_COUNT>
0

> <PUBCHEM_BOND_DEF_STEREO_COUNT>
0

> <PUBCHEM_BOND_UDEF_STEREO_COUNT>
0

> <PUBCHEM_ISOTOPIC_ATOM_COUNT>
0

> <PUBCHEM_COMPONENT_COUNT>
1

> <PUBCHEM_CACTVS_TAUTO_COUNT>
4

> <PUBCHEM_CONFORMER_ID>
00B563DD00000001

> <PUBCHEM_MMFF94_ENERGY>
105.2681

> <PUBCHEM_FEATURE_SELFOVERLAP>
50.749

> <PUBCHEM_SHAPE_FINGERPRINT>
10815517 723 17767103320880025135
1100329 8 18410007706619513448
11513181 2 18343586222498268559
12156800 1 18126826403937833121
12293681 4 17617660303477810884
12788726 201 17907008831177908665
14117953 113 17621024375646956261
14725015 67 17835505395242339833
14866123 147 18267593579465501009
14931854 50 18192977430575646927
14955137 171 17903642873951085691
15322534 239 18265895954860347005
15351339 4 18193255594328042443
15927050 60 18411426102436692709
17627616 140 18408598154688688159
17977149 70 17263289427763911271
19311894 1 18342470269324102652
19319366 153 18409736153339620972
20764821 26 18409724062668461542
21133410 62 18113890607721206519
21796203 349 17689749383488086714
244849 19 17345470578015537656
3027735 51 18195529418380314531
469060 322 16805885229635860791
50677037 204 17980173328345640258
5171179 24 17697883918414196072
5309563 4 17832988244128717657
563151 40 18264229026698083748
6287921 2 17768247908684535361

> <PUBCHEM_SHAPE_MULTIPOLES>
665.14
10.19
8.36
1.55
2.2
7.14
-0.16
-7.1
-2.85
-2.52
1.47
0.79
0.49
-4.23

> <PUBCHEM_SHAPE_SELFOVERLAP>
1396.911

> <PUBCHEM_SHAPE_VOLUME>
370.4

> <PUBCHEM_COORDINATE_TYPE>
2
5
10

$$$$
