28963147
  -OEChem-12032416293D

 67 69  0     1  0  0  0  0  0999 V2000
    0.0106    1.6165    1.8298 O   0  0  0  0  0  0  0  0  0  0  0  0
    4.5772    1.6526   -0.8431 O   0  0  0  0  0  0  0  0  0  0  0  0
   -5.6864   -1.9591    0.3808 O   0  0  0  0  0  0  0  0  0  0  0  0
    5.3432   -1.3458   -0.4422 O   0  0  0  0  0  0  0  0  0  0  0  0
   -4.8181    0.1331   -0.1260 N   0  0  0  0  0  0  0  0  0  0  0  0
    4.5097    0.8416    1.3289 N   0  0  0  0  0  0  0  0  0  0  0  0
   -7.0731   -0.1048    0.2314 N   0  0  0  0  0  0  0  0  0  0  0  0
   -0.7611    0.0502   -1.5653 C   0  0  1  0  0  0  0  0  0  0  0  0
   -0.9742    0.4387   -0.0644 C   0  0  2  0  0  0  0  0  0  0  0  0
   -2.4638    0.8636    0.1970 C   0  0  1  0  0  0  0  0  0  0  0  0
    0.1040    1.4533    0.4139 C   0  0  2  0  0  0  0  0  0  0  0  0
    0.6823   -0.4699   -1.7637 C   0  0  0  0  0  0  0  0  0  0  0  0
   -1.7295   -1.0983   -1.9312 C   0  0  0  0  0  0  0  0  0  0  0  0
    1.5443    0.9739    0.1183 C   0  0  1  0  0  0  0  0  0  0  0  0
   -3.4323   -0.2695   -0.2446 C   0  0  2  0  0  0  0  0  0  0  0  0
    1.7411    0.5366   -1.3331 C   0  0  0  0  0  0  0  0  0  0  0  0
   -3.1894   -0.7538   -1.6738 C   0  0  0  0  0  0  0  0  0  0  0  0
   -0.9972    1.2424   -2.5268 C   0  0  0  0  0  0  0  0  0  0  0  0
    2.5845    2.0423    0.4770 C   0  0  2  0  0  0  0  0  0  0  0  0
   -2.7511    1.2319    1.6624 C   0  0  0  0  0  0  0  0  0  0  0  0
    2.3261    3.3153   -0.3213 C   0  0  0  0  0  0  0  0  0  0  0  0
    3.9899    1.5044    0.2265 C   0  0  0  0  0  0  0  0  0  0  0  0
   -5.8428   -0.7554    0.1802 C   0  0  0  0  0  0  0  0  0  0  0  0
    5.8246    0.2437    1.3327 C   0  0  0  0  0  0  0  0  0  0  0  0
   -8.3087   -0.7898    0.5296 C   0  0  0  0  0  0  0  0  0  0  0  0
    5.8009   -1.1690    0.8252 C   0  0  0  0  0  0  0  0  0  0  0  0
   -8.4729   -1.0145    2.0185 C   0  0  0  0  0  0  0  0  0  0  0  0
    6.1558   -2.3751    1.3834 C   0  0  0  0  0  0  0  0  0  0  0  0
    5.8998   -3.3559    0.3956 C   0  0  0  0  0  0  0  0  0  0  0  0
    5.4066   -2.6792   -0.6958 C   0  0  0  0  0  0  0  0  0  0  0  0
   -0.8207   -0.4722    0.5363 H   0  0  0  0  0  0  0  0  0  0  0  0
   -2.6848    1.7624   -0.3925 H   0  0  0  0  0  0  0  0  0  0  0  0
   -0.1199    2.4202   -0.0406 H   0  0  0  0  0  0  0  0  0  0  0  0
    0.8487   -0.7384   -2.8150 H   0  0  0  0  0  0  0  0  0  0  0  0
    0.8243   -1.3937   -1.1866 H   0  0  0  0  0  0  0  0  0  0  0  0
   -1.4770   -1.9936   -1.3473 H   0  0  0  0  0  0  0  0  0  0  0  0
   -1.6081   -1.3764   -2.9859 H   0  0  0  0  0  0  0  0  0  0  0  0
    1.7427    0.0975    0.7533 H   0  0  0  0  0  0  0  0  0  0  0  0
   -3.2788   -1.1256    0.4269 H   0  0  0  0  0  0  0  0  0  0  0  0
    2.7116    0.0437   -1.4597 H   0  0  0  0  0  0  0  0  0  0  0  0
    1.7280    1.3706   -2.0373 H   0  0  0  0  0  0  0  0  0  0  0  0
   -3.5306    0.0015   -2.3922 H   0  0  0  0  0  0  0  0  0  0  0  0
   -3.8025   -1.6422   -1.8739 H   0  0  0  0  0  0  0  0  0  0  0  0
   -2.0243    1.6147   -2.4972 H   0  0  0  0  0  0  0  0  0  0  0  0
   -0.7952    0.9470   -3.5631 H   0  0  0  0  0  0  0  0  0  0  0  0
   -0.3520    2.0961   -2.3014 H   0  0  0  0  0  0  0  0  0  0  0  0
    2.5046    2.2976    1.5416 H   0  0  0  0  0  0  0  0  0  0  0  0
   -2.4027    0.4497    2.3446 H   0  0  0  0  0  0  0  0  0  0  0  0
   -3.8205    1.3785    1.8453 H   0  0  0  0  0  0  0  0  0  0  0  0
   -2.2773    2.1801    1.9313 H   0  0  0  0  0  0  0  0  0  0  0  0
   -5.0633    1.0920   -0.3533 H   0  0  0  0  0  0  0  0  0  0  0  0
    0.1577    0.7493    2.2442 H   0  0  0  0  0  0  0  0  0  0  0  0
    2.3514    3.1850   -1.4052 H   0  0  0  0  0  0  0  0  0  0  0  0
    3.1189    4.0413   -0.0983 H   0  0  0  0  0  0  0  0  0  0  0  0
    1.3910    3.8082   -0.0447 H   0  0  0  0  0  0  0  0  0  0  0  0
    3.9417    0.7409    2.1651 H   0  0  0  0  0  0  0  0  0  0  0  0
   -7.1037    0.8962    0.0644 H   0  0  0  0  0  0  0  0  0  0  0  0
    6.1914    0.2687    2.3639 H   0  0  0  0  0  0  0  0  0  0  0  0
    6.5000    0.8434    0.7129 H   0  0  0  0  0  0  0  0  0  0  0  0
   -9.1272   -0.1739    0.1444 H   0  0  0  0  0  0  0  0  0  0  0  0
   -8.3184   -1.7487    0.0007 H   0  0  0  0  0  0  0  0  0  0  0  0
   -7.6682   -1.6397    2.4190 H   0  0  0  0  0  0  0  0  0  0  0  0
   -8.4565   -0.0638    2.5619 H   0  0  0  0  0  0  0  0  0  0  0  0
   -9.4255   -1.5115    2.2264 H   0  0  0  0  0  0  0  0  0  0  0  0
    6.5498   -2.5305    2.3776 H   0  0  0  0  0  0  0  0  0  0  0  0
    6.0550   -4.4225    0.4698 H   0  0  0  0  0  0  0  0  0  0  0  0
    5.0719   -2.9846   -1.6764 H   0  0  0  0  0  0  0  0  0  0  0  0
  1 11  1  0  0  0  0
  1 52  1  0  0  0  0
  2 22  2  0  0  0  0
  3 23  2  0  0  0  0
  4 26  1  0  0  0  0
  4 30  1  0  0  0  0
  5 15  1  0  0  0  0
  5 23  1  0  0  0  0
  5 51  1  0  0  0  0
  6 22  1  0  0  0  0
  6 24  1  0  0  0  0
  6 56  1  0  0  0  0
  7 23  1  0  0  0  0
  7 25  1  0  0  0  0
  7 57  1  0  0  0  0
  8  9  1  0  0  0  0
  8 12  1  0  0  0  0
  8 13  1  0  0  0  0
  8 18  1  0  0  0  0
  9 10  1  0  0  0  0
  9 11  1  0  0  0  0
  9 31  1  0  0  0  0
 10 15  1  0  0  0  0
 10 20  1  0  0  0  0
 10 32  1  0  0  0  0
 11 14  1  0  0  0  0
 11 33  1  0  0  0  0
 12 16  1  0  0  0  0
 12 34  1  0  0  0  0
 12 35  1  0  0  0  0
 13 17  1  0  0  0  0
 13 36  1  0  0  0  0
 13 37  1  0  0  0  0
 14 16  1  0  0  0  0
 14 19  1  0  0  0  0
 14 38  1  0  0  0  0
 15 17  1  0  0  0  0
 15 39  1  0  0  0  0
 16 40  1  0  0  0  0
 16 41  1  0  0  0  0
 17 42  1  0  0  0  0
 17 43  1  0  0  0  0
 18 44  1  0  0  0  0
 18 45  1  0  0  0  0
 18 46  1  0  0  0  0
 19 21  1  0  0  0  0
 19 22  1  0  0  0  0
 19 47  1  0  0  0  0
 20 48  1  0  0  0  0
 20 49  1  0  0  0  0
 20 50  1  0  0  0  0
 21 53  1  0  0  0  0
 21 54  1  0  0  0  0
 21 55  1  0  0  0  0
 24 26  1  0  0  0  0
 24 58  1  0  0  0  0
 24 59  1  0  0  0  0
 25 27  1  0  0  0  0
 25 60  1  0  0  0  0
 25 61  1  0  0  0  0
 26 28  2  0  0  0  0
 27 62  1  0  0  0  0
 27 63  1  0  0  0  0
 27 64  1  0  0  0  0
 28 29  1  0  0  0  0
 28 65  1  0  0  0  0
 29 30  2  0  0  0  0
 29 66  1  0  0  0  0
 30 67  1  0  0  0  0
M  END
> <PUBCHEM_COMPOUND_CID>
28963147

> <PUBCHEM_CONFORMER_RMSD>
1

> <PUBCHEM_CONFORMER_DIVERSEORDER>
1
184
100
26
167
63
106
95
66
115
38
61
189
39
192
134
130
12
179
133
47
78
143
119
67
85
89
122
188
102
77
53
150
176
190
161
43
153
83
128
166
114
14
99
172
32
159
10
180
175
48
34
174
76
186
171
79
75
44
17
71
25
123
62
64
105
156
8
23
141
24
157
163
131
73
28
144
84
162
50
111
147
60
124
18
158
149
58
112
94
126
57
81
82
29
187
27
165
154
169
42
98
31
137
33
86
96
21
121
152
87
117
41
108
54
51
142
3
177
80
132
136
90
59
140
138
74
182
4
148
109
129
146
118
101
70
49
72
88
45
191
181
52
164
30
113
135
104
15
127
92
91
178
168
120
183
173
46
160
11
40
19
68
110
13
185
93
107
9
116
22
155
2
145
36
16
170
37
20
5
103
151
139
56
7
65
6
125
35
97
69
55

> <PUBCHEM_MMFF94_PARTIAL_CHARGES>
25
1 -0.68
11 0.28
15 0.3
19 0.06
2 -0.57
22 0.57
23 0.69
24 0.48
25 0.3
26 -0.04
28 -0.15
29 -0.15
3 -0.57
30 -0.01
4 -0.28
5 -0.73
51 0.37
52 0.4
56 0.37
57 0.37
6 -0.73
65 0.15
66 0.15
67 0.15
7 -0.73

> <PUBCHEM_EFFECTIVE_ROTOR_COUNT>
10.6

> <PUBCHEM_PHARMACOPHORE_FEATURES>
12
1 1 acceptor
1 1 donor
1 2 acceptor
1 21 hydrophobe
1 3 acceptor
1 4 acceptor
1 5 donor
1 6 donor
1 7 donor
5 4 26 28 29 30 rings
6 8 9 10 13 15 17 rings
6 8 9 11 12 14 16 rings

> <PUBCHEM_HEAVY_ATOM_COUNT>
30

> <PUBCHEM_ATOM_DEF_STEREO_COUNT>
7

> <PUBCHEM_ATOM_UDEF_STEREO_COUNT>
0

> <PUBCHEM_BOND_DEF_STEREO_COUNT>
0

> <PUBCHEM_BOND_UDEF_STEREO_COUNT>
0

> <PUBCHEM_ISOTOPIC_ATOM_COUNT>
0

> <PUBCHEM_COMPONENT_COUNT>
1

> <PUBCHEM_CACTVS_TAUTO_COUNT>
6

> <PUBCHEM_CONFORMER_ID>
01B9F14B00000001

> <PUBCHEM_MMFF94_ENERGY>
62.6636

> <PUBCHEM_FEATURE_SELFOVERLAP>
60.963

> <PUBCHEM_SHAPE_FINGERPRINT>
10 15 17346880086864307833
10316853 100 18040155111019997674
10533779 47 18261405438479210587
11408170 132 11819261288072353191
11456790 92 17203614791755420627
11638347 137 18334298695745582531
117089 54 17981329993800063038
11719270 70 17775008985777256623
11991303 11 17246952927417782084
12422481 6 17489023730986364316
12838862 33 16487254341008969785
13533116 47 18409728486901618448
13617811 41 15068339003825254766
13673619 4 17967248676439681740
13692114 37 17481991129840797808
13782708 43 18040150712630022931
14251764 30 18113331994888032838
14528608 73 7781512646835141086
14767858 380 13117997790664242987
15301273 46 17822005407283535959
15475509 35 18335135372022079442
16728300 4 18128248995858840790
16994733 274 12031786942681674635
1813 80 18261109626764515348
19301679 30 18338514145431586352
1979834 28 17060341791052918286
20505436 4 17771908505122282468
20554085 129 14333127464279523175
21057603 238 17971192517675642495
21344244 181 17749111097038403354
21424621 283 12751245804832080735
21792934 111 17203336555384146657
23559900 14 14851895801790631196
23569943 247 17314501531385128043
23576562 1 11891632264520021763
25269216 80 17240485763178323014
34797466 226 16515406304665366540
3680242 22 17917993905526439016
3886686 26 17052190913634848090
4072396 5 17131836486038825877
4093350 32 17531535407255414308
4340502 62 18337676416476515111
46194498 28 17603860114421400956
5104073 3 17917715673313600880
513202 73 18262235512932017333
56633871 153 17916858003374591886
57634706 306 10879698875834830170
58260988 647 18186522068675137690
59755656 215 16588018009413391777
6081469 158 18260543425594444125
86090 222 17967531255782741970
9831232 110 17822286860079008682

> <PUBCHEM_SHAPE_MULTIPOLES>
578.97
20.11
2.83
1.93
23.53
0.52
-0.48
16.26
10.92
-5.71
0.32
0.94
-0.04
0.12

> <PUBCHEM_SHAPE_SELFOVERLAP>
1195.305

> <PUBCHEM_SHAPE_VOLUME>
329.3

> <PUBCHEM_COORDINATE_TYPE>
2
5
10

$$$$
