11865650
  -OEChem-12032416113D

 50 50  0     1  0  0  0  0  0999 V2000
    0.9010   -1.6926   -2.1171 O   0  0  0  0  0  0  0  0  0  0  0  0
   -2.0624   -2.7960    1.1245 O   0  0  0  0  0  0  0  0  0  0  0  0
    0.5549   -3.8027    1.6181 O   0  0  0  0  0  0  0  0  0  0  0  0
    3.0257   -0.3114   -2.2755 O   0  0  0  0  0  0  0  0  0  0  0  0
   -3.1000    0.5626   -1.6258 O   0  0  0  0  0  0  0  0  0  0  0  0
    3.2813    2.2973    1.9242 O   0  0  0  0  0  0  0  0  0  0  0  0
   -2.1598    0.0288    0.4285 N   0  0  0  0  0  0  0  0  0  0  0  0
    2.9433    0.4000   -0.0607 N   0  0  0  0  0  0  0  0  0  0  0  0
   -3.9055    1.5174    0.3296 N   0  0  0  0  0  0  0  0  0  0  0  0
    4.6049    3.5115    0.4924 N   0  0  0  0  0  0  0  0  0  0  0  0
    1.2371   -1.0671   -0.8842 C   0  0  1  0  0  0  0  0  0  0  0  0
   -1.1617   -0.8956   -0.0634 C   0  0  1  0  0  0  0  0  0  0  0  0
    0.1134   -0.1311   -0.4348 C   0  0  0  0  0  0  0  0  0  0  0  0
   -0.8873   -1.9951    0.9712 C   0  0  2  0  0  0  0  0  0  0  0  0
    1.5139   -2.1438    0.1630 C   0  0  0  0  0  0  0  0  0  0  0  0
    0.2509   -2.9216    0.5364 C   0  0  1  0  0  0  0  0  0  0  0  0
    2.4890   -0.2906   -1.1710 C   0  0  0  0  0  0  0  0  0  0  0  0
   -3.0577    0.6902   -0.4028 C   0  0  0  0  0  0  0  0  0  0  0  0
    4.1428    1.2059   -0.0671 C   0  0  2  0  0  0  0  0  0  0  0  0
    5.3578    0.3825    0.3300 C   0  0  0  0  0  0  0  0  0  0  0  0
    3.9380    2.3714    0.8883 C   0  0  0  0  0  0  0  0  0  0  0  0
   -4.9357    2.3219   -0.2838 C   0  0  0  0  0  0  0  0  0  0  0  0
   -6.2643    1.5826   -0.3886 C   0  0  0  0  0  0  0  0  0  0  0  0
   -6.8196    1.1755    0.9688 C   0  0  0  0  0  0  0  0  0  0  0  0
   -1.5728   -1.3578   -0.9708 H   0  0  0  0  0  0  0  0  0  0  0  0
    0.4130    0.4805    0.4254 H   0  0  0  0  0  0  0  0  0  0  0  0
   -0.1190    0.5769   -1.2421 H   0  0  0  0  0  0  0  0  0  0  0  0
   -0.6701   -1.5640    1.9561 H   0  0  0  0  0  0  0  0  0  0  0  0
    2.2667   -2.8549   -0.2038 H   0  0  0  0  0  0  0  0  0  0  0  0
    1.9429   -1.7229    1.0812 H   0  0  0  0  0  0  0  0  0  0  0  0
   -0.0730   -3.5489   -0.3030 H   0  0  0  0  0  0  0  0  0  0  0  0
   -2.1588    0.2614    1.4171 H   0  0  0  0  0  0  0  0  0  0  0  0
    1.5850   -2.3521   -2.3244 H   0  0  0  0  0  0  0  0  0  0  0  0
   -2.2842   -3.1752    0.2569 H   0  0  0  0  0  0  0  0  0  0  0  0
    1.2698   -4.3924    1.3232 H   0  0  0  0  0  0  0  0  0  0  0  0
    2.4486    0.3225    0.8220 H   0  0  0  0  0  0  0  0  0  0  0  0
    4.2884    1.5917   -1.0833 H   0  0  0  0  0  0  0  0  0  0  0  0
   -3.8019    1.5526    1.3390 H   0  0  0  0  0  0  0  0  0  0  0  0
    6.2661    0.9943    0.3231 H   0  0  0  0  0  0  0  0  0  0  0  0
    5.5054   -0.4575   -0.3570 H   0  0  0  0  0  0  0  0  0  0  0  0
    5.2440   -0.0298    1.3391 H   0  0  0  0  0  0  0  0  0  0  0  0
   -4.6039    2.6276   -1.2820 H   0  0  0  0  0  0  0  0  0  0  0  0
   -5.0469    3.2255    0.3249 H   0  0  0  0  0  0  0  0  0  0  0  0
   -6.9924    2.2286   -0.8924 H   0  0  0  0  0  0  0  0  0  0  0  0
   -6.1458    0.6854   -1.0078 H   0  0  0  0  0  0  0  0  0  0  0  0
    5.1605    3.5519   -0.3561 H   0  0  0  0  0  0  0  0  0  0  0  0
    4.5613    4.3595    1.0479 H   0  0  0  0  0  0  0  0  0  0  0  0
   -6.1629    0.4594    1.4726 H   0  0  0  0  0  0  0  0  0  0  0  0
   -6.9438    2.0473    1.6191 H   0  0  0  0  0  0  0  0  0  0  0  0
   -7.7988    0.7015    0.8473 H   0  0  0  0  0  0  0  0  0  0  0  0
  1 11  1  0  0  0  0
  1 33  1  0  0  0  0
  2 14  1  0  0  0  0
  2 34  1  0  0  0  0
  3 16  1  0  0  0  0
  3 35  1  0  0  0  0
  4 17  2  0  0  0  0
  5 18  2  0  0  0  0
  6 21  2  0  0  0  0
  7 12  1  0  0  0  0
  7 18  1  0  0  0  0
  7 32  1  0  0  0  0
  8 17  1  0  0  0  0
  8 19  1  0  0  0  0
  8 36  1  0  0  0  0
  9 18  1  0  0  0  0
  9 22  1  0  0  0  0
  9 38  1  0  0  0  0
 10 21  1  0  0  0  0
 10 46  1  0  0  0  0
 10 47  1  0  0  0  0
 11 13  1  0  0  0  0
 11 15  1  0  0  0  0
 11 17  1  0  0  0  0
 12 13  1  0  0  0  0
 12 14  1  0  0  0  0
 12 25  1  0  0  0  0
 13 26  1  0  0  0  0
 13 27  1  0  0  0  0
 14 16  1  0  0  0  0
 14 28  1  0  0  0  0
 15 16  1  0  0  0  0
 15 29  1  0  0  0  0
 15 30  1  0  0  0  0
 16 31  1  0  0  0  0
 19 20  1  0  0  0  0
 19 21  1  0  0  0  0
 19 37  1  0  0  0  0
 20 39  1  0  0  0  0
 20 40  1  0  0  0  0
 20 41  1  0  0  0  0
 22 23  1  0  0  0  0
 22 42  1  0  0  0  0
 22 43  1  0  0  0  0
 23 24  1  0  0  0  0
 23 44  1  0  0  0  0
 23 45  1  0  0  0  0
 24 48  1  0  0  0  0
 24 49  1  0  0  0  0
 24 50  1  0  0  0  0
M  END
> <PUBCHEM_COMPOUND_CID>
11865650

> <PUBCHEM_CONFORMER_RMSD>
1

> <PUBCHEM_CONFORMER_DIVERSEORDER>
1
45
33
97
69
50
38
29
67
82
77
76
6
52
112
94
115
31
96
83
59
91
48
9
118
49
100
120
39
95
84
78
109
106
99
93
64
60
103
21
89
5
92
61
110
55
28
86
63
18
73
72
46
14
88
102
71
19
4
80
85
114
42
41
122
90
37
10
66
26
107
111
35
62
116
108
65
15
104
81
47
40
75
58
87
54
113
27
12
98
23
44
56
53
74
30
43
101
68
34
7
2
16
13
117
32
51
105
123
25
119
36
3
22
121
17
24
20
57
70
11
79
8

> <PUBCHEM_MMFF94_PARTIAL_CHARGES>
27
1 -0.68
10 -0.8
11 0.34
12 0.3
14 0.28
16 0.28
17 0.57
18 0.69
19 0.36
2 -0.68
21 0.57
22 0.3
3 -0.68
32 0.37
33 0.4
34 0.4
35 0.4
36 0.37
38 0.37
4 -0.57
46 0.37
47 0.37
5 -0.57
6 -0.57
7 -0.73
8 -0.73
9 -0.73

> <PUBCHEM_EFFECTIVE_ROTOR_COUNT>
10.2

> <PUBCHEM_PHARMACOPHORE_FEATURES>
15
1 1 acceptor
1 1 donor
1 10 donor
1 2 acceptor
1 2 donor
1 24 hydrophobe
1 3 acceptor
1 3 donor
1 4 acceptor
1 5 acceptor
1 6 acceptor
1 7 donor
1 8 donor
1 9 donor
6 11 12 13 14 15 16 rings

> <PUBCHEM_HEAVY_ATOM_COUNT>
24

> <PUBCHEM_ATOM_DEF_STEREO_COUNT>
5

> <PUBCHEM_ATOM_UDEF_STEREO_COUNT>
0

> <PUBCHEM_BOND_DEF_STEREO_COUNT>
0

> <PUBCHEM_BOND_UDEF_STEREO_COUNT>
0

> <PUBCHEM_ISOTOPIC_ATOM_COUNT>
0

> <PUBCHEM_COMPONENT_COUNT>
1

> <PUBCHEM_CACTVS_TAUTO_COUNT>
12

> <PUBCHEM_CONFORMER_ID>
00B50E3200000001

> <PUBCHEM_MMFF94_ENERGY>
40.721

> <PUBCHEM_FEATURE_SELFOVERLAP>
76.204

> <PUBCHEM_SHAPE_FINGERPRINT>
10074138 170 17604435240243135803
11582403 64 18270949207175379222
11725454 13 18271234006530298502
12107183 9 18261379037130222880
12403259 415 18339372962480206654
12633257 1 18261936515089853200
12730499 353 18338527348181867243
12769317 202 18269824346445140201
12788726 201 17319594760965333210
13103583 49 13840538510935579492
13140716 1 18187082810794550018
13402501 40 18342454854808309944
13583140 156 18269557311892036806
13955234 65 18118122477088431955
13965767 371 17749943371605793500
14178342 30 18040724692207380711
14251757 52 17773883004962809241
14251764 38 18196368336920241260
14461889 52 17822587040677082537
146900 427 18267877090694644713
14849402 71 18336829676353256432
15142526 21 18411695517309052337
15342816 4 11887675035596550478
17980427 23 18051941797869909610
17980427 26 18338781343768297982
18222031 100 9871458803813590421
20567600 254 18335134272235898069
21033648 29 18199742712800234368
21049683 118 18264183950483231560
21401589 2 18339918333111802569
21475661 188 18341610451679555204
22079108 93 18408608050504360677
23559900 14 18412267216833607030
2838139 119 18271798021303670069
3246875 12 18338517560167710249
34797466 226 17846221004372004293
427121 178 18259985946485098926
4340502 62 18334581205239471671
43658 37 18409731725317541483
474 4 18343300357642838097
495365 180 18042410127742522851
56616090 13 18059568126488841037
57091435 61 18340764862787269761
57124632 79 18115297861306159579
59755656 520 18408881832646414679
633830 44 18342166774213271332
6913067 236 17385441004271489973
84936 182 18194402186611720976
9658208 31 18262816128096535095

> <PUBCHEM_SHAPE_MULTIPOLES>
438.77
12.58
3.83
1.54
15.67
1.19
-0.42
-14.46
1.65
-2.17
2.05
-0.78
0.39
1.63

> <PUBCHEM_SHAPE_SELFOVERLAP>
880.044

> <PUBCHEM_SHAPE_VOLUME>
255.5

> <PUBCHEM_COORDINATE_TYPE>
2
5
10

$$$$
