75367701
  -OEChem-12032416383D

 39 41  0     1  0  0  0  0  0999 V2000
   -0.8357   -3.2009   -0.6834 O   0  0  0  0  0  0  0  0  0  0  0  0
   -1.8007    0.2808   -0.9690 O   0  0  0  0  0  0  0  0  0  0  0  0
    3.4440   -1.7847    1.0442 O   0  0  0  0  0  0  0  0  0  0  0  0
    1.2035   -1.2254    0.6440 N   0  0  0  0  0  0  0  0  0  0  0  0
   -4.3231    2.3838    0.6368 N   0  0  0  0  0  0  0  0  0  0  0  0
    3.9978    2.8309   -0.6173 N   0  0  0  0  0  0  0  0  0  0  0  0
   -1.1143   -0.8015   -0.3386 C   0  0  2  0  0  0  0  0  0  0  0  0
    0.2248   -0.2467    0.1556 C   0  0  0  0  0  0  0  0  0  0  0  0
    0.7173   -2.5330    1.0873 C   0  0  0  0  0  0  0  0  0  0  0  0
   -0.9589   -1.9434   -1.3408 C   0  0  0  0  0  0  0  0  0  0  0  0
    0.4398   -3.4456   -0.1004 C   0  0  0  0  0  0  0  0  0  0  0  0
    2.5869   -0.9833    0.6733 C   0  0  0  0  0  0  0  0  0  0  0  0
    3.0751    0.3316    0.2285 C   0  0  0  0  0  0  0  0  0  0  0  0
   -2.9893    0.6597   -0.4087 C   0  0  0  0  0  0  0  0  0  0  0  0
    3.2101    1.3714    1.1417 C   0  0  0  0  0  0  0  0  0  0  0  0
    3.4009    0.5399   -1.1071 C   0  0  0  0  0  0  0  0  0  0  0  0
   -4.0498   -0.2337   -0.3052 C   0  0  0  0  0  0  0  0  0  0  0  0
   -3.1752    1.9455    0.0731 C   0  0  0  0  0  0  0  0  0  0  0  0
    3.6714    2.5908    0.6724 C   0  0  0  0  0  0  0  0  0  0  0  0
    3.8538    1.7964   -1.4757 C   0  0  0  0  0  0  0  0  0  0  0  0
   -5.2467    0.1801    0.2688 C   0  0  0  0  0  0  0  0  0  0  0  0
   -5.3316    1.4873    0.7203 C   0  0  0  0  0  0  0  0  0  0  0  0
   -1.6727   -1.1664    0.5345 H   0  0  0  0  0  0  0  0  0  0  0  0
    0.6731    0.3521   -0.6440 H   0  0  0  0  0  0  0  0  0  0  0  0
    0.0425    0.4564    0.9786 H   0  0  0  0  0  0  0  0  0  0  0  0
   -0.1672   -2.3871    1.7160 H   0  0  0  0  0  0  0  0  0  0  0  0
    1.4861   -3.0004    1.7123 H   0  0  0  0  0  0  0  0  0  0  0  0
   -1.8567   -2.0075   -1.9657 H   0  0  0  0  0  0  0  0  0  0  0  0
   -0.1210   -1.7801   -2.0297 H   0  0  0  0  0  0  0  0  0  0  0  0
    1.2207   -3.3814   -0.8673 H   0  0  0  0  0  0  0  0  0  0  0  0
    0.4155   -4.4817    0.2536 H   0  0  0  0  0  0  0  0  0  0  0  0
    2.9635    1.2421    2.1901 H   0  0  0  0  0  0  0  0  0  0  0  0
    3.3059   -0.2499   -1.8447 H   0  0  0  0  0  0  0  0  0  0  0  0
   -3.9610   -1.2515   -0.6741 H   0  0  0  0  0  0  0  0  0  0  0  0
   -2.3812    2.6837    0.0186 H   0  0  0  0  0  0  0  0  0  0  0  0
    3.7938    3.4340    1.3442 H   0  0  0  0  0  0  0  0  0  0  0  0
    4.1207    2.0104   -2.5054 H   0  0  0  0  0  0  0  0  0  0  0  0
   -6.0872   -0.4985    0.3583 H   0  0  0  0  0  0  0  0  0  0  0  0
   -6.2436    1.8595    1.1754 H   0  0  0  0  0  0  0  0  0  0  0  0
  1 10  1  0  0  0  0
  1 11  1  0  0  0  0
  2  7  1  0  0  0  0
  2 14  1  0  0  0  0
  3 12  2  0  0  0  0
  4  8  1  0  0  0  0
  4  9  1  0  0  0  0
  4 12  1  0  0  0  0
  5 18  1  0  0  0  0
  5 22  2  0  0  0  0
  6 19  2  0  0  0  0
  6 20  1  0  0  0  0
  7  8  1  0  0  0  0
  7 10  1  0  0  0  0
  7 23  1  0  0  0  0
  8 24  1  0  0  0  0
  8 25  1  0  0  0  0
  9 11  1  0  0  0  0
  9 26  1  0  0  0  0
  9 27  1  0  0  0  0
 10 28  1  0  0  0  0
 10 29  1  0  0  0  0
 11 30  1  0  0  0  0
 11 31  1  0  0  0  0
 12 13  1  0  0  0  0
 13 15  2  0  0  0  0
 13 16  1  0  0  0  0
 14 17  1  0  0  0  0
 14 18  2  0  0  0  0
 15 19  1  0  0  0  0
 15 32  1  0  0  0  0
 16 20  2  0  0  0  0
 16 33  1  0  0  0  0
 17 21  2  0  0  0  0
 17 34  1  0  0  0  0
 18 35  1  0  0  0  0
 19 36  1  0  0  0  0
 20 37  1  0  0  0  0
 21 22  1  0  0  0  0
 21 38  1  0  0  0  0
 22 39  1  0  0  0  0
M  END
> <PUBCHEM_COMPOUND_CID>
75367701

> <PUBCHEM_CONFORMER_RMSD>
0.8

> <PUBCHEM_CONFORMER_DIVERSEORDER>
1
114
138
101
154
83
142
94
91
35
143
97
120
88
46
109
41
135
37
136
74
122
127
151
62
77
100
121
71
53
156
139
51
129
38
155
43
87
158
6
92
144
106
108
65
137
19
45
24
29
67
125
102
113
145
30
85
52
17
147
12
132
69
16
116
82
55
32
130
115
39
7
22
96
150
99
72
134
3
79
64
98
66
110
157
15
5
75
42
63
34
58
59
126
61
50
107
60
128
103
105
4
90
8
149
118
131
78
117
86
73
153
95
14
26
141
152
140
80
13
112
124
104
146
28
47
40
2
10
70
54
123
76
44
9
133
81
23
48
111
56
18
36
31
33
148
11
68
93
57
49
20
119
84
89
21
27
25

> <PUBCHEM_MMFF94_PARTIAL_CHARGES>
30
1 -0.56
10 0.28
11 0.28
12 0.54
13 0.09
14 0.08
15 -0.15
16 -0.15
17 -0.15
18 0.16
19 0.16
2 -0.36
20 0.16
21 -0.15
22 0.16
3 -0.57
32 0.15
33 0.15
34 0.15
35 0.15
36 0.15
37 0.15
38 0.15
39 0.15
4 -0.66
5 -0.62
6 -0.62
7 0.28
8 0.3
9 0.3

> <PUBCHEM_EFFECTIVE_ROTOR_COUNT>
5.4

> <PUBCHEM_PHARMACOPHORE_FEATURES>
8
1 1 acceptor
1 2 acceptor
1 3 acceptor
1 5 acceptor
1 6 acceptor
6 5 14 17 18 21 22 rings
6 6 13 15 16 19 20 rings
7 1 4 7 8 9 10 11 rings

> <PUBCHEM_HEAVY_ATOM_COUNT>
22

> <PUBCHEM_ATOM_DEF_STEREO_COUNT>
1

> <PUBCHEM_ATOM_UDEF_STEREO_COUNT>
0

> <PUBCHEM_BOND_DEF_STEREO_COUNT>
0

> <PUBCHEM_BOND_UDEF_STEREO_COUNT>
0

> <PUBCHEM_ISOTOPIC_ATOM_COUNT>
0

> <PUBCHEM_COMPONENT_COUNT>
1

> <PUBCHEM_CACTVS_TAUTO_COUNT>
1

> <PUBCHEM_CONFORMER_ID>
047E051500000001

> <PUBCHEM_MMFF94_ENERGY>
78.5244

> <PUBCHEM_FEATURE_SELFOVERLAP>
40.6

> <PUBCHEM_SHAPE_FINGERPRINT>
10493431 412 18337389464773196701
11720765 8 17345485778104790364
12173636 292 18341603884294660959
12403259 118 18264755576724458993
12633257 1 17750229219038878475
12788726 201 17324379878587419022
13140716 1 18335130995123337834
13583140 156 17097187468918042243
13828863 39 15287353061735422028
13878862 14 17973988563171807205
14123250 116 18193830668356624364
14251764 75 18339654428788725713
14468879 13 17773886482973079100
1454969 45 18342176726623440039
146900 427 18340779178144856585
14790565 3 18413394254469134473
14849402 71 18333732416881393840
14955137 171 18193270785406270978
151778 21 18410573950823556172
15342168 16 18040998500508946588
15342816 4 8214136404051578282
15885798 251 9223240641031072085
17349148 13 12324246040495660649
1741750 31 18338512070735307962
17980427 23 18055882555861682746
18785283 64 18263926548973008290
20465049 17 18338815415875569686
20567600 9 18126860304215004261
20626108 58 7925622281112406653
20739085 24 18114186285057603988
21285901 2 12966839100956917043
21709351 56 18265042536173953151
21756936 100 18269551800973878732
21864079 5 18271801324275672333
22620623 9 17130140038613764847
23558518 356 17762330722902406500
23559900 14 17982165613909042043
2637199 183 18340776970040834670
38570 142 17823437027347445060
394222 165 18335696113787285347
474 4 18260546723100639977
49207404 50 18113345206049115035
5048184 11 18336827610258027436
5104073 3 18260548909766430731
5252454 2 18261950855716863060
5312544 6 18409727352919345921
57527585 21 17193743607920749020
633830 44 18273213075857241503
6438754 60 10951777343704129917
6442390 28 18336552710691650187
7808743 9 18193839473356767624
8988823 20 13335022763087995647
960060 61 12247679400300355640
9999458 23 18261394390963715382

> <PUBCHEM_SHAPE_MULTIPOLES>
420.2
10.35
3.71
1.2
8.16
1.7
-0.15
-9.42
0.88
-1.6
0.11
-0.81
0.01
-1.42

> <PUBCHEM_SHAPE_SELFOVERLAP>
895.547

> <PUBCHEM_SHAPE_VOLUME>
227.7

> <PUBCHEM_COORDINATE_TYPE>
2
5
10

$$$$
