28991177
  -OEChem-12032416173D

 67 72  0     1  0  0  0  0  0999 V2000
   -5.1409   -2.1730    0.2104 O   0  0  0  0  0  0  0  0  0  0  0  0
   -5.2520    3.7323    0.9337 O   0  0  0  0  0  0  0  0  0  0  0  0
   -7.0410    3.7709   -0.6805 O   0  0  0  0  0  0  0  0  0  0  0  0
   -0.9405   -3.9264    0.1244 N   0  0  2  0  0  0  0  0  0  0  0  0
    2.8168   -0.8776    0.4920 N   0  0  0  0  0  0  0  0  0  0  0  0
   -3.2331   -1.0016    0.8105 N   0  0  0  0  0  0  0  0  0  0  0  0
    5.1940    0.6802    0.2073 N   0  0  0  0  0  0  0  0  0  0  0  0
    6.1342    2.6633   -0.6801 N   0  0  0  0  0  0  0  0  0  0  0  0
    0.6465   -2.2131   -1.0214 C   0  0  2  0  0  0  0  0  0  0  0  0
    1.2951   -2.7989    0.2536 C   0  0  2  0  0  0  0  0  0  0  0  0
   -1.6598   -2.6459   -0.1137 C   0  0  2  0  0  0  0  0  0  0  0  0
   -0.7004   -1.5629   -0.6557 C   0  0  0  0  0  0  0  0  0  0  0  0
    0.2576   -3.6946    0.9671 C   0  0  0  0  0  0  0  0  0  0  0  0
    0.3415   -3.4007   -1.9543 C   0  0  0  0  0  0  0  0  0  0  0  0
   -0.4880   -4.4468   -1.1887 C   0  0  0  0  0  0  0  0  0  0  0  0
    1.8553   -1.7306    1.1897 C   0  0  0  0  0  0  0  0  0  0  0  0
   -2.4192   -2.1642    1.1246 C   0  0  0  0  0  0  0  0  0  0  0  0
    4.1297   -1.5308    0.4234 C   0  0  0  0  0  0  0  0  0  0  0  0
    2.9393    0.4200    1.1679 C   0  0  0  0  0  0  0  0  0  0  0  0
    5.1312   -0.6727   -0.3538 C   0  0  0  0  0  0  0  0  0  0  0  0
    3.9001    1.3428    0.4147 C   0  0  0  0  0  0  0  0  0  0  0  0
   -4.5393   -1.1152    0.3755 C   0  0  0  0  0  0  0  0  0  0  0  0
    6.3117    1.4842   -0.0430 C   0  0  0  0  0  0  0  0  0  0  0  0
   -5.2268    0.1660    0.0709 C   0  0  0  0  0  0  0  0  0  0  0  0
    7.5417    1.0109    0.3845 C   0  0  0  0  0  0  0  0  0  0  0  0
   -4.8301    1.3372    0.7209 C   0  0  0  0  0  0  0  0  0  0  0  0
   -6.2708    0.1886   -0.8707 C   0  0  0  0  0  0  0  0  0  0  0  0
    8.6618    1.7986    0.1428 C   0  0  0  0  0  0  0  0  0  0  0  0
    7.2457    3.4015   -0.8976 C   0  0  0  0  0  0  0  0  0  0  0  0
   -5.4975    2.5027    0.4045 C   0  0  0  0  0  0  0  0  0  0  0  0
   -6.9299    1.3826   -1.1730 C   0  0  0  0  0  0  0  0  0  0  0  0
    8.5194    3.0181   -0.5098 C   0  0  0  0  0  0  0  0  0  0  0  0
   -6.5191    2.5248   -0.5171 C   0  0  0  0  0  0  0  0  0  0  0  0
   -6.2333    4.5308    0.2413 C   0  0  0  0  0  0  0  0  0  0  0  0
    1.2961   -1.4983   -1.5360 H   0  0  0  0  0  0  0  0  0  0  0  0
    2.1184   -3.4544   -0.0608 H   0  0  0  0  0  0  0  0  0  0  0  0
   -2.4201   -2.8364   -0.8856 H   0  0  0  0  0  0  0  0  0  0  0  0
   -0.5446   -0.7505    0.0615 H   0  0  0  0  0  0  0  0  0  0  0  0
   -1.1403   -1.1074   -1.5520 H   0  0  0  0  0  0  0  0  0  0  0  0
    0.7189   -4.6625    1.2040 H   0  0  0  0  0  0  0  0  0  0  0  0
   -0.0363   -3.2833    1.9392 H   0  0  0  0  0  0  0  0  0  0  0  0
    1.2732   -3.8539   -2.3130 H   0  0  0  0  0  0  0  0  0  0  0  0
   -0.2110   -3.0528   -2.8354 H   0  0  0  0  0  0  0  0  0  0  0  0
   -1.3546   -4.7486   -1.7901 H   0  0  0  0  0  0  0  0  0  0  0  0
    0.0994   -5.3622   -1.0425 H   0  0  0  0  0  0  0  0  0  0  0  0
    2.3040   -2.1961    2.0777 H   0  0  0  0  0  0  0  0  0  0  0  0
    1.0206   -1.1271    1.5677 H   0  0  0  0  0  0  0  0  0  0  0  0
   -1.7433   -1.8604    1.9302 H   0  0  0  0  0  0  0  0  0  0  0  0
   -3.0700   -2.9581    1.5088 H   0  0  0  0  0  0  0  0  0  0  0  0
    4.0631   -2.4975   -0.0868 H   0  0  0  0  0  0  0  0  0  0  0  0
    4.5224   -1.7215    1.4315 H   0  0  0  0  0  0  0  0  0  0  0  0
    3.2884    0.2866    2.2007 H   0  0  0  0  0  0  0  0  0  0  0  0
    1.9622    0.9164    1.2137 H   0  0  0  0  0  0  0  0  0  0  0  0
   -2.7745   -0.0986    0.8615 H   0  0  0  0  0  0  0  0  0  0  0  0
    6.1064   -1.1717   -0.3218 H   0  0  0  0  0  0  0  0  0  0  0  0
    4.8357   -0.6112   -1.4093 H   0  0  0  0  0  0  0  0  0  0  0  0
    3.4711    1.6248   -0.5554 H   0  0  0  0  0  0  0  0  0  0  0  0
    4.0266    2.2598    1.0038 H   0  0  0  0  0  0  0  0  0  0  0  0
    7.6527    0.0669    0.9079 H   0  0  0  0  0  0  0  0  0  0  0  0
   -4.0521    1.3640    1.4752 H   0  0  0  0  0  0  0  0  0  0  0  0
   -6.5780   -0.7207   -1.3816 H   0  0  0  0  0  0  0  0  0  0  0  0
    9.6433    1.4648    0.4657 H   0  0  0  0  0  0  0  0  0  0  0  0
    7.0810    4.3437   -1.4098 H   0  0  0  0  0  0  0  0  0  0  0  0
   -7.7347    1.4046   -1.8991 H   0  0  0  0  0  0  0  0  0  0  0  0
    9.3784    3.6489   -0.7081 H   0  0  0  0  0  0  0  0  0  0  0  0
   -5.7143    5.3199   -0.3150 H   0  0  0  0  0  0  0  0  0  0  0  0
   -6.8920    4.9977    0.9825 H   0  0  0  0  0  0  0  0  0  0  0  0
  1 22  2  0  0  0  0
  2 30  1  0  0  0  0
  2 34  1  0  0  0  0
  3 33  1  0  0  0  0
  3 34  1  0  0  0  0
  4 11  1  0  0  0  0
  4 13  1  0  0  0  0
  4 15  1  0  0  0  0
  5 16  1  0  0  0  0
  5 18  1  0  0  0  0
  5 19  1  0  0  0  0
  6 17  1  0  0  0  0
  6 22  1  0  0  0  0
  6 54  1  0  0  0  0
  7 20  1  0  0  0  0
  7 21  1  0  0  0  0
  7 23  1  0  0  0  0
  8 23  1  0  0  0  0
  8 29  2  0  0  0  0
  9 10  1  0  0  0  0
  9 12  1  0  0  0  0
  9 14  1  0  0  0  0
  9 35  1  0  0  0  0
 10 13  1  0  0  0  0
 10 16  1  0  0  0  0
 10 36  1  0  0  0  0
 11 12  1  0  0  0  0
 11 17  1  0  0  0  0
 11 37  1  0  0  0  0
 12 38  1  0  0  0  0
 12 39  1  0  0  0  0
 13 40  1  0  0  0  0
 13 41  1  0  0  0  0
 14 15  1  0  0  0  0
 14 42  1  0  0  0  0
 14 43  1  0  0  0  0
 15 44  1  0  0  0  0
 15 45  1  0  0  0  0
 16 46  1  0  0  0  0
 16 47  1  0  0  0  0
 17 48  1  0  0  0  0
 17 49  1  0  0  0  0
 18 20  1  0  0  0  0
 18 50  1  0  0  0  0
 18 51  1  0  0  0  0
 19 21  1  0  0  0  0
 19 52  1  0  0  0  0
 19 53  1  0  0  0  0
 20 55  1  0  0  0  0
 20 56  1  0  0  0  0
 21 57  1  0  0  0  0
 21 58  1  0  0  0  0
 22 24  1  0  0  0  0
 23 25  2  0  0  0  0
 24 26  2  0  0  0  0
 24 27  1  0  0  0  0
 25 28  1  0  0  0  0
 25 59  1  0  0  0  0
 26 30  1  0  0  0  0
 26 60  1  0  0  0  0
 27 31  2  0  0  0  0
 27 61  1  0  0  0  0
 28 32  2  0  0  0  0
 28 62  1  0  0  0  0
 29 32  1  0  0  0  0
 29 63  1  0  0  0  0
 30 33  2  0  0  0  0
 31 33  1  0  0  0  0
 31 64  1  0  0  0  0
 32 65  1  0  0  0  0
 34 66  1  0  0  0  0
 34 67  1  0  0  0  0
M  END
> <PUBCHEM_COMPOUND_CID>
28991177

> <PUBCHEM_CONFORMER_RMSD>
1

> <PUBCHEM_CONFORMER_DIVERSEORDER>
1
92
181
129
96
113
183
150
164
176
115
162
108
117
83
78
121
85
147
110
23
182
140
38
111
168
37
46
124
178
49
93
145
84
119
22
25
65
138
60
166
18
154
34
146
72
136
82
91
70
158
68
81
165
144
66
112
4
64
48
79
133
180
130
152
153
57
94
99
141
103
122
9
75
104
59
123
175
118
159
86
139
167
177
62
80
15
101
151
50
56
107
125
174
137
73
170
20
14
120
61
149
43
179
90
76
128
148
161
17
27
109
143
55
134
7
98
163
142
100
105
184
51
172
47
42
26
69
35
29
67
126
3
95
36
40
21
160
5
63
169
44
33
77
53
39
10
28
106
71
97
16
52
31
12
132
2
24
127
8
102
32
131
173
87
88
54
171
74
13
45
58
19
156
157
41
116
89
155
135
30
114
11
6

> <PUBCHEM_MMFF94_PARTIAL_CHARGES>
38
1 -0.57
11 0.27
13 0.27
15 0.27
16 0.27
17 0.3
18 0.27
19 0.27
2 -0.36
20 0.37
21 0.37
22 0.54
23 0.41
24 0.09
25 -0.15
26 -0.15
27 -0.15
28 -0.15
29 0.16
3 -0.36
30 0.08
31 -0.15
32 -0.15
33 0.08
34 0.56
4 -0.81
5 -0.81
54 0.37
59 0.15
6 -0.73
60 0.15
61 0.15
62 0.15
63 0.15
64 0.15
65 0.15
7 -0.84
8 -0.62

> <PUBCHEM_EFFECTIVE_ROTOR_COUNT>
10

> <PUBCHEM_PHARMACOPHORE_FEATURES>
13
1 1 acceptor
1 2 acceptor
1 3 acceptor
1 4 cation
1 5 cation
1 6 donor
1 7 cation
1 8 acceptor
5 2 3 30 33 34 rings
6 24 26 27 30 31 33 rings
6 5 7 18 19 20 21 rings
6 8 23 25 28 29 32 rings
8 4 9 10 11 12 13 14 15 rings

> <PUBCHEM_HEAVY_ATOM_COUNT>
34

> <PUBCHEM_ATOM_DEF_STEREO_COUNT>
3

> <PUBCHEM_ATOM_UDEF_STEREO_COUNT>
0

> <PUBCHEM_BOND_DEF_STEREO_COUNT>
0

> <PUBCHEM_BOND_UDEF_STEREO_COUNT>
0

> <PUBCHEM_ISOTOPIC_ATOM_COUNT>
0

> <PUBCHEM_COMPONENT_COUNT>
1

> <PUBCHEM_CACTVS_TAUTO_COUNT>
2

> <PUBCHEM_CONFORMER_ID>
01BA5EC900000001

> <PUBCHEM_MMFF94_ENERGY>
101.9988

> <PUBCHEM_FEATURE_SELFOVERLAP>
66.131

> <PUBCHEM_SHAPE_FINGERPRINT>
10280341 67 18270387404600984512
10625338 131 18335696148890932352
10864689 126 18343299293198253248
11408170 253 18269286822925302624
11421887 103 18261661585243661645
11621639 254 18199179780142642735
11828422 8 18197226853543613639
12013929 29 18269275664299158112
12124843 1 17988357071011668925
12133447 93 18336559291541676732
12522641 68 18201434804923477174
12975358 362 18191610578799357737
13248334 5 18121496847835577122
13782708 43 10015569606838873027
13944108 23 18053100614452997041
14705955 166 17678190471581449947
15064981 113 17489596645322240158
15198563 99 17841416335937877927
15406563 42 18410576150485004901
15419008 91 17559670845534038416
15803439 3 16917066672309560606
15950262 2 18259989262073368426
15980000 95 17472415453030824506
16120349 189 18411134749183245231
16728433 281 18272657861050938096
16990366 60 8934706791080309356
16992727 255 18411141372587448032
19053607 189 18268135492521907865
19303781 99 11959730490482366813
20691028 202 18409443726486208560
21223535 225 18200867496004926372
21353434 59 18187361077620978268
21585482 111 18261392217794802812
23191077 185 18411690011114253114
23516275 100 18262233297067302525
23569914 152 17842860841213858726
23569914 2 16157060970339598533
25025965 108 13253147518990820460
2748736 6 18409159987650003609
2838139 119 18341890844029212170
3918712 181 18409726223306810013
393628 179 18271230711942872528
393628 194 18408603665132515365
406291 66 10087642593976637060
4169191 19 18334852805902097149
4366758 26 18334300911274370764
437795 171 17972310716596002773
437795 83 18341327868896363269
44802255 64 17987524869527053558
48014 12 18339932618315369273
5372103 7 17968921017374172877
5718773 13 9871753490172961268
5776283 40 18342452681728769721
6036956 94 18196940976890095089
6201320 82 18341065033398170545
6327066 14 18411417323508020686
636775 72 18266458905267981576
636775 8 8790614736684805568
6673363 416 18194966472780240111
6698420 124 17749387140141805826
7970288 3 9115426379249741387
99344 41 18408604755895920124

> <PUBCHEM_SHAPE_MULTIPOLES>
657.19
25.23
6.46
1.18
20.56
0.3
-0.2
40.58
-3.11
-5
-1.06
-0.28
-0.58
-0.91

> <PUBCHEM_SHAPE_SELFOVERLAP>
1428.127

> <PUBCHEM_SHAPE_VOLUME>
353.2

> <PUBCHEM_COORDINATE_TYPE>
2
5
10

$$$$
