75536788
  -OEChem-12032416383D

 50 52  0     1  0  0  0  0  0999 V2000
    0.2567    0.2801   -1.0163 O   0  0  0  0  0  0  0  0  0  0  0  0
   -0.9204   -2.3499    1.1291 O   0  0  0  0  0  0  0  0  0  0  0  0
    3.5925   -1.3275    1.4926 O   0  0  0  0  0  0  0  0  0  0  0  0
   -3.1394   -0.9565   -0.6060 N   0  0  0  0  0  0  0  0  0  0  0  0
   -6.8566    0.7960    0.4781 N   0  0  0  0  0  0  0  0  0  0  0  0
    2.8779   -0.8496   -0.6623 N   0  0  0  0  0  0  0  0  0  0  0  0
    7.1620    1.7730   -0.1263 N   0  0  0  0  0  0  0  0  0  0  0  0
   -1.8258   -0.5001   -0.1820 C   0  0  1  0  0  0  0  0  0  0  0  0
   -4.1492    0.0714   -0.3639 C   0  0  0  0  0  0  0  0  0  0  0  0
   -0.8004   -1.6134   -0.0724 C   0  0  1  0  0  0  0  0  0  0  0  0
    0.4991   -0.8214   -0.1254 C   0  0  1  0  0  0  0  0  0  0  0  0
   -4.5794    0.0558    1.1052 C   0  0  0  0  0  0  0  0  0  0  0  0
   -5.3685   -0.1346   -1.2673 C   0  0  0  0  0  0  0  0  0  0  0  0
   -1.1637    0.4200   -1.1946 C   0  0  0  0  0  0  0  0  0  0  0  0
   -5.7083    1.0587    1.3570 C   0  0  0  0  0  0  0  0  0  0  0  0
   -6.4719    0.8744   -0.9381 C   0  0  0  0  0  0  0  0  0  0  0  0
    1.6787   -1.6361   -0.6255 C   0  0  0  0  0  0  0  0  0  0  0  0
   -7.9450    1.7299    0.7651 C   0  0  0  0  0  0  0  0  0  0  0  0
    3.7519   -0.7573    0.4166 C   0  0  0  0  0  0  0  0  0  0  0  0
    4.9364    0.1195    0.2284 C   0  0  0  0  0  0  0  0  0  0  0  0
    5.5375    0.7259    1.3259 C   0  0  0  0  0  0  0  0  0  0  0  0
    5.4469    0.3388   -1.0462 C   0  0  0  0  0  0  0  0  0  0  0  0
    6.6377    1.5363    1.0971 C   0  0  0  0  0  0  0  0  0  0  0  0
    6.5514    1.1665   -1.1689 C   0  0  0  0  0  0  0  0  0  0  0  0
   -1.8713   -0.0023    0.7946 H   0  0  0  0  0  0  0  0  0  0  0  0
   -3.7476    1.0650   -0.6040 H   0  0  0  0  0  0  0  0  0  0  0  0
   -0.8767   -2.3053   -0.9205 H   0  0  0  0  0  0  0  0  0  0  0  0
    0.7366   -0.3985    0.8597 H   0  0  0  0  0  0  0  0  0  0  0  0
   -3.3905   -1.8132   -0.1137 H   0  0  0  0  0  0  0  0  0  0  0  0
   -3.7469    0.3040    1.7724 H   0  0  0  0  0  0  0  0  0  0  0  0
   -4.9241   -0.9476    1.3909 H   0  0  0  0  0  0  0  0  0  0  0  0
   -5.7621   -1.1531   -1.1469 H   0  0  0  0  0  0  0  0  0  0  0  0
   -5.0801   -0.0280   -2.3203 H   0  0  0  0  0  0  0  0  0  0  0  0
   -1.3888    0.1325   -2.2281 H   0  0  0  0  0  0  0  0  0  0  0  0
   -1.4412    1.4698   -1.0607 H   0  0  0  0  0  0  0  0  0  0  0  0
   -5.3321    2.0806    1.2151 H   0  0  0  0  0  0  0  0  0  0  0  0
   -6.0170    0.9682    2.4056 H   0  0  0  0  0  0  0  0  0  0  0  0
   -6.1347    1.8869   -1.1967 H   0  0  0  0  0  0  0  0  0  0  0  0
   -7.3391    0.6489   -1.5706 H   0  0  0  0  0  0  0  0  0  0  0  0
    1.5038   -1.9767   -1.6520 H   0  0  0  0  0  0  0  0  0  0  0  0
    1.8389   -2.5141    0.0093 H   0  0  0  0  0  0  0  0  0  0  0  0
   -0.8547   -1.7304    1.8756 H   0  0  0  0  0  0  0  0  0  0  0  0
   -8.8200    1.5031    0.1459 H   0  0  0  0  0  0  0  0  0  0  0  0
   -7.6555    2.7716    0.5852 H   0  0  0  0  0  0  0  0  0  0  0  0
   -8.2671    1.6366    1.8082 H   0  0  0  0  0  0  0  0  0  0  0  0
    3.0350   -0.2983   -1.4992 H   0  0  0  0  0  0  0  0  0  0  0  0
    5.1679    0.5846    2.3359 H   0  0  0  0  0  0  0  0  0  0  0  0
    5.0414   -0.1264   -1.9373 H   0  0  0  0  0  0  0  0  0  0  0  0
    7.1419    2.0334    1.9192 H   0  0  0  0  0  0  0  0  0  0  0  0
    6.9924    1.3644   -2.1404 H   0  0  0  0  0  0  0  0  0  0  0  0
  1 11  1  0  0  0  0
  1 14  1  0  0  0  0
  2 10  1  0  0  0  0
  2 42  1  0  0  0  0
  3 19  2  0  0  0  0
  4  8  1  0  0  0  0
  4  9  1  0  0  0  0
  4 29  1  0  0  0  0
  5 15  1  0  0  0  0
  5 16  1  0  0  0  0
  5 18  1  0  0  0  0
  6 17  1  0  0  0  0
  6 19  1  0  0  0  0
  6 46  1  0  0  0  0
  7 23  2  0  0  0  0
  7 24  1  0  0  0  0
  8 10  1  0  0  0  0
  8 14  1  0  0  0  0
  8 25  1  0  0  0  0
  9 12  1  0  0  0  0
  9 13  1  0  0  0  0
  9 26  1  0  0  0  0
 10 11  1  0  0  0  0
 10 27  1  0  0  0  0
 11 17  1  0  0  0  0
 11 28  1  0  0  0  0
 12 15  1  0  0  0  0
 12 30  1  0  0  0  0
 12 31  1  0  0  0  0
 13 16  1  0  0  0  0
 13 32  1  0  0  0  0
 13 33  1  0  0  0  0
 14 34  1  0  0  0  0
 14 35  1  0  0  0  0
 15 36  1  0  0  0  0
 15 37  1  0  0  0  0
 16 38  1  0  0  0  0
 16 39  1  0  0  0  0
 17 40  1  0  0  0  0
 17 41  1  0  0  0  0
 18 43  1  0  0  0  0
 18 44  1  0  0  0  0
 18 45  1  0  0  0  0
 19 20  1  0  0  0  0
 20 21  2  0  0  0  0
 20 22  1  0  0  0  0
 21 23  1  0  0  0  0
 21 47  1  0  0  0  0
 22 24  2  0  0  0  0
 22 48  1  0  0  0  0
 23 49  1  0  0  0  0
 24 50  1  0  0  0  0
M  END
> <PUBCHEM_COMPOUND_CID>
75536788

> <PUBCHEM_CONFORMER_RMSD>
0.8

> <PUBCHEM_CONFORMER_DIVERSEORDER>
1
11
5
154
190
62
139
159
165
114
61
82
156
127
158
17
49
28
65
142
75
113
63
98
164
103
141
67
151
89
170
94
152
181
125
182
37
43
18
86
51
132
188
109
110
100
175
81
185
53
88
173
111
169
12
108
136
167
161
145
163
47
149
101
7
177
144
143
44
160
117
176
22
68
146
121
52
153
78
71
122
162
124
59
155
128
99
126
54
57
80
32
129
66
25
123
13
102
178
112
106
46
131
166
87
21
191
69
19
171
38
83
192
179
120
73
33
23
70
130
186
147
93
42
85
189
157
172
60
35
15
96
8
105
30
118
140
72
119
31
48
95
104
41
45
138
84
77
74
58
187
148
183
137
39
168
2
116
27
20
97
134
40
10
29
76
174
91
50
107
92
79
180
150
36
184
3
135
133
115
90
14
16
56
4
9
6
26
55
24
34
64

> <PUBCHEM_MMFF94_PARTIAL_CHARGES>
29
1 -0.56
10 0.28
11 0.28
14 0.28
15 0.27
16 0.27
17 0.3
18 0.27
19 0.54
2 -0.68
20 0.09
21 -0.15
22 -0.15
23 0.16
24 0.16
29 0.36
3 -0.57
4 -0.9
42 0.4
46 0.37
47 0.15
48 0.15
49 0.15
5 -0.81
50 0.15
6 -0.73
7 -0.62
8 0.27
9 0.27

> <PUBCHEM_EFFECTIVE_ROTOR_COUNT>
8.2

> <PUBCHEM_PHARMACOPHORE_FEATURES>
12
1 1 acceptor
1 2 acceptor
1 2 donor
1 3 acceptor
1 4 cation
1 4 donor
1 5 cation
1 6 donor
1 7 acceptor
5 1 8 10 11 14 rings
6 5 9 12 13 15 16 rings
6 7 20 21 22 23 24 rings

> <PUBCHEM_HEAVY_ATOM_COUNT>
24

> <PUBCHEM_ATOM_DEF_STEREO_COUNT>
3

> <PUBCHEM_ATOM_UDEF_STEREO_COUNT>
0

> <PUBCHEM_BOND_DEF_STEREO_COUNT>
0

> <PUBCHEM_BOND_UDEF_STEREO_COUNT>
0

> <PUBCHEM_ISOTOPIC_ATOM_COUNT>
0

> <PUBCHEM_COMPONENT_COUNT>
1

> <PUBCHEM_CACTVS_TAUTO_COUNT>
2

> <PUBCHEM_CONFORMER_ID>
0480999400000001

> <PUBCHEM_MMFF94_ENERGY>
44.189

> <PUBCHEM_FEATURE_SELFOVERLAP>
60.897

> <PUBCHEM_SHAPE_FINGERPRINT>
10 15 17095526201215972677
106641 1 18040722489468900251
10670039 82 14764357011108863539
10753850 27 8070027761521581926
10906281 52 18335993033603412054
11315181 36 18413386550109597823
11991303 11 13973670759256642901
12166972 35 13758070830994828962
12236239 1 18201998782106641887
125118 31 18335420110889163333
12596602 18 18113339699959122755
12670543 26 13686301261853552963
12760667 363 9223236255801112295
13533116 47 18337669703379880242
13540713 5 17170695541888823911
13668630 136 9367342631020898777
13673619 4 8935002568398822862
13685833 64 11169911689011008574
13782708 43 8358259237153351046
13862211 1 9367347032929587871
14251752 14 13973967588408327564
14251757 52 18344145882132064472
14251764 18 18260267473486687927
14347332 77 10663836156348472690
14528608 73 16988839488503697398
14556957 393 14117249406847410186
14849402 71 18337112358364204245
15048467 5 18343864415729086927
15183329 4 14764354829397163322
15188451 53 12540695929108523335
15348495 7 16298676074066248965
15706992 2 18270695228763790081
15716309 27 13334740137255208709
1577012 14 18131064918768918295
16994733 274 18342736287267280177
1768 124 12396291557022742928
17980427 23 18041560364031191662
190975 80 16226053326788137265
2026 5 8070033255276332377
20281389 69 18412260606018835409
21033648 29 18129932503639300552
21130935 74 17968380036052350555
21150785 3 16056879143507752861
21267235 1 10952046776014353735
21424621 283 18341618075351643611
21637258 2 11169914995977843655
221357 26 15482956056015590226
2215653 11 13254797953998273812
22224240 67 18040436581986051107
23035841 295 8070022268997044541
23081809 10 18131058317067009727
23576562 1 15122920999487037545
3004659 81 12967128315923708350
4073 2 18343023298510167167
4340502 62 16153425039329508194
445580 37 16702307836821981529
465052 167 10809349918677039666
5104073 3 17313956366527209864
543368 44 18130787846355102057
559249 180 12035447234333842267
5758199 1 18410013226306739955
59682541 35 18186526514578348265
59682541 52 15051739673013079308
59755656 215 12103851150357536348
6438161 24 11600007618347072756

> <PUBCHEM_SHAPE_MULTIPOLES>
456.38
23
1.75
1.39
4.12
0.11
0.09
-16.87
0.93
-0.44
0.43
-0.25
-0.07
-0.69

> <PUBCHEM_SHAPE_SELFOVERLAP>
947.954

> <PUBCHEM_SHAPE_VOLUME>
259.3

> <PUBCHEM_COORDINATE_TYPE>
2
5
10

$$$$
