9424513
  -OEChem-12032416153D

 47 51  0     1  0  0  0  0  0999 V2000
    2.2032   -3.5631    0.5068 S   0  0  0  0  0  0  0  0  0  0  0  0
   -3.6996    1.8006    0.2277 F   0  0  0  0  0  0  0  0  0  0  0  0
    1.6023    3.0160   -2.4439 O   0  0  0  0  0  0  0  0  0  0  0  0
    3.9725   -0.6933    0.0805 O   0  0  0  0  0  0  0  0  0  0  0  0
    0.7226    2.0143   -0.5182 N   0  0  0  0  0  0  0  0  0  0  0  0
    2.0901   -0.1333    1.3495 N   0  0  0  0  0  0  0  0  0  0  0  0
    1.8419    2.2994    1.7729 C   0  0  2  0  0  0  0  0  0  0  0  0
   -0.1648    0.8937    1.5491 C   0  0  2  0  0  0  0  0  0  0  0  0
    0.4430    2.0632    2.3226 C   0  0  0  0  0  0  0  0  0  0  0  0
    1.7228    2.7110    0.3042 C   0  0  0  0  0  0  0  0  0  0  0  0
    2.7129    1.0442    1.9508 C   0  0  0  0  0  0  0  0  0  0  0  0
    0.6983   -0.3692    1.7604 C   0  0  0  0  0  0  0  0  0  0  0  0
   -0.2789    1.2050    0.0547 C   0  0  0  0  0  0  0  0  0  0  0  0
   -1.2754    0.7075   -0.7233 C   0  0  0  0  0  0  0  0  0  0  0  0
    0.7603    2.3061   -1.8931 C   0  0  0  0  0  0  0  0  0  0  0  0
    2.8078   -0.8931    0.4224 C   0  0  0  0  0  0  0  0  0  0  0  0
   -1.2666    0.9840   -2.1471 C   0  0  0  0  0  0  0  0  0  0  0  0
   -0.3151    1.7180   -2.7237 C   0  0  0  0  0  0  0  0  0  0  0  0
   -2.3608   -0.1256   -0.1605 C   0  0  0  0  0  0  0  0  0  0  0  0
    2.1282   -2.0208   -0.2261 C   0  0  0  0  0  0  0  0  0  0  0  0
   -3.5337    0.4715    0.2920 C   0  0  0  0  0  0  0  0  0  0  0  0
   -2.1990   -1.5061   -0.0886 C   0  0  0  0  0  0  0  0  0  0  0  0
    1.4029   -2.0292   -1.3924 C   0  0  0  0  0  0  0  0  0  0  0  0
   -4.5538   -0.3189    0.8214 C   0  0  0  0  0  0  0  0  0  0  0  0
   -3.2191   -2.2966    0.4407 C   0  0  0  0  0  0  0  0  0  0  0  0
    0.8970   -3.3268   -1.6927 C   0  0  0  0  0  0  0  0  0  0  0  0
   -4.3965   -1.7029    0.8957 C   0  0  0  0  0  0  0  0  0  0  0  0
    1.2580   -4.2557   -0.7418 C   0  0  0  0  0  0  0  0  0  0  0  0
    2.3216    3.1169    2.3252 H   0  0  0  0  0  0  0  0  0  0  0  0
   -1.1536    0.7085    1.9831 H   0  0  0  0  0  0  0  0  0  0  0  0
   -0.1745    2.9637    2.2145 H   0  0  0  0  0  0  0  0  0  0  0  0
    0.4878    1.8314    3.3938 H   0  0  0  0  0  0  0  0  0  0  0  0
    1.4471    3.7739    0.2620 H   0  0  0  0  0  0  0  0  0  0  0  0
    2.6988    2.6357   -0.1923 H   0  0  0  0  0  0  0  0  0  0  0  0
    3.7106    1.2132    1.5321 H   0  0  0  0  0  0  0  0  0  0  0  0
    2.8433    0.8269    3.0180 H   0  0  0  0  0  0  0  0  0  0  0  0
    0.7247   -0.6266    2.8267 H   0  0  0  0  0  0  0  0  0  0  0  0
    0.2697   -1.2275    1.2443 H   0  0  0  0  0  0  0  0  0  0  0  0
   -2.0596    0.5622   -2.7575 H   0  0  0  0  0  0  0  0  0  0  0  0
   -0.3129    1.9141   -3.7893 H   0  0  0  0  0  0  0  0  0  0  0  0
   -1.2973   -1.9873   -0.4453 H   0  0  0  0  0  0  0  0  0  0  0  0
    1.2426   -1.1539   -2.0079 H   0  0  0  0  0  0  0  0  0  0  0  0
   -5.4704    0.1434    1.1757 H   0  0  0  0  0  0  0  0  0  0  0  0
   -3.0973   -3.3743    0.4966 H   0  0  0  0  0  0  0  0  0  0  0  0
    0.2986   -3.5664   -2.5619 H   0  0  0  0  0  0  0  0  0  0  0  0
   -5.1910   -2.3184    1.3076 H   0  0  0  0  0  0  0  0  0  0  0  0
    1.0115   -5.3079   -0.7203 H   0  0  0  0  0  0  0  0  0  0  0  0
  1 20  1  0  0  0  0
  1 28  1  0  0  0  0
  2 21  1  0  0  0  0
  3 15  2  0  0  0  0
  4 16  2  0  0  0  0
  5 10  1  0  0  0  0
  5 13  1  0  0  0  0
  5 15  1  0  0  0  0
  6 11  1  0  0  0  0
  6 12  1  0  0  0  0
  6 16  1  0  0  0  0
  7  9  1  0  0  0  0
  7 10  1  0  0  0  0
  7 11  1  0  0  0  0
  7 29  1  0  0  0  0
  8  9  1  0  0  0  0
  8 12  1  0  0  0  0
  8 13  1  0  0  0  0
  8 30  1  0  0  0  0
  9 31  1  0  0  0  0
  9 32  1  0  0  0  0
 10 33  1  0  0  0  0
 10 34  1  0  0  0  0
 11 35  1  0  0  0  0
 11 36  1  0  0  0  0
 12 37  1  0  0  0  0
 12 38  1  0  0  0  0
 13 14  2  0  0  0  0
 14 17  1  0  0  0  0
 14 19  1  0  0  0  0
 15 18  1  0  0  0  0
 16 20  1  0  0  0  0
 17 18  2  0  0  0  0
 17 39  1  0  0  0  0
 18 40  1  0  0  0  0
 19 21  1  0  0  0  0
 19 22  2  0  0  0  0
 20 23  2  0  0  0  0
 21 24  2  0  0  0  0
 22 25  1  0  0  0  0
 22 41  1  0  0  0  0
 23 26  1  0  0  0  0
 23 42  1  0  0  0  0
 24 27  1  0  0  0  0
 24 43  1  0  0  0  0
 25 27  2  0  0  0  0
 25 44  1  0  0  0  0
 26 28  2  0  0  0  0
 26 45  1  0  0  0  0
 27 46  1  0  0  0  0
 28 47  1  0  0  0  0
M  END
> <PUBCHEM_COMPOUND_CID>
9424513

> <PUBCHEM_CONFORMER_RMSD>
0.8

> <PUBCHEM_CONFORMER_DIVERSEORDER>
1
11
12
7
3
6
10
9
8
2
4
5

> <PUBCHEM_MMFF94_PARTIAL_CHARGES>
35
1 -0.08
10 0.3
11 0.3
12 0.3
13 -0.03
14 -0.03
15 0.62
16 0.71
17 -0.15
18 -0.14
19 0.03
2 -0.19
20 -0.05
21 0.19
22 -0.15
23 -0.15
24 -0.15
25 -0.15
26 -0.15
27 -0.15
28 -0.11
3 -0.57
39 0.15
4 -0.57
40 0.15
41 0.15
42 0.15
43 0.15
44 0.15
45 0.15
46 0.15
47 0.15
5 -0.47
6 -0.66
8 0.14

> <PUBCHEM_EFFECTIVE_ROTOR_COUNT>
4

> <PUBCHEM_PHARMACOPHORE_FEATURES>
7
1 3 acceptor
1 4 acceptor
5 1 20 23 26 28 rings
6 19 21 22 24 25 27 rings
6 5 13 14 15 17 18 rings
6 5 7 8 9 10 13 rings
6 6 7 8 9 11 12 rings

> <PUBCHEM_HEAVY_ATOM_COUNT>
28

> <PUBCHEM_ATOM_DEF_STEREO_COUNT>
2

> <PUBCHEM_ATOM_UDEF_STEREO_COUNT>
0

> <PUBCHEM_BOND_DEF_STEREO_COUNT>
0

> <PUBCHEM_BOND_UDEF_STEREO_COUNT>
0

> <PUBCHEM_ISOTOPIC_ATOM_COUNT>
0

> <PUBCHEM_COMPONENT_COUNT>
1

> <PUBCHEM_CACTVS_TAUTO_COUNT>
1

> <PUBCHEM_CONFORMER_ID>
008FCE8100000001

> <PUBCHEM_MMFF94_ENERGY>
77

> <PUBCHEM_FEATURE_SELFOVERLAP>
37.107

> <PUBCHEM_SHAPE_FINGERPRINT>
10064457 181 17911513508678228480
12156800 1 14757931323427831574
12422481 6 18046883121622963744
12553582 1 17843950452013764010
13583140 156 17845640573569404721
14863182 85 18048603917370775579
15664445 248 17968106265370625407
16945 1 18267281201872327560
17492 54 17532958175296215158
17974551 9 17558259930652895449
1813 80 17822301141235066873
20600515 1 17906752305724015831
20691752 17 17313376885598048979
20775530 9 18194127304600454127
21756936 100 16550004851726714992
22149856 69 18124050164166911555
23419403 2 18053086329745068653
23559900 14 18409733984755097949
238 59 17694168453785171542
25222932 49 17129004265283970743
3493558 16 8133073401929135643
35225 105 16910303786618921111
57527585 103 17189255998366761926
6287921 2 18265336277440325155

> <PUBCHEM_SHAPE_MULTIPOLES>
551.1
5.83
4.56
2.38
6.36
3.38
-0.94
2.21
2.33
-3.15
-1.28
-0.8
-1.8
0.92

> <PUBCHEM_SHAPE_SELFOVERLAP>
1212.273

> <PUBCHEM_SHAPE_VOLUME>
298.6

> <PUBCHEM_COORDINATE_TYPE>
2
5
10

$$$$
