40779505
  -OEChem-12032416163D

 71 74  0     1  0  0  0  0  0999 V2000
   -5.6163    1.3200    0.9101 O   0  0  0  0  0  0  0  0  0  0  0  0
    3.8380    3.2218    0.0856 O   0  0  0  0  0  0  0  0  0  0  0  0
    6.4880    2.4557   -0.2524 O   0  0  0  0  0  0  0  0  0  0  0  0
   -3.1443   -2.5312    0.7773 N   0  0  2  0  0  0  0  0  0  0  0  0
    1.5532   -3.2549    0.5387 N   0  0  0  0  0  0  0  0  0  0  0  0
   -3.3267    1.2165    0.5496 N   0  0  0  0  0  0  0  0  0  0  0  0
    2.7360   -2.6220    0.6196 N   0  0  0  0  0  0  0  0  0  0  0  0
   -1.6914   -2.4444   -1.3825 C   0  0  2  0  0  0  0  0  0  0  0  0
   -0.8640   -3.0047   -0.1926 C   0  0  2  0  0  0  0  0  0  0  0  0
   -3.2486   -1.1882    0.1483 C   0  0  2  0  0  0  0  0  0  0  0  0
   -2.2388   -1.0500   -1.0113 C   0  0  0  0  0  0  0  0  0  0  0  0
   -2.9087   -3.3778   -1.5568 C   0  0  0  0  0  0  0  0  0  0  0  0
   -1.7262   -2.8370    1.0911 C   0  0  0  0  0  0  0  0  0  0  0  0
   -3.6269   -3.5316   -0.2047 C   0  0  0  0  0  0  0  0  0  0  0  0
   -3.1061   -0.0550    1.1666 C   0  0  0  0  0  0  0  0  0  0  0  0
    0.5580   -2.4961   -0.0036 C   0  0  0  0  0  0  0  0  0  0  0  0
    1.1293   -1.2822   -0.2976 C   0  0  0  0  0  0  0  0  0  0  0  0
    2.4708   -1.4174    0.1072 C   0  0  0  0  0  0  0  0  0  0  0  0
    1.4471   -4.6155    1.0127 C   0  0  0  0  0  0  0  0  0  0  0  0
   -4.5831    1.8168    0.4666 C   0  0  0  0  0  0  0  0  0  0  0  0
   -4.5542    3.1675   -0.2556 C   0  0  0  0  0  0  0  0  0  0  0  0
    3.5029   -0.4178    0.0153 C   0  0  0  0  0  0  0  0  0  0  0  0
   -4.0657    3.0393   -1.7090 C   0  0  0  0  0  0  0  0  0  0  0  0
   -3.7149    4.1818    0.5480 C   0  0  0  0  0  0  0  0  0  0  0  0
    3.1727    0.9350    0.0955 C   0  0  0  0  0  0  0  0  0  0  0  0
    4.8330   -0.8022   -0.1545 C   0  0  0  0  0  0  0  0  0  0  0  0
   -4.9243    2.0831   -2.5287 C   0  0  0  0  0  0  0  0  0  0  0  0
   -4.1742    4.3920    1.9855 C   0  0  0  0  0  0  0  0  0  0  0  0
    4.1725    1.9036    0.0060 C   0  0  0  0  0  0  0  0  0  0  0  0
    5.8327    0.1664   -0.2443 C   0  0  0  0  0  0  0  0  0  0  0  0
    5.5026    1.5192   -0.1641 C   0  0  0  0  0  0  0  0  0  0  0  0
    2.4563    3.5302    0.2594 C   0  0  0  0  0  0  0  0  0  0  0  0
    7.8212    1.9789   -0.4256 C   0  0  0  0  0  0  0  0  0  0  0  0
   -1.0976   -2.3991   -2.3014 H   0  0  0  0  0  0  0  0  0  0  0  0
   -0.7720   -4.0839   -0.3864 H   0  0  0  0  0  0  0  0  0  0  0  0
   -4.2610   -1.0967   -0.2729 H   0  0  0  0  0  0  0  0  0  0  0  0
   -1.4310   -0.3629   -0.7566 H   0  0  0  0  0  0  0  0  0  0  0  0
   -2.7491   -0.6196   -1.8824 H   0  0  0  0  0  0  0  0  0  0  0  0
   -2.5891   -4.3605   -1.9226 H   0  0  0  0  0  0  0  0  0  0  0  0
   -3.5941   -2.9606   -2.3046 H   0  0  0  0  0  0  0  0  0  0  0  0
   -1.6875   -3.7670    1.6735 H   0  0  0  0  0  0  0  0  0  0  0  0
   -1.3108   -2.0736    1.7593 H   0  0  0  0  0  0  0  0  0  0  0  0
   -4.7100   -3.4276   -0.3443 H   0  0  0  0  0  0  0  0  0  0  0  0
   -3.4780   -4.5439    0.1921 H   0  0  0  0  0  0  0  0  0  0  0  0
   -2.1039   -0.0217    1.6054 H   0  0  0  0  0  0  0  0  0  0  0  0
   -3.8247   -0.1861    1.9840 H   0  0  0  0  0  0  0  0  0  0  0  0
    0.6604   -0.4258   -0.7560 H   0  0  0  0  0  0  0  0  0  0  0  0
   -2.5200    1.6905    0.1563 H   0  0  0  0  0  0  0  0  0  0  0  0
    1.2484   -5.2649    0.1569 H   0  0  0  0  0  0  0  0  0  0  0  0
    2.3873   -4.9094    1.4875 H   0  0  0  0  0  0  0  0  0  0  0  0
    0.6383   -4.6719    1.7444 H   0  0  0  0  0  0  0  0  0  0  0  0
   -5.5907    3.5315   -0.2761 H   0  0  0  0  0  0  0  0  0  0  0  0
   -3.0233    2.7030   -1.7466 H   0  0  0  0  0  0  0  0  0  0  0  0
   -4.0935    4.0275   -2.1843 H   0  0  0  0  0  0  0  0  0  0  0  0
   -3.7550    5.1503    0.0335 H   0  0  0  0  0  0  0  0  0  0  0  0
   -2.6591    3.8860    0.5584 H   0  0  0  0  0  0  0  0  0  0  0  0
    2.1294    1.1915    0.2427 H   0  0  0  0  0  0  0  0  0  0  0  0
    5.1194   -1.8487   -0.2290 H   0  0  0  0  0  0  0  0  0  0  0  0
   -5.9750    2.3897   -2.5150 H   0  0  0  0  0  0  0  0  0  0  0  0
   -4.5876    2.0774   -3.5703 H   0  0  0  0  0  0  0  0  0  0  0  0
   -4.8582    1.0576   -2.1533 H   0  0  0  0  0  0  0  0  0  0  0  0
   -4.0522    3.4840    2.5834 H   0  0  0  0  0  0  0  0  0  0  0  0
   -5.2270    4.6896    2.0187 H   0  0  0  0  0  0  0  0  0  0  0  0
   -3.5829    5.1834    2.4572 H   0  0  0  0  0  0  0  0  0  0  0  0
    6.8430   -0.2051   -0.3777 H   0  0  0  0  0  0  0  0  0  0  0  0
    2.3732    4.6214    0.2981 H   0  0  0  0  0  0  0  0  0  0  0  0
    2.0741    3.1501    1.2130 H   0  0  0  0  0  0  0  0  0  0  0  0
    1.8567    3.1977   -0.5950 H   0  0  0  0  0  0  0  0  0  0  0  0
    8.4733    2.8571   -0.4759 H   0  0  0  0  0  0  0  0  0  0  0  0
    7.9379    1.4419   -1.3731 H   0  0  0  0  0  0  0  0  0  0  0  0
    8.1527    1.3859    0.4336 H   0  0  0  0  0  0  0  0  0  0  0  0
  1 20  2  0  0  0  0
  2 29  1  0  0  0  0
  2 32  1  0  0  0  0
  3 31  1  0  0  0  0
  3 33  1  0  0  0  0
  4 10  1  0  0  0  0
  4 13  1  0  0  0  0
  4 14  1  0  0  0  0
  5  7  1  0  0  0  0
  5 16  1  0  0  0  0
  5 19  1  0  0  0  0
  6 15  1  0  0  0  0
  6 20  1  0  0  0  0
  6 48  1  0  0  0  0
  7 18  2  0  0  0  0
  8  9  1  0  0  0  0
  8 11  1  0  0  0  0
  8 12  1  0  0  0  0
  8 34  1  0  0  0  0
  9 13  1  0  0  0  0
  9 16  1  0  0  0  0
  9 35  1  0  0  0  0
 10 11  1  0  0  0  0
 10 15  1  0  0  0  0
 10 36  1  0  0  0  0
 11 37  1  0  0  0  0
 11 38  1  0  0  0  0
 12 14  1  0  0  0  0
 12 39  1  0  0  0  0
 12 40  1  0  0  0  0
 13 41  1  0  0  0  0
 13 42  1  0  0  0  0
 14 43  1  0  0  0  0
 14 44  1  0  0  0  0
 15 45  1  0  0  0  0
 15 46  1  0  0  0  0
 16 17  2  0  0  0  0
 17 18  1  0  0  0  0
 17 47  1  0  0  0  0
 18 22  1  0  0  0  0
 19 49  1  0  0  0  0
 19 50  1  0  0  0  0
 19 51  1  0  0  0  0
 20 21  1  0  0  0  0
 21 23  1  0  0  0  0
 21 24  1  0  0  0  0
 21 52  1  0  0  0  0
 22 25  2  0  0  0  0
 22 26  1  0  0  0  0
 23 27  1  0  0  0  0
 23 53  1  0  0  0  0
 23 54  1  0  0  0  0
 24 28  1  0  0  0  0
 24 55  1  0  0  0  0
 24 56  1  0  0  0  0
 25 29  1  0  0  0  0
 25 57  1  0  0  0  0
 26 30  2  0  0  0  0
 26 58  1  0  0  0  0
 27 59  1  0  0  0  0
 27 60  1  0  0  0  0
 27 61  1  0  0  0  0
 28 62  1  0  0  0  0
 28 63  1  0  0  0  0
 28 64  1  0  0  0  0
 29 31  2  0  0  0  0
 30 31  1  0  0  0  0
 30 65  1  0  0  0  0
 32 66  1  0  0  0  0
 32 67  1  0  0  0  0
 32 68  1  0  0  0  0
 33 69  1  0  0  0  0
 33 70  1  0  0  0  0
 33 71  1  0  0  0  0
M  END
> <PUBCHEM_COMPOUND_CID>
40779505

> <PUBCHEM_CONFORMER_RMSD>
1

> <PUBCHEM_CONFORMER_DIVERSEORDER>
1
33
65
61
38
105
78
58
60
81
49
69
5
104
73
55
79
75
36
97
115
95
112
22
107
91
110
74
85
8
43
53
101
15
89
40
21
50
82
24
114
62
72
108
113
47
100
96
90
68
4
44
103
23
66
28
41
102
76
31
42
3
93
94
35
52
7
39
54
45
64
83
87
34
70
13
111
27
11
17
18
14
109
98
67
12
59
32
51
57
30
77
19
80
10
86
92
71
2
63
88
99
37
29
56
48
46
116
9
25
26
20
84
106
16
6

> <PUBCHEM_MMFF94_PARTIAL_CHARGES>
31
1 -0.57
10 0.27
13 0.27
14 0.27
15 0.3
16 -0.33
17 -0.15
18 0.23
19 0.26
2 -0.36
20 0.57
21 0.06
22 0.05
25 -0.15
26 -0.15
29 0.08
3 -0.36
30 -0.15
31 0.08
32 0.28
33 0.28
4 -0.81
47 0.15
48 0.37
5 0.31
57 0.15
58 0.15
6 -0.73
65 0.15
7 -0.71
9 0.18

> <PUBCHEM_EFFECTIVE_ROTOR_COUNT>
11.2

> <PUBCHEM_PHARMACOPHORE_FEATURES>
11
1 1 acceptor
1 2 acceptor
1 27 hydrophobe
1 28 hydrophobe
1 3 acceptor
1 4 cation
1 6 donor
1 7 acceptor
5 5 7 16 17 18 rings
6 22 25 26 29 30 31 rings
8 4 8 9 10 11 12 13 14 rings

> <PUBCHEM_HEAVY_ATOM_COUNT>
33

> <PUBCHEM_ATOM_DEF_STEREO_COUNT>
3

> <PUBCHEM_ATOM_UDEF_STEREO_COUNT>
0

> <PUBCHEM_BOND_DEF_STEREO_COUNT>
0

> <PUBCHEM_BOND_UDEF_STEREO_COUNT>
0

> <PUBCHEM_ISOTOPIC_ATOM_COUNT>
0

> <PUBCHEM_COMPONENT_COUNT>
1

> <PUBCHEM_CACTVS_TAUTO_COUNT>
2

> <PUBCHEM_CONFORMER_ID>
026E3EF100000001

> <PUBCHEM_MMFF94_ENERGY>
91.8658

> <PUBCHEM_FEATURE_SELFOVERLAP>
55.825

> <PUBCHEM_SHAPE_FINGERPRINT>
10439779 11 18341039719224269264
10670039 82 18267864063689407994
11408170 253 18049461515251344068
12107183 9 18264199215557338394
14251764 75 18197225749989732121
14705955 166 17750250259835735795
14790565 3 18335988674823165662
14950920 106 13840281272612073813
15064981 113 17846775226820206798
15320467 1 18411140207907810952
16991981 162 18058712694269686631
19302320 297 17476086731008479465
19304152 47 18041289828251286929
19309040 13 17273712948825121001
20775530 9 9979844824489395013
21033648 29 16372990785862737469
21133410 58 15814820168406191008
21223535 225 18341894117569245460
3388396 114 17550658250639960484
4144715 1 18336557100913539954
508706 21 18265613367524043040
57724786 102 18125162623986167947
6371009 1 18121201332931210314
7288768 16 17967256394628269051
7808743 9 18412825776607635483

> <PUBCHEM_SHAPE_MULTIPOLES>
641.59
15.29
7.03
1.4
18.1
0.29
-0.43
17.47
-1.74
-5.37
1.2
-2.58
0.54
-1.39

> <PUBCHEM_SHAPE_SELFOVERLAP>
1352.644

> <PUBCHEM_SHAPE_VOLUME>
359.5

> <PUBCHEM_COORDINATE_TYPE>
2
5
10

$$$$
