11885067
  -OEChem-12032416133D

 72 74  0     1  0  0  0  0  0999 V2000
   -0.3087    3.1662   -0.0160 S   0  0  0  0  0  0  0  0  0  0  0  0
   -7.0911   -0.7347   -0.6553 O   0  0  0  0  0  0  0  0  0  0  0  0
   -7.1566    1.2222    0.7270 O   0  0  0  0  0  0  0  0  0  0  0  0
    0.8821   -1.9030   -1.2111 O   0  0  0  0  0  0  0  0  0  0  0  0
    4.4973    2.8744   -0.1469 O   0  0  0  0  0  0  0  0  0  0  0  0
    3.6702    0.7447   -0.1370 O   0  0  0  0  0  0  0  0  0  0  0  0
    0.6968    0.7830   -0.0552 N   0  0  0  0  0  0  0  0  0  0  0  0
    1.3757   -3.1875    0.6619 N   0  0  0  0  0  0  0  0  0  0  0  0
    2.2553    2.6214   -0.0867 N   0  0  0  0  0  0  0  0  0  0  0  0
    4.9759   -3.7749   -0.0895 N   0  0  0  0  0  0  0  0  0  0  0  0
   -2.8724   -0.5908    0.4359 C   0  0  2  0  0  0  0  0  0  0  0  0
   -3.5338    0.6275   -0.3477 C   0  0  1  0  0  0  0  0  0  0  0  0
   -5.1097    0.6858   -0.3817 C   0  0  1  0  0  0  0  0  0  0  0  0
   -1.3445   -0.6986   -0.0195 C   0  0  1  0  0  0  0  0  0  0  0  0
   -3.5929   -1.9073    0.0452 C   0  0  0  0  0  0  0  0  0  0  0  0
   -5.6666   -0.7205   -0.7423 C   0  0  1  0  0  0  0  0  0  0  0  0
   -2.8644    1.9799    0.0343 C   0  0  0  0  0  0  0  0  0  0  0  0
   -5.1102   -1.8318    0.1408 C   0  0  0  0  0  0  0  0  0  0  0  0
   -2.9407   -0.4245    1.9740 C   0  0  0  0  0  0  0  0  0  0  0  0
   -0.6789    0.6536   -0.0083 C   0  0  0  0  0  0  0  0  0  0  0  0
   -5.7591    1.2197    0.9141 C   0  0  0  0  0  0  0  0  0  0  0  0
   -5.5567    1.6624   -1.5062 C   0  0  0  0  0  0  0  0  0  0  0  0
   -1.3798    1.8423   -0.0026 C   0  0  0  0  0  0  0  0  0  0  0  0
   -0.5203   -1.7369    0.7536 C   0  0  0  0  0  0  0  0  0  0  0  0
    0.6397   -2.2603   -0.0614 C   0  0  0  0  0  0  0  0  0  0  0  0
    1.0056    2.0615   -0.0558 C   0  0  0  0  0  0  0  0  0  0  0  0
    2.5419   -3.8564    0.1321 C   0  0  0  0  0  0  0  0  0  0  0  0
    3.4817    1.9548   -0.1244 C   0  0  0  0  0  0  0  0  0  0  0  0
    3.8103   -3.0696    0.4276 C   0  0  0  0  0  0  0  0  0  0  0  0
    6.1919   -3.3363    0.5984 C   0  0  0  0  0  0  0  0  0  0  0  0
    5.1071   -3.5669   -1.5329 C   0  0  0  0  0  0  0  0  0  0  0  0
    5.8272    2.3435   -0.1868 C   0  0  0  0  0  0  0  0  0  0  0  0
    6.7964    3.4784   -0.2066 C   0  0  0  0  0  0  0  0  0  0  0  0
    7.7314    3.6789    0.7288 C   0  0  0  0  0  0  0  0  0  0  0  0
   -3.2507    0.4499   -1.3999 H   0  0  0  0  0  0  0  0  0  0  0  0
   -1.3709   -0.9943   -1.0791 H   0  0  0  0  0  0  0  0  0  0  0  0
   -3.2552   -2.7382    0.6748 H   0  0  0  0  0  0  0  0  0  0  0  0
   -3.3294   -2.1782   -0.9858 H   0  0  0  0  0  0  0  0  0  0  0  0
   -5.4130   -0.9468   -1.7866 H   0  0  0  0  0  0  0  0  0  0  0  0
   -3.1707    2.7631   -0.6673 H   0  0  0  0  0  0  0  0  0  0  0  0
   -3.1687    2.2980    1.0370 H   0  0  0  0  0  0  0  0  0  0  0  0
   -5.4383   -1.7041    1.1783 H   0  0  0  0  0  0  0  0  0  0  0  0
   -5.5378   -2.7924   -0.1743 H   0  0  0  0  0  0  0  0  0  0  0  0
   -2.4529   -1.2619    2.4850 H   0  0  0  0  0  0  0  0  0  0  0  0
   -3.9594   -0.4141    2.3562 H   0  0  0  0  0  0  0  0  0  0  0  0
   -2.4463    0.4873    2.3205 H   0  0  0  0  0  0  0  0  0  0  0  0
   -5.4415    2.2428    1.1371 H   0  0  0  0  0  0  0  0  0  0  0  0
   -5.5534    0.5975    1.7814 H   0  0  0  0  0  0  0  0  0  0  0  0
   -6.6353    1.6180   -1.6938 H   0  0  0  0  0  0  0  0  0  0  0  0
   -5.3163    2.7024   -1.2622 H   0  0  0  0  0  0  0  0  0  0  0  0
   -5.0621    1.4213   -2.4543 H   0  0  0  0  0  0  0  0  0  0  0  0
   -1.1270   -2.6115    1.0091 H   0  0  0  0  0  0  0  0  0  0  0  0
   -0.1308   -1.3176    1.6899 H   0  0  0  0  0  0  0  0  0  0  0  0
   -7.3947   -1.6156   -0.9332 H   0  0  0  0  0  0  0  0  0  0  0  0
   -7.5576    1.5686    1.5423 H   0  0  0  0  0  0  0  0  0  0  0  0
    1.0973   -3.4098    1.6134 H   0  0  0  0  0  0  0  0  0  0  0  0
    2.2807    3.6373   -0.0817 H   0  0  0  0  0  0  0  0  0  0  0  0
    2.5818   -4.8463    0.6005 H   0  0  0  0  0  0  0  0  0  0  0  0
    2.3887   -3.9975   -0.9423 H   0  0  0  0  0  0  0  0  0  0  0  0
    3.8814   -2.9701    1.5197 H   0  0  0  0  0  0  0  0  0  0  0  0
    3.7434   -2.0465    0.0361 H   0  0  0  0  0  0  0  0  0  0  0  0
    6.1271   -3.5491    1.6713 H   0  0  0  0  0  0  0  0  0  0  0  0
    6.3750   -2.2635    0.4681 H   0  0  0  0  0  0  0  0  0  0  0  0
    7.0647   -3.8839    0.2252 H   0  0  0  0  0  0  0  0  0  0  0  0
    4.2501   -3.9694   -2.0811 H   0  0  0  0  0  0  0  0  0  0  0  0
    5.9854   -4.1004   -1.9147 H   0  0  0  0  0  0  0  0  0  0  0  0
    5.2170   -2.5071   -1.7909 H   0  0  0  0  0  0  0  0  0  0  0  0
    5.9862    1.6977    0.6848 H   0  0  0  0  0  0  0  0  0  0  0  0
    5.9528    1.7498   -1.0994 H   0  0  0  0  0  0  0  0  0  0  0  0
    6.7326    4.1758   -1.0377 H   0  0  0  0  0  0  0  0  0  0  0  0
    8.4085    4.5230    0.6562 H   0  0  0  0  0  0  0  0  0  0  0  0
    7.8383    3.0118    1.5769 H   0  0  0  0  0  0  0  0  0  0  0  0
  1 23  1  0  0  0  0
  1 26  1  0  0  0  0
  2 16  1  0  0  0  0
  2 54  1  0  0  0  0
  3 21  1  0  0  0  0
  3 55  1  0  0  0  0
  4 25  2  0  0  0  0
  5 28  1  0  0  0  0
  5 32  1  0  0  0  0
  6 28  2  0  0  0  0
  7 20  1  0  0  0  0
  7 26  2  0  0  0  0
  8 25  1  0  0  0  0
  8 27  1  0  0  0  0
  8 56  1  0  0  0  0
  9 26  1  0  0  0  0
  9 28  1  0  0  0  0
  9 57  1  0  0  0  0
 10 29  1  0  0  0  0
 10 30  1  0  0  0  0
 10 31  1  0  0  0  0
 11 12  1  0  0  0  0
 11 14  1  0  0  0  0
 11 15  1  0  0  0  0
 11 19  1  0  0  0  0
 12 13  1  0  0  0  0
 12 17  1  0  0  0  0
 12 35  1  0  0  0  0
 13 16  1  0  0  0  0
 13 21  1  0  0  0  0
 13 22  1  0  0  0  0
 14 20  1  0  0  0  0
 14 24  1  0  0  0  0
 14 36  1  0  0  0  0
 15 18  1  0  0  0  0
 15 37  1  0  0  0  0
 15 38  1  0  0  0  0
 16 18  1  0  0  0  0
 16 39  1  0  0  0  0
 17 23  1  0  0  0  0
 17 40  1  0  0  0  0
 17 41  1  0  0  0  0
 18 42  1  0  0  0  0
 18 43  1  0  0  0  0
 19 44  1  0  0  0  0
 19 45  1  0  0  0  0
 19 46  1  0  0  0  0
 20 23  2  0  0  0  0
 21 47  1  0  0  0  0
 21 48  1  0  0  0  0
 22 49  1  0  0  0  0
 22 50  1  0  0  0  0
 22 51  1  0  0  0  0
 24 25  1  0  0  0  0
 24 52  1  0  0  0  0
 24 53  1  0  0  0  0
 27 29  1  0  0  0  0
 27 58  1  0  0  0  0
 27 59  1  0  0  0  0
 29 60  1  0  0  0  0
 29 61  1  0  0  0  0
 30 62  1  0  0  0  0
 30 63  1  0  0  0  0
 30 64  1  0  0  0  0
 31 65  1  0  0  0  0
 31 66  1  0  0  0  0
 31 67  1  0  0  0  0
 32 33  1  0  0  0  0
 32 68  1  0  0  0  0
 32 69  1  0  0  0  0
 33 34  2  0  0  0  0
 33 70  1  0  0  0  0
 34 71  1  0  0  0  0
 34 72  1  0  0  0  0
M  END
> <PUBCHEM_COMPOUND_CID>
11885067

> <PUBCHEM_CONFORMER_RMSD>
1.2

> <PUBCHEM_CONFORMER_DIVERSEORDER>
1
3
7
5
6
2
8
9
4

> <PUBCHEM_MMFF94_PARTIAL_CHARGES>
34
1 -0.08
10 -0.81
14 0.18
16 0.28
17 0.18
2 -0.68
20 0.05
21 0.28
23 -0.14
24 0.06
25 0.57
26 0.44
27 0.3
28 0.78
29 0.27
3 -0.68
30 0.27
31 0.27
32 0.42
33 -0.29
34 -0.3
4 -0.57
5 -0.43
54 0.4
55 0.4
56 0.37
57 0.37
6 -0.57
7 -0.57
70 0.15
71 0.15
72 0.15
8 -0.73
9 -0.49

> <PUBCHEM_EFFECTIVE_ROTOR_COUNT>
13.2

> <PUBCHEM_PHARMACOPHORE_FEATURES>
13
1 10 cation
1 2 acceptor
1 2 donor
1 3 acceptor
1 3 donor
1 34 hydrophobe
1 4 acceptor
1 6 acceptor
1 8 donor
1 9 donor
5 1 7 20 23 26 rings
6 11 12 13 15 16 18 rings
6 11 12 14 17 20 23 rings

> <PUBCHEM_HEAVY_ATOM_COUNT>
34

> <PUBCHEM_ATOM_DEF_STEREO_COUNT>
5

> <PUBCHEM_ATOM_UDEF_STEREO_COUNT>
0

> <PUBCHEM_BOND_DEF_STEREO_COUNT>
0

> <PUBCHEM_BOND_UDEF_STEREO_COUNT>
0

> <PUBCHEM_ISOTOPIC_ATOM_COUNT>
0

> <PUBCHEM_COMPONENT_COUNT>
1

> <PUBCHEM_CACTVS_TAUTO_COUNT>
6

> <PUBCHEM_CONFORMER_ID>
00B55A0B00000001

> <PUBCHEM_MMFF94_ENERGY>
90.0196

> <PUBCHEM_FEATURE_SELFOVERLAP>
66.116

> <PUBCHEM_SHAPE_FINGERPRINT>
10050765 1 18339079263916724252
11135609 187 18411135887376017352
11135926 11 18409162242561049421
11136131 41 18261664940245193490
11578080 2 17097184205370132271
11719270 70 18337666521172909376
12166972 35 17751090123711279694
12788726 201 17828200991691621507
12838862 33 18194383697247588036
12977781 61 17750534994866892154
13533116 47 18342736299935988216
14790565 3 18192716863168221917
15400415 2 18121780793035317004
15439362 3 18408885135322900865
15927050 60 18268428113287053686
16067689 302 18339646737182747919
16719943 64 18192711379148320168
18681886 176 18192141827187476745
18738133 686 18265311986228471594
20554085 129 18059282288822292960
20609170 92 18114729487769322101
20642791 35 18335703780325013515
20721686 56 18335423435415234354
20771845 165 18114170892164295605
21279426 13 18261669273460480237
21344244 246 18409724106256743535
21360443 120 18335985376262214068
21781055 127 16629697133149437571
22311459 1 18121783000194209347
23559900 14 18338508621929635323
24771750 20 18189072999849578566
335352 9 18193833744640047789
3383291 50 18122343751139933482
3411729 13 18335136514440857282
4017518 198 18199194065493668758
5265222 85 17976546336381728076
5385378 56 18410018736459916513
59520647 208 18412262827397687778
59755656 215 18410294756516697557
6371380 46 18126282180611995248
6669772 16 18411419544659928878
99344 41 18410289246574939784

> <PUBCHEM_SHAPE_MULTIPOLES>
654.28
18.33
5.73
1.04
6.68
2.27
-0.03
-6.77
0.62
14.52
0.12
-0.55
0.28
0.82

> <PUBCHEM_SHAPE_SELFOVERLAP>
1337.321

> <PUBCHEM_SHAPE_VOLUME>
381.9

> <PUBCHEM_COORDINATE_TYPE>
2
5
10

$$$$
