75536674
  -OEChem-12032416343D

 40 41  0     1  0  0  0  0  0999 V2000
    2.3978    1.6392    0.3605 S   0  0  0  0  0  0  0  0  0  0  0  0
   -1.8090    0.9888   -1.2970 O   0  0  0  0  0  0  0  0  0  0  0  0
   -2.6739   -0.1174    2.0097 O   0  0  0  0  0  0  0  0  0  0  0  0
    2.2872    1.8154    1.7960 O   0  0  0  0  0  0  0  0  0  0  0  0
    3.1183    2.6105   -0.4402 O   0  0  0  0  0  0  0  0  0  0  0  0
   -4.7023   -0.9474   -0.2426 N   0  0  0  0  0  0  0  0  0  0  0  0
    0.8463    1.4181   -0.3014 N   0  0  0  0  0  0  0  0  0  0  0  0
   -3.7198    0.1226   -0.1832 C   0  0  1  0  0  0  0  0  0  0  0  0
   -2.4786   -0.2339    0.6137 C   0  0  1  0  0  0  0  0  0  0  0  0
   -1.4881    0.7978    0.0910 C   0  0  1  0  0  0  0  0  0  0  0  0
   -3.1212    0.4523   -1.5408 C   0  0  0  0  0  0  0  0  0  0  0  0
   -0.0399    0.3630    0.2279 C   0  0  0  0  0  0  0  0  0  0  0  0
   -5.2054   -1.2674    1.0966 C   0  0  0  0  0  0  0  0  0  0  0  0
   -5.8153   -0.5842   -1.1246 C   0  0  0  0  0  0  0  0  0  0  0  0
    3.1465    0.0661    0.0608 C   0  0  0  0  0  0  0  0  0  0  0  0
    3.8418   -0.1601   -1.1270 C   0  0  0  0  0  0  0  0  0  0  0  0
    3.0387   -0.9499    1.0102 C   0  0  0  0  0  0  0  0  0  0  0  0
    4.4293   -1.4026   -1.3655 C   0  0  0  0  0  0  0  0  0  0  0  0
    3.6261   -2.1923    0.7720 C   0  0  0  0  0  0  0  0  0  0  0  0
    4.3215   -2.4188   -0.4160 C   0  0  0  0  0  0  0  0  0  0  0  0
   -4.1722    1.0318    0.2405 H   0  0  0  0  0  0  0  0  0  0  0  0
   -2.1409   -1.2530    0.3868 H   0  0  0  0  0  0  0  0  0  0  0  0
   -1.6274    1.7633    0.5951 H   0  0  0  0  0  0  0  0  0  0  0  0
   -2.9881   -0.4367   -2.1684 H   0  0  0  0  0  0  0  0  0  0  0  0
   -3.7088    1.1878   -2.0987 H   0  0  0  0  0  0  0  0  0  0  0  0
    0.1402   -0.5465   -0.3560 H   0  0  0  0  0  0  0  0  0  0  0  0
    0.1842    0.1638    1.2801 H   0  0  0  0  0  0  0  0  0  0  0  0
   -2.9796    0.7855    2.2008 H   0  0  0  0  0  0  0  0  0  0  0  0
    0.6914    1.6799   -1.2830 H   0  0  0  0  0  0  0  0  0  0  0  0
   -6.0290   -1.9889    1.0330 H   0  0  0  0  0  0  0  0  0  0  0  0
   -5.5768   -0.3834    1.6275 H   0  0  0  0  0  0  0  0  0  0  0  0
   -4.4422   -1.7629    1.7038 H   0  0  0  0  0  0  0  0  0  0  0  0
   -6.5624   -1.3862   -1.1474 H   0  0  0  0  0  0  0  0  0  0  0  0
   -5.4865   -0.4581   -2.1613 H   0  0  0  0  0  0  0  0  0  0  0  0
   -6.3153    0.3360   -0.8009 H   0  0  0  0  0  0  0  0  0  0  0  0
    3.9315    0.6140   -1.8837 H   0  0  0  0  0  0  0  0  0  0  0  0
    2.4995   -0.7968    1.9407 H   0  0  0  0  0  0  0  0  0  0  0  0
    4.9691   -1.5797   -2.2912 H   0  0  0  0  0  0  0  0  0  0  0  0
    3.5414   -2.9839    1.5107 H   0  0  0  0  0  0  0  0  0  0  0  0
    4.7783   -3.3864   -0.6018 H   0  0  0  0  0  0  0  0  0  0  0  0
  1  4  2  0  0  0  0
  1  5  2  0  0  0  0
  1  7  1  0  0  0  0
  1 15  1  0  0  0  0
  2 10  1  0  0  0  0
  2 11  1  0  0  0  0
  3  9  1  0  0  0  0
  3 28  1  0  0  0  0
  6  8  1  0  0  0  0
  6 13  1  0  0  0  0
  6 14  1  0  0  0  0
  7 12  1  0  0  0  0
  7 29  1  0  0  0  0
  8  9  1  0  0  0  0
  8 11  1  0  0  0  0
  8 21  1  0  0  0  0
  9 10  1  0  0  0  0
  9 22  1  0  0  0  0
 10 12  1  0  0  0  0
 10 23  1  0  0  0  0
 11 24  1  0  0  0  0
 11 25  1  0  0  0  0
 12 26  1  0  0  0  0
 12 27  1  0  0  0  0
 13 30  1  0  0  0  0
 13 31  1  0  0  0  0
 13 32  1  0  0  0  0
 14 33  1  0  0  0  0
 14 34  1  0  0  0  0
 14 35  1  0  0  0  0
 15 16  2  0  0  0  0
 15 17  1  0  0  0  0
 16 18  1  0  0  0  0
 16 36  1  0  0  0  0
 17 19  2  0  0  0  0
 17 37  1  0  0  0  0
 18 20  2  0  0  0  0
 18 38  1  0  0  0  0
 19 20  1  0  0  0  0
 19 39  1  0  0  0  0
 20 40  1  0  0  0  0
M  END
> <PUBCHEM_COMPOUND_CID>
75536674

> <PUBCHEM_CONFORMER_RMSD>
0.8

> <PUBCHEM_CONFORMER_DIVERSEORDER>
1
13
57
23
45
28
40
20
54
12
55
6
47
43
2
25
41
5
30
56
8
7
53
35
21
50
37
44
52
29
15
22
17
4
19
27
9
36
49
24
26
39
16
46
48
34
14
3
11
33
31
38
51
42
18
10
32

> <PUBCHEM_MMFF94_PARTIAL_CHARGES>
27
1 1.45
10 0.28
11 0.28
12 0.36
13 0.27
14 0.27
15 -0.01
16 -0.15
17 -0.15
18 -0.15
19 -0.15
2 -0.56
20 -0.15
28 0.4
29 0.42
3 -0.68
36 0.15
37 0.15
38 0.15
39 0.15
4 -0.65
40 0.15
5 -0.65
6 -0.81
7 -0.91
8 0.27
9 0.28

> <PUBCHEM_EFFECTIVE_ROTOR_COUNT>
6

> <PUBCHEM_PHARMACOPHORE_FEATURES>
9
1 2 acceptor
1 3 acceptor
1 3 donor
1 4 acceptor
1 5 acceptor
1 6 cation
1 7 donor
5 2 8 9 10 11 rings
6 15 16 17 18 19 20 rings

> <PUBCHEM_HEAVY_ATOM_COUNT>
20

> <PUBCHEM_ATOM_DEF_STEREO_COUNT>
3

> <PUBCHEM_ATOM_UDEF_STEREO_COUNT>
0

> <PUBCHEM_BOND_DEF_STEREO_COUNT>
0

> <PUBCHEM_BOND_UDEF_STEREO_COUNT>
0

> <PUBCHEM_ISOTOPIC_ATOM_COUNT>
0

> <PUBCHEM_COMPONENT_COUNT>
1

> <PUBCHEM_CACTVS_TAUTO_COUNT>
1

> <PUBCHEM_CONFORMER_ID>
0480992200000001

> <PUBCHEM_MMFF94_ENERGY>
37.8002

> <PUBCHEM_FEATURE_SELFOVERLAP>
45.69

> <PUBCHEM_SHAPE_FINGERPRINT>
10366900 7 17967821513360644362
10498660 4 15357706287795006038
10912923 1 17059778935599124833
11089746 13 12757150190710405950
11128504 68 15140963950216007223
11405975 8 18341048528276188705
11595378 159 16200155395531893673
12363563 72 18340487743001582518
12596602 18 17060335214978251642
12707595 3 18410854318268189334
12892183 10 15553879971808232930
13167823 11 18343584070745617079
13464513 79 18201440251495298102
13533116 47 18202003269856634923
13675066 3 16056880195648003125
13914758 101 17775001242684385861
13955234 65 18270119153380029192
1420 369 17917709080507171999
14251732 14 16154003429843417347
14251758 9 17560523894030272409
14251764 30 17488196889753160726
14251764 75 9654133780654159634
14528608 73 12901551251693341431
14848160 33 18340763750369095462
15142526 21 16625154220837588136
15188451 53 16916774159498766511
15635459 17 18260548918103377962
15664445 248 16805608117929516860
17349148 13 17632860828203383607
17844677 252 18408042918549758725
1813 80 17917157096111477668
18222031 100 18131349674647105454
193927 3 18271249334983844958
20369508 70 18410006624841597330
20388580 30 18340773663406718044
20645477 70 18410009953219783748
20693207 138 17967811643615098781
20871999 31 17095530556202119029
2215653 11 18259697896493772087
22224240 67 18128803322441098296
23366157 5 16125812050581211721
23557571 272 17240753000001331052
23559900 14 17603868922597244007
23596394 208 18040152911748022610
239999 70 17894908589792399136
312423 11 18272100386974915113
3472631 163 13262693546586474214
34797466 226 16805613611345285535
351380 3 17917714574055232470
46194498 28 17894634789995989812
465052 167 18343871017067908847
5281201 14 18333446543014146948
5374978 207 14692569944291818649
573450 72 16989129747141923299
59682541 52 18263341652422130623
7808743 9 10085909798343329370
7970288 3 18128259991397755334
94968 8 18409451362990548526
960060 61 18040720255416149278
9709674 26 17967532423691358337

> <PUBCHEM_SHAPE_MULTIPOLES>
382
12.47
2.19
1.51
10.13
0.18
-0.16
-6.85
2.17
-3.26
-0.19
0.4
-0.02
0.82

> <PUBCHEM_SHAPE_SELFOVERLAP>
774.408

> <PUBCHEM_SHAPE_VOLUME>
224.7

> <PUBCHEM_COORDINATE_TYPE>
2
5
10

$$$$
