40587821
  -OEChem-12032416113D

 62 66  0     1  0  0  0  0  0999 V2000
   -0.0484   -1.4493    2.4675 O   0  0  0  0  0  0  0  0  0  0  0  0
    3.0052    0.3736   -2.2605 O   0  0  0  0  0  0  0  0  0  0  0  0
   -3.1489   -0.9995   -1.2064 O   0  0  0  0  0  0  0  0  0  0  0  0
    1.4137    6.0527    0.5432 O   0  0  0  0  0  0  0  0  0  0  0  0
    3.8204   -1.1803   -0.7513 N   0  0  0  0  0  0  0  0  0  0  0  0
    1.3305   -2.4241    0.8524 N   0  0  0  0  0  0  0  0  0  0  0  0
    3.8806    1.1244   -0.2475 N   0  0  0  0  0  0  0  0  0  0  0  0
   -2.2746   -1.5788    0.8618 N   0  0  0  0  0  0  0  0  0  0  0  0
   -4.3778   -0.6655    0.7651 N   0  0  0  0  0  0  0  0  0  0  0  0
    3.8428   -2.7624    1.1972 C   0  0  1  0  0  0  0  0  0  0  0  0
    2.8010   -3.4500   -0.9171 C   0  0  2  0  0  0  0  0  0  0  0  0
    3.6829   -3.9291    0.2325 C   0  0  0  0  0  0  0  0  0  0  0  0
    4.4968   -1.5522    0.5018 C   0  0  0  0  0  0  0  0  0  0  0  0
    2.4681   -2.4126    1.7807 C   0  0  0  0  0  0  0  0  0  0  0  0
    3.5085   -2.2980   -1.6508 C   0  0  0  0  0  0  0  0  0  0  0  0
    1.4434   -2.9899   -0.4211 C   0  0  0  0  0  0  0  0  0  0  0  0
    0.3616   -3.0974   -1.2108 C   0  0  0  0  0  0  0  0  0  0  0  0
    0.1033   -1.9380    1.3471 C   0  0  0  0  0  0  0  0  0  0  0  0
    3.5210    0.1375   -1.1650 C   0  0  0  0  0  0  0  0  0  0  0  0
   -1.0721   -2.0525    0.4266 C   0  0  0  0  0  0  0  0  0  0  0  0
   -0.9197   -2.6169   -0.7761 C   0  0  0  0  0  0  0  0  0  0  0  0
    3.2526    2.3784   -0.0465 C   0  0  0  0  0  0  0  0  0  0  0  0
   -3.2677   -1.0686    0.0150 C   0  0  0  0  0  0  0  0  0  0  0  0
    3.7421    3.2562    0.9207 C   0  0  0  0  0  0  0  0  0  0  0  0
    2.1450    2.7354   -0.8157 C   0  0  0  0  0  0  0  0  0  0  0  0
    3.1242    4.4908    1.1190 C   0  0  0  0  0  0  0  0  0  0  0  0
    1.5269    3.9700   -0.6174 C   0  0  0  0  0  0  0  0  0  0  0  0
    2.0166    4.8477    0.3499 C   0  0  0  0  0  0  0  0  0  0  0  0
   -5.5858   -0.1001    0.2942 C   0  0  0  0  0  0  0  0  0  0  0  0
   -6.5925    0.2435    1.1964 C   0  0  0  0  0  0  0  0  0  0  0  0
   -5.7706    0.1138   -1.0717 C   0  0  0  0  0  0  0  0  0  0  0  0
   -7.7841    0.8012    0.7328 C   0  0  0  0  0  0  0  0  0  0  0  0
   -6.9621    0.6716   -1.5352 C   0  0  0  0  0  0  0  0  0  0  0  0
    0.2860    6.3532   -0.2777 C   0  0  0  0  0  0  0  0  0  0  0  0
   -7.9689    1.0151   -0.6330 C   0  0  0  0  0  0  0  0  0  0  0  0
    4.4983   -3.0594    2.0254 H   0  0  0  0  0  0  0  0  0  0  0  0
    2.6743   -4.2832   -1.6207 H   0  0  0  0  0  0  0  0  0  0  0  0
    3.2295   -4.7907    0.7384 H   0  0  0  0  0  0  0  0  0  0  0  0
    4.6612   -4.2543   -0.1418 H   0  0  0  0  0  0  0  0  0  0  0  0
    4.5348   -0.7257    1.2131 H   0  0  0  0  0  0  0  0  0  0  0  0
    5.5317   -1.7959    0.2321 H   0  0  0  0  0  0  0  0  0  0  0  0
    2.2201   -3.1455    2.5607 H   0  0  0  0  0  0  0  0  0  0  0  0
    2.5003   -1.4377    2.2834 H   0  0  0  0  0  0  0  0  0  0  0  0
    4.4638   -2.6456   -2.0638 H   0  0  0  0  0  0  0  0  0  0  0  0
    2.9037   -1.9582   -2.4986 H   0  0  0  0  0  0  0  0  0  0  0  0
    0.4252   -3.5261   -2.2056 H   0  0  0  0  0  0  0  0  0  0  0  0
   -1.7312   -2.7889   -1.4729 H   0  0  0  0  0  0  0  0  0  0  0  0
    4.6670    0.9441    0.3674 H   0  0  0  0  0  0  0  0  0  0  0  0
   -2.3527   -1.3612    1.8515 H   0  0  0  0  0  0  0  0  0  0  0  0
    4.6044    2.9903    1.5268 H   0  0  0  0  0  0  0  0  0  0  0  0
    1.7029    2.0861   -1.5612 H   0  0  0  0  0  0  0  0  0  0  0  0
   -4.3184   -0.7940    1.7722 H   0  0  0  0  0  0  0  0  0  0  0  0
    3.5100    5.1705    1.8739 H   0  0  0  0  0  0  0  0  0  0  0  0
    0.6675    4.1818   -1.2445 H   0  0  0  0  0  0  0  0  0  0  0  0
   -6.4613    0.0821    2.2634 H   0  0  0  0  0  0  0  0  0  0  0  0
   -5.0394   -0.1256   -1.8306 H   0  0  0  0  0  0  0  0  0  0  0  0
   -8.5680    1.0688    1.4353 H   0  0  0  0  0  0  0  0  0  0  0  0
   -7.1074    0.8388   -2.5986 H   0  0  0  0  0  0  0  0  0  0  0  0
   -0.0667    7.3492    0.0098 H   0  0  0  0  0  0  0  0  0  0  0  0
   -0.5402    5.6572   -0.0969 H   0  0  0  0  0  0  0  0  0  0  0  0
    0.5613    6.4050   -1.3366 H   0  0  0  0  0  0  0  0  0  0  0  0
   -8.8966    1.4493   -0.9940 H   0  0  0  0  0  0  0  0  0  0  0  0
  1 18  2  0  0  0  0
  2 19  2  0  0  0  0
  3 23  2  0  0  0  0
  4 28  1  0  0  0  0
  4 34  1  0  0  0  0
  5 13  1  0  0  0  0
  5 15  1  0  0  0  0
  5 19  1  0  0  0  0
  6 14  1  0  0  0  0
  6 16  1  0  0  0  0
  6 18  1  0  0  0  0
  7 19  1  0  0  0  0
  7 22  1  0  0  0  0
  7 48  1  0  0  0  0
  8 20  1  0  0  0  0
  8 23  1  0  0  0  0
  8 49  1  0  0  0  0
  9 23  1  0  0  0  0
  9 29  1  0  0  0  0
  9 52  1  0  0  0  0
 10 12  1  0  0  0  0
 10 13  1  0  0  0  0
 10 14  1  0  0  0  0
 10 36  1  0  0  0  0
 11 12  1  0  0  0  0
 11 15  1  0  0  0  0
 11 16  1  0  0  0  0
 11 37  1  0  0  0  0
 12 38  1  0  0  0  0
 12 39  1  0  0  0  0
 13 40  1  0  0  0  0
 13 41  1  0  0  0  0
 14 42  1  0  0  0  0
 14 43  1  0  0  0  0
 15 44  1  0  0  0  0
 15 45  1  0  0  0  0
 16 17  2  0  0  0  0
 17 21  1  0  0  0  0
 17 46  1  0  0  0  0
 18 20  1  0  0  0  0
 20 21  2  0  0  0  0
 21 47  1  0  0  0  0
 22 24  2  0  0  0  0
 22 25  1  0  0  0  0
 24 26  1  0  0  0  0
 24 50  1  0  0  0  0
 25 27  2  0  0  0  0
 25 51  1  0  0  0  0
 26 28  2  0  0  0  0
 26 53  1  0  0  0  0
 27 28  1  0  0  0  0
 27 54  1  0  0  0  0
 29 30  2  0  0  0  0
 29 31  1  0  0  0  0
 30 32  1  0  0  0  0
 30 55  1  0  0  0  0
 31 33  2  0  0  0  0
 31 56  1  0  0  0  0
 32 35  2  0  0  0  0
 32 57  1  0  0  0  0
 33 35  1  0  0  0  0
 33 58  1  0  0  0  0
 34 59  1  0  0  0  0
 34 60  1  0  0  0  0
 34 61  1  0  0  0  0
 35 62  1  0  0  0  0
M  END
> <PUBCHEM_COMPOUND_CID>
40587821

> <PUBCHEM_CONFORMER_RMSD>
1

> <PUBCHEM_CONFORMER_DIVERSEORDER>
1
41
28
33
25
31
3
34
13
30
9
22
20
17
21
38
6
23
11
16
27
14
19
40
35
32
37
36
18
39
5
24
15
4
12
29
10
26
8
7
2

> <PUBCHEM_MMFF94_PARTIAL_CHARGES>
47
1 -0.57
11 0.14
13 0.3
14 0.3
15 0.3
16 -0.03
17 -0.15
18 0.62
19 0.69
2 -0.57
20 0.12
21 -0.15
22 0.12
23 0.69
24 -0.15
25 -0.15
26 -0.15
27 -0.15
28 0.08
29 0.12
3 -0.57
30 -0.15
31 -0.15
32 -0.15
33 -0.15
34 0.28
35 -0.15
4 -0.36
46 0.15
47 0.15
48 0.37
49 0.37
5 -0.66
50 0.15
51 0.15
52 0.37
53 0.15
54 0.15
55 0.15
56 0.15
57 0.15
58 0.15
6 -0.47
62 0.15
7 -0.55
8 -0.54
9 -0.55

> <PUBCHEM_EFFECTIVE_ROTOR_COUNT>
9

> <PUBCHEM_PHARMACOPHORE_FEATURES>
12
1 1 acceptor
1 2 acceptor
1 3 acceptor
1 4 acceptor
1 7 donor
1 8 donor
1 9 donor
6 22 24 25 26 27 28 rings
6 29 30 31 32 33 35 rings
6 5 10 11 12 13 15 rings
6 6 10 11 12 14 16 rings
6 6 16 17 18 20 21 rings

> <PUBCHEM_HEAVY_ATOM_COUNT>
35

> <PUBCHEM_ATOM_DEF_STEREO_COUNT>
2

> <PUBCHEM_ATOM_UDEF_STEREO_COUNT>
0

> <PUBCHEM_BOND_DEF_STEREO_COUNT>
0

> <PUBCHEM_BOND_UDEF_STEREO_COUNT>
0

> <PUBCHEM_ISOTOPIC_ATOM_COUNT>
0

> <PUBCHEM_COMPONENT_COUNT>
1

> <PUBCHEM_CACTVS_TAUTO_COUNT>
18

> <PUBCHEM_CONFORMER_ID>
026B522D00000001

> <PUBCHEM_MMFF94_ENERGY>
118.7851

> <PUBCHEM_FEATURE_SELFOVERLAP>
62.507

> <PUBCHEM_SHAPE_FINGERPRINT>
10673678 19 18271812375632966891
10675989 125 18341617074055415624
10951579 204 15885758107182621380
11059845 2 17476897517992775816
11331351 85 18047454644294885746
11456790 92 17823133436887788651
11479125 193 18123759909495767433
12925494 130 18264208178958470795
13878862 14 18187912972501912567
13944108 23 18334303067226062524
15082195 135 18269539681056769767
15219648 89 13336946758487477749
15326921 28 16830645337956589072
15400415 2 17834957847285508201
15419008 47 17823419297279179815
15483637 11 17833552292976932501
16988056 13 18411139125781254332
19246450 95 17979334680837709608
20715895 44 18342737467997884992
21133410 230 18269262497210797952
21344244 78 17899115141061008386
21716022 299 14762962740181619535
21987440 362 17759817222822463604
22122407 14 18338246973017387361
376196 1 18119810458900896394
44317340 157 18410578397001288203
4487111 67 16538765725429885177
4760202 170 18265601101947486661
508180 173 18267045992842050340
5109719 28 18263654033999015665
57527306 92 18272930497675978106
5951187 136 18201730586488030222
59521099 67 18270956834910410224
60111433 81 18200024170317981752
6086070 43 18338249222689466442

> <PUBCHEM_SHAPE_MULTIPOLES>
671.9
15.46
8.12
1.65
45.65
15.75
-0.07
1.18
1.01
-12.61
-0.69
-0.28
-0.73
0.63

> <PUBCHEM_SHAPE_SELFOVERLAP>
1465.523

> <PUBCHEM_SHAPE_VOLUME>
356.2

> <PUBCHEM_COORDINATE_TYPE>
2
5
10

$$$$
