40779471
  -OEChem-12032416163D

 65 70  0     1  0  0  0  0  0999 V2000
   -3.0377    3.5995   -0.3989 S   0  0  0  0  0  0  0  0  0  0  0  0
   -4.0512    4.0507    0.5355 O   0  0  0  0  0  0  0  0  0  0  0  0
   -2.6776    4.4223   -1.5377 O   0  0  0  0  0  0  0  0  0  0  0  0
   -4.4043   -1.4409    0.1789 N   0  0  2  0  0  0  0  0  0  0  0  0
   -0.1488   -3.3788    1.0637 N   0  0  0  0  0  0  0  0  0  0  0  0
   -3.4323    2.0349   -0.9443 N   0  0  0  0  0  0  0  0  0  0  0  0
    1.1468   -3.0716    1.2453 N   0  0  0  0  0  0  0  0  0  0  0  0
   -2.7157   -2.3034   -1.6066 C   0  0  2  0  0  0  0  0  0  0  0  0
   -2.2604   -2.7212   -0.1809 C   0  0  2  0  0  0  0  0  0  0  0  0
   -4.0179   -0.3319   -0.7328 C   0  0  2  0  0  0  0  0  0  0  0  0
   -2.8669   -0.7686   -1.6644 C   0  0  0  0  0  0  0  0  0  0  0  0
   -4.1210   -2.9059   -1.8196 C   0  0  0  0  0  0  0  0  0  0  0  0
   -3.1974   -2.0049    0.8333 C   0  0  0  0  0  0  0  0  0  0  0  0
   -5.0270   -2.5074   -0.6414 C   0  0  0  0  0  0  0  0  0  0  0  0
   -3.6819    0.9547    0.0242 C   0  0  0  0  0  0  0  0  0  0  0  0
   -0.7903   -2.5621    0.1794 C   0  0  0  0  0  0  0  0  0  0  0  0
    0.1511   -1.6574   -0.2469 C   0  0  0  0  0  0  0  0  0  0  0  0
    1.3242   -2.0193    0.4420 C   0  0  0  0  0  0  0  0  0  0  0  0
   -0.7184   -4.4913    1.7883 C   0  0  0  0  0  0  0  0  0  0  0  0
    2.6100   -1.3782    0.3488 C   0  0  0  0  0  0  0  0  0  0  0  0
   -1.5524    3.2996    0.5114 C   0  0  0  0  0  0  0  0  0  0  0  0
    2.9934   -0.7540   -0.8386 C   0  0  0  0  0  0  0  0  0  0  0  0
    3.4695   -1.3811    1.4435 C   0  0  0  0  0  0  0  0  0  0  0  0
   -0.3157    3.3661   -0.1305 C   0  0  0  0  0  0  0  0  0  0  0  0
   -1.6171    2.9929    1.8705 C   0  0  0  0  0  0  0  0  0  0  0  0
    4.2439   -0.1238   -0.9455 C   0  0  0  0  0  0  0  0  0  0  0  0
    4.7155   -0.7598    1.3550 C   0  0  0  0  0  0  0  0  0  0  0  0
    5.1179   -0.1268    0.1677 C   0  0  0  0  0  0  0  0  0  0  0  0
    0.8563    3.1258    0.5867 C   0  0  0  0  0  0  0  0  0  0  0  0
   -0.4452    2.7525    2.5879 C   0  0  0  0  0  0  0  0  0  0  0  0
    4.6463    0.5092   -2.1327 C   0  0  0  0  0  0  0  0  0  0  0  0
    0.7914    2.8189    1.9459 C   0  0  0  0  0  0  0  0  0  0  0  0
    6.3684    0.5033    0.0608 C   0  0  0  0  0  0  0  0  0  0  0  0
    5.8924    1.1304   -2.2213 C   0  0  0  0  0  0  0  0  0  0  0  0
    6.7519    1.1274   -1.1267 C   0  0  0  0  0  0  0  0  0  0  0  0
   -2.0176   -2.6564   -2.3729 H   0  0  0  0  0  0  0  0  0  0  0  0
   -2.4694   -3.7995   -0.1145 H   0  0  0  0  0  0  0  0  0  0  0  0
   -4.8907   -0.0954   -1.3600 H   0  0  0  0  0  0  0  0  0  0  0  0
   -1.9318   -0.2706   -1.4051 H   0  0  0  0  0  0  0  0  0  0  0  0
   -3.1044   -0.4719   -2.6941 H   0  0  0  0  0  0  0  0  0  0  0  0
   -4.0628   -3.9982   -1.8917 H   0  0  0  0  0  0  0  0  0  0  0  0
   -4.5441   -2.5408   -2.7633 H   0  0  0  0  0  0  0  0  0  0  0  0
   -3.5173   -2.7267    1.5965 H   0  0  0  0  0  0  0  0  0  0  0  0
   -2.6665   -1.2272    1.3941 H   0  0  0  0  0  0  0  0  0  0  0  0
   -6.0007   -2.1704   -1.0177 H   0  0  0  0  0  0  0  0  0  0  0  0
   -5.2414   -3.3817   -0.0138 H   0  0  0  0  0  0  0  0  0  0  0  0
   -2.7878    0.8042    0.6332 H   0  0  0  0  0  0  0  0  0  0  0  0
   -4.5110    1.2409    0.6803 H   0  0  0  0  0  0  0  0  0  0  0  0
    0.0221   -0.8528   -0.9535 H   0  0  0  0  0  0  0  0  0  0  0  0
   -3.0446    1.7556   -1.8533 H   0  0  0  0  0  0  0  0  0  0  0  0
   -0.9848   -5.2709    1.0708 H   0  0  0  0  0  0  0  0  0  0  0  0
    0.0185   -4.8792    2.4969 H   0  0  0  0  0  0  0  0  0  0  0  0
   -1.5980   -4.1433    2.3342 H   0  0  0  0  0  0  0  0  0  0  0  0
    2.3319   -0.7560   -1.7036 H   0  0  0  0  0  0  0  0  0  0  0  0
    3.1952   -1.8514    2.3848 H   0  0  0  0  0  0  0  0  0  0  0  0
   -0.2423    3.5941   -1.1899 H   0  0  0  0  0  0  0  0  0  0  0  0
   -2.5697    2.9307    2.3887 H   0  0  0  0  0  0  0  0  0  0  0  0
    5.3706   -0.7724    2.2237 H   0  0  0  0  0  0  0  0  0  0  0  0
    1.8191    3.1731    0.0864 H   0  0  0  0  0  0  0  0  0  0  0  0
   -0.4955    2.5114    3.6457 H   0  0  0  0  0  0  0  0  0  0  0  0
    3.9909    0.5244   -3.0011 H   0  0  0  0  0  0  0  0  0  0  0  0
    1.7038    2.6291    2.5036 H   0  0  0  0  0  0  0  0  0  0  0  0
    7.0562    0.5133    0.9038 H   0  0  0  0  0  0  0  0  0  0  0  0
    6.1915    1.6166   -3.1453 H   0  0  0  0  0  0  0  0  0  0  0  0
    7.7218    1.6112   -1.1963 H   0  0  0  0  0  0  0  0  0  0  0  0
  1  2  2  0  0  0  0
  1  3  2  0  0  0  0
  1  6  1  0  0  0  0
  1 21  1  0  0  0  0
  4 10  1  0  0  0  0
  4 13  1  0  0  0  0
  4 14  1  0  0  0  0
  5  7  1  0  0  0  0
  5 16  1  0  0  0  0
  5 19  1  0  0  0  0
  6 15  1  0  0  0  0
  6 50  1  0  0  0  0
  7 18  2  0  0  0  0
  8  9  1  0  0  0  0
  8 11  1  0  0  0  0
  8 12  1  0  0  0  0
  8 36  1  0  0  0  0
  9 13  1  0  0  0  0
  9 16  1  0  0  0  0
  9 37  1  0  0  0  0
 10 11  1  0  0  0  0
 10 15  1  0  0  0  0
 10 38  1  0  0  0  0
 11 39  1  0  0  0  0
 11 40  1  0  0  0  0
 12 14  1  0  0  0  0
 12 41  1  0  0  0  0
 12 42  1  0  0  0  0
 13 43  1  0  0  0  0
 13 44  1  0  0  0  0
 14 45  1  0  0  0  0
 14 46  1  0  0  0  0
 15 47  1  0  0  0  0
 15 48  1  0  0  0  0
 16 17  2  0  0  0  0
 17 18  1  0  0  0  0
 17 49  1  0  0  0  0
 18 20  1  0  0  0  0
 19 51  1  0  0  0  0
 19 52  1  0  0  0  0
 19 53  1  0  0  0  0
 20 22  2  0  0  0  0
 20 23  1  0  0  0  0
 21 24  2  0  0  0  0
 21 25  1  0  0  0  0
 22 26  1  0  0  0  0
 22 54  1  0  0  0  0
 23 27  2  0  0  0  0
 23 55  1  0  0  0  0
 24 29  1  0  0  0  0
 24 56  1  0  0  0  0
 25 30  2  0  0  0  0
 25 57  1  0  0  0  0
 26 28  1  0  0  0  0
 26 31  2  0  0  0  0
 27 28  1  0  0  0  0
 27 58  1  0  0  0  0
 28 33  2  0  0  0  0
 29 32  2  0  0  0  0
 29 59  1  0  0  0  0
 30 32  1  0  0  0  0
 30 60  1  0  0  0  0
 31 34  1  0  0  0  0
 31 61  1  0  0  0  0
 32 62  1  0  0  0  0
 33 35  1  0  0  0  0
 33 63  1  0  0  0  0
 34 35  2  0  0  0  0
 34 64  1  0  0  0  0
 35 65  1  0  0  0  0
M  END
> <PUBCHEM_COMPOUND_CID>
40779471

> <PUBCHEM_CONFORMER_RMSD>
1

> <PUBCHEM_CONFORMER_DIVERSEORDER>
1
45
98
150
115
42
86
23
137
118
81
126
62
57
61
131
138
125
83
130
139
104
64
109
95
82
6
147
114
132
69
36
33
146
121
144
120
149
39
88
100
127
128
92
77
124
53
116
136
112
78
96
99
9
38
141
94
2
97
122
17
134
70
105
49
41
84
30
101
85
80
27
60
145
58
72
110
5
68
21
89
79
91
93
66
113
47
73
103
46
107
44
87
140
142
29
18
90
111
7
32
117
133
14
50
15
25
8
123
22
119
148
108
13
55
43
19
106
102
129
65
35
52
74
40
48
56
143
3
67
28
54
31
63
37
75
135
16
24
76
34
4
51
12
59
10
11
71
26
20

> <PUBCHEM_MMFF94_PARTIAL_CHARGES>
44
1 1.45
10 0.27
13 0.27
14 0.27
15 0.36
16 -0.33
17 -0.15
18 0.23
19 0.26
2 -0.65
20 0.05
21 -0.01
22 -0.15
23 -0.15
24 -0.15
25 -0.15
27 -0.15
29 -0.15
3 -0.65
30 -0.15
31 -0.15
32 -0.15
33 -0.15
34 -0.15
35 -0.15
4 -0.81
49 0.15
5 0.31
50 0.42
54 0.15
55 0.15
56 0.15
57 0.15
58 0.15
59 0.15
6 -0.91
60 0.15
61 0.15
62 0.15
63 0.15
64 0.15
65 0.15
7 -0.71
9 0.18

> <PUBCHEM_EFFECTIVE_ROTOR_COUNT>
7.2

> <PUBCHEM_PHARMACOPHORE_FEATURES>
10
1 2 acceptor
1 3 acceptor
1 4 cation
1 6 donor
1 7 acceptor
5 5 7 16 17 18 rings
6 20 22 23 26 27 28 rings
6 21 24 25 29 30 32 rings
6 26 28 31 33 34 35 rings
8 4 8 9 10 11 12 13 14 rings

> <PUBCHEM_HEAVY_ATOM_COUNT>
35

> <PUBCHEM_ATOM_DEF_STEREO_COUNT>
3

> <PUBCHEM_ATOM_UDEF_STEREO_COUNT>
0

> <PUBCHEM_BOND_DEF_STEREO_COUNT>
0

> <PUBCHEM_BOND_UDEF_STEREO_COUNT>
0

> <PUBCHEM_ISOTOPIC_ATOM_COUNT>
0

> <PUBCHEM_COMPONENT_COUNT>
1

> <PUBCHEM_CACTVS_TAUTO_COUNT>
1

> <PUBCHEM_CONFORMER_ID>
026E3ECF00000001

> <PUBCHEM_MMFF94_ENERGY>
81.7231

> <PUBCHEM_FEATURE_SELFOVERLAP>
50.792

> <PUBCHEM_SHAPE_FINGERPRINT>
10032420 55 18337378409537673017
10190206 1 17469075562550923948
10670039 82 18411144632456569438
10673678 19 17471567734150764509
10871710 139 18410296887163270019
11421498 54 18335976523796975810
12156800 1 18123717959990680512
12788726 201 18410575106560246442
13165053 103 15766712369515355966
13383668 90 13323811035184529208
13761468 95 18056781856660144374
14114211 80 17843126892614991897
14251757 5 18337398244071172694
14340393 91 17985852366834376198
14932702 115 18200301113993048832
150020 26 17188128436375680336
15297060 5 17986957353890702600
15406563 228 18041285465135052164
161222 10 18124343543890568188
19319366 153 18189895310525989291
20642791 35 18342442769523699399
20764821 26 18266436785595355921
20775530 9 18270112547699020641
21033650 10 18339660979014519142
24941158 1 15912460537783847952
3052486 1 18339066108842502848
354706 132 18335711525016510940
4173938 77 15677747352184427073
469060 322 18189077359621094465
5081480 168 18055639665942673339
5171179 24 17987505086559171136
550186 7 18202004304717199494
6608658 132 18340198691344535287

> <PUBCHEM_SHAPE_MULTIPOLES>
692.47
12.54
6.33
2.08
17.13
3.77
0.11
-0.56
-6.52
-8.22
2.02
0.87
0.31
-1.54

> <PUBCHEM_SHAPE_SELFOVERLAP>
1513.055

> <PUBCHEM_SHAPE_VOLUME>
377.6

> <PUBCHEM_COORDINATE_TYPE>
2
5
10

$$$$
