75368422
  -OEChem-12032416383D

 50 53  0     1  0  0  0  0  0999 V2000
    6.4067   -0.8391    0.8699 O   0  0  0  0  0  0  0  0  0  0  0  0
   -2.4302    2.7382    0.2046 O   0  0  0  0  0  0  0  0  0  0  0  0
    4.0812    0.8987   -1.4277 O   0  0  0  0  0  0  0  0  0  0  0  0
   -0.4275    1.5098    0.1992 N   0  0  0  0  0  0  0  0  0  0  0  0
    1.8908    0.3853   -0.8521 N   0  0  0  0  0  0  0  0  0  0  0  0
   -2.2390    0.5907    1.1596 N   0  0  0  0  0  0  0  0  0  0  0  0
    0.0555    0.2681    0.7773 C   0  0  2  0  0  0  0  0  0  0  0  0
    0.8862   -0.5066   -0.2425 C   0  0  0  0  0  0  0  0  0  0  0  0
   -1.2178   -0.4394    1.2344 C   0  0  0  0  0  0  0  0  0  0  0  0
    0.4975    2.3927   -0.4880 C   0  0  0  0  0  0  0  0  0  0  0  0
    1.3372    1.5937   -1.4819 C   0  0  0  0  0  0  0  0  0  0  0  0
   -1.7795    1.7410    0.4883 C   0  0  0  0  0  0  0  0  0  0  0  0
    3.7461   -1.1057   -0.2204 C   0  0  0  0  0  0  0  0  0  0  0  0
    3.2635    0.1484   -0.8891 C   0  0  0  0  0  0  0  0  0  0  0  0
    4.9846   -1.6596   -0.9243 C   0  0  0  0  0  0  0  0  0  0  0  0
    4.0101   -0.8427    1.2620 C   0  0  0  0  0  0  0  0  0  0  0  0
   -3.5930    0.3606    1.6125 C   0  0  0  0  0  0  0  0  0  0  0  0
    6.2545   -0.9037   -0.5463 C   0  0  0  0  0  0  0  0  0  0  0  0
    5.3372   -0.1277    1.4893 C   0  0  0  0  0  0  0  0  0  0  0  0
   -4.4143   -0.3620    0.5843 C   0  0  0  0  0  0  0  0  0  0  0  0
   -5.1343    0.3604   -0.3672 C   0  0  0  0  0  0  0  0  0  0  0  0
   -4.4573   -1.7561    0.5807 C   0  0  0  0  0  0  0  0  0  0  0  0
   -5.8973   -0.3114   -1.3224 C   0  0  0  0  0  0  0  0  0  0  0  0
   -5.2204   -2.4279   -0.3743 C   0  0  0  0  0  0  0  0  0  0  0  0
   -5.9404   -1.7055   -1.3260 C   0  0  0  0  0  0  0  0  0  0  0  0
    0.6721    0.5431    1.6425 H   0  0  0  0  0  0  0  0  0  0  0  0
    1.3025   -1.3783    0.2577 H   0  0  0  0  0  0  0  0  0  0  0  0
    0.2585   -0.8701   -1.0656 H   0  0  0  0  0  0  0  0  0  0  0  0
   -1.4983   -1.2625    0.5700 H   0  0  0  0  0  0  0  0  0  0  0  0
   -1.1340   -0.8100    2.2605 H   0  0  0  0  0  0  0  0  0  0  0  0
    1.1388    2.8417    0.2788 H   0  0  0  0  0  0  0  0  0  0  0  0
   -0.0546    3.1956   -0.9860 H   0  0  0  0  0  0  0  0  0  0  0  0
    2.1316    2.2238   -1.8933 H   0  0  0  0  0  0  0  0  0  0  0  0
    0.7143    1.2560   -2.3190 H   0  0  0  0  0  0  0  0  0  0  0  0
    3.0047   -1.8981   -0.3373 H   0  0  0  0  0  0  0  0  0  0  0  0
    4.8601   -1.6619   -2.0134 H   0  0  0  0  0  0  0  0  0  0  0  0
    5.1099   -2.7050   -0.6120 H   0  0  0  0  0  0  0  0  0  0  0  0
    4.0528   -1.8134    1.7726 H   0  0  0  0  0  0  0  0  0  0  0  0
    3.1984   -0.2700    1.7236 H   0  0  0  0  0  0  0  0  0  0  0  0
   -4.0550    1.3309    1.8316 H   0  0  0  0  0  0  0  0  0  0  0  0
   -3.5609   -0.1942    2.5573 H   0  0  0  0  0  0  0  0  0  0  0  0
    7.1233   -1.4400   -0.9429 H   0  0  0  0  0  0  0  0  0  0  0  0
    6.2951    0.1065   -0.9642 H   0  0  0  0  0  0  0  0  0  0  0  0
    5.3132    0.9015    1.1132 H   0  0  0  0  0  0  0  0  0  0  0  0
    5.5496   -0.0774    2.5622 H   0  0  0  0  0  0  0  0  0  0  0  0
   -5.1093    1.4468   -0.3762 H   0  0  0  0  0  0  0  0  0  0  0  0
   -3.9015   -2.3306    1.3171 H   0  0  0  0  0  0  0  0  0  0  0  0
   -6.4578    0.2511   -2.0634 H   0  0  0  0  0  0  0  0  0  0  0  0
   -5.2540   -3.5135   -0.3772 H   0  0  0  0  0  0  0  0  0  0  0  0
   -6.5344   -2.2286   -2.0696 H   0  0  0  0  0  0  0  0  0  0  0  0
  1 18  1  0  0  0  0
  1 19  1  0  0  0  0
  2 12  2  0  0  0  0
  3 14  2  0  0  0  0
  4  7  1  0  0  0  0
  4 10  1  0  0  0  0
  4 12  1  0  0  0  0
  5  8  1  0  0  0  0
  5 11  1  0  0  0  0
  5 14  1  0  0  0  0
  6  9  1  0  0  0  0
  6 12  1  0  0  0  0
  6 17  1  0  0  0  0
  7  8  1  0  0  0  0
  7  9  1  0  0  0  0
  7 26  1  0  0  0  0
  8 27  1  0  0  0  0
  8 28  1  0  0  0  0
  9 29  1  0  0  0  0
  9 30  1  0  0  0  0
 10 11  1  0  0  0  0
 10 31  1  0  0  0  0
 10 32  1  0  0  0  0
 11 33  1  0  0  0  0
 11 34  1  0  0  0  0
 13 14  1  0  0  0  0
 13 15  1  0  0  0  0
 13 16  1  0  0  0  0
 13 35  1  0  0  0  0
 15 18  1  0  0  0  0
 15 36  1  0  0  0  0
 15 37  1  0  0  0  0
 16 19  1  0  0  0  0
 16 38  1  0  0  0  0
 16 39  1  0  0  0  0
 17 20  1  0  0  0  0
 17 40  1  0  0  0  0
 17 41  1  0  0  0  0
 18 42  1  0  0  0  0
 18 43  1  0  0  0  0
 19 44  1  0  0  0  0
 19 45  1  0  0  0  0
 20 21  2  0  0  0  0
 20 22  1  0  0  0  0
 21 23  1  0  0  0  0
 21 46  1  0  0  0  0
 22 24  2  0  0  0  0
 22 47  1  0  0  0  0
 23 25  2  0  0  0  0
 23 48  1  0  0  0  0
 24 25  1  0  0  0  0
 24 49  1  0  0  0  0
 25 50  1  0  0  0  0
M  END
> <PUBCHEM_COMPOUND_CID>
75368422

> <PUBCHEM_CONFORMER_RMSD>
0.8

> <PUBCHEM_CONFORMER_DIVERSEORDER>
1
90
84
44
5
4
30
29
32
41
59
80
22
101
88
13
76
64
37
24
31
75
58
34
82
99
74
77
11
89
71
53
51
86
6
91
12
54
33
65
26
27
19
63
100
94
66
55
36
47
78
15
50
73
96
8
40
10
93
98
85
3
23
49
42
83
87
68
57
20
95
43
67
16
14
97
70
18
25
35
7
38
46
52
79
17
48
60
62
21
2
9
56
72
69
28
45
61
39
92
81

> <PUBCHEM_MMFF94_PARTIAL_CHARGES>
28
1 -0.56
10 0.3
11 0.3
12 0.69
13 0.06
14 0.57
17 0.44
18 0.28
19 0.28
2 -0.57
20 -0.14
21 -0.15
22 -0.15
23 -0.15
24 -0.15
25 -0.15
3 -0.57
4 -0.66
46 0.15
47 0.15
48 0.15
49 0.15
5 -0.66
50 0.15
6 -0.66
7 0.3
8 0.3
9 0.3

> <PUBCHEM_EFFECTIVE_ROTOR_COUNT>
6.4

> <PUBCHEM_PHARMACOPHORE_FEATURES>
7
1 1 acceptor
1 2 acceptor
1 3 acceptor
5 4 6 7 9 12 rings
6 1 13 15 16 18 19 rings
6 20 21 22 23 24 25 rings
6 4 5 7 8 10 11 rings

> <PUBCHEM_HEAVY_ATOM_COUNT>
25

> <PUBCHEM_ATOM_DEF_STEREO_COUNT>
1

> <PUBCHEM_ATOM_UDEF_STEREO_COUNT>
0

> <PUBCHEM_BOND_DEF_STEREO_COUNT>
0

> <PUBCHEM_BOND_UDEF_STEREO_COUNT>
0

> <PUBCHEM_ISOTOPIC_ATOM_COUNT>
0

> <PUBCHEM_COMPONENT_COUNT>
1

> <PUBCHEM_CACTVS_TAUTO_COUNT>
1

> <PUBCHEM_CONFORMER_ID>
047E07E600000001

> <PUBCHEM_MMFF94_ENERGY>
61.6969

> <PUBCHEM_FEATURE_SELFOVERLAP>
35.621

> <PUBCHEM_SHAPE_FINGERPRINT>
10447042 23 17313106337445517458
10613725 11 16225761904741086823
10753850 27 18343302609070695463
10794284 68 14329441012155576732
11796584 16 14923950046434375048
12596602 18 17060059216311540834
12616971 3 18336563676328433569
12892183 10 12535085117646759325
13583140 156 17273972450326989660
13782708 43 17916593025425391126
13885169 86 12247097763371789890
14251751 18 18202001044863147899
14251752 14 14490466474423218130
1454969 45 18334863831694510622
14848160 23 18060134349418305883
14848178 5 18201721769131375407
14856354 85 10951757612819622129
14955137 171 12967128354151192002
15183329 4 16660358177960808319
15188451 53 18411129213323601042
15880784 105 17775008959775441626
16126227 98 11959145576720789578
17349148 13 18261122862872149616
17857418 61 18408042900926388066
18222031 100 18334580131460640012
18785283 64 16127799906931194400
18927931 339 18337966618668515843
19377110 9 15841548604322582360
200 152 18333456447714782545
20028762 73 18343584049171255870
20511986 3 16226051132740363722
21365058 27 11959729421167989860
21424621 283 8358253744333369278
21623969 137 15482672377225030742
21756936 100 7925909262469078593
22079108 93 16559023888174163638
22393880 68 17822283648192278347
23198884 109 15429755086304557043
23402539 116 18335425647085637817
23559900 14 17895481430871010392
23929065 36 18263625295482333593
25122255 55 18130234761013697646
2838139 119 15213292020135996791
293599 30 8646769993075532328
3004659 81 18186802499790373462
3009799 131 17821722832130545897
312425 54 17488756574866609939
339767 52 18410570695370487467
392239 28 15267342933462197463
4015057 19 18041573549448940297
4098825 35 16370445549572364099
4280585 95 18409721885679179209
4325135 7 16486969613444192778
59682541 52 16515948333801797363
6126387 218 14923931359395867784
7495541 125 17489869341084805560
76465 3 18341618135191249517

> <PUBCHEM_SHAPE_MULTIPOLES>
481.94
16.33
2.23
1.51
2.95
0.62
0.07
-10.41
-2.04
-1.67
-0.42
0.16
0.01
-0.98

> <PUBCHEM_SHAPE_SELFOVERLAP>
1025.299

> <PUBCHEM_SHAPE_VOLUME>
266.1

> <PUBCHEM_COORDINATE_TYPE>
2
5
10

$$$$
