51136740
  -OEChem-12032416143D

 57 59  0     1  0  0  0  0  0999 V2000
    2.8469   -4.6463   -0.8984 O   0  0  0  0  0  0  0  0  0  0  0  0
   -4.5443   -1.1220   -0.3914 O   0  0  0  0  0  0  0  0  0  0  0  0
    1.1467   -5.1923    0.5130 O   0  0  0  0  0  0  0  0  0  0  0  0
   -2.5108   -1.3178    0.7056 N   0  0  0  0  0  0  0  0  0  0  0  0
   -0.5337    2.0644    0.0849 N   0  0  0  0  0  0  0  0  0  0  0  0
   -3.5851    0.7749    0.4688 N   0  0  0  0  0  0  0  0  0  0  0  0
   -0.0461   -1.0532    0.6937 C   0  0  2  0  0  0  0  0  0  0  0  0
    0.0804   -2.5736    0.4102 C   0  0  1  0  0  0  0  0  0  0  0  0
   -1.1768   -3.1326   -0.2804 C   0  0  0  0  0  0  0  0  0  0  0  0
   -1.3605   -0.7763    1.4437 C   0  0  0  0  0  0  0  0  0  0  0  0
    0.0510   -0.1743   -0.5587 C   0  0  0  0  0  0  0  0  0  0  0  0
   -2.4467   -2.7632    0.4848 C   0  0  0  0  0  0  0  0  0  0  0  0
    1.3361   -2.9335   -0.3833 C   0  0  0  0  0  0  0  0  0  0  0  0
    0.4246    1.2355   -0.1687 C   0  0  0  0  0  0  0  0  0  0  0  0
   -3.6115   -0.5923    0.2218 C   0  0  0  0  0  0  0  0  0  0  0  0
    1.8628    1.5982   -0.0886 C   0  0  0  0  0  0  0  0  0  0  0  0
    1.7268   -4.3716   -0.1817 C   0  0  0  0  0  0  0  0  0  0  0  0
    2.1823    2.7559    0.6322 C   0  0  0  0  0  0  0  0  0  0  0  0
    1.0729    3.5322    1.2772 C   0  0  0  0  0  0  0  0  0  0  0  0
   -0.1724    3.4497    0.4043 C   0  0  0  0  0  0  0  0  0  0  0  0
    2.8687    0.8326   -0.6811 C   0  0  0  0  0  0  0  0  0  0  0  0
    3.5209    3.1296    0.7793 C   0  0  0  0  0  0  0  0  0  0  0  0
    4.2015    1.2226   -0.5423 C   0  0  0  0  0  0  0  0  0  0  0  0
    4.5274    2.3658    0.1881 C   0  0  0  0  0  0  0  0  0  0  0  0
   -4.6416    1.6570    0.0261 C   0  0  0  0  0  0  0  0  0  0  0  0
    5.2832    0.4119   -1.1731 C   0  0  0  0  0  0  0  0  0  0  0  0
   -4.3152    2.1612   -1.3403 C   0  0  0  0  0  0  0  0  0  0  0  0
   -4.1875    3.4574   -1.6459 C   0  0  0  0  0  0  0  0  0  0  0  0
    0.7772   -0.7845    1.3705 H   0  0  0  0  0  0  0  0  0  0  0  0
    0.1445   -3.0577    1.3961 H   0  0  0  0  0  0  0  0  0  0  0  0
   -1.2455   -2.7310   -1.2996 H   0  0  0  0  0  0  0  0  0  0  0  0
   -1.1229   -4.2227   -0.3722 H   0  0  0  0  0  0  0  0  0  0  0  0
   -1.4615    0.2751    1.7021 H   0  0  0  0  0  0  0  0  0  0  0  0
   -1.3414   -1.3028    2.4075 H   0  0  0  0  0  0  0  0  0  0  0  0
   -0.9097   -0.1357   -1.0877 H   0  0  0  0  0  0  0  0  0  0  0  0
    0.7448   -0.5694   -1.2977 H   0  0  0  0  0  0  0  0  0  0  0  0
   -2.4595   -3.2499    1.4672 H   0  0  0  0  0  0  0  0  0  0  0  0
   -3.3234   -3.1179   -0.0658 H   0  0  0  0  0  0  0  0  0  0  0  0
    2.1792   -2.3251   -0.0357 H   0  0  0  0  0  0  0  0  0  0  0  0
    1.1903   -2.7651   -1.4558 H   0  0  0  0  0  0  0  0  0  0  0  0
    0.8751    3.1065    2.2683 H   0  0  0  0  0  0  0  0  0  0  0  0
    1.3556    4.5827    1.4083 H   0  0  0  0  0  0  0  0  0  0  0  0
   -1.0120    3.9160    0.9314 H   0  0  0  0  0  0  0  0  0  0  0  0
   -0.0338    4.0062   -0.5311 H   0  0  0  0  0  0  0  0  0  0  0  0
    2.6595   -0.0603   -1.2574 H   0  0  0  0  0  0  0  0  0  0  0  0
   -2.7861    1.2197    0.8980 H   0  0  0  0  0  0  0  0  0  0  0  0
    3.7870    4.0143    1.3514 H   0  0  0  0  0  0  0  0  0  0  0  0
    3.1307   -5.5790   -0.7899 H   0  0  0  0  0  0  0  0  0  0  0  0
    5.5637    2.6711    0.3077 H   0  0  0  0  0  0  0  0  0  0  0  0
   -4.7170    2.4680    0.7577 H   0  0  0  0  0  0  0  0  0  0  0  0
   -5.5951    1.1195    0.0082 H   0  0  0  0  0  0  0  0  0  0  0  0
    6.1905    1.0055   -1.3282 H   0  0  0  0  0  0  0  0  0  0  0  0
    4.9709    0.0415   -2.1555 H   0  0  0  0  0  0  0  0  0  0  0  0
    5.5323   -0.4424   -0.5358 H   0  0  0  0  0  0  0  0  0  0  0  0
   -4.1936    1.4289   -2.1347 H   0  0  0  0  0  0  0  0  0  0  0  0
   -4.3069    4.2316   -0.8961 H   0  0  0  0  0  0  0  0  0  0  0  0
   -3.9577    3.7623   -2.6609 H   0  0  0  0  0  0  0  0  0  0  0  0
  1 17  1  0  0  0  0
  1 48  1  0  0  0  0
  2 15  2  0  0  0  0
  3 17  2  0  0  0  0
  4 10  1  0  0  0  0
  4 12  1  0  0  0  0
  4 15  1  0  0  0  0
  5 14  2  0  0  0  0
  5 20  1  0  0  0  0
  6 15  1  0  0  0  0
  6 25  1  0  0  0  0
  6 46  1  0  0  0  0
  7  8  1  0  0  0  0
  7 10  1  0  0  0  0
  7 11  1  0  0  0  0
  7 29  1  0  0  0  0
  8  9  1  0  0  0  0
  8 13  1  0  0  0  0
  8 30  1  0  0  0  0
  9 12  1  0  0  0  0
  9 31  1  0  0  0  0
  9 32  1  0  0  0  0
 10 33  1  0  0  0  0
 10 34  1  0  0  0  0
 11 14  1  0  0  0  0
 11 35  1  0  0  0  0
 11 36  1  0  0  0  0
 12 37  1  0  0  0  0
 12 38  1  0  0  0  0
 13 17  1  0  0  0  0
 13 39  1  0  0  0  0
 13 40  1  0  0  0  0
 14 16  1  0  0  0  0
 16 18  2  0  0  0  0
 16 21  1  0  0  0  0
 18 19  1  0  0  0  0
 18 22  1  0  0  0  0
 19 20  1  0  0  0  0
 19 41  1  0  0  0  0
 19 42  1  0  0  0  0
 20 43  1  0  0  0  0
 20 44  1  0  0  0  0
 21 23  2  0  0  0  0
 21 45  1  0  0  0  0
 22 24  2  0  0  0  0
 22 47  1  0  0  0  0
 23 24  1  0  0  0  0
 23 26  1  0  0  0  0
 24 49  1  0  0  0  0
 25 27  1  0  0  0  0
 25 50  1  0  0  0  0
 25 51  1  0  0  0  0
 26 52  1  0  0  0  0
 26 53  1  0  0  0  0
 26 54  1  0  0  0  0
 27 28  2  0  0  0  0
 27 55  1  0  0  0  0
 28 56  1  0  0  0  0
 28 57  1  0  0  0  0
M  END
> <PUBCHEM_COMPOUND_CID>
51136740

> <PUBCHEM_CONFORMER_RMSD>
1

> <PUBCHEM_CONFORMER_DIVERSEORDER>
1
19
42
25
22
39
8
6
20
21
32
14
17
2
15
13
10
12
27
46
3
35
34
33
26
38
9
7
16
36
43
44
31
45
29
41
23
11
30
24
28
18
40
5
4
37

> <PUBCHEM_MMFF94_PARTIAL_CHARGES>
33
1 -0.65
10 0.3
11 0.06
12 0.3
13 0.06
14 0.3
15 0.69
16 0.09
17 0.66
18 -0.14
19 0.14
2 -0.57
20 0.25
21 -0.15
22 -0.15
23 -0.14
24 -0.15
25 0.44
26 0.14
27 -0.29
28 -0.3
3 -0.57
4 -0.66
45 0.15
46 0.37
47 0.15
48 0.5
49 0.15
5 -0.7
55 0.15
56 0.15
57 0.15
6 -0.73

> <PUBCHEM_EFFECTIVE_ROTOR_COUNT>
9.6

> <PUBCHEM_PHARMACOPHORE_FEATURES>
10
1 1 acceptor
1 2 acceptor
1 28 hydrophobe
1 3 acceptor
1 5 acceptor
1 6 donor
3 1 3 17 anion
6 16 18 21 22 23 24 rings
6 4 7 8 9 10 12 rings
6 5 14 16 18 19 20 rings

> <PUBCHEM_HEAVY_ATOM_COUNT>
28

> <PUBCHEM_ATOM_DEF_STEREO_COUNT>
2

> <PUBCHEM_ATOM_UDEF_STEREO_COUNT>
0

> <PUBCHEM_BOND_DEF_STEREO_COUNT>
0

> <PUBCHEM_BOND_UDEF_STEREO_COUNT>
0

> <PUBCHEM_ISOTOPIC_ATOM_COUNT>
0

> <PUBCHEM_COMPONENT_COUNT>
1

> <PUBCHEM_CACTVS_TAUTO_COUNT>
2

> <PUBCHEM_CONFORMER_ID>
030C48E400000001

> <PUBCHEM_MMFF94_ENERGY>
61.648

> <PUBCHEM_FEATURE_SELFOVERLAP>
50.828

> <PUBCHEM_SHAPE_FINGERPRINT>
10940486 97 17757839205619576356
1100329 8 17402902124123905080
12293681 160 17322400289854614299
12403259 226 17908428300731344697
12422481 6 18042945637207757024
12788726 201 17327464622947743347
13402501 40 18339364175246787469
13642711 20 18340764858217269036
138480 1 18122908624938353995
140371 6 17835801889757101363
14178342 30 17260459796462163832
14251757 5 17832446545620606172
14466204 15 18410849992935799480
14508225 48 17547290004010575350
15210252 30 16821068007604870093
15927050 60 17837511665119849116
17492 89 16827280845581547762
19591789 44 18339364179314303824
20028762 73 17984424315471935023
20775438 99 17834908176625878183
21033648 29 18126842922424628113
21279426 13 18410858733342017908
21796203 349 16900223000312088481
23559900 14 18122899833082341859
3298306 158 18411136918020001172
508706 21 18336260266743037941
5265222 85 18189917468283401324
532947 4 18340778074080161958
5385378 56 18339370677837472841
59755656 215 18410012156954835565
9709674 26 17406845445879130158

> <PUBCHEM_SHAPE_MULTIPOLES>
543.68
8.83
6.92
1.15
0.36
7.39
-0.1
-6.86
-2.58
-1.23
-0.31
0.23
-0.57
2.48

> <PUBCHEM_SHAPE_SELFOVERLAP>
1137.177

> <PUBCHEM_SHAPE_VOLUME>
305

> <PUBCHEM_COORDINATE_TYPE>
2
5
10

$$$$
