75536177
  -OEChem-12032416303D

 63 65  0     1  0  0  0  0  0999 V2000
   -7.5991    0.1321   -0.2691 Cl  0  0  0  0  0  0  0  0  0  0  0  0
    5.1396   -1.6513   -0.8402 O   0  0  0  0  0  0  0  0  0  0  0  0
   -0.0991   -3.8015   -0.7230 O   0  0  0  0  0  0  0  0  0  0  0  0
   -0.1664   -2.9627    1.3864 O   0  0  0  0  0  0  0  0  0  0  0  0
    3.9239   -0.0402    0.3085 N   0  0  0  0  0  0  0  0  0  0  0  0
   -2.7194    1.1413    1.2967 N   0  0  0  0  0  0  0  0  0  0  0  0
   -1.7697   -0.4782    0.1071 N   0  0  0  0  0  0  0  0  0  0  0  0
    1.6071    1.2482   -1.1112 C   0  0  1  0  0  0  0  0  0  0  0  0
    2.8909    1.9638   -0.6219 C   0  0  1  0  0  0  0  0  0  0  0  0
    0.3592    2.0427   -0.6966 C   0  0  0  0  0  0  0  0  0  0  0  0
    0.2649    2.2245    0.8300 C   0  0  2  0  0  0  0  0  0  0  0  0
    1.6123    1.0458   -2.6296 C   0  0  0  0  0  0  0  0  0  0  0  0
    1.5832    2.6755    1.4259 C   0  0  0  0  0  0  0  0  0  0  0  0
    2.7445    2.5634    0.7570 C   0  0  0  0  0  0  0  0  0  0  0  0
    4.0946    1.0147   -0.6407 C   0  0  0  0  0  0  0  0  0  0  0  0
   -0.2348    0.9444    1.5089 C   0  0  0  0  0  0  0  0  0  0  0  0
    0.7137   -0.1255   -3.0135 C   0  0  0  0  0  0  0  0  0  0  0  0
    1.1696    2.3221   -3.3380 C   0  0  0  0  0  0  0  0  0  0  0  0
    1.5299    3.3010    2.7919 C   0  0  0  0  0  0  0  0  0  0  0  0
   -1.5586    0.5078    0.9499 C   0  0  0  0  0  0  0  0  0  0  0  0
    4.4692   -1.3120    0.1312 C   0  0  0  0  0  0  0  0  0  0  0  0
   -3.7480    0.5233    0.6331 C   0  0  0  0  0  0  0  0  0  0  0  0
   -3.1296   -0.4840   -0.1024 C   0  0  0  0  0  0  0  0  0  0  0  0
    4.1146   -2.2518    1.2713 C   0  0  0  0  0  0  0  0  0  0  0  0
    2.6123   -2.4643    1.4477 C   0  0  0  0  0  0  0  0  0  0  0  0
   -5.1243    0.7517    0.6138 C   0  0  0  0  0  0  0  0  0  0  0  0
   -3.9154   -1.3227   -0.9107 C   0  0  0  0  0  0  0  0  0  0  0  0
   -5.8911   -0.0924   -0.1961 C   0  0  0  0  0  0  0  0  0  0  0  0
   -5.2995   -1.1119   -0.9456 C   0  0  0  0  0  0  0  0  0  0  0  0
    1.9562   -3.0520    0.1968 C   0  0  0  0  0  0  0  0  0  0  0  0
    0.4693   -3.2518    0.3823 C   0  0  0  0  0  0  0  0  0  0  0  0
    1.5514    0.2614   -0.6347 H   0  0  0  0  0  0  0  0  0  0  0  0
    3.1245    2.7983   -1.2949 H   0  0  0  0  0  0  0  0  0  0  0  0
   -0.5554    1.6081   -1.1083 H   0  0  0  0  0  0  0  0  0  0  0  0
    0.4110    3.0619   -1.1036 H   0  0  0  0  0  0  0  0  0  0  0  0
   -0.4723    3.0218    1.0028 H   0  0  0  0  0  0  0  0  0  0  0  0
    2.6199    0.7973   -2.9784 H   0  0  0  0  0  0  0  0  0  0  0  0
    3.6540    2.9470    1.2152 H   0  0  0  0  0  0  0  0  0  0  0  0
    5.0090    1.5507   -0.3580 H   0  0  0  0  0  0  0  0  0  0  0  0
    4.2744    0.5968   -1.6354 H   0  0  0  0  0  0  0  0  0  0  0  0
   -0.3493    1.0975    2.5892 H   0  0  0  0  0  0  0  0  0  0  0  0
    0.4856    0.1280    1.3905 H   0  0  0  0  0  0  0  0  0  0  0  0
    1.0481   -1.0506   -2.5328 H   0  0  0  0  0  0  0  0  0  0  0  0
    0.7421   -0.2902   -4.0963 H   0  0  0  0  0  0  0  0  0  0  0  0
   -0.3311    0.0421   -2.7345 H   0  0  0  0  0  0  0  0  0  0  0  0
    1.7301    3.2030   -3.0115 H   0  0  0  0  0  0  0  0  0  0  0  0
    1.3557    2.2188   -4.4142 H   0  0  0  0  0  0  0  0  0  0  0  0
    0.0969    2.5195   -3.2401 H   0  0  0  0  0  0  0  0  0  0  0  0
    0.8348    4.1468    2.7958 H   0  0  0  0  0  0  0  0  0  0  0  0
    2.5076    3.6778    3.1110 H   0  0  0  0  0  0  0  0  0  0  0  0
    1.1988    2.5736    3.5390 H   0  0  0  0  0  0  0  0  0  0  0  0
    3.4845    0.1716    1.1993 H   0  0  0  0  0  0  0  0  0  0  0  0
   -2.8063    1.9263    1.9286 H   0  0  0  0  0  0  0  0  0  0  0  0
    4.6097   -3.2123    1.0863 H   0  0  0  0  0  0  0  0  0  0  0  0
    4.5410   -1.8423    2.1946 H   0  0  0  0  0  0  0  0  0  0  0  0
    2.4504   -3.1413    2.2959 H   0  0  0  0  0  0  0  0  0  0  0  0
    2.1225   -1.5217    1.7145 H   0  0  0  0  0  0  0  0  0  0  0  0
   -5.5695    1.5476    1.2014 H   0  0  0  0  0  0  0  0  0  0  0  0
   -3.4644   -2.1175   -1.4964 H   0  0  0  0  0  0  0  0  0  0  0  0
   -5.9092   -1.7606   -1.5710 H   0  0  0  0  0  0  0  0  0  0  0  0
    2.0943   -2.3825   -0.6580 H   0  0  0  0  0  0  0  0  0  0  0  0
    2.4057   -4.0240   -0.0339 H   0  0  0  0  0  0  0  0  0  0  0  0
   -1.0654   -3.9289   -0.6115 H   0  0  0  0  0  0  0  0  0  0  0  0
  1 28  1  0  0  0  0
  2 21  2  0  0  0  0
  3 31  1  0  0  0  0
  3 63  1  0  0  0  0
  4 31  2  0  0  0  0
  5 15  1  0  0  0  0
  5 21  1  0  0  0  0
  5 52  1  0  0  0  0
  6 20  1  0  0  0  0
  6 22  1  0  0  0  0
  6 53  1  0  0  0  0
  7 20  2  0  0  0  0
  7 23  1  0  0  0  0
  8  9  1  0  0  0  0
  8 10  1  0  0  0  0
  8 12  1  0  0  0  0
  8 32  1  0  0  0  0
  9 14  1  0  0  0  0
  9 15  1  0  0  0  0
  9 33  1  0  0  0  0
 10 11  1  0  0  0  0
 10 34  1  0  0  0  0
 10 35  1  0  0  0  0
 11 13  1  0  0  0  0
 11 16  1  0  0  0  0
 11 36  1  0  0  0  0
 12 17  1  0  0  0  0
 12 18  1  0  0  0  0
 12 37  1  0  0  0  0
 13 14  2  0  0  0  0
 13 19  1  0  0  0  0
 14 38  1  0  0  0  0
 15 39  1  0  0  0  0
 15 40  1  0  0  0  0
 16 20  1  0  0  0  0
 16 41  1  0  0  0  0
 16 42  1  0  0  0  0
 17 43  1  0  0  0  0
 17 44  1  0  0  0  0
 17 45  1  0  0  0  0
 18 46  1  0  0  0  0
 18 47  1  0  0  0  0
 18 48  1  0  0  0  0
 19 49  1  0  0  0  0
 19 50  1  0  0  0  0
 19 51  1  0  0  0  0
 21 24  1  0  0  0  0
 22 23  2  0  0  0  0
 22 26  1  0  0  0  0
 23 27  1  0  0  0  0
 24 25  1  0  0  0  0
 24 54  1  0  0  0  0
 24 55  1  0  0  0  0
 25 30  1  0  0  0  0
 25 56  1  0  0  0  0
 25 57  1  0  0  0  0
 26 28  2  0  0  0  0
 26 58  1  0  0  0  0
 27 29  2  0  0  0  0
 27 59  1  0  0  0  0
 28 29  1  0  0  0  0
 29 60  1  0  0  0  0
 30 31  1  0  0  0  0
 30 61  1  0  0  0  0
 30 62  1  0  0  0  0
M  END
> <PUBCHEM_COMPOUND_CID>
75536177

> <PUBCHEM_CONFORMER_RMSD>
1

> <PUBCHEM_CONFORMER_DIVERSEORDER>
1
104
86
96
80
98
38
95
84
100
25
91
9
108
73
36
85
99
105
40
103
53
70
106
75
61
78
52
41
42
67
27
92
87
71
60
101
66
55
94
64
109
13
93
58
97
43
76
62
30
83
68
49
45
24
107
10
79
23
31
89
102
56
19
51
44
14
12
8
65
88
63
59
16
57
77
39
72
46
15
18
32
21
33
47
50
82
2
35
69
6
4
22
74
26
81
37
90
29
28
34
17
20
11
48
7
54
3
5

> <PUBCHEM_MMFF94_PARTIAL_CHARGES>
32
1 -0.18
11 0.14
13 -0.28
14 -0.29
15 0.3
16 0.18
19 0.14
2 -0.57
20 0.01
21 0.57
22 -0.15
23 0.23
24 0.06
26 -0.15
27 -0.15
28 0.18
29 -0.15
3 -0.65
30 0.06
31 0.66
38 0.15
4 -0.57
5 -0.73
52 0.37
53 0.27
58 0.15
59 0.15
6 0.03
60 0.15
63 0.5
7 -0.57
9 0.14

> <PUBCHEM_EFFECTIVE_ROTOR_COUNT>
10.8

> <PUBCHEM_PHARMACOPHORE_FEATURES>
11
1 2 acceptor
1 3 acceptor
1 4 acceptor
1 5 donor
1 6 donor
3 12 17 18 hydrophobe
3 3 4 31 anion
3 6 7 20 cation
5 6 7 20 22 23 rings
6 22 23 26 27 28 29 rings
6 8 9 10 11 13 14 rings

> <PUBCHEM_HEAVY_ATOM_COUNT>
31

> <PUBCHEM_ATOM_DEF_STEREO_COUNT>
3

> <PUBCHEM_ATOM_UDEF_STEREO_COUNT>
0

> <PUBCHEM_BOND_DEF_STEREO_COUNT>
0

> <PUBCHEM_BOND_UDEF_STEREO_COUNT>
0

> <PUBCHEM_ISOTOPIC_ATOM_COUNT>
0

> <PUBCHEM_COMPONENT_COUNT>
1

> <PUBCHEM_CACTVS_TAUTO_COUNT>
6

> <PUBCHEM_CONFORMER_ID>
0480973100000001

> <PUBCHEM_MMFF94_ENERGY>
47.9507

> <PUBCHEM_FEATURE_SELFOVERLAP>
55.985

> <PUBCHEM_SHAPE_FINGERPRINT>
10816530 23 17464264094227556668
11513181 2 17984714315853304782
12156800 1 15506834012264816242
13533116 47 18341327872832822785
14068700 675 18269840818366679456
14747281 78 15937850386845289247
14840074 17 18188218615080210374
14931854 50 18339092531623654502
15001296 14 18410006675980635635
15183329 4 18060424621316447729
17349148 13 17060623313000195785
17492 54 17968673644126756610
18336668 15 18334853862316131394
20764821 26 16752684486888500207
20775530 9 17754739325837354746
21421861 104 18125742113700501457
23559900 14 18186237343014806147
338550 245 18116436040651647615
345986 75 18267011761630987264
35225 105 17469909017094616654
46194498 28 17168146771135570221
463206 1 18410857676663921011
6669772 16 17984688172033380985
9896288 288 17484802607426977682

> <PUBCHEM_SHAPE_MULTIPOLES>
607.28
11.6
4.13
2.43
20.88
2.23
-1.57
2.68
-0.52
-4.62
1.44
-1.79
-1.83
-1.02

> <PUBCHEM_SHAPE_SELFOVERLAP>
1261.512

> <PUBCHEM_SHAPE_VOLUME>
347.5

> <PUBCHEM_COORDINATE_TYPE>
2
5
10

$$$$
