40777680
  -OEChem-12032416213D

 61 64  0     1  0  0  0  0  0999 V2000
   -8.8559    2.0350    0.2600 F   0  0  0  0  0  0  0  0  0  0  0  0
   -9.5087   -0.0372    0.3462 F   0  0  0  0  0  0  0  0  0  0  0  0
   -9.1644    0.9209   -1.5750 F   0  0  0  0  0  0  0  0  0  0  0  0
    3.8125    2.5697   -0.4236 O   0  0  0  0  0  0  0  0  0  0  0  0
    3.2095    0.6958    0.8038 N   0  0  0  0  0  0  0  0  0  0  0  0
   -3.2674   -0.9497   -0.1573 N   0  0  0  0  0  0  0  0  0  0  0  0
   -2.9416   -2.1413   -0.6867 N   0  0  0  0  0  0  0  0  0  0  0  0
    9.3617   -0.5697   -0.5221 N   0  0  0  0  0  0  0  0  0  0  0  0
    0.3170   -0.8098    0.5860 C   0  0  2  0  0  0  0  0  0  0  0  0
    0.8893    0.4826   -0.0323 C   0  0  0  0  0  0  0  0  0  0  0  0
    1.8370    1.0678    1.0220 C   0  0  1  0  0  0  0  0  0  0  0  0
   -1.1138   -1.0824    0.1826 C   0  0  0  0  0  0  0  0  0  0  0  0
    0.5224   -0.5822    2.0556 C   0  0  0  0  0  0  0  0  0  0  0  0
    1.3539    0.4391    2.2875 C   0  0  0  0  0  0  0  0  0  0  0  0
   -2.2083   -0.2755    0.3762 C   0  0  0  0  0  0  0  0  0  0  0  0
   -1.6248   -2.2167   -0.4761 C   0  0  0  0  0  0  0  0  0  0  0  0
   -2.3293    1.0530    1.0103 C   0  0  0  0  0  0  0  0  0  0  0  0
   -0.8858   -3.4085   -0.9290 C   0  0  0  0  0  0  0  0  0  0  0  0
    4.0976    1.4900    0.0878 C   0  0  0  0  0  0  0  0  0  0  0  0
   -4.5932   -0.5164   -0.1918 C   0  0  0  0  0  0  0  0  0  0  0  0
    5.4734    0.9524   -0.0712 C   0  0  0  0  0  0  0  0  0  0  0  0
   -5.5896   -1.2669    0.4323 C   0  0  0  0  0  0  0  0  0  0  0  0
   -4.9224    0.6662   -0.8544 C   0  0  0  0  0  0  0  0  0  0  0  0
   -6.9152   -0.8347    0.3940 C   0  0  0  0  0  0  0  0  0  0  0  0
   -6.2481    1.0982   -0.8928 C   0  0  0  0  0  0  0  0  0  0  0  0
    6.2450    1.3257   -1.1718 C   0  0  0  0  0  0  0  0  0  0  0  0
    5.9933    0.0739    0.8793 C   0  0  0  0  0  0  0  0  0  0  0  0
   -7.2446    0.3478   -0.2686 C   0  0  0  0  0  0  0  0  0  0  0  0
    8.0561   -0.0585   -0.3714 C   0  0  0  0  0  0  0  0  0  0  0  0
    7.5362    0.8202   -1.3219 C   0  0  0  0  0  0  0  0  0  0  0  0
    7.2847   -0.4317    0.7292 C   0  0  0  0  0  0  0  0  0  0  0  0
   -8.6621    0.8089   -0.3098 C   0  0  0  0  0  0  0  0  0  0  0  0
    9.9131   -1.4774    0.4644 C   0  0  0  0  0  0  0  0  0  0  0  0
   10.1724   -0.1884   -1.6615 C   0  0  0  0  0  0  0  0  0  0  0  0
    0.9447   -1.6603    0.2899 H   0  0  0  0  0  0  0  0  0  0  0  0
    1.3933    0.2727   -0.9837 H   0  0  0  0  0  0  0  0  0  0  0  0
    0.1049    1.2149   -0.2565 H   0  0  0  0  0  0  0  0  0  0  0  0
    1.7469    2.1586    1.0553 H   0  0  0  0  0  0  0  0  0  0  0  0
    0.0818   -1.1912    2.8325 H   0  0  0  0  0  0  0  0  0  0  0  0
    1.6565    0.7608    3.2741 H   0  0  0  0  0  0  0  0  0  0  0  0
    3.4949   -0.2278    1.1137 H   0  0  0  0  0  0  0  0  0  0  0  0
   -2.3386    1.8430    0.2526 H   0  0  0  0  0  0  0  0  0  0  0  0
   -3.2427    1.1355    1.6087 H   0  0  0  0  0  0  0  0  0  0  0  0
   -1.5016    1.2632    1.6913 H   0  0  0  0  0  0  0  0  0  0  0  0
   -0.4085   -3.9098   -0.0807 H   0  0  0  0  0  0  0  0  0  0  0  0
   -1.5431   -4.1350   -1.4187 H   0  0  0  0  0  0  0  0  0  0  0  0
   -0.1068   -3.1282   -1.6454 H   0  0  0  0  0  0  0  0  0  0  0  0
   -5.3501   -2.1891    0.9563 H   0  0  0  0  0  0  0  0  0  0  0  0
   -4.1641    1.2581   -1.3608 H   0  0  0  0  0  0  0  0  0  0  0  0
   -7.6761   -1.4334    0.8870 H   0  0  0  0  0  0  0  0  0  0  0  0
   -6.4956    2.0189   -1.4144 H   0  0  0  0  0  0  0  0  0  0  0  0
    5.8554    2.0055   -1.9251 H   0  0  0  0  0  0  0  0  0  0  0  0
    5.4375   -0.2172    1.7657 H   0  0  0  0  0  0  0  0  0  0  0  0
    8.0960    1.1399   -2.1953 H   0  0  0  0  0  0  0  0  0  0  0  0
    7.6461   -1.1065    1.4989 H   0  0  0  0  0  0  0  0  0  0  0  0
   10.9330   -1.7841    0.2069 H   0  0  0  0  0  0  0  0  0  0  0  0
    9.3201   -2.3963    0.5323 H   0  0  0  0  0  0  0  0  0  0  0  0
    9.9705   -1.0031    1.4504 H   0  0  0  0  0  0  0  0  0  0  0  0
   11.1569   -0.6689   -1.6370 H   0  0  0  0  0  0  0  0  0  0  0  0
   10.3536    0.8921   -1.6745 H   0  0  0  0  0  0  0  0  0  0  0  0
    9.7012   -0.4933   -2.6026 H   0  0  0  0  0  0  0  0  0  0  0  0
  1 32  1  0  0  0  0
  2 32  1  0  0  0  0
  3 32  1  0  0  0  0
  4 19  2  0  0  0  0
  5 11  1  0  0  0  0
  5 19  1  0  0  0  0
  5 41  1  0  0  0  0
  6  7  1  0  0  0  0
  6 15  1  0  0  0  0
  6 20  1  0  0  0  0
  7 16  2  0  0  0  0
  8 29  1  0  0  0  0
  8 33  1  0  0  0  0
  8 34  1  0  0  0  0
  9 10  1  0  0  0  0
  9 12  1  0  0  0  0
  9 13  1  0  0  0  0
  9 35  1  0  0  0  0
 10 11  1  0  0  0  0
 10 36  1  0  0  0  0
 10 37  1  0  0  0  0
 11 14  1  0  0  0  0
 11 38  1  0  0  0  0
 12 15  2  0  0  0  0
 12 16  1  0  0  0  0
 13 14  2  0  0  0  0
 13 39  1  0  0  0  0
 14 40  1  0  0  0  0
 15 17  1  0  0  0  0
 16 18  1  0  0  0  0
 17 42  1  0  0  0  0
 17 43  1  0  0  0  0
 17 44  1  0  0  0  0
 18 45  1  0  0  0  0
 18 46  1  0  0  0  0
 18 47  1  0  0  0  0
 19 21  1  0  0  0  0
 20 22  2  0  0  0  0
 20 23  1  0  0  0  0
 21 26  2  0  0  0  0
 21 27  1  0  0  0  0
 22 24  1  0  0  0  0
 22 48  1  0  0  0  0
 23 25  2  0  0  0  0
 23 49  1  0  0  0  0
 24 28  2  0  0  0  0
 24 50  1  0  0  0  0
 25 28  1  0  0  0  0
 25 51  1  0  0  0  0
 26 30  1  0  0  0  0
 26 52  1  0  0  0  0
 27 31  2  0  0  0  0
 27 53  1  0  0  0  0
 28 32  1  0  0  0  0
 29 30  2  0  0  0  0
 29 31  1  0  0  0  0
 30 54  1  0  0  0  0
 31 55  1  0  0  0  0
 33 56  1  0  0  0  0
 33 57  1  0  0  0  0
 33 58  1  0  0  0  0
 34 59  1  0  0  0  0
 34 60  1  0  0  0  0
 34 61  1  0  0  0  0
M  END
> <PUBCHEM_COMPOUND_CID>
40777680

> <PUBCHEM_CONFORMER_RMSD>
1

> <PUBCHEM_CONFORMER_DIVERSEORDER>
1
2
27
20
46
23
28
41
5
31
24
42
26
9
14
16
22
18
44
21
53
7
12
48
25
8
30
3
40
51
35
4
50
54
34
36
38
33
49
11
10
52
47
32
37
39
43
6
17
29
45
15
19
13

> <PUBCHEM_MMFF94_PARTIAL_CHARGES>
44
1 -0.34
11 0.44
12 -0.18
13 -0.29
14 -0.29
15 -0.33
16 0.11
17 0.18
18 0.18
19 0.54
2 -0.34
20 -0.02
21 0.09
22 -0.15
23 -0.15
24 -0.15
25 -0.15
26 -0.15
27 -0.15
28 -0.14
29 0.1
3 -0.34
30 -0.15
31 -0.15
32 1.16
33 0.37
34 0.37
39 0.15
4 -0.57
40 0.15
41 0.37
48 0.15
49 0.15
5 -0.73
50 0.15
51 0.15
52 0.15
53 0.15
54 0.15
55 0.15
6 0.59
7 -0.71
8 -0.84
9 0.32

> <PUBCHEM_EFFECTIVE_ROTOR_COUNT>
7.6

> <PUBCHEM_PHARMACOPHORE_FEATURES>
8
1 4 acceptor
1 5 donor
1 7 acceptor
1 8 cation
5 6 7 12 15 16 rings
5 9 10 11 13 14 rings
6 20 22 23 24 25 28 rings
6 21 26 27 29 30 31 rings

> <PUBCHEM_HEAVY_ATOM_COUNT>
34

> <PUBCHEM_ATOM_DEF_STEREO_COUNT>
2

> <PUBCHEM_ATOM_UDEF_STEREO_COUNT>
0

> <PUBCHEM_BOND_DEF_STEREO_COUNT>
0

> <PUBCHEM_BOND_UDEF_STEREO_COUNT>
0

> <PUBCHEM_ISOTOPIC_ATOM_COUNT>
0

> <PUBCHEM_COMPONENT_COUNT>
1

> <PUBCHEM_CACTVS_TAUTO_COUNT>
2

> <PUBCHEM_CONFORMER_ID>
026E37D000000001

> <PUBCHEM_MMFF94_ENERGY>
103.5158

> <PUBCHEM_FEATURE_SELFOVERLAP>
40.597

> <PUBCHEM_SHAPE_FINGERPRINT>
10 15 11025794310665550328
10162869 55 12823292408264865696
10165383 225 18342174458595565735
10369192 42 15285352929894243954
10483366 6 18272370867067086464
106641 1 8430315736280534504
10670039 82 18131633362096801265
10674148 151 18187361052451651376
11211813 128 11602815792245052888
11408170 108 15625957408842631892
11828422 8 16267683186242504128
12120059 9 16056881338589528278
12202916 173 15841556284066778676
12559415 135 18343021069849200744
12741549 16 15051733079758252586
12758862 11 17917988416748094282
12758862 56 18343297106953768138
14040221 8 18131359600950205120
14117953 113 18201726154767556846
14150022 121 13840250465297313935
14294032 229 18267026059472809305
14856354 85 16660646301615874611
14918687 75 13551483592132866961
15065858 18 16056876923236455408
15183329 4 18413673521895425976
15230672 131 18411978087877560750
15247644 1 16559031601634845759
15320295 40 16056880234650933592
15326923 82 10807931561804638835
15347591 1 18124031493067387680
15392192 104 14707208824929961057
15444296 9 18411139108912258780
15706992 2 16153434930317606021
15728490 51 8358253735342858777
15773216 30 17095796604574922690
15840311 113 17240488047927208868
16992610 120 16226056587412464386
17686467 74 8935001460503151503
18335252 98 8358263648354036060
19309040 13 16591426642052959878
19611394 137 17896330293467230211
20105231 36 18040720285370514739
20505436 4 17822283609142337283
21365058 27 16081084891792964258
21585482 111 18188767229340821653
21781055 127 17917431969539183107
21792934 111 16271922719338761624
21792961 116 18273217508875595987
22224240 67 14273452587368105593
23559900 14 17773871090206020128
23576562 1 18196359550340190093
249057 3 18412824716077578800
3004659 81 18411136974972790824
3092352 35 17676204684545568067
335352 9 18343580754592897693
3383291 50 16917072187226993942
3418910 222 10953732279858756838
4149490 64 13254216359681588999
474113 269 16917074322452883422
5028188 123 17458348588557575914
5381727 24 18202280334477387415
57303763 176 17202213919193845041
5758199 1 15864066581227178929
59682541 35 10809345550969476268
59755656 520 17313097600759682763
6081469 158 18202285784800915684
6126387 218 13326861019882656771
6201320 82 18118115880773767325
9663363 56 18202282508141931760
9689198 14 17603304873021587233
9953998 17 14996285825730976185

> <PUBCHEM_SHAPE_MULTIPOLES>
652.09
34.41
2.08
1.4
14.8
1.03
-0.33
-5.12
11.41
-0.85
0.53
1.21
-0.11
-0.18

> <PUBCHEM_SHAPE_SELFOVERLAP>
1416.578

> <PUBCHEM_SHAPE_VOLUME>
360.7

> <PUBCHEM_COORDINATE_TYPE>
2
5
10

$$$$
