28961487
  -OEChem-12032416283D

 56 57  0     1  0  0  0  0  0999 V2000
   -7.4992    2.6888    0.8816 Cl  0  0  0  0  0  0  0  0  0  0  0  0
    0.4533   -1.5001    0.9156 O   0  0  0  0  0  0  0  0  0  0  0  0
    2.0649   -2.4486   -1.4236 O   0  0  0  0  0  0  0  0  0  0  0  0
   -0.9494   -3.9326    1.0565 O   0  0  0  0  0  0  0  0  0  0  0  0
   -1.6854   -0.7273   -0.9502 O   0  0  0  0  0  0  0  0  0  0  0  0
    3.7374   -0.4045   -0.3072 N   0  0  1  0  0  0  0  0  0  0  0  0
   -0.3762    0.9946   -0.1305 N   0  0  0  0  0  0  0  0  0  0  0  0
    5.5864    2.7854    0.2994 N   0  0  0  0  0  0  0  0  0  0  0  0
   -2.6708    1.1727    0.0138 N   0  0  0  0  0  0  0  0  0  0  0  0
    2.7666   -1.1278    0.4952 C   0  0  1  0  0  0  0  0  0  0  0  0
    1.4115   -0.4394    0.7036 C   0  0  1  0  0  0  0  0  0  0  0  0
    2.3767   -2.4981   -0.0374 C   0  0  1  0  0  0  0  0  0  0  0  0
    1.1197   -2.7702    0.7803 C   0  0  2  0  0  0  0  0  0  0  0  0
    0.8937    0.4137   -0.4490 C   0  0  0  0  0  0  0  0  0  0  0  0
    0.1569   -3.7795    0.1819 C   0  0  0  0  0  0  0  0  0  0  0  0
    4.3509    0.6792    0.4671 C   0  0  0  0  0  0  0  0  0  0  0  0
    4.7742   -1.3093   -0.8134 C   0  0  0  0  0  0  0  0  0  0  0  0
    4.9916    1.6982   -0.4703 C   0  0  0  0  0  0  0  0  0  0  0  0
   -1.6055    0.3725   -0.4081 C   0  0  0  0  0  0  0  0  0  0  0  0
    5.7411    3.9801   -0.5320 C   0  0  0  0  0  0  0  0  0  0  0  0
    6.8801    2.3785    0.8502 C   0  0  0  0  0  0  0  0  0  0  0  0
   -4.0549    0.8994   -0.0874 C   0  0  0  0  0  0  0  0  0  0  0  0
   -4.9856    1.8219    0.3909 C   0  0  0  0  0  0  0  0  0  0  0  0
   -4.4891   -0.2935   -0.6655 C   0  0  0  0  0  0  0  0  0  0  0  0
   -6.3504    1.5515    0.2910 C   0  0  0  0  0  0  0  0  0  0  0  0
   -5.8538   -0.5640   -0.7653 C   0  0  0  0  0  0  0  0  0  0  0  0
   -6.7845    0.3585   -0.2873 C   0  0  0  0  0  0  0  0  0  0  0  0
    3.1914   -1.3139    1.4952 H   0  0  0  0  0  0  0  0  0  0  0  0
    1.4349    0.1678    1.6170 H   0  0  0  0  0  0  0  0  0  0  0  0
    3.1387   -3.2679    0.1247 H   0  0  0  0  0  0  0  0  0  0  0  0
    1.3891   -3.0745    1.7999 H   0  0  0  0  0  0  0  0  0  0  0  0
    0.7768   -0.1814   -1.3603 H   0  0  0  0  0  0  0  0  0  0  0  0
    1.5744    1.2428   -0.6639 H   0  0  0  0  0  0  0  0  0  0  0  0
    0.6398   -4.7521    0.0482 H   0  0  0  0  0  0  0  0  0  0  0  0
   -0.2397   -3.4328   -0.7777 H   0  0  0  0  0  0  0  0  0  0  0  0
    3.5861    1.2076    1.0516 H   0  0  0  0  0  0  0  0  0  0  0  0
    5.0654    0.2697    1.1912 H   0  0  0  0  0  0  0  0  0  0  0  0
    5.5613   -0.7752   -1.3532 H   0  0  0  0  0  0  0  0  0  0  0  0
    4.3928   -2.0199   -1.5513 H   0  0  0  0  0  0  0  0  0  0  0  0
    5.2602   -1.8697   -0.0053 H   0  0  0  0  0  0  0  0  0  0  0  0
    1.9285   -3.3620   -1.7273 H   0  0  0  0  0  0  0  0  0  0  0  0
    5.7349    1.2630   -1.1466 H   0  0  0  0  0  0  0  0  0  0  0  0
    4.1909    2.0939   -1.1113 H   0  0  0  0  0  0  0  0  0  0  0  0
   -0.3868    1.8990    0.3309 H   0  0  0  0  0  0  0  0  0  0  0  0
   -1.5471   -4.5838    0.6512 H   0  0  0  0  0  0  0  0  0  0  0  0
    4.7673    4.3277   -0.8948 H   0  0  0  0  0  0  0  0  0  0  0  0
    6.3895    3.8000   -1.3973 H   0  0  0  0  0  0  0  0  0  0  0  0
    6.1664    4.8037    0.0526 H   0  0  0  0  0  0  0  0  0  0  0  0
    7.5944    2.0957    0.0681 H   0  0  0  0  0  0  0  0  0  0  0  0
    6.7818    1.5413    1.5476 H   0  0  0  0  0  0  0  0  0  0  0  0
    7.3206    3.1995    1.4279 H   0  0  0  0  0  0  0  0  0  0  0  0
   -2.4303    2.0608    0.4468 H   0  0  0  0  0  0  0  0  0  0  0  0
   -4.6458    2.7519    0.8419 H   0  0  0  0  0  0  0  0  0  0  0  0
   -3.8311   -1.0561   -1.0575 H   0  0  0  0  0  0  0  0  0  0  0  0
   -6.1931   -1.4927   -1.2151 H   0  0  0  0  0  0  0  0  0  0  0  0
   -7.8448    0.1343   -0.3718 H   0  0  0  0  0  0  0  0  0  0  0  0
  1 25  1  0  0  0  0
  2 11  1  0  0  0  0
  2 13  1  0  0  0  0
  3 12  1  0  0  0  0
  3 41  1  0  0  0  0
  4 15  1  0  0  0  0
  4 45  1  0  0  0  0
  5 19  2  0  0  0  0
  6 10  1  0  0  0  0
  6 16  1  0  0  0  0
  6 17  1  0  0  0  0
  7 14  1  0  0  0  0
  7 19  1  0  0  0  0
  7 44  1  0  0  0  0
  8 18  1  0  0  0  0
  8 20  1  0  0  0  0
  8 21  1  0  0  0  0
  9 19  1  0  0  0  0
  9 22  1  0  0  0  0
  9 52  1  0  0  0  0
 10 11  1  0  0  0  0
 10 12  1  0  0  0  0
 10 28  1  0  0  0  0
 11 14  1  0  0  0  0
 11 29  1  0  0  0  0
 12 13  1  0  0  0  0
 12 30  1  0  0  0  0
 13 15  1  0  0  0  0
 13 31  1  0  0  0  0
 14 32  1  0  0  0  0
 14 33  1  0  0  0  0
 15 34  1  0  0  0  0
 15 35  1  0  0  0  0
 16 18  1  0  0  0  0
 16 36  1  0  0  0  0
 16 37  1  0  0  0  0
 17 38  1  0  0  0  0
 17 39  1  0  0  0  0
 17 40  1  0  0  0  0
 18 42  1  0  0  0  0
 18 43  1  0  0  0  0
 20 46  1  0  0  0  0
 20 47  1  0  0  0  0
 20 48  1  0  0  0  0
 21 49  1  0  0  0  0
 21 50  1  0  0  0  0
 21 51  1  0  0  0  0
 22 23  2  0  0  0  0
 22 24  1  0  0  0  0
 23 25  1  0  0  0  0
 23 53  1  0  0  0  0
 24 26  2  0  0  0  0
 24 54  1  0  0  0  0
 25 27  2  0  0  0  0
 26 27  1  0  0  0  0
 26 55  1  0  0  0  0
 27 56  1  0  0  0  0
M  END
> <PUBCHEM_COMPOUND_CID>
28961487

> <PUBCHEM_CONFORMER_RMSD>
1

> <PUBCHEM_CONFORMER_DIVERSEORDER>
2
11
8
25
14
58
55
64
68
46
30
20
48
17
12
86
7
76
32
36
95
66
54
23
10
18
61
91
24
59
39
50
84
38
9
73
99
43
85
35
6
93
62
52
63
78
40
28
37
72
70
13
15
34
19
77
26
83
47
4
60
98
87
45
67
69
27
79
97
16
71
51
44
21
53
31
96
75
89
29
57
3
5
80
94
22
82
90
1
92
88
65
42
33
56
49
81
74
41

> <PUBCHEM_MMFF94_PARTIAL_CHARGES>
35
1 -0.18
10 0.27
11 0.28
12 0.28
13 0.28
14 0.3
15 0.28
16 0.27
17 0.27
18 0.27
19 0.69
2 -0.56
20 0.27
21 0.27
22 0.12
23 -0.15
24 -0.15
25 0.18
26 -0.15
27 -0.15
3 -0.68
4 -0.68
41 0.4
44 0.37
45 0.4
5 -0.57
52 0.37
53 0.15
54 0.15
55 0.15
56 0.15
6 -0.81
7 -0.73
8 -0.81
9 -0.55

> <PUBCHEM_EFFECTIVE_ROTOR_COUNT>
11

> <PUBCHEM_PHARMACOPHORE_FEATURES>
12
1 2 acceptor
1 3 acceptor
1 3 donor
1 4 acceptor
1 4 donor
1 5 acceptor
1 6 cation
1 7 donor
1 8 cation
1 9 donor
5 2 10 11 12 13 rings
6 22 23 24 25 26 27 rings

> <PUBCHEM_HEAVY_ATOM_COUNT>
27

> <PUBCHEM_ATOM_DEF_STEREO_COUNT>
4

> <PUBCHEM_ATOM_UDEF_STEREO_COUNT>
0

> <PUBCHEM_BOND_DEF_STEREO_COUNT>
0

> <PUBCHEM_BOND_UDEF_STEREO_COUNT>
0

> <PUBCHEM_ISOTOPIC_ATOM_COUNT>
0

> <PUBCHEM_COMPONENT_COUNT>
1

> <PUBCHEM_CACTVS_TAUTO_COUNT>
3

> <PUBCHEM_CONFORMER_ID>
01B9EACF00000002

> <PUBCHEM_MMFF94_ENERGY>
71.4437

> <PUBCHEM_FEATURE_SELFOVERLAP>
60.952

> <PUBCHEM_SHAPE_FINGERPRINT>
10411042 1 17762056541666816394
10595046 47 18342736300305116665
10673678 19 18273218612223254724
10906281 52 18336550511683881052
11135609 187 18343020020848564945
12107183 9 17188694144394203969
12236239 1 18272087171972143613
12596602 18 18201721734950945969
12730499 353 18335146340804051131
12788726 201 17273414972731415241
12925494 130 18051406559794516544
13540713 4 18267040508470292462
1361 2 18407761447493527296
13955234 65 18116148866232334250
14528608 73 18410293588322327741
14565420 104 18333446539056354722
14790565 3 18410293596975838605
14849402 71 18335980853661917762
15840311 113 18411142394610297013
16992610 120 18262530294761942540
17844677 252 18194405485758845677
19427546 62 18408606954718156850
20715895 44 18410293649222412440
21049683 118 18191847102657690570
21521721 280 18410579495842444737
23522609 53 17774738471905589505
23559900 14 17274256129270419127
239999 70 18199468757683719382
24771293 8 18334574689537486948
3246875 12 18337391655380233819
3411729 13 18412544292945784716
34797466 226 18131638854863704173
4073 2 18408608067884800603
4340502 62 18334577914814709023
437815 12 10663822987609166385
5104073 3 18040714779148438907
5758199 1 18410012152011307433
621550 34 18041837298942048677
6328613 192 18272651234380513097
7399639 24 17895747400994333133

> <PUBCHEM_SHAPE_MULTIPOLES>
514.12
18.84
4.45
0.98
15.49
1.27
-0.02
-21.7
0.77
-5.43
0.75
-0.1
0.22
-0.72

> <PUBCHEM_SHAPE_SELFOVERLAP>
1040.967

> <PUBCHEM_SHAPE_VOLUME>
301.3

> <PUBCHEM_COORDINATE_TYPE>
2
5
10

$$$$
