75536649
  -OEChem-12032416313D

 46 48  0     1  0  0  0  0  0999 V2000
   -5.1043    2.1468   -0.7003 F   0  0  0  0  0  0  0  0  0  0  0  0
    8.5109    1.6935    0.8009 F   0  0  0  0  0  0  0  0  0  0  0  0
    0.2804    0.7606   -0.0060 O   0  0  0  0  0  0  0  0  0  0  0  0
   -0.9859   -2.5838   -0.3477 O   0  0  0  0  0  0  0  0  0  0  0  0
    3.6337   -2.1974   -0.1161 O   0  0  0  0  0  0  0  0  0  0  0  0
   -3.1820   -0.3521   -0.0786 N   0  0  0  0  0  0  0  0  0  0  0  0
    2.7568   -0.2632   -1.0505 N   0  0  0  0  0  0  0  0  0  0  0  0
   -1.7823   -0.3729    0.3139 C   0  0  1  0  0  0  0  0  0  0  0  0
   -0.9032   -1.1963   -0.6091 C   0  0  1  0  0  0  0  0  0  0  0  0
    0.4741   -0.6374   -0.2781 C   0  0  1  0  0  0  0  0  0  0  0  0
   -1.1211    0.9925    0.2201 C   0  0  0  0  0  0  0  0  0  0  0  0
    1.4775   -0.8068   -1.4049 C   0  0  0  0  0  0  0  0  0  0  0  0
   -4.0224    0.1546    0.9998 C   0  0  0  0  0  0  0  0  0  0  0  0
   -5.4746    0.1990    0.6052 C   0  0  0  0  0  0  0  0  0  0  0  0
    3.7474   -1.0141   -0.4248 C   0  0  0  0  0  0  0  0  0  0  0  0
   -5.9414    1.2084   -0.2367 C   0  0  0  0  0  0  0  0  0  0  0  0
   -6.3541   -0.7721    1.0841 C   0  0  0  0  0  0  0  0  0  0  0  0
    5.0075   -0.2973   -0.1002 C   0  0  0  0  0  0  0  0  0  0  0  0
   -7.2877    1.2468   -0.5995 C   0  0  0  0  0  0  0  0  0  0  0  0
   -7.7004   -0.7334    0.7213 C   0  0  0  0  0  0  0  0  0  0  0  0
   -8.1672    0.2760   -0.1204 C   0  0  0  0  0  0  0  0  0  0  0  0
    5.7992   -0.7264    0.9652 C   0  0  0  0  0  0  0  0  0  0  0  0
    5.3995    0.8042   -0.8609 C   0  0  0  0  0  0  0  0  0  0  0  0
    6.9824   -0.0538    1.2700 C   0  0  0  0  0  0  0  0  0  0  0  0
    6.5828    1.4768   -0.5561 C   0  0  0  0  0  0  0  0  0  0  0  0
    7.3743    1.0478    0.5093 C   0  0  0  0  0  0  0  0  0  0  0  0
   -1.6791   -0.7772    1.3309 H   0  0  0  0  0  0  0  0  0  0  0  0
   -1.1598   -1.0187   -1.6609 H   0  0  0  0  0  0  0  0  0  0  0  0
    0.8696   -1.0964    0.6376 H   0  0  0  0  0  0  0  0  0  0  0  0
   -1.4925    1.5779   -0.6290 H   0  0  0  0  0  0  0  0  0  0  0  0
   -1.2476    1.5867    1.1301 H   0  0  0  0  0  0  0  0  0  0  0  0
    1.1496   -0.2624   -2.2974 H   0  0  0  0  0  0  0  0  0  0  0  0
    1.5911   -1.8646   -1.6654 H   0  0  0  0  0  0  0  0  0  0  0  0
   -3.4773   -1.3013   -0.3088 H   0  0  0  0  0  0  0  0  0  0  0  0
   -3.7188    1.1691    1.2883 H   0  0  0  0  0  0  0  0  0  0  0  0
   -3.9083   -0.4671    1.8975 H   0  0  0  0  0  0  0  0  0  0  0  0
   -0.7585   -2.7333    0.5857 H   0  0  0  0  0  0  0  0  0  0  0  0
    2.8901    0.7289   -1.2141 H   0  0  0  0  0  0  0  0  0  0  0  0
   -6.0043   -1.5657    1.7390 H   0  0  0  0  0  0  0  0  0  0  0  0
   -7.6510    2.0331   -1.2547 H   0  0  0  0  0  0  0  0  0  0  0  0
   -8.3852   -1.4897    1.0938 H   0  0  0  0  0  0  0  0  0  0  0  0
   -9.2155    0.3060   -0.4030 H   0  0  0  0  0  0  0  0  0  0  0  0
    5.5089   -1.5797    1.5724 H   0  0  0  0  0  0  0  0  0  0  0  0
    4.8290    1.1518   -1.7169 H   0  0  0  0  0  0  0  0  0  0  0  0
    7.5987   -0.3869    2.0999 H   0  0  0  0  0  0  0  0  0  0  0  0
    6.8922    2.3303   -1.1521 H   0  0  0  0  0  0  0  0  0  0  0  0
  1 16  1  0  0  0  0
  2 26  1  0  0  0  0
  3 10  1  0  0  0  0
  3 11  1  0  0  0  0
  4  9  1  0  0  0  0
  4 37  1  0  0  0  0
  5 15  2  0  0  0  0
  6  8  1  0  0  0  0
  6 13  1  0  0  0  0
  6 34  1  0  0  0  0
  7 12  1  0  0  0  0
  7 15  1  0  0  0  0
  7 38  1  0  0  0  0
  8  9  1  0  0  0  0
  8 11  1  0  0  0  0
  8 27  1  0  0  0  0
  9 10  1  0  0  0  0
  9 28  1  0  0  0  0
 10 12  1  0  0  0  0
 10 29  1  0  0  0  0
 11 30  1  0  0  0  0
 11 31  1  0  0  0  0
 12 32  1  0  0  0  0
 12 33  1  0  0  0  0
 13 14  1  0  0  0  0
 13 35  1  0  0  0  0
 13 36  1  0  0  0  0
 14 16  1  0  0  0  0
 14 17  2  0  0  0  0
 15 18  1  0  0  0  0
 16 19  2  0  0  0  0
 17 20  1  0  0  0  0
 17 39  1  0  0  0  0
 18 22  2  0  0  0  0
 18 23  1  0  0  0  0
 19 21  1  0  0  0  0
 19 40  1  0  0  0  0
 20 21  2  0  0  0  0
 20 41  1  0  0  0  0
 21 42  1  0  0  0  0
 22 24  1  0  0  0  0
 22 43  1  0  0  0  0
 23 25  2  0  0  0  0
 23 44  1  0  0  0  0
 24 26  2  0  0  0  0
 24 45  1  0  0  0  0
 25 26  1  0  0  0  0
 25 46  1  0  0  0  0
M  END
> <PUBCHEM_COMPOUND_CID>
75536649

> <PUBCHEM_CONFORMER_RMSD>
1

> <PUBCHEM_CONFORMER_DIVERSEORDER>
1
80
184
156
188
36
88
85
6
115
180
135
206
37
46
139
71
190
175
65
164
105
29
202
128
117
21
145
104
199
97
163
84
212
28
103
67
153
95
113
144
54
158
4
178
138
129
152
15
106
26
196
169
16
92
182
154
186
112
201
159
62
121
142
116
98
100
30
194
74
120
193
198
49
107
94
89
189
174
96
108
76
141
47
73
124
38
20
11
204
63
161
213
59
160
148
151
69
203
45
72
126
41
51
147
187
35
93
52
146
177
143
86
157
211
123
53
207
33
209
137
125
12
31
32
170
83
210
110
7
48
165
183
130
18
131
185
162
118
79
149
122
55
136
75
208
23
166
87
82
50
99
173
205
56
171
66
58
114
150
200
197
168
102
119
176
3
70
101
179
10
191
132
181
13
91
90
27
109
14
5
81
134
24
60
42
192
133
167
39
64
40
9
172
43
25
77
195
34
19
78
22
2
44
155
140
68
111
17
61
8
57
127

> <PUBCHEM_MMFF94_PARTIAL_CHARGES>
37
1 -0.19
10 0.28
11 0.28
12 0.3
13 0.41
14 -0.14
15 0.54
16 0.19
17 -0.15
18 0.09
19 -0.15
2 -0.19
20 -0.15
21 -0.15
22 -0.15
23 -0.15
24 -0.15
25 -0.15
26 0.19
3 -0.56
34 0.36
37 0.4
38 0.37
39 0.15
4 -0.68
40 0.15
41 0.15
42 0.15
43 0.15
44 0.15
45 0.15
46 0.15
5 -0.57
6 -0.9
7 -0.73
8 0.27
9 0.28

> <PUBCHEM_EFFECTIVE_ROTOR_COUNT>
8

> <PUBCHEM_PHARMACOPHORE_FEATURES>
10
1 3 acceptor
1 4 acceptor
1 4 donor
1 5 acceptor
1 6 cation
1 6 donor
1 7 donor
5 3 8 9 10 11 rings
6 14 16 17 19 20 21 rings
6 18 22 23 24 25 26 rings

> <PUBCHEM_HEAVY_ATOM_COUNT>
26

> <PUBCHEM_ATOM_DEF_STEREO_COUNT>
3

> <PUBCHEM_ATOM_UDEF_STEREO_COUNT>
0

> <PUBCHEM_BOND_DEF_STEREO_COUNT>
0

> <PUBCHEM_BOND_UDEF_STEREO_COUNT>
0

> <PUBCHEM_ISOTOPIC_ATOM_COUNT>
0

> <PUBCHEM_COMPONENT_COUNT>
1

> <PUBCHEM_CACTVS_TAUTO_COUNT>
2

> <PUBCHEM_CONFORMER_ID>
0480990900000001

> <PUBCHEM_MMFF94_ENERGY>
57.5805

> <PUBCHEM_FEATURE_SELFOVERLAP>
50.747

> <PUBCHEM_SHAPE_FINGERPRINT>
10 15 18408604768453131130
10162869 55 18339355370573828607
106641 1 18411984693378285699
11315181 36 18060140926120823889
11638347 137 17894347757605936946
11719270 70 18408889516295635334
125118 31 18335141960053616012
12592606 108 11530488847965353825
13533116 47 17202772492776317854
13914758 101 16226046669931986269
14123256 10 17275386499325853489
14216079 64 12396292656444095472
14251764 18 17822012025210921471
14347424 109 15647059291626545332
14428016 86 17846784005832961894
15131766 46 17171539976157893044
15183329 4 17489869340768508737
15849732 13 18407762542799332807
16090146 7 14333136328785976182
17093844 174 17821730529724705889
1754911 235 15410896253953385545
20105231 36 11671779390822642093
20157964 124 18272373040642609830
20554085 129 18060128839323847418
21130935 74 18336834070242593595
21150785 3 14261352457551213216
21365058 27 15626224615801036725
220451 1 14117516502784971661
221357 26 12535632661616358906
22224240 67 18202565085474836639
23035841 295 10375869658892621365
23081809 10 16343146814353202047
246663 6 10809341135405622004
24771293 8 18060708281682497545
249057 25 16878239592849855381
28498 318 11602815809023709330
34797466 226 14836405834992202080
4340502 62 17603587413440766690
5470011 282 11023825089856529008
5758199 1 17060626585923407343
59682541 35 18335984250268379496
636775 72 18339361848034396297
6394761 36 11963390743680587677
6438161 24 9799416599303146388

> <PUBCHEM_SHAPE_MULTIPOLES>
492.95
27.48
1.72
1.08
1.7
0.2
0.04
-10.06
6.15
-0.49
-0.25
-0.59
0.06
0.94

> <PUBCHEM_SHAPE_SELFOVERLAP>
1051.044

> <PUBCHEM_SHAPE_VOLUME>
274.5

> <PUBCHEM_COORDINATE_TYPE>
2
5
10

$$$$
