51136976
  -OEChem-12032416213D

 63 66  0     1  0  0  0  0  0999 V2000
   -6.5685   -0.5434    1.2460 Cl  0  0  0  0  0  0  0  0  0  0  0  0
    8.7938    2.2183    0.6524 F   0  0  0  0  0  0  0  0  0  0  0  0
    6.9076    3.0584    1.3337 F   0  0  0  0  0  0  0  0  0  0  0  0
    7.6986    1.2717    2.2747 F   0  0  0  0  0  0  0  0  0  0  0  0
   -2.7091   -1.8512    0.8975 O   0  0  0  0  0  0  0  0  0  0  0  0
   -1.1268   -3.0777   -1.3296 O   0  0  0  0  0  0  0  0  0  0  0  0
   -4.5672   -3.9611    0.8664 O   0  0  0  0  0  0  0  0  0  0  0  0
   -4.4998   -0.6595   -1.1145 O   0  0  0  0  0  0  0  0  0  0  0  0
   -6.1221    4.8303   -1.0922 O   0  0  0  0  0  0  0  0  0  0  0  0
    0.8153   -1.4130   -0.0336 N   0  0  0  0  0  0  0  0  0  0  0  0
    3.5441   -0.6280   -0.3449 N   0  0  0  0  0  0  0  0  0  0  0  0
   -2.9456    0.7671   -0.1484 N   0  0  0  0  0  0  0  0  0  0  0  0
   -0.3411   -1.9379    0.6711 C   0  0  1  0  0  0  0  0  0  0  0  0
   -1.5480   -0.9982    0.7886 C   0  0  1  0  0  0  0  0  0  0  0  0
   -0.9461   -3.1999    0.0753 C   0  0  1  0  0  0  0  0  0  0  0  0
   -2.2952   -3.2264    0.7839 C   0  0  2  0  0  0  0  0  0  0  0  0
    1.8759   -2.4250   -0.1088 C   0  0  0  0  0  0  0  0  0  0  0  0
    1.3217   -0.2074    0.6342 C   0  0  0  0  0  0  0  0  0  0  0  0
   -1.7921   -0.0496   -0.3798 C   0  0  0  0  0  0  0  0  0  0  0  0
    3.0792   -1.9036   -0.8982 C   0  0  0  0  0  0  0  0  0  0  0  0
    2.5056    0.3879   -0.1312 C   0  0  0  0  0  0  0  0  0  0  0  0
   -3.3841   -4.0209    0.0862 C   0  0  0  0  0  0  0  0  0  0  0  0
    4.8470   -0.1910   -0.6081 C   0  0  0  0  0  0  0  0  0  0  0  0
   -4.2284    0.3917   -0.5401 C   0  0  0  0  0  0  0  0  0  0  0  0
    5.5197    0.5975    0.3254 C   0  0  0  0  0  0  0  0  0  0  0  0
    5.4733   -0.5437   -1.8036 C   0  0  0  0  0  0  0  0  0  0  0  0
    6.8185    1.0334    0.0634 C   0  0  0  0  0  0  0  0  0  0  0  0
    6.7721   -0.1078   -2.0656 C   0  0  0  0  0  0  0  0  0  0  0  0
   -5.3153    1.3623   -0.2509 C   0  0  0  0  0  0  0  0  0  0  0  0
    7.4447    0.6808   -1.1322 C   0  0  0  0  0  0  0  0  0  0  0  0
    7.5371    1.8771    1.0611 C   0  0  0  0  0  0  0  0  0  0  0  0
   -5.2184    2.6402   -0.8013 C   0  0  0  0  0  0  0  0  0  0  0  0
   -6.4102    1.0272    0.5456 C   0  0  0  0  0  0  0  0  0  0  0  0
   -6.2163    3.5832   -0.5553 C   0  0  0  0  0  0  0  0  0  0  0  0
   -7.4084    1.9701    0.7916 C   0  0  0  0  0  0  0  0  0  0  0  0
   -7.3114    3.2480    0.2412 C   0  0  0  0  0  0  0  0  0  0  0  0
   -0.0477   -2.1945    1.7022 H   0  0  0  0  0  0  0  0  0  0  0  0
   -1.4831   -0.4159    1.7164 H   0  0  0  0  0  0  0  0  0  0  0  0
   -0.3661   -4.1059    0.2783 H   0  0  0  0  0  0  0  0  0  0  0  0
   -2.1754   -3.5867    1.8138 H   0  0  0  0  0  0  0  0  0  0  0  0
    1.5335   -3.3278   -0.6255 H   0  0  0  0  0  0  0  0  0  0  0  0
    2.1999   -2.7257    0.8969 H   0  0  0  0  0  0  0  0  0  0  0  0
    1.6506   -0.4548    1.6539 H   0  0  0  0  0  0  0  0  0  0  0  0
    0.5737    0.5802    0.7445 H   0  0  0  0  0  0  0  0  0  0  0  0
   -0.9685    0.6390   -0.5691 H   0  0  0  0  0  0  0  0  0  0  0  0
   -1.9631   -0.6145   -1.3026 H   0  0  0  0  0  0  0  0  0  0  0  0
    3.8723   -2.6602   -0.8478 H   0  0  0  0  0  0  0  0  0  0  0  0
    2.7990   -1.7740   -1.9516 H   0  0  0  0  0  0  0  0  0  0  0  0
    2.8862    1.2416    0.4412 H   0  0  0  0  0  0  0  0  0  0  0  0
    2.1712    0.7735   -1.1031 H   0  0  0  0  0  0  0  0  0  0  0  0
   -3.6247   -3.5943   -0.8926 H   0  0  0  0  0  0  0  0  0  0  0  0
   -3.0913   -5.0684   -0.0332 H   0  0  0  0  0  0  0  0  0  0  0  0
   -1.4129   -3.9439   -1.6658 H   0  0  0  0  0  0  0  0  0  0  0  0
   -2.8131    1.6531    0.3310 H   0  0  0  0  0  0  0  0  0  0  0  0
   -5.2451   -4.4783    0.3989 H   0  0  0  0  0  0  0  0  0  0  0  0
    5.0457    0.8665    1.2667 H   0  0  0  0  0  0  0  0  0  0  0  0
    4.9748   -1.1443   -2.5590 H   0  0  0  0  0  0  0  0  0  0  0  0
    7.2586   -0.3795   -2.9978 H   0  0  0  0  0  0  0  0  0  0  0  0
    8.4554    1.0106   -1.3560 H   0  0  0  0  0  0  0  0  0  0  0  0
   -4.3690    2.9039   -1.4276 H   0  0  0  0  0  0  0  0  0  0  0  0
   -8.2682    1.7250    1.4100 H   0  0  0  0  0  0  0  0  0  0  0  0
   -8.0919    3.9784    0.4363 H   0  0  0  0  0  0  0  0  0  0  0  0
   -5.3030    4.8886   -1.6135 H   0  0  0  0  0  0  0  0  0  0  0  0
  1 33  1  0  0  0  0
  2 31  1  0  0  0  0
  3 31  1  0  0  0  0
  4 31  1  0  0  0  0
  5 14  1  0  0  0  0
  5 16  1  0  0  0  0
  6 15  1  0  0  0  0
  6 53  1  0  0  0  0
  7 22  1  0  0  0  0
  7 55  1  0  0  0  0
  8 24  2  0  0  0  0
  9 34  1  0  0  0  0
  9 63  1  0  0  0  0
 10 13  1  0  0  0  0
 10 17  1  0  0  0  0
 10 18  1  0  0  0  0
 11 20  1  0  0  0  0
 11 21  1  0  0  0  0
 11 23  1  0  0  0  0
 12 19  1  0  0  0  0
 12 24  1  0  0  0  0
 12 54  1  0  0  0  0
 13 14  1  0  0  0  0
 13 15  1  0  0  0  0
 13 37  1  0  0  0  0
 14 19  1  0  0  0  0
 14 38  1  0  0  0  0
 15 16  1  0  0  0  0
 15 39  1  0  0  0  0
 16 22  1  0  0  0  0
 16 40  1  0  0  0  0
 17 20  1  0  0  0  0
 17 41  1  0  0  0  0
 17 42  1  0  0  0  0
 18 21  1  0  0  0  0
 18 43  1  0  0  0  0
 18 44  1  0  0  0  0
 19 45  1  0  0  0  0
 19 46  1  0  0  0  0
 20 47  1  0  0  0  0
 20 48  1  0  0  0  0
 21 49  1  0  0  0  0
 21 50  1  0  0  0  0
 22 51  1  0  0  0  0
 22 52  1  0  0  0  0
 23 25  1  0  0  0  0
 23 26  2  0  0  0  0
 24 29  1  0  0  0  0
 25 27  2  0  0  0  0
 25 56  1  0  0  0  0
 26 28  1  0  0  0  0
 26 57  1  0  0  0  0
 27 30  1  0  0  0  0
 27 31  1  0  0  0  0
 28 30  2  0  0  0  0
 28 58  1  0  0  0  0
 29 32  1  0  0  0  0
 29 33  2  0  0  0  0
 30 59  1  0  0  0  0
 32 34  2  0  0  0  0
 32 60  1  0  0  0  0
 33 35  1  0  0  0  0
 34 36  1  0  0  0  0
 35 36  2  0  0  0  0
 35 61  1  0  0  0  0
 36 62  1  0  0  0  0
M  END
> <PUBCHEM_COMPOUND_CID>
51136976

> <PUBCHEM_CONFORMER_RMSD>
1

> <PUBCHEM_CONFORMER_DIVERSEORDER>
1
136
121
41
160
55
106
84
125
169
145
52
104
47
171
172
122
20
124
13
164
129
93
162
94
115
88
83
103
146
156
161
116
6
150
81
142
65
64
163
89
137
140
10
126
107
158
12
166
70
68
139
157
37
78
132
138
120
149
79
144
19
53
135
14
111
74
168
109
123
43
9
26
92
119
134
117
32
114
118
133
152
98
80
35
71
167
154
31
48
113
16
73
108
112
173
36
170
11
86
105
95
87
148
39
110
46
143
155
128
17
33
165
127
59
159
40
72
60
58
57
76
45
34
102
67
91
141
99
44
62
24
85
61
38
28
51
100
27
77
30
29
147
69
42
2
23
96
75
50
49
56
25
7
66
90
82
22
130
101
4
15
63
3
97
131
151
8
21
18
54
153
5

> <PUBCHEM_MMFF94_PARTIAL_CHARGES>
47
1 -0.18
10 -0.81
11 -0.84
12 -0.73
13 0.27
14 0.28
15 0.28
16 0.28
17 0.27
18 0.27
19 0.3
2 -0.34
20 0.37
21 0.37
22 0.28
23 0.1
24 0.54
25 -0.15
26 -0.15
27 -0.14
28 -0.15
29 0.09
3 -0.34
30 -0.15
31 1.16
32 -0.15
33 0.18
34 0.08
35 -0.15
36 -0.15
4 -0.34
5 -0.56
53 0.4
54 0.37
55 0.4
56 0.15
57 0.15
58 0.15
59 0.15
6 -0.68
60 0.15
61 0.15
62 0.15
63 0.45
7 -0.68
8 -0.57
9 -0.53

> <PUBCHEM_EFFECTIVE_ROTOR_COUNT>
10.2

> <PUBCHEM_PHARMACOPHORE_FEATURES>
14
1 10 cation
1 11 cation
1 12 donor
1 5 acceptor
1 6 acceptor
1 6 donor
1 7 acceptor
1 7 donor
1 8 acceptor
1 9 donor
5 5 13 14 15 16 rings
6 10 11 17 18 20 21 rings
6 23 25 26 27 28 30 rings
6 29 32 33 34 35 36 rings

> <PUBCHEM_HEAVY_ATOM_COUNT>
36

> <PUBCHEM_ATOM_DEF_STEREO_COUNT>
4

> <PUBCHEM_ATOM_UDEF_STEREO_COUNT>
0

> <PUBCHEM_BOND_DEF_STEREO_COUNT>
0

> <PUBCHEM_BOND_UDEF_STEREO_COUNT>
0

> <PUBCHEM_ISOTOPIC_ATOM_COUNT>
0

> <PUBCHEM_COMPONENT_COUNT>
1

> <PUBCHEM_CACTVS_TAUTO_COUNT>
6

> <PUBCHEM_CONFORMER_ID>
030C49D000000001

> <PUBCHEM_MMFF94_ENERGY>
103.0761

> <PUBCHEM_FEATURE_SELFOVERLAP>
71.056

> <PUBCHEM_SHAPE_FINGERPRINT>
10280341 67 18335410223832607269
10369192 42 18410294675703402141
10411042 1 17903646529728416883
10835480 77 18131355228604035696
10864689 126 18341055138594445076
11007060 377 18410862066526562659
11135609 201 18335698283747699005
11411753 3 18269011885236930574
11475781 23 18344146986692656644
11621639 254 18342170120900046031
12013929 29 17551233970191152385
12539747 72 18260545627868052169
12988421 55 17530958060671992071
14294032 229 18040156197192322116
14395042 24 17895771698769096699
15183329 4 16845292688010170357
15320295 198 18129946805875901104
15328684 2 17677314113521485920
15803439 3 17274813624193986711
16126227 98 18408889516843806737
16994733 274 18187367571816718633
18608769 82 18338523036182739683
19302320 297 18113623413110471908
19304671 126 18058457495243275783
21033648 29 18335143072360084963
21424621 283 18335984177285615985
21585481 104 16056330405443339224
21756936 100 18409727366363690063
21859007 373 18412543249611532048
23522609 53 17241063105857161134
23569914 152 17411351914513357934
249057 25 17241329226078491950
3918712 181 18339917100245854704
44249763 50 18342174501028436470
44880568 143 18339648953332605644
474113 269 10881695632834494345
504579 68 13542470886418731346
563151 248 14634876352937447520
5718773 13 9367336033645138189
636775 72 18411134774758142776
6691757 9 16660359328949130706
6698420 124 18200327519805022763
9689198 14 18271529719044221965
9896288 288 18115031925659472067

> <PUBCHEM_SHAPE_MULTIPOLES>
676.62
26.13
4.98
1.38
24.14
0.65
0.02
-30.1
-2.65
-9.21
-0.16
2.18
-0.32
3.89

> <PUBCHEM_SHAPE_SELFOVERLAP>
1442.332

> <PUBCHEM_SHAPE_VOLUME>
377

> <PUBCHEM_COORDINATE_TYPE>
2
5
10

$$$$
