38028562
  -OEChem-12032416143D

 68 70  0     1  0  0  0  0  0999 V2000
   -1.7508   -2.1070    2.5812 O   0  0  0  0  0  0  0  0  0  0  0  0
    0.2387    2.1505   -2.9601 O   0  0  0  0  0  0  0  0  0  0  0  0
    2.5469    1.9652   -1.4640 O   0  0  0  0  0  0  0  0  0  0  0  0
   -0.8394    3.0816   -1.1192 N   0  0  0  0  0  0  0  0  0  0  0  0
    0.4037   -1.5513    1.9105 N   0  0  0  0  0  0  0  0  0  0  0  0
   -0.1817   -5.2746   -0.8741 N   0  0  0  0  0  0  0  0  0  0  0  0
   -2.5014    0.6212   -0.6419 C   0  0  1  0  0  0  0  0  0  0  0  0
   -3.0146    2.0829   -0.6507 C   0  0  1  0  0  0  0  0  0  0  0  0
   -3.0397   -0.1287    0.5861 C   0  0  0  0  0  0  0  0  0  0  0  0
   -2.6227    0.5430    1.9081 C   0  0  2  0  0  0  0  0  0  0  0  0
   -2.8937   -0.1271   -1.9197 C   0  0  0  0  0  0  0  0  0  0  0  0
   -2.8518    2.0404    1.8756 C   0  0  0  0  0  0  0  0  0  0  0  0
   -3.0384    2.7093    0.7238 C   0  0  0  0  0  0  0  0  0  0  0  0
   -2.1812    2.9561   -1.5955 C   0  0  0  0  0  0  0  0  0  0  0  0
   -1.1660    0.2182    2.2571 C   0  0  0  0  0  0  0  0  0  0  0  0
   -1.9308   -1.2818   -2.1771 C   0  0  0  0  0  0  0  0  0  0  0  0
   -4.3297   -0.6318   -1.8210 C   0  0  0  0  0  0  0  0  0  0  0  0
   -2.9072    2.7459    3.2020 C   0  0  0  0  0  0  0  0  0  0  0  0
   -0.9045   -1.2709    2.2768 C   0  0  0  0  0  0  0  0  0  0  0  0
    0.2757    2.6651   -1.8457 C   0  0  0  0  0  0  0  0  0  0  0  0
    0.9340   -2.8937    1.8436 C   0  0  0  0  0  0  0  0  0  0  0  0
    1.5704    2.9187   -1.1032 C   0  0  0  0  0  0  0  0  0  0  0  0
    0.7481   -3.5042    0.4846 C   0  0  0  0  0  0  0  0  0  0  0  0
    1.3008   -2.9157   -0.6475 C   0  0  0  0  0  0  0  0  0  0  0  0
    0.0219   -4.6727    0.3192 C   0  0  0  0  0  0  0  0  0  0  0  0
    3.4858    1.6384   -0.5142 C   0  0  0  0  0  0  0  0  0  0  0  0
    1.1131   -3.5052   -1.8927 C   0  0  0  0  0  0  0  0  0  0  0  0
    3.8732    2.5819    0.4371 C   0  0  0  0  0  0  0  0  0  0  0  0
    4.0508    0.3632   -0.5021 C   0  0  0  0  0  0  0  0  0  0  0  0
    0.3707   -4.6736   -1.9518 C   0  0  0  0  0  0  0  0  0  0  0  0
    4.8258    2.2503    1.4007 C   0  0  0  0  0  0  0  0  0  0  0  0
    5.0033    0.0315    0.4614 C   0  0  0  0  0  0  0  0  0  0  0  0
    5.3908    0.9751    1.4128 C   0  0  0  0  0  0  0  0  0  0  0  0
   -1.4067    0.6302   -0.5713 H   0  0  0  0  0  0  0  0  0  0  0  0
   -4.0495    2.1059   -1.0146 H   0  0  0  0  0  0  0  0  0  0  0  0
   -2.7583   -1.1838    0.5582 H   0  0  0  0  0  0  0  0  0  0  0  0
   -4.1380   -0.1115    0.5883 H   0  0  0  0  0  0  0  0  0  0  0  0
   -3.2669    0.1167    2.6901 H   0  0  0  0  0  0  0  0  0  0  0  0
   -2.8271    0.5375   -2.7872 H   0  0  0  0  0  0  0  0  0  0  0  0
   -3.2458    3.7769    0.7639 H   0  0  0  0  0  0  0  0  0  0  0  0
   -2.5956    3.9707   -1.6361 H   0  0  0  0  0  0  0  0  0  0  0  0
   -2.1904    2.5747   -2.6202 H   0  0  0  0  0  0  0  0  0  0  0  0
   -0.9167    0.5937    3.2571 H   0  0  0  0  0  0  0  0  0  0  0  0
   -0.4857    0.7143    1.5540 H   0  0  0  0  0  0  0  0  0  0  0  0
   -1.9508   -2.0261   -1.3754 H   0  0  0  0  0  0  0  0  0  0  0  0
   -0.9032   -0.9167   -2.2780 H   0  0  0  0  0  0  0  0  0  0  0  0
   -2.1894   -1.7959   -3.1093 H   0  0  0  0  0  0  0  0  0  0  0  0
   -4.4423   -1.4807   -1.1384 H   0  0  0  0  0  0  0  0  0  0  0  0
   -4.6505   -0.9970   -2.8046 H   0  0  0  0  0  0  0  0  0  0  0  0
   -5.0359    0.1546   -1.5390 H   0  0  0  0  0  0  0  0  0  0  0  0
   -3.6711    2.2925    3.8420 H   0  0  0  0  0  0  0  0  0  0  0  0
   -3.1553    3.8072    3.0947 H   0  0  0  0  0  0  0  0  0  0  0  0
   -1.9420    2.6842    3.7135 H   0  0  0  0  0  0  0  0  0  0  0  0
   -0.6934    3.5594   -0.2347 H   0  0  0  0  0  0  0  0  0  0  0  0
    1.0316   -0.7894    1.6711 H   0  0  0  0  0  0  0  0  0  0  0  0
    0.4530   -3.5027    2.6174 H   0  0  0  0  0  0  0  0  0  0  0  0
    2.0027   -2.8426    2.0798 H   0  0  0  0  0  0  0  0  0  0  0  0
    1.9174    3.9234   -1.3696 H   0  0  0  0  0  0  0  0  0  0  0  0
    1.3483    2.8790   -0.0288 H   0  0  0  0  0  0  0  0  0  0  0  0
    1.8790   -1.9998   -0.5721 H   0  0  0  0  0  0  0  0  0  0  0  0
   -0.4352   -5.1798    1.1632 H   0  0  0  0  0  0  0  0  0  0  0  0
    1.5338   -3.0632   -2.7886 H   0  0  0  0  0  0  0  0  0  0  0  0
    3.4782    3.5934    0.4444 H   0  0  0  0  0  0  0  0  0  0  0  0
    3.7550   -0.3745   -1.2428 H   0  0  0  0  0  0  0  0  0  0  0  0
    0.1947   -5.1721   -2.8992 H   0  0  0  0  0  0  0  0  0  0  0  0
    5.1326    2.9867    2.1378 H   0  0  0  0  0  0  0  0  0  0  0  0
    5.4434   -0.9613    0.4705 H   0  0  0  0  0  0  0  0  0  0  0  0
    6.1336    0.7173    2.1622 H   0  0  0  0  0  0  0  0  0  0  0  0
  1 19  2  0  0  0  0
  2 20  2  0  0  0  0
  3 22  1  0  0  0  0
  3 26  1  0  0  0  0
  4 14  1  0  0  0  0
  4 20  1  0  0  0  0
  4 54  1  0  0  0  0
  5 19  1  0  0  0  0
  5 21  1  0  0  0  0
  5 55  1  0  0  0  0
  6 25  1  0  0  0  0
  6 30  2  0  0  0  0
  7  8  1  0  0  0  0
  7  9  1  0  0  0  0
  7 11  1  0  0  0  0
  7 34  1  0  0  0  0
  8 13  1  0  0  0  0
  8 14  1  0  0  0  0
  8 35  1  0  0  0  0
  9 10  1  0  0  0  0
  9 36  1  0  0  0  0
  9 37  1  0  0  0  0
 10 12  1  0  0  0  0
 10 15  1  0  0  0  0
 10 38  1  0  0  0  0
 11 16  1  0  0  0  0
 11 17  1  0  0  0  0
 11 39  1  0  0  0  0
 12 13  2  0  0  0  0
 12 18  1  0  0  0  0
 13 40  1  0  0  0  0
 14 41  1  0  0  0  0
 14 42  1  0  0  0  0
 15 19  1  0  0  0  0
 15 43  1  0  0  0  0
 15 44  1  0  0  0  0
 16 45  1  0  0  0  0
 16 46  1  0  0  0  0
 16 47  1  0  0  0  0
 17 48  1  0  0  0  0
 17 49  1  0  0  0  0
 17 50  1  0  0  0  0
 18 51  1  0  0  0  0
 18 52  1  0  0  0  0
 18 53  1  0  0  0  0
 20 22  1  0  0  0  0
 21 23  1  0  0  0  0
 21 56  1  0  0  0  0
 21 57  1  0  0  0  0
 22 58  1  0  0  0  0
 22 59  1  0  0  0  0
 23 24  1  0  0  0  0
 23 25  2  0  0  0  0
 24 27  2  0  0  0  0
 24 60  1  0  0  0  0
 25 61  1  0  0  0  0
 26 28  2  0  0  0  0
 26 29  1  0  0  0  0
 27 30  1  0  0  0  0
 27 62  1  0  0  0  0
 28 31  1  0  0  0  0
 28 63  1  0  0  0  0
 29 32  2  0  0  0  0
 29 64  1  0  0  0  0
 30 65  1  0  0  0  0
 31 33  2  0  0  0  0
 31 66  1  0  0  0  0
 32 33  1  0  0  0  0
 32 67  1  0  0  0  0
 33 68  1  0  0  0  0
M  END
> <PUBCHEM_COMPOUND_CID>
38028562

> <PUBCHEM_CONFORMER_RMSD>
1.2

> <PUBCHEM_CONFORMER_DIVERSEORDER>
1
52
38
103
96
50
8
37
11
60
21
101
16
49
31
86
43
104
84
110
44
100
51
108
77
18
58
69
109
5
97
64
53
105
95
88
107
67
93
34
79
70
36
41
48
40
80
42
9
10
99
62
75
91
46
17
19
47
73
39
102
59
63
6
74
94
92
68
35
26
65
45
7
54
2
30
25
61
14
29
28
98
106
87
76
71
82
24
33
72
22
20
4
27
90
89
15
85
78
32
13
83
56
3
12
66
57
81
23
55

> <PUBCHEM_MMFF94_PARTIAL_CHARGES>
40
1 -0.57
10 0.14
12 -0.28
13 -0.29
14 0.3
15 0.06
18 0.14
19 0.57
2 -0.57
20 0.57
21 0.44
22 0.34
23 -0.14
24 -0.15
25 0.16
26 0.08
27 -0.15
28 -0.15
29 -0.15
3 -0.36
30 0.16
31 -0.15
32 -0.15
33 -0.15
4 -0.73
40 0.15
5 -0.73
54 0.37
55 0.37
6 -0.62
60 0.15
61 0.15
62 0.15
63 0.15
64 0.15
65 0.15
66 0.15
67 0.15
68 0.15
8 0.14

> <PUBCHEM_EFFECTIVE_ROTOR_COUNT>
12.8

> <PUBCHEM_PHARMACOPHORE_FEATURES>
10
1 1 acceptor
1 2 acceptor
1 3 acceptor
1 4 donor
1 5 donor
1 6 acceptor
3 11 16 17 hydrophobe
6 26 28 29 31 32 33 rings
6 6 23 24 25 27 30 rings
6 7 8 9 10 12 13 rings

> <PUBCHEM_HEAVY_ATOM_COUNT>
33

> <PUBCHEM_ATOM_DEF_STEREO_COUNT>
3

> <PUBCHEM_ATOM_UDEF_STEREO_COUNT>
0

> <PUBCHEM_BOND_DEF_STEREO_COUNT>
0

> <PUBCHEM_BOND_UDEF_STEREO_COUNT>
0

> <PUBCHEM_ISOTOPIC_ATOM_COUNT>
0

> <PUBCHEM_COMPONENT_COUNT>
1

> <PUBCHEM_CACTVS_TAUTO_COUNT>
4

> <PUBCHEM_CONFORMER_ID>
0244451200000001

> <PUBCHEM_MMFF94_ENERGY>
77.0491

> <PUBCHEM_FEATURE_SELFOVERLAP>
50.752

> <PUBCHEM_SHAPE_FINGERPRINT>
10032420 55 17489011760548903688
11427363 43 17545018855754025158
12156800 1 16894491675524012896
12422481 6 17534367783831749035
13165053 137 18044632262001460810
14251757 17 15513031276268884462
15664445 248 17756961460528009279
16120349 306 18339906156879362252
20764821 26 17897472569208698182
238918 7 18262236595801333080
25265897 201 17184716140582604797
27425 322 17560817540380084313
3027735 51 18041823039883396917
3493558 16 18195796582463640566
35225 105 17196338339202114198
469060 322 14762677116386987464
5081480 168 17477778874733618738
57527452 28 18265317586106384045

> <PUBCHEM_SHAPE_MULTIPOLES>
646.57
7.94
6.72
3.19
8.15
8.72
-0.79
-7.63
-1.58
2.07
1.8
-2.28
-0.46
-0.49

> <PUBCHEM_SHAPE_SELFOVERLAP>
1347.195

> <PUBCHEM_SHAPE_VOLUME>
363.8

> <PUBCHEM_COORDINATE_TYPE>
2
5
10

$$$$
