40776957
  -OEChem-12032416333D

 70 73  0     1  0  0  0  0  0999 V2000
    4.8037   -1.7191   -0.2809 S   0  0  0  0  0  0  0  0  0  0  0  0
    3.5175   -0.1948    2.1431 O   0  0  0  0  0  0  0  0  0  0  0  0
    1.5946   -2.1435   -2.4174 O   0  0  0  0  0  0  0  0  0  0  0  0
    3.5652   -3.2750   -2.4622 O   0  0  0  0  0  0  0  0  0  0  0  0
    0.7409    4.0678    0.7179 N   0  0  2  0  0  0  0  0  0  0  0  0
    3.6129    1.6425    0.7197 N   0  0  0  0  0  0  0  0  0  0  0  0
   -0.8596    0.3090    0.1850 N   0  0  0  0  0  0  0  0  0  0  0  0
   -2.7455   -1.1893    0.2643 N   0  0  0  0  0  0  0  0  0  0  0  0
    1.1597   -4.1156    1.2768 N   0  0  0  0  0  0  0  0  0  0  0  0
   -0.0703    2.8779   -1.4521 C   0  0  2  0  0  0  0  0  0  0  0  0
   -1.1067    2.6911   -0.3097 C   0  0  2  0  0  0  0  0  0  0  0  0
    1.8259    3.2100    0.1727 C   0  0  2  0  0  0  0  0  0  0  0  0
    1.3007    2.3406   -0.9900 C   0  0  0  0  0  0  0  0  0  0  0  0
    0.0872    4.3986   -1.6661 C   0  0  0  0  0  0  0  0  0  0  0  0
   -0.4654    3.2480    0.9934 C   0  0  0  0  0  0  0  0  0  0  0  0
    0.3921    5.0713   -0.3162 C   0  0  0  0  0  0  0  0  0  0  0  0
    2.5015    2.3661    1.2556 C   0  0  0  0  0  0  0  0  0  0  0  0
   -1.7146    1.3102   -0.1095 C   0  0  0  0  0  0  0  0  0  0  0  0
   -3.0788    1.1423   -0.2322 C   0  0  0  0  0  0  0  0  0  0  0  0
   -3.5427   -0.1420   -0.0328 C   0  0  0  0  0  0  0  0  0  0  0  0
   -5.0040   -0.4205   -0.1443 C   0  0  0  0  0  0  0  0  0  0  0  0
   -1.4342   -0.8968    0.3566 C   0  0  0  0  0  0  0  0  0  0  0  0
    4.0393    0.4088    1.2073 C   0  0  0  0  0  0  0  0  0  0  0  0
   -5.3483   -1.4253   -1.2827 C   0  0  0  0  0  0  0  0  0  0  0  0
   -5.6294   -0.9406    1.1834 C   0  0  0  0  0  0  0  0  0  0  0  0
   -0.5521   -1.9907    0.6696 C   0  0  0  0  0  0  0  0  0  0  0  0
    5.2458   -0.1401    0.4825 C   0  0  0  0  0  0  0  0  0  0  0  0
   -4.9251   -0.9269   -2.6597 C   0  0  0  0  0  0  0  0  0  0  0  0
   -5.4936    0.0537    2.3307 C   0  0  0  0  0  0  0  0  0  0  0  0
    0.6253   -1.7597    1.3724 C   0  0  0  0  0  0  0  0  0  0  0  0
   -0.8746   -3.2830    0.2700 C   0  0  0  0  0  0  0  0  0  0  0  0
    1.4396   -2.8463    1.6484 C   0  0  0  0  0  0  0  0  0  0  0  0
    0.0068   -4.3013    0.5955 C   0  0  0  0  0  0  0  0  0  0  0  0
    3.4733   -1.1347   -1.3574 C   0  0  0  0  0  0  0  0  0  0  0  0
    2.9130   -2.2926   -2.1321 C   0  0  0  0  0  0  0  0  0  0  0  0
   -0.3941    2.3826   -2.3736 H   0  0  0  0  0  0  0  0  0  0  0  0
   -1.9458    3.3605   -0.5546 H   0  0  0  0  0  0  0  0  0  0  0  0
    2.6064    3.8746   -0.2273 H   0  0  0  0  0  0  0  0  0  0  0  0
    1.2270    1.2856   -0.7145 H   0  0  0  0  0  0  0  0  0  0  0  0
    2.0098    2.3933   -1.8261 H   0  0  0  0  0  0  0  0  0  0  0  0
   -0.8286    4.8222   -2.0948 H   0  0  0  0  0  0  0  0  0  0  0  0
    0.8986    4.5928   -2.3780 H   0  0  0  0  0  0  0  0  0  0  0  0
   -1.2053    3.8699    1.5154 H   0  0  0  0  0  0  0  0  0  0  0  0
   -0.2268    2.4520    1.7078 H   0  0  0  0  0  0  0  0  0  0  0  0
    1.2135    5.7886   -0.4346 H   0  0  0  0  0  0  0  0  0  0  0  0
   -0.4695    5.6641    0.0167 H   0  0  0  0  0  0  0  0  0  0  0  0
    1.8080    1.6569    1.7181 H   0  0  0  0  0  0  0  0  0  0  0  0
    2.8921    3.0095    2.0524 H   0  0  0  0  0  0  0  0  0  0  0  0
   -3.7426    1.9645   -0.4692 H   0  0  0  0  0  0  0  0  0  0  0  0
    4.1673    2.0969   -0.0002 H   0  0  0  0  0  0  0  0  0  0  0  0
   -5.5293    0.5143   -0.3879 H   0  0  0  0  0  0  0  0  0  0  0  0
   -4.8730   -2.3953   -1.0913 H   0  0  0  0  0  0  0  0  0  0  0  0
   -6.4315   -1.5982   -1.2970 H   0  0  0  0  0  0  0  0  0  0  0  0
   -6.6963   -1.1414    1.0263 H   0  0  0  0  0  0  0  0  0  0  0  0
   -5.1659   -1.8908    1.4762 H   0  0  0  0  0  0  0  0  0  0  0  0
    6.0454   -0.2973    1.2127 H   0  0  0  0  0  0  0  0  0  0  0  0
    5.6192    0.5474   -0.2817 H   0  0  0  0  0  0  0  0  0  0  0  0
   -5.3689    0.0498   -2.8770 H   0  0  0  0  0  0  0  0  0  0  0  0
   -3.8373   -0.8397   -2.7400 H   0  0  0  0  0  0  0  0  0  0  0  0
   -5.2588   -1.6291   -3.4304 H   0  0  0  0  0  0  0  0  0  0  0  0
   -4.4465    0.2111    2.6061 H   0  0  0  0  0  0  0  0  0  0  0  0
   -5.9323    1.0209    2.0657 H   0  0  0  0  0  0  0  0  0  0  0  0
   -6.0159   -0.3232    3.2160 H   0  0  0  0  0  0  0  0  0  0  0  0
    0.9123   -0.7731    1.7185 H   0  0  0  0  0  0  0  0  0  0  0  0
   -1.7753   -3.5168   -0.2884 H   0  0  0  0  0  0  0  0  0  0  0  0
    2.3651   -2.7239    2.2004 H   0  0  0  0  0  0  0  0  0  0  0  0
   -0.1971   -5.3265    0.3046 H   0  0  0  0  0  0  0  0  0  0  0  0
    3.8421   -0.3859   -2.0635 H   0  0  0  0  0  0  0  0  0  0  0  0
    2.6690   -0.7136   -0.7503 H   0  0  0  0  0  0  0  0  0  0  0  0
    1.2379   -2.9110   -2.9135 H   0  0  0  0  0  0  0  0  0  0  0  0
  1 27  1  0  0  0  0
  1 34  1  0  0  0  0
  2 23  2  0  0  0  0
  3 35  1  0  0  0  0
  3 70  1  0  0  0  0
  4 35  2  0  0  0  0
  5 12  1  0  0  0  0
  5 15  1  0  0  0  0
  5 16  1  0  0  0  0
  6 17  1  0  0  0  0
  6 23  1  0  0  0  0
  6 50  1  0  0  0  0
  7 18  2  0  0  0  0
  7 22  1  0  0  0  0
  8 20  1  0  0  0  0
  8 22  2  0  0  0  0
  9 32  2  0  0  0  0
  9 33  1  0  0  0  0
 10 11  1  0  0  0  0
 10 13  1  0  0  0  0
 10 14  1  0  0  0  0
 10 36  1  0  0  0  0
 11 15  1  0  0  0  0
 11 18  1  0  0  0  0
 11 37  1  0  0  0  0
 12 13  1  0  0  0  0
 12 17  1  0  0  0  0
 12 38  1  0  0  0  0
 13 39  1  0  0  0  0
 13 40  1  0  0  0  0
 14 16  1  0  0  0  0
 14 41  1  0  0  0  0
 14 42  1  0  0  0  0
 15 43  1  0  0  0  0
 15 44  1  0  0  0  0
 16 45  1  0  0  0  0
 16 46  1  0  0  0  0
 17 47  1  0  0  0  0
 17 48  1  0  0  0  0
 18 19  1  0  0  0  0
 19 20  2  0  0  0  0
 19 49  1  0  0  0  0
 20 21  1  0  0  0  0
 21 24  1  0  0  0  0
 21 25  1  0  0  0  0
 21 51  1  0  0  0  0
 22 26  1  0  0  0  0
 23 27  1  0  0  0  0
 24 28  1  0  0  0  0
 24 52  1  0  0  0  0
 24 53  1  0  0  0  0
 25 29  1  0  0  0  0
 25 54  1  0  0  0  0
 25 55  1  0  0  0  0
 26 30  2  0  0  0  0
 26 31  1  0  0  0  0
 27 56  1  0  0  0  0
 27 57  1  0  0  0  0
 28 58  1  0  0  0  0
 28 59  1  0  0  0  0
 28 60  1  0  0  0  0
 29 61  1  0  0  0  0
 29 62  1  0  0  0  0
 29 63  1  0  0  0  0
 30 32  1  0  0  0  0
 30 64  1  0  0  0  0
 31 33  2  0  0  0  0
 31 65  1  0  0  0  0
 32 66  1  0  0  0  0
 33 67  1  0  0  0  0
 34 35  1  0  0  0  0
 34 68  1  0  0  0  0
 34 69  1  0  0  0  0
M  END
> <PUBCHEM_COMPOUND_CID>
40776957

> <PUBCHEM_CONFORMER_RMSD>
1.2

> <PUBCHEM_CONFORMER_DIVERSEORDER>
1
41
20
32
43
33
21
26
31
15
48
12
45
44
28
16
10
30
19
23
29
42
27
35
46
14
40
9
4
11
36
6
3
22
25
38
24
13
8
7
2
18
39
37
34
47
5
17

> <PUBCHEM_MMFF94_PARTIAL_CHARGES>
34
1 -0.46
11 0.14
12 0.27
15 0.27
16 0.27
17 0.3
18 0.17
19 -0.15
2 -0.57
20 0.17
21 0.14
22 0.62
23 0.57
27 0.29
3 -0.65
30 -0.15
31 -0.15
32 0.16
33 0.16
34 0.29
35 0.66
4 -0.57
49 0.15
5 -0.81
50 0.37
6 -0.73
64 0.15
65 0.15
66 0.15
67 0.15
7 -0.62
70 0.5
8 -0.62
9 -0.62

> <PUBCHEM_EFFECTIVE_ROTOR_COUNT>
13.2

> <PUBCHEM_PHARMACOPHORE_FEATURES>
14
1 2 acceptor
1 28 hydrophobe
1 29 hydrophobe
1 3 acceptor
1 4 acceptor
1 5 cation
1 6 donor
1 7 acceptor
1 9 acceptor
3 3 4 35 anion
3 7 8 22 cation
6 7 8 18 19 20 22 rings
6 9 26 30 31 32 33 rings
8 5 10 11 12 13 14 15 16 rings

> <PUBCHEM_HEAVY_ATOM_COUNT>
35

> <PUBCHEM_ATOM_DEF_STEREO_COUNT>
3

> <PUBCHEM_ATOM_UDEF_STEREO_COUNT>
0

> <PUBCHEM_BOND_DEF_STEREO_COUNT>
0

> <PUBCHEM_BOND_UDEF_STEREO_COUNT>
0

> <PUBCHEM_ISOTOPIC_ATOM_COUNT>
0

> <PUBCHEM_COMPONENT_COUNT>
1

> <PUBCHEM_CACTVS_TAUTO_COUNT>
6

> <PUBCHEM_CONFORMER_ID>
026E34FD00000001

> <PUBCHEM_MMFF94_ENERGY>
80.1843

> <PUBCHEM_FEATURE_SELFOVERLAP>
71.104

> <PUBCHEM_SHAPE_FINGERPRINT>
10190108 129 17978264606624707683
1100329 8 18263922322788051203
11513181 2 18060708272817808165
11828532 37 18188214302759491547
12160290 23 17405142929590848089
12788726 201 17688871939440271957
13140716 1 18118971536446051075
13402501 40 18341894070103058578
1361 2 18058721550049015470
13642711 20 18047436081028741639
14725015 67 18339067204175090704
14955137 171 18334869332999224691
15003188 3 18341628026543019762
15328829 1 18060411444614876091
19319366 153 17385997421358101954
20101258 96 17904206932201060411
20764821 26 18337394812460901020
20905425 154 18121769544124675848
21860390 5 18267862959766892158
23559900 14 18196103363176032124
3493558 16 17560256746653057235
35225 105 18044069312579859862
460360 51 17899984030156031931
469060 322 17827107037587937416
56611832 30 18198320915517293791

> <PUBCHEM_SHAPE_MULTIPOLES>
681.62
10.03
6.47
2.17
7.62
3.83
0.88
-5.33
-0.07
-3.77
0.6
0.14
-1.08
1.05

> <PUBCHEM_SHAPE_SELFOVERLAP>
1421.997

> <PUBCHEM_SHAPE_VOLUME>
388.9

> <PUBCHEM_COORDINATE_TYPE>
2
5
10

$$$$
