7144220
  -OEChem-12032416113D

 55 58  0     1  0  0  0  0  0999 V2000
    6.2954   -0.8697    0.0114 S   0  0  0  0  0  0  0  0  0  0  0  0
   -3.0788    2.5841    1.5716 O   0  0  0  0  0  0  0  0  0  0  0  0
   -3.4264   -2.4893   -1.1045 O   0  0  0  0  0  0  0  0  0  0  0  0
   -1.7299   -0.9930   -1.6333 N   0  0  0  0  0  0  0  0  0  0  0  0
   -1.5360    1.7041    0.0447 N   0  0  0  0  0  0  0  0  0  0  0  0
   -2.6648   -2.7018    1.3860 N   0  0  0  0  0  0  0  0  0  0  0  0
   -2.1482    1.3338   -2.4170 C   0  0  1  0  0  0  0  0  0  0  0  0
    0.0849    0.7108   -1.6007 C   0  0  2  0  0  0  0  0  0  0  0  0
   -0.6591    1.5158   -2.6648 C   0  0  0  0  0  0  0  0  0  0  0  0
   -2.5404   -0.1499   -2.5119 C   0  0  0  0  0  0  0  0  0  0  0  0
   -2.4895    1.9290   -1.0504 C   0  0  0  0  0  0  0  0  0  0  0  0
   -0.2801   -0.7823   -1.7380 C   0  0  0  0  0  0  0  0  0  0  0  0
   -0.2383    1.2069   -0.1886 C   0  0  0  0  0  0  0  0  0  0  0  0
    0.6603    1.1575    0.8292 C   0  0  0  0  0  0  0  0  0  0  0  0
   -1.9636    2.1297    1.3150 C   0  0  0  0  0  0  0  0  0  0  0  0
   -2.3483   -1.9540   -0.8339 C   0  0  0  0  0  0  0  0  0  0  0  0
    0.2537    1.5849    2.1545 C   0  0  0  0  0  0  0  0  0  0  0  0
   -0.9752    2.0313    2.4128 C   0  0  0  0  0  0  0  0  0  0  0  0
    2.0394    0.6614    0.6283 C   0  0  0  0  0  0  0  0  0  0  0  0
   -1.6351   -2.3353    0.4385 C   0  0  0  0  0  0  0  0  0  0  0  0
    2.3153   -0.6935    0.7837 C   0  0  0  0  0  0  0  0  0  0  0  0
    3.0513    1.5530    0.2857 C   0  0  0  0  0  0  0  0  0  0  0  0
    3.6157   -1.1614    0.5948 C   0  0  0  0  0  0  0  0  0  0  0  0
    4.3517    1.0851    0.0966 C   0  0  0  0  0  0  0  0  0  0  0  0
   -3.5795   -1.5798    1.6306 C   0  0  0  0  0  0  0  0  0  0  0  0
   -2.0782   -3.1516    2.6545 C   0  0  0  0  0  0  0  0  0  0  0  0
    4.6339   -0.2721    0.2513 C   0  0  0  0  0  0  0  0  0  0  0  0
    6.0699   -2.0533   -1.3462 C   0  0  0  0  0  0  0  0  0  0  0  0
   -2.7181    1.8758   -3.1819 H   0  0  0  0  0  0  0  0  0  0  0  0
    1.1542    0.8210   -1.8130 H   0  0  0  0  0  0  0  0  0  0  0  0
   -0.3828    2.5764   -2.6140 H   0  0  0  0  0  0  0  0  0  0  0  0
   -0.3927    1.1626   -3.6686 H   0  0  0  0  0  0  0  0  0  0  0  0
   -3.6037   -0.2785   -2.2797 H   0  0  0  0  0  0  0  0  0  0  0  0
   -2.3850   -0.5142   -3.5348 H   0  0  0  0  0  0  0  0  0  0  0  0
   -2.5640    3.0205   -1.1546 H   0  0  0  0  0  0  0  0  0  0  0  0
   -3.4820    1.5917   -0.7253 H   0  0  0  0  0  0  0  0  0  0  0  0
    0.0150   -1.1434   -2.7315 H   0  0  0  0  0  0  0  0  0  0  0  0
    0.2520   -1.4067   -1.0185 H   0  0  0  0  0  0  0  0  0  0  0  0
    0.9796    1.5225    2.9600 H   0  0  0  0  0  0  0  0  0  0  0  0
   -1.2722    2.3425    3.4071 H   0  0  0  0  0  0  0  0  0  0  0  0
   -1.0303   -1.5058    0.8161 H   0  0  0  0  0  0  0  0  0  0  0  0
   -0.9790   -3.1830    0.2117 H   0  0  0  0  0  0  0  0  0  0  0  0
    1.5362   -1.3980    1.0630 H   0  0  0  0  0  0  0  0  0  0  0  0
    2.8457    2.6132    0.1613 H   0  0  0  0  0  0  0  0  0  0  0  0
    3.8137   -2.2217    0.7300 H   0  0  0  0  0  0  0  0  0  0  0  0
    5.1321    1.7932   -0.1711 H   0  0  0  0  0  0  0  0  0  0  0  0
   -4.1632   -1.2701    0.7596 H   0  0  0  0  0  0  0  0  0  0  0  0
   -3.0480   -0.7008    2.0140 H   0  0  0  0  0  0  0  0  0  0  0  0
   -4.3243   -1.8669    2.3830 H   0  0  0  0  0  0  0  0  0  0  0  0
   -2.8613   -3.4820    3.3457 H   0  0  0  0  0  0  0  0  0  0  0  0
   -1.4945   -2.3618    3.1414 H   0  0  0  0  0  0  0  0  0  0  0  0
   -1.4220   -4.0130    2.4874 H   0  0  0  0  0  0  0  0  0  0  0  0
    5.5948   -1.5650   -2.2014 H   0  0  0  0  0  0  0  0  0  0  0  0
    5.4582   -2.9001   -1.0246 H   0  0  0  0  0  0  0  0  0  0  0  0
    7.0474   -2.4306   -1.6578 H   0  0  0  0  0  0  0  0  0  0  0  0
  1 27  1  0  0  0  0
  1 28  1  0  0  0  0
  2 15  2  0  0  0  0
  3 16  2  0  0  0  0
  4 10  1  0  0  0  0
  4 12  1  0  0  0  0
  4 16  1  0  0  0  0
  5 11  1  0  0  0  0
  5 13  1  0  0  0  0
  5 15  1  0  0  0  0
  6 20  1  0  0  0  0
  6 25  1  0  0  0  0
  6 26  1  0  0  0  0
  7  9  1  0  0  0  0
  7 10  1  0  0  0  0
  7 11  1  0  0  0  0
  7 29  1  0  0  0  0
  8  9  1  0  0  0  0
  8 12  1  0  0  0  0
  8 13  1  0  0  0  0
  8 30  1  0  0  0  0
  9 31  1  0  0  0  0
  9 32  1  0  0  0  0
 10 33  1  0  0  0  0
 10 34  1  0  0  0  0
 11 35  1  0  0  0  0
 11 36  1  0  0  0  0
 12 37  1  0  0  0  0
 12 38  1  0  0  0  0
 13 14  2  0  0  0  0
 14 17  1  0  0  0  0
 14 19  1  0  0  0  0
 15 18  1  0  0  0  0
 16 20  1  0  0  0  0
 17 18  2  0  0  0  0
 17 39  1  0  0  0  0
 18 40  1  0  0  0  0
 19 21  2  0  0  0  0
 19 22  1  0  0  0  0
 20 41  1  0  0  0  0
 20 42  1  0  0  0  0
 21 23  1  0  0  0  0
 21 43  1  0  0  0  0
 22 24  2  0  0  0  0
 22 44  1  0  0  0  0
 23 27  2  0  0  0  0
 23 45  1  0  0  0  0
 24 27  1  0  0  0  0
 24 46  1  0  0  0  0
 25 47  1  0  0  0  0
 25 48  1  0  0  0  0
 25 49  1  0  0  0  0
 26 50  1  0  0  0  0
 26 51  1  0  0  0  0
 26 52  1  0  0  0  0
 28 53  1  0  0  0  0
 28 54  1  0  0  0  0
 28 55  1  0  0  0  0
M  END
> <PUBCHEM_COMPOUND_CID>
7144220

> <PUBCHEM_CONFORMER_RMSD>
0.8

> <PUBCHEM_CONFORMER_DIVERSEORDER>
1
6
5
3
4
2

> <PUBCHEM_MMFF94_PARTIAL_CHARGES>
32
1 -0.33
10 0.3
11 0.3
12 0.3
13 -0.03
14 -0.03
15 0.62
16 0.57
17 -0.15
18 -0.14
19 0.03
2 -0.57
20 0.33
21 -0.15
22 -0.15
23 -0.15
24 -0.15
25 0.27
26 0.27
27 0.1
28 0.23
3 -0.57
39 0.15
4 -0.66
40 0.15
43 0.15
44 0.15
45 0.15
46 0.15
5 -0.47
6 -0.81
8 0.14

> <PUBCHEM_EFFECTIVE_ROTOR_COUNT>
6

> <PUBCHEM_PHARMACOPHORE_FEATURES>
8
1 2 acceptor
1 28 hydrophobe
1 3 acceptor
1 6 cation
6 19 21 22 23 24 27 rings
6 4 7 8 9 10 12 rings
6 5 13 14 15 17 18 rings
6 5 7 8 9 11 13 rings

> <PUBCHEM_HEAVY_ATOM_COUNT>
28

> <PUBCHEM_ATOM_DEF_STEREO_COUNT>
2

> <PUBCHEM_ATOM_UDEF_STEREO_COUNT>
0

> <PUBCHEM_BOND_DEF_STEREO_COUNT>
0

> <PUBCHEM_BOND_UDEF_STEREO_COUNT>
0

> <PUBCHEM_ISOTOPIC_ATOM_COUNT>
0

> <PUBCHEM_COMPONENT_COUNT>
1

> <PUBCHEM_CACTVS_TAUTO_COUNT>
1

> <PUBCHEM_CONFORMER_ID>
006D031C00000001

> <PUBCHEM_MMFF94_ENERGY>
88.159

> <PUBCHEM_FEATURE_SELFOVERLAP>
42.161

> <PUBCHEM_SHAPE_FINGERPRINT>
107951 10 17970049081190463591
11578080 2 15881561675146391133
11725454 13 10375054954592871543
121448 382 14924486641972868040
12156800 1 17833319377232415891
12633257 1 17058673938997627067
12788726 201 17487600958028168657
131258 38 15046071930510275743
13135754 10 18267049234925641514
13911987 19 17335875251682984976
14251740 79 18336255778053632314
20101258 96 17703503381042128112
20775530 9 17607529329787560731
23598288 3 17775570840456150600
23728640 28 17059765620704921108
3027735 51 18259978262794518474
35225 105 18269286672684868675
394222 165 17261011240082414445
4058900 60 17758962515133689693
4340502 62 18124893269935083985
460360 51 15841002061813956956
469060 322 17240779383937834034
484985 159 18201715124416464214
4921388 177 18113611279499935974
497634 4 18261690237301431300
58260988 114 18263662726670347258
70251023 43 17557395946119800871
9981440 41 16915940660727987484

> <PUBCHEM_SHAPE_MULTIPOLES>
553.39
9.11
3.33
2.79
18.72
1.95
0.26
4.82
1.25
-3.47
-1.36
-2.7
-0.5
1.19

> <PUBCHEM_SHAPE_SELFOVERLAP>
1175.468

> <PUBCHEM_SHAPE_VOLUME>
311.9

> <PUBCHEM_COORDINATE_TYPE>
2
5
10

$$$$
