26745395
  -OEChem-12032416183D

 61 65  0     1  0  0  0  0  0999 V2000
    8.3542    2.6010    0.2539 Cl  0  0  0  0  0  0  0  0  0  0  0  0
    1.1130    1.2854    1.3035 O   0  0  0  0  0  0  0  0  0  0  0  0
   -0.9113    0.9833    0.2044 N   0  0  0  0  0  0  0  0  0  0  0  0
    2.4198   -0.4752   -0.2364 N   0  0  1  0  0  0  0  0  0  0  0  0
    3.0022   -4.1752   -0.2213 N   0  0  0  0  0  0  0  0  0  0  0  0
    1.1241   -4.2563    0.9897 N   0  0  0  0  0  0  0  0  0  0  0  0
   -3.7878    1.1544    0.5380 C   0  0  0  0  0  0  0  0  0  0  0  0
   -3.1114   -0.1052   -0.0240 C   0  0  0  0  0  0  0  0  0  0  0  0
   -2.8183    1.9117    1.4580 C   0  0  0  0  0  0  0  0  0  0  0  0
   -1.7855    0.2324   -0.7042 C   0  0  0  0  0  0  0  0  0  0  0  0
   -1.5002    2.2088    0.7468 C   0  0  0  0  0  0  0  0  0  0  0  0
    0.9419   -0.6110   -0.0930 C   0  0  2  0  0  0  0  0  0  0  0  0
    0.3978    0.6362    0.5359 C   0  0  0  0  0  0  0  0  0  0  0  0
   -5.0730    0.7958    1.2799 C   0  0  0  0  0  0  0  0  0  0  0  0
    0.5201   -1.7973    0.8255 C   0  0  0  0  0  0  0  0  0  0  0  0
    3.0352   -1.6909   -0.8418 C   0  0  0  0  0  0  0  0  0  0  0  0
    1.3522   -2.9851    0.5462 C   0  0  0  0  0  0  0  0  0  0  0  0
    2.5034   -2.9087   -0.1946 C   0  0  0  0  0  0  0  0  0  0  0  0
    2.7992    0.6906   -1.0439 C   0  0  0  0  0  0  0  0  0  0  0  0
   -6.2090    0.5371    0.3286 C   0  0  0  0  0  0  0  0  0  0  0  0
    4.1896    1.1688   -0.7193 C   0  0  0  0  0  0  0  0  0  0  0  0
    2.1356   -4.9519    0.5079 C   0  0  0  0  0  0  0  0  0  0  0  0
   -7.0373    1.5862   -0.0700 C   0  0  0  0  0  0  0  0  0  0  0  0
   -6.4342   -0.7516   -0.1549 C   0  0  0  0  0  0  0  0  0  0  0  0
    4.3829    2.1239    0.2789 C   0  0  0  0  0  0  0  0  0  0  0  0
    5.2840    0.6570   -1.4162 C   0  0  0  0  0  0  0  0  0  0  0  0
   -8.0909    1.3466   -0.9522 C   0  0  0  0  0  0  0  0  0  0  0  0
   -7.4877   -0.9914   -1.0372 C   0  0  0  0  0  0  0  0  0  0  0  0
   -8.3161    0.0579   -1.4358 C   0  0  0  0  0  0  0  0  0  0  0  0
    5.6707    2.5671    0.5800 C   0  0  0  0  0  0  0  0  0  0  0  0
    6.5718    1.1002   -1.1152 C   0  0  0  0  0  0  0  0  0  0  0  0
    6.7651    2.0552   -0.1172 C   0  0  0  0  0  0  0  0  0  0  0  0
   -4.0246    1.8209   -0.3038 H   0  0  0  0  0  0  0  0  0  0  0  0
   -2.9278   -0.8223    0.7863 H   0  0  0  0  0  0  0  0  0  0  0  0
   -3.7524   -0.6000   -0.7598 H   0  0  0  0  0  0  0  0  0  0  0  0
   -2.6177    1.3107    2.3544 H   0  0  0  0  0  0  0  0  0  0  0  0
   -3.2704    2.8525    1.7931 H   0  0  0  0  0  0  0  0  0  0  0  0
   -1.3502   -0.6970   -1.0652 H   0  0  0  0  0  0  0  0  0  0  0  0
   -1.9587    0.8675   -1.5813 H   0  0  0  0  0  0  0  0  0  0  0  0
   -1.6629    2.8940   -0.0936 H   0  0  0  0  0  0  0  0  0  0  0  0
   -0.8098    2.7000    1.4396 H   0  0  0  0  0  0  0  0  0  0  0  0
    0.5625   -0.7552   -1.1085 H   0  0  0  0  0  0  0  0  0  0  0  0
   -4.9248   -0.0704    1.9376 H   0  0  0  0  0  0  0  0  0  0  0  0
   -5.3663    1.6175    1.9472 H   0  0  0  0  0  0  0  0  0  0  0  0
   -0.5369   -2.0417    0.6759 H   0  0  0  0  0  0  0  0  0  0  0  0
    0.6404   -1.5283    1.8830 H   0  0  0  0  0  0  0  0  0  0  0  0
    4.1199   -1.6780   -0.6969 H   0  0  0  0  0  0  0  0  0  0  0  0
    2.8256   -1.7497   -1.9175 H   0  0  0  0  0  0  0  0  0  0  0  0
    2.7143    0.4797   -2.1197 H   0  0  0  0  0  0  0  0  0  0  0  0
    2.1347    1.5512   -0.9044 H   0  0  0  0  0  0  0  0  0  0  0  0
    3.8431   -4.4890   -0.6879 H   0  0  0  0  0  0  0  0  0  0  0  0
    2.3007   -6.0109    0.6471 H   0  0  0  0  0  0  0  0  0  0  0  0
   -6.8710    2.5953    0.2977 H   0  0  0  0  0  0  0  0  0  0  0  0
   -5.8039   -1.5811    0.1544 H   0  0  0  0  0  0  0  0  0  0  0  0
    3.5407    2.5331    0.8296 H   0  0  0  0  0  0  0  0  0  0  0  0
    5.1498   -0.0775   -2.2058 H   0  0  0  0  0  0  0  0  0  0  0  0
   -8.7355    2.1636   -1.2631 H   0  0  0  0  0  0  0  0  0  0  0  0
   -7.6646   -1.9952   -1.4120 H   0  0  0  0  0  0  0  0  0  0  0  0
   -9.1366   -0.1289   -2.1223 H   0  0  0  0  0  0  0  0  0  0  0  0
    5.8065    3.3118    1.3601 H   0  0  0  0  0  0  0  0  0  0  0  0
    7.4149    0.6947   -1.6684 H   0  0  0  0  0  0  0  0  0  0  0  0
  1 32  1  0  0  0  0
  2 13  2  0  0  0  0
  3 10  1  0  0  0  0
  3 11  1  0  0  0  0
  3 13  1  0  0  0  0
  4 12  1  0  0  0  0
  4 16  1  0  0  0  0
  4 19  1  0  0  0  0
  5 18  1  0  0  0  0
  5 22  1  0  0  0  0
  5 51  1  0  0  0  0
  6 17  1  0  0  0  0
  6 22  2  0  0  0  0
  7  8  1  0  0  0  0
  7  9  1  0  0  0  0
  7 14  1  0  0  0  0
  7 33  1  0  0  0  0
  8 10  1  0  0  0  0
  8 34  1  0  0  0  0
  8 35  1  0  0  0  0
  9 11  1  0  0  0  0
  9 36  1  0  0  0  0
  9 37  1  0  0  0  0
 10 38  1  0  0  0  0
 10 39  1  0  0  0  0
 11 40  1  0  0  0  0
 11 41  1  0  0  0  0
 12 13  1  0  0  0  0
 12 15  1  0  0  0  0
 12 42  1  0  0  0  0
 14 20  1  0  0  0  0
 14 43  1  0  0  0  0
 14 44  1  0  0  0  0
 15 17  1  0  0  0  0
 15 45  1  0  0  0  0
 15 46  1  0  0  0  0
 16 18  1  0  0  0  0
 16 47  1  0  0  0  0
 16 48  1  0  0  0  0
 17 18  2  0  0  0  0
 19 21  1  0  0  0  0
 19 49  1  0  0  0  0
 19 50  1  0  0  0  0
 20 23  2  0  0  0  0
 20 24  1  0  0  0  0
 21 25  2  0  0  0  0
 21 26  1  0  0  0  0
 22 52  1  0  0  0  0
 23 27  1  0  0  0  0
 23 53  1  0  0  0  0
 24 28  2  0  0  0  0
 24 54  1  0  0  0  0
 25 30  1  0  0  0  0
 25 55  1  0  0  0  0
 26 31  2  0  0  0  0
 26 56  1  0  0  0  0
 27 29  2  0  0  0  0
 27 57  1  0  0  0  0
 28 29  1  0  0  0  0
 28 58  1  0  0  0  0
 29 59  1  0  0  0  0
 30 32  2  0  0  0  0
 30 60  1  0  0  0  0
 31 32  1  0  0  0  0
 31 61  1  0  0  0  0
M  END
> <PUBCHEM_COMPOUND_CID>
26745395

> <PUBCHEM_CONFORMER_RMSD>
1

> <PUBCHEM_CONFORMER_DIVERSEORDER>
1
31
114
70
71
96
86
77
133
143
36
79
112
82
147
40
113
26
104
129
135
137
55
93
75
52
15
43
58
19
91
108
130
105
127
136
47
62
141
101
117
74
125
149
17
54
78
97
16
60
35
27
145
151
10
29
123
107
118
80
155
88
139
12
106
156
132
4
109
33
67
146
13
85
87
131
150
46
154
22
121
59
28
49
72
50
152
100
30
92
25
126
134
111
90
140
94
119
110
39
73
23
98
69
7
76
116
124
84
21
48
95
64
99
65
89
42
37
142
8
44
3
41
61
103
138
53
56
14
66
122
144
51
2
24
115
5
153
18
120
68
102
9
6
63
83
148
81
34
45
57
11
20
32
128
38

> <PUBCHEM_MMFF94_PARTIAL_CHARGES>
40
1 -0.18
10 0.3
11 0.3
12 0.33
13 0.57
14 0.14
15 0.18
16 0.45
17 0.05
18 -0.33
19 0.41
2 -0.57
20 -0.14
21 -0.14
22 0.04
23 -0.15
24 -0.15
25 -0.15
26 -0.15
27 -0.15
28 -0.15
29 -0.15
3 -0.66
30 -0.15
31 -0.15
32 0.18
4 -0.81
5 0.03
51 0.27
52 0.15
53 0.15
54 0.15
55 0.15
56 0.15
57 0.15
58 0.15
59 0.15
6 -0.57
60 0.15
61 0.15

> <PUBCHEM_EFFECTIVE_ROTOR_COUNT>
8

> <PUBCHEM_PHARMACOPHORE_FEATURES>
9
1 2 acceptor
1 4 cation
1 5 donor
3 5 6 22 cation
5 5 6 17 18 22 rings
6 20 23 24 27 28 29 rings
6 21 25 26 30 31 32 rings
6 3 7 8 9 10 11 rings
6 4 12 15 16 17 18 rings

> <PUBCHEM_HEAVY_ATOM_COUNT>
32

> <PUBCHEM_ATOM_DEF_STEREO_COUNT>
1

> <PUBCHEM_ATOM_UDEF_STEREO_COUNT>
0

> <PUBCHEM_BOND_DEF_STEREO_COUNT>
0

> <PUBCHEM_BOND_UDEF_STEREO_COUNT>
0

> <PUBCHEM_ISOTOPIC_ATOM_COUNT>
0

> <PUBCHEM_COMPONENT_COUNT>
1

> <PUBCHEM_CACTVS_TAUTO_COUNT>
2

> <PUBCHEM_CONFORMER_ID>
01981A3300000001

> <PUBCHEM_MMFF94_ENERGY>
81.3297

> <PUBCHEM_FEATURE_SELFOVERLAP>
45.774

> <PUBCHEM_SHAPE_FINGERPRINT>
10050765 1 18194682558246618673
10076449 9 11167950168894089512
10595046 47 18341897342852586865
10692045 39 9223227451761765933
10835480 77 18333450920535276597
11135609 187 18408321077985250849
11135926 11 18409455799802359987
11136131 41 18259981561277076634
11204353 107 18198904897840874223
11443803 9 18334566989166826128
11475781 23 16733538318163901517
11719270 70 18407476661249518714
12144603 126 18131638860103176849
12202916 173 17676767647341926688
12522641 126 18336266735180238842
12522641 33 18408324398026658374
12539765 74 16443073802703039986
12597179 24 18186812399964460346
12758862 56 9871752373371468276
13150687 139 18131080342133635542
13533116 47 18340205177198247723
13540713 5 17984992492431873081
13968360 50 18334012791818787074
14117953 113 18334303089254852100
14118638 360 18342457007372551265
15351339 4 18273217465794347032
15392192 29 8142083161385908960
15705408 1 17903100857789195798
1577012 14 18059577945865488377
15890870 6 18411138082742907548
15927050 60 18341610464385641863
18365409 1 18196937883911722910
18681886 176 16343701054028596761
19319366 153 18412823581747725262
20554085 129 18271515477644552424
20567600 254 18408609184091078584
21049683 118 18266442382628436928
21150785 3 17704072915338500269
21792938 79 15768654364094262450
22224240 67 18410293644563506764
23522609 53 17844832308116845833
23845131 108 18334580174300271026
3103668 31 17977389661462966227
335352 9 18411993451734234020
4073 2 18334580144773154427
4149490 64 18113624452544922251
4403749 210 18118691152116804800
4516262 110 18411131441873687828
45377200 153 16056306363218249951
4874694 18 18259980492815798831
57634706 280 17987787644321113400
57634706 306 18267297823754985160
59755656 215 18411702097125206977
6058803 2 17840317622503417089

> <PUBCHEM_SHAPE_MULTIPOLES>
634.62
22.98
4.51
1.22
23.26
7.73
-0.06
-17.73
-7.54
-7.59
1.37
0.56
-0.19
-0.6

> <PUBCHEM_SHAPE_SELFOVERLAP>
1365.621

> <PUBCHEM_SHAPE_VOLUME>
349.1

> <PUBCHEM_COORDINATE_TYPE>
2
5
10

$$$$
