11883392
  -OEChem-12032416373D

 56 59  0     1  0  0  0  0  0999 V2000
    8.7916   -1.1612    0.7754 F   0  0  0  0  0  0  0  0  0  0  0  0
    8.2807    0.9265    0.4840 F   0  0  0  0  0  0  0  0  0  0  0  0
    7.5954   -0.1196    2.2630 F   0  0  0  0  0  0  0  0  0  0  0  0
   -1.1227    1.2387    1.1617 O   0  0  0  0  0  0  0  0  0  0  0  0
   -2.3118    2.6032   -1.3137 O   0  0  0  0  0  0  0  0  0  0  0  0
    1.0048    1.4467   -0.6095 O   0  0  0  0  0  0  0  0  0  0  0  0
   -6.1667    0.9263   -0.0159 O   0  0  0  0  0  0  0  0  0  0  0  0
    1.4907   -0.5582   -1.5965 O   0  0  0  0  0  0  0  0  0  0  0  0
   -4.1314    0.4025    0.9866 N   0  0  0  0  0  0  0  0  0  0  0  0
    3.0776    0.6038   -0.3271 N   0  0  0  0  0  0  0  0  0  0  0  0
   -2.6176    1.3455   -0.6760 C   0  0  1  0  0  0  0  0  0  0  0  0
   -1.3039    0.7710   -0.1853 C   0  0  1  0  0  0  0  0  0  0  0  0
   -3.4046    1.5843    0.5915 C   0  0  2  0  0  0  0  0  0  0  0  0
   -0.3034    1.3896   -1.1318 C   0  0  1  0  0  0  0  0  0  0  0  0
   -2.3112    1.9206    1.5910 C   0  0  0  0  0  0  0  0  0  0  0  0
   -0.8867    2.7662   -1.3577 C   0  0  0  0  0  0  0  0  0  0  0  0
   -5.9603   -1.1413    1.1632 C   0  0  0  0  0  0  0  0  0  0  0  0
   -7.4538   -1.0686    1.4882 C   0  0  0  0  0  0  0  0  0  0  0  0
   -5.6235   -2.2591    0.1741 C   0  0  0  0  0  0  0  0  0  0  0  0
   -5.4560    0.1750    0.6468 C   0  0  0  0  0  0  0  0  0  0  0  0
   -8.3480   -1.1045    0.2493 C   0  0  0  0  0  0  0  0  0  0  0  0
   -6.5314   -2.2646   -1.0547 C   0  0  0  0  0  0  0  0  0  0  0  0
   -8.0051   -2.2746   -0.6654 C   0  0  0  0  0  0  0  0  0  0  0  0
    1.8431    0.3932   -0.9102 C   0  0  0  0  0  0  0  0  0  0  0  0
    4.2202   -0.2263   -0.3842 C   0  0  0  0  0  0  0  0  0  0  0  0
    5.3914    0.1514    0.2725 C   0  0  0  0  0  0  0  0  0  0  0  0
    4.1762   -1.4239   -1.0979 C   0  0  0  0  0  0  0  0  0  0  0  0
    6.5184   -0.6684    0.2153 C   0  0  0  0  0  0  0  0  0  0  0  0
    5.3031   -2.2438   -1.1550 C   0  0  0  0  0  0  0  0  0  0  0  0
    6.4743   -1.8660   -0.4983 C   0  0  0  0  0  0  0  0  0  0  0  0
    7.7706   -0.2645    0.9171 C   0  0  0  0  0  0  0  0  0  0  0  0
   -3.1194    0.7117   -1.4141 H   0  0  0  0  0  0  0  0  0  0  0  0
   -1.2731   -0.3223   -0.1648 H   0  0  0  0  0  0  0  0  0  0  0  0
   -4.1118    2.4158    0.5004 H   0  0  0  0  0  0  0  0  0  0  0  0
   -0.3363    0.8604   -2.0943 H   0  0  0  0  0  0  0  0  0  0  0  0
   -2.0887    2.9933    1.5806 H   0  0  0  0  0  0  0  0  0  0  0  0
   -2.5461    1.6280    2.6189 H   0  0  0  0  0  0  0  0  0  0  0  0
   -0.5877    3.4778   -0.5799 H   0  0  0  0  0  0  0  0  0  0  0  0
   -0.5950    3.1885   -2.3241 H   0  0  0  0  0  0  0  0  0  0  0  0
   -3.6196   -0.3212    1.4836 H   0  0  0  0  0  0  0  0  0  0  0  0
   -5.4365   -1.3499    2.1063 H   0  0  0  0  0  0  0  0  0  0  0  0
   -7.6790   -0.1673    2.0714 H   0  0  0  0  0  0  0  0  0  0  0  0
   -7.7131   -1.9247    2.1247 H   0  0  0  0  0  0  0  0  0  0  0  0
   -5.7283   -3.2237    0.6875 H   0  0  0  0  0  0  0  0  0  0  0  0
   -4.5785   -2.1912   -0.1518 H   0  0  0  0  0  0  0  0  0  0  0  0
   -8.2822   -0.1674   -0.3123 H   0  0  0  0  0  0  0  0  0  0  0  0
   -9.3939   -1.1919    0.5671 H   0  0  0  0  0  0  0  0  0  0  0  0
   -6.3088   -3.1450   -1.6685 H   0  0  0  0  0  0  0  0  0  0  0  0
   -6.3209   -1.3861   -1.6763 H   0  0  0  0  0  0  0  0  0  0  0  0
   -8.2435   -3.2178   -0.1587 H   0  0  0  0  0  0  0  0  0  0  0  0
   -8.6258   -2.2317   -1.5675 H   0  0  0  0  0  0  0  0  0  0  0  0
    3.1805    1.4610    0.2106 H   0  0  0  0  0  0  0  0  0  0  0  0
    5.4296    1.0846    0.8300 H   0  0  0  0  0  0  0  0  0  0  0  0
    3.3062   -1.7818   -1.6307 H   0  0  0  0  0  0  0  0  0  0  0  0
    5.2698   -3.1766   -1.7106 H   0  0  0  0  0  0  0  0  0  0  0  0
    7.3417   -2.5179   -0.5545 H   0  0  0  0  0  0  0  0  0  0  0  0
  1 31  1  0  0  0  0
  2 31  1  0  0  0  0
  3 31  1  0  0  0  0
  4 12  1  0  0  0  0
  4 15  1  0  0  0  0
  5 11  1  0  0  0  0
  5 16  1  0  0  0  0
  6 14  1  0  0  0  0
  6 24  1  0  0  0  0
  7 20  2  0  0  0  0
  8 24  2  0  0  0  0
  9 13  1  0  0  0  0
  9 20  1  0  0  0  0
  9 40  1  0  0  0  0
 10 24  1  0  0  0  0
 10 25  1  0  0  0  0
 10 52  1  0  0  0  0
 11 12  1  0  0  0  0
 11 13  1  0  0  0  0
 11 32  1  0  0  0  0
 12 14  1  0  0  0  0
 12 33  1  0  0  0  0
 13 15  1  0  0  0  0
 13 34  1  0  0  0  0
 14 16  1  0  0  0  0
 14 35  1  0  0  0  0
 15 36  1  0  0  0  0
 15 37  1  0  0  0  0
 16 38  1  0  0  0  0
 16 39  1  0  0  0  0
 17 18  1  0  0  0  0
 17 19  1  0  0  0  0
 17 20  1  0  0  0  0
 17 41  1  0  0  0  0
 18 21  1  0  0  0  0
 18 42  1  0  0  0  0
 18 43  1  0  0  0  0
 19 22  1  0  0  0  0
 19 44  1  0  0  0  0
 19 45  1  0  0  0  0
 21 23  1  0  0  0  0
 21 46  1  0  0  0  0
 21 47  1  0  0  0  0
 22 23  1  0  0  0  0
 22 48  1  0  0  0  0
 22 49  1  0  0  0  0
 23 50  1  0  0  0  0
 23 51  1  0  0  0  0
 25 26  1  0  0  0  0
 25 27  2  0  0  0  0
 26 28  2  0  0  0  0
 26 53  1  0  0  0  0
 27 29  1  0  0  0  0
 27 54  1  0  0  0  0
 28 30  1  0  0  0  0
 28 31  1  0  0  0  0
 29 30  2  0  0  0  0
 29 55  1  0  0  0  0
 30 56  1  0  0  0  0
M  END
> <PUBCHEM_COMPOUND_CID>
11883392

> <PUBCHEM_CONFORMER_RMSD>
1

> <PUBCHEM_CONFORMER_DIVERSEORDER>
1
186
238
143
236
180
208
228
152
27
230
120
45
259
158
183
160
164
191
13
33
62
145
173
36
257
199
260
249
54
144
125
231
12
113
165
222
169
163
205
250
103
142
252
119
126
207
131
139
226
38
197
31
68
111
53
72
28
229
94
96
47
147
233
241
129
4
106
133
121
89
174
215
171
253
117
220
88
110
195
64
58
108
134
23
105
240
137
223
187
225
189
168
161
221
66
218
179
170
39
67
9
190
224
82
178
40
214
100
42
185
55
32
251
213
75
77
201
254
155
166
95
102
154
135
98
258
69
46
146
245
198
43
78
244
172
107
104
141
114
175
97
151
15
22
123
26
167
90
34
235
157
188
217
85
247
74
156
79
115
17
80
148
60
112
5
153
56
76
216
51
24
162
93
239
206
212
210
193
242
149
99
184
118
127
65
181
204
10
140
63
21
227
132
136
91
138
84
70
192
256
14
194
59
11
176
196
203
8
18
48
182
52
130
243
219
200
92
57
7
83
35
232
81
109
41
73
49
6
209
44
116
61
237
211
255
159
177
29
16
3
87
86
20
50
122
124
19
150
2
246
25
128
71
202
234
248
37
101
30

> <PUBCHEM_MMFF94_PARTIAL_CHARGES>
32
1 -0.34
10 -0.55
11 0.28
12 0.28
13 0.3
14 0.28
15 0.28
16 0.28
17 0.06
2 -0.34
20 0.57
24 0.78
25 0.12
26 -0.15
27 -0.15
28 -0.14
29 -0.15
3 -0.34
30 -0.15
31 1.16
4 -0.56
40 0.37
5 -0.56
52 0.37
53 0.15
54 0.15
55 0.15
56 0.15
6 -0.43
7 -0.57
8 -0.57
9 -0.73

> <PUBCHEM_EFFECTIVE_ROTOR_COUNT>
10.4

> <PUBCHEM_PHARMACOPHORE_FEATURES>
10
1 10 donor
1 4 acceptor
1 5 acceptor
1 7 acceptor
1 8 acceptor
1 9 donor
5 4 11 12 13 15 rings
5 5 11 12 14 16 rings
6 17 18 19 21 22 23 rings
6 25 26 27 28 29 30 rings

> <PUBCHEM_HEAVY_ATOM_COUNT>
31

> <PUBCHEM_ATOM_DEF_STEREO_COUNT>
4

> <PUBCHEM_ATOM_UDEF_STEREO_COUNT>
0

> <PUBCHEM_BOND_DEF_STEREO_COUNT>
0

> <PUBCHEM_BOND_UDEF_STEREO_COUNT>
0

> <PUBCHEM_ISOTOPIC_ATOM_COUNT>
0

> <PUBCHEM_COMPONENT_COUNT>
1

> <PUBCHEM_CACTVS_TAUTO_COUNT>
4

> <PUBCHEM_CONFORMER_ID>
00B5538000000001

> <PUBCHEM_MMFF94_ENERGY>
68.542

> <PUBCHEM_FEATURE_SELFOVERLAP>
51.464

> <PUBCHEM_SHAPE_FINGERPRINT>
10 15 15195571195430898875
10190206 1 13118270456979736447
10369192 42 8862946066020670761
10391435 84 18411415107700385311
10483366 6 13334731336920188135
106641 1 18272088310301968360
10670039 82 13262387870233714887
10674148 151 9079115540851426358
11103572 95 18059021562695711535
11135926 11 16588309363221039409
11211813 128 18411422796209017950
11297750 10 17968087659911118245
11410812 94 15430303716198821582
12596602 18 18058734589912364266
13177829 20 17632297878144356650
13782708 43 18411704257340288832
13885169 86 10807929362992905587
13914758 101 11746936486510946048
14068700 675 17531251646944775332
14556957 393 15575008221327715255
14664723 55 10591761008410136026
15064981 194 9438821933360638439
15183329 4 13190336876948376213
15188451 53 17749109980926699404
15350500 16 17967247611182355423
15392192 104 15267344032947263829
15461852 350 17676771990091192694
15510800 12 18263102005958238163
15604295 49 10881982618049212726
15728490 51 18273495688874081038
16992779 147 16772654698331541312
18608769 82 18131910472774704858
190975 80 18412825789967050384
19303781 99 18190180277680720839
19304152 47 12031523090325375735
20028762 73 18410581677565291206
20105231 36 17916876725743722846
2026 5 18334297561663830515
21095123 293 13542466470818169074
21130935 74 18199754639882171434
21424621 283 10231759976833126213
22149856 69 18200607899491225752
22864921 47 17968082098165320274
23389318 12 17822582689584879444
23559900 14 15792314698513971428
23576562 1 11314894447881007259
2747138 104 18059861636670790216
32027 91 18116725195641313425
3383291 50 18333737939856383347
3633792 109 13839979998078779544
3663271 9 17775010029343461698
3711267 37 12463572898008387586
38570 142 9223236226300726741
397830 11 17704078360649773076
4339292 15 17458339711952003282
4403749 210 17917425389875917581
4516262 110 10447662249612510865
474113 269 12540958687747068840
508180 173 12107794025045695463
5104073 3 17416981520861953082
54076057 127 17275108294080330726
5718773 13 18260551129969057791
57303763 176 11747751203431990254
5758199 1 11455894650737588589
59682541 35 17418372506213660290
59682541 52 14417850349953067094
5969126 39 18040150708783676581
6126387 218 18131352987058427089
6201320 221 16444165557662585194
6201320 82 8933908551132250899
6698420 124 17691969263332999445
9689198 14 10303815388958920229
9953998 17 17489591164996607091

> <PUBCHEM_SHAPE_MULTIPOLES>
576.84
28.43
2.67
1.5
16.51
0.11
0.24
-20.57
9.3
-2.87
-0.91
0.33
0.23
0.3

> <PUBCHEM_SHAPE_SELFOVERLAP>
1235.16

> <PUBCHEM_SHAPE_VOLUME>
319.5

> <PUBCHEM_COORDINATE_TYPE>
2
5
10

$$$$
