45360655
  -OEChem-12032416343D

 68 71  0     1  0  0  0  0  0999 V2000
   -5.6926   -3.8868    0.1659 F   0  0  0  0  0  0  0  0  0  0  0  0
   -1.0409   -2.1683    2.7333 O   0  0  0  0  0  0  0  0  0  0  0  0
   -4.9447    2.9185   -0.3857 O   0  0  0  0  0  0  0  0  0  0  0  0
   -1.2327    0.8778    0.7313 N   0  0  1  0  0  0  0  0  0  0  0  0
   -1.8157   -0.1049    3.2941 N   0  0  0  0  0  0  0  0  0  0  0  0
    2.3139    0.4074    0.1514 N   0  0  0  0  0  0  0  0  0  0  0  0
   -3.5427    1.7191   -1.7944 N   0  0  0  0  0  0  0  0  0  0  0  0
    8.6617   -0.2361   -0.2526 N   0  0  0  0  0  0  0  0  0  0  0  0
   -1.1441   -0.5726    0.9430 C   0  0  1  0  0  0  0  0  0  0  0  0
    0.8717    0.3686   -0.0303 C   0  0  1  0  0  0  0  0  0  0  0  0
    0.2467   -0.9548    0.4125 C   0  0  0  0  0  0  0  0  0  0  0  0
   -2.2593    1.5395    1.5287 C   0  0  1  0  0  0  0  0  0  0  0  0
    0.1274    1.4073    0.7975 C   0  0  0  0  0  0  0  0  0  0  0  0
   -2.0329    1.2953    3.0124 C   0  0  0  0  0  0  0  0  0  0  0  0
   -1.3050   -1.0104    2.3959 C   0  0  0  0  0  0  0  0  0  0  0  0
   -2.3709    3.0350    1.2293 C   0  0  0  0  0  0  0  0  0  0  0  0
   -2.5549    3.2861   -0.2611 C   0  0  0  0  0  0  0  0  0  0  0  0
    2.9962   -0.2995   -0.9251 C   0  0  0  0  0  0  0  0  0  0  0  0
   -3.8211    2.6428   -0.7975 C   0  0  0  0  0  0  0  0  0  0  0  0
    4.4912   -0.2827   -0.7476 C   0  0  0  0  0  0  0  0  0  0  0  0
    5.2155    0.8728   -1.0406 C   0  0  0  0  0  0  0  0  0  0  0  0
    5.1521   -1.4228   -0.2899 C   0  0  0  0  0  0  0  0  0  0  0  0
   -4.5803    0.9709   -2.4637 C   0  0  0  0  0  0  0  0  0  0  0  0
    6.6004    0.8883   -0.8763 C   0  0  0  0  0  0  0  0  0  0  0  0
    6.5370   -1.4073   -0.1255 C   0  0  0  0  0  0  0  0  0  0  0  0
    7.2613   -0.2518   -0.4187 C   0  0  0  0  0  0  0  0  0  0  0  0
   -4.8776   -0.3270   -1.7610 C   0  0  0  0  0  0  0  0  0  0  0  0
   -4.1801   -1.4838   -2.1089 C   0  0  0  0  0  0  0  0  0  0  0  0
   -5.8503   -0.3729   -0.7623 C   0  0  0  0  0  0  0  0  0  0  0  0
    9.4232    0.9596   -0.5544 C   0  0  0  0  0  0  0  0  0  0  0  0
    9.3569   -1.4130    0.2295 C   0  0  0  0  0  0  0  0  0  0  0  0
   -4.4554   -2.6865   -1.4582 C   0  0  0  0  0  0  0  0  0  0  0  0
   -6.1257   -1.5755   -0.1117 C   0  0  0  0  0  0  0  0  0  0  0  0
   -5.4283   -2.7323   -0.4596 C   0  0  0  0  0  0  0  0  0  0  0  0
   -1.9286   -1.0756    0.3660 H   0  0  0  0  0  0  0  0  0  0  0  0
    0.6196    0.5506   -1.0861 H   0  0  0  0  0  0  0  0  0  0  0  0
    0.1734   -1.6439   -0.4367 H   0  0  0  0  0  0  0  0  0  0  0  0
    0.8591   -1.4400    1.1823 H   0  0  0  0  0  0  0  0  0  0  0  0
   -3.2195    1.0727    1.2679 H   0  0  0  0  0  0  0  0  0  0  0  0
    0.2294    2.4028    0.3555 H   0  0  0  0  0  0  0  0  0  0  0  0
    0.5096    1.4402    1.8250 H   0  0  0  0  0  0  0  0  0  0  0  0
   -2.9033    1.6124    3.5970 H   0  0  0  0  0  0  0  0  0  0  0  0
   -1.1626    1.8402    3.3942 H   0  0  0  0  0  0  0  0  0  0  0  0
   -3.2264    3.4476    1.7795 H   0  0  0  0  0  0  0  0  0  0  0  0
   -1.4850    3.5771    1.5817 H   0  0  0  0  0  0  0  0  0  0  0  0
   -1.9381   -0.4147    4.2533 H   0  0  0  0  0  0  0  0  0  0  0  0
    2.6220    1.3801    0.1571 H   0  0  0  0  0  0  0  0  0  0  0  0
   -1.6771    2.9828   -0.8394 H   0  0  0  0  0  0  0  0  0  0  0  0
   -2.6599    4.3654   -0.4293 H   0  0  0  0  0  0  0  0  0  0  0  0
    2.7605    0.1516   -1.8982 H   0  0  0  0  0  0  0  0  0  0  0  0
    2.6540   -1.3407   -0.9777 H   0  0  0  0  0  0  0  0  0  0  0  0
   -2.5801    1.5289   -2.0567 H   0  0  0  0  0  0  0  0  0  0  0  0
    4.7114    1.7666   -1.3988 H   0  0  0  0  0  0  0  0  0  0  0  0
    4.5999   -2.3291   -0.0556 H   0  0  0  0  0  0  0  0  0  0  0  0
   -4.2419    0.7823   -3.4888 H   0  0  0  0  0  0  0  0  0  0  0  0
   -5.4881    1.5817   -2.5352 H   0  0  0  0  0  0  0  0  0  0  0  0
    7.1183    1.8112   -1.1179 H   0  0  0  0  0  0  0  0  0  0  0  0
    7.0042   -2.3190    0.2333 H   0  0  0  0  0  0  0  0  0  0  0  0
   -3.4178   -1.4602   -2.8831 H   0  0  0  0  0  0  0  0  0  0  0  0
   -6.4038    0.5192   -0.4827 H   0  0  0  0  0  0  0  0  0  0  0  0
   10.4946    0.8126   -0.3776 H   0  0  0  0  0  0  0  0  0  0  0  0
    9.1147    1.7966    0.0818 H   0  0  0  0  0  0  0  0  0  0  0  0
    9.3180    1.2407   -1.6083 H   0  0  0  0  0  0  0  0  0  0  0  0
   10.4366   -1.2424    0.3065 H   0  0  0  0  0  0  0  0  0  0  0  0
    9.2239   -2.2591   -0.4538 H   0  0  0  0  0  0  0  0  0  0  0  0
    9.0139   -1.6926    1.2319 H   0  0  0  0  0  0  0  0  0  0  0  0
   -3.9117   -3.5870   -1.7278 H   0  0  0  0  0  0  0  0  0  0  0  0
   -6.8832   -1.6117    0.6657 H   0  0  0  0  0  0  0  0  0  0  0  0
  1 34  1  0  0  0  0
  2 15  2  0  0  0  0
  3 19  2  0  0  0  0
  4  9  1  0  0  0  0
  4 12  1  0  0  0  0
  4 13  1  0  0  0  0
  5 14  1  0  0  0  0
  5 15  1  0  0  0  0
  5 46  1  0  0  0  0
  6 10  1  0  0  0  0
  6 18  1  0  0  0  0
  6 47  1  0  0  0  0
  7 19  1  0  0  0  0
  7 23  1  0  0  0  0
  7 52  1  0  0  0  0
  8 26  1  0  0  0  0
  8 30  1  0  0  0  0
  8 31  1  0  0  0  0
  9 11  1  0  0  0  0
  9 15  1  0  0  0  0
  9 35  1  0  0  0  0
 10 11  1  0  0  0  0
 10 13  1  0  0  0  0
 10 36  1  0  0  0  0
 11 37  1  0  0  0  0
 11 38  1  0  0  0  0
 12 14  1  0  0  0  0
 12 16  1  0  0  0  0
 12 39  1  0  0  0  0
 13 40  1  0  0  0  0
 13 41  1  0  0  0  0
 14 42  1  0  0  0  0
 14 43  1  0  0  0  0
 16 17  1  0  0  0  0
 16 44  1  0  0  0  0
 16 45  1  0  0  0  0
 17 19  1  0  0  0  0
 17 48  1  0  0  0  0
 17 49  1  0  0  0  0
 18 20  1  0  0  0  0
 18 50  1  0  0  0  0
 18 51  1  0  0  0  0
 20 21  2  0  0  0  0
 20 22  1  0  0  0  0
 21 24  1  0  0  0  0
 21 53  1  0  0  0  0
 22 25  2  0  0  0  0
 22 54  1  0  0  0  0
 23 27  1  0  0  0  0
 23 55  1  0  0  0  0
 23 56  1  0  0  0  0
 24 26  2  0  0  0  0
 24 57  1  0  0  0  0
 25 26  1  0  0  0  0
 25 58  1  0  0  0  0
 27 28  2  0  0  0  0
 27 29  1  0  0  0  0
 28 32  1  0  0  0  0
 28 59  1  0  0  0  0
 29 33  2  0  0  0  0
 29 60  1  0  0  0  0
 30 61  1  0  0  0  0
 30 62  1  0  0  0  0
 30 63  1  0  0  0  0
 31 64  1  0  0  0  0
 31 65  1  0  0  0  0
 31 66  1  0  0  0  0
 32 34  2  0  0  0  0
 32 67  1  0  0  0  0
 33 34  1  0  0  0  0
 33 68  1  0  0  0  0
M  END
> <PUBCHEM_COMPOUND_CID>
45360655

> <PUBCHEM_CONFORMER_RMSD>
1.2

> <PUBCHEM_CONFORMER_DIVERSEORDER>
1
102
26
29
21
84
107
70
121
112
87
92
91
57
117
52
49
108
15
106
72
46
18
120
101
109
59
103
36
122
63
118
82
75
9
60
20
38
69
123
80
27
54
78
89
79
11
50
119
94
64
32
104
100
19
111
98
99
51
86
71
45
31
77
56
24
17
66
68
95
81
116
115
48
28
7
37
23
22
114
113
41
42
47
73
62
61
96
16
2
67
12
40
58
35
4
76
105
39
10
34
83
74
25
124
13
90
30
65
88
44
14
8
53
85
55
110
97
93
43
33
6
3
5

> <PUBCHEM_MMFF94_PARTIAL_CHARGES>
43
1 -0.19
10 0.27
12 0.27
13 0.27
14 0.3
15 0.57
17 0.06
18 0.41
19 0.57
2 -0.57
20 -0.14
21 -0.15
22 -0.15
23 0.44
24 -0.15
25 -0.15
26 0.1
27 -0.14
28 -0.15
29 -0.15
3 -0.57
30 0.37
31 0.37
32 -0.15
33 -0.15
34 0.19
4 -0.81
46 0.37
47 0.36
5 -0.73
52 0.37
53 0.15
54 0.15
57 0.15
58 0.15
59 0.15
6 -0.9
60 0.15
67 0.15
68 0.15
7 -0.73
8 -0.84
9 0.33

> <PUBCHEM_EFFECTIVE_ROTOR_COUNT>
11.2

> <PUBCHEM_PHARMACOPHORE_FEATURES>
12
1 2 acceptor
1 3 acceptor
1 4 cation
1 5 donor
1 6 cation
1 6 donor
1 7 donor
1 8 cation
5 4 9 10 11 13 rings
6 20 21 22 24 25 26 rings
6 27 28 29 32 33 34 rings
6 4 5 9 12 14 15 rings

> <PUBCHEM_HEAVY_ATOM_COUNT>
34

> <PUBCHEM_ATOM_DEF_STEREO_COUNT>
3

> <PUBCHEM_ATOM_UDEF_STEREO_COUNT>
0

> <PUBCHEM_BOND_DEF_STEREO_COUNT>
0

> <PUBCHEM_BOND_UDEF_STEREO_COUNT>
0

> <PUBCHEM_ISOTOPIC_ATOM_COUNT>
0

> <PUBCHEM_COMPONENT_COUNT>
1

> <PUBCHEM_CACTVS_TAUTO_COUNT>
6

> <PUBCHEM_CONFORMER_ID>
02B4260F00000001

> <PUBCHEM_MMFF94_ENERGY>
86.9088

> <PUBCHEM_FEATURE_SELFOVERLAP>
61.085

> <PUBCHEM_SHAPE_FINGERPRINT>
10462385 53 14764351535674180740
10554248 39 17385733457285238862
10577160 103 18264486355379627600
10577160 183 16081358653736170680
10674148 151 18273493464882569545
11103572 155 10447658998032728348
11146851 88 8286206050396142495
12082328 90 18413103940454373958
12373685 5 18041552556540107626
12422481 6 10159701321563846736
13941219 33 12895360979627675453
14040222 275 17240777142856131758
14068700 675 17632293527068133585
14118638 360 17060345089930842358
14279260 333 18334289838373355935
14932701 244 18410016529078380245
15183329 4 17167856470254344614
15461852 350 18412831279251740396
17686467 74 17846771919937923184
21033648 29 8934455085291898061
2838139 119 16587743118474216684
4015057 19 18260835933688744076
437795 160 18341316848437536834
44802255 64 14345793859547687683
484985 159 15554437480402185101
4938544 92 8646767798579593285
5080951 261 18131075905052545211
6086070 43 15574715845929949108
6691757 9 16153431640757629968
70634741 139 18273493472792048118
9953998 17 13542473071945590207

> <PUBCHEM_SHAPE_MULTIPOLES>
655.79
23.64
3.33
2.41
62.92
0.21
1.68
-9.03
-9.73
-7.5
0.01
-3.76
0.19
-0.7

> <PUBCHEM_SHAPE_SELFOVERLAP>
1386.731

> <PUBCHEM_SHAPE_VOLUME>
370

> <PUBCHEM_COORDINATE_TYPE>
2
5
10

$$$$
