86769013
  -OEChem-12032416333D

 43 45  0     1  0  0  0  0  0999 V2000
    1.6157   -2.7146    0.4142 O   0  0  0  0  0  0  0  0  0  0  0  0
   -4.9944   -0.8552   -0.7241 O   0  0  0  0  0  0  0  0  0  0  0  0
   -5.8554    1.4004    0.0300 O   0  0  0  0  0  0  0  0  0  0  0  0
   -0.3346   -1.4048    0.4304 N   0  0  0  0  0  0  0  0  0  0  0  0
    1.6107   -0.4268    0.9856 N   0  0  0  0  0  0  0  0  0  0  0  0
   -2.7343   -0.3626   -0.5179 N   0  0  0  0  0  0  0  0  0  0  0  0
    4.8024    1.1334    0.0532 N   0  0  0  0  0  0  0  0  0  0  0  0
    3.4046    0.0017   -1.2495 N   0  0  0  0  0  0  0  0  0  0  0  0
   -0.7034   -0.0584    0.8311 C   0  0  1  0  0  0  0  0  0  0  0  0
    0.6379    0.6516    0.9974 C   0  0  0  0  0  0  0  0  0  0  0  0
   -1.6345    0.5689   -0.2033 C   0  0  0  0  0  0  0  0  0  0  0  0
   -1.3651   -2.3451    0.0288 C   0  0  0  0  0  0  0  0  0  0  0  0
   -2.3012   -1.6889   -0.9834 C   0  0  0  0  0  0  0  0  0  0  0  0
    1.0358   -1.6512    0.5911 C   0  0  0  0  0  0  0  0  0  0  0  0
    3.0176   -0.1914    1.2236 C   0  0  0  0  0  0  0  0  0  0  0  0
   -4.0931   -0.0656   -0.4310 C   0  0  0  0  0  0  0  0  0  0  0  0
    3.7216    0.2985   -0.0087 C   0  0  0  0  0  0  0  0  0  0  0  0
   -4.4512    1.3149    0.0580 C   0  0  0  0  0  0  0  0  0  0  0  0
    5.1998    1.3851   -1.2298 C   0  0  0  0  0  0  0  0  0  0  0  0
    5.4230    1.6620    1.2450 C   0  0  0  0  0  0  0  0  0  0  0  0
    4.3223    0.6759   -2.0156 C   0  0  0  0  0  0  0  0  0  0  0  0
   -6.3239    2.6722    0.4747 C   0  0  0  0  0  0  0  0  0  0  0  0
   -1.2135   -0.1462    1.7989 H   0  0  0  0  0  0  0  0  0  0  0  0
    0.8623    1.3316    0.1692 H   0  0  0  0  0  0  0  0  0  0  0  0
    0.6962    1.1977    1.9438 H   0  0  0  0  0  0  0  0  0  0  0  0
   -1.9960    1.5330    0.1586 H   0  0  0  0  0  0  0  0  0  0  0  0
   -1.1061    0.7512   -1.1473 H   0  0  0  0  0  0  0  0  0  0  0  0
   -1.9160   -2.6207    0.9352 H   0  0  0  0  0  0  0  0  0  0  0  0
   -0.9047   -3.2495   -0.3805 H   0  0  0  0  0  0  0  0  0  0  0  0
   -1.7806   -1.5343   -1.9362 H   0  0  0  0  0  0  0  0  0  0  0  0
   -3.1596   -2.3394   -1.1769 H   0  0  0  0  0  0  0  0  0  0  0  0
    3.4788   -1.1386    1.5252 H   0  0  0  0  0  0  0  0  0  0  0  0
    3.1009    0.5114    2.0581 H   0  0  0  0  0  0  0  0  0  0  0  0
   -4.0855    1.4454    1.0817 H   0  0  0  0  0  0  0  0  0  0  0  0
   -4.0209    2.0647   -0.6136 H   0  0  0  0  0  0  0  0  0  0  0  0
    6.0398    2.0227   -1.4681 H   0  0  0  0  0  0  0  0  0  0  0  0
    4.7221    2.3513    1.7222 H   0  0  0  0  0  0  0  0  0  0  0  0
    5.6674    0.8309    1.9112 H   0  0  0  0  0  0  0  0  0  0  0  0
    6.3384    2.1939    0.9729 H   0  0  0  0  0  0  0  0  0  0  0  0
    4.3043    0.6167   -3.0941 H   0  0  0  0  0  0  0  0  0  0  0  0
   -7.4161    2.6705    0.4288 H   0  0  0  0  0  0  0  0  0  0  0  0
   -5.9455    3.4663   -0.1761 H   0  0  0  0  0  0  0  0  0  0  0  0
   -6.0153    2.8512    1.5091 H   0  0  0  0  0  0  0  0  0  0  0  0
  1 14  2  0  0  0  0
  2 16  2  0  0  0  0
  3 18  1  0  0  0  0
  3 22  1  0  0  0  0
  4  9  1  0  0  0  0
  4 12  1  0  0  0  0
  4 14  1  0  0  0  0
  5 10  1  0  0  0  0
  5 14  1  0  0  0  0
  5 15  1  0  0  0  0
  6 11  1  0  0  0  0
  6 13  1  0  0  0  0
  6 16  1  0  0  0  0
  7 17  1  0  0  0  0
  7 19  1  0  0  0  0
  7 20  1  0  0  0  0
  8 17  2  0  0  0  0
  8 21  1  0  0  0  0
  9 10  1  0  0  0  0
  9 11  1  0  0  0  0
  9 23  1  0  0  0  0
 10 24  1  0  0  0  0
 10 25  1  0  0  0  0
 11 26  1  0  0  0  0
 11 27  1  0  0  0  0
 12 13  1  0  0  0  0
 12 28  1  0  0  0  0
 12 29  1  0  0  0  0
 13 30  1  0  0  0  0
 13 31  1  0  0  0  0
 15 17  1  0  0  0  0
 15 32  1  0  0  0  0
 15 33  1  0  0  0  0
 16 18  1  0  0  0  0
 18 34  1  0  0  0  0
 18 35  1  0  0  0  0
 19 21  2  0  0  0  0
 19 36  1  0  0  0  0
 20 37  1  0  0  0  0
 20 38  1  0  0  0  0
 20 39  1  0  0  0  0
 21 40  1  0  0  0  0
 22 41  1  0  0  0  0
 22 42  1  0  0  0  0
 22 43  1  0  0  0  0
M  END
> <PUBCHEM_COMPOUND_CID>
86769013

> <PUBCHEM_CONFORMER_RMSD>
0.8

> <PUBCHEM_CONFORMER_DIVERSEORDER>
1
163
69
117
151
22
148
119
66
52
87
178
18
28
97
33
68
106
58
2
143
120
96
149
161
137
60
86
11
12
152
53
150
79
89
65
46
90
164
103
170
108
34
167
40
25
55
67
105
134
92
155
64
24
74
72
136
147
15
10
63
19
165
126
50
80
172
125
111
154
56
36
128
169
129
156
13
17
124
118
162
171
82
168
39
4
160
122
100
132
7
54
71
138
42
153
30
48
135
31
140
47
59
3
45
104
133
26
29
112
37
73
21
35
176
130
157
61
76
32
115
123
144
43
75
81
38
27
159
139
84
6
114
99
41
95
94
102
91
85
8
175
93
116
174
20
107
9
98
127
177
109
146
166
51
101
113
62
5
78
110
77
23
70
131
16
49
141
158
145
88
173
14
142
44
83
57
121

> <PUBCHEM_MMFF94_PARTIAL_CHARGES>
24
1 -0.57
10 0.3
11 0.3
12 0.3
13 0.3
14 0.69
15 0.48
16 0.57
17 0.01
18 0.34
19 -0.3
2 -0.57
20 0.26
21 0.08
22 0.28
3 -0.56
36 0.15
4 -0.66
40 0.15
5 -0.66
6 -0.66
7 0.05
8 -0.57
9 0.3

> <PUBCHEM_EFFECTIVE_ROTOR_COUNT>
6.2

> <PUBCHEM_PHARMACOPHORE_FEATURES>
7
1 1 acceptor
1 2 acceptor
1 3 acceptor
3 7 8 17 cation
5 4 5 9 10 14 rings
5 7 8 17 19 21 rings
6 4 6 9 11 12 13 rings

> <PUBCHEM_HEAVY_ATOM_COUNT>
22

> <PUBCHEM_ATOM_DEF_STEREO_COUNT>
1

> <PUBCHEM_ATOM_UDEF_STEREO_COUNT>
0

> <PUBCHEM_BOND_DEF_STEREO_COUNT>
0

> <PUBCHEM_BOND_UDEF_STEREO_COUNT>
0

> <PUBCHEM_ISOTOPIC_ATOM_COUNT>
0

> <PUBCHEM_COMPONENT_COUNT>
1

> <PUBCHEM_CACTVS_TAUTO_COUNT>
1

> <PUBCHEM_CONFORMER_ID>
052BFD7500000001

> <PUBCHEM_MMFF94_ENERGY>
41.967

> <PUBCHEM_FEATURE_SELFOVERLAP>
35.637

> <PUBCHEM_SHAPE_FINGERPRINT>
10378564 45 17703793570285331516
10498660 4 18343303677889701024
10554248 39 18122888851720813455
106641 1 10881695623901323828
10753850 27 10735870665227205189
11796584 16 13183020739446466445
12390115 104 18201445757801159409
12555020 224 13686294678106740133
12616971 3 17095231553917423958
12788726 201 17417533501716983305
12839892 36 10953454137575648929
12892183 10 12757416272629530454
13540713 5 18267280107125730323
13583140 156 14635130344212578402
1420 369 9655577409065618093
14251764 75 17169856576231527292
14341114 176 13912321287718052228
14341114 328 17022625290391751049
14366163 111 18273214192496224352
14573314 32 16845575305342894569
14790565 3 18269838623396239857
15183329 4 16845300401702875017
15342168 16 18113340795165285127
1601671 61 18408319969404062789
17857418 61 10952044546599506541
17862501 102 9367347046152047775
1813 80 11527954465083672394
18222031 100 9871751299565573674
19784866 34 18408600370454339842
200 152 13901918820728639730
20626108 58 9511452325754526903
20645477 70 16056889052392807220
21637258 2 13038914287697795172
22079108 93 16225771821894459113
2215653 11 16128374861471480245
23402539 116 18269547399122841668
23559900 14 14261055627797732050
293599 30 18412826867824591177
3004659 81 18342176618800929582
3472631 163 18410295847607416852
34797466 226 17417812906340186277
351380 3 11815903365995130444
392239 28 15502382227244613557
4340502 62 16370731400677872017
46194498 28 17129856364375940277
465052 167 9799402351857557681
474 4 17385441046688535842
4990 188 17704351091110024586
5104073 3 18186513306747013115
59682541 52 15985105159066744421
633830 44 18201426034414900972
76465 3 10592041349826378827
7970288 3 10519713267307156316
960060 61 15267341829655589128

> <PUBCHEM_SHAPE_MULTIPOLES>
410.24
13.86
2.38
1.33
6.61
0.49
-0.32
-11.99
-2.18
1.96
0.29
-1.87
-0.2
-0.95

> <PUBCHEM_SHAPE_SELFOVERLAP>
857.973

> <PUBCHEM_SHAPE_VOLUME>
232.3

> <PUBCHEM_COORDINATE_TYPE>
2
5
10

$$$$
