75536993
  -OEChem-12032416333D

 47 50  0     1  0  0  0  0  0999 V2000
   -3.9999   -0.5659    0.7543 S   0  0  0  0  0  0  0  0  0  0  0  0
    5.1654    3.4923   -0.1065 F   0  0  0  0  0  0  0  0  0  0  0  0
    1.8045   -2.4208   -2.0098 O   0  0  0  0  0  0  0  0  0  0  0  0
   -4.0715   -0.4867    2.1970 O   0  0  0  0  0  0  0  0  0  0  0  0
   -5.1001   -1.0977   -0.0199 O   0  0  0  0  0  0  0  0  0  0  0  0
   -0.0407   -2.2135   -0.5703 N   0  0  0  0  0  0  0  0  0  0  0  0
   -2.5617   -1.3865    0.3113 N   0  0  2  0  0  0  0  0  0  0  0  0
    2.0183   -1.9686    0.2945 N   0  0  0  0  0  0  0  0  0  0  0  0
   -0.2605   -2.0668    0.8558 C   0  0  2  0  0  0  0  0  0  0  0  0
   -1.3494   -1.0335    1.1232 C   0  0  0  0  0  0  0  0  0  0  0  0
    1.1170   -1.6942    1.3998 C   0  0  0  0  0  0  0  0  0  0  0  0
   -1.1715   -2.4280   -1.4519 C   0  0  0  0  0  0  0  0  0  0  0  0
   -2.2630   -1.4032   -1.1598 C   0  0  0  0  0  0  0  0  0  0  0  0
    1.3212   -2.2288   -0.9017 C   0  0  0  0  0  0  0  0  0  0  0  0
    3.4530   -1.8448    0.4274 C   0  0  0  0  0  0  0  0  0  0  0  0
   -3.6335    1.0482    0.1411 C   0  0  0  0  0  0  0  0  0  0  0  0
    3.9098   -0.4216    0.2852 C   0  0  0  0  0  0  0  0  0  0  0  0
   -3.9826    1.3943   -1.1643 C   0  0  0  0  0  0  0  0  0  0  0  0
   -2.9952    1.9778    0.9620 C   0  0  0  0  0  0  0  0  0  0  0  0
    4.2458    0.0805   -0.9721 C   0  0  0  0  0  0  0  0  0  0  0  0
    3.9981    0.3986    1.4100 C   0  0  0  0  0  0  0  0  0  0  0  0
   -3.6935    2.6701   -1.6488 C   0  0  0  0  0  0  0  0  0  0  0  0
   -2.7062    3.2536    0.4777 C   0  0  0  0  0  0  0  0  0  0  0  0
    4.6702    1.4024   -1.1046 C   0  0  0  0  0  0  0  0  0  0  0  0
    4.4225    1.7206    1.2776 C   0  0  0  0  0  0  0  0  0  0  0  0
   -3.0553    3.5996   -0.8278 C   0  0  0  0  0  0  0  0  0  0  0  0
    4.7587    2.2225    0.0204 C   0  0  0  0  0  0  0  0  0  0  0  0
   -0.5662   -3.0514    1.2322 H   0  0  0  0  0  0  0  0  0  0  0  0
   -1.5846   -1.0341    2.1919 H   0  0  0  0  0  0  0  0  0  0  0  0
   -0.9992   -0.0351    0.8390 H   0  0  0  0  0  0  0  0  0  0  0  0
    1.1904   -0.6336    1.6596 H   0  0  0  0  0  0  0  0  0  0  0  0
    1.3923   -2.3024    2.2667 H   0  0  0  0  0  0  0  0  0  0  0  0
   -1.5379   -3.4433   -1.2623 H   0  0  0  0  0  0  0  0  0  0  0  0
   -0.8434   -2.3733   -2.4945 H   0  0  0  0  0  0  0  0  0  0  0  0
   -3.1585   -1.6666   -1.7308 H   0  0  0  0  0  0  0  0  0  0  0  0
   -1.9093   -0.4172   -1.4790 H   0  0  0  0  0  0  0  0  0  0  0  0
    3.9274   -2.4588   -0.3477 H   0  0  0  0  0  0  0  0  0  0  0  0
    3.7569   -2.2652    1.3931 H   0  0  0  0  0  0  0  0  0  0  0  0
   -4.4794    0.6870   -1.8222 H   0  0  0  0  0  0  0  0  0  0  0  0
   -2.7113    1.7295    1.9807 H   0  0  0  0  0  0  0  0  0  0  0  0
    4.1810   -0.5473   -1.8568 H   0  0  0  0  0  0  0  0  0  0  0  0
    3.7397    0.0193    2.3951 H   0  0  0  0  0  0  0  0  0  0  0  0
   -3.9649    2.9396   -2.6653 H   0  0  0  0  0  0  0  0  0  0  0  0
   -2.2084    3.9773    1.1165 H   0  0  0  0  0  0  0  0  0  0  0  0
    4.9316    1.7938   -2.0833 H   0  0  0  0  0  0  0  0  0  0  0  0
    4.4913    2.3595    2.1531 H   0  0  0  0  0  0  0  0  0  0  0  0
   -2.8298    4.5928   -1.2050 H   0  0  0  0  0  0  0  0  0  0  0  0
  1  4  2  0  0  0  0
  1  5  2  0  0  0  0
  1  7  1  0  0  0  0
  1 16  1  0  0  0  0
  2 27  1  0  0  0  0
  3 14  2  0  0  0  0
  6  9  1  0  0  0  0
  6 12  1  0  0  0  0
  6 14  1  0  0  0  0
  7 10  1  0  0  0  0
  7 13  1  0  0  0  0
  8 11  1  0  0  0  0
  8 14  1  0  0  0  0
  8 15  1  0  0  0  0
  9 10  1  0  0  0  0
  9 11  1  0  0  0  0
  9 28  1  0  0  0  0
 10 29  1  0  0  0  0
 10 30  1  0  0  0  0
 11 31  1  0  0  0  0
 11 32  1  0  0  0  0
 12 13  1  0  0  0  0
 12 33  1  0  0  0  0
 12 34  1  0  0  0  0
 13 35  1  0  0  0  0
 13 36  1  0  0  0  0
 15 17  1  0  0  0  0
 15 37  1  0  0  0  0
 15 38  1  0  0  0  0
 16 18  2  0  0  0  0
 16 19  1  0  0  0  0
 17 20  2  0  0  0  0
 17 21  1  0  0  0  0
 18 22  1  0  0  0  0
 18 39  1  0  0  0  0
 19 23  2  0  0  0  0
 19 40  1  0  0  0  0
 20 24  1  0  0  0  0
 20 41  1  0  0  0  0
 21 25  2  0  0  0  0
 21 42  1  0  0  0  0
 22 26  2  0  0  0  0
 22 43  1  0  0  0  0
 23 26  1  0  0  0  0
 23 44  1  0  0  0  0
 24 27  2  0  0  0  0
 24 45  1  0  0  0  0
 25 27  1  0  0  0  0
 25 46  1  0  0  0  0
 26 47  1  0  0  0  0
M  END
> <PUBCHEM_COMPOUND_CID>
75536993

> <PUBCHEM_CONFORMER_RMSD>
0.8

> <PUBCHEM_CONFORMER_DIVERSEORDER>
1
65
40
63
54
13
67
46
37
29
45
71
72
35
32
56
47
28
17
5
51
9
52
34
42
21
69
50
57
24
27
73
41
39
59
53
19
61
3
68
44
12
66
8
16
43
36
20
64
31
33
38
58
22
7
30
62
74
60
11
15
49
14
10
6
18
70
25
48
75
23
2
55
26
4

> <PUBCHEM_MMFF94_PARTIAL_CHARGES>
36
1 1.45
10 0.36
11 0.3
12 0.3
13 0.36
14 0.69
15 0.44
16 -0.01
17 -0.14
18 -0.15
19 -0.15
2 -0.19
20 -0.15
21 -0.15
22 -0.15
23 -0.15
24 -0.15
25 -0.15
26 -0.15
27 0.19
3 -0.57
39 0.15
4 -0.65
40 0.15
41 0.15
42 0.15
43 0.15
44 0.15
45 0.15
46 0.15
47 0.15
5 -0.65
6 -0.66
7 -0.85
8 -0.66
9 0.3

> <PUBCHEM_EFFECTIVE_ROTOR_COUNT>
5.2

> <PUBCHEM_PHARMACOPHORE_FEATURES>
7
1 3 acceptor
1 4 acceptor
1 5 acceptor
5 6 8 9 11 14 rings
6 16 18 19 22 23 26 rings
6 17 20 21 24 25 27 rings
6 6 7 9 10 12 13 rings

> <PUBCHEM_HEAVY_ATOM_COUNT>
27

> <PUBCHEM_ATOM_DEF_STEREO_COUNT>
1

> <PUBCHEM_ATOM_UDEF_STEREO_COUNT>
0

> <PUBCHEM_BOND_DEF_STEREO_COUNT>
0

> <PUBCHEM_BOND_UDEF_STEREO_COUNT>
0

> <PUBCHEM_ISOTOPIC_ATOM_COUNT>
0

> <PUBCHEM_COMPONENT_COUNT>
1

> <PUBCHEM_CACTVS_TAUTO_COUNT>
1

> <PUBCHEM_CONFORMER_ID>
04809A6100000001

> <PUBCHEM_MMFF94_ENERGY>
54.5008

> <PUBCHEM_FEATURE_SELFOVERLAP>
35.638

> <PUBCHEM_SHAPE_FINGERPRINT>
10439779 11 17688013224874605256
10670039 82 18335994129284263764
10928967 22 11095882700521204692
11059048 146 17984716519155859200
11135609 149 16914554151581412318
12422481 6 18263624209735491074
12596602 18 16588307253906994752
12633257 1 15792011259564404270
12978246 48 18409726300626647320
13583140 156 18044943368099730587
13627167 48 18340502144085520596
14251764 38 18337390413902953276
14739800 52 18113890525056349803
14840074 17 18341621468323157233
14848178 5 9439411207263556094
14848178 96 18336824178600204904
14950920 106 17458052760126885602
14957384 54 18191577549835466059
15163728 17 18201168753564040518
15575132 122 18410292540598487253
15961568 22 18335987561688463245
16992787 43 18409442563220387693
17868525 174 17972872558769017314
19315092 285 15504651752229704035
20764821 26 18125989710207809416
21033648 144 18271807977523074042
21095088 737 18339349774310822781
21315764 268 18262234396366594703
21458453 9 17689198580489143561
21475661 188 18189892015789733148
21623110 236 18410858724942162601
21641784 216 17914595388421740343
21734292 116 18339078297707032896
21860390 5 17839175213005883182
21864079 5 18335693945155529442
22907989 373 18059560357699825303
22956985 138 16310228896607145211
23398203 216 17837789837056544841
23559900 14 17910669869643546971
325973 47 18194678172974596980
341906 21 17894919494381742558
3459 39 17915156105582699784
44062 13 11239998953843271489
497634 4 17632584864049671243
5081480 168 17271751402626668910
5486654 36 8213871426308086334
6086070 43 18047747096643262030
6608658 132 18052248789663135254
7808743 9 18196371648893375152

> <PUBCHEM_SHAPE_MULTIPOLES>
519.67
11.78
4.3
1.69
5.69
2.76
-0.06
8.79
0.37
-0.23
-1
-0.39
-0.32
1

> <PUBCHEM_SHAPE_SELFOVERLAP>
1107.641

> <PUBCHEM_SHAPE_VOLUME>
291.3

> <PUBCHEM_COORDINATE_TYPE>
2
5
10

$$$$
