11883052
  -OEChem-12032416123D

 73 77  0     1  0  0  0  0  0999 V2000
   -0.0795    2.7206    0.5765 S   0  0  0  0  0  0  0  0  0  0  0  0
    3.8515    3.5998   -0.5958 F   0  0  0  0  0  0  0  0  0  0  0  0
    5.6372   -0.6513    0.5438 F   0  0  0  0  0  0  0  0  0  0  0  0
   -7.5179    0.5370   -0.6597 O   0  0  0  0  0  0  0  0  0  0  0  0
   -7.1708    1.9909    1.2138 O   0  0  0  0  0  0  0  0  0  0  0  0
    0.1855   -1.7724   -1.8822 O   0  0  0  0  0  0  0  0  0  0  0  0
    3.3038   -0.2944   -0.4888 O   0  0  0  0  0  0  0  0  0  0  0  0
    0.4219    0.3021   -0.1930 N   0  0  0  0  0  0  0  0  0  0  0  0
    0.9975   -3.0370   -0.1105 N   0  0  0  0  0  0  0  0  0  0  0  0
    2.3200    1.7395    0.1824 N   0  0  0  0  0  0  0  0  0  0  0  0
   -3.3460   -0.4464    0.1384 C   0  0  2  0  0  0  0  0  0  0  0  0
   -3.7553    1.0481   -0.2281 C   0  0  1  0  0  0  0  0  0  0  0  0
   -5.2871    1.4138   -0.1372 C   0  0  1  0  0  0  0  0  0  0  0  0
   -1.8767   -0.7092   -0.4321 C   0  0  1  0  0  0  0  0  0  0  0  0
   -4.3225   -1.4329   -0.5534 C   0  0  0  0  0  0  0  0  0  0  0  0
   -6.1212    0.3030   -0.8362 C   0  0  1  0  0  0  0  0  0  0  0  0
   -2.8218    2.0806    0.4686 C   0  0  0  0  0  0  0  0  0  0  0  0
   -5.7918   -1.0996   -0.3374 C   0  0  0  0  0  0  0  0  0  0  0  0
   -3.3626   -0.7177    1.6629 C   0  0  0  0  0  0  0  0  0  0  0  0
   -0.9509    0.4300   -0.0904 C   0  0  0  0  0  0  0  0  0  0  0  0
   -5.8009    1.6679    1.2972 C   0  0  0  0  0  0  0  0  0  0  0  0
   -5.5390    2.7381   -0.9122 C   0  0  0  0  0  0  0  0  0  0  0  0
   -1.3964    1.6784    0.2938 C   0  0  0  0  0  0  0  0  0  0  0  0
   -1.2715   -2.0628   -0.0366 C   0  0  0  0  0  0  0  0  0  0  0  0
    0.0322   -2.2724   -0.7648 C   0  0  0  0  0  0  0  0  0  0  0  0
    0.9834    1.4437    0.1413 C   0  0  0  0  0  0  0  0  0  0  0  0
    2.2888   -3.2873   -0.7543 C   0  0  0  0  0  0  0  0  0  0  0  0
    0.8611   -3.6066    1.2360 C   0  0  0  0  0  0  0  0  0  0  0  0
    2.5901   -4.7824   -0.8099 C   0  0  0  0  0  0  0  0  0  0  0  0
    1.1362   -5.1086    1.2193 C   0  0  0  0  0  0  0  0  0  0  0  0
    2.4866   -5.4190    0.5752 C   0  0  0  0  0  0  0  0  0  0  0  0
    3.3820    0.8746   -0.1275 C   0  0  0  0  0  0  0  0  0  0  0  0
    4.7399    1.4723   -0.0263 C   0  0  0  0  0  0  0  0  0  0  0  0
    4.8931    2.8208   -0.2707 C   0  0  0  0  0  0  0  0  0  0  0  0
    5.8014    0.6583    0.3086 C   0  0  0  0  0  0  0  0  0  0  0  0
    6.1668    3.3813   -0.1758 C   0  0  0  0  0  0  0  0  0  0  0  0
    7.0751    1.2189    0.4036 C   0  0  0  0  0  0  0  0  0  0  0  0
    7.2578    2.5803    0.1613 C   0  0  0  0  0  0  0  0  0  0  0  0
   -3.5252    1.1285   -1.3050 H   0  0  0  0  0  0  0  0  0  0  0  0
   -1.9679   -0.6846   -1.5289 H   0  0  0  0  0  0  0  0  0  0  0  0
   -4.1462   -2.4573   -0.2048 H   0  0  0  0  0  0  0  0  0  0  0  0
   -4.1305   -1.4414   -1.6346 H   0  0  0  0  0  0  0  0  0  0  0  0
   -5.9293    0.3268   -1.9175 H   0  0  0  0  0  0  0  0  0  0  0  0
   -3.0438    2.1471    1.5390 H   0  0  0  0  0  0  0  0  0  0  0  0
   -2.9706    3.0760    0.0373 H   0  0  0  0  0  0  0  0  0  0  0  0
   -6.4119   -1.8271   -0.8768 H   0  0  0  0  0  0  0  0  0  0  0  0
   -6.0738   -1.2137    0.7152 H   0  0  0  0  0  0  0  0  0  0  0  0
   -4.3396   -0.5613    2.1130 H   0  0  0  0  0  0  0  0  0  0  0  0
   -3.1179   -1.7630    1.8820 H   0  0  0  0  0  0  0  0  0  0  0  0
   -2.6446   -0.0982    2.2077 H   0  0  0  0  0  0  0  0  0  0  0  0
   -5.7341    0.7903    1.9337 H   0  0  0  0  0  0  0  0  0  0  0  0
   -5.2752    2.4876    1.7969 H   0  0  0  0  0  0  0  0  0  0  0  0
   -5.0797    3.5948   -0.4078 H   0  0  0  0  0  0  0  0  0  0  0  0
   -5.1148    2.6847   -1.9218 H   0  0  0  0  0  0  0  0  0  0  0  0
   -6.6002    2.9764   -1.0334 H   0  0  0  0  0  0  0  0  0  0  0  0
   -1.1086   -2.0200    1.0388 H   0  0  0  0  0  0  0  0  0  0  0  0
   -1.9304   -2.9019   -0.2747 H   0  0  0  0  0  0  0  0  0  0  0  0
   -7.7793    1.2594   -1.2541 H   0  0  0  0  0  0  0  0  0  0  0  0
   -7.2466    2.9499    1.0750 H   0  0  0  0  0  0  0  0  0  0  0  0
    3.0546   -2.7813   -0.1568 H   0  0  0  0  0  0  0  0  0  0  0  0
    2.3152   -2.8626   -1.7624 H   0  0  0  0  0  0  0  0  0  0  0  0
   -0.1252   -3.4685    1.6731 H   0  0  0  0  0  0  0  0  0  0  0  0
    1.5820   -3.0903    1.8809 H   0  0  0  0  0  0  0  0  0  0  0  0
    2.5272    2.6876    0.4839 H   0  0  0  0  0  0  0  0  0  0  0  0
    1.8771   -5.2724   -1.4845 H   0  0  0  0  0  0  0  0  0  0  0  0
    3.5922   -4.9461   -1.2213 H   0  0  0  0  0  0  0  0  0  0  0  0
    1.1127   -5.5038    2.2409 H   0  0  0  0  0  0  0  0  0  0  0  0
    0.3444   -5.6174    0.6553 H   0  0  0  0  0  0  0  0  0  0  0  0
    2.6214   -6.5035    0.4973 H   0  0  0  0  0  0  0  0  0  0  0  0
    3.2929   -5.0386    1.2142 H   0  0  0  0  0  0  0  0  0  0  0  0
    6.3088    4.4413   -0.3645 H   0  0  0  0  0  0  0  0  0  0  0  0
    7.9245    0.5952    0.6662 H   0  0  0  0  0  0  0  0  0  0  0  0
    8.2496    3.0167    0.2353 H   0  0  0  0  0  0  0  0  0  0  0  0
  1 23  1  0  0  0  0
  1 26  1  0  0  0  0
  2 34  1  0  0  0  0
  3 35  1  0  0  0  0
  4 16  1  0  0  0  0
  4 58  1  0  0  0  0
  5 21  1  0  0  0  0
  5 59  1  0  0  0  0
  6 25  2  0  0  0  0
  7 32  2  0  0  0  0
  8 20  1  0  0  0  0
  8 26  2  0  0  0  0
  9 25  1  0  0  0  0
  9 27  1  0  0  0  0
  9 28  1  0  0  0  0
 10 26  1  0  0  0  0
 10 32  1  0  0  0  0
 10 64  1  0  0  0  0
 11 12  1  0  0  0  0
 11 14  1  0  0  0  0
 11 15  1  0  0  0  0
 11 19  1  0  0  0  0
 12 13  1  0  0  0  0
 12 17  1  0  0  0  0
 12 39  1  0  0  0  0
 13 16  1  0  0  0  0
 13 21  1  0  0  0  0
 13 22  1  0  0  0  0
 14 20  1  0  0  0  0
 14 24  1  0  0  0  0
 14 40  1  0  0  0  0
 15 18  1  0  0  0  0
 15 41  1  0  0  0  0
 15 42  1  0  0  0  0
 16 18  1  0  0  0  0
 16 43  1  0  0  0  0
 17 23  1  0  0  0  0
 17 44  1  0  0  0  0
 17 45  1  0  0  0  0
 18 46  1  0  0  0  0
 18 47  1  0  0  0  0
 19 48  1  0  0  0  0
 19 49  1  0  0  0  0
 19 50  1  0  0  0  0
 20 23  2  0  0  0  0
 21 51  1  0  0  0  0
 21 52  1  0  0  0  0
 22 53  1  0  0  0  0
 22 54  1  0  0  0  0
 22 55  1  0  0  0  0
 24 25  1  0  0  0  0
 24 56  1  0  0  0  0
 24 57  1  0  0  0  0
 27 29  1  0  0  0  0
 27 60  1  0  0  0  0
 27 61  1  0  0  0  0
 28 30  1  0  0  0  0
 28 62  1  0  0  0  0
 28 63  1  0  0  0  0
 29 31  1  0  0  0  0
 29 65  1  0  0  0  0
 29 66  1  0  0  0  0
 30 31  1  0  0  0  0
 30 67  1  0  0  0  0
 30 68  1  0  0  0  0
 31 69  1  0  0  0  0
 31 70  1  0  0  0  0
 32 33  1  0  0  0  0
 33 34  2  0  0  0  0
 33 35  1  0  0  0  0
 34 36  1  0  0  0  0
 35 37  2  0  0  0  0
 36 38  2  0  0  0  0
 36 71  1  0  0  0  0
 37 38  1  0  0  0  0
 37 72  1  0  0  0  0
 38 73  1  0  0  0  0
M  END
> <PUBCHEM_COMPOUND_CID>
11883052

> <PUBCHEM_CONFORMER_RMSD>
1

> <PUBCHEM_CONFORMER_DIVERSEORDER>
1
14
9
6
13
12
5
10
8
15
4
7
3
11
2

> <PUBCHEM_MMFF94_PARTIAL_CHARGES>
34
1 -0.08
10 -0.49
14 0.18
16 0.28
17 0.18
2 -0.19
20 0.05
21 0.28
23 -0.14
24 0.06
25 0.57
26 0.44
27 0.3
28 0.3
3 -0.19
32 0.54
33 0.09
34 0.19
35 0.19
36 -0.15
37 -0.15
38 -0.15
4 -0.68
5 -0.68
58 0.4
59 0.4
6 -0.57
64 0.37
7 -0.57
71 0.15
72 0.15
73 0.15
8 -0.57
9 -0.66

> <PUBCHEM_EFFECTIVE_ROTOR_COUNT>
9.4

> <PUBCHEM_PHARMACOPHORE_FEATURES>
12
1 10 donor
1 4 acceptor
1 4 donor
1 5 acceptor
1 5 donor
1 6 acceptor
1 7 acceptor
5 1 8 20 23 26 rings
6 11 12 13 15 16 18 rings
6 11 12 14 17 20 23 rings
6 33 34 35 36 37 38 rings
6 9 27 28 29 30 31 rings

> <PUBCHEM_HEAVY_ATOM_COUNT>
38

> <PUBCHEM_ATOM_DEF_STEREO_COUNT>
5

> <PUBCHEM_ATOM_UDEF_STEREO_COUNT>
0

> <PUBCHEM_BOND_DEF_STEREO_COUNT>
0

> <PUBCHEM_BOND_UDEF_STEREO_COUNT>
0

> <PUBCHEM_ISOTOPIC_ATOM_COUNT>
0

> <PUBCHEM_COMPONENT_COUNT>
1

> <PUBCHEM_CACTVS_TAUTO_COUNT>
3

> <PUBCHEM_CONFORMER_ID>
00B5522C00000001

> <PUBCHEM_MMFF94_ENERGY>
116.83

> <PUBCHEM_FEATURE_SELFOVERLAP>
61.043

> <PUBCHEM_SHAPE_FINGERPRINT>
10050765 1 18194681454782856549
10675989 125 18341055138288775456
10940486 97 17829331629121438964
11007060 377 18127127713015169088
11135609 187 18341328984944645704
11135926 11 18411132520427488917
11136131 41 18335412431667116426
11578080 2 17533200978497974263
11719270 70 18411694392449464384
11763715 3 17258238271478004238
12058002 1 17532964651648305132
12977781 61 17896343370772806395
13540713 5 17986956246369798049
1361 2 18409449176910191464
14028597 1 17846234245307434697
14117953 113 18410295835282009220
14190465 44 18052809532468453688
14394314 77 18413109476214492393
14725015 67 17908704278240340707
14790565 3 18338517546476082836
15064981 194 17828495987705336772
15183329 4 18409163341898830985
15320294 125 18115004391620006266
15347590 135 18267882721365368699
15347591 1 18265612092784010061
15400415 2 18338233898984612972
15439362 3 18335980866472563585
15815584 197 18266763370703305575
15890870 6 18410855507911327236
15927050 60 18413105091332418983
16067689 302 18413672423006881671
16719943 64 18338514274407043274
16993438 75 17972884932137534058
18608769 82 18266180707509410923
19315958 150 18336549305837846645
19319366 153 18413102853574608926
20028762 73 18341891866953868214
20554085 129 18059560413286441904
20642791 35 18269563740688134366
21133665 82 18340207497060797558
21360443 120 18408886239583202470
22311459 1 18411981364932235537
23559900 14 18121493553964120587
244849 19 17824569421118044019
249057 3 18409730708070299020
3178227 256 18340216305479708481
3383291 50 18194399120443344114
3411729 13 18341614776273746615
4017518 198 18272377512194156534
4058900 60 18336269023943795610
4073 2 18409453596542477595
5109719 28 18411145735498299523
5265222 85 18266177421152885368
5385378 56 18339931424319670777
6036956 94 17544475714285011316
6371380 46 18271239555913323312
6376802 90 17895187763404799391
6669772 16 18334296431691344547
6679774 75 18263061336875795122
99344 41 18411696578324210284
9981440 41 18262525895691953859

> <PUBCHEM_SHAPE_MULTIPOLES>
732.9
17.67
6.27
1.09
0.57
9.49
0.11
-17.95
0.28
-8.24
0.67
0.81
0.48
-0.56

> <PUBCHEM_SHAPE_SELFOVERLAP>
1569.286

> <PUBCHEM_SHAPE_VOLUME>
408.1

> <PUBCHEM_COORDINATE_TYPE>
2
5
10

$$$$
