38029729
  -OEChem-12032416143D

 65 66  0     1  0  0  0  0  0999 V2000
   -0.3658    3.3440    1.3174 S   0  0  0  0  0  0  0  0  0  0  0  0
   -0.0091   -3.1858    0.7358 O   0  0  0  0  0  0  0  0  0  0  0  0
   -1.9580   -4.4201    0.7807 O   0  0  0  0  0  0  0  0  0  0  0  0
   -0.2840    3.3799    2.7651 O   0  0  0  0  0  0  0  0  0  0  0  0
   -0.4062    4.5792    0.5583 O   0  0  0  0  0  0  0  0  0  0  0  0
    4.8316   -1.1944    1.1034 O   0  0  0  0  0  0  0  0  0  0  0  0
   -1.6768    2.3602    0.8527 N   0  0  0  0  0  0  0  0  0  0  0  0
    4.2754    0.2123   -0.7051 N   0  0  0  0  0  0  0  0  0  0  0  0
   -1.7281    0.1935   -1.2167 C   0  0  1  0  0  0  0  0  0  0  0  0
   -2.8699    1.2044   -0.9444 C   0  0  1  0  0  0  0  0  0  0  0  0
   -2.2833   -1.2374   -1.2834 C   0  0  0  0  0  0  0  0  0  0  0  0
   -2.9972   -1.6465    0.0188 C   0  0  2  0  0  0  0  0  0  0  0  0
   -0.9768    0.5191   -2.5114 C   0  0  0  0  0  0  0  0  0  0  0  0
   -3.9515   -0.5721    0.4992 C   0  0  0  0  0  0  0  0  0  0  0  0
   -3.8881    0.6932    0.0476 C   0  0  0  0  0  0  0  0  0  0  0  0
   -2.3147    2.5486   -0.4596 C   0  0  0  0  0  0  0  0  0  0  0  0
   -1.9865   -2.0113    1.1117 C   0  0  0  0  0  0  0  0  0  0  0  0
   -1.9204    0.4436   -3.7074 C   0  0  0  0  0  0  0  0  0  0  0  0
    0.2047   -0.4283   -2.6938 C   0  0  0  0  0  0  0  0  0  0  0  0
   -5.0111   -0.9959    1.4780 C   0  0  0  0  0  0  0  0  0  0  0  0
   -1.3589   -3.3565    0.8599 C   0  0  0  0  0  0  0  0  0  0  0  0
    1.0123    2.4141    0.7168 C   0  0  0  0  0  0  0  0  0  0  0  0
    0.7427   -4.3789    0.4915 C   0  0  0  0  0  0  0  0  0  0  0  0
    1.6211    1.4622    1.5349 C   0  0  0  0  0  0  0  0  0  0  0  0
    1.4912    2.6322   -0.5751 C   0  0  0  0  0  0  0  0  0  0  0  0
    2.7086    0.7283    1.0610 C   0  0  0  0  0  0  0  0  0  0  0  0
    2.5790    1.8986   -1.0489 C   0  0  0  0  0  0  0  0  0  0  0  0
    2.2098   -4.0231    0.3797 C   0  0  0  0  0  0  0  0  0  0  0  0
    3.1877    0.9467   -0.2309 C   0  0  0  0  0  0  0  0  0  0  0  0
    5.0085   -0.7772   -0.0366 C   0  0  0  0  0  0  0  0  0  0  0  0
    6.1137   -1.3326   -0.8994 C   0  0  0  0  0  0  0  0  0  0  0  0
   -1.0027    0.2332   -0.3956 H   0  0  0  0  0  0  0  0  0  0  0  0
   -3.4496    1.4018   -1.8495 H   0  0  0  0  0  0  0  0  0  0  0  0
   -1.5044   -1.9727   -1.5045 H   0  0  0  0  0  0  0  0  0  0  0  0
   -3.0275   -1.3234   -2.0842 H   0  0  0  0  0  0  0  0  0  0  0  0
   -3.5947   -2.5370   -0.2220 H   0  0  0  0  0  0  0  0  0  0  0  0
   -0.5727    1.5350   -2.4588 H   0  0  0  0  0  0  0  0  0  0  0  0
   -4.6287    1.4121    0.3929 H   0  0  0  0  0  0  0  0  0  0  0  0
   -3.1272    3.2757   -0.3417 H   0  0  0  0  0  0  0  0  0  0  0  0
   -1.6114    2.9637   -1.1855 H   0  0  0  0  0  0  0  0  0  0  0  0
   -2.4617   -2.0912    2.0966 H   0  0  0  0  0  0  0  0  0  0  0  0
   -1.2130   -1.2432    1.2232 H   0  0  0  0  0  0  0  0  0  0  0  0
   -2.3450   -0.5497   -3.8730 H   0  0  0  0  0  0  0  0  0  0  0  0
   -1.3529    0.6755   -4.6181 H   0  0  0  0  0  0  0  0  0  0  0  0
   -2.7278    1.1774   -3.6797 H   0  0  0  0  0  0  0  0  0  0  0  0
   -0.0997   -1.4237   -3.0322 H   0  0  0  0  0  0  0  0  0  0  0  0
    0.7823   -0.5388   -1.7708 H   0  0  0  0  0  0  0  0  0  0  0  0
    0.8823   -0.0338   -3.4597 H   0  0  0  0  0  0  0  0  0  0  0  0
   -5.5892   -1.8329    1.0730 H   0  0  0  0  0  0  0  0  0  0  0  0
   -5.7163   -0.1868    1.6963 H   0  0  0  0  0  0  0  0  0  0  0  0
   -4.5662   -1.3070    2.4274 H   0  0  0  0  0  0  0  0  0  0  0  0
   -2.2584    1.9568    1.5971 H   0  0  0  0  0  0  0  0  0  0  0  0
    0.5938   -5.0805    1.3197 H   0  0  0  0  0  0  0  0  0  0  0  0
    0.4017   -4.8398   -0.4423 H   0  0  0  0  0  0  0  0  0  0  0  0
    1.2578    1.2724    2.5409 H   0  0  0  0  0  0  0  0  0  0  0  0
    1.0294    3.3640   -1.2316 H   0  0  0  0  0  0  0  0  0  0  0  0
    3.1252    0.0076    1.7506 H   0  0  0  0  0  0  0  0  0  0  0  0
    2.9397    2.0770   -2.0586 H   0  0  0  0  0  0  0  0  0  0  0  0
    2.8157   -4.9134    0.1902 H   0  0  0  0  0  0  0  0  0  0  0  0
    2.3716   -3.3053   -0.4316 H   0  0  0  0  0  0  0  0  0  0  0  0
    2.5616   -3.5447    1.2999 H   0  0  0  0  0  0  0  0  0  0  0  0
    4.5643    0.4297   -1.6566 H   0  0  0  0  0  0  0  0  0  0  0  0
    5.6849   -1.8152   -1.7821 H   0  0  0  0  0  0  0  0  0  0  0  0
    6.6894   -2.0710   -0.3345 H   0  0  0  0  0  0  0  0  0  0  0  0
    6.7827   -0.5259   -1.2120 H   0  0  0  0  0  0  0  0  0  0  0  0
  1  4  2  0  0  0  0
  1  5  2  0  0  0  0
  1  7  1  0  0  0  0
  1 22  1  0  0  0  0
  2 21  1  0  0  0  0
  2 23  1  0  0  0  0
  3 21  2  0  0  0  0
  6 30  2  0  0  0  0
  7 16  1  0  0  0  0
  7 52  1  0  0  0  0
  8 29  1  0  0  0  0
  8 30  1  0  0  0  0
  8 62  1  0  0  0  0
  9 10  1  0  0  0  0
  9 11  1  0  0  0  0
  9 13  1  0  0  0  0
  9 32  1  0  0  0  0
 10 15  1  0  0  0  0
 10 16  1  0  0  0  0
 10 33  1  0  0  0  0
 11 12  1  0  0  0  0
 11 34  1  0  0  0  0
 11 35  1  0  0  0  0
 12 14  1  0  0  0  0
 12 17  1  0  0  0  0
 12 36  1  0  0  0  0
 13 18  1  0  0  0  0
 13 19  1  0  0  0  0
 13 37  1  0  0  0  0
 14 15  2  0  0  0  0
 14 20  1  0  0  0  0
 15 38  1  0  0  0  0
 16 39  1  0  0  0  0
 16 40  1  0  0  0  0
 17 21  1  0  0  0  0
 17 41  1  0  0  0  0
 17 42  1  0  0  0  0
 18 43  1  0  0  0  0
 18 44  1  0  0  0  0
 18 45  1  0  0  0  0
 19 46  1  0  0  0  0
 19 47  1  0  0  0  0
 19 48  1  0  0  0  0
 20 49  1  0  0  0  0
 20 50  1  0  0  0  0
 20 51  1  0  0  0  0
 22 24  2  0  0  0  0
 22 25  1  0  0  0  0
 23 28  1  0  0  0  0
 23 53  1  0  0  0  0
 23 54  1  0  0  0  0
 24 26  1  0  0  0  0
 24 55  1  0  0  0  0
 25 27  2  0  0  0  0
 25 56  1  0  0  0  0
 26 29  2  0  0  0  0
 26 57  1  0  0  0  0
 27 29  1  0  0  0  0
 27 58  1  0  0  0  0
 28 59  1  0  0  0  0
 28 60  1  0  0  0  0
 28 61  1  0  0  0  0
 30 31  1  0  0  0  0
 31 63  1  0  0  0  0
 31 64  1  0  0  0  0
 31 65  1  0  0  0  0
M  END
> <PUBCHEM_COMPOUND_CID>
38029729

> <PUBCHEM_CONFORMER_RMSD>
1.2

> <PUBCHEM_CONFORMER_DIVERSEORDER>
2
146
29
107
124
18
105
11
101
91
121
55
14
53
26
73
92
134
122
143
90
42
23
140
60
119
5
110
83
157
115
12
4
135
159
32
111
86
65
116
24
71
34
45
76
147
22
33
148
137
132
38
66
79
50
31
120
100
114
40
97
84
56
125
103
160
47
129
1
117
155
9
67
7
138
44
25
74
41
99
88
141
20
61
54
6
15
28
62
142
51
133
75
87
139
96
113
158
78
123
27
128
85
52
145
131
150
94
39
69
130
3
127
46
49
151
63
58
108
48
64
136
21
70
112
30
82
144
118
43
102
149
72
106
109
80
59
8
10
36
152
126
35
13
93
57
68
81
154
77
17
89
156
37
19
16
95
104
98
153

> <PUBCHEM_MMFF94_PARTIAL_CHARGES>
32
1 1.45
10 0.14
12 0.14
14 -0.28
15 -0.29
16 0.36
17 0.06
2 -0.43
20 0.14
21 0.66
22 -0.01
23 0.28
24 -0.15
25 -0.15
26 -0.15
27 -0.15
29 0.12
3 -0.57
30 0.57
31 0.06
38 0.15
4 -0.65
5 -0.65
52 0.42
55 0.15
56 0.15
57 0.15
58 0.15
6 -0.57
62 0.37
7 -0.91
8 -0.55

> <PUBCHEM_EFFECTIVE_ROTOR_COUNT>
11.8

> <PUBCHEM_PHARMACOPHORE_FEATURES>
9
1 3 acceptor
1 4 acceptor
1 5 acceptor
1 6 acceptor
1 7 donor
1 8 donor
3 13 18 19 hydrophobe
6 22 24 25 26 27 29 rings
6 9 10 11 12 14 15 rings

> <PUBCHEM_HEAVY_ATOM_COUNT>
31

> <PUBCHEM_ATOM_DEF_STEREO_COUNT>
3

> <PUBCHEM_ATOM_UDEF_STEREO_COUNT>
0

> <PUBCHEM_BOND_DEF_STEREO_COUNT>
0

> <PUBCHEM_BOND_UDEF_STEREO_COUNT>
0

> <PUBCHEM_ISOTOPIC_ATOM_COUNT>
0

> <PUBCHEM_COMPONENT_COUNT>
1

> <PUBCHEM_CACTVS_TAUTO_COUNT>
2

> <PUBCHEM_CONFORMER_ID>
024449A100000002

> <PUBCHEM_MMFF94_ENERGY>
54.5208

> <PUBCHEM_FEATURE_SELFOVERLAP>
45.69

> <PUBCHEM_SHAPE_FINGERPRINT>
11513181 2 17698714805696932830
11756154 5 18409732876585236866
12156800 1 17326677591543359475
12403259 327 18125456434261634853
12422481 6 17416148095406571113
12539773 59 16834566754254231009
12633257 1 18270416004238938875
12712778 12 18265028324638854634
12788726 201 18200613439883382864
13122387 1 17833547899293707170
14114206 34 18267847437650037676
14251757 5 18335710463805517146
14279260 333 18126568921693507518
17974551 9 17842002384018856713
19930381 70 18409728444036731555
20764821 26 18337387270419604170
20775438 99 17119411102897595511
20775530 9 17900540391313161914
3027735 51 18197498424556867090
35225 105 18336266863501386655
469060 322 16525554491614933526
5283178 26 18335418023355605582
6287921 2 16534552392275482464

> <PUBCHEM_SHAPE_MULTIPOLES>
602.51
8.48
5.74
2.41
8.79
2.89
1.88
3.77
-0.27
-0.06
-3.3
-1.21
-1.04
0.68

> <PUBCHEM_SHAPE_SELFOVERLAP>
1218.792

> <PUBCHEM_SHAPE_VOLUME>
353.5

> <PUBCHEM_COORDINATE_TYPE>
2
5
10

$$$$
