26744523
  -OEChem-12032416193D

 45 48  0     1  0  0  0  0  0999 V2000
    5.9993   -1.2131    0.9045 O   0  0  0  0  0  0  0  0  0  0  0  0
    1.1300   -1.3217   -2.0563 O   0  0  0  0  0  0  0  0  0  0  0  0
   -3.7062    2.3488    1.1548 O   0  0  0  0  0  0  0  0  0  0  0  0
   -3.7872    2.9743   -1.0290 O   0  0  0  0  0  0  0  0  0  0  0  0
    2.9731    0.6330    0.4519 N   0  0  1  0  0  0  0  0  0  0  0  0
    0.5599   -1.0897    0.0973 N   0  0  0  0  0  0  0  0  0  0  0  0
   -0.1756   -1.8163   -1.9436 N   0  0  0  0  0  0  0  0  0  0  0  0
   -3.9072   -2.9560   -0.3349 N   0  0  0  0  0  0  0  0  0  0  0  0
    2.8765   -0.3309   -0.6631 C   0  0  1  0  0  0  0  0  0  0  0  0
    3.9419   -1.3990   -0.3537 C   0  0  0  0  0  0  0  0  0  0  0  0
    4.6149   -0.9250    0.9284 C   0  0  2  0  0  0  0  0  0  0  0  0
    4.3505    0.5687    0.9366 C   0  0  0  0  0  0  0  0  0  0  0  0
    2.5867    1.9867    0.0760 C   0  0  0  0  0  0  0  0  0  0  0  0
    1.4872   -0.9149   -0.8100 C   0  0  0  0  0  0  0  0  0  0  0  0
    1.0908    2.1545    0.0447 C   0  0  0  0  0  0  0  0  0  0  0  0
    0.4589    2.5545   -1.1328 C   0  0  0  0  0  0  0  0  0  0  0  0
    0.3369    1.9103    1.1926 C   0  0  0  0  0  0  0  0  0  0  0  0
   -0.4412   -1.6453   -0.6451 C   0  0  0  0  0  0  0  0  0  0  0  0
   -0.9269    2.7100   -1.1623 C   0  0  0  0  0  0  0  0  0  0  0  0
   -1.0489    2.0658    1.1629 C   0  0  0  0  0  0  0  0  0  0  0  0
   -1.6809    2.4655   -0.0145 C   0  0  0  0  0  0  0  0  0  0  0  0
   -1.6954   -2.0199   -0.0582 C   0  0  0  0  0  0  0  0  0  0  0  0
   -1.9376   -1.8290    1.2977 C   0  0  0  0  0  0  0  0  0  0  0  0
   -2.7037   -2.5820   -0.8244 C   0  0  0  0  0  0  0  0  0  0  0  0
   -3.1259    2.6266   -0.0450 C   0  0  0  0  0  0  0  0  0  0  0  0
   -3.1636   -2.2009    1.8382 C   0  0  0  0  0  0  0  0  0  0  0  0
   -4.1062   -2.7550    0.9873 C   0  0  0  0  0  0  0  0  0  0  0  0
    3.1541    0.1464   -1.6134 H   0  0  0  0  0  0  0  0  0  0  0  0
    3.5231   -2.4022   -0.2140 H   0  0  0  0  0  0  0  0  0  0  0  0
    4.6663   -1.4615   -1.1754 H   0  0  0  0  0  0  0  0  0  0  0  0
    4.1623   -1.4051    1.8047 H   0  0  0  0  0  0  0  0  0  0  0  0
    4.4559    0.9852    1.9438 H   0  0  0  0  0  0  0  0  0  0  0  0
    5.0541    1.0937    0.2768 H   0  0  0  0  0  0  0  0  0  0  0  0
    3.0469    2.2924   -0.8728 H   0  0  0  0  0  0  0  0  0  0  0  0
    2.9560    2.7014    0.8251 H   0  0  0  0  0  0  0  0  0  0  0  0
    6.0957   -2.1773    0.8230 H   0  0  0  0  0  0  0  0  0  0  0  0
    1.0335    2.7462   -2.0350 H   0  0  0  0  0  0  0  0  0  0  0  0
    0.8158    1.6023    2.1183 H   0  0  0  0  0  0  0  0  0  0  0  0
   -1.4004    3.0211   -2.0898 H   0  0  0  0  0  0  0  0  0  0  0  0
   -1.5971    1.8642    2.0789 H   0  0  0  0  0  0  0  0  0  0  0  0
   -1.1908   -1.3927    1.9560 H   0  0  0  0  0  0  0  0  0  0  0  0
   -2.5949   -2.7637   -1.8896 H   0  0  0  0  0  0  0  0  0  0  0  0
   -3.3749   -2.0610    2.8920 H   0  0  0  0  0  0  0  0  0  0  0  0
   -5.0782   -3.0616    1.3595 H   0  0  0  0  0  0  0  0  0  0  0  0
   -4.6804    2.4595    1.1234 H   0  0  0  0  0  0  0  0  0  0  0  0
  1 11  1  0  0  0  0
  1 36  1  0  0  0  0
  2  7  1  0  0  0  0
  2 14  1  0  0  0  0
  3 25  1  0  0  0  0
  3 45  1  0  0  0  0
  4 25  2  0  0  0  0
  5  9  1  0  0  0  0
  5 12  1  0  0  0  0
  5 13  1  0  0  0  0
  6 14  2  0  0  0  0
  6 18  1  0  0  0  0
  7 18  2  0  0  0  0
  8 24  1  0  0  0  0
  8 27  2  0  0  0  0
  9 10  1  0  0  0  0
  9 14  1  0  0  0  0
  9 28  1  0  0  0  0
 10 11  1  0  0  0  0
 10 29  1  0  0  0  0
 10 30  1  0  0  0  0
 11 12  1  0  0  0  0
 11 31  1  0  0  0  0
 12 32  1  0  0  0  0
 12 33  1  0  0  0  0
 13 15  1  0  0  0  0
 13 34  1  0  0  0  0
 13 35  1  0  0  0  0
 15 16  2  0  0  0  0
 15 17  1  0  0  0  0
 16 19  1  0  0  0  0
 16 37  1  0  0  0  0
 17 20  2  0  0  0  0
 17 38  1  0  0  0  0
 18 22  1  0  0  0  0
 19 21  2  0  0  0  0
 19 39  1  0  0  0  0
 20 21  1  0  0  0  0
 20 40  1  0  0  0  0
 21 25  1  0  0  0  0
 22 23  1  0  0  0  0
 22 24  2  0  0  0  0
 23 26  2  0  0  0  0
 23 41  1  0  0  0  0
 24 42  1  0  0  0  0
 26 27  1  0  0  0  0
 26 43  1  0  0  0  0
 27 44  1  0  0  0  0
M  END
> <PUBCHEM_COMPOUND_CID>
26744523

> <PUBCHEM_CONFORMER_RMSD>
0.8

> <PUBCHEM_CONFORMER_DIVERSEORDER>
1
37
44
70
3
46
85
77
24
16
63
66
93
91
72
50
75
48
4
76
78
12
83
84
26
74
94
51
86
49
82
5
104
95
98
15
39
73
54
28
62
53
13
81
90
38
19
89
61
21
87
103
105
47
60
96
43
45
52
35
23
7
36
2
18
69
67
34
20
32
64
42
40
10
65
101
25
56
97
11
79
31
102
99
71
30
88
6
57
33
59
8
100
92
27
14
68
29
22
58
9
41
55
17
80

> <PUBCHEM_MMFF94_PARTIAL_CHARGES>
36
1 -0.68
11 0.28
12 0.27
13 0.41
14 0.3
15 -0.14
16 -0.15
17 -0.15
18 0.46
19 -0.15
2 -0.02
20 -0.15
21 0.09
22 0.05
23 -0.15
24 0.16
25 0.63
26 -0.15
27 0.16
3 -0.65
36 0.4
37 0.15
38 0.15
39 0.15
4 -0.57
40 0.15
41 0.15
42 0.15
43 0.15
44 0.15
45 0.5
5 -0.81
6 -0.57
7 -0.41
8 -0.62
9 0.45

> <PUBCHEM_EFFECTIVE_ROTOR_COUNT>
6

> <PUBCHEM_PHARMACOPHORE_FEATURES>
12
1 1 acceptor
1 1 donor
1 3 acceptor
1 4 acceptor
1 5 cation
1 8 acceptor
3 3 4 25 anion
3 6 7 18 cation
5 2 6 7 14 18 rings
5 5 9 10 11 12 rings
6 15 16 17 19 20 21 rings
6 8 22 23 24 26 27 rings

> <PUBCHEM_HEAVY_ATOM_COUNT>
27

> <PUBCHEM_ATOM_DEF_STEREO_COUNT>
2

> <PUBCHEM_ATOM_UDEF_STEREO_COUNT>
0

> <PUBCHEM_BOND_DEF_STEREO_COUNT>
0

> <PUBCHEM_BOND_UDEF_STEREO_COUNT>
0

> <PUBCHEM_ISOTOPIC_ATOM_COUNT>
0

> <PUBCHEM_COMPONENT_COUNT>
1

> <PUBCHEM_CACTVS_TAUTO_COUNT>
1

> <PUBCHEM_CONFORMER_ID>
019816CB00000001

> <PUBCHEM_MMFF94_ENERGY>
62.9957

> <PUBCHEM_FEATURE_SELFOVERLAP>
60.954

> <PUBCHEM_SHAPE_FINGERPRINT>
10382601 240 17765445626812214104
104564 63 18269003161519464205
10688039 33 18189614024353246365
108634 29 18340772533529678255
11387372 6 17613704935379006178
12035758 1 18338813203988524681
12293681 25 17485949440387938078
12422481 6 18198086775300311715
12788726 201 18263934387562000098
13134695 92 18050846920806290095
13140716 1 18412542102955978232
13402501 40 18341896273495251513
13965767 371 17628372754576735610
14787075 74 17773579529997783864
14790565 3 17041199610792941189
14840074 17 17763174048964697176
14866123 147 18116985581944232642
17357779 13 18270668887433620423
20905425 154 18197512911465790557
21041028 32 18266173018578713951
21304304 249 17977097964547519150
22182313 1 17845387578399326406
23419403 2 17631714084662024424
23559900 14 16589701490507344575
24893992 56 18041549335715698247
3052486 1 18260554411076217048
4340502 62 18128257775178584945
484985 159 17751058246870385506
5104073 3 18267563794584566498
5283268 108 18266190602333092195
7064713 232 17345216530388502491

> <PUBCHEM_SHAPE_MULTIPOLES>
512.25
8.44
4.58
1.55
5.96
1.97
-0.14
-4.79
3.05
-5.31
-0.34
-0.38
-0.38
0.52

> <PUBCHEM_SHAPE_SELFOVERLAP>
1121.765

> <PUBCHEM_SHAPE_VOLUME>
277.5

> <PUBCHEM_COORDINATE_TYPE>
2
5
10

$$$$
