7050141
  -OEChem-12032416113D

 60 62  0     1  0  0  0  0  0999 V2000
   -6.8159   -0.2559   -0.1802 S   0  0  0  0  0  0  0  0  0  0  0  0
   -1.1087    3.9102    1.6181 O   0  0  0  0  0  0  0  0  0  0  0  0
    0.5348    4.1403   -1.6421 O   0  0  0  0  0  0  0  0  0  0  0  0
    2.6313    0.7479    2.0593 O   0  0  0  0  0  0  0  0  0  0  0  0
   -3.8038    2.0545   -1.1039 O   0  0  0  0  0  0  0  0  0  0  0  0
    5.3917    1.2509   -1.5787 O   0  0  0  0  0  0  0  0  0  0  0  0
   -0.4719   -4.5302    0.8336 O   0  0  0  0  0  0  0  0  0  0  0  0
   -2.2741    1.6219    0.5888 N   0  0  0  0  0  0  0  0  0  0  0  0
    3.1002    0.5762   -0.2179 N   0  0  0  0  0  0  0  0  0  0  0  0
    6.5988    0.1720    0.0508 N   0  0  0  0  0  0  0  0  0  0  0  0
   -0.9556    3.6754    0.2166 C   0  0  2  0  0  0  0  0  0  0  0  0
   -1.1183    2.1717   -0.0765 C   0  0  1  0  0  0  0  0  0  0  0  0
    0.4221    4.1879   -0.2212 C   0  0  1  0  0  0  0  0  0  0  0  0
    1.5684    3.3918    0.4259 C   0  0  0  0  0  0  0  0  0  0  0  0
    1.2877    1.9195    0.5289 C   0  0  0  0  0  0  0  0  0  0  0  0
    0.0912    1.3585    0.2983 C   0  0  0  0  0  0  0  0  0  0  0  0
    2.3960    1.0285    0.8844 C   0  0  0  0  0  0  0  0  0  0  0  0
    4.2366   -0.3113   -0.1191 C   0  0  1  0  0  0  0  0  0  0  0  0
   -3.5341    1.6101    0.0107 C   0  0  0  0  0  0  0  0  0  0  0  0
    4.0291   -1.6086   -0.9089 C   0  0  0  0  0  0  0  0  0  0  0  0
   -4.5862    0.9660    0.8919 C   0  0  0  0  0  0  0  0  0  0  0  0
    2.8250   -2.3899   -0.4424 C   0  0  0  0  0  0  0  0  0  0  0  0
    5.4442    0.4461   -0.6517 C   0  0  0  0  0  0  0  0  0  0  0  0
   -5.1548   -0.2320    0.1838 C   0  0  0  0  0  0  0  0  0  0  0  0
    2.9749   -3.3354    0.5594 C   0  0  0  0  0  0  0  0  0  0  0  0
    1.5911   -2.1480   -1.0255 C   0  0  0  0  0  0  0  0  0  0  0  0
   -4.4923   -1.3511   -0.2237 C   0  0  0  0  0  0  0  0  0  0  0  0
    1.8619   -4.0580    0.9897 C   0  0  0  0  0  0  0  0  0  0  0  0
    0.4782   -2.8704   -0.5951 C   0  0  0  0  0  0  0  0  0  0  0  0
    0.6136   -3.8254    0.4124 C   0  0  0  0  0  0  0  0  0  0  0  0
   -5.3745   -2.2704   -0.8613 C   0  0  0  0  0  0  0  0  0  0  0  0
   -6.6685   -1.8000   -0.9054 C   0  0  0  0  0  0  0  0  0  0  0  0
   -1.7181   -4.2427    0.2010 C   0  0  0  0  0  0  0  0  0  0  0  0
   -1.7482    4.2325   -0.2961 H   0  0  0  0  0  0  0  0  0  0  0  0
   -1.2604    2.0431   -1.1576 H   0  0  0  0  0  0  0  0  0  0  0  0
    0.5269    5.2395    0.0727 H   0  0  0  0  0  0  0  0  0  0  0  0
    2.4924    3.5473   -0.1442 H   0  0  0  0  0  0  0  0  0  0  0  0
    1.7420    3.7718    1.4405 H   0  0  0  0  0  0  0  0  0  0  0  0
   -0.0270    0.2792    0.3633 H   0  0  0  0  0  0  0  0  0  0  0  0
   -2.1587    1.2681    1.5344 H   0  0  0  0  0  0  0  0  0  0  0  0
   -0.5079    3.3211    2.1033 H   0  0  0  0  0  0  0  0  0  0  0  0
    1.4001    4.5137   -1.8813 H   0  0  0  0  0  0  0  0  0  0  0  0
    4.4015   -0.5517    0.9385 H   0  0  0  0  0  0  0  0  0  0  0  0
    2.8322    0.8987   -1.1441 H   0  0  0  0  0  0  0  0  0  0  0  0
    3.9220   -1.3877   -1.9801 H   0  0  0  0  0  0  0  0  0  0  0  0
    4.9261   -2.2384   -0.8378 H   0  0  0  0  0  0  0  0  0  0  0  0
   -4.1632    0.6491    1.8518 H   0  0  0  0  0  0  0  0  0  0  0  0
   -5.3450    1.7261    1.1106 H   0  0  0  0  0  0  0  0  0  0  0  0
    3.9426   -3.5216    1.0164 H   0  0  0  0  0  0  0  0  0  0  0  0
    1.4751   -1.4076   -1.8120 H   0  0  0  0  0  0  0  0  0  0  0  0
    6.6274   -0.4925    0.8174 H   0  0  0  0  0  0  0  0  0  0  0  0
    7.4745    0.6231   -0.1919 H   0  0  0  0  0  0  0  0  0  0  0  0
   -3.4321   -1.5100   -0.0860 H   0  0  0  0  0  0  0  0  0  0  0  0
    1.9735   -4.8001    1.7756 H   0  0  0  0  0  0  0  0  0  0  0  0
   -0.4614   -2.6379   -1.0847 H   0  0  0  0  0  0  0  0  0  0  0  0
   -5.0745   -3.2272   -1.2685 H   0  0  0  0  0  0  0  0  0  0  0  0
   -7.5342   -2.2891   -1.3294 H   0  0  0  0  0  0  0  0  0  0  0  0
   -1.6921   -4.4727   -0.8694 H   0  0  0  0  0  0  0  0  0  0  0  0
   -2.4701   -4.8983    0.6519 H   0  0  0  0  0  0  0  0  0  0  0  0
   -2.0288   -3.2142    0.4001 H   0  0  0  0  0  0  0  0  0  0  0  0
  1 24  1  0  0  0  0
  1 32  1  0  0  0  0
  2 11  1  0  0  0  0
  2 41  1  0  0  0  0
  3 13  1  0  0  0  0
  3 42  1  0  0  0  0
  4 17  2  0  0  0  0
  5 19  2  0  0  0  0
  6 23  2  0  0  0  0
  7 30  1  0  0  0  0
  7 33  1  0  0  0  0
  8 12  1  0  0  0  0
  8 19  1  0  0  0  0
  8 40  1  0  0  0  0
  9 17  1  0  0  0  0
  9 18  1  0  0  0  0
  9 44  1  0  0  0  0
 10 23  1  0  0  0  0
 10 51  1  0  0  0  0
 10 52  1  0  0  0  0
 11 12  1  0  0  0  0
 11 13  1  0  0  0  0
 11 34  1  0  0  0  0
 12 16  1  0  0  0  0
 12 35  1  0  0  0  0
 13 14  1  0  0  0  0
 13 36  1  0  0  0  0
 14 15  1  0  0  0  0
 14 37  1  0  0  0  0
 14 38  1  0  0  0  0
 15 16  2  0  0  0  0
 15 17  1  0  0  0  0
 16 39  1  0  0  0  0
 18 20  1  0  0  0  0
 18 23  1  0  0  0  0
 18 43  1  0  0  0  0
 19 21  1  0  0  0  0
 20 22  1  0  0  0  0
 20 45  1  0  0  0  0
 20 46  1  0  0  0  0
 21 24  1  0  0  0  0
 21 47  1  0  0  0  0
 21 48  1  0  0  0  0
 22 25  2  0  0  0  0
 22 26  1  0  0  0  0
 24 27  2  0  0  0  0
 25 28  1  0  0  0  0
 25 49  1  0  0  0  0
 26 29  2  0  0  0  0
 26 50  1  0  0  0  0
 27 31  1  0  0  0  0
 27 53  1  0  0  0  0
 28 30  2  0  0  0  0
 28 54  1  0  0  0  0
 29 30  1  0  0  0  0
 29 55  1  0  0  0  0
 31 32  2  0  0  0  0
 31 56  1  0  0  0  0
 32 57  1  0  0  0  0
 33 58  1  0  0  0  0
 33 59  1  0  0  0  0
 33 60  1  0  0  0  0
M  END
> <PUBCHEM_COMPOUND_CID>
7050141

> <PUBCHEM_CONFORMER_RMSD>
1.2

> <PUBCHEM_CONFORMER_DIVERSEORDER>
1
71
157
121
92
148
97
78
86
49
4
130
31
60
67
159
96
143
48
51
93
133
66
32
117
64
106
113
125
68
46
153
152
144
108
89
124
55
119
35
80
118
77
26
134
72
104
139
23
79
151
115
110
122
45
149
84
135
56
91
123
52
142
140
100
136
36
25
44
88
102
147
63
38
137
128
62
155
154
73
132
112
95
111
39
21
141
109
83
74
61
101
37
76
19
16
114
127
98
59
103
129
58
18
158
145
81
43
57
29
8
75
120
156
82
160
94
42
105
150
116
20
13
65
107
30
85
5
99
40
50
161
47
28
34
146
41
22
9
24
90
131
27
126
138
15
70
10
2
12
69
87
54
53
33
17
14
7
11
3
6

> <PUBCHEM_MMFF94_PARTIAL_CHARGES>
47
1 -0.08
10 -0.8
11 0.28
12 0.44
13 0.28
14 0.14
15 -0.12
16 -0.29
17 0.62
18 0.36
19 0.57
2 -0.68
20 0.14
21 0.24
22 -0.14
23 0.57
24 -0.14
25 -0.15
26 -0.15
27 -0.15
28 -0.15
29 -0.15
3 -0.68
30 0.08
31 -0.15
32 -0.11
33 0.28
39 0.15
4 -0.57
40 0.37
41 0.4
42 0.4
44 0.37
49 0.15
5 -0.57
50 0.15
51 0.37
52 0.37
53 0.15
54 0.15
55 0.15
56 0.15
57 0.15
6 -0.57
7 -0.36
8 -0.73
9 -0.73

> <PUBCHEM_EFFECTIVE_ROTOR_COUNT>
11.8

> <PUBCHEM_PHARMACOPHORE_FEATURES>
14
1 10 donor
1 2 acceptor
1 2 donor
1 3 acceptor
1 3 donor
1 4 acceptor
1 5 acceptor
1 6 acceptor
1 7 acceptor
1 8 donor
1 9 donor
5 1 24 27 31 32 rings
6 11 12 13 14 15 16 rings
6 22 25 26 28 29 30 rings

> <PUBCHEM_HEAVY_ATOM_COUNT>
33

> <PUBCHEM_ATOM_DEF_STEREO_COUNT>
4

> <PUBCHEM_ATOM_UDEF_STEREO_COUNT>
0

> <PUBCHEM_BOND_DEF_STEREO_COUNT>
0

> <PUBCHEM_BOND_UDEF_STEREO_COUNT>
0

> <PUBCHEM_ISOTOPIC_ATOM_COUNT>
0

> <PUBCHEM_COMPONENT_COUNT>
1

> <PUBCHEM_CACTVS_TAUTO_COUNT>
8

> <PUBCHEM_CONFORMER_ID>
006B939D00000001

> <PUBCHEM_MMFF94_ENERGY>
77.1211

> <PUBCHEM_FEATURE_SELFOVERLAP>
71.057

> <PUBCHEM_SHAPE_FINGERPRINT>
10316853 100 18340767139066506992
1100329 8 18266461095073282230
13383661 66 17559413369832517758
13402501 40 18412266155280352495
1361 2 18338234976393338873
13692114 37 17622429967301813352
14394314 77 18339368462035202905
144659 178 18337680822453636669
15250474 111 18050286968476336400
15320467 1 18410854399910134291
15351339 4 18335691737637915203
16114785 44 15545126012426353272
20028762 73 18273214239492892983
20764821 26 18265050237108532011
21133410 62 18261939792213626351
23559900 14 18267298910639875217
3246872 21 18412542098544907735
325973 47 18122908891695883211
338550 245 18340767164915347789
3882209 13 17325167799519369299
392239 28 18267308625080380202
437795 70 18130242543890129086
463206 1 18412548747386351555
5309563 4 18341048523833320333
5776283 40 18122071059498391668
6433294 58 17762620590387319979
66674814 147 18411701027841413459
86090 222 18272641381202823144

> <PUBCHEM_SHAPE_MULTIPOLES>
632.82
13.35
6.9
1.2
11.64
1
0.05
4.09
-3.49
-0.86
0.85
-0.46
-0.31
-0.95

> <PUBCHEM_SHAPE_SELFOVERLAP>
1324.902

> <PUBCHEM_SHAPE_VOLUME>
358.4

> <PUBCHEM_COORDINATE_TYPE>
2
5
10

$$$$
