75536110
  -OEChem-12032416293D

 45 47  0     1  0  0  0  0  0999 V2000
    2.9016    2.4124   -1.5585 O   0  0  0  0  0  0  0  0  0  0  0  0
    3.1557    3.8116    0.8201 O   0  0  0  0  0  0  0  0  0  0  0  0
   -6.3529   -0.2354    0.5670 O   0  0  0  0  0  0  0  0  0  0  0  0
   -0.1928    1.0192   -0.2832 N   0  0  0  0  0  0  0  0  0  0  0  0
    3.0260   -3.3186    0.6814 N   0  0  0  0  0  0  0  0  0  0  0  0
    1.2437    0.9824   -0.5655 C   0  0  2  0  0  0  0  0  0  0  0  0
    1.9955    0.3317    0.6368 C   0  0  2  0  0  0  0  0  0  0  0  0
    1.7957    2.4139   -0.6567 C   0  0  1  0  0  0  0  0  0  0  0  0
    2.9307    1.4248    1.1893 C   0  0  0  0  0  0  0  0  0  0  0  0
    2.2579    2.7218    0.7642 C   0  0  1  0  0  0  0  0  0  0  0  0
    2.7182   -0.9526    0.2912 C   0  0  0  0  0  0  0  0  0  0  0  0
   -0.8037   -0.2795   -0.5279 C   0  0  0  0  0  0  0  0  0  0  0  0
    3.7048   -0.9784   -0.6884 C   0  0  0  0  0  0  0  0  0  0  0  0
    2.4186   -2.1390    0.9411 C   0  0  0  0  0  0  0  0  0  0  0  0
   -2.2808   -0.2682   -0.2360 C   0  0  0  0  0  0  0  0  0  0  0  0
    4.3522   -2.1729   -0.9838 C   0  0  0  0  0  0  0  0  0  0  0  0
    3.9796   -3.3048   -0.2768 C   0  0  0  0  0  0  0  0  0  0  0  0
   -2.7317   -0.2994    1.0836 C   0  0  0  0  0  0  0  0  0  0  0  0
   -3.1983   -0.2261   -1.2857 C   0  0  0  0  0  0  0  0  0  0  0  0
   -4.1001   -0.2887    1.3535 C   0  0  0  0  0  0  0  0  0  0  0  0
   -4.5668   -0.2154   -1.0160 C   0  0  0  0  0  0  0  0  0  0  0  0
   -5.0177   -0.2467    0.3037 C   0  0  0  0  0  0  0  0  0  0  0  0
   -7.2353   -0.1920   -0.5536 C   0  0  0  0  0  0  0  0  0  0  0  0
    1.4253    0.4565   -1.5113 H   0  0  0  0  0  0  0  0  0  0  0  0
    1.2776    0.1081    1.4399 H   0  0  0  0  0  0  0  0  0  0  0  0
    1.0816    3.1583   -1.0239 H   0  0  0  0  0  0  0  0  0  0  0  0
    3.0321    1.3614    2.2787 H   0  0  0  0  0  0  0  0  0  0  0  0
    3.9484    1.3676    0.7843 H   0  0  0  0  0  0  0  0  0  0  0  0
    1.3974    2.9375    1.4089 H   0  0  0  0  0  0  0  0  0  0  0  0
   -0.6362    1.7072   -0.8925 H   0  0  0  0  0  0  0  0  0  0  0  0
   -0.3504   -1.0591    0.0954 H   0  0  0  0  0  0  0  0  0  0  0  0
   -0.6424   -0.5878   -1.5691 H   0  0  0  0  0  0  0  0  0  0  0  0
    2.5570    2.1978   -2.4421 H   0  0  0  0  0  0  0  0  0  0  0  0
    3.4709    3.8839    1.7372 H   0  0  0  0  0  0  0  0  0  0  0  0
    3.9834   -0.0812   -1.2322 H   0  0  0  0  0  0  0  0  0  0  0  0
    1.6588   -2.1858    1.7151 H   0  0  0  0  0  0  0  0  0  0  0  0
    5.1242   -2.2168   -1.7435 H   0  0  0  0  0  0  0  0  0  0  0  0
    4.4542   -4.2612   -0.4696 H   0  0  0  0  0  0  0  0  0  0  0  0
   -2.0262   -0.3327    1.9097 H   0  0  0  0  0  0  0  0  0  0  0  0
   -2.8602   -0.1990   -2.3183 H   0  0  0  0  0  0  0  0  0  0  0  0
   -4.4455   -0.3132    2.3834 H   0  0  0  0  0  0  0  0  0  0  0  0
   -5.2240   -0.1816   -1.8783 H   0  0  0  0  0  0  0  0  0  0  0  0
   -8.2571   -0.1892   -0.1603 H   0  0  0  0  0  0  0  0  0  0  0  0
   -7.1359   -1.0857   -1.1789 H   0  0  0  0  0  0  0  0  0  0  0  0
   -7.1113    0.7325   -1.1278 H   0  0  0  0  0  0  0  0  0  0  0  0
  1  8  1  0  0  0  0
  1 33  1  0  0  0  0
  2 10  1  0  0  0  0
  2 34  1  0  0  0  0
  3 22  1  0  0  0  0
  3 23  1  0  0  0  0
  4  6  1  0  0  0  0
  4 12  1  0  0  0  0
  4 30  1  0  0  0  0
  5 14  1  0  0  0  0
  5 17  2  0  0  0  0
  6  7  1  0  0  0  0
  6  8  1  0  0  0  0
  6 24  1  0  0  0  0
  7  9  1  0  0  0  0
  7 11  1  0  0  0  0
  7 25  1  0  0  0  0
  8 10  1  0  0  0  0
  8 26  1  0  0  0  0
  9 10  1  0  0  0  0
  9 27  1  0  0  0  0
  9 28  1  0  0  0  0
 10 29  1  0  0  0  0
 11 13  1  0  0  0  0
 11 14  2  0  0  0  0
 12 15  1  0  0  0  0
 12 31  1  0  0  0  0
 12 32  1  0  0  0  0
 13 16  2  0  0  0  0
 13 35  1  0  0  0  0
 14 36  1  0  0  0  0
 15 18  2  0  0  0  0
 15 19  1  0  0  0  0
 16 17  1  0  0  0  0
 16 37  1  0  0  0  0
 17 38  1  0  0  0  0
 18 20  1  0  0  0  0
 18 39  1  0  0  0  0
 19 21  2  0  0  0  0
 19 40  1  0  0  0  0
 20 22  2  0  0  0  0
 20 41  1  0  0  0  0
 21 22  1  0  0  0  0
 21 42  1  0  0  0  0
 23 43  1  0  0  0  0
 23 44  1  0  0  0  0
 23 45  1  0  0  0  0
M  END
> <PUBCHEM_COMPOUND_CID>
75536110

> <PUBCHEM_CONFORMER_RMSD>
0.8

> <PUBCHEM_CONFORMER_DIVERSEORDER>
2
26
59
45
66
13
49
36
25
30
71
44
56
55
12
57
64
60
29
11
72
34
19
70
6
8
39
61
27
33
24
62
47
4
18
14
7
51
65
54
35
41
50
28
15
53
68
37
42
48
17
10
67
58
16
63
23
52
40
46
31
38
5
43
9
69
22
32
21
20
3
1

> <PUBCHEM_MMFF94_PARTIAL_CHARGES>
33
1 -0.68
10 0.28
11 -0.14
12 0.41
13 -0.15
14 0.16
15 -0.14
16 -0.15
17 0.16
18 -0.15
19 -0.15
2 -0.68
20 -0.15
21 -0.15
22 0.08
23 0.28
3 -0.36
30 0.36
33 0.4
34 0.4
35 0.15
36 0.15
37 0.15
38 0.15
39 0.15
4 -0.9
40 0.15
41 0.15
42 0.15
5 -0.62
6 0.27
7 0.14
8 0.28

> <PUBCHEM_EFFECTIVE_ROTOR_COUNT>
6

> <PUBCHEM_PHARMACOPHORE_FEATURES>
11
1 1 acceptor
1 1 donor
1 2 acceptor
1 2 donor
1 3 acceptor
1 4 cation
1 4 donor
1 5 acceptor
5 6 7 8 9 10 rings
6 15 18 19 20 21 22 rings
6 5 11 13 14 16 17 rings

> <PUBCHEM_HEAVY_ATOM_COUNT>
23

> <PUBCHEM_ATOM_DEF_STEREO_COUNT>
4

> <PUBCHEM_ATOM_UDEF_STEREO_COUNT>
0

> <PUBCHEM_BOND_DEF_STEREO_COUNT>
0

> <PUBCHEM_BOND_UDEF_STEREO_COUNT>
0

> <PUBCHEM_ISOTOPIC_ATOM_COUNT>
0

> <PUBCHEM_COMPONENT_COUNT>
1

> <PUBCHEM_CACTVS_TAUTO_COUNT>
1

> <PUBCHEM_CONFORMER_ID>
048096EE00000002

> <PUBCHEM_MMFF94_ENERGY>
75.2852

> <PUBCHEM_FEATURE_SELFOVERLAP>
55.831

> <PUBCHEM_SHAPE_FINGERPRINT>
114674 6 18260261941247428146
11475781 23 16879319348087148647
11954058 11 17632304419300791550
12107183 9 17983867687910359577
12166972 35 17988642961182559243
12236239 1 17918274243107163907
12403259 327 15051152520476378998
12553582 1 18268703927243595518
12616971 3 17989202643114306607
13533116 47 18411703197147998609
13583140 156 18127976515176222163
13631057 29 18048321042725836790
13911852 28 18124596379598275511
13955234 65 18340486763438023880
14170010 4 18413386553597462944
14251764 30 17773041843701504774
14739800 52 16844998130357517624
14950920 106 18197246735706051059
15142526 21 17411604097296320152
17349148 13 17489584541945942951
17818456 19 17845659114753337193
17844677 252 18411419484625409773
1813 80 18128265493102512110
20157964 124 18338510941638879073
20369508 70 18409446960216722390
20388580 30 18336555919506564926
20645477 70 18334010609848644191
20832881 197 18262798437299972115
21344244 78 18059841849060022400
221357 26 18187365377008873575
2215653 11 18040433266334699359
2255824 54 18342175596392659990
23081809 10 17917993902423533207
23559900 14 17822300106242933279
239999 70 17676486185091446528
3004659 81 17489593363650422205
312423 11 18343032068642916321
3421961 26 18410290289972158146
345986 75 17986947457969840610
46194498 28 17675932005529582190
465052 167 18342461404749292703
495365 180 18335137647810953249
6823239 73 16877953762237995077
77188 2 18268993086280412168
8272917 22 18411134783416200860
8509985 295 16845567604503358859
9841814 1 18335127666734348866

> <PUBCHEM_SHAPE_MULTIPOLES>
445.76
13.15
3.49
1.29
25.27
0.97
0.02
-5.12
0.72
-8.38
-0.33
0.07
0.16
0.36

> <PUBCHEM_SHAPE_SELFOVERLAP>
949.198

> <PUBCHEM_SHAPE_VOLUME>
248.7

> <PUBCHEM_COORDINATE_TYPE>
2
5
10

$$$$
