11912772
  -OEChem-12032416363D

 62 67  0     1  0  0  0  0  0999 V2000
    2.0704   -1.0358    1.2947 O   0  0  0  0  0  0  0  0  0  0  0  0
    0.1181    1.3112    0.9901 O   0  0  0  0  0  0  0  0  0  0  0  0
    3.6434    1.0684    0.4010 O   0  0  0  0  0  0  0  0  0  0  0  0
    4.1863    0.8525   -1.8202 O   0  0  0  0  0  0  0  0  0  0  0  0
   -5.5338    3.0284   -0.8654 O   0  0  0  0  0  0  0  0  0  0  0  0
   -7.6049    2.5994    0.2896 O   0  0  0  0  0  0  0  0  0  0  0  0
   -0.7009   -2.2332    0.5516 N   0  0  0  0  0  0  0  0  0  0  0  0
    5.8281    0.9692   -0.1852 N   0  0  0  0  0  0  0  0  0  0  0  0
   -2.8384   -1.4059    0.1778 N   0  0  0  0  0  0  0  0  0  0  0  0
   -2.1679   -3.5627   -0.6622 N   0  0  0  0  0  0  0  0  0  0  0  0
    0.1732    0.0221    0.3437 C   0  0  1  0  0  0  0  0  0  0  0  0
    1.6392   -0.3027    0.1366 C   0  0  1  0  0  0  0  0  0  0  0  0
   -0.3089   -1.0520    1.2903 C   0  0  2  0  0  0  0  0  0  0  0  0
    2.2721    1.0667    0.0742 C   0  0  1  0  0  0  0  0  0  0  0  0
    0.9328   -1.3360    2.1177 C   0  0  0  0  0  0  0  0  0  0  0  0
    1.4476    1.8447    1.0749 C   0  0  0  0  0  0  0  0  0  0  0  0
    6.9864    0.8661   -1.0448 C   0  0  0  0  0  0  0  0  0  0  0  0
    8.1659    1.6630   -0.4775 C   0  0  0  0  0  0  0  0  0  0  0  0
    7.3684   -0.5991   -1.2812 C   0  0  0  0  0  0  0  0  0  0  0  0
    8.7736    1.0062    0.7618 C   0  0  0  0  0  0  0  0  0  0  0  0
    7.9773   -1.2522   -0.0405 C   0  0  0  0  0  0  0  0  0  0  0  0
    9.1558   -0.4473    0.4987 C   0  0  0  0  0  0  0  0  0  0  0  0
    4.5287    0.9536   -0.6467 C   0  0  0  0  0  0  0  0  0  0  0  0
   -1.9571   -2.4081   -0.0018 C   0  0  0  0  0  0  0  0  0  0  0  0
   -4.0525   -1.6097   -0.3741 C   0  0  0  0  0  0  0  0  0  0  0  0
   -3.4026   -3.7003   -1.1885 C   0  0  0  0  0  0  0  0  0  0  0  0
   -4.3947   -2.7479   -1.0753 C   0  0  0  0  0  0  0  0  0  0  0  0
   -4.9997   -0.5373   -0.1847 C   0  0  0  0  0  0  0  0  0  0  0  0
   -4.7083    0.7392   -0.6716 C   0  0  0  0  0  0  0  0  0  0  0  0
   -6.2080   -0.7875    0.4893 C   0  0  0  0  0  0  0  0  0  0  0  0
   -5.6441    1.7320   -0.4660 C   0  0  0  0  0  0  0  0  0  0  0  0
   -6.8268    1.4871    0.1935 C   0  0  0  0  0  0  0  0  0  0  0  0
   -7.1388    0.2359    0.6840 C   0  0  0  0  0  0  0  0  0  0  0  0
   -6.7800    3.5718   -0.3838 C   0  0  0  0  0  0  0  0  0  0  0  0
   -0.3855    0.1012   -0.5942 H   0  0  0  0  0  0  0  0  0  0  0  0
    1.8410   -0.9212   -0.7427 H   0  0  0  0  0  0  0  0  0  0  0  0
   -1.1145   -0.7239    1.9571 H   0  0  0  0  0  0  0  0  0  0  0  0
    2.0875    1.5090   -0.9146 H   0  0  0  0  0  0  0  0  0  0  0  0
    1.0047   -2.3693    2.4711 H   0  0  0  0  0  0  0  0  0  0  0  0
    0.9819   -0.6726    2.9884 H   0  0  0  0  0  0  0  0  0  0  0  0
    1.4281    2.9163    0.8548 H   0  0  0  0  0  0  0  0  0  0  0  0
    1.8134    1.7222    2.1005 H   0  0  0  0  0  0  0  0  0  0  0  0
   -0.0169   -2.9603    0.3755 H   0  0  0  0  0  0  0  0  0  0  0  0
    6.7102    1.3051   -2.0116 H   0  0  0  0  0  0  0  0  0  0  0  0
    8.9428    1.7471   -1.2482 H   0  0  0  0  0  0  0  0  0  0  0  0
    7.8517    2.6842   -0.2302 H   0  0  0  0  0  0  0  0  0  0  0  0
    6.4944   -1.1778   -1.6034 H   0  0  0  0  0  0  0  0  0  0  0  0
    8.0991   -0.6484   -2.0986 H   0  0  0  0  0  0  0  0  0  0  0  0
    8.0669    1.0542    1.5985 H   0  0  0  0  0  0  0  0  0  0  0  0
    9.6632    1.5667    1.0714 H   0  0  0  0  0  0  0  0  0  0  0  0
    8.3086   -2.2675   -0.2864 H   0  0  0  0  0  0  0  0  0  0  0  0
    7.2125   -1.3492    0.7397 H   0  0  0  0  0  0  0  0  0  0  0  0
    9.9807   -0.4816   -0.2236 H   0  0  0  0  0  0  0  0  0  0  0  0
    9.5233   -0.9054    1.4239 H   0  0  0  0  0  0  0  0  0  0  0  0
    5.9664    1.0123    0.8197 H   0  0  0  0  0  0  0  0  0  0  0  0
   -3.5778   -4.6279   -1.7229 H   0  0  0  0  0  0  0  0  0  0  0  0
   -5.3706   -2.9007   -1.5194 H   0  0  0  0  0  0  0  0  0  0  0  0
   -3.7830    0.9549   -1.1967 H   0  0  0  0  0  0  0  0  0  0  0  0
   -6.4358   -1.7790    0.8751 H   0  0  0  0  0  0  0  0  0  0  0  0
   -8.0709    0.0476    1.2044 H   0  0  0  0  0  0  0  0  0  0  0  0
   -6.5605    4.3887    0.3133 H   0  0  0  0  0  0  0  0  0  0  0  0
   -7.3387    3.9766   -1.2354 H   0  0  0  0  0  0  0  0  0  0  0  0
  1 12  1  0  0  0  0
  1 15  1  0  0  0  0
  2 11  1  0  0  0  0
  2 16  1  0  0  0  0
  3 14  1  0  0  0  0
  3 23  1  0  0  0  0
  4 23  2  0  0  0  0
  5 31  1  0  0  0  0
  5 34  1  0  0  0  0
  6 32  1  0  0  0  0
  6 34  1  0  0  0  0
  7 13  1  0  0  0  0
  7 24  1  0  0  0  0
  7 43  1  0  0  0  0
  8 17  1  0  0  0  0
  8 23  1  0  0  0  0
  8 55  1  0  0  0  0
  9 24  1  0  0  0  0
  9 25  2  0  0  0  0
 10 24  2  0  0  0  0
 10 26  1  0  0  0  0
 11 12  1  0  0  0  0
 11 13  1  0  0  0  0
 11 35  1  0  0  0  0
 12 14  1  0  0  0  0
 12 36  1  0  0  0  0
 13 15  1  0  0  0  0
 13 37  1  0  0  0  0
 14 16  1  0  0  0  0
 14 38  1  0  0  0  0
 15 39  1  0  0  0  0
 15 40  1  0  0  0  0
 16 41  1  0  0  0  0
 16 42  1  0  0  0  0
 17 18  1  0  0  0  0
 17 19  1  0  0  0  0
 17 44  1  0  0  0  0
 18 20  1  0  0  0  0
 18 45  1  0  0  0  0
 18 46  1  0  0  0  0
 19 21  1  0  0  0  0
 19 47  1  0  0  0  0
 19 48  1  0  0  0  0
 20 22  1  0  0  0  0
 20 49  1  0  0  0  0
 20 50  1  0  0  0  0
 21 22  1  0  0  0  0
 21 51  1  0  0  0  0
 21 52  1  0  0  0  0
 22 53  1  0  0  0  0
 22 54  1  0  0  0  0
 25 27  1  0  0  0  0
 25 28  1  0  0  0  0
 26 27  2  0  0  0  0
 26 56  1  0  0  0  0
 27 57  1  0  0  0  0
 28 29  2  0  0  0  0
 28 30  1  0  0  0  0
 29 31  1  0  0  0  0
 29 58  1  0  0  0  0
 30 33  2  0  0  0  0
 30 59  1  0  0  0  0
 31 32  2  0  0  0  0
 32 33  1  0  0  0  0
 33 60  1  0  0  0  0
 34 61  1  0  0  0  0
 34 62  1  0  0  0  0
M  END
> <PUBCHEM_COMPOUND_CID>
11912772

> <PUBCHEM_CONFORMER_RMSD>
1.2

> <PUBCHEM_CONFORMER_DIVERSEORDER>
1
79
74
112
54
11
92
23
61
39
90
30
70
48
24
95
109
28
104
97
93
107
49
100
98
88
44
4
64
58
42
71
7
37
15
76
62
57
91
19
80
82
18
87
114
69
17
33
110
46
86
14
56
75
108
6
67
36
41
26
50
105
73
68
32
81
31
53
77
51
113
65
78
106
10
40
43
85
60
25
55
63
12
5
34
66
101
52
47
16
96
27
103
2
84
9
115
20
45
35
89
72
38
102
8
59
111
21
13
29
83
22
94
3
99

> <PUBCHEM_MMFF94_PARTIAL_CHARGES>
35
1 -0.56
10 -0.62
11 0.28
12 0.28
13 0.37
14 0.28
15 0.28
16 0.28
17 0.3
2 -0.56
23 0.78
24 0.72
25 0.31
26 0.16
27 -0.15
29 -0.15
3 -0.43
30 -0.15
31 0.08
32 0.08
33 -0.15
34 0.56
4 -0.57
43 0.4
5 -0.36
55 0.37
56 0.15
57 0.15
58 0.15
59 0.15
6 -0.36
60 0.15
7 -0.87
8 -0.73
9 -0.62

> <PUBCHEM_EFFECTIVE_ROTOR_COUNT>
10

> <PUBCHEM_PHARMACOPHORE_FEATURES>
15
1 1 acceptor
1 2 acceptor
1 4 acceptor
1 5 acceptor
1 6 acceptor
1 7 donor
1 8 donor
1 9 acceptor
4 7 9 10 24 cation
5 1 11 12 13 15 rings
5 2 11 12 14 16 rings
5 5 6 31 32 34 rings
6 17 18 19 20 21 22 rings
6 28 29 30 31 32 33 rings
6 9 10 24 25 26 27 rings

> <PUBCHEM_HEAVY_ATOM_COUNT>
34

> <PUBCHEM_ATOM_DEF_STEREO_COUNT>
4

> <PUBCHEM_ATOM_UDEF_STEREO_COUNT>
0

> <PUBCHEM_BOND_DEF_STEREO_COUNT>
0

> <PUBCHEM_BOND_UDEF_STEREO_COUNT>
0

> <PUBCHEM_ISOTOPIC_ATOM_COUNT>
0

> <PUBCHEM_COMPONENT_COUNT>
1

> <PUBCHEM_CACTVS_TAUTO_COUNT>
6

> <PUBCHEM_CONFORMER_ID>
00B5C64400000001

> <PUBCHEM_MMFF94_ENERGY>
88.6205

> <PUBCHEM_FEATURE_SELFOVERLAP>
76.997

> <PUBCHEM_SHAPE_FINGERPRINT>
10 15 11097854107773878752
10165383 225 18201725051309186139
10372059 70 18201435849096116384
10577160 183 18409165485472069034
10670039 82 18410568518528430639
10674148 151 18186800293058028176
10864689 126 18341324510058851881
11103572 95 18343297038836235878
11135609 99 9727340334388352625
11135926 11 18114172021434115247
11146851 88 9727344711572255577
11181472 205 18041286547957024668
11211813 128 11458426829873968160
11211813 163 18412543206372046831
11273773 118 17603857897722235071
11475781 23 18272098179983905812
12082328 90 18260268598167187475
12120059 9 16845570912213934862
12144603 126 18114184164588425788
12539747 91 16773789291346817984
12655387 17 18265030511062694816
12664476 115 18273498983931479873
12758862 11 18060136561553362904
12857493 111 17489590069659447168
13761468 95 18114453458352590077
13914758 101 18335703862688637946
14294032 229 18040992878708765652
14856354 85 16805610308605423867
15183329 4 18409724097297732086
15230672 131 18411134714860722190
15297060 5 18272655619615657337
15328829 1 18334860494114629296
15419008 91 17846204618934665720
15419009 47 18412544344353627622
15439362 3 18268996380388693511
15444296 9 18186800245592134806
15475509 8 18113902680441635604
15684389 69 11312052158883669230
15890870 6 18412260598531570837
16628084 112 17823689773208875722
16992727 255 18410014329665156472
21133410 127 17900542277448046493
21223535 225 18335698360191869718
21458453 9 10737291272192900167
21756936 100 18113901593836275299
21781055 127 17631172987919157523
21987440 362 18192154794062483149
23389318 12 13039182624612322456
23559900 14 17703224147547209354
38570 142 17967533480116546499
4098825 35 18410012139295184758
4173938 306 17417804050697929094
444735 79 10665229254412672153
44575985 58 9943220676675216684
4461854 278 11242262822447539625
44880568 143 18268433602371153084
4516262 110 17967522463979158263
4760202 70 11383818395156346290
508180 173 18412546547751310368
5969126 39 14548747183122071362
6009941 240 18131634508224782342
636783 166 17822002078478582741
6523845 18 15285355154428261998
6697151 62 16056873659230162106
7808743 9 18411133654757621819
99344 41 18411699894661637118

> <PUBCHEM_SHAPE_MULTIPOLES>
644.56
28.11
3.61
1.28
39.22
0.87
-0.15
-14.44
3.96
-8.27
0.99
0.8
0.29
-0.61

> <PUBCHEM_SHAPE_SELFOVERLAP>
1414.042

> <PUBCHEM_SHAPE_VOLUME>
346.1

> <PUBCHEM_COORDINATE_TYPE>
2
5
10

$$$$
