45783430
  -OEChem-12032416203D

 57 60  0     1  0  0  0  0  0999 V2000
   -0.9220    0.2652    2.5510 O   0  0  0  0  0  0  0  0  0  0  0  0
   -3.2604    2.5930    1.2191 O   0  0  0  0  0  0  0  0  0  0  0  0
    0.5809    4.0651   -1.1876 O   0  0  0  0  0  0  0  0  0  0  0  0
    1.9479   -0.9731   -0.8754 O   0  0  0  0  0  0  0  0  0  0  0  0
    0.6663   -2.7844   -2.5812 O   0  0  0  0  0  0  0  0  0  0  0  0
   -2.8848   -1.1117   -0.0181 N   0  0  1  0  0  0  0  0  0  0  0  0
    0.0671   -1.0798    1.0578 N   0  0  0  0  0  0  0  0  0  0  0  0
    0.4430    0.5770    2.5901 N   0  0  0  0  0  0  0  0  0  0  0  0
    4.1400   -0.6952   -0.2088 N   0  0  0  0  0  0  0  0  0  0  0  0
   -2.4599   -1.2386    1.3903 C   0  0  1  0  0  0  0  0  0  0  0  0
   -2.5988   -2.7390    1.7071 C   0  0  0  0  0  0  0  0  0  0  0  0
   -3.1649   -3.3625    0.4392 C   0  0  0  0  0  0  0  0  0  0  0  0
   -3.8336   -2.1981   -0.2631 C   0  0  0  0  0  0  0  0  0  0  0  0
   -3.4527    0.1933   -0.3314 C   0  0  0  0  0  0  0  0  0  0  0  0
   -1.0567   -0.7192    1.6241 C   0  0  0  0  0  0  0  0  0  0  0  0
   -2.3847    1.2320   -0.5488 C   0  0  0  0  0  0  0  0  0  0  0  0
   -2.3390    2.3832    0.2376 C   0  0  0  0  0  0  0  0  0  0  0  0
   -1.4337    1.0330   -1.5498 C   0  0  0  0  0  0  0  0  0  0  0  0
    0.9589   -0.2572    1.6824 C   0  0  0  0  0  0  0  0  0  0  0  0
   -1.3425    3.3354    0.0229 C   0  0  0  0  0  0  0  0  0  0  0  0
   -0.4375    1.9853   -1.7647 C   0  0  0  0  0  0  0  0  0  0  0  0
    2.3600   -0.2950    1.3775 C   0  0  0  0  0  0  0  0  0  0  0  0
   -0.3918    3.1366   -0.9783 C   0  0  0  0  0  0  0  0  0  0  0  0
    2.8301   -0.6465    0.1224 C   0  0  0  0  0  0  0  0  0  0  0  0
    3.2941    0.0275    2.3556 C   0  0  0  0  0  0  0  0  0  0  0  0
    4.6507   -0.0108    2.0530 C   0  0  0  0  0  0  0  0  0  0  0  0
    5.0185   -0.3751    0.7677 C   0  0  0  0  0  0  0  0  0  0  0  0
    1.5209    3.7975   -2.2272 C   0  0  0  0  0  0  0  0  0  0  0  0
    2.5088   -1.3226   -2.1348 C   0  0  0  0  0  0  0  0  0  0  0  0
    1.3887   -1.6722   -3.0956 C   0  0  0  0  0  0  0  0  0  0  0  0
   -0.4128   -3.1431   -3.4329 C   0  0  0  0  0  0  0  0  0  0  0  0
   -3.1499   -0.6994    2.0548 H   0  0  0  0  0  0  0  0  0  0  0  0
   -1.6587   -3.2232    1.9927 H   0  0  0  0  0  0  0  0  0  0  0  0
   -3.3099   -2.8768    2.5310 H   0  0  0  0  0  0  0  0  0  0  0  0
   -3.8606   -4.1789    0.6542 H   0  0  0  0  0  0  0  0  0  0  0  0
   -2.3489   -3.7622   -0.1758 H   0  0  0  0  0  0  0  0  0  0  0  0
   -4.8130   -1.9934    0.1878 H   0  0  0  0  0  0  0  0  0  0  0  0
   -3.9668   -2.3960   -1.3311 H   0  0  0  0  0  0  0  0  0  0  0  0
   -4.1940    0.4982    0.4172 H   0  0  0  0  0  0  0  0  0  0  0  0
   -4.0096    0.1351   -1.2778 H   0  0  0  0  0  0  0  0  0  0  0  0
   -1.4604    0.1437   -2.1740 H   0  0  0  0  0  0  0  0  0  0  0  0
   -1.2995    4.2349    0.6320 H   0  0  0  0  0  0  0  0  0  0  0  0
    0.2689    1.7677   -2.5585 H   0  0  0  0  0  0  0  0  0  0  0  0
   -3.0693    3.4393    1.6585 H   0  0  0  0  0  0  0  0  0  0  0  0
    2.9951    0.3054    3.3632 H   0  0  0  0  0  0  0  0  0  0  0  0
    5.3969    0.2351    2.7998 H   0  0  0  0  0  0  0  0  0  0  0  0
    6.0639   -0.4208    0.4810 H   0  0  0  0  0  0  0  0  0  0  0  0
    2.2221    4.6380   -2.2533 H   0  0  0  0  0  0  0  0  0  0  0  0
    1.0351    3.7556   -3.2080 H   0  0  0  0  0  0  0  0  0  0  0  0
    2.1085    2.8973   -2.0162 H   0  0  0  0  0  0  0  0  0  0  0  0
    3.1596   -2.1977   -2.0146 H   0  0  0  0  0  0  0  0  0  0  0  0
    3.0823   -0.4814   -2.5421 H   0  0  0  0  0  0  0  0  0  0  0  0
    0.7072   -0.8210   -3.1978 H   0  0  0  0  0  0  0  0  0  0  0  0
    1.8041   -1.9225   -4.0780 H   0  0  0  0  0  0  0  0  0  0  0  0
   -1.1250   -2.3166   -3.5182 H   0  0  0  0  0  0  0  0  0  0  0  0
   -0.0431   -3.4272   -4.4228 H   0  0  0  0  0  0  0  0  0  0  0  0
   -0.9278   -4.0012   -2.9926 H   0  0  0  0  0  0  0  0  0  0  0  0
  1  8  1  0  0  0  0
  1 15  1  0  0  0  0
  2 17  1  0  0  0  0
  2 44  1  0  0  0  0
  3 23  1  0  0  0  0
  3 28  1  0  0  0  0
  4 24  1  0  0  0  0
  4 29  1  0  0  0  0
  5 30  1  0  0  0  0
  5 31  1  0  0  0  0
  6 10  1  0  0  0  0
  6 13  1  0  0  0  0
  6 14  1  0  0  0  0
  7 15  2  0  0  0  0
  7 19  1  0  0  0  0
  8 19  2  0  0  0  0
  9 24  1  0  0  0  0
  9 27  2  0  0  0  0
 10 11  1  0  0  0  0
 10 15  1  0  0  0  0
 10 32  1  0  0  0  0
 11 12  1  0  0  0  0
 11 33  1  0  0  0  0
 11 34  1  0  0  0  0
 12 13  1  0  0  0  0
 12 35  1  0  0  0  0
 12 36  1  0  0  0  0
 13 37  1  0  0  0  0
 13 38  1  0  0  0  0
 14 16  1  0  0  0  0
 14 39  1  0  0  0  0
 14 40  1  0  0  0  0
 16 17  2  0  0  0  0
 16 18  1  0  0  0  0
 17 20  1  0  0  0  0
 18 21  2  0  0  0  0
 18 41  1  0  0  0  0
 19 22  1  0  0  0  0
 20 23  2  0  0  0  0
 20 42  1  0  0  0  0
 21 23  1  0  0  0  0
 21 43  1  0  0  0  0
 22 24  2  0  0  0  0
 22 25  1  0  0  0  0
 25 26  2  0  0  0  0
 25 45  1  0  0  0  0
 26 27  1  0  0  0  0
 26 46  1  0  0  0  0
 27 47  1  0  0  0  0
 28 48  1  0  0  0  0
 28 49  1  0  0  0  0
 28 50  1  0  0  0  0
 29 30  1  0  0  0  0
 29 51  1  0  0  0  0
 29 52  1  0  0  0  0
 30 53  1  0  0  0  0
 30 54  1  0  0  0  0
 31 55  1  0  0  0  0
 31 56  1  0  0  0  0
 31 57  1  0  0  0  0
M  END
> <PUBCHEM_COMPOUND_CID>
45783430

> <PUBCHEM_CONFORMER_RMSD>
1

> <PUBCHEM_CONFORMER_DIVERSEORDER>
1
86
49
10
170
102
58
107
46
45
103
57
94
62
113
64
5
90
154
168
164
72
81
130
159
33
147
48
65
122
148
20
133
100
82
22
6
146
78
126
7
55
79
104
80
21
114
88
161
98
70
53
31
19
60
151
76
38
120
99
44
73
52
136
152
67
153
41
141
132
106
135
18
63
40
47
39
118
112
162
61
97
105
89
66
155
119
9
24
92
128
157
3
54
158
51
84
59
101
15
156
142
75
143
8
160
12
56
68
28
4
36
140
87
2
129
115
149
109
69
116
125
123
91
145
96
167
42
74
14
11
137
34
26
93
50
117
25
13
83
150
77
37
85
131
110
29
139
127
32
144
95
27
35
108
16
165
138
111
30
23
134
169
43
163
121
124
71
17
166

> <PUBCHEM_MMFF94_PARTIAL_CHARGES>
36
1 -0.02
10 0.45
13 0.27
14 0.41
15 0.3
16 -0.14
17 0.08
18 -0.15
19 0.46
2 -0.53
20 -0.15
21 -0.15
22 0.05
23 0.08
24 0.39
25 -0.15
26 -0.15
27 0.16
28 0.28
29 0.28
3 -0.36
30 0.28
31 0.28
4 -0.36
41 0.15
42 0.15
43 0.15
44 0.45
45 0.15
46 0.15
47 0.15
5 -0.56
6 -0.81
7 -0.57
8 -0.41
9 -0.62

> <PUBCHEM_EFFECTIVE_ROTOR_COUNT>
10

> <PUBCHEM_PHARMACOPHORE_FEATURES>
11
1 2 donor
1 3 acceptor
1 4 acceptor
1 5 acceptor
1 6 cation
1 9 acceptor
3 7 8 19 cation
5 1 7 8 15 19 rings
5 6 10 11 12 13 rings
6 16 17 18 20 21 23 rings
6 9 22 24 25 26 27 rings

> <PUBCHEM_HEAVY_ATOM_COUNT>
31

> <PUBCHEM_ATOM_DEF_STEREO_COUNT>
1

> <PUBCHEM_ATOM_UDEF_STEREO_COUNT>
0

> <PUBCHEM_BOND_DEF_STEREO_COUNT>
0

> <PUBCHEM_BOND_UDEF_STEREO_COUNT>
0

> <PUBCHEM_ISOTOPIC_ATOM_COUNT>
0

> <PUBCHEM_COMPONENT_COUNT>
1

> <PUBCHEM_CACTVS_TAUTO_COUNT>
3

> <PUBCHEM_CONFORMER_ID>
02BA998600000001

> <PUBCHEM_MMFF94_ENERGY>
79.2539

> <PUBCHEM_FEATURE_SELFOVERLAP>
55.875

> <PUBCHEM_SHAPE_FINGERPRINT>
1100329 8 18186516623068465289
11578080 2 17771936881226875400
12655364 131 15831495817509907636
133893 2 17682139985751197689
13583140 156 18124843882100561234
13615921 28 17895464929716883780
13761468 95 16809545233224942574
14910302 57 18340197476116443898
15876981 60 17967255299864736758
20600515 1 18188196637969803773
20905425 154 17755310302910084733
21987440 362 15878695236074942598
23557571 272 18410575076141930778
35225 105 17687413037195940454
392239 28 17821999914142339728
550186 7 18191575355892771678

> <PUBCHEM_SHAPE_MULTIPOLES>
588.69
6.88
4.57
3.33
4.99
3.88
-1.97
-3.36
3.12
-3
-2.82
1.58
-1.96
0.01

> <PUBCHEM_SHAPE_SELFOVERLAP>
1262.892

> <PUBCHEM_SHAPE_VOLUME>
327.4

> <PUBCHEM_COORDINATE_TYPE>
2
5
10

$$$$
