75536594
  -OEChem-12032416333D

 45 47  0     1  0  0  0  0  0999 V2000
    6.0293   -0.0916    1.4242 S   0  0  0  0  0  0  0  0  0  0  0  0
    0.1673    0.7293   -0.8181 O   0  0  0  0  0  0  0  0  0  0  0  0
   -0.9829   -2.4548    0.3835 O   0  0  0  0  0  0  0  0  0  0  0  0
    3.5465   -1.6110    0.9457 O   0  0  0  0  0  0  0  0  0  0  0  0
   -3.2293   -0.5702   -0.7469 N   0  0  0  0  0  0  0  0  0  0  0  0
   -6.8978    0.7334    0.9692 N   0  0  0  0  0  0  0  0  0  0  0  0
    2.7857   -0.4566   -0.9175 N   0  0  0  0  0  0  0  0  0  0  0  0
   -1.9019   -0.2780   -0.2307 C   0  0  1  0  0  0  0  0  0  0  0  0
   -0.8845   -1.3673   -0.5155 C   0  0  1  0  0  0  0  0  0  0  0  0
   -4.2233    0.3233   -0.1566 C   0  0  0  0  0  0  0  0  0  0  0  0
    0.4206   -0.6025   -0.3407 C   0  0  1  0  0  0  0  0  0  0  0  0
   -1.2556    0.9210   -0.9051 C   0  0  0  0  0  0  0  0  0  0  0  0
   -5.4789    0.3730   -1.0333 C   0  0  0  0  0  0  0  0  0  0  0  0
   -4.5887   -0.1233    1.2636 C   0  0  0  0  0  0  0  0  0  0  0  0
   -6.5702    1.2179   -0.3741 C   0  0  0  0  0  0  0  0  0  0  0  0
   -5.7147    0.7410    1.8331 C   0  0  0  0  0  0  0  0  0  0  0  0
    1.5806   -1.2111   -1.1084 C   0  0  0  0  0  0  0  0  0  0  0  0
    3.6857   -0.7216    0.1102 C   0  0  0  0  0  0  0  0  0  0  0  0
    4.8734    0.1675    0.1877 C   0  0  0  0  0  0  0  0  0  0  0  0
    5.2127    1.2284   -0.6230 C   0  0  0  0  0  0  0  0  0  0  0  0
    6.4379    1.8362   -0.2239 C   0  0  0  0  0  0  0  0  0  0  0  0
    6.9883    1.2170    0.8767 C   0  0  0  0  0  0  0  0  0  0  0  0
   -1.9173   -0.1261    0.8553 H   0  0  0  0  0  0  0  0  0  0  0  0
   -0.9871   -1.7453   -1.5404 H   0  0  0  0  0  0  0  0  0  0  0  0
   -3.8328    1.3489   -0.1133 H   0  0  0  0  0  0  0  0  0  0  0  0
    0.6851   -0.5237    0.7221 H   0  0  0  0  0  0  0  0  0  0  0  0
   -3.4766   -1.5394   -0.5494 H   0  0  0  0  0  0  0  0  0  0  0  0
   -1.5076    0.9860   -1.9699 H   0  0  0  0  0  0  0  0  0  0  0  0
   -1.5203    1.8701   -0.4296 H   0  0  0  0  0  0  0  0  0  0  0  0
   -5.8625   -0.6420   -1.2045 H   0  0  0  0  0  0  0  0  0  0  0  0
   -5.2375    0.7925   -2.0177 H   0  0  0  0  0  0  0  0  0  0  0  0
   -3.7318   -0.0584    1.9422 H   0  0  0  0  0  0  0  0  0  0  0  0
   -4.9112   -1.1734    1.2599 H   0  0  0  0  0  0  0  0  0  0  0  0
   -6.2603    2.2692   -0.3294 H   0  0  0  0  0  0  0  0  0  0  0  0
   -7.4740    1.1782   -0.9919 H   0  0  0  0  0  0  0  0  0  0  0  0
   -5.3643    1.7698    1.9821 H   0  0  0  0  0  0  0  0  0  0  0  0
   -5.9978    0.3547    2.8184 H   0  0  0  0  0  0  0  0  0  0  0  0
    1.3781   -1.1989   -2.1850 H   0  0  0  0  0  0  0  0  0  0  0  0
    1.7477   -2.2482   -0.7985 H   0  0  0  0  0  0  0  0  0  0  0  0
   -7.6155    1.3322    1.3767 H   0  0  0  0  0  0  0  0  0  0  0  0
   -0.8933   -2.1124    1.2890 H   0  0  0  0  0  0  0  0  0  0  0  0
    2.9590    0.3053   -1.5642 H   0  0  0  0  0  0  0  0  0  0  0  0
    4.6292    1.5724   -1.4668 H   0  0  0  0  0  0  0  0  0  0  0  0
    6.8926    2.6845   -0.7187 H   0  0  0  0  0  0  0  0  0  0  0  0
    7.9076    1.4706    1.3853 H   0  0  0  0  0  0  0  0  0  0  0  0
  1 19  1  0  0  0  0
  1 22  1  0  0  0  0
  2 11  1  0  0  0  0
  2 12  1  0  0  0  0
  3  9  1  0  0  0  0
  3 41  1  0  0  0  0
  4 18  2  0  0  0  0
  5  8  1  0  0  0  0
  5 10  1  0  0  0  0
  5 27  1  0  0  0  0
  6 15  1  0  0  0  0
  6 16  1  0  0  0  0
  6 40  1  0  0  0  0
  7 17  1  0  0  0  0
  7 18  1  0  0  0  0
  7 42  1  0  0  0  0
  8  9  1  0  0  0  0
  8 12  1  0  0  0  0
  8 23  1  0  0  0  0
  9 11  1  0  0  0  0
  9 24  1  0  0  0  0
 10 13  1  0  0  0  0
 10 14  1  0  0  0  0
 10 25  1  0  0  0  0
 11 17  1  0  0  0  0
 11 26  1  0  0  0  0
 12 28  1  0  0  0  0
 12 29  1  0  0  0  0
 13 15  1  0  0  0  0
 13 30  1  0  0  0  0
 13 31  1  0  0  0  0
 14 16  1  0  0  0  0
 14 32  1  0  0  0  0
 14 33  1  0  0  0  0
 15 34  1  0  0  0  0
 15 35  1  0  0  0  0
 16 36  1  0  0  0  0
 16 37  1  0  0  0  0
 17 38  1  0  0  0  0
 17 39  1  0  0  0  0
 18 19  1  0  0  0  0
 19 20  2  0  0  0  0
 20 21  1  0  0  0  0
 20 43  1  0  0  0  0
 21 22  2  0  0  0  0
 21 44  1  0  0  0  0
 22 45  1  0  0  0  0
M  END
> <PUBCHEM_COMPOUND_CID>
75536594

> <PUBCHEM_CONFORMER_RMSD>
0.8

> <PUBCHEM_CONFORMER_DIVERSEORDER>
1
122
29
149
172
166
15
110
66
99
168
194
59
151
162
192
179
163
147
92
189
81
160
135
186
31
139
131
72
196
36
159
167
105
173
100
78
158
113
161
91
69
64
143
35
123
176
47
26
120
136
82
195
52
197
129
121
84
75
165
132
190
43
185
8
112
27
63
140
128
74
21
85
116
193
22
40
41
102
83
96
181
19
146
70
137
178
182
45
187
89
156
180
87
153
37
10
2
183
119
104
150
38
51
77
97
7
93
117
73
62
115
118
61
88
60
154
188
164
80
95
107
130
28
67
108
103
106
184
94
32
25
54
145
13
144
76
101
127
79
49
58
86
109
50
34
114
57
177
155
152
42
148
18
33
169
170
142
56
126
134
191
39
9
90
55
14
138
5
20
124
46
23
174
141
6
24
171
17
68
111
3
133
4
98
12
65
125
30
48
157
175
44
53
71
16
11

> <PUBCHEM_MMFF94_PARTIAL_CHARGES>
27
1 -0.08
10 0.27
11 0.28
12 0.28
15 0.27
16 0.27
17 0.3
18 0.71
19 -0.05
2 -0.56
20 -0.15
21 -0.15
22 -0.11
27 0.36
3 -0.68
4 -0.57
40 0.36
41 0.4
42 0.37
43 0.15
44 0.15
45 0.15
5 -0.9
6 -0.9
7 -0.73
8 0.27
9 0.28

> <PUBCHEM_EFFECTIVE_ROTOR_COUNT>
8.2

> <PUBCHEM_PHARMACOPHORE_FEATURES>
12
1 2 acceptor
1 3 acceptor
1 3 donor
1 4 acceptor
1 5 cation
1 5 donor
1 6 cation
1 6 donor
1 7 donor
5 1 19 20 21 22 rings
5 2 8 9 11 12 rings
6 6 10 13 14 15 16 rings

> <PUBCHEM_HEAVY_ATOM_COUNT>
22

> <PUBCHEM_ATOM_DEF_STEREO_COUNT>
3

> <PUBCHEM_ATOM_UDEF_STEREO_COUNT>
0

> <PUBCHEM_BOND_DEF_STEREO_COUNT>
0

> <PUBCHEM_BOND_UDEF_STEREO_COUNT>
0

> <PUBCHEM_ISOTOPIC_ATOM_COUNT>
0

> <PUBCHEM_COMPONENT_COUNT>
1

> <PUBCHEM_CACTVS_TAUTO_COUNT>
2

> <PUBCHEM_CONFORMER_ID>
048098D200000001

> <PUBCHEM_MMFF94_ENERGY>
23.2771

> <PUBCHEM_FEATURE_SELFOVERLAP>
60.897

> <PUBCHEM_SHAPE_FINGERPRINT>
10 15 17967254208278482869
10087517 78 17775006748289608769
106641 1 18335425699115862619
10670039 82 13542475236598350651
10906281 52 18272381887873884198
11524674 6 15140961759983199153
117890 112 18131351912372383374
11991303 11 12247383614656917973
125118 31 18339080393550930949
12596602 18 18187367627344780099
12616971 3 17022904596605481286
12670543 26 11527953335222462363
12760667 363 10809338936318913855
12954195 1 10159435201158873219
13533116 47 18339925896976809774
13631057 29 18059283388476871663
13668630 136 8286202751396606432
13673619 4 11458421340963695070
13685833 64 12468355756640587732
13782708 43 11891332062593856268
13862211 1 11025796504792393460
14251752 14 12607407671763402724
14251764 18 18410572916216323463
14341114 176 18040429998064553364
14528608 73 15841548569967943294
15048467 5 17989207044548410369
15183329 4 13183029509785196898
15188451 53 14851890283121450803
15348495 7 17168151186098361769
15706992 2 17775020006700189953
15716309 27 14201400490877519613
17834072 8 12895070721453062176
17980427 23 18336545035727290638
18222031 100 9295283911437925511
190975 80 17603873350729638299
20281389 69 18059856138421509608
21130935 74 18187369771230332131
21150785 3 14333125286451379349
21424621 283 17917722258009940907
21637258 2 13334739063365853987
22061861 79 11239998944915759272
221357 26 13183022921775130226
2215653 11 11312057656141017308
22224240 67 18334296461972237387
23035841 295 11891336448314848993
23081809 10 17275098393289013767
23198884 109 15985107409724078677
2767999 5 18131628984812501696
300161 21 18341891896132403270
3472631 163 17489585718951903516
34797466 226 14405179607718712705
4340502 62 17095521786364288514
445580 37 15985109604579032825
465052 167 11097862873664661584
5104073 3 18043241535022101794
543368 44 17704073980616509369
559249 180 13479132398383015337
5758199 1 18130791153189938555
59682541 35 17822296828713726121
59682541 52 13326863223401625388
59755656 215 11167947952332716900
6438161 24 11095889238078289460

> <PUBCHEM_SHAPE_MULTIPOLES>
424.05
20.53
1.62
1.34
0.88
0.37
-0.4
-11.63
-5.97
1.05
-0.01
-0.65
-0.12
-0.57

> <PUBCHEM_SHAPE_SELFOVERLAP>
866.598

> <PUBCHEM_SHAPE_VOLUME>
246

> <PUBCHEM_COORDINATE_TYPE>
2
5
10

$$$$
