7156392
  -OEChem-12032416153D

 69 73  0     1  0  0  0  0  0999 V2000
   -2.1857   -1.2716    2.0265 O   0  0  0  0  0  0  0  0  0  0  0  0
    4.7486    3.9150   -0.5035 O   0  0  0  0  0  0  0  0  0  0  0  0
    2.3189   -1.6966   -0.1357 N   0  0  2  0  0  0  0  0  0  0  0  0
   -0.7878   -2.1830    0.3977 N   0  0  0  0  0  0  0  0  0  0  0  0
    4.8202    1.6736    0.1035 N   0  0  0  0  0  0  0  0  0  0  0  0
   -2.3041    3.4016   -0.5184 N   0  0  0  0  0  0  0  0  0  0  0  0
    1.2250   -3.6624    0.9711 C   0  0  1  0  0  0  0  0  0  0  0  0
    0.7141   -3.1604   -1.3703 C   0  0  2  0  0  0  0  0  0  0  0  0
    0.9547   -4.3007   -0.3849 C   0  0  0  0  0  0  0  0  0  0  0  0
    2.4608   -2.7417    0.8856 C   0  0  0  0  0  0  0  0  0  0  0  0
    1.9745   -2.2687   -1.4459 C   0  0  0  0  0  0  0  0  0  0  0  0
    3.5160   -0.8890   -0.2215 C   0  0  0  0  0  0  0  0  0  0  0  0
   -0.0361   -2.9159    1.4265 C   0  0  0  0  0  0  0  0  0  0  0  0
   -0.4933   -2.3385   -0.9589 C   0  0  0  0  0  0  0  0  0  0  0  0
    3.2920    0.2566   -1.2129 C   0  0  0  0  0  0  0  0  0  0  0  0
    3.8759   -0.3427    1.1637 C   0  0  0  0  0  0  0  0  0  0  0  0
    4.4928    1.1990   -1.2427 C   0  0  0  0  0  0  0  0  0  0  0  0
    5.0659    0.6119    1.0878 C   0  0  0  0  0  0  0  0  0  0  0  0
   -1.2629   -1.7487   -1.8872 C   0  0  0  0  0  0  0  0  0  0  0  0
   -1.8751   -1.4050    0.8415 C   0  0  0  0  0  0  0  0  0  0  0  0
   -2.6991   -0.7281   -0.2209 C   0  0  0  0  0  0  0  0  0  0  0  0
   -2.3776   -0.9277   -1.5080 C   0  0  0  0  0  0  0  0  0  0  0  0
    4.9202    3.0422    0.3513 C   0  0  0  0  0  0  0  0  0  0  0  0
   -3.8323    0.1449    0.1323 C   0  0  0  0  0  0  0  0  0  0  0  0
    5.2577    3.4503    1.7632 C   0  0  0  0  0  0  0  0  0  0  0  0
   -3.6582    1.5145    0.3448 C   0  0  0  0  0  0  0  0  0  0  0  0
   -5.1040   -0.4190    0.2546 C   0  0  0  0  0  0  0  0  0  0  0  0
   -2.3130    2.1555    0.2233 C   0  0  0  0  0  0  0  0  0  0  0  0
   -4.7505    2.3156    0.6780 C   0  0  0  0  0  0  0  0  0  0  0  0
   -6.1962    0.3823    0.5880 C   0  0  0  0  0  0  0  0  0  0  0  0
   -6.0194    1.7494    0.7996 C   0  0  0  0  0  0  0  0  0  0  0  0
   -2.7817    3.1976   -1.8901 C   0  0  0  0  0  0  0  0  0  0  0  0
   -0.9604    3.9896   -0.5380 C   0  0  0  0  0  0  0  0  0  0  0  0
    1.4459   -4.4462    1.7066 H   0  0  0  0  0  0  0  0  0  0  0  0
    0.5413   -3.5993   -2.3620 H   0  0  0  0  0  0  0  0  0  0  0  0
    0.0863   -4.9694   -0.3359 H   0  0  0  0  0  0  0  0  0  0  0  0
    1.8117   -4.9078   -0.7014 H   0  0  0  0  0  0  0  0  0  0  0  0
    2.5639   -2.3156    1.8883 H   0  0  0  0  0  0  0  0  0  0  0  0
    3.3495   -3.3570    0.6901 H   0  0  0  0  0  0  0  0  0  0  0  0
    2.8102   -2.8612   -1.8427 H   0  0  0  0  0  0  0  0  0  0  0  0
    1.7467   -1.4917   -2.1818 H   0  0  0  0  0  0  0  0  0  0  0  0
    4.3623   -1.4945   -0.5780 H   0  0  0  0  0  0  0  0  0  0  0  0
   -0.7427   -3.6473    1.8425 H   0  0  0  0  0  0  0  0  0  0  0  0
    0.1978   -2.2248    2.2462 H   0  0  0  0  0  0  0  0  0  0  0  0
    2.3942    0.8270   -0.9388 H   0  0  0  0  0  0  0  0  0  0  0  0
    3.1621   -0.0970   -2.2401 H   0  0  0  0  0  0  0  0  0  0  0  0
    4.1767   -1.1335    1.8586 H   0  0  0  0  0  0  0  0  0  0  0  0
    3.0191    0.1869    1.6012 H   0  0  0  0  0  0  0  0  0  0  0  0
    5.3784    0.6818   -1.6309 H   0  0  0  0  0  0  0  0  0  0  0  0
    4.2858    2.0397   -1.9125 H   0  0  0  0  0  0  0  0  0  0  0  0
    5.2717    1.0148    2.0811 H   0  0  0  0  0  0  0  0  0  0  0  0
    5.9662    0.0756    0.7645 H   0  0  0  0  0  0  0  0  0  0  0  0
   -1.0522   -1.8478   -2.9469 H   0  0  0  0  0  0  0  0  0  0  0  0
   -2.9376   -0.4607   -2.3129 H   0  0  0  0  0  0  0  0  0  0  0  0
    6.2385    3.0588    2.0459 H   0  0  0  0  0  0  0  0  0  0  0  0
    4.4881    3.0953    2.4537 H   0  0  0  0  0  0  0  0  0  0  0  0
    5.2952    4.5422    1.8273 H   0  0  0  0  0  0  0  0  0  0  0  0
   -5.2602   -1.4832    0.0943 H   0  0  0  0  0  0  0  0  0  0  0  0
   -1.9704    2.3445    1.2505 H   0  0  0  0  0  0  0  0  0  0  0  0
   -1.5684    1.4801   -0.2114 H   0  0  0  0  0  0  0  0  0  0  0  0
   -4.6363    3.3808    0.8611 H   0  0  0  0  0  0  0  0  0  0  0  0
   -7.1841   -0.0585    0.6837 H   0  0  0  0  0  0  0  0  0  0  0  0
   -6.8694    2.3725    1.0621 H   0  0  0  0  0  0  0  0  0  0  0  0
   -2.1754    2.4617   -2.4315 H   0  0  0  0  0  0  0  0  0  0  0  0
   -2.7418    4.1409   -2.4476 H   0  0  0  0  0  0  0  0  0  0  0  0
   -3.8279    2.8787   -1.9271 H   0  0  0  0  0  0  0  0  0  0  0  0
   -0.9724    4.9580   -1.0505 H   0  0  0  0  0  0  0  0  0  0  0  0
   -0.2317    3.3419   -1.0391 H   0  0  0  0  0  0  0  0  0  0  0  0
   -0.6096    4.1797    0.4825 H   0  0  0  0  0  0  0  0  0  0  0  0
  1 20  2  0  0  0  0
  2 23  2  0  0  0  0
  3 10  1  0  0  0  0
  3 11  1  0  0  0  0
  3 12  1  0  0  0  0
  4 13  1  0  0  0  0
  4 14  1  0  0  0  0
  4 20  1  0  0  0  0
  5 17  1  0  0  0  0
  5 18  1  0  0  0  0
  5 23  1  0  0  0  0
  6 28  1  0  0  0  0
  6 32  1  0  0  0  0
  6 33  1  0  0  0  0
  7  9  1  0  0  0  0
  7 10  1  0  0  0  0
  7 13  1  0  0  0  0
  7 34  1  0  0  0  0
  8  9  1  0  0  0  0
  8 11  1  0  0  0  0
  8 14  1  0  0  0  0
  8 35  1  0  0  0  0
  9 36  1  0  0  0  0
  9 37  1  0  0  0  0
 10 38  1  0  0  0  0
 10 39  1  0  0  0  0
 11 40  1  0  0  0  0
 11 41  1  0  0  0  0
 12 15  1  0  0  0  0
 12 16  1  0  0  0  0
 12 42  1  0  0  0  0
 13 43  1  0  0  0  0
 13 44  1  0  0  0  0
 14 19  2  0  0  0  0
 15 17  1  0  0  0  0
 15 45  1  0  0  0  0
 15 46  1  0  0  0  0
 16 18  1  0  0  0  0
 16 47  1  0  0  0  0
 16 48  1  0  0  0  0
 17 49  1  0  0  0  0
 17 50  1  0  0  0  0
 18 51  1  0  0  0  0
 18 52  1  0  0  0  0
 19 22  1  0  0  0  0
 19 53  1  0  0  0  0
 20 21  1  0  0  0  0
 21 22  2  0  0  0  0
 21 24  1  0  0  0  0
 22 54  1  0  0  0  0
 23 25  1  0  0  0  0
 24 26  1  0  0  0  0
 24 27  2  0  0  0  0
 25 55  1  0  0  0  0
 25 56  1  0  0  0  0
 25 57  1  0  0  0  0
 26 28  1  0  0  0  0
 26 29  2  0  0  0  0
 27 30  1  0  0  0  0
 27 58  1  0  0  0  0
 28 59  1  0  0  0  0
 28 60  1  0  0  0  0
 29 31  1  0  0  0  0
 29 61  1  0  0  0  0
 30 31  2  0  0  0  0
 30 62  1  0  0  0  0
 31 63  1  0  0  0  0
 32 64  1  0  0  0  0
 32 65  1  0  0  0  0
 32 66  1  0  0  0  0
 33 67  1  0  0  0  0
 33 68  1  0  0  0  0
 33 69  1  0  0  0  0
M  END
> <PUBCHEM_COMPOUND_CID>
7156392

> <PUBCHEM_CONFORMER_RMSD>
1

> <PUBCHEM_CONFORMER_DIVERSEORDER>
1
18
13
16
20
8
11
6
9
15
2
19
14
17
5
7
4
10
3
12

> <PUBCHEM_MMFF94_PARTIAL_CHARGES>
35
1 -0.57
10 0.27
11 0.27
12 0.27
13 0.3
14 -0.03
17 0.3
18 0.3
19 -0.15
2 -0.57
20 0.62
21 -0.01
22 -0.15
23 0.57
24 0.03
25 0.06
26 -0.14
27 -0.15
28 0.41
29 -0.15
3 -0.81
30 -0.15
31 -0.15
32 0.27
33 0.27
4 -0.47
5 -0.66
53 0.15
54 0.15
58 0.15
6 -0.81
61 0.15
62 0.15
63 0.15
8 0.14

> <PUBCHEM_EFFECTIVE_ROTOR_COUNT>
7.2

> <PUBCHEM_PHARMACOPHORE_FEATURES>
9
1 1 acceptor
1 2 acceptor
1 3 cation
1 6 cation
6 24 26 27 29 30 31 rings
6 3 7 8 9 10 11 rings
6 4 14 19 20 21 22 rings
6 4 7 8 9 13 14 rings
6 5 12 15 16 17 18 rings

> <PUBCHEM_HEAVY_ATOM_COUNT>
33

> <PUBCHEM_ATOM_DEF_STEREO_COUNT>
2

> <PUBCHEM_ATOM_UDEF_STEREO_COUNT>
0

> <PUBCHEM_BOND_DEF_STEREO_COUNT>
0

> <PUBCHEM_BOND_UDEF_STEREO_COUNT>
0

> <PUBCHEM_ISOTOPIC_ATOM_COUNT>
0

> <PUBCHEM_COMPONENT_COUNT>
1

> <PUBCHEM_CACTVS_TAUTO_COUNT>
1

> <PUBCHEM_CONFORMER_ID>
006D32A800000001

> <PUBCHEM_MMFF94_ENERGY>
92.2625

> <PUBCHEM_FEATURE_SELFOVERLAP>
47.226

> <PUBCHEM_SHAPE_FINGERPRINT>
10842077 115 17682090220002640756
10937287 8 18341612659224296966
11720765 8 17559408963949822470
12107698 1 18121782729316240879
12633257 1 16515688896091123414
12978246 48 18337949000496759940
13402501 40 18411984645732959041
13583140 156 17538840283574866575
1361 2 18410578413463940721
14251764 38 17976818688472998445
14251764 75 18273224100917256921
14739800 52 18335984164532966411
14840074 17 18261959647040385149
14849402 71 18336267821801761554
14950920 106 17458895046511320874
15001296 14 18188493609115178132
15142526 21 18335423473595465683
15475509 35 11459298777265119415
15513586 35 16521881530615942628
15961568 22 18336273336196358773
16112460 7 18342744022451139184
17349148 13 15866353462935364443
18393751 57 18336827588936321363
19438510 23 18340202011765114034
20764821 26 18126817522146099752
23559900 14 17696759861660220607
2838139 119 18343300392366579822
3298306 158 18340483370218895425
34797466 226 17987807294171129335
376196 1 18343305894436295222
5252454 2 18059842952966700547
57724786 102 18409161139292251434
5776283 40 18268733696331259804
6036956 94 17400637624145082549
6086070 43 17467619413443210583
6176135 31 18337105778305761912
7288768 16 18188207727338205842
7808743 9 18270676601458978642
9849439 229 18341045315439730162

> <PUBCHEM_SHAPE_MULTIPOLES>
647.46
12.62
5.98
1.66
1.55
1.51
0.19
13.4
-3.61
-4.44
0.27
-0.35
-0.23
0.86

> <PUBCHEM_SHAPE_SELFOVERLAP>
1391.899

> <PUBCHEM_SHAPE_VOLUME>
350.8

> <PUBCHEM_COORDINATE_TYPE>
2
5
10

$$$$
