71693181
  -OEChem-12032416303D

 74 77  0     1  0  0  0  0  0999 V2000
    7.7052   -0.9047    0.6866 O   0  0  0  0  0  0  0  0  0  0  0  0
    7.0729   -3.1134    0.8315 O   0  0  0  0  0  0  0  0  0  0  0  0
   -4.4967    0.4967    0.0151 N   0  0  0  0  0  0  0  0  0  0  0  0
    3.2335    1.3397   -0.5153 N   0  0  0  0  0  0  0  0  0  0  0  0
    2.0944   -0.0572   -1.8158 N   0  0  0  0  0  0  0  0  0  0  0  0
   -1.6023    1.1554    1.0109 C   0  0  1  0  0  0  0  0  0  0  0  0
   -2.6865    2.1002    0.4421 C   0  0  2  0  0  0  0  0  0  0  0  0
   -0.4157    1.0534    0.0421 C   0  0  0  0  0  0  0  0  0  0  0  0
    0.2188    2.4200   -0.2940 C   0  0  2  0  0  0  0  0  0  0  0  0
   -1.1434    1.6055    2.4046 C   0  0  0  0  0  0  0  0  0  0  0  0
   -3.5492    1.4009   -0.6134 C   0  0  0  0  0  0  0  0  0  0  0  0
   -0.8098    3.5265   -0.4718 C   0  0  0  0  0  0  0  0  0  0  0  0
   -2.1053    3.3597   -0.1479 C   0  0  0  0  0  0  0  0  0  0  0  0
   -6.3009   -1.1459   -0.3238 C   0  0  0  0  0  0  0  0  0  0  0  0
    1.1290    2.2497   -1.5167 C   0  0  0  0  0  0  0  0  0  0  0  0
   -5.3154   -0.1822   -0.9821 C   0  0  0  0  0  0  0  0  0  0  0  0
   -5.5616   -2.1502    0.5705 C   0  0  0  0  0  0  0  0  0  0  0  0
   -7.1391   -1.8725   -1.3845 C   0  0  0  0  0  0  0  0  0  0  0  0
   -0.1171    0.6278    2.9681 C   0  0  0  0  0  0  0  0  0  0  0  0
   -2.3394    1.7347    3.3425 C   0  0  0  0  0  0  0  0  0  0  0  0
   -6.5208   -3.1588    1.1985 C   0  0  0  0  0  0  0  0  0  0  0  0
   -8.0957   -2.8813   -0.7531 C   0  0  0  0  0  0  0  0  0  0  0  0
   -0.3194    4.8567   -0.9742 C   0  0  0  0  0  0  0  0  0  0  0  0
   -7.3583   -3.8725    0.1418 C   0  0  0  0  0  0  0  0  0  0  0  0
    2.1330    1.1530   -1.3048 C   0  0  0  0  0  0  0  0  0  0  0  0
    3.9527    0.1722   -0.5169 C   0  0  0  0  0  0  0  0  0  0  0  0
    3.2213   -0.6838   -1.3357 C   0  0  0  0  0  0  0  0  0  0  0  0
    5.1440   -0.1973    0.1085 C   0  0  0  0  0  0  0  0  0  0  0  0
    3.6914   -1.9896   -1.5547 C   0  0  0  0  0  0  0  0  0  0  0  0
    5.5973   -1.5007   -0.1207 C   0  0  0  0  0  0  0  0  0  0  0  0
    4.8854   -2.3825   -0.9371 C   0  0  0  0  0  0  0  0  0  0  0  0
    6.8343   -1.9437    0.5043 C   0  0  0  0  0  0  0  0  0  0  0  0
    8.9633   -1.2154    1.2952 C   0  0  0  0  0  0  0  0  0  0  0  0
   -2.0291    0.1480    1.1145 H   0  0  0  0  0  0  0  0  0  0  0  0
   -3.3740    2.4344    1.2234 H   0  0  0  0  0  0  0  0  0  0  0  0
   -0.7761    0.5893   -0.8863 H   0  0  0  0  0  0  0  0  0  0  0  0
    0.3320    0.3525    0.4252 H   0  0  0  0  0  0  0  0  0  0  0  0
    0.8475    2.7144    0.5585 H   0  0  0  0  0  0  0  0  0  0  0  0
   -0.6652    2.5914    2.3618 H   0  0  0  0  0  0  0  0  0  0  0  0
   -2.9237    0.8618   -1.3341 H   0  0  0  0  0  0  0  0  0  0  0  0
   -4.1106    2.1523   -1.1854 H   0  0  0  0  0  0  0  0  0  0  0  0
   -2.8013    4.1835   -0.2926 H   0  0  0  0  0  0  0  0  0  0  0  0
   -6.9862   -0.5648    0.3097 H   0  0  0  0  0  0  0  0  0  0  0  0
    1.6750    3.1764   -1.7317 H   0  0  0  0  0  0  0  0  0  0  0  0
    0.5341    2.0206   -2.4102 H   0  0  0  0  0  0  0  0  0  0  0  0
   -4.6697   -0.7388   -1.6733 H   0  0  0  0  0  0  0  0  0  0  0  0
   -5.8737    0.5536   -1.5745 H   0  0  0  0  0  0  0  0  0  0  0  0
   -5.0956    1.0103    0.6608 H   0  0  0  0  0  0  0  0  0  0  0  0
   -5.0293   -1.6386    1.3806 H   0  0  0  0  0  0  0  0  0  0  0  0
   -4.8067   -2.6892   -0.0166 H   0  0  0  0  0  0  0  0  0  0  0  0
   -6.4795   -2.3950   -2.0892 H   0  0  0  0  0  0  0  0  0  0  0  0
   -7.7153   -1.1452   -1.9687 H   0  0  0  0  0  0  0  0  0  0  0  0
    0.0925    0.8511    4.0205 H   0  0  0  0  0  0  0  0  0  0  0  0
    0.8433    0.6939    2.4487 H   0  0  0  0  0  0  0  0  0  0  0  0
   -0.4729   -0.4068    2.9161 H   0  0  0  0  0  0  0  0  0  0  0  0
   -2.0081    1.7817    4.3865 H   0  0  0  0  0  0  0  0  0  0  0  0
   -2.9017    2.6577    3.1738 H   0  0  0  0  0  0  0  0  0  0  0  0
   -3.0208    0.8815    3.2560 H   0  0  0  0  0  0  0  0  0  0  0  0
   -5.9532   -3.8960    1.7776 H   0  0  0  0  0  0  0  0  0  0  0  0
   -7.1844   -2.6417    1.9025 H   0  0  0  0  0  0  0  0  0  0  0  0
   -8.8506   -2.3478   -0.1625 H   0  0  0  0  0  0  0  0  0  0  0  0
   -8.6313   -3.4236   -1.5405 H   0  0  0  0  0  0  0  0  0  0  0  0
    0.5434    5.1895   -0.3881 H   0  0  0  0  0  0  0  0  0  0  0  0
   -1.0858    5.6354   -0.8957 H   0  0  0  0  0  0  0  0  0  0  0  0
   -0.0272    4.7897   -2.0266 H   0  0  0  0  0  0  0  0  0  0  0  0
   -8.0802   -4.5368    0.6300 H   0  0  0  0  0  0  0  0  0  0  0  0
   -6.7069   -4.5051   -0.4738 H   0  0  0  0  0  0  0  0  0  0  0  0
    3.4752    2.1861   -0.0171 H   0  0  0  0  0  0  0  0  0  0  0  0
    5.6691    0.5049    0.7468 H   0  0  0  0  0  0  0  0  0  0  0  0
    3.1458   -2.6819   -2.1879 H   0  0  0  0  0  0  0  0  0  0  0  0
    5.2499   -3.3928   -1.1103 H   0  0  0  0  0  0  0  0  0  0  0  0
    9.5421   -0.2912    1.3715 H   0  0  0  0  0  0  0  0  0  0  0  0
    9.5161   -1.9278    0.6757 H   0  0  0  0  0  0  0  0  0  0  0  0
    8.8066   -1.6175    2.3005 H   0  0  0  0  0  0  0  0  0  0  0  0
  1 32  1  0  0  0  0
  1 33  1  0  0  0  0
  2 32  2  0  0  0  0
  3 11  1  0  0  0  0
  3 16  1  0  0  0  0
  3 48  1  0  0  0  0
  4 25  1  0  0  0  0
  4 26  1  0  0  0  0
  4 68  1  0  0  0  0
  5 25  2  0  0  0  0
  5 27  1  0  0  0  0
  6  7  1  0  0  0  0
  6  8  1  0  0  0  0
  6 10  1  0  0  0  0
  6 34  1  0  0  0  0
  7 11  1  0  0  0  0
  7 13  1  0  0  0  0
  7 35  1  0  0  0  0
  8  9  1  0  0  0  0
  8 36  1  0  0  0  0
  8 37  1  0  0  0  0
  9 12  1  0  0  0  0
  9 15  1  0  0  0  0
  9 38  1  0  0  0  0
 10 19  1  0  0  0  0
 10 20  1  0  0  0  0
 10 39  1  0  0  0  0
 11 40  1  0  0  0  0
 11 41  1  0  0  0  0
 12 13  2  0  0  0  0
 12 23  1  0  0  0  0
 13 42  1  0  0  0  0
 14 16  1  0  0  0  0
 14 17  1  0  0  0  0
 14 18  1  0  0  0  0
 14 43  1  0  0  0  0
 15 25  1  0  0  0  0
 15 44  1  0  0  0  0
 15 45  1  0  0  0  0
 16 46  1  0  0  0  0
 16 47  1  0  0  0  0
 17 21  1  0  0  0  0
 17 49  1  0  0  0  0
 17 50  1  0  0  0  0
 18 22  1  0  0  0  0
 18 51  1  0  0  0  0
 18 52  1  0  0  0  0
 19 53  1  0  0  0  0
 19 54  1  0  0  0  0
 19 55  1  0  0  0  0
 20 56  1  0  0  0  0
 20 57  1  0  0  0  0
 20 58  1  0  0  0  0
 21 24  1  0  0  0  0
 21 59  1  0  0  0  0
 21 60  1  0  0  0  0
 22 24  1  0  0  0  0
 22 61  1  0  0  0  0
 22 62  1  0  0  0  0
 23 63  1  0  0  0  0
 23 64  1  0  0  0  0
 23 65  1  0  0  0  0
 24 66  1  0  0  0  0
 24 67  1  0  0  0  0
 26 27  2  0  0  0  0
 26 28  1  0  0  0  0
 27 29  1  0  0  0  0
 28 30  2  0  0  0  0
 28 69  1  0  0  0  0
 29 31  2  0  0  0  0
 29 70  1  0  0  0  0
 30 31  1  0  0  0  0
 30 32  1  0  0  0  0
 31 71  1  0  0  0  0
 33 72  1  0  0  0  0
 33 73  1  0  0  0  0
 33 74  1  0  0  0  0
M  END
> <PUBCHEM_COMPOUND_CID>
71693181

> <PUBCHEM_CONFORMER_RMSD>
1

> <PUBCHEM_CONFORMER_DIVERSEORDER>
39
84
130
9
3
48
113
72
56
76
105
16
128
116
77
118
111
121
46
27
55
104
5
124
109
110
141
129
45
58
79
17
65
31
57
106
107
88
120
53
25
122
22
117
51
37
91
10
137
134
132
94
85
69
73
82
62
70
87
99
133
102
13
101
61
98
127
143
59
75
50
135
80
38
93
83
138
54
90
71
89
144
35
64
108
43
114
74
92
97
33
24
112
63
142
19
119
67
66
95
41
14
42
115
7
30
49
96
21
8
47
12
32
68
26
81
86
20
126
28
18
100
136
4
44
60
145
78
1
29
52
6
125
34
139
11
123
103
40
140
15
2
23
36
131

> <PUBCHEM_MMFF94_PARTIAL_CHARGES>
28
1 -0.43
11 0.27
12 -0.28
13 -0.29
15 0.18
16 0.27
2 -0.57
23 0.14
25 0.01
26 -0.15
27 0.23
28 -0.15
29 -0.15
3 -0.9
30 0.09
31 -0.15
32 0.63
33 0.28
4 0.03
42 0.15
48 0.36
5 -0.57
68 0.27
69 0.15
7 0.14
70 0.15
71 0.15
9 0.14

> <PUBCHEM_EFFECTIVE_ROTOR_COUNT>
11

> <PUBCHEM_PHARMACOPHORE_FEATURES>
10
1 2 acceptor
1 3 cation
1 3 donor
1 4 donor
3 10 19 20 hydrophobe
3 4 5 25 cation
5 4 5 25 26 27 rings
6 14 17 18 21 22 24 rings
6 26 27 28 29 30 31 rings
6 6 7 8 9 12 13 rings

> <PUBCHEM_HEAVY_ATOM_COUNT>
33

> <PUBCHEM_ATOM_DEF_STEREO_COUNT>
3

> <PUBCHEM_ATOM_UDEF_STEREO_COUNT>
0

> <PUBCHEM_BOND_DEF_STEREO_COUNT>
0

> <PUBCHEM_BOND_UDEF_STEREO_COUNT>
0

> <PUBCHEM_ISOTOPIC_ATOM_COUNT>
0

> <PUBCHEM_COMPONENT_COUNT>
1

> <PUBCHEM_CACTVS_TAUTO_COUNT>
7

> <PUBCHEM_CONFORMER_ID>
0445F37D00000027

> <PUBCHEM_MMFF94_ENERGY>
58.1945

> <PUBCHEM_FEATURE_SELFOVERLAP>
50.853

> <PUBCHEM_SHAPE_FINGERPRINT>
10100884 174 18259699004622605082
11088757 655 18409445882200757494
11410812 94 16588291749259491284
11720765 8 18196373835090387753
12218070 45 16629664288790838087
12596602 18 17487894511291380386
12758862 65 17917714651169886875
13165053 103 17459476545890787619
13782708 43 18272650100324017514
14068700 675 18114181908876436588
14344974 204 18266458707599824614
14747281 78 7997704146190197856
14951699 99 10663829576732875359
15064981 113 14273725240249939690
15320295 40 17676198070617509542
15803439 3 14634870868522530593
16067689 391 18040723584602003403
17686467 74 18412536627131112800
19303781 99 18338788039965366295
19315092 285 18202289108372873848
20642791 268 12247680487423109721
20775438 99 17757550029723870387
208703 8 18335976523743987671
21130935 74 18198056977234475290
21344244 78 14619967040628142011
21585482 111 10663833970268752203
21796203 349 15554158255291661402
21987483 16 18336540621065308298
23559900 14 16950865647532716940
25025965 108 17752474366513387722
32027 91 18265615562848455975
392239 28 16415186880186347204
406291 66 18409165519631834015
437795 139 18409166589009631787
439807 62 18337112363027982351
4408954 87 17846488266959847206
45266715 3 17531244011130836544
5718773 13 18408039615192030151
6376802 137 18060426815559089379
6703917 75 11743536839481928884
9689198 14 10447930602503951630

> <PUBCHEM_SHAPE_MULTIPOLES>
652.44
22.84
5.14
2.14
5.5
1.88
1.87
-36.38
1.44
-5.09
-0.63
-0.36
0.82
-1.32

> <PUBCHEM_SHAPE_SELFOVERLAP>
1368.574

> <PUBCHEM_SHAPE_VOLUME>
367

> <PUBCHEM_COORDINATE_TYPE>
2
5
10

$$$$
