40587791
  -OEChem-12032416213D

 68 72  0     1  0  0  0  0  0999 V2000
   -1.3028    0.3142   -2.2515 O   0  0  0  0  0  0  0  0  0  0  0  0
    3.2163    1.2339   -0.2799 N   0  0  2  0  0  0  0  0  0  0  0  0
    0.0597    1.4066   -0.7063 N   0  0  0  0  0  0  0  0  0  0  0  0
   -4.5045    1.0219    1.2270 N   0  0  0  0  0  0  0  0  0  0  0  0
    1.9001    3.0494   -1.4016 C   0  0  1  0  0  0  0  0  0  0  0  0
    1.5240    2.5799    0.9719 C   0  0  2  0  0  0  0  0  0  0  0  0
    1.6189    3.7043   -0.0558 C   0  0  0  0  0  0  0  0  0  0  0  0
    3.2206    2.2530   -1.3366 C   0  0  0  0  0  0  0  0  0  0  0  0
    2.8659    1.8144    1.0251 C   0  0  0  0  0  0  0  0  0  0  0  0
    0.7008    2.1721   -1.7852 C   0  0  0  0  0  0  0  0  0  0  0  0
    4.4999    0.5396   -0.2160 C   0  0  0  0  0  0  0  0  0  0  0  0
    4.3515   -0.8367    0.4302 C   0  0  0  0  0  0  0  0  0  0  0  0
    0.3868    1.6341    0.6324 C   0  0  0  0  0  0  0  0  0  0  0  0
    3.3994   -1.7196   -0.3880 C   0  0  0  0  0  0  0  0  0  0  0  0
    5.7208   -1.5111    0.5894 C   0  0  0  0  0  0  0  0  0  0  0  0
    3.2760   -3.1196    0.2092 C   0  0  0  0  0  0  0  0  0  0  0  0
    5.5936   -2.9116    1.1847 C   0  0  0  0  0  0  0  0  0  0  0  0
    4.6396   -3.7833    0.3741 C   0  0  0  0  0  0  0  0  0  0  0  0
   -0.2892    1.0059    1.6073 C   0  0  0  0  0  0  0  0  0  0  0  0
   -0.9636    0.5154   -1.0840 C   0  0  0  0  0  0  0  0  0  0  0  0
   -1.6803   -0.2006    0.0294 C   0  0  0  0  0  0  0  0  0  0  0  0
   -1.3330    0.0710    1.2964 C   0  0  0  0  0  0  0  0  0  0  0  0
   -2.7369   -1.1879   -0.2532 C   0  0  0  0  0  0  0  0  0  0  0  0
   -4.0756   -0.8089   -0.3522 C   0  0  0  0  0  0  0  0  0  0  0  0
   -2.3763   -2.5247   -0.4215 C   0  0  0  0  0  0  0  0  0  0  0  0
   -4.4988    0.6144   -0.1776 C   0  0  0  0  0  0  0  0  0  0  0  0
   -5.0537   -1.7667   -0.6196 C   0  0  0  0  0  0  0  0  0  0  0  0
   -3.3545   -3.4827   -0.6889 C   0  0  0  0  0  0  0  0  0  0  0  0
   -4.6932   -3.1036   -0.7880 C   0  0  0  0  0  0  0  0  0  0  0  0
   -5.7195    0.5510    1.8909 C   0  0  0  0  0  0  0  0  0  0  0  0
   -4.3921    2.4758    1.3378 C   0  0  0  0  0  0  0  0  0  0  0  0
    2.0193    3.8246   -2.1688 H   0  0  0  0  0  0  0  0  0  0  0  0
    1.3460    3.0329    1.9562 H   0  0  0  0  0  0  0  0  0  0  0  0
    0.6890    4.2855   -0.0909 H   0  0  0  0  0  0  0  0  0  0  0  0
    2.4243    4.4003    0.2088 H   0  0  0  0  0  0  0  0  0  0  0  0
    3.3848    1.7734   -2.3098 H   0  0  0  0  0  0  0  0  0  0  0  0
    4.0504    2.9560   -1.1814 H   0  0  0  0  0  0  0  0  0  0  0  0
    3.6522    2.5037    1.3624 H   0  0  0  0  0  0  0  0  0  0  0  0
    2.7819    1.0323    1.7879 H   0  0  0  0  0  0  0  0  0  0  0  0
   -0.0869    2.8183   -2.1964 H   0  0  0  0  0  0  0  0  0  0  0  0
    0.9722    1.4786   -2.5911 H   0  0  0  0  0  0  0  0  0  0  0  0
    4.8956    0.3895   -1.2302 H   0  0  0  0  0  0  0  0  0  0  0  0
    5.2498    1.1418    0.3138 H   0  0  0  0  0  0  0  0  0  0  0  0
    3.9353   -0.7310    1.4398 H   0  0  0  0  0  0  0  0  0  0  0  0
    3.7585   -1.8010   -1.4220 H   0  0  0  0  0  0  0  0  0  0  0  0
    2.3980   -1.2760   -0.4328 H   0  0  0  0  0  0  0  0  0  0  0  0
    6.3654   -0.9025    1.2348 H   0  0  0  0  0  0  0  0  0  0  0  0
    6.2200   -1.5786   -0.3858 H   0  0  0  0  0  0  0  0  0  0  0  0
    2.6400   -3.7392   -0.4331 H   0  0  0  0  0  0  0  0  0  0  0  0
    2.7794   -3.0571    1.1854 H   0  0  0  0  0  0  0  0  0  0  0  0
    5.2321   -2.8374    2.2178 H   0  0  0  0  0  0  0  0  0  0  0  0
    6.5809   -3.3853    1.2255 H   0  0  0  0  0  0  0  0  0  0  0  0
    4.5198   -4.7552    0.8657 H   0  0  0  0  0  0  0  0  0  0  0  0
    5.0732   -3.9764   -0.6149 H   0  0  0  0  0  0  0  0  0  0  0  0
   -0.0513    1.1602    2.6545 H   0  0  0  0  0  0  0  0  0  0  0  0
   -1.8148   -0.4204    2.1368 H   0  0  0  0  0  0  0  0  0  0  0  0
   -1.3373   -2.8374   -0.3483 H   0  0  0  0  0  0  0  0  0  0  0  0
   -3.8113    1.2404   -0.7630 H   0  0  0  0  0  0  0  0  0  0  0  0
   -5.4770    0.7939   -0.6466 H   0  0  0  0  0  0  0  0  0  0  0  0
   -6.1014   -1.4887   -0.6994 H   0  0  0  0  0  0  0  0  0  0  0  0
   -3.0737   -4.5236   -0.8201 H   0  0  0  0  0  0  0  0  0  0  0  0
   -5.4548   -3.8495   -0.9961 H   0  0  0  0  0  0  0  0  0  0  0  0
   -5.7731   -0.5423    1.9014 H   0  0  0  0  0  0  0  0  0  0  0  0
   -6.6302    0.9410    1.4217 H   0  0  0  0  0  0  0  0  0  0  0  0
   -5.7221    0.8615    2.9422 H   0  0  0  0  0  0  0  0  0  0  0  0
   -3.4530    2.8267    0.8949 H   0  0  0  0  0  0  0  0  0  0  0  0
   -4.3715    2.7813    2.3899 H   0  0  0  0  0  0  0  0  0  0  0  0
   -5.2226    2.9934    0.8441 H   0  0  0  0  0  0  0  0  0  0  0  0
  1 20  2  0  0  0  0
  2  8  1  0  0  0  0
  2  9  1  0  0  0  0
  2 11  1  0  0  0  0
  3 10  1  0  0  0  0
  3 13  1  0  0  0  0
  3 20  1  0  0  0  0
  4 26  1  0  0  0  0
  4 30  1  0  0  0  0
  4 31  1  0  0  0  0
  5  7  1  0  0  0  0
  5  8  1  0  0  0  0
  5 10  1  0  0  0  0
  5 32  1  0  0  0  0
  6  7  1  0  0  0  0
  6  9  1  0  0  0  0
  6 13  1  0  0  0  0
  6 33  1  0  0  0  0
  7 34  1  0  0  0  0
  7 35  1  0  0  0  0
  8 36  1  0  0  0  0
  8 37  1  0  0  0  0
  9 38  1  0  0  0  0
  9 39  1  0  0  0  0
 10 40  1  0  0  0  0
 10 41  1  0  0  0  0
 11 12  1  0  0  0  0
 11 42  1  0  0  0  0
 11 43  1  0  0  0  0
 12 14  1  0  0  0  0
 12 15  1  0  0  0  0
 12 44  1  0  0  0  0
 13 19  2  0  0  0  0
 14 16  1  0  0  0  0
 14 45  1  0  0  0  0
 14 46  1  0  0  0  0
 15 17  1  0  0  0  0
 15 47  1  0  0  0  0
 15 48  1  0  0  0  0
 16 18  1  0  0  0  0
 16 49  1  0  0  0  0
 16 50  1  0  0  0  0
 17 18  1  0  0  0  0
 17 51  1  0  0  0  0
 17 52  1  0  0  0  0
 18 53  1  0  0  0  0
 18 54  1  0  0  0  0
 19 22  1  0  0  0  0
 19 55  1  0  0  0  0
 20 21  1  0  0  0  0
 21 22  2  0  0  0  0
 21 23  1  0  0  0  0
 22 56  1  0  0  0  0
 23 24  1  0  0  0  0
 23 25  2  0  0  0  0
 24 26  1  0  0  0  0
 24 27  2  0  0  0  0
 25 28  1  0  0  0  0
 25 57  1  0  0  0  0
 26 58  1  0  0  0  0
 26 59  1  0  0  0  0
 27 29  1  0  0  0  0
 27 60  1  0  0  0  0
 28 29  2  0  0  0  0
 28 61  1  0  0  0  0
 29 62  1  0  0  0  0
 30 63  1  0  0  0  0
 30 64  1  0  0  0  0
 30 65  1  0  0  0  0
 31 66  1  0  0  0  0
 31 67  1  0  0  0  0
 31 68  1  0  0  0  0
M  END
> <PUBCHEM_COMPOUND_CID>
40587791

> <PUBCHEM_CONFORMER_RMSD>
1

> <PUBCHEM_CONFORMER_DIVERSEORDER>
1
16
13
8
18
17
10
9
14
15
6
3
11
5
19
12
20
4
7
2

> <PUBCHEM_MMFF94_PARTIAL_CHARGES>
29
1 -0.57
10 0.3
11 0.27
13 -0.03
19 -0.15
2 -0.81
20 0.62
21 -0.01
22 -0.15
23 0.03
24 -0.14
25 -0.15
26 0.41
27 -0.15
28 -0.15
29 -0.15
3 -0.47
30 0.27
31 0.27
4 -0.81
55 0.15
56 0.15
57 0.15
6 0.14
60 0.15
61 0.15
62 0.15
8 0.27
9 0.27

> <PUBCHEM_EFFECTIVE_ROTOR_COUNT>
7.2

> <PUBCHEM_PHARMACOPHORE_FEATURES>
8
1 1 acceptor
1 2 cation
1 4 cation
6 12 14 15 16 17 18 rings
6 2 5 6 7 8 9 rings
6 23 24 25 27 28 29 rings
6 3 13 19 20 21 22 rings
6 3 5 6 7 10 13 rings

> <PUBCHEM_HEAVY_ATOM_COUNT>
31

> <PUBCHEM_ATOM_DEF_STEREO_COUNT>
2

> <PUBCHEM_ATOM_UDEF_STEREO_COUNT>
0

> <PUBCHEM_BOND_DEF_STEREO_COUNT>
0

> <PUBCHEM_BOND_UDEF_STEREO_COUNT>
0

> <PUBCHEM_ISOTOPIC_ATOM_COUNT>
0

> <PUBCHEM_COMPONENT_COUNT>
1

> <PUBCHEM_CACTVS_TAUTO_COUNT>
3

> <PUBCHEM_CONFORMER_ID>
026B520F00000001

> <PUBCHEM_MMFF94_ENERGY>
75.6566

> <PUBCHEM_FEATURE_SELFOVERLAP>
42.151

> <PUBCHEM_SHAPE_FINGERPRINT>
10622 236 18198889474075504463
11135926 11 18335136531984886044
11756154 67 18125171424522493822
11796584 16 18059307546654619732
11963148 33 17547000188545759279
12107183 9 18340774732626981649
12128747 34 17202469035745062450
12422481 6 17843406176319539840
13004483 165 18192149296361515834
13533116 47 18196087961776651831
13583140 156 17630600335355129961
1361 2 18190456250408257578
13726171 33 16913159128502335857
14117953 113 18125722288142240110
14347332 77 18199744903423368223
14394314 77 18413108351681666448
1454969 45 18334857247820959776
15250474 111 18269273624326621903
17349148 13 17346330292802181745
17818456 19 18271815583778377809
1813 80 18040995124859927784
19246450 95 17838906936400707817
19319366 153 17621031397100482852
20775530 9 18262790758315405374
21703447 108 17842832497696108209
21987440 362 17178556668287426077
23559900 14 18268133418221001515
3633792 109 18336811066898468263
3680242 22 18339083692233514074
460360 51 18269574839321022155
46194498 28 17531801489063723420
463206 1 18334296466077554122
5081480 168 16660651768760777772
5104073 3 17845939640457561329
513202 73 17968662605976533117
5326457 24 18411418457663937543
56633871 153 18267585693684525626

> <PUBCHEM_SHAPE_MULTIPOLES>
617.15
12.8
4.91
1.59
1.02
1.78
-0.06
9.59
3.29
-3.22
-0.44
0.72
-0.84
-3.27

> <PUBCHEM_SHAPE_SELFOVERLAP>
1322.43

> <PUBCHEM_SHAPE_VOLUME>
335.2

> <PUBCHEM_COORDINATE_TYPE>
2
5
10

$$$$
