40778264
  -OEChem-12032416353D

 53 54  0     1  0  0  0  0  0999 V2000
   -0.6262    0.4949   -0.8447 O   0  0  0  0  0  0  0  0  0  0  0  0
    0.9491    3.0228   -1.4666 O   0  0  0  0  0  0  0  0  0  0  0  0
   -0.1412    3.5339    1.0070 O   0  0  0  0  0  0  0  0  0  0  0  0
   -3.7391    1.0291   -0.8973 O   0  0  0  0  0  0  0  0  0  0  0  0
    2.9561   -0.3099   -0.4117 N   0  0  0  0  0  0  0  0  0  0  0  0
   -4.4263    0.2896    1.1959 N   0  0  0  0  0  0  0  0  0  0  0  0
   -7.2885   -1.8014    0.0531 N   0  0  0  0  0  0  0  0  0  0  0  0
    5.7428   -0.8250    1.3420 N   0  0  0  0  0  0  0  0  0  0  0  0
    1.1374    2.0410   -0.4482 C   0  0  1  0  0  0  0  0  0  0  0  0
    0.0837    2.1925    0.6293 C   0  0  2  0  0  0  0  0  0  0  0  0
    0.7954    0.6768   -1.0370 C   0  0  1  0  0  0  0  0  0  0  0  0
   -1.1314    1.5784   -0.0447 C   0  0  2  0  0  0  0  0  0  0  0  0
    1.5106   -0.4708   -0.3372 C   0  0  0  0  0  0  0  0  0  0  0  0
   -2.1628    1.0515    0.9371 C   0  0  0  0  0  0  0  0  0  0  0  0
   -3.5108    0.7999    0.2874 C   0  0  0  0  0  0  0  0  0  0  0  0
    3.6380   -1.4034    0.2674 C   0  0  0  0  0  0  0  0  0  0  0  0
   -5.7885   -0.0391    0.8434 C   0  0  0  0  0  0  0  0  0  0  0  0
    5.1349   -1.2512    0.2123 C   0  0  0  0  0  0  0  0  0  0  0  0
   -5.9038   -1.4826    0.3761 C   0  0  0  0  0  0  0  0  0  0  0  0
    5.8042   -1.5482   -0.9640 C   0  0  0  0  0  0  0  0  0  0  0  0
   -7.5101   -3.2480    0.1021 C   0  0  0  0  0  0  0  0  0  0  0  0
   -7.6443   -1.2787   -1.2676 C   0  0  0  0  0  0  0  0  0  0  0  0
    7.1864   -1.3985   -0.9818 C   0  0  0  0  0  0  0  0  0  0  0  0
    7.0869   -0.6912    1.2869 C   0  0  0  0  0  0  0  0  0  0  0  0
    7.8476   -0.9624    0.1610 C   0  0  0  0  0  0  0  0  0  0  0  0
    2.1548    2.1601   -0.0670 H   0  0  0  0  0  0  0  0  0  0  0  0
    0.3659    1.6161    1.5186 H   0  0  0  0  0  0  0  0  0  0  0  0
    0.9871    0.6372   -2.1158 H   0  0  0  0  0  0  0  0  0  0  0  0
   -1.5911    2.3099   -0.7220 H   0  0  0  0  0  0  0  0  0  0  0  0
    1.2008   -1.4154   -0.8030 H   0  0  0  0  0  0  0  0  0  0  0  0
    1.1843   -0.5292    0.7090 H   0  0  0  0  0  0  0  0  0  0  0  0
   -2.3248    1.7802    1.7406 H   0  0  0  0  0  0  0  0  0  0  0  0
   -1.8211    0.1101    1.3843 H   0  0  0  0  0  0  0  0  0  0  0  0
    1.6237    2.8661   -2.1494 H   0  0  0  0  0  0  0  0  0  0  0  0
    0.7055    3.8939    1.3214 H   0  0  0  0  0  0  0  0  0  0  0  0
    3.2400   -0.2786   -1.3908 H   0  0  0  0  0  0  0  0  0  0  0  0
    3.3647   -2.3707   -0.1735 H   0  0  0  0  0  0  0  0  0  0  0  0
    3.3314   -1.4366    1.3207 H   0  0  0  0  0  0  0  0  0  0  0  0
   -4.1351    0.1278    2.1556 H   0  0  0  0  0  0  0  0  0  0  0  0
   -6.3986    0.1284    1.7381 H   0  0  0  0  0  0  0  0  0  0  0  0
   -6.1163    0.6674    0.0746 H   0  0  0  0  0  0  0  0  0  0  0  0
   -5.2286   -1.6841   -0.4663 H   0  0  0  0  0  0  0  0  0  0  0  0
   -5.5523   -2.1173    1.2014 H   0  0  0  0  0  0  0  0  0  0  0  0
    5.2796   -1.8892   -1.8502 H   0  0  0  0  0  0  0  0  0  0  0  0
   -7.3079   -3.6362    1.1066 H   0  0  0  0  0  0  0  0  0  0  0  0
   -6.8766   -3.7868   -0.6119 H   0  0  0  0  0  0  0  0  0  0  0  0
   -8.5572   -3.4851   -0.1175 H   0  0  0  0  0  0  0  0  0  0  0  0
   -7.5751   -0.1874   -1.3050 H   0  0  0  0  0  0  0  0  0  0  0  0
   -8.6871   -1.5217   -1.5032 H   0  0  0  0  0  0  0  0  0  0  0  0
   -7.0130   -1.6936   -2.0621 H   0  0  0  0  0  0  0  0  0  0  0  0
    7.7474   -1.6215   -1.8843 H   0  0  0  0  0  0  0  0  0  0  0  0
    7.5547   -0.3483    2.2038 H   0  0  0  0  0  0  0  0  0  0  0  0
    8.9245   -0.8385    0.1700 H   0  0  0  0  0  0  0  0  0  0  0  0
  1 11  1  0  0  0  0
  1 12  1  0  0  0  0
  2  9  1  0  0  0  0
  2 34  1  0  0  0  0
  3 10  1  0  0  0  0
  3 35  1  0  0  0  0
  4 15  2  0  0  0  0
  5 13  1  0  0  0  0
  5 16  1  0  0  0  0
  5 36  1  0  0  0  0
  6 15  1  0  0  0  0
  6 17  1  0  0  0  0
  6 39  1  0  0  0  0
  7 19  1  0  0  0  0
  7 21  1  0  0  0  0
  7 22  1  0  0  0  0
  8 18  1  0  0  0  0
  8 24  2  0  0  0  0
  9 10  1  0  0  0  0
  9 11  1  0  0  0  0
  9 26  1  0  0  0  0
 10 12  1  0  0  0  0
 10 27  1  0  0  0  0
 11 13  1  0  0  0  0
 11 28  1  0  0  0  0
 12 14  1  0  0  0  0
 12 29  1  0  0  0  0
 13 30  1  0  0  0  0
 13 31  1  0  0  0  0
 14 15  1  0  0  0  0
 14 32  1  0  0  0  0
 14 33  1  0  0  0  0
 16 18  1  0  0  0  0
 16 37  1  0  0  0  0
 16 38  1  0  0  0  0
 17 19  1  0  0  0  0
 17 40  1  0  0  0  0
 17 41  1  0  0  0  0
 18 20  2  0  0  0  0
 19 42  1  0  0  0  0
 19 43  1  0  0  0  0
 20 23  1  0  0  0  0
 20 44  1  0  0  0  0
 21 45  1  0  0  0  0
 21 46  1  0  0  0  0
 21 47  1  0  0  0  0
 22 48  1  0  0  0  0
 22 49  1  0  0  0  0
 22 50  1  0  0  0  0
 23 25  2  0  0  0  0
 23 51  1  0  0  0  0
 24 25  1  0  0  0  0
 24 52  1  0  0  0  0
 25 53  1  0  0  0  0
M  END
> <PUBCHEM_COMPOUND_CID>
40778264

> <PUBCHEM_CONFORMER_RMSD>
1

> <PUBCHEM_CONFORMER_DIVERSEORDER>
1
132
41
66
156
175
161
89
111
99
22
198
56
116
185
40
199
173
117
19
216
182
122
131
74
53
102
83
23
169
95
167
137
188
82
152
149
200
31
86
71
58
69
153
206
35
123
130
128
78
212
151
204
20
101
177
55
209
44
140
196
115
203
125
165
211
155
176
52
36
170
217
97
80
118
90
183
192
93
50
33
187
11
61
201
144
45
210
141
160
119
18
135
191
81
195
60
134
145
142
139
39
184
29
205
85
57
215
157
32
63
28
43
12
171
194
9
146
13
178
16
189
42
162
127
214
202
107
87
207
46
110
190
8
114
64
4
109
129
213
197
159
25
143
94
79
3
59
180
124
112
166
6
65
26
174
168
37
73
27
126
34
120
48
92
67
163
68
154
147
100
172
136
10
24
15
21
72
150
76
179
193
77
158
113
49
2
98
186
91
108
84
62
133
47
208
88
181
54
138
5
164
30
105
104
121
148
51
38
7
96
17
70
75
14
106
103

> <PUBCHEM_MMFF94_PARTIAL_CHARGES>
33
1 -0.56
10 0.28
11 0.28
12 0.28
13 0.27
14 0.06
15 0.57
16 0.41
17 0.3
18 0.17
19 0.27
2 -0.68
20 -0.15
21 0.27
22 0.27
23 -0.15
24 0.16
25 -0.15
3 -0.68
34 0.4
35 0.4
36 0.36
39 0.37
4 -0.57
44 0.15
5 -0.9
51 0.15
52 0.15
53 0.15
6 -0.73
7 -0.81
8 -0.62
9 0.28

> <PUBCHEM_EFFECTIVE_ROTOR_COUNT>
11

> <PUBCHEM_PHARMACOPHORE_FEATURES>
13
1 1 acceptor
1 2 acceptor
1 2 donor
1 3 acceptor
1 3 donor
1 4 acceptor
1 5 cation
1 5 donor
1 6 donor
1 7 cation
1 8 acceptor
5 1 9 10 11 12 rings
6 8 18 20 23 24 25 rings

> <PUBCHEM_HEAVY_ATOM_COUNT>
25

> <PUBCHEM_ATOM_DEF_STEREO_COUNT>
4

> <PUBCHEM_ATOM_UDEF_STEREO_COUNT>
0

> <PUBCHEM_BOND_DEF_STEREO_COUNT>
0

> <PUBCHEM_BOND_UDEF_STEREO_COUNT>
0

> <PUBCHEM_ISOTOPIC_ATOM_COUNT>
0

> <PUBCHEM_COMPONENT_COUNT>
1

> <PUBCHEM_CACTVS_TAUTO_COUNT>
2

> <PUBCHEM_CONFORMER_ID>
026E3A1800000001

> <PUBCHEM_MMFF94_ENERGY>
53.4293

> <PUBCHEM_FEATURE_SELFOVERLAP>
65.984

> <PUBCHEM_SHAPE_FINGERPRINT>
10 15 14836405826666141459
106641 1 17846494846664055674
10670039 82 14707200003821177527
11135609 99 18341613780300477863
11724838 91 18259707796904832318
11823591 26 9655575180098969329
12293681 160 12468357955315963693
12516196 113 18410295783335543544
13177829 20 17418092122153485146
13631057 29 18261392204856445048
14068700 675 18408045108603232489
15183329 4 13840261476896581746
15301273 46 17560804277489073864
15350500 55 11311791540426891219
15357212 105 14906462404310652778
15728490 51 18342737438376686622
15979999 66 17894911849309042349
16991971 28 18340496629078123230
18335252 98 18131351900247481046
190975 80 18343300388055346650
20028762 73 18413674616696199527
20621476 66 10591747789202159018
20771845 171 17970350532245262156
21298829 104 9079116652546615090
21360443 89 18408878539171564962
21585482 111 10159439599896916515
21637258 2 18040997336467203449
23389318 12 18187652435669955286
23559900 14 16733561531898075069
2747138 104 18202002106015417392
2838139 119 8862648089041143155
3383291 50 18412547643464459187
3627633 1 18340489946025647273
445580 204 11169907282470067287
4461854 278 17703515479801964671
5104073 3 17774454892742576361
5219985 9 18187086139383316892
5718773 13 18410856603338925611
59682541 35 17988637519559326010
59682541 52 14490186103479845840
5969126 39 17458061534655413541
6126387 218 18343861096653271441
9511036 111 16414616307800373215

> <PUBCHEM_SHAPE_MULTIPOLES>
471.09
24.18
3.08
1.23
3.56
1.33
0.04
-26.26
-1.28
3.14
0.1
-0.38
0.19
-0.33

> <PUBCHEM_SHAPE_SELFOVERLAP>
955.578

> <PUBCHEM_SHAPE_VOLUME>
275.2

> <PUBCHEM_COORDINATE_TYPE>
2
5
10

$$$$
