40780675
  -OEChem-12032416173D

 59 61  0     1  0  0  0  0  0999 V2000
   -4.9227    3.3509   -0.7283 S   0  0  0  0  0  0  0  0  0  0  0  0
   -3.1684   -0.9033   -0.6497 O   0  0  0  0  0  0  0  0  0  0  0  0
   -4.7892   -3.3628    0.1108 O   0  0  0  0  0  0  0  0  0  0  0  0
   -5.5314   -1.4953    1.9896 O   0  0  0  0  0  0  0  0  0  0  0  0
   -0.6906   -1.9942   -1.9018 O   0  0  0  0  0  0  0  0  0  0  0  0
   -6.2991    3.2632   -0.2815 O   0  0  0  0  0  0  0  0  0  0  0  0
   -4.5846    4.0401   -1.9588 O   0  0  0  0  0  0  0  0  0  0  0  0
    5.8084   -0.7341   -0.9702 O   0  0  0  0  0  0  0  0  0  0  0  0
    1.0125   -1.7420   -0.3444 N   0  0  0  0  0  0  0  0  0  0  0  0
    3.3166   -0.2112    0.2134 N   0  0  0  0  0  0  0  0  0  0  0  0
   -4.2330    1.7671   -0.7403 N   0  0  0  0  0  0  0  0  0  0  0  0
   -2.7224   -2.2056   -0.2066 C   0  0  2  0  0  0  0  0  0  0  0  0
   -3.7480   -2.6863    0.8142 C   0  0  1  0  0  0  0  0  0  0  0  0
   -4.2613   -1.3802    1.3845 C   0  0  1  0  0  0  0  0  0  0  0  0
   -4.2968   -0.5003    0.1463 C   0  0  1  0  0  0  0  0  0  0  0  0
   -1.3268   -2.0451    0.3806 C   0  0  0  0  0  0  0  0  0  0  0  0
   -4.1991    0.9823    0.4583 C   0  0  0  0  0  0  0  0  0  0  0  0
   -0.3132   -1.9265   -0.7293 C   0  0  0  0  0  0  0  0  0  0  0  0
    1.4995   -1.6565    1.0337 C   0  0  0  0  0  0  0  0  0  0  0  0
    2.0651   -1.6407   -1.3519 C   0  0  0  0  0  0  0  0  0  0  0  0
    2.2861   -0.3639    1.2497 C   0  0  0  0  0  0  0  0  0  0  0  0
    2.8570   -0.3467   -1.1782 C   0  0  0  0  0  0  0  0  0  0  0  0
    4.4237    0.6102    0.4549 C   0  0  0  0  0  0  0  0  0  0  0  0
    5.6544    0.3370   -0.1418 C   0  0  0  0  0  0  0  0  0  0  0  0
    4.2874    1.7118    1.2997 C   0  0  0  0  0  0  0  0  0  0  0  0
   -3.9705    4.0953    0.5760 C   0  0  0  0  0  0  0  0  0  0  0  0
    6.7490    1.1652    0.1065 C   0  0  0  0  0  0  0  0  0  0  0  0
    5.3820    2.5399    1.5481 C   0  0  0  0  0  0  0  0  0  0  0  0
    6.6128    2.2667    0.9515 C   0  0  0  0  0  0  0  0  0  0  0  0
    7.1024   -0.9352   -1.5348 C   0  0  0  0  0  0  0  0  0  0  0  0
   -2.7225   -2.8688   -1.0794 H   0  0  0  0  0  0  0  0  0  0  0  0
   -3.3592   -3.3695    1.5746 H   0  0  0  0  0  0  0  0  0  0  0  0
   -3.5505   -0.9864    2.1211 H   0  0  0  0  0  0  0  0  0  0  0  0
   -5.2039   -0.6888   -0.4429 H   0  0  0  0  0  0  0  0  0  0  0  0
   -1.0679   -2.9264    0.9778 H   0  0  0  0  0  0  0  0  0  0  0  0
   -1.2745   -1.1436    1.0009 H   0  0  0  0  0  0  0  0  0  0  0  0
   -3.2549    1.1911    0.9749 H   0  0  0  0  0  0  0  0  0  0  0  0
   -5.0224    1.2582    1.1255 H   0  0  0  0  0  0  0  0  0  0  0  0
    2.1501   -2.5251    1.1945 H   0  0  0  0  0  0  0  0  0  0  0  0
    0.6929   -1.7203    1.7658 H   0  0  0  0  0  0  0  0  0  0  0  0
    1.6469   -1.6883   -2.3623 H   0  0  0  0  0  0  0  0  0  0  0  0
    2.7215   -2.5101   -1.2249 H   0  0  0  0  0  0  0  0  0  0  0  0
    2.7359   -0.4027    2.2494 H   0  0  0  0  0  0  0  0  0  0  0  0
    1.5987    0.4906    1.2132 H   0  0  0  0  0  0  0  0  0  0  0  0
    2.2131    0.5109   -1.4140 H   0  0  0  0  0  0  0  0  0  0  0  0
    3.6700   -0.3361   -1.9096 H   0  0  0  0  0  0  0  0  0  0  0  0
   -4.4093   -4.1791   -0.2566 H   0  0  0  0  0  0  0  0  0  0  0  0
   -5.4582   -2.1586    2.6968 H   0  0  0  0  0  0  0  0  0  0  0  0
   -3.4159    1.6429   -1.3526 H   0  0  0  0  0  0  0  0  0  0  0  0
    3.3415    1.9663    1.7692 H   0  0  0  0  0  0  0  0  0  0  0  0
   -4.2628    5.1459    0.6441 H   0  0  0  0  0  0  0  0  0  0  0  0
   -4.1879    3.5964    1.5214 H   0  0  0  0  0  0  0  0  0  0  0  0
   -2.9101    4.0259    0.3259 H   0  0  0  0  0  0  0  0  0  0  0  0
    7.7348    1.0171   -0.3203 H   0  0  0  0  0  0  0  0  0  0  0  0
    5.2754    3.3999    2.2028 H   0  0  0  0  0  0  0  0  0  0  0  0
    7.4641    2.9129    1.1449 H   0  0  0  0  0  0  0  0  0  0  0  0
    7.0425   -1.8287   -2.1651 H   0  0  0  0  0  0  0  0  0  0  0  0
    7.8526   -1.1414   -0.7637 H   0  0  0  0  0  0  0  0  0  0  0  0
    7.3914   -0.1054   -2.1889 H   0  0  0  0  0  0  0  0  0  0  0  0
  1  6  2  0  0  0  0
  1  7  2  0  0  0  0
  1 11  1  0  0  0  0
  1 26  1  0  0  0  0
  2 12  1  0  0  0  0
  2 15  1  0  0  0  0
  3 13  1  0  0  0  0
  3 47  1  0  0  0  0
  4 14  1  0  0  0  0
  4 48  1  0  0  0  0
  5 18  2  0  0  0  0
  8 24  1  0  0  0  0
  8 30  1  0  0  0  0
  9 18  1  0  0  0  0
  9 19  1  0  0  0  0
  9 20  1  0  0  0  0
 10 21  1  0  0  0  0
 10 22  1  0  0  0  0
 10 23  1  0  0  0  0
 11 17  1  0  0  0  0
 11 49  1  0  0  0  0
 12 13  1  0  0  0  0
 12 16  1  0  0  0  0
 12 31  1  0  0  0  0
 13 14  1  0  0  0  0
 13 32  1  0  0  0  0
 14 15  1  0  0  0  0
 14 33  1  0  0  0  0
 15 17  1  0  0  0  0
 15 34  1  0  0  0  0
 16 18  1  0  0  0  0
 16 35  1  0  0  0  0
 16 36  1  0  0  0  0
 17 37  1  0  0  0  0
 17 38  1  0  0  0  0
 19 21  1  0  0  0  0
 19 39  1  0  0  0  0
 19 40  1  0  0  0  0
 20 22  1  0  0  0  0
 20 41  1  0  0  0  0
 20 42  1  0  0  0  0
 21 43  1  0  0  0  0
 21 44  1  0  0  0  0
 22 45  1  0  0  0  0
 22 46  1  0  0  0  0
 23 24  1  0  0  0  0
 23 25  2  0  0  0  0
 24 27  2  0  0  0  0
 25 28  1  0  0  0  0
 25 50  1  0  0  0  0
 26 51  1  0  0  0  0
 26 52  1  0  0  0  0
 26 53  1  0  0  0  0
 27 29  1  0  0  0  0
 27 54  1  0  0  0  0
 28 29  2  0  0  0  0
 28 55  1  0  0  0  0
 29 56  1  0  0  0  0
 30 57  1  0  0  0  0
 30 58  1  0  0  0  0
 30 59  1  0  0  0  0
M  END
> <PUBCHEM_COMPOUND_CID>
40780675

> <PUBCHEM_CONFORMER_RMSD>
1

> <PUBCHEM_CONFORMER_DIVERSEORDER>
7
54
125
192
151
185
188
173
112
196
76
191
208
110
224
204
193
172
80
190
179
219
104
175
189
141
52
222
177
124
167
129
16
149
212
142
147
182
154
87
57
170
105
120
165
180
210
50
56
64
123
162
209
66
215
39
211
156
121
115
77
95
169
143
198
108
29
48
85
203
159
139
81
171
187
90
19
166
24
63
107
184
103
93
152
186
55
183
25
42
132
207
17
22
137
135
91
150
75
65
127
68
202
213
83
130
74
59
122
61
31
18
157
102
118
34
20
96
199
82
21
216
131
200
28
106
205
84
158
78
86
11
161
51
218
220
153
214
178
45
40
23
60
201
70
217
38
194
98
181
136
43
155
114
117
195
197
8
3
126
119
168
160
145
100
79
99
13
176
71
206
164
69
116
32
67
94
37
47
30
223
111
73
89
62
53
144
133
9
146
140
41
134
97
27
35
88
163
138
174
4
6
36
113
33
44
72
221
1
128
101
148
109
46
92
14
2
15
10
5
26
12
49
58

> <PUBCHEM_MMFF94_PARTIAL_CHARGES>
37
1 1.33
10 -0.84
11 -0.91
12 0.28
13 0.28
14 0.28
15 0.28
16 0.06
17 0.36
18 0.57
19 0.3
2 -0.56
20 0.3
21 0.37
22 0.37
23 0.1
24 0.08
25 -0.15
26 0.11
27 -0.15
28 -0.15
29 -0.15
3 -0.68
30 0.28
4 -0.68
47 0.4
48 0.4
49 0.42
5 -0.57
50 0.15
54 0.15
55 0.15
56 0.15
6 -0.65
7 -0.65
8 -0.36
9 -0.66

> <PUBCHEM_EFFECTIVE_ROTOR_COUNT>
10.2

> <PUBCHEM_PHARMACOPHORE_FEATURES>
14
1 10 cation
1 11 donor
1 2 acceptor
1 3 acceptor
1 3 donor
1 4 acceptor
1 4 donor
1 5 acceptor
1 6 acceptor
1 7 acceptor
1 8 acceptor
5 2 12 13 14 15 rings
6 23 24 25 27 28 29 rings
6 9 10 19 20 21 22 rings

> <PUBCHEM_HEAVY_ATOM_COUNT>
30

> <PUBCHEM_ATOM_DEF_STEREO_COUNT>
4

> <PUBCHEM_ATOM_UDEF_STEREO_COUNT>
0

> <PUBCHEM_BOND_DEF_STEREO_COUNT>
0

> <PUBCHEM_BOND_UDEF_STEREO_COUNT>
0

> <PUBCHEM_ISOTOPIC_ATOM_COUNT>
0

> <PUBCHEM_COMPONENT_COUNT>
1

> <PUBCHEM_CACTVS_TAUTO_COUNT>
1

> <PUBCHEM_CONFORMER_ID>
026E438300000007

> <PUBCHEM_MMFF94_ENERGY>
97.0757

> <PUBCHEM_FEATURE_SELFOVERLAP>
71.08

> <PUBCHEM_SHAPE_FINGERPRINT>
10554248 39 16630536128813360228
10675989 125 17545592354327207341
10864689 126 18265610971022910988
12107183 9 17899963950751673338
13726171 33 18412547591713433697
13947947 63 17751054969319656600
14223995 32 18336542699392142588
14347329 18 18271233937441745281
14395042 24 17895490193864914465
14739800 52 18335691715777547771
15183329 4 16701750440266743178
15484559 13 14751467204389089947
19438510 23 18263082137243802705
20501277 180 17106760763008995173
21033648 144 18131355240940902791
21033648 29 18272076228210733864
21279426 13 18201443562909373068
21315764 268 18129663139837342288
21859007 373 18413109442402392958
21927370 108 18120384400689218691
22956985 138 16746222636432052787
23569914 2 17554561323914445936
2747138 104 18116162240929156235
2838139 119 18272364261449524766
3418910 222 17400639815052416256
4144715 1 18336274487327273986
437795 96 18335973195245294181
508706 21 18339069475965214321
5104073 3 17894901906765349402
552612 73 18335139740066921990
57527585 21 17060058082840932681
7808743 9 18335980883504583937
9849439 229 18045495310547655685

> <PUBCHEM_SHAPE_MULTIPOLES>
565.21
19.37
4.72
1.59
14.26
4.42
-0.12
12.32
0.54
-9.42
-0.53
0.11
0.07
4.72

> <PUBCHEM_SHAPE_SELFOVERLAP>
1163.895

> <PUBCHEM_SHAPE_VOLUME>
326.5

> <PUBCHEM_COORDINATE_TYPE>
2
5
10

$$$$
