28961736
  -OEChem-12032416403D

 59 62  0     1  0  0  0  0  0999 V2000
    2.5232   -0.2322    2.4154 S   0  0  0  0  0  0  0  0  0  0  0  0
    0.2718    3.3604    0.3357 O   0  0  0  0  0  0  0  0  0  0  0  0
   -0.8044    1.8027   -1.9846 O   0  0  0  0  0  0  0  0  0  0  0  0
    0.9305    5.5413   -1.3119 O   0  0  0  0  0  0  0  0  0  0  0  0
    1.5209   -1.1795    2.8648 O   0  0  0  0  0  0  0  0  0  0  0  0
    3.6028    0.1619    3.3001 O   0  0  0  0  0  0  0  0  0  0  0  0
    5.0191   -2.4139   -2.4876 O   0  0  0  0  0  0  0  0  0  0  0  0
   -2.1645    0.6027    0.2430 N   0  0  1  0  0  0  0  0  0  0  0  0
    1.7519    1.1651    1.8234 N   0  0  0  0  0  0  0  0  0  0  0  0
   -1.6641    1.9762    0.2846 C   0  0  1  0  0  0  0  0  0  0  0  0
   -0.2948    2.1794    0.9457 C   0  0  1  0  0  0  0  0  0  0  0  0
   -1.4932    2.6457   -1.0704 C   0  0  1  0  0  0  0  0  0  0  0  0
   -0.6234    3.8371   -0.6875 C   0  0  2  0  0  0  0  0  0  0  0  0
   -2.2511    0.0384    1.5955 C   0  0  0  0  0  0  0  0  0  0  0  0
    0.7192    1.0533    0.7778 C   0  0  0  0  0  0  0  0  0  0  0  0
   -3.4831    0.5564   -0.4134 C   0  0  0  0  0  0  0  0  0  0  0  0
   -2.5740   -1.4572    1.5158 C   0  0  0  0  0  0  0  0  0  0  0  0
    0.1867    4.4445   -1.8181 C   0  0  0  0  0  0  0  0  0  0  0  0
   -4.1257   -0.8110   -0.3688 C   0  0  0  0  0  0  0  0  0  0  0  0
   -3.7197   -1.7596    0.5854 C   0  0  0  0  0  0  0  0  0  0  0  0
   -5.1782   -1.1170   -1.2422 C   0  0  0  0  0  0  0  0  0  0  0  0
   -4.3456   -3.0121    0.6276 C   0  0  0  0  0  0  0  0  0  0  0  0
   -5.8017   -2.3632   -1.1861 C   0  0  0  0  0  0  0  0  0  0  0  0
   -5.3843   -3.3105   -0.2538 C   0  0  0  0  0  0  0  0  0  0  0  0
    3.2680   -0.8816    0.9497 C   0  0  0  0  0  0  0  0  0  0  0  0
    2.5640   -1.7822    0.1503 C   0  0  0  0  0  0  0  0  0  0  0  0
    4.5605   -0.4959    0.5941 C   0  0  0  0  0  0  0  0  0  0  0  0
    3.1524   -2.2971   -1.0046 C   0  0  0  0  0  0  0  0  0  0  0  0
    5.1490   -1.0110   -0.5610 C   0  0  0  0  0  0  0  0  0  0  0  0
    4.4449   -1.9115   -1.3605 C   0  0  0  0  0  0  0  0  0  0  0  0
    4.2429   -3.3299   -3.2585 C   0  0  0  0  0  0  0  0  0  0  0  0
   -2.3759    2.5965    0.8532 H   0  0  0  0  0  0  0  0  0  0  0  0
   -0.4353    2.3958    2.0125 H   0  0  0  0  0  0  0  0  0  0  0  0
   -2.4329    2.9605   -1.5335 H   0  0  0  0  0  0  0  0  0  0  0  0
   -1.2341    4.6140   -0.2097 H   0  0  0  0  0  0  0  0  0  0  0  0
   -3.0365    0.5529    2.1676 H   0  0  0  0  0  0  0  0  0  0  0  0
   -1.3368    0.1438    2.1854 H   0  0  0  0  0  0  0  0  0  0  0  0
    1.2438    1.1354   -0.1791 H   0  0  0  0  0  0  0  0  0  0  0  0
    0.2715    0.0615    0.8268 H   0  0  0  0  0  0  0  0  0  0  0  0
   -3.3711    0.8256   -1.4700 H   0  0  0  0  0  0  0  0  0  0  0  0
   -4.1786    1.2691    0.0502 H   0  0  0  0  0  0  0  0  0  0  0  0
   -2.8101   -1.8211    2.5230 H   0  0  0  0  0  0  0  0  0  0  0  0
   -1.6907   -2.0030    1.1600 H   0  0  0  0  0  0  0  0  0  0  0  0
   -0.4664    4.8002   -2.6207 H   0  0  0  0  0  0  0  0  0  0  0  0
    0.9096    3.7316   -2.2263 H   0  0  0  0  0  0  0  0  0  0  0  0
    0.1214    1.7173   -1.7121 H   0  0  0  0  0  0  0  0  0  0  0  0
    2.2624    2.0565    1.8554 H   0  0  0  0  0  0  0  0  0  0  0  0
   -5.5173   -0.3850   -1.9708 H   0  0  0  0  0  0  0  0  0  0  0  0
   -4.0262   -3.7612    1.3476 H   0  0  0  0  0  0  0  0  0  0  0  0
    1.4330    5.9146   -2.0560 H   0  0  0  0  0  0  0  0  0  0  0  0
   -6.6137   -2.5949   -1.8692 H   0  0  0  0  0  0  0  0  0  0  0  0
   -5.8680   -4.2821   -0.2132 H   0  0  0  0  0  0  0  0  0  0  0  0
    1.5559   -2.0946    0.4081 H   0  0  0  0  0  0  0  0  0  0  0  0
    5.1243    0.2093    1.1980 H   0  0  0  0  0  0  0  0  0  0  0  0
    2.5495   -2.9913   -1.5797 H   0  0  0  0  0  0  0  0  0  0  0  0
    6.1555   -0.7058   -0.8340 H   0  0  0  0  0  0  0  0  0  0  0  0
    4.8534   -3.6280   -4.1172 H   0  0  0  0  0  0  0  0  0  0  0  0
    3.3399   -2.8556   -3.6576 H   0  0  0  0  0  0  0  0  0  0  0  0
    4.0183   -4.2414   -2.6941 H   0  0  0  0  0  0  0  0  0  0  0  0
  1  5  2  0  0  0  0
  1  6  2  0  0  0  0
  1  9  1  0  0  0  0
  1 25  1  0  0  0  0
  2 11  1  0  0  0  0
  2 13  1  0  0  0  0
  3 12  1  0  0  0  0
  3 46  1  0  0  0  0
  4 18  1  0  0  0  0
  4 50  1  0  0  0  0
  7 30  1  0  0  0  0
  7 31  1  0  0  0  0
  8 10  1  0  0  0  0
  8 14  1  0  0  0  0
  8 16  1  0  0  0  0
  9 15  1  0  0  0  0
  9 47  1  0  0  0  0
 10 11  1  0  0  0  0
 10 12  1  0  0  0  0
 10 32  1  0  0  0  0
 11 15  1  0  0  0  0
 11 33  1  0  0  0  0
 12 13  1  0  0  0  0
 12 34  1  0  0  0  0
 13 18  1  0  0  0  0
 13 35  1  0  0  0  0
 14 17  1  0  0  0  0
 14 36  1  0  0  0  0
 14 37  1  0  0  0  0
 15 38  1  0  0  0  0
 15 39  1  0  0  0  0
 16 19  1  0  0  0  0
 16 40  1  0  0  0  0
 16 41  1  0  0  0  0
 17 20  1  0  0  0  0
 17 42  1  0  0  0  0
 17 43  1  0  0  0  0
 18 44  1  0  0  0  0
 18 45  1  0  0  0  0
 19 20  1  0  0  0  0
 19 21  2  0  0  0  0
 20 22  2  0  0  0  0
 21 23  1  0  0  0  0
 21 48  1  0  0  0  0
 22 24  1  0  0  0  0
 22 49  1  0  0  0  0
 23 24  2  0  0  0  0
 23 51  1  0  0  0  0
 24 52  1  0  0  0  0
 25 26  2  0  0  0  0
 25 27  1  0  0  0  0
 26 28  1  0  0  0  0
 26 53  1  0  0  0  0
 27 29  2  0  0  0  0
 27 54  1  0  0  0  0
 28 30  2  0  0  0  0
 28 55  1  0  0  0  0
 29 30  1  0  0  0  0
 29 56  1  0  0  0  0
 31 57  1  0  0  0  0
 31 58  1  0  0  0  0
 31 59  1  0  0  0  0
M  END
> <PUBCHEM_COMPOUND_CID>
28961736

> <PUBCHEM_CONFORMER_RMSD>
1

> <PUBCHEM_CONFORMER_DIVERSEORDER>
1
37
36
85
80
29
73
81
83
18
3
93
8
41
72
38
84
45
33
78
30
53
57
70
86
34
20
10
91
28
55
39
67
43
42
58
22
76
32
46
9
63
87
61
47
64
35
21
92
24
74
69
77
15
25
16
66
90
14
52
51
65
44
7
48
82
2
79
59
54
68
6
50
5
11
19
89
60
31
13
56
62
17
40
23
4
71
12
75
49
26
27
88

> <PUBCHEM_MMFF94_PARTIAL_CHARGES>
42
1 1.45
10 0.27
11 0.28
12 0.28
13 0.28
14 0.27
15 0.36
16 0.41
17 0.14
18 0.28
19 -0.14
2 -0.56
20 -0.14
21 -0.15
22 -0.15
23 -0.15
24 -0.15
25 -0.01
26 -0.15
27 -0.15
28 -0.15
29 -0.15
3 -0.68
30 0.08
31 0.28
4 -0.68
46 0.4
47 0.42
48 0.15
49 0.15
5 -0.65
50 0.4
51 0.15
52 0.15
53 0.15
54 0.15
55 0.15
56 0.15
6 -0.65
7 -0.36
8 -0.81
9 -0.91

> <PUBCHEM_EFFECTIVE_ROTOR_COUNT>
8.8

> <PUBCHEM_PHARMACOPHORE_FEATURES>
14
1 2 acceptor
1 3 acceptor
1 3 donor
1 4 acceptor
1 4 donor
1 5 acceptor
1 6 acceptor
1 7 acceptor
1 8 cation
1 9 donor
5 2 10 11 12 13 rings
6 19 20 21 22 23 24 rings
6 25 26 27 28 29 30 rings
6 8 14 16 17 19 20 rings

> <PUBCHEM_HEAVY_ATOM_COUNT>
31

> <PUBCHEM_ATOM_DEF_STEREO_COUNT>
4

> <PUBCHEM_ATOM_UDEF_STEREO_COUNT>
0

> <PUBCHEM_BOND_DEF_STEREO_COUNT>
0

> <PUBCHEM_BOND_UDEF_STEREO_COUNT>
0

> <PUBCHEM_ISOTOPIC_ATOM_COUNT>
0

> <PUBCHEM_COMPONENT_COUNT>
1

> <PUBCHEM_CACTVS_TAUTO_COUNT>
1

> <PUBCHEM_CONFORMER_ID>
01B9EBC800000001

> <PUBCHEM_MMFF94_ENERGY>
80.2044

> <PUBCHEM_FEATURE_SELFOVERLAP>
71.094

> <PUBCHEM_SHAPE_FINGERPRINT>
10764073 3 16771563763442244025
10928967 22 16414911917049990550
11049842 53 16748452956707238224
11477941 20 18046942357974934100
11488393 25 17829063343566976249
12128747 34 17131552718045399969
12553582 1 18186518791704865729
12623949 98 17417819469140217374
12633046 712 17417535687939960064
12633257 1 14333405683655023435
12788726 201 17823974537613537665
12977781 61 17766243537537201290
1361 87 17485661351298598622
13757389 114 18121794828656137621
13782708 43 18130792205626530422
14114206 34 17677348124897958035
14910302 57 18197492926935586746
14918310 93 17753313559835651156
14950920 106 15698277832888136719
15475509 8 18339075992021186273
15484559 13 17536869249551622076
15664445 248 18261384611122287288
15815584 197 16808409789526878049
1813 80 18336535106026392161
21223535 225 13769307698223639070
21315759 227 17772470089165119094
22122407 14 10955665178772493159
22440779 20 17773055084784478168
22849339 104 18122344571278610229
23559900 14 18046045311132085481
3737641 26 17560808688953698142
376196 1 11746939806330781456
4280585 95 18261382369265286392
437795 70 18337379454100943205
46194498 28 17899686054088841655
484985 159 16983237275123952418
5081480 168 17749393728199760729
613672 6 18338785810645087383
6669772 16 17616826864810752828
86090 222 18130503136414618714

> <PUBCHEM_SHAPE_MULTIPOLES>
596.64
11.79
5.71
2.74
3.01
7.11
-0.35
-16.5
4.13
0.41
4.59
-3.81
-0.89
2.54

> <PUBCHEM_SHAPE_SELFOVERLAP>
1259.537

> <PUBCHEM_SHAPE_VOLUME>
335.6

> <PUBCHEM_COORDINATE_TYPE>
2
5
10

$$$$
