40777193
  -OEChem-12032416173D

 71 75  0     1  0  0  0  0  0999 V2000
   -8.0249   -4.2987    0.0409 S   0  0  0  0  0  0  0  0  0  0  0  0
   -4.7779    1.9383   -0.4194 O   0  0  0  0  0  0  0  0  0  0  0  0
   -0.6351    3.7468    0.0762 N   0  0  2  0  0  0  0  0  0  0  0  0
    3.2059    0.8298   -0.4579 N   0  0  0  0  0  0  0  0  0  0  0  0
   -2.8239    0.8814   -1.0551 N   0  0  0  0  0  0  0  0  0  0  0  0
    5.6033   -0.7077   -0.2397 N   0  0  0  0  0  0  0  0  0  0  0  0
   -4.6697   -0.3976   -0.6255 N   0  0  0  0  0  0  0  0  0  0  0  0
    0.9368    1.9402    1.0921 C   0  0  2  0  0  0  0  0  0  0  0  0
    1.6299    2.6824   -0.0733 C   0  0  2  0  0  0  0  0  0  0  0  0
   -1.3344    2.4345    0.1290 C   0  0  2  0  0  0  0  0  0  0  0  0
   -0.3760    1.3131    0.5881 C   0  0  0  0  0  0  0  0  0  0  0  0
    0.6059    3.6366   -0.7281 C   0  0  0  0  0  0  0  0  0  0  0  0
    0.5609    3.0051    2.1402 C   0  0  0  0  0  0  0  0  0  0  0  0
   -0.2565    4.1183    1.4613 C   0  0  0  0  0  0  0  0  0  0  0  0
    2.2580    1.7410   -1.0983 C   0  0  0  0  0  0  0  0  0  0  0  0
   -2.0240    2.0872   -1.1924 C   0  0  0  0  0  0  0  0  0  0  0  0
    4.4984    1.4939   -0.2500 C   0  0  0  0  0  0  0  0  0  0  0  0
    3.3901   -0.3776   -1.2727 C   0  0  0  0  0  0  0  0  0  0  0  0
    5.4827    0.5691    0.4706 C   0  0  0  0  0  0  0  0  0  0  0  0
    4.3364   -1.3646   -0.5855 C   0  0  0  0  0  0  0  0  0  0  0  0
   -4.1638    0.9044   -0.6719 C   0  0  0  0  0  0  0  0  0  0  0  0
    6.7267   -1.5151   -0.0299 C   0  0  0  0  0  0  0  0  0  0  0  0
    7.3821   -1.4924    1.2013 C   0  0  0  0  0  0  0  0  0  0  0  0
    7.1893   -2.3454   -1.0508 C   0  0  0  0  0  0  0  0  0  0  0  0
   -5.9793   -0.8084   -0.2834 C   0  0  0  0  0  0  0  0  0  0  0  0
    8.4999   -2.2999    1.4115 C   0  0  0  0  0  0  0  0  0  0  0  0
    8.3069   -3.1530   -0.8407 C   0  0  0  0  0  0  0  0  0  0  0  0
    8.9623   -3.1302    0.3905 C   0  0  0  0  0  0  0  0  0  0  0  0
   -6.3102   -2.1634   -0.2896 C   0  0  0  0  0  0  0  0  0  0  0  0
   -6.9399    0.1429    0.0602 C   0  0  0  0  0  0  0  0  0  0  0  0
   -7.6020   -2.5672    0.0479 C   0  0  0  0  0  0  0  0  0  0  0  0
   -8.2316   -0.2611    0.3977 C   0  0  0  0  0  0  0  0  0  0  0  0
   -8.5628   -1.6161    0.3914 C   0  0  0  0  0  0  0  0  0  0  0  0
   -6.8634   -4.9665    1.2654 C   0  0  0  0  0  0  0  0  0  0  0  0
    1.5785    1.1820    1.5515 H   0  0  0  0  0  0  0  0  0  0  0  0
    2.4221    3.3113    0.3548 H   0  0  0  0  0  0  0  0  0  0  0  0
   -2.1341    2.5197    0.8795 H   0  0  0  0  0  0  0  0  0  0  0  0
   -0.1685    0.5927   -0.2099 H   0  0  0  0  0  0  0  0  0  0  0  0
   -0.8462    0.7482    1.4033 H   0  0  0  0  0  0  0  0  0  0  0  0
    1.0549    4.6336   -0.8285 H   0  0  0  0  0  0  0  0  0  0  0  0
    0.3672    3.3364   -1.7545 H   0  0  0  0  0  0  0  0  0  0  0  0
    1.4641    3.4298    2.5940 H   0  0  0  0  0  0  0  0  0  0  0  0
   -0.0236    2.5467    2.9470 H   0  0  0  0  0  0  0  0  0  0  0  0
   -1.1569    4.3321    2.0505 H   0  0  0  0  0  0  0  0  0  0  0  0
    0.3154    5.0549    1.4510 H   0  0  0  0  0  0  0  0  0  0  0  0
    2.7364    2.3150   -1.9034 H   0  0  0  0  0  0  0  0  0  0  0  0
    1.4562    1.1709   -1.5840 H   0  0  0  0  0  0  0  0  0  0  0  0
   -1.3046    1.8920   -1.9939 H   0  0  0  0  0  0  0  0  0  0  0  0
   -2.6756    2.9079   -1.5131 H   0  0  0  0  0  0  0  0  0  0  0  0
    4.3862    2.3939    0.3637 H   0  0  0  0  0  0  0  0  0  0  0  0
    4.9324    1.8072   -1.2094 H   0  0  0  0  0  0  0  0  0  0  0  0
    3.7830   -0.1189   -2.2652 H   0  0  0  0  0  0  0  0  0  0  0  0
    2.4278   -0.8825   -1.4221 H   0  0  0  0  0  0  0  0  0  0  0  0
   -2.3815   -0.0127   -1.2431 H   0  0  0  0  0  0  0  0  0  0  0  0
    6.4530    1.0788    0.5201 H   0  0  0  0  0  0  0  0  0  0  0  0
    5.1369    0.3945    1.4977 H   0  0  0  0  0  0  0  0  0  0  0  0
    3.8731   -1.7568    0.3292 H   0  0  0  0  0  0  0  0  0  0  0  0
    4.4890   -2.2152   -1.2596 H   0  0  0  0  0  0  0  0  0  0  0  0
   -4.0250   -1.1467   -0.8645 H   0  0  0  0  0  0  0  0  0  0  0  0
    7.0414   -0.8697    2.0235 H   0  0  0  0  0  0  0  0  0  0  0  0
    6.7013   -2.3673   -2.0218 H   0  0  0  0  0  0  0  0  0  0  0  0
    9.0086   -2.2850    2.3710 H   0  0  0  0  0  0  0  0  0  0  0  0
    8.6690   -3.7973   -1.6365 H   0  0  0  0  0  0  0  0  0  0  0  0
    9.8325   -3.7590    0.5541 H   0  0  0  0  0  0  0  0  0  0  0  0
   -5.5560   -2.8971   -0.5661 H   0  0  0  0  0  0  0  0  0  0  0  0
   -6.7608    1.2082    0.0882 H   0  0  0  0  0  0  0  0  0  0  0  0
   -8.9806    0.4786    0.6655 H   0  0  0  0  0  0  0  0  0  0  0  0
   -9.5747   -1.9117    0.6575 H   0  0  0  0  0  0  0  0  0  0  0  0
   -7.0843   -6.0248    1.4278 H   0  0  0  0  0  0  0  0  0  0  0  0
   -6.9678   -4.4377    2.2167 H   0  0  0  0  0  0  0  0  0  0  0  0
   -5.8332   -4.8785    0.9112 H   0  0  0  0  0  0  0  0  0  0  0  0
  1 31  1  0  0  0  0
  1 34  1  0  0  0  0
  2 21  2  0  0  0  0
  3 10  1  0  0  0  0
  3 12  1  0  0  0  0
  3 14  1  0  0  0  0
  4 15  1  0  0  0  0
  4 17  1  0  0  0  0
  4 18  1  0  0  0  0
  5 16  1  0  0  0  0
  5 21  1  0  0  0  0
  5 54  1  0  0  0  0
  6 19  1  0  0  0  0
  6 20  1  0  0  0  0
  6 22  1  0  0  0  0
  7 21  1  0  0  0  0
  7 25  1  0  0  0  0
  7 59  1  0  0  0  0
  8  9  1  0  0  0  0
  8 11  1  0  0  0  0
  8 13  1  0  0  0  0
  8 35  1  0  0  0  0
  9 12  1  0  0  0  0
  9 15  1  0  0  0  0
  9 36  1  0  0  0  0
 10 11  1  0  0  0  0
 10 16  1  0  0  0  0
 10 37  1  0  0  0  0
 11 38  1  0  0  0  0
 11 39  1  0  0  0  0
 12 40  1  0  0  0  0
 12 41  1  0  0  0  0
 13 14  1  0  0  0  0
 13 42  1  0  0  0  0
 13 43  1  0  0  0  0
 14 44  1  0  0  0  0
 14 45  1  0  0  0  0
 15 46  1  0  0  0  0
 15 47  1  0  0  0  0
 16 48  1  0  0  0  0
 16 49  1  0  0  0  0
 17 19  1  0  0  0  0
 17 50  1  0  0  0  0
 17 51  1  0  0  0  0
 18 20  1  0  0  0  0
 18 52  1  0  0  0  0
 18 53  1  0  0  0  0
 19 55  1  0  0  0  0
 19 56  1  0  0  0  0
 20 57  1  0  0  0  0
 20 58  1  0  0  0  0
 22 23  2  0  0  0  0
 22 24  1  0  0  0  0
 23 26  1  0  0  0  0
 23 60  1  0  0  0  0
 24 27  2  0  0  0  0
 24 61  1  0  0  0  0
 25 29  2  0  0  0  0
 25 30  1  0  0  0  0
 26 28  2  0  0  0  0
 26 62  1  0  0  0  0
 27 28  1  0  0  0  0
 27 63  1  0  0  0  0
 28 64  1  0  0  0  0
 29 31  1  0  0  0  0
 29 65  1  0  0  0  0
 30 32  2  0  0  0  0
 30 66  1  0  0  0  0
 31 33  2  0  0  0  0
 32 33  1  0  0  0  0
 32 67  1  0  0  0  0
 33 68  1  0  0  0  0
 34 69  1  0  0  0  0
 34 70  1  0  0  0  0
 34 71  1  0  0  0  0
M  END
> <PUBCHEM_COMPOUND_CID>
40777193

> <PUBCHEM_CONFORMER_RMSD>
1.2

> <PUBCHEM_CONFORMER_DIVERSEORDER>
1
27
29
42
51
47
15
54
17
57
44
20
52
18
32
60
25
30
13
23
55
59
31
49
56
35
40
7
10
5
38
58
48
34
14
46
50
22
24
9
33
45
36
41
2
26
53
19
43
11
39
3
16
37
28
21
12
6
8
4

> <PUBCHEM_MMFF94_PARTIAL_CHARGES>
41
1 -0.33
10 0.27
12 0.27
14 0.27
15 0.27
16 0.3
17 0.27
18 0.27
19 0.37
2 -0.57
20 0.37
21 0.69
22 0.1
23 -0.15
24 -0.15
25 0.12
26 -0.15
27 -0.15
28 -0.15
29 -0.15
3 -0.81
30 -0.15
31 0.1
32 -0.15
33 -0.15
34 0.23
4 -0.81
5 -0.73
54 0.37
59 0.37
6 -0.84
60 0.15
61 0.15
62 0.15
63 0.15
64 0.15
65 0.15
66 0.15
67 0.15
68 0.15
7 -0.55

> <PUBCHEM_EFFECTIVE_ROTOR_COUNT>
11.4

> <PUBCHEM_PHARMACOPHORE_FEATURES>
11
1 2 acceptor
1 3 cation
1 34 hydrophobe
1 4 cation
1 5 donor
1 6 cation
1 7 donor
6 22 23 24 26 27 28 rings
6 25 29 30 31 32 33 rings
6 4 6 17 18 19 20 rings
8 3 8 9 10 11 12 13 14 rings

> <PUBCHEM_HEAVY_ATOM_COUNT>
34

> <PUBCHEM_ATOM_DEF_STEREO_COUNT>
3

> <PUBCHEM_ATOM_UDEF_STEREO_COUNT>
0

> <PUBCHEM_BOND_DEF_STEREO_COUNT>
0

> <PUBCHEM_BOND_UDEF_STEREO_COUNT>
0

> <PUBCHEM_ISOTOPIC_ATOM_COUNT>
0

> <PUBCHEM_COMPONENT_COUNT>
1

> <PUBCHEM_CACTVS_TAUTO_COUNT>
3

> <PUBCHEM_CONFORMER_ID>
026E35E900000001

> <PUBCHEM_MMFF94_ENERGY>
104.8766

> <PUBCHEM_FEATURE_SELFOVERLAP>
55.878

> <PUBCHEM_SHAPE_FINGERPRINT>
10100884 174 18335983091403695922
10190206 1 12540691492597510463
10280341 67 7925618970204584934
10533779 1 9511461091450988302
11409948 8 18272075103994971586
11672396 167 18341607175347885783
117089 54 18410578400731922039
12013929 27 18186802461420446590
12013929 94 18341894032219116398
12522641 68 10953749897503414368
13248334 5 18121781904588308748
13782708 43 18334856173536063797
13974486 7 18335973238253009034
14068700 675 18336267851787287948
14359421 15 17967246473370126491
15152005 304 18339374018832392919
15152005 77 18201996617000527167
15347591 1 18410573994032868029
15510800 12 18343023255259203462
15773216 30 18191592058947843948
15803439 3 14490195998758033680
16067689 68 18059305257821880843
16990366 60 18411980294893716779
19246450 95 17418098664322502733
19303781 99 18338785771747289310
19841028 212 18408604773180602368
2026 5 18261108539251942843
20721686 146 9871751299317901203
21033648 29 12535629392281401508
21130935 74 18196936780896190601
212700 22 18339916027015454086
21792965 78 17677053417554913890
21987483 16 18334568037571246026
22899556 10 17189242229208676472
23523787 8 15068622703489803616
23569943 247 18409451414878771091
25025965 108 17986946544377137967
25242607 90 18341606027456915722
2747138 104 18059853910198334316
3383291 50 18411415077752198042
3918712 181 8718836383175548806
393628 194 10303808787795348571
406291 66 18335419045884706966
4169191 19 9006789683367491839
439807 62 18407479968553827717
44426701 291 18261407688430125019
4461854 278 17561358470796055446
54039377 194 18409731742397236270
5718773 13 18410009914723379060
57303763 176 18271522002639508189
57527295 17 16734383799366642588
6327066 14 8286193955330029176
636775 8 18340774733159699390

> <PUBCHEM_SHAPE_MULTIPOLES>
672.78
31.3
6.16
1.31
3.53
1.52
0.35
52.09
3.12
3.32
1.68
-1.05
-0.39
1.38

> <PUBCHEM_SHAPE_SELFOVERLAP>
1413.349

> <PUBCHEM_SHAPE_VOLUME>
381.8

> <PUBCHEM_COORDINATE_TYPE>
2
5
10

$$$$
