26743438
  -OEChem-12032416293D

 49 52  0     1  0  0  0  0  0999 V2000
    2.4066    0.1073   -0.5889 S   0  0  0  0  0  0  0  0  0  0  0  0
    7.9600   -0.8381    1.1512 F   0  0  0  0  0  0  0  0  0  0  0  0
   -5.5678    2.4188    2.0397 O   0  0  0  0  0  0  0  0  0  0  0  0
   -0.9746    3.0187   -1.2833 O   0  0  0  0  0  0  0  0  0  0  0  0
    2.4103    0.2875   -2.0285 O   0  0  0  0  0  0  0  0  0  0  0  0
    1.5863   -0.9212    0.0225 O   0  0  0  0  0  0  0  0  0  0  0  0
   -3.3078    0.5054    0.0390 N   0  0  1  0  0  0  0  0  0  0  0  0
   -0.4746    1.4303    0.2146 N   0  0  0  0  0  0  0  0  0  0  0  0
    0.4224    3.0028   -1.1842 N   0  0  0  0  0  0  0  0  0  0  0  0
   -2.9242    1.8779   -0.3492 C   0  0  1  0  0  0  0  0  0  0  0  0
   -3.5823    2.7845    0.7075 C   0  0  0  0  0  0  0  0  0  0  0  0
   -4.3503    1.8351    1.6187 C   0  0  2  0  0  0  0  0  0  0  0  0
   -4.5823    0.6162    0.7462 C   0  0  0  0  0  0  0  0  0  0  0  0
   -3.3857   -0.4107   -1.0913 C   0  0  0  0  0  0  0  0  0  0  0  0
   -1.4235    2.0636   -0.4274 C   0  0  0  0  0  0  0  0  0  0  0  0
   -3.2848   -1.8484   -0.6558 C   0  0  0  0  0  0  0  0  0  0  0  0
    0.6400    2.0409   -0.2825 C   0  0  0  0  0  0  0  0  0  0  0  0
   -2.0373   -2.4674   -0.5752 C   0  0  0  0  0  0  0  0  0  0  0  0
   -4.4391   -2.5616   -0.3328 C   0  0  0  0  0  0  0  0  0  0  0  0
    1.9929    1.6662    0.1434 C   0  0  0  0  0  0  0  0  0  0  0  0
   -1.9442   -3.7994   -0.1718 C   0  0  0  0  0  0  0  0  0  0  0  0
   -4.3462   -3.8936    0.0709 C   0  0  0  0  0  0  0  0  0  0  0  0
    4.0704   -0.1767   -0.0672 C   0  0  0  0  0  0  0  0  0  0  0  0
   -3.0986   -4.5124    0.1512 C   0  0  0  0  0  0  0  0  0  0  0  0
    4.3216   -0.8591    1.1232 C   0  0  0  0  0  0  0  0  0  0  0  0
    5.1329    0.2819   -0.8461 C   0  0  0  0  0  0  0  0  0  0  0  0
    5.6353   -1.0828    1.5347 C   0  0  0  0  0  0  0  0  0  0  0  0
    6.4466    0.0582   -0.4344 C   0  0  0  0  0  0  0  0  0  0  0  0
    6.6979   -0.6243    0.7559 C   0  0  0  0  0  0  0  0  0  0  0  0
   -3.3593    2.1318   -1.3262 H   0  0  0  0  0  0  0  0  0  0  0  0
   -2.8597    3.3679    1.2898 H   0  0  0  0  0  0  0  0  0  0  0  0
   -4.2614    3.4984    0.2248 H   0  0  0  0  0  0  0  0  0  0  0  0
   -3.7520    1.5749    2.5005 H   0  0  0  0  0  0  0  0  0  0  0  0
   -4.8033   -0.2580    1.3666 H   0  0  0  0  0  0  0  0  0  0  0  0
   -5.4332    0.7798    0.0717 H   0  0  0  0  0  0  0  0  0  0  0  0
   -2.5549   -0.2248   -1.7864 H   0  0  0  0  0  0  0  0  0  0  0  0
   -4.2931   -0.2531   -1.6903 H   0  0  0  0  0  0  0  0  0  0  0  0
   -5.3489    3.2320    2.5261 H   0  0  0  0  0  0  0  0  0  0  0  0
    2.0451    1.5570    1.2305 H   0  0  0  0  0  0  0  0  0  0  0  0
    2.7372    2.4006   -0.1793 H   0  0  0  0  0  0  0  0  0  0  0  0
   -1.1303   -1.9224   -0.8227 H   0  0  0  0  0  0  0  0  0  0  0  0
   -5.4182   -2.0943   -0.3966 H   0  0  0  0  0  0  0  0  0  0  0  0
   -0.9728   -4.2810   -0.1087 H   0  0  0  0  0  0  0  0  0  0  0  0
   -5.2451   -4.4493    0.3212 H   0  0  0  0  0  0  0  0  0  0  0  0
   -3.0262   -5.5495    0.4652 H   0  0  0  0  0  0  0  0  0  0  0  0
    3.5094   -1.2183    1.7486 H   0  0  0  0  0  0  0  0  0  0  0  0
    4.9593    0.8211   -1.7729 H   0  0  0  0  0  0  0  0  0  0  0  0
    5.8316   -1.6123    2.4623 H   0  0  0  0  0  0  0  0  0  0  0  0
    7.2742    0.4164   -1.0393 H   0  0  0  0  0  0  0  0  0  0  0  0
  1  5  2  0  0  0  0
  1  6  2  0  0  0  0
  1 20  1  0  0  0  0
  1 23  1  0  0  0  0
  2 29  1  0  0  0  0
  3 12  1  0  0  0  0
  3 38  1  0  0  0  0
  4  9  1  0  0  0  0
  4 15  1  0  0  0  0
  7 10  1  0  0  0  0
  7 13  1  0  0  0  0
  7 14  1  0  0  0  0
  8 15  2  0  0  0  0
  8 17  1  0  0  0  0
  9 17  2  0  0  0  0
 10 11  1  0  0  0  0
 10 15  1  0  0  0  0
 10 30  1  0  0  0  0
 11 12  1  0  0  0  0
 11 31  1  0  0  0  0
 11 32  1  0  0  0  0
 12 13  1  0  0  0  0
 12 33  1  0  0  0  0
 13 34  1  0  0  0  0
 13 35  1  0  0  0  0
 14 16  1  0  0  0  0
 14 36  1  0  0  0  0
 14 37  1  0  0  0  0
 16 18  2  0  0  0  0
 16 19  1  0  0  0  0
 17 20  1  0  0  0  0
 18 21  1  0  0  0  0
 18 41  1  0  0  0  0
 19 22  2  0  0  0  0
 19 42  1  0  0  0  0
 20 39  1  0  0  0  0
 20 40  1  0  0  0  0
 21 24  2  0  0  0  0
 21 43  1  0  0  0  0
 22 24  1  0  0  0  0
 22 44  1  0  0  0  0
 23 25  2  0  0  0  0
 23 26  1  0  0  0  0
 24 45  1  0  0  0  0
 25 27  1  0  0  0  0
 25 46  1  0  0  0  0
 26 28  2  0  0  0  0
 26 47  1  0  0  0  0
 27 29  2  0  0  0  0
 27 48  1  0  0  0  0
 28 29  1  0  0  0  0
 28 49  1  0  0  0  0
M  END
> <PUBCHEM_COMPOUND_CID>
26743438

> <PUBCHEM_CONFORMER_RMSD>
1

> <PUBCHEM_CONFORMER_DIVERSEORDER>
1
71
104
254
63
262
73
109
284
42
236
269
244
253
30
135
163
147
160
176
103
194
200
3
270
214
259
164
99
32
255
113
97
87
234
143
206
75
258
114
238
100
221
117
215
21
40
10
66
177
175
283
202
204
92
225
170
131
158
180
111
45
279
94
273
257
249
107
12
173
120
190
211
41
247
165
5
205
260
57
4
229
275
220
39
185
83
208
155
47
196
137
119
125
112
48
237
69
278
154
212
116
149
162
7
91
256
8
23
146
187
230
37
133
96
263
223
28
16
72
126
43
218
181
93
201
191
168
82
124
251
184
266
276
144
34
224
178
106
265
15
217
49
56
166
98
81
213
240
280
60
169
88
127
38
245
132
203
24
121
122
65
145
52
141
282
148
13
128
243
198
55
89
68
50
231
27
123
261
157
161
179
14
11
285
150
232
216
25
53
219
129
264
233
17
156
152
193
248
84
188
35
90
242
209
29
85
74
199
18
20
167
108
2
86
136
235
9
118
210
241
130
153
134
174
62
140
77
277
151
172
26
222
79
80
197
192
159
95
183
33
272
182
6
54
142
228
115
67
250
70
31
267
268
78
61
36
105
51
19
271
138
239
110
59
281
246
64
227
226
58
101
189
186
139
102
171
44
195
22
207
252
76
46
274

> <PUBCHEM_MMFF94_PARTIAL_CHARGES>
38
1 1.2
10 0.45
12 0.28
13 0.27
14 0.41
15 0.3
16 -0.14
17 0.34
18 -0.15
19 -0.15
2 -0.19
20 0.29
21 -0.15
22 -0.15
23 -0.01
24 -0.15
25 -0.15
26 -0.15
27 -0.15
28 -0.15
29 0.19
3 -0.68
38 0.4
4 -0.02
41 0.15
42 0.15
43 0.15
44 0.15
45 0.15
46 0.15
47 0.15
48 0.15
49 0.15
5 -0.65
6 -0.65
7 -0.81
8 -0.57
9 -0.41

> <PUBCHEM_EFFECTIVE_ROTOR_COUNT>
7

> <PUBCHEM_PHARMACOPHORE_FEATURES>
10
1 3 acceptor
1 3 donor
1 5 acceptor
1 6 acceptor
1 7 cation
3 8 9 17 cation
5 4 8 9 15 17 rings
5 7 10 11 12 13 rings
6 16 18 19 21 22 24 rings
6 23 25 26 27 28 29 rings

> <PUBCHEM_HEAVY_ATOM_COUNT>
29

> <PUBCHEM_ATOM_DEF_STEREO_COUNT>
2

> <PUBCHEM_ATOM_UDEF_STEREO_COUNT>
0

> <PUBCHEM_BOND_DEF_STEREO_COUNT>
0

> <PUBCHEM_BOND_UDEF_STEREO_COUNT>
0

> <PUBCHEM_ISOTOPIC_ATOM_COUNT>
0

> <PUBCHEM_COMPONENT_COUNT>
1

> <PUBCHEM_CACTVS_TAUTO_COUNT>
1

> <PUBCHEM_CONFORMER_ID>
0198128E00000001

> <PUBCHEM_MMFF94_ENERGY>
49.8766

> <PUBCHEM_FEATURE_SELFOVERLAP>
50.764

> <PUBCHEM_SHAPE_FINGERPRINT>
10290309 65 18049443638752217934
10319688 45 18408035204387828356
10483366 6 18189873402477568205
10939801 23 18196089078926753444
11315621 246 18335707118252756662
12166972 35 17604706819109079822
12616971 3 17967821535399827564
12633257 1 18413394219766361941
12990986 174 18337388343886913918
13540713 5 18192164886935207541
13726171 33 17982765087900975900
14068700 675 18128242579789702199
14395042 24 18339371846854742971
14725015 67 18269269235471704791
14844126 61 18412261770403697131
14856354 85 18273216378777366748
14866123 147 18412549842851003531
15250474 111 18334853935641850582
15320294 125 18187083914590212263
15348495 7 18059850671608858008
15537594 2 18113618954427094040
16110190 28 18410016520003304576
17492 89 18048313646179723207
17780758 139 18272368659464796545
20775530 9 18121493815751235167
229767 44 18411140208239633059
23559900 14 18048022262776803399
3383291 50 18343025506423816587
4073 2 18202567263814299434
4435113 14 17988377970544266374
4616759 239 17917138417393588970
484985 159 18408881871923566775
5104073 3 18272366516571554144
5364581 5 17916289701707407576
5486654 36 18337114565792057169
563151 74 16056613018802304007
6371380 46 18272080557749531425
9953998 17 18271236150130578848
9961470 85 18124878954271041839

> <PUBCHEM_SHAPE_MULTIPOLES>
554.96
15.84
4.85
1.36
27.06
3.38
-0.2
5.47
-6.01
-9.86
-0.08
0.14
-0.61
-2.68

> <PUBCHEM_SHAPE_SELFOVERLAP>
1186.053

> <PUBCHEM_SHAPE_VOLUME>
310.4

> <PUBCHEM_COORDINATE_TYPE>
2
5
10

$$$$
