40777669
  -OEChem-12032416183D

 54 56  0     1  0  0  0  0  0999 V2000
    8.1564    0.1765   -0.1299 F   0  0  0  0  0  0  0  0  0  0  0  0
    7.5185    1.9272    0.9908 F   0  0  0  0  0  0  0  0  0  0  0  0
    7.5071    1.9575   -1.1833 F   0  0  0  0  0  0  0  0  0  0  0  0
   -6.1152   -0.1205   -1.5693 O   0  0  0  0  0  0  0  0  0  0  0  0
   -4.9672   -0.3023    0.4419 N   0  0  0  0  0  0  0  0  0  0  0  0
    1.8755   -0.7421   -0.0466 N   0  0  0  0  0  0  0  0  0  0  0  0
    1.5785   -1.9116   -0.6387 N   0  0  0  0  0  0  0  0  0  0  0  0
   -6.7417    1.1608    0.2609 N   0  0  0  0  0  0  0  0  0  0  0  0
   -1.7089   -0.7338    0.7090 C   0  0  2  0  0  0  0  0  0  0  0  0
   -2.6895   -0.6780   -0.4781 C   0  0  0  0  0  0  0  0  0  0  0  0
   -4.0010   -1.3093    0.0191 C   0  0  1  0  0  0  0  0  0  0  0  0
   -0.2733   -0.9471    0.2881 C   0  0  0  0  0  0  0  0  0  0  0  0
   -2.2874   -1.8362    1.5470 C   0  0  0  0  0  0  0  0  0  0  0  0
   -3.5352   -2.1399    1.1738 C   0  0  0  0  0  0  0  0  0  0  0  0
    0.8013   -0.1246    0.5237 C   0  0  0  0  0  0  0  0  0  0  0  0
    0.2645   -2.0315   -0.4308 C   0  0  0  0  0  0  0  0  0  0  0  0
    0.8909    1.1693    1.2305 C   0  0  0  0  0  0  0  0  0  0  0  0
   -0.4450   -3.2167   -0.9440 C   0  0  0  0  0  0  0  0  0  0  0  0
   -5.9572    0.2165   -0.3967 C   0  0  0  0  0  0  0  0  0  0  0  0
    3.1898   -0.2739   -0.0601 C   0  0  0  0  0  0  0  0  0  0  0  0
   -7.8368    1.8507   -0.3791 C   0  0  0  0  0  0  0  0  0  0  0  0
    3.6584    0.5181    0.9883 C   0  0  0  0  0  0  0  0  0  0  0  0
    4.0340   -0.5949   -1.1230 C   0  0  0  0  0  0  0  0  0  0  0  0
    4.9713    0.9889    0.9736 C   0  0  0  0  0  0  0  0  0  0  0  0
    5.3468   -0.1240   -1.1376 C   0  0  0  0  0  0  0  0  0  0  0  0
    5.8156    0.6678   -0.0893 C   0  0  0  0  0  0  0  0  0  0  0  0
   -7.3370    3.1149   -1.0661 C   0  0  0  0  0  0  0  0  0  0  0  0
   -8.9325    2.1677    0.6310 C   0  0  0  0  0  0  0  0  0  0  0  0
    7.2196    1.1702   -0.1049 C   0  0  0  0  0  0  0  0  0  0  0  0
   -1.7906    0.1936    1.2891 H   0  0  0  0  0  0  0  0  0  0  0  0
   -2.8249    0.3541   -0.8244 H   0  0  0  0  0  0  0  0  0  0  0  0
   -2.3262   -1.2422   -1.3436 H   0  0  0  0  0  0  0  0  0  0  0  0
   -4.4458   -1.9296   -0.7660 H   0  0  0  0  0  0  0  0  0  0  0  0
   -1.7754   -2.3008    2.3780 H   0  0  0  0  0  0  0  0  0  0  0  0
   -4.1464   -2.8875    1.6593 H   0  0  0  0  0  0  0  0  0  0  0  0
   -4.8953    0.0713    1.3838 H   0  0  0  0  0  0  0  0  0  0  0  0
    1.1382    1.0395    2.2881 H   0  0  0  0  0  0  0  0  0  0  0  0
    1.5524    1.8929    0.7463 H   0  0  0  0  0  0  0  0  0  0  0  0
   -0.0902    1.6604    1.2199 H   0  0  0  0  0  0  0  0  0  0  0  0
   -0.9831   -2.9798   -1.8665 H   0  0  0  0  0  0  0  0  0  0  0  0
    0.2575   -4.0249   -1.1782 H   0  0  0  0  0  0  0  0  0  0  0  0
   -1.1541   -3.6193   -0.2172 H   0  0  0  0  0  0  0  0  0  0  0  0
   -6.4862    1.4261    1.2074 H   0  0  0  0  0  0  0  0  0  0  0  0
   -8.2567    1.1875   -1.1451 H   0  0  0  0  0  0  0  0  0  0  0  0
    3.1111    0.7041    1.9015 H   0  0  0  0  0  0  0  0  0  0  0  0
    3.6956   -1.2003   -1.9602 H   0  0  0  0  0  0  0  0  0  0  0  0
    5.3264    1.5817    1.8122 H   0  0  0  0  0  0  0  0  0  0  0  0
    5.9968   -0.3772   -1.9711 H   0  0  0  0  0  0  0  0  0  0  0  0
   -6.8868    3.8067   -0.3453 H   0  0  0  0  0  0  0  0  0  0  0  0
   -6.5736    2.8788   -1.8155 H   0  0  0  0  0  0  0  0  0  0  0  0
   -8.1565    3.6355   -1.5725 H   0  0  0  0  0  0  0  0  0  0  0  0
   -8.5635    2.8260    1.4254 H   0  0  0  0  0  0  0  0  0  0  0  0
   -9.2983    1.2510    1.1065 H   0  0  0  0  0  0  0  0  0  0  0  0
   -9.7817    2.6604    0.1464 H   0  0  0  0  0  0  0  0  0  0  0  0
  1 29  1  0  0  0  0
  2 29  1  0  0  0  0
  3 29  1  0  0  0  0
  4 19  2  0  0  0  0
  5 11  1  0  0  0  0
  5 19  1  0  0  0  0
  5 36  1  0  0  0  0
  6  7  1  0  0  0  0
  6 15  1  0  0  0  0
  6 20  1  0  0  0  0
  7 16  2  0  0  0  0
  8 19  1  0  0  0  0
  8 21  1  0  0  0  0
  8 43  1  0  0  0  0
  9 10  1  0  0  0  0
  9 12  1  0  0  0  0
  9 13  1  0  0  0  0
  9 30  1  0  0  0  0
 10 11  1  0  0  0  0
 10 31  1  0  0  0  0
 10 32  1  0  0  0  0
 11 14  1  0  0  0  0
 11 33  1  0  0  0  0
 12 15  2  0  0  0  0
 12 16  1  0  0  0  0
 13 14  2  0  0  0  0
 13 34  1  0  0  0  0
 14 35  1  0  0  0  0
 15 17  1  0  0  0  0
 16 18  1  0  0  0  0
 17 37  1  0  0  0  0
 17 38  1  0  0  0  0
 17 39  1  0  0  0  0
 18 40  1  0  0  0  0
 18 41  1  0  0  0  0
 18 42  1  0  0  0  0
 20 22  2  0  0  0  0
 20 23  1  0  0  0  0
 21 27  1  0  0  0  0
 21 28  1  0  0  0  0
 21 44  1  0  0  0  0
 22 24  1  0  0  0  0
 22 45  1  0  0  0  0
 23 25  2  0  0  0  0
 23 46  1  0  0  0  0
 24 26  2  0  0  0  0
 24 47  1  0  0  0  0
 25 26  1  0  0  0  0
 25 48  1  0  0  0  0
 26 29  1  0  0  0  0
 27 49  1  0  0  0  0
 27 50  1  0  0  0  0
 27 51  1  0  0  0  0
 28 52  1  0  0  0  0
 28 53  1  0  0  0  0
 28 54  1  0  0  0  0
M  END
> <PUBCHEM_COMPOUND_CID>
40777669

> <PUBCHEM_CONFORMER_RMSD>
1

> <PUBCHEM_CONFORMER_DIVERSEORDER>
3
54
84
35
8
15
82
16
73
31
72
63
48
64
22
14
43
66
75
34
26
74
79
76
56
65
67
69
47
7
32
49
53
13
12
61
70
77
42
18
30
23
29
40
51
45
50
11
33
39
44
55
78
21
19
4
68
9
17
81
52
83
24
58
57
36
5
62
41
2
28
80
71
20
59
27
10
1
46
38
25
6
37
60

> <PUBCHEM_MMFF94_PARTIAL_CHARGES>
34
1 -0.34
11 0.44
12 -0.18
13 -0.29
14 -0.29
15 -0.33
16 0.11
17 0.18
18 0.18
19 0.69
2 -0.34
20 -0.02
21 0.3
22 -0.15
23 -0.15
24 -0.15
25 -0.15
26 -0.14
29 1.16
3 -0.34
34 0.15
35 0.15
36 0.37
4 -0.57
43 0.37
45 0.15
46 0.15
47 0.15
48 0.15
5 -0.73
6 0.59
7 -0.71
8 -0.73
9 0.32

> <PUBCHEM_EFFECTIVE_ROTOR_COUNT>
7.6

> <PUBCHEM_PHARMACOPHORE_FEATURES>
8
1 4 acceptor
1 5 donor
1 7 acceptor
1 8 donor
3 21 27 28 hydrophobe
5 6 7 12 15 16 rings
5 9 10 11 13 14 rings
6 20 22 23 24 25 26 rings

> <PUBCHEM_HEAVY_ATOM_COUNT>
29

> <PUBCHEM_ATOM_DEF_STEREO_COUNT>
2

> <PUBCHEM_ATOM_UDEF_STEREO_COUNT>
0

> <PUBCHEM_BOND_DEF_STEREO_COUNT>
0

> <PUBCHEM_BOND_UDEF_STEREO_COUNT>
0

> <PUBCHEM_ISOTOPIC_ATOM_COUNT>
0

> <PUBCHEM_COMPONENT_COUNT>
1

> <PUBCHEM_CACTVS_TAUTO_COUNT>
3

> <PUBCHEM_CONFORMER_ID>
026E37C500000003

> <PUBCHEM_MMFF94_ENERGY>
60.798

> <PUBCHEM_FEATURE_SELFOVERLAP>
40.645

> <PUBCHEM_SHAPE_FINGERPRINT>
10 15 17822294557704525033
106641 1 11674884402995076350
11135609 187 17989203763394460774
11135609 99 8934702410667666385
11181472 205 18114466678662482724
11297750 10 17245541179867247774
11409948 41 16199880441080352252
11456790 92 14562798985587799108
11607047 141 17314785187867757587
125118 31 18188212108769408540
12838862 33 17417805167879608128
13690498 29 16987418989202661855
13782708 43 10447926170498713239
14556957 393 15913056438874232801
14849402 71 14201696302550517694
14931854 50 17418380181219881187
15183329 4 17418093179411492659
15510800 12 10519695740072914845
15706992 2 17385736798073384572
1577012 14 18335976498570022979
16992779 147 14347230981554588590
1768 4 18411990131651096409
17980427 23 17676491696067679599
18643901 69 11455892460594216715
190975 80 7997966873338703014
19302320 297 17968104126989446749
2026 5 10951785065881949980
21033648 29 18341600564553849536
21150785 3 16630809927929294326
21298829 104 18412827975852547405
21424621 283 18187365373225369035
21756936 100 18187082859135968299
21781055 127 16951139361386985318
21792934 111 18202274781200133882
23389318 12 12463280432351978816
23559900 14 17059493097062502570
23576562 1 18057033825496686973
24771293 8 18260548897472684077
3009799 131 18202566193686746712
3633792 109 18201162062031554974
4073 2 18334860507322154547
4516262 110 18263354791280755749
5104073 3 12469449757804159228
5385378 56 17676483900295790363
563151 97 17631748058238561275
5718773 13 9799684901256431381
5937810 71 17988366958691328233
59682541 35 11314313862506739508
636775 72 18334857225650635701
636775 8 8862670131435844144
6691757 9 16443344312966322395
9896288 288 11098396133058188415

> <PUBCHEM_SHAPE_MULTIPOLES>
549.19
25.14
2.76
1.25
8.81
0.16
0.03
-25.94
-3.51
3.51
-0.33
0.07
0.06
1.47

> <PUBCHEM_SHAPE_SELFOVERLAP>
1171.05

> <PUBCHEM_SHAPE_VOLUME>
309.2

> <PUBCHEM_COORDINATE_TYPE>
2
5
10

$$$$
