7143845
  -OEChem-12032416213D

 62 66  0     1  0  0  0  0  0999 V2000
    1.9948   -1.3806   -1.1557 S   0  0  0  0  0  0  0  0  0  0  0  0
   -9.2811   -1.7249    0.2509 S   0  0  0  0  0  0  0  0  0  0  0  0
    1.8691   -1.5409   -2.5890 O   0  0  0  0  0  0  0  0  0  0  0  0
    1.5736   -2.4281   -0.2494 O   0  0  0  0  0  0  0  0  0  0  0  0
   -3.5442    1.1480   -1.5263 O   0  0  0  0  0  0  0  0  0  0  0  0
    7.9365   -0.8062    2.2695 O   0  0  0  0  0  0  0  0  0  0  0  0
    1.2547    0.0899   -0.6896 N   0  0  2  0  0  0  0  0  0  0  0  0
   -1.5926    1.3945   -0.2734 N   0  0  0  0  0  0  0  0  0  0  0  0
    7.6655   -0.1146    0.0319 N   0  0  0  0  0  0  0  0  0  0  0  0
    0.5464    2.4203   -1.2390 C   0  0  1  0  0  0  0  0  0  0  0  0
    0.5073    1.6532    1.0936 C   0  0  2  0  0  0  0  0  0  0  0  0
    0.8216    2.8473    0.1966 C   0  0  0  0  0  0  0  0  0  0  0  0
    1.4399    1.2317   -1.6302 C   0  0  0  0  0  0  0  0  0  0  0  0
    1.4424    0.4828    0.7391 C   0  0  0  0  0  0  0  0  0  0  0  0
   -0.9470    2.1039   -1.3866 C   0  0  0  0  0  0  0  0  0  0  0  0
   -0.9433    1.2310    0.9524 C   0  0  0  0  0  0  0  0  0  0  0  0
   -1.5942    0.6840    1.9915 C   0  0  0  0  0  0  0  0  0  0  0  0
   -2.9271    0.9883   -0.4716 C   0  0  0  0  0  0  0  0  0  0  0  0
   -3.6187    0.3455    0.7005 C   0  0  0  0  0  0  0  0  0  0  0  0
   -2.9495    0.2305    1.8574 C   0  0  0  0  0  0  0  0  0  0  0  0
    3.6830   -1.0033   -0.8017 C   0  0  0  0  0  0  0  0  0  0  0  0
   -4.9985   -0.1589    0.5902 C   0  0  0  0  0  0  0  0  0  0  0  0
    4.1910   -1.2844    0.4556 C   0  0  0  0  0  0  0  0  0  0  0  0
    4.4705   -0.4328   -1.7879 C   0  0  0  0  0  0  0  0  0  0  0  0
    5.5248   -0.9863    0.7349 C   0  0  0  0  0  0  0  0  0  0  0  0
    5.8043   -0.1350   -1.5087 C   0  0  0  0  0  0  0  0  0  0  0  0
   -6.0739    0.6785    0.8886 C   0  0  0  0  0  0  0  0  0  0  0  0
   -5.2312   -1.4745    0.1876 C   0  0  0  0  0  0  0  0  0  0  0  0
    6.3314   -0.4117   -0.2473 C   0  0  0  0  0  0  0  0  0  0  0  0
   -7.3804    0.2008    0.7847 C   0  0  0  0  0  0  0  0  0  0  0  0
   -6.5377   -1.9520    0.0836 C   0  0  0  0  0  0  0  0  0  0  0  0
   -7.6123   -1.1144    0.3823 C   0  0  0  0  0  0  0  0  0  0  0  0
    8.3655   -0.3191    1.2286 C   0  0  0  0  0  0  0  0  0  0  0  0
    9.7985    0.1390    1.1235 C   0  0  0  0  0  0  0  0  0  0  0  0
   -9.9893   -0.6012   -0.9863 C   0  0  0  0  0  0  0  0  0  0  0  0
    0.7876    3.2483   -1.9175 H   0  0  0  0  0  0  0  0  0  0  0  0
    0.7044    1.9485    2.1326 H   0  0  0  0  0  0  0  0  0  0  0  0
    0.2039    3.7125    0.4682 H   0  0  0  0  0  0  0  0  0  0  0  0
    1.8690    3.1516    0.3129 H   0  0  0  0  0  0  0  0  0  0  0  0
    1.1899    0.9214   -2.6502 H   0  0  0  0  0  0  0  0  0  0  0  0
    2.4852    1.5579   -1.6171 H   0  0  0  0  0  0  0  0  0  0  0  0
    2.4752    0.8025    0.9125 H   0  0  0  0  0  0  0  0  0  0  0  0
    1.2274   -0.3702    1.3924 H   0  0  0  0  0  0  0  0  0  0  0  0
   -1.4960    3.0499   -1.4911 H   0  0  0  0  0  0  0  0  0  0  0  0
   -1.1331    1.5447   -2.3122 H   0  0  0  0  0  0  0  0  0  0  0  0
   -1.1111    0.5391    2.9522 H   0  0  0  0  0  0  0  0  0  0  0  0
   -3.4013   -0.2265    2.7330 H   0  0  0  0  0  0  0  0  0  0  0  0
    3.5792   -1.7300    1.2341 H   0  0  0  0  0  0  0  0  0  0  0  0
    4.0792   -0.2068   -2.7750 H   0  0  0  0  0  0  0  0  0  0  0  0
    5.8607   -1.2284    1.7335 H   0  0  0  0  0  0  0  0  0  0  0  0
    6.4212    0.3135   -2.2834 H   0  0  0  0  0  0  0  0  0  0  0  0
   -5.9092    1.7059    1.2044 H   0  0  0  0  0  0  0  0  0  0  0  0
   -4.4039   -2.1392   -0.0493 H   0  0  0  0  0  0  0  0  0  0  0  0
   -8.2017    0.8695    1.0294 H   0  0  0  0  0  0  0  0  0  0  0  0
   -6.6987   -2.9800   -0.2319 H   0  0  0  0  0  0  0  0  0  0  0  0
    8.1873    0.3028   -0.7361 H   0  0  0  0  0  0  0  0  0  0  0  0
   10.3157   -0.4399    0.3531 H   0  0  0  0  0  0  0  0  0  0  0  0
   10.3062   -0.0090    2.0806 H   0  0  0  0  0  0  0  0  0  0  0  0
    9.8307    1.2014    0.8661 H   0  0  0  0  0  0  0  0  0  0  0  0
  -10.0413    0.4193   -0.5983 H   0  0  0  0  0  0  0  0  0  0  0  0
  -11.0025   -0.9310   -1.2305 H   0  0  0  0  0  0  0  0  0  0  0  0
   -9.3881   -0.6135   -1.8995 H   0  0  0  0  0  0  0  0  0  0  0  0
  1  3  2  0  0  0  0
  1  4  2  0  0  0  0
  1  7  1  0  0  0  0
  1 21  1  0  0  0  0
  2 32  1  0  0  0  0
  2 35  1  0  0  0  0
  5 18  2  0  0  0  0
  6 33  2  0  0  0  0
  7 13  1  0  0  0  0
  7 14  1  0  0  0  0
  8 15  1  0  0  0  0
  8 16  1  0  0  0  0
  8 18  1  0  0  0  0
  9 29  1  0  0  0  0
  9 33  1  0  0  0  0
  9 56  1  0  0  0  0
 10 12  1  0  0  0  0
 10 13  1  0  0  0  0
 10 15  1  0  0  0  0
 10 36  1  0  0  0  0
 11 12  1  0  0  0  0
 11 14  1  0  0  0  0
 11 16  1  0  0  0  0
 11 37  1  0  0  0  0
 12 38  1  0  0  0  0
 12 39  1  0  0  0  0
 13 40  1  0  0  0  0
 13 41  1  0  0  0  0
 14 42  1  0  0  0  0
 14 43  1  0  0  0  0
 15 44  1  0  0  0  0
 15 45  1  0  0  0  0
 16 17  2  0  0  0  0
 17 20  1  0  0  0  0
 17 46  1  0  0  0  0
 18 19  1  0  0  0  0
 19 20  2  0  0  0  0
 19 22  1  0  0  0  0
 20 47  1  0  0  0  0
 21 23  2  0  0  0  0
 21 24  1  0  0  0  0
 22 27  2  0  0  0  0
 22 28  1  0  0  0  0
 23 25  1  0  0  0  0
 23 48  1  0  0  0  0
 24 26  2  0  0  0  0
 24 49  1  0  0  0  0
 25 29  2  0  0  0  0
 25 50  1  0  0  0  0
 26 29  1  0  0  0  0
 26 51  1  0  0  0  0
 27 30  1  0  0  0  0
 27 52  1  0  0  0  0
 28 31  2  0  0  0  0
 28 53  1  0  0  0  0
 30 32  2  0  0  0  0
 30 54  1  0  0  0  0
 31 32  1  0  0  0  0
 31 55  1  0  0  0  0
 33 34  1  0  0  0  0
 34 57  1  0  0  0  0
 34 58  1  0  0  0  0
 34 59  1  0  0  0  0
 35 60  1  0  0  0  0
 35 61  1  0  0  0  0
 35 62  1  0  0  0  0
M  END
> <PUBCHEM_COMPOUND_CID>
7143845

> <PUBCHEM_CONFORMER_RMSD>
1

> <PUBCHEM_CONFORMER_DIVERSEORDER>
1
5
3
4
8
2
7
10
9
6

> <PUBCHEM_MMFF94_PARTIAL_CHARGES>
44
1 1.45
11 0.14
13 0.36
14 0.36
15 0.3
16 -0.03
17 -0.15
18 0.62
19 -0.01
2 -0.33
20 -0.15
21 -0.01
22 0.03
23 -0.15
24 -0.15
25 -0.15
26 -0.15
27 -0.15
28 -0.15
29 0.12
3 -0.65
30 -0.15
31 -0.15
32 0.1
33 0.57
34 0.06
35 0.23
4 -0.65
46 0.15
47 0.15
48 0.15
49 0.15
5 -0.57
50 0.15
51 0.15
52 0.15
53 0.15
54 0.15
55 0.15
56 0.37
6 -0.57
7 -0.85
8 -0.47
9 -0.55

> <PUBCHEM_EFFECTIVE_ROTOR_COUNT>
7

> <PUBCHEM_PHARMACOPHORE_FEATURES>
11
1 3 acceptor
1 35 hydrophobe
1 4 acceptor
1 5 acceptor
1 6 acceptor
1 9 donor
6 21 23 24 25 26 29 rings
6 22 27 28 30 31 32 rings
6 7 10 11 12 13 14 rings
6 8 10 11 12 15 16 rings
6 8 16 17 18 19 20 rings

> <PUBCHEM_HEAVY_ATOM_COUNT>
35

> <PUBCHEM_ATOM_DEF_STEREO_COUNT>
2

> <PUBCHEM_ATOM_UDEF_STEREO_COUNT>
0

> <PUBCHEM_BOND_DEF_STEREO_COUNT>
0

> <PUBCHEM_BOND_UDEF_STEREO_COUNT>
0

> <PUBCHEM_ISOTOPIC_ATOM_COUNT>
0

> <PUBCHEM_COMPONENT_COUNT>
1

> <PUBCHEM_CACTVS_TAUTO_COUNT>
2

> <PUBCHEM_CONFORMER_ID>
006D01A500000001

> <PUBCHEM_MMFF94_ENERGY>
91.8956

> <PUBCHEM_FEATURE_SELFOVERLAP>
57.424

> <PUBCHEM_SHAPE_FINGERPRINT>
10 15 14620798197623366265
10165383 225 11672064142378980785
10190206 1 11963378622898445790
10483366 6 12757144676172662952
106641 1 16415480458702391217
10670039 82 15140673679800207799
10674148 151 17822007606560278097
10930396 42 18115290281702284896
11135609 99 17988083408796487679
11146851 88 17603591833304713394
11297750 10 17821721758479459149
11828532 37 15069491361294805385
12107698 1 17894917334498736725
12133447 93 18058467425677363957
12202916 173 18040156214430732971
12522641 33 18043538428737213732
12741549 16 18407757032299438853
12838862 33 18343293756853078295
13150687 139 13334735739013818305
13627175 23 12679460910794475674
13811026 1 18412544335974611593
13914758 101 15430035418856896820
14068700 675 18411143536923956473
15183329 4 14129058114548217508
15326923 82 18412823611801751829
15350500 16 17603581933272856712
15357212 105 13037748899799051290
15392192 104 13254796845865472853
15706992 2 9727637237383260783
15728490 51 16988839497056650607
15840311 113 14764347158912653216
16992610 120 11600005488170193352
18393751 57 17917983989481012046
18603816 31 18271238431069962655
19302320 297 16558452168620276834
20105231 36 16128665141373436108
21057603 130 18201150044744365479
21057603 307 12613293341293072304
21792961 116 15068345614671499689
22149856 69 18129396920531719458
22224240 67 17917712388080369654
23559900 14 16733841920316631613
23576562 1 15069479318681767607
249057 3 14345799361543218416
2747138 104 17918002667855828544
2838139 119 10665233695893996691
3004659 81 18412549834229011219
3383291 50 17775011211246172727
3633792 109 14851603267900847824
4066623 53 16588029034679220605
4149490 64 18267309923025368587
437795 51 16486970696525362930
439807 62 17822013116686600143
474113 269 16370998578278146978
57303763 176 13552010175838739046
59682541 35 17847058896176597074
6081469 158 14779264203450117330
6126387 218 17917714583446623969
9689198 14 14908181954438391666
9962374 69 18270399520814002223

> <PUBCHEM_SHAPE_MULTIPOLES>
689.56
28
2.18
1.85
6.03
0.62
0.2
-15.28
-7.4
1
0.49
-1.94
0.1
-0.14

> <PUBCHEM_SHAPE_SELFOVERLAP>
1474.351

> <PUBCHEM_SHAPE_VOLUME>
383.4

> <PUBCHEM_COORDINATE_TYPE>
2
5
10

$$$$
