7143813
  -OEChem-12032416373D

 50 54  0     1  0  0  0  0  0999 V2000
   -0.2192    1.7317   -1.9083 O   0  0  0  0  0  0  0  0  0  0  0  0
    1.5969   -2.4917   -1.3478 O   0  0  0  0  0  0  0  0  0  0  0  0
   -2.5993    2.7823   -0.8768 O   0  0  0  0  0  0  0  0  0  0  0  0
    3.1046   -1.3056   -0.0485 N   0  0  0  0  0  0  0  0  0  0  0  0
    1.5853    1.3665   -0.4777 N   0  0  0  0  0  0  0  0  0  0  0  0
    1.0582   -2.0528    0.8602 N   0  0  0  0  0  0  0  0  0  0  0  0
   -3.7262   -2.2663   -2.6054 N   0  0  0  0  0  0  0  0  0  0  0  0
    3.8932    0.6603   -1.3377 C   0  0  1  0  0  0  0  0  0  0  0  0
    3.4933    0.8553    1.0878 C   0  0  2  0  0  0  0  0  0  0  0  0
    4.4137    1.2960   -0.0510 C   0  0  0  0  0  0  0  0  0  0  0  0
    3.8869   -0.8776   -1.2110 C   0  0  0  0  0  0  0  0  0  0  0  0
    2.4961    1.2264   -1.6257 C   0  0  0  0  0  0  0  0  0  0  0  0
    3.5420   -0.6851    1.2157 C   0  0  0  0  0  0  0  0  0  0  0  0
    2.0616    1.2927    0.8349 C   0  0  0  0  0  0  0  0  0  0  0  0
    1.2368    1.5339    1.8661 C   0  0  0  0  0  0  0  0  0  0  0  0
    0.2375    1.6566   -0.7664 C   0  0  0  0  0  0  0  0  0  0  0  0
    1.8909   -1.9990   -0.2551 C   0  0  0  0  0  0  0  0  0  0  0  0
   -0.6727    1.8765    0.4122 C   0  0  0  0  0  0  0  0  0  0  0  0
   -0.1492    1.8331    1.6465 C   0  0  0  0  0  0  0  0  0  0  0  0
   -2.1079    2.1537    0.2300 C   0  0  0  0  0  0  0  0  0  0  0  0
   -0.3550   -2.1406    0.8552 C   0  0  0  0  0  0  0  0  0  0  0  0
   -3.1433    1.8440    1.0916 C   0  0  0  0  0  0  0  0  0  0  0  0
   -4.3301    2.3090    0.4767 C   0  0  0  0  0  0  0  0  0  0  0  0
   -1.0436   -2.1544   -0.3546 C   0  0  0  0  0  0  0  0  0  0  0  0
   -1.0475   -2.2119    2.0607 C   0  0  0  0  0  0  0  0  0  0  0  0
   -3.9460    2.8717   -0.7182 C   0  0  0  0  0  0  0  0  0  0  0  0
   -2.4358   -2.2402   -0.3589 C   0  0  0  0  0  0  0  0  0  0  0  0
   -2.4398   -2.2978    2.0565 C   0  0  0  0  0  0  0  0  0  0  0  0
   -3.1338   -2.3119    0.8467 C   0  0  0  0  0  0  0  0  0  0  0  0
   -3.1474   -2.2547   -1.5979 C   0  0  0  0  0  0  0  0  0  0  0  0
    4.5543    0.9240   -2.1722 H   0  0  0  0  0  0  0  0  0  0  0  0
    3.8636    1.2972    2.0217 H   0  0  0  0  0  0  0  0  0  0  0  0
    4.4286    2.3897   -0.1383 H   0  0  0  0  0  0  0  0  0  0  0  0
    5.4443    0.9751    0.1436 H   0  0  0  0  0  0  0  0  0  0  0  0
    4.9092   -1.2484   -1.0697 H   0  0  0  0  0  0  0  0  0  0  0  0
    3.5013   -1.3275   -2.1314 H   0  0  0  0  0  0  0  0  0  0  0  0
    1.9976    0.6312   -2.4010 H   0  0  0  0  0  0  0  0  0  0  0  0
    2.6026    2.2374   -2.0417 H   0  0  0  0  0  0  0  0  0  0  0  0
    4.5744   -1.0129    1.3913 H   0  0  0  0  0  0  0  0  0  0  0  0
    2.9655   -1.0143    2.0800 H   0  0  0  0  0  0  0  0  0  0  0  0
    1.5758    1.4587    2.8940 H   0  0  0  0  0  0  0  0  0  0  0  0
   -0.7457    1.9999    2.5382 H   0  0  0  0  0  0  0  0  0  0  0  0
    1.4709   -2.0178    1.7844 H   0  0  0  0  0  0  0  0  0  0  0  0
   -3.0665    1.3382    2.0442 H   0  0  0  0  0  0  0  0  0  0  0  0
   -5.3395    2.2402    0.8556 H   0  0  0  0  0  0  0  0  0  0  0  0
   -0.5552   -2.0625   -1.3166 H   0  0  0  0  0  0  0  0  0  0  0  0
   -0.5183   -2.2001    3.0098 H   0  0  0  0  0  0  0  0  0  0  0  0
   -4.4806    3.3510   -1.5251 H   0  0  0  0  0  0  0  0  0  0  0  0
   -2.9833   -2.3521    2.9951 H   0  0  0  0  0  0  0  0  0  0  0  0
   -4.2191   -2.3779    0.8598 H   0  0  0  0  0  0  0  0  0  0  0  0
  1 16  2  0  0  0  0
  2 17  2  0  0  0  0
  3 20  1  0  0  0  0
  3 26  1  0  0  0  0
  4 11  1  0  0  0  0
  4 13  1  0  0  0  0
  4 17  1  0  0  0  0
  5 12  1  0  0  0  0
  5 14  1  0  0  0  0
  5 16  1  0  0  0  0
  6 17  1  0  0  0  0
  6 21  1  0  0  0  0
  6 43  1  0  0  0  0
  7 30  3  0  0  0  0
  8 10  1  0  0  0  0
  8 11  1  0  0  0  0
  8 12  1  0  0  0  0
  8 31  1  0  0  0  0
  9 10  1  0  0  0  0
  9 13  1  0  0  0  0
  9 14  1  0  0  0  0
  9 32  1  0  0  0  0
 10 33  1  0  0  0  0
 10 34  1  0  0  0  0
 11 35  1  0  0  0  0
 11 36  1  0  0  0  0
 12 37  1  0  0  0  0
 12 38  1  0  0  0  0
 13 39  1  0  0  0  0
 13 40  1  0  0  0  0
 14 15  2  0  0  0  0
 15 19  1  0  0  0  0
 15 41  1  0  0  0  0
 16 18  1  0  0  0  0
 18 19  2  0  0  0  0
 18 20  1  0  0  0  0
 19 42  1  0  0  0  0
 20 22  2  0  0  0  0
 21 24  1  0  0  0  0
 21 25  2  0  0  0  0
 22 23  1  0  0  0  0
 22 44  1  0  0  0  0
 23 26  2  0  0  0  0
 23 45  1  0  0  0  0
 24 27  2  0  0  0  0
 24 46  1  0  0  0  0
 25 28  1  0  0  0  0
 25 47  1  0  0  0  0
 26 48  1  0  0  0  0
 27 29  1  0  0  0  0
 27 30  1  0  0  0  0
 28 29  2  0  0  0  0
 28 49  1  0  0  0  0
 29 50  1  0  0  0  0
M  END
> <PUBCHEM_COMPOUND_CID>
7143813

> <PUBCHEM_CONFORMER_RMSD>
0.8

> <PUBCHEM_CONFORMER_DIVERSEORDER>
1
30
57
48
62
35
38
69
21
24
47
13
68
44
36
29
49
2
70
11
46
16
28
41
61
31
33
20
52
54
66
26
63
67
37
19
7
59
51
27
40
58
60
50
23
65
39
3
42
43
34
56
32
53
64
6
22
25
71
18
10
5
15
12
8
55
14
17
45
4
9

> <PUBCHEM_MMFF94_PARTIAL_CHARGES>
38
1 -0.57
11 0.3
12 0.3
13 0.3
14 -0.03
15 -0.15
16 0.62
17 0.69
18 0.06
19 -0.15
2 -0.57
20 0.09
21 0.12
22 -0.15
23 -0.15
24 -0.15
25 -0.15
26 -0.01
27 0.07
28 -0.15
29 -0.15
3 -0.28
30 0.48
4 -0.66
41 0.15
42 0.15
43 0.37
44 0.15
45 0.15
46 0.15
47 0.15
48 0.15
49 0.15
5 -0.47
50 0.15
6 -0.55
7 -0.56
9 0.14

> <PUBCHEM_EFFECTIVE_ROTOR_COUNT>
5

> <PUBCHEM_PHARMACOPHORE_FEATURES>
10
1 1 acceptor
1 2 acceptor
1 3 acceptor
1 6 donor
1 7 acceptor
5 3 20 22 23 26 rings
6 21 24 25 27 28 29 rings
6 4 8 9 10 11 13 rings
6 5 14 15 16 18 19 rings
6 5 8 9 10 12 14 rings

> <PUBCHEM_HEAVY_ATOM_COUNT>
30

> <PUBCHEM_ATOM_DEF_STEREO_COUNT>
2

> <PUBCHEM_ATOM_UDEF_STEREO_COUNT>
0

> <PUBCHEM_BOND_DEF_STEREO_COUNT>
0

> <PUBCHEM_BOND_UDEF_STEREO_COUNT>
0

> <PUBCHEM_ISOTOPIC_ATOM_COUNT>
0

> <PUBCHEM_COMPONENT_COUNT>
1

> <PUBCHEM_CACTVS_TAUTO_COUNT>
2

> <PUBCHEM_CONFORMER_ID>
006D018500000001

> <PUBCHEM_MMFF94_ENERGY>
74.5686

> <PUBCHEM_FEATURE_SELFOVERLAP>
52.38

> <PUBCHEM_SHAPE_FINGERPRINT>
104564 63 18337399351930025218
1100329 8 18120089477177523114
11370993 70 18190745236765921241
11513181 2 18343590641998790118
11578080 2 17346020255912956851
12156800 1 16237515580846837602
12422481 6 18261665975068054602
12553582 1 18050294961431508147
12788726 201 18190753130878751553
13140716 1 18335420123942493698
13583140 156 13757815735702001010
13636023 20 17052697075678596607
15968369 153 18343016744631828665
16752209 62 18338520854038282914
17138139 8 18054192584988438357
17357779 13 18267867361849978826
17492 54 17684672942481722775
17909252 39 17986652931204864615
20600515 1 17031303890299542665
20691752 17 17822284639527760046
20905425 154 18340494451223969398
23419403 2 16270498936836300523
23559900 14 18272658905355478056
238 59 17832153722796915432
3027735 51 18412826919253714795
3052486 1 18113626689452210178
3298306 158 18118399536785975353
338550 245 18334016077822261373
35225 105 18341625793139070069
4340502 62 18340206276072124233
469060 322 17022626377662308791
5171179 24 17843959484435729864
57527452 28 15534666946536547663
6438718 38 18342749515571352855

> <PUBCHEM_SHAPE_MULTIPOLES>
579.85
7.71
4.2
2.06
1.16
0.33
0.2
-1.39
1.66
-4.55
0.15
-0.64
0.67
-0.07

> <PUBCHEM_SHAPE_SELFOVERLAP>
1283.77

> <PUBCHEM_SHAPE_VOLUME>
302.4

> <PUBCHEM_COORDINATE_TYPE>
2
5
10

$$$$
