51136987
  -OEChem-12032416253D

 38 41  0     1  0  0  0  0  0999 V2000
   -5.6996   -2.8464    1.0174 Cl  0  0  0  0  0  0  0  0  0  0  0  0
   -2.4632    1.4975   -1.0673 O   0  0  0  0  0  0  0  0  0  0  0  0
    3.1139    0.6954    2.3480 O   0  0  0  0  0  0  0  0  0  0  0  0
    1.7785    1.3310    0.5574 N   0  0  0  0  0  0  0  0  0  0  0  0
   -1.3591   -0.0580    0.1567 N   0  0  0  0  0  0  0  0  0  0  0  0
   -0.0671    1.9121   -0.8281 C   0  0  1  0  0  0  0  0  0  0  0  0
    0.1343    2.9939    0.2445 C   0  0  0  0  0  0  0  0  0  0  0  0
    1.2913    1.1967   -0.8165 C   0  0  0  0  0  0  0  0  0  0  0  0
    0.9967    2.3100    1.2965 C   0  0  0  0  0  0  0  0  0  0  0  0
   -1.2878    1.0560   -0.5382 C   0  0  0  0  0  0  0  0  0  0  0  0
    2.7861    0.5997    1.1670 C   0  0  0  0  0  0  0  0  0  0  0  0
   -2.6906   -0.3895    0.0873 C   0  0  0  0  0  0  0  0  0  0  0  0
   -3.3697    0.5605   -0.6612 C   0  0  0  0  0  0  0  0  0  0  0  0
    3.5109   -0.3784    0.3411 C   0  0  0  0  0  0  0  0  0  0  0  0
   -3.4074   -1.4686    0.6239 C   0  0  0  0  0  0  0  0  0  0  0  0
   -4.7326    0.5308   -0.9296 C   0  0  0  0  0  0  0  0  0  0  0  0
    4.2089    0.0443   -0.7901 C   0  0  0  0  0  0  0  0  0  0  0  0
    3.5011   -1.7288    0.6903 C   0  0  0  0  0  0  0  0  0  0  0  0
   -4.7860   -1.5330    0.3743 C   0  0  0  0  0  0  0  0  0  0  0  0
   -5.4330   -0.5521   -0.3871 C   0  0  0  0  0  0  0  0  0  0  0  0
    4.8973   -0.8832   -1.5721 C   0  0  0  0  0  0  0  0  0  0  0  0
    4.1895   -2.6564   -0.0915 C   0  0  0  0  0  0  0  0  0  0  0  0
    4.8876   -2.2336   -1.2228 C   0  0  0  0  0  0  0  0  0  0  0  0
   -0.2274    2.3736   -1.8106 H   0  0  0  0  0  0  0  0  0  0  0  0
    0.6928    3.8328   -0.1901 H   0  0  0  0  0  0  0  0  0  0  0  0
   -0.7958    3.3895    0.6642 H   0  0  0  0  0  0  0  0  0  0  0  0
    1.9970    1.7232   -1.4678 H   0  0  0  0  0  0  0  0  0  0  0  0
    1.2328    0.1460   -1.1152 H   0  0  0  0  0  0  0  0  0  0  0  0
    1.6542    3.0038    1.8290 H   0  0  0  0  0  0  0  0  0  0  0  0
    0.3883    1.7703    2.0307 H   0  0  0  0  0  0  0  0  0  0  0  0
   -2.9024   -2.2273    1.2136 H   0  0  0  0  0  0  0  0  0  0  0  0
   -5.2233    1.2947   -1.5197 H   0  0  0  0  0  0  0  0  0  0  0  0
    4.2473    1.0949   -1.0652 H   0  0  0  0  0  0  0  0  0  0  0  0
    2.9591   -2.0709    1.5682 H   0  0  0  0  0  0  0  0  0  0  0  0
   -6.5038   -0.6198   -0.5698 H   0  0  0  0  0  0  0  0  0  0  0  0
    5.4451   -0.5534   -2.4500 H   0  0  0  0  0  0  0  0  0  0  0  0
    4.1818   -3.7079    0.1802 H   0  0  0  0  0  0  0  0  0  0  0  0
    5.4244   -2.9557   -1.8310 H   0  0  0  0  0  0  0  0  0  0  0  0
  1 19  1  0  0  0  0
  2 10  1  0  0  0  0
  2 13  1  0  0  0  0
  3 11  2  0  0  0  0
  4  8  1  0  0  0  0
  4  9  1  0  0  0  0
  4 11  1  0  0  0  0
  5 10  2  0  0  0  0
  5 12  1  0  0  0  0
  6  7  1  0  0  0  0
  6  8  1  0  0  0  0
  6 10  1  0  0  0  0
  6 24  1  0  0  0  0
  7  9  1  0  0  0  0
  7 25  1  0  0  0  0
  7 26  1  0  0  0  0
  8 27  1  0  0  0  0
  8 28  1  0  0  0  0
  9 29  1  0  0  0  0
  9 30  1  0  0  0  0
 11 14  1  0  0  0  0
 12 13  2  0  0  0  0
 12 15  1  0  0  0  0
 13 16  1  0  0  0  0
 14 17  2  0  0  0  0
 14 18  1  0  0  0  0
 15 19  2  0  0  0  0
 15 31  1  0  0  0  0
 16 20  2  0  0  0  0
 16 32  1  0  0  0  0
 17 21  1  0  0  0  0
 17 33  1  0  0  0  0
 18 22  2  0  0  0  0
 18 34  1  0  0  0  0
 19 20  1  0  0  0  0
 20 35  1  0  0  0  0
 21 23  2  0  0  0  0
 21 36  1  0  0  0  0
 22 23  1  0  0  0  0
 22 37  1  0  0  0  0
 23 38  1  0  0  0  0
M  END
> <PUBCHEM_COMPOUND_CID>
51136987

> <PUBCHEM_CONFORMER_RMSD>
0.6

> <PUBCHEM_CONFORMER_DIVERSEORDER>
1
23
32
52
46
61
59
49
68
73
71
43
66
47
40
67
21
16
45
31
62
70
51
2
26
19
58
69
8
74
24
42
18
44
41
63
39
60
30
54
25
72
28
55
57
65
34
11
14
64
33
50
12
37
53
29
56
36
22
48
20
15
35
5
13
27
38
3
4
17
9
6
10
7

> <PUBCHEM_MMFF94_PARTIAL_CHARGES>
30
1 -0.18
10 0.3
11 0.54
12 0.23
13 0.14
14 0.09
15 -0.15
16 -0.15
17 -0.15
18 -0.15
19 0.18
2 -0.28
20 -0.15
21 -0.15
22 -0.15
23 -0.15
3 -0.57
31 0.15
32 0.15
33 0.15
34 0.15
35 0.15
36 0.15
37 0.15
38 0.15
4 -0.66
5 -0.57
6 0.18
8 0.3
9 0.3

> <PUBCHEM_EFFECTIVE_ROTOR_COUNT>
4

> <PUBCHEM_PHARMACOPHORE_FEATURES>
5
1 3 acceptor
5 2 5 10 12 13 rings
5 4 6 7 8 9 rings
6 12 13 15 16 19 20 rings
6 14 17 18 21 22 23 rings

> <PUBCHEM_HEAVY_ATOM_COUNT>
23

> <PUBCHEM_ATOM_DEF_STEREO_COUNT>
1

> <PUBCHEM_ATOM_UDEF_STEREO_COUNT>
0

> <PUBCHEM_BOND_DEF_STEREO_COUNT>
0

> <PUBCHEM_BOND_UDEF_STEREO_COUNT>
0

> <PUBCHEM_ISOTOPIC_ATOM_COUNT>
0

> <PUBCHEM_COMPONENT_COUNT>
1

> <PUBCHEM_CACTVS_TAUTO_COUNT>
1

> <PUBCHEM_CONFORMER_ID>
030C49DB00000001

> <PUBCHEM_MMFF94_ENERGY>
54.541

> <PUBCHEM_FEATURE_SELFOVERLAP>
25.492

> <PUBCHEM_SHAPE_FINGERPRINT>
10763959 59 9799697021580216354
10928967 22 18272086072023367958
10981352 41 18122350335869111067
11796584 16 18114170930907995629
12422481 6 14261085246277119667
12596602 18 15338821084677284022
12633257 1 16200425871239751366
12760667 363 18199750241460880374
12892183 10 17917986213351321481
13103583 49 17775021050108029083
13383661 66 17986418627796645222
13402501 40 18411703170883128278
13533116 47 18200315567005853275
13544653 18 18343861100120076388
13631057 29 18339368440597419702
13911852 28 18272650104207931175
13911882 115 18412258467604936496
13914758 101 17131549441497139601
13955234 65 18056761150903087120
14251740 57 18267025140533806667
14251764 30 18411990139006731938
14420673 8 18339368453118415407
14790565 3 17398666805887898941
14866123 147 17981326694926679817
14957384 54 9439104430950970574
15342816 4 17603572041705062112
15352361 1 18409448063796412254
15537594 2 17676207944720664035
15664445 248 17821730580811328332
17349148 13 16774077401578436765
17804303 29 18334008419821726037
17909252 39 18268709416491563562
1813 80 17967810552546258292
193927 3 18342741805714536509
20403669 9 18342456989427570574
20567600 254 8935002538338871802
20645477 70 18115868671108060149
21279426 13 18337096866569797965
21682296 61 18272655636748378503
21859007 373 14475028167586372201
2215653 11 18410002222579240695
22950370 63 18410583855060319324
23559900 14 18261390087738463045
239999 70 18261106430960706744
2838139 119 8646477488971231502
3004659 81 17968095279451268246
3089732 80 18408889555230039235
329604 57 18337960000366707278
3421961 26 18342454880661977080
345986 75 17274821303320970770
3737641 26 17416139278371859230
38570 142 14188142666265703210
437795 139 17836107580435200550
44317340 157 11242237538422245721
46194498 28 17750239277604144853
465052 167 18130793351949593526
5309563 4 18342459214189221559
59755656 215 18187915146308777623
6823239 73 18408880750388314274
7064713 232 12175627286835642395
7808743 9 9582359852368420626
7970288 3 18410014295300637166
8217 86 18341343206282833534
8863177 126 18340208595628744551
960060 61 16950279607021987998

> <PUBCHEM_SHAPE_MULTIPOLES>
453.5
13.1
3.07
1.42
6.58
0.31
0.34
11.82
-1.63
-0.27
0.43
-1.2
-0.17
2.31

> <PUBCHEM_SHAPE_SELFOVERLAP>
993.487

> <PUBCHEM_SHAPE_VOLUME>
247.6

> <PUBCHEM_COORDINATE_TYPE>
2
5
10

$$$$
