26742312
  -OEChem-12032416183D

 59 63  0     1  0  0  0  0  0999 V2000
    5.0734    4.2295    0.5734 O   0  0  0  0  0  0  0  0  0  0  0  0
    0.2842   -1.7660    2.0611 O   0  0  0  0  0  0  0  0  0  0  0  0
   -2.3909    0.2200   -1.4325 O   0  0  0  0  0  0  0  0  0  0  0  0
    4.4579    0.1139    0.0169 N   0  0  2  0  0  0  0  0  0  0  0  0
    1.9441   -1.8106    0.4175 N   0  0  0  0  0  0  0  0  0  0  0  0
   -1.7084   -1.2265    0.2464 N   0  0  0  0  0  0  0  0  0  0  0  0
   -3.8748   -0.4691    0.2503 N   0  0  0  0  0  0  0  0  0  0  0  0
   -9.5126    0.3835    1.8186 N   0  0  0  0  0  0  0  0  0  0  0  0
    4.4185   -2.2134    0.9484 C   0  0  1  0  0  0  0  0  0  0  0  0
    3.7198   -1.8308   -1.3675 C   0  0  2  0  0  0  0  0  0  0  0  0
    4.4716   -2.7980   -0.4571 C   0  0  0  0  0  0  0  0  0  0  0  0
    5.0787   -0.8184    0.9660 C   0  0  0  0  0  0  0  0  0  0  0  0
    4.4145   -0.4503   -1.3405 C   0  0  0  0  0  0  0  0  0  0  0  0
    2.9573   -2.1799    1.4160 C   0  0  0  0  0  0  0  0  0  0  0  0
    5.1434    1.4041    0.0254 C   0  0  0  0  0  0  0  0  0  0  0  0
    2.2697   -1.7045   -0.9384 C   0  0  0  0  0  0  0  0  0  0  0  0
    4.4173    2.3989   -0.8845 C   0  0  0  0  0  0  0  0  0  0  0  0
    5.2399    1.9676    1.4467 C   0  0  0  0  0  0  0  0  0  0  0  0
    1.3089   -1.4732   -1.8484 C   0  0  0  0  0  0  0  0  0  0  0  0
    0.6208   -1.6658    0.8804 C   0  0  0  0  0  0  0  0  0  0  0  0
    5.0592    3.7781   -0.7809 C   0  0  0  0  0  0  0  0  0  0  0  0
    5.8362    3.3706    1.4210 C   0  0  0  0  0  0  0  0  0  0  0  0
   -0.4170   -1.3857   -0.1623 C   0  0  0  0  0  0  0  0  0  0  0  0
   -0.0606   -1.3093   -1.4489 C   0  0  0  0  0  0  0  0  0  0  0  0
   -2.6452   -0.4218   -0.4156 C   0  0  0  0  0  0  0  0  0  0  0  0
   -5.0743    0.1977   -0.0917 C   0  0  0  0  0  0  0  0  0  0  0  0
   -6.2139    0.0322    0.6956 C   0  0  0  0  0  0  0  0  0  0  0  0
   -5.1174    1.0214   -1.2166 C   0  0  0  0  0  0  0  0  0  0  0  0
   -7.3965    0.6904    0.3580 C   0  0  0  0  0  0  0  0  0  0  0  0
   -6.3000    1.6799   -1.5540 C   0  0  0  0  0  0  0  0  0  0  0  0
   -7.4395    1.5143   -0.7669 C   0  0  0  0  0  0  0  0  0  0  0  0
   -8.5642    0.5210    1.1640 C   0  0  0  0  0  0  0  0  0  0  0  0
    4.9849   -2.8564    1.6337 H   0  0  0  0  0  0  0  0  0  0  0  0
    3.7685   -2.2219   -2.3924 H   0  0  0  0  0  0  0  0  0  0  0  0
    4.0179   -3.7966   -0.4823 H   0  0  0  0  0  0  0  0  0  0  0  0
    5.5114   -2.9077   -0.7883 H   0  0  0  0  0  0  0  0  0  0  0  0
    4.9798   -0.4624    1.9964 H   0  0  0  0  0  0  0  0  0  0  0  0
    6.1505   -0.9298    0.7535 H   0  0  0  0  0  0  0  0  0  0  0  0
    5.4284   -0.5505   -1.7510 H   0  0  0  0  0  0  0  0  0  0  0  0
    3.8481    0.1902   -2.0236 H   0  0  0  0  0  0  0  0  0  0  0  0
    2.6783   -3.1853    1.7602 H   0  0  0  0  0  0  0  0  0  0  0  0
    2.8443   -1.5225    2.2875 H   0  0  0  0  0  0  0  0  0  0  0  0
    6.1685    1.2799   -0.3543 H   0  0  0  0  0  0  0  0  0  0  0  0
    3.3632    2.4722   -0.5868 H   0  0  0  0  0  0  0  0  0  0  0  0
    4.4542    2.1117   -1.9392 H   0  0  0  0  0  0  0  0  0  0  0  0
    5.8832    1.3644    2.0948 H   0  0  0  0  0  0  0  0  0  0  0  0
    4.2399    2.0130    1.8975 H   0  0  0  0  0  0  0  0  0  0  0  0
    1.5374   -1.3829   -2.9053 H   0  0  0  0  0  0  0  0  0  0  0  0
    6.0826    3.7736   -1.1743 H   0  0  0  0  0  0  0  0  0  0  0  0
    4.4833    4.5018   -1.3666 H   0  0  0  0  0  0  0  0  0  0  0  0
    5.8226    3.7996    2.4281 H   0  0  0  0  0  0  0  0  0  0  0  0
    6.8787    3.3561    1.0817 H   0  0  0  0  0  0  0  0  0  0  0  0
   -0.7594   -1.1687   -2.2647 H   0  0  0  0  0  0  0  0  0  0  0  0
   -1.9273   -1.5046    1.1993 H   0  0  0  0  0  0  0  0  0  0  0  0
   -3.9209   -1.0542    1.0807 H   0  0  0  0  0  0  0  0  0  0  0  0
   -6.1782   -0.6109    1.5729 H   0  0  0  0  0  0  0  0  0  0  0  0
   -4.2788    1.1997   -1.8746 H   0  0  0  0  0  0  0  0  0  0  0  0
   -6.3347    2.3218   -2.4297 H   0  0  0  0  0  0  0  0  0  0  0  0
   -8.3539    2.0341   -1.0429 H   0  0  0  0  0  0  0  0  0  0  0  0
  1 21  1  0  0  0  0
  1 22  1  0  0  0  0
  2 20  2  0  0  0  0
  3 25  2  0  0  0  0
  4 12  1  0  0  0  0
  4 13  1  0  0  0  0
  4 15  1  0  0  0  0
  5 14  1  0  0  0  0
  5 16  1  0  0  0  0
  5 20  1  0  0  0  0
  6 23  1  0  0  0  0
  6 25  1  0  0  0  0
  6 54  1  0  0  0  0
  7 25  1  0  0  0  0
  7 26  1  0  0  0  0
  7 55  1  0  0  0  0
  8 32  3  0  0  0  0
  9 11  1  0  0  0  0
  9 12  1  0  0  0  0
  9 14  1  0  0  0  0
  9 33  1  0  0  0  0
 10 11  1  0  0  0  0
 10 13  1  0  0  0  0
 10 16  1  0  0  0  0
 10 34  1  0  0  0  0
 11 35  1  0  0  0  0
 11 36  1  0  0  0  0
 12 37  1  0  0  0  0
 12 38  1  0  0  0  0
 13 39  1  0  0  0  0
 13 40  1  0  0  0  0
 14 41  1  0  0  0  0
 14 42  1  0  0  0  0
 15 17  1  0  0  0  0
 15 18  1  0  0  0  0
 15 43  1  0  0  0  0
 16 19  2  0  0  0  0
 17 21  1  0  0  0  0
 17 44  1  0  0  0  0
 17 45  1  0  0  0  0
 18 22  1  0  0  0  0
 18 46  1  0  0  0  0
 18 47  1  0  0  0  0
 19 24  1  0  0  0  0
 19 48  1  0  0  0  0
 20 23  1  0  0  0  0
 21 49  1  0  0  0  0
 21 50  1  0  0  0  0
 22 51  1  0  0  0  0
 22 52  1  0  0  0  0
 23 24  2  0  0  0  0
 24 53  1  0  0  0  0
 26 27  1  0  0  0  0
 26 28  2  0  0  0  0
 27 29  2  0  0  0  0
 27 56  1  0  0  0  0
 28 30  1  0  0  0  0
 28 57  1  0  0  0  0
 29 31  1  0  0  0  0
 29 32  1  0  0  0  0
 30 31  2  0  0  0  0
 30 58  1  0  0  0  0
 31 59  1  0  0  0  0
M  END
> <PUBCHEM_COMPOUND_CID>
26742312

> <PUBCHEM_CONFORMER_RMSD>
1

> <PUBCHEM_CONFORMER_DIVERSEORDER>
1
13
27
23
15
26
6
10
19
20
16
18
8
9
14
3
21
11
4
24
30
25
5
28
12
7
2
29
17
22

> <PUBCHEM_MMFF94_PARTIAL_CHARGES>
36
1 -0.56
10 0.14
12 0.27
13 0.27
14 0.3
15 0.27
16 -0.03
19 -0.15
2 -0.57
20 0.62
21 0.28
22 0.28
23 0.12
24 -0.15
25 0.69
26 0.12
27 -0.15
28 -0.15
29 0.07
3 -0.57
30 -0.15
31 -0.15
32 0.48
4 -0.81
48 0.15
5 -0.47
53 0.15
54 0.37
55 0.37
56 0.15
57 0.15
58 0.15
59 0.15
6 -0.54
7 -0.55
8 -0.56

> <PUBCHEM_EFFECTIVE_ROTOR_COUNT>
7.2

> <PUBCHEM_PHARMACOPHORE_FEATURES>
12
1 1 acceptor
1 2 acceptor
1 3 acceptor
1 4 cation
1 6 donor
1 7 donor
1 8 acceptor
6 1 15 17 18 21 22 rings
6 26 27 28 29 30 31 rings
6 4 9 10 11 12 13 rings
6 5 16 19 20 23 24 rings
6 5 9 10 11 14 16 rings

> <PUBCHEM_HEAVY_ATOM_COUNT>
32

> <PUBCHEM_ATOM_DEF_STEREO_COUNT>
2

> <PUBCHEM_ATOM_UDEF_STEREO_COUNT>
0

> <PUBCHEM_BOND_DEF_STEREO_COUNT>
0

> <PUBCHEM_BOND_UDEF_STEREO_COUNT>
0

> <PUBCHEM_ISOTOPIC_ATOM_COUNT>
0

> <PUBCHEM_COMPONENT_COUNT>
1

> <PUBCHEM_CACTVS_TAUTO_COUNT>
9

> <PUBCHEM_CONFORMER_ID>
01980E2800000001

> <PUBCHEM_MMFF94_ENERGY>
85.6864

> <PUBCHEM_FEATURE_SELFOVERLAP>
62.5

> <PUBCHEM_SHAPE_FINGERPRINT>
10066227 49 8574713490893565633
10554248 39 17704072863355755615
10638233 991 18201440247047213521
10673678 19 18202567314873820294
11408170 132 12966865477226664499
11456790 92 17968364642651548160
11505856 67 17475231779334622150
11578080 2 18262241139539642146
11719270 70 16009037151111879635
11966995 178 18272102599204813021
12522641 24 18114175277257118730
12539765 74 17489318443411263767
12633257 1 16517354712832588964
13692114 37 16877953758581917147
13782708 43 8286203859877710499
13878862 14 18338780261510152100
14400156 188 18043246843592468698
14461889 52 17168154425215749563
14904525 67 18270679750134990761
14919807 6 12175361154230991979
15152005 1 10738653528931611472
15183329 4 15913326892906481417
155225 6 18192996148023094988
15840311 113 18411985758593264325
19302320 297 18188204420778370728
19304671 126 17845664784538124028
19309040 13 18128251380193126532
20157964 124 18342739598402260710
21033648 29 17895196649069909050
21130935 74 17313669218795844947
21136928 126 14876922413075254133
21521721 280 18343024385268287491
21641784 216 16343431630592651163
21792934 111 17530966848823582493
22122407 14 18411706456585474313
23522609 53 16773252720982113187
23569914 2 17318963439713046749
24771293 8 18188206623325713837
249057 3 18272369733692352718
27425 322 18411694400422955054
29717793 49 12031778154999420639
3044373 193 18341900657892262319
3411729 13 18410290350223195060
34797466 226 18272376339145786271
3525247 18 17268055170510120064
3534868 343 17273991142024752770
3711267 37 17775293721177873697
394071 54 18413392033533004332
397830 11 18334864956681101691
4093350 32 18131636672856586204
4112364 45 18410563007805847480
4173938 306 16588290706263302583
4258327 124 18060420257534372447
44317340 157 18412546509122847511
444735 82 18341338825305843697
474113 269 12252173096492407001
5109719 28 18187653543645286945
5372103 7 15768633473848199136
57359948 33 13830128391163323930
68570916 9 18342733044683347239
6898599 12 17773872180832626167

> <PUBCHEM_SHAPE_MULTIPOLES>
616.03
23.68
3.82
1.75
56.12
3.73
-0.07
16.61
-6.48
-10.59
-0.33
0.17
-0.14
1.46

> <PUBCHEM_SHAPE_SELFOVERLAP>
1337.681

> <PUBCHEM_SHAPE_VOLUME>
324.9

> <PUBCHEM_COORDINATE_TYPE>
2
5
10

$$$$
