25389753
  -OEChem-12032416163D

 64 68  0     1  0  0  0  0  0999 V2000
   -7.6365    0.0081   -0.5306 F   0  0  0  0  0  0  0  0  0  0  0  0
   -5.8086    1.1586   -0.1974 F   0  0  0  0  0  0  0  0  0  0  0  0
   -6.4782    0.6948   -2.2519 F   0  0  0  0  0  0  0  0  0  0  0  0
   -1.9965    0.6837    2.5468 O   0  0  0  0  0  0  0  0  0  0  0  0
   -2.1189    2.2395    0.8436 O   0  0  0  0  0  0  0  0  0  0  0  0
    5.6922   -5.2164   -0.8631 O   0  0  0  0  0  0  0  0  0  0  0  0
   -5.6588   -0.9967   -0.9482 O   0  0  0  0  0  0  0  0  0  0  0  0
    0.3282   -0.1867    1.2899 N   0  0  2  0  0  0  0  0  0  0  0  0
    3.9354    0.6670    0.5211 N   0  0  0  0  0  0  0  0  0  0  0  0
    2.4187   -3.7055   -0.1331 N   0  0  0  0  0  0  0  0  0  0  0  0
    1.8056   -0.3332    1.5627 C   0  0  1  0  0  0  0  0  0  0  0  0
   -0.0607   -0.7833   -0.0256 C   0  0  1  0  0  0  0  0  0  0  0  0
    2.3106   -1.7702    1.3808 C   0  0  0  0  0  0  0  0  0  0  0  0
    1.9743   -2.3185   -0.0021 C   0  0  2  0  0  0  0  0  0  0  0  0
    0.4655   -2.2310   -0.2024 C   0  0  0  0  0  0  0  0  0  0  0  0
   -0.0123    1.2651    1.4635 C   0  0  1  0  0  0  0  0  0  0  0  0
    2.5955    0.6943    0.7885 C   0  0  0  0  0  0  0  0  0  0  0  0
    0.6373    2.2098    0.4251 C   0  0  0  0  0  0  0  0  0  0  0  0
    2.0807    1.8691    0.2752 C   0  0  0  0  0  0  0  0  0  0  0  0
   -1.5663   -0.8401   -0.2739 C   0  0  0  0  0  0  0  0  0  0  0  0
    3.1411    2.5671   -0.3611 C   0  0  0  0  0  0  0  0  0  0  0  0
    4.2930    1.7917   -0.1929 C   0  0  0  0  0  0  0  0  0  0  0  0
   -1.4877    1.4724    1.5579 C   0  0  0  0  0  0  0  0  0  0  0  0
    3.8465   -3.7657   -0.4046 C   0  0  0  0  0  0  0  0  0  0  0  0
   -2.1153   -0.1986   -1.3842 C   0  0  0  0  0  0  0  0  0  0  0  0
   -2.3927   -1.5342    0.6098 C   0  0  0  0  0  0  0  0  0  0  0  0
    3.2406    3.7852   -1.0626 C   0  0  0  0  0  0  0  0  0  0  0  0
    5.5410    2.1787   -0.6940 C   0  0  0  0  0  0  0  0  0  0  0  0
    4.2985   -5.2063   -0.5836 C   0  0  0  0  0  0  0  0  0  0  0  0
    4.4826    4.1823   -1.5703 C   0  0  0  0  0  0  0  0  0  0  0  0
   -3.4907   -0.2509   -1.6106 C   0  0  0  0  0  0  0  0  0  0  0  0
   -3.7680   -1.5865    0.3836 C   0  0  0  0  0  0  0  0  0  0  0  0
    5.6138    3.3899   -1.3878 C   0  0  0  0  0  0  0  0  0  0  0  0
   -4.3170   -0.9449   -0.7267 C   0  0  0  0  0  0  0  0  0  0  0  0
   -3.4100    0.7834    2.7468 C   0  0  0  0  0  0  0  0  0  0  0  0
   -6.3830    0.2279   -0.9888 C   0  0  0  0  0  0  0  0  0  0  0  0
    1.9530   -0.0952    2.6264 H   0  0  0  0  0  0  0  0  0  0  0  0
    0.3941   -0.1942   -0.8324 H   0  0  0  0  0  0  0  0  0  0  0  0
    3.3870   -1.8128    1.5791 H   0  0  0  0  0  0  0  0  0  0  0  0
    1.8398   -2.4028    2.1473 H   0  0  0  0  0  0  0  0  0  0  0  0
    2.4448   -1.7048   -0.7815 H   0  0  0  0  0  0  0  0  0  0  0  0
   -0.0296   -2.9126    0.5035 H   0  0  0  0  0  0  0  0  0  0  0  0
    0.2072   -2.5914   -1.2084 H   0  0  0  0  0  0  0  0  0  0  0  0
    0.3598    1.5766    2.4531 H   0  0  0  0  0  0  0  0  0  0  0  0
    0.5318    3.2507    0.7547 H   0  0  0  0  0  0  0  0  0  0  0  0
    0.1425    2.1305   -0.5503 H   0  0  0  0  0  0  0  0  0  0  0  0
    4.5752   -0.0658    0.7945 H   0  0  0  0  0  0  0  0  0  0  0  0
    1.9192   -4.1546   -0.9008 H   0  0  0  0  0  0  0  0  0  0  0  0
    4.4338   -3.3227    0.4074 H   0  0  0  0  0  0  0  0  0  0  0  0
    4.0986   -3.2035   -1.3131 H   0  0  0  0  0  0  0  0  0  0  0  0
   -1.4844    0.3454   -2.0817 H   0  0  0  0  0  0  0  0  0  0  0  0
   -1.9860   -2.0373    1.4829 H   0  0  0  0  0  0  0  0  0  0  0  0
    2.3673    4.4139   -1.2119 H   0  0  0  0  0  0  0  0  0  0  0  0
    6.4232    1.5634   -0.5519 H   0  0  0  0  0  0  0  0  0  0  0  0
    3.7762   -5.6839   -1.4194 H   0  0  0  0  0  0  0  0  0  0  0  0
    4.1225   -5.7905    0.3259 H   0  0  0  0  0  0  0  0  0  0  0  0
    4.5642    5.1206   -2.1126 H   0  0  0  0  0  0  0  0  0  0  0  0
   -3.9041    0.2478   -2.4828 H   0  0  0  0  0  0  0  0  0  0  0  0
   -4.4069   -2.1272    1.0763 H   0  0  0  0  0  0  0  0  0  0  0  0
    6.5690    3.7180   -1.7900 H   0  0  0  0  0  0  0  0  0  0  0  0
   -3.7608   -0.1562    3.1823 H   0  0  0  0  0  0  0  0  0  0  0  0
   -3.9562    0.9675    1.8175 H   0  0  0  0  0  0  0  0  0  0  0  0
   -3.6099    1.5899    3.4580 H   0  0  0  0  0  0  0  0  0  0  0  0
    5.9544   -6.1464   -0.9719 H   0  0  0  0  0  0  0  0  0  0  0  0
  1 36  1  0  0  0  0
  2 36  1  0  0  0  0
  3 36  1  0  0  0  0
  4 23  1  0  0  0  0
  4 35  1  0  0  0  0
  5 23  2  0  0  0  0
  6 29  1  0  0  0  0
  6 64  1  0  0  0  0
  7 34  1  0  0  0  0
  7 36  1  0  0  0  0
  8 11  1  0  0  0  0
  8 12  1  0  0  0  0
  8 16  1  0  0  0  0
  9 17  1  0  0  0  0
  9 22  1  0  0  0  0
  9 47  1  0  0  0  0
 10 14  1  0  0  0  0
 10 24  1  0  0  0  0
 10 48  1  0  0  0  0
 11 13  1  0  0  0  0
 11 17  1  0  0  0  0
 11 37  1  0  0  0  0
 12 15  1  0  0  0  0
 12 20  1  0  0  0  0
 12 38  1  0  0  0  0
 13 14  1  0  0  0  0
 13 39  1  0  0  0  0
 13 40  1  0  0  0  0
 14 15  1  0  0  0  0
 14 41  1  0  0  0  0
 15 42  1  0  0  0  0
 15 43  1  0  0  0  0
 16 18  1  0  0  0  0
 16 23  1  0  0  0  0
 16 44  1  0  0  0  0
 17 19  2  0  0  0  0
 18 19  1  0  0  0  0
 18 45  1  0  0  0  0
 18 46  1  0  0  0  0
 19 21  1  0  0  0  0
 20 25  2  0  0  0  0
 20 26  1  0  0  0  0
 21 22  1  0  0  0  0
 21 27  2  0  0  0  0
 22 28  2  0  0  0  0
 24 29  1  0  0  0  0
 24 49  1  0  0  0  0
 24 50  1  0  0  0  0
 25 31  1  0  0  0  0
 25 51  1  0  0  0  0
 26 32  2  0  0  0  0
 26 52  1  0  0  0  0
 27 30  1  0  0  0  0
 27 53  1  0  0  0  0
 28 33  1  0  0  0  0
 28 54  1  0  0  0  0
 29 55  1  0  0  0  0
 29 56  1  0  0  0  0
 30 33  2  0  0  0  0
 30 57  1  0  0  0  0
 31 34  2  0  0  0  0
 31 58  1  0  0  0  0
 32 34  1  0  0  0  0
 32 59  1  0  0  0  0
 33 60  1  0  0  0  0
 35 61  1  0  0  0  0
 35 62  1  0  0  0  0
 35 63  1  0  0  0  0
M  END
> <PUBCHEM_COMPOUND_CID>
25389753

> <PUBCHEM_CONFORMER_RMSD>
1

> <PUBCHEM_CONFORMER_DIVERSEORDER>
1
20
2
17
4
9
11
15
8
3
14
18
19
5
13
16
10
12
7
6

> <PUBCHEM_MMFF94_PARTIAL_CHARGES>
44
1 -0.34
10 -0.9
11 0.45
12 0.41
14 0.27
16 0.33
17 -0.33
18 0.18
19 -0.18
2 -0.34
20 -0.14
22 -0.15
23 0.66
24 0.27
25 -0.15
26 -0.15
27 -0.15
28 -0.15
29 0.28
3 -0.34
30 -0.15
31 -0.15
32 -0.15
33 -0.15
34 0.08
35 0.28
36 1.3
4 -0.43
47 0.27
48 0.36
5 -0.57
51 0.15
52 0.15
53 0.15
54 0.15
57 0.15
58 0.15
59 0.15
6 -0.68
60 0.15
64 0.4
7 -0.36
8 -0.81
9 0.03

> <PUBCHEM_EFFECTIVE_ROTOR_COUNT>
9.2

> <PUBCHEM_PHARMACOPHORE_FEATURES>
14
1 10 cation
1 10 donor
1 5 acceptor
1 6 acceptor
1 6 donor
1 7 acceptor
1 8 cation
1 9 cation
1 9 donor
5 9 17 19 21 22 rings
6 20 25 26 31 32 34 rings
6 21 22 27 28 30 33 rings
6 8 11 12 13 14 15 rings
6 8 11 16 17 18 19 rings

> <PUBCHEM_HEAVY_ATOM_COUNT>
36

> <PUBCHEM_ATOM_DEF_STEREO_COUNT>
4

> <PUBCHEM_ATOM_UDEF_STEREO_COUNT>
0

> <PUBCHEM_BOND_DEF_STEREO_COUNT>
0

> <PUBCHEM_BOND_UDEF_STEREO_COUNT>
0

> <PUBCHEM_ISOTOPIC_ATOM_COUNT>
0

> <PUBCHEM_COMPONENT_COUNT>
1

> <PUBCHEM_CACTVS_TAUTO_COUNT>
1

> <PUBCHEM_CONFORMER_ID>
01836AB900000001

> <PUBCHEM_MMFF94_ENERGY>
86.561

> <PUBCHEM_FEATURE_SELFOVERLAP>
71.297

> <PUBCHEM_SHAPE_FINGERPRINT>
10190206 1 18342468074855043701
10673678 19 18189051052682727101
10940486 97 17694796125028258328
11135609 187 18266178516733406344
11135926 11 18340216279082046808
11488393 25 18334017186018756458
11578080 2 16805325517423201241
11763715 3 17761228622190554134
12788726 201 18131072641062640401
13009979 54 17773028657724196242
133893 2 18339936934894684306
13540713 5 17987811704469098377
13911987 19 18121507014022179292
13944108 23 18334849498598379565
14068700 675 17985258582456219522
14114211 68 18337679723026437300
14117953 113 18410294736349791980
15082195 135 18410002217910506113
15183329 4 18341613776158601533
15198563 99 17834119646205581006
15840311 113 18262238816843290069
19319366 153 18200308961188208350
21033648 29 17025147695090400132
21344244 246 18410577245912915382
21792964 463 18269015158213078729
21927370 108 18050579434639237738
21987483 16 9510875117222164789
22393880 68 17914887880215807079
23559900 14 18342726395836725939
23566358 27 18339379465256138418
23576562 1 18120942702369128644
244849 19 17604164657139794795
25147074 1 17917157100174356251
255183 451 18198902518165281190
4017518 198 18341617084174339566
4058900 60 18187930628658441042
4280585 95 17977942389784113114
46194498 28 18188198827943954823
5265222 85 17904208379351734052
70251023 43 18265330595304211354

> <PUBCHEM_SHAPE_MULTIPOLES>
680.62
14.05
5.69
1.85
15.58
6.95
0.67
-3.91
-8.16
-15.01
-2.39
1.74
-0.83
-1.18

> <PUBCHEM_SHAPE_SELFOVERLAP>
1484.915

> <PUBCHEM_SHAPE_VOLUME>
370.7

> <PUBCHEM_COORDINATE_TYPE>
2
5
10

$$$$
