26742624
  -OEChem-12032416183D

 58 59  0     1  0  0  0  0  0999 V2000
   -4.0891   -2.4186   -0.5600 O   0  0  0  0  0  0  0  0  0  0  0  0
    3.8871   -2.4036    0.8282 O   0  0  0  0  0  0  0  0  0  0  0  0
    6.9296    0.9864   -0.5735 O   0  0  0  0  0  0  0  0  0  0  0  0
    0.9983   -1.0048    0.5059 N   0  0  2  0  0  0  0  0  0  0  0  0
   -5.0453   -0.6062    0.5263 N   0  0  0  0  0  0  0  0  0  0  0  0
   -5.0194    4.2412    1.0339 N   0  0  0  0  0  0  0  0  0  0  0  0
   -0.4301   -0.4581   -1.4533 C   0  0  2  0  0  0  0  0  0  0  0  0
   -1.5850   -1.3200   -0.8925 C   0  0  1  0  0  0  0  0  0  0  0  0
   -1.0016   -2.3850    0.0494 C   0  0  0  0  0  0  0  0  0  0  0  0
    0.4746    0.0841   -0.3308 C   0  0  0  0  0  0  0  0  0  0  0  0
   -0.0847   -1.7846    1.1172 C   0  0  0  0  0  0  0  0  0  0  0  0
   -0.9162    0.6819   -2.3495 C   0  0  0  0  0  0  0  0  0  0  0  0
   -2.6833   -0.5125   -0.1910 C   0  0  0  0  0  0  0  0  0  0  0  0
    1.8936   -0.4764    1.5350 C   0  0  0  0  0  0  0  0  0  0  0  0
   -1.7393    0.1579   -3.5093 C   0  0  0  0  0  0  0  0  0  0  0  0
   -3.9905   -1.2777   -0.1009 C   0  0  0  0  0  0  0  0  0  0  0  0
    3.2350   -0.1016    0.9742 C   0  0  0  0  0  0  0  0  0  0  0  0
    4.1703   -1.0833    0.6463 C   0  0  0  0  0  0  0  0  0  0  0  0
    3.5413    1.2456    0.7818 C   0  0  0  0  0  0  0  0  0  0  0  0
   -4.9047    0.7455    1.0627 C   0  0  0  0  0  0  0  0  0  0  0  0
   -6.3642   -1.2046    0.6919 C   0  0  0  0  0  0  0  0  0  0  0  0
    5.4118   -0.7177    0.1263 C   0  0  0  0  0  0  0  0  0  0  0  0
    4.7830    1.6112    0.2620 C   0  0  0  0  0  0  0  0  0  0  0  0
   -5.2467    1.8180    0.0355 C   0  0  0  0  0  0  0  0  0  0  0  0
    5.7183    0.6295   -0.0658 C   0  0  0  0  0  0  0  0  0  0  0  0
   -5.1195    3.1719    0.5944 C   0  0  0  0  0  0  0  0  0  0  0  0
    7.1763    2.3814   -0.7444 C   0  0  0  0  0  0  0  0  0  0  0  0
    0.1942   -1.1187   -2.0745 H   0  0  0  0  0  0  0  0  0  0  0  0
   -2.0295   -1.8616   -1.7375 H   0  0  0  0  0  0  0  0  0  0  0  0
   -0.4242   -3.1046   -0.5470 H   0  0  0  0  0  0  0  0  0  0  0  0
   -1.7943   -2.9625    0.5376 H   0  0  0  0  0  0  0  0  0  0  0  0
    1.2997    0.6235   -0.8099 H   0  0  0  0  0  0  0  0  0  0  0  0
   -0.0778    0.8132    0.2771 H   0  0  0  0  0  0  0  0  0  0  0  0
   -0.6582   -1.1761    1.8264 H   0  0  0  0  0  0  0  0  0  0  0  0
    0.3432   -2.6173    1.6896 H   0  0  0  0  0  0  0  0  0  0  0  0
   -1.4673    1.4488   -1.7965 H   0  0  0  0  0  0  0  0  0  0  0  0
   -0.0390    1.1952   -2.7651 H   0  0  0  0  0  0  0  0  0  0  0  0
   -2.9017    0.3976   -0.7470 H   0  0  0  0  0  0  0  0  0  0  0  0
   -2.3548   -0.2301    0.8113 H   0  0  0  0  0  0  0  0  0  0  0  0
    2.0731   -1.2308    2.3140 H   0  0  0  0  0  0  0  0  0  0  0  0
    1.4378    0.3702    2.0671 H   0  0  0  0  0  0  0  0  0  0  0  0
   -1.2135   -0.6368   -4.0482 H   0  0  0  0  0  0  0  0  0  0  0  0
   -1.9339    0.9678   -4.2206 H   0  0  0  0  0  0  0  0  0  0  0  0
   -2.7120   -0.2236   -3.1860 H   0  0  0  0  0  0  0  0  0  0  0  0
    2.8220    2.0210    1.0322 H   0  0  0  0  0  0  0  0  0  0  0  0
   -3.8987    0.9099    1.4571 H   0  0  0  0  0  0  0  0  0  0  0  0
   -5.5680    0.8356    1.9334 H   0  0  0  0  0  0  0  0  0  0  0  0
   -6.5822   -1.2934    1.7601 H   0  0  0  0  0  0  0  0  0  0  0  0
   -6.4018   -2.1990    0.2399 H   0  0  0  0  0  0  0  0  0  0  0  0
   -7.1123   -0.5679    0.2121 H   0  0  0  0  0  0  0  0  0  0  0  0
    6.1463   -1.4766   -0.1319 H   0  0  0  0  0  0  0  0  0  0  0  0
    4.9551    2.6750    0.1381 H   0  0  0  0  0  0  0  0  0  0  0  0
   -4.6099    1.7313   -0.8505 H   0  0  0  0  0  0  0  0  0  0  0  0
   -6.2748    1.6753   -0.3184 H   0  0  0  0  0  0  0  0  0  0  0  0
    4.6515   -2.9343    0.5458 H   0  0  0  0  0  0  0  0  0  0  0  0
    8.1853    2.4828   -1.1574 H   0  0  0  0  0  0  0  0  0  0  0  0
    7.1683    2.9118    0.2139 H   0  0  0  0  0  0  0  0  0  0  0  0
    6.4876    2.8259   -1.4709 H   0  0  0  0  0  0  0  0  0  0  0  0
  1 16  2  0  0  0  0
  2 18  1  0  0  0  0
  2 55  1  0  0  0  0
  3 25  1  0  0  0  0
  3 27  1  0  0  0  0
  4 10  1  0  0  0  0
  4 11  1  0  0  0  0
  4 14  1  0  0  0  0
  5 16  1  0  0  0  0
  5 20  1  0  0  0  0
  5 21  1  0  0  0  0
  6 26  3  0  0  0  0
  7  8  1  0  0  0  0
  7 10  1  0  0  0  0
  7 12  1  0  0  0  0
  7 28  1  0  0  0  0
  8  9  1  0  0  0  0
  8 13  1  0  0  0  0
  8 29  1  0  0  0  0
  9 11  1  0  0  0  0
  9 30  1  0  0  0  0
  9 31  1  0  0  0  0
 10 32  1  0  0  0  0
 10 33  1  0  0  0  0
 11 34  1  0  0  0  0
 11 35  1  0  0  0  0
 12 15  1  0  0  0  0
 12 36  1  0  0  0  0
 12 37  1  0  0  0  0
 13 16  1  0  0  0  0
 13 38  1  0  0  0  0
 13 39  1  0  0  0  0
 14 17  1  0  0  0  0
 14 40  1  0  0  0  0
 14 41  1  0  0  0  0
 15 42  1  0  0  0  0
 15 43  1  0  0  0  0
 15 44  1  0  0  0  0
 17 18  2  0  0  0  0
 17 19  1  0  0  0  0
 18 22  1  0  0  0  0
 19 23  2  0  0  0  0
 19 45  1  0  0  0  0
 20 24  1  0  0  0  0
 20 46  1  0  0  0  0
 20 47  1  0  0  0  0
 21 48  1  0  0  0  0
 21 49  1  0  0  0  0
 21 50  1  0  0  0  0
 22 25  2  0  0  0  0
 22 51  1  0  0  0  0
 23 25  1  0  0  0  0
 23 52  1  0  0  0  0
 24 26  1  0  0  0  0
 24 53  1  0  0  0  0
 24 54  1  0  0  0  0
 27 56  1  0  0  0  0
 27 57  1  0  0  0  0
 27 58  1  0  0  0  0
M  END
> <PUBCHEM_COMPOUND_CID>
26742624

> <PUBCHEM_CONFORMER_RMSD>
1.4

> <PUBCHEM_CONFORMER_DIVERSEORDER>
2
69
45
18
70
74
81
84
13
9
95
29
26
37
58
90
73
59
79
89
93
6
98
22
87
30
97
38
62
48
24
76
32
101
63
19
67
88
94
23
28
54
1
102
86
56
68
33
57
82
44
80
71
34
47
66
55
5
17
75
51
49
40
96
8
41
20
46
52
92
83
21
77
91
3
50
99
25
36
7
53
64
27
60
14
61
11
4
78
12
16
43
100
10
85
39
72
42
31
35
65
15

> <PUBCHEM_MMFF94_PARTIAL_CHARGES>
26
1 -0.57
10 0.27
11 0.27
13 0.06
14 0.41
16 0.57
17 -0.14
18 0.08
19 -0.15
2 -0.53
20 0.3
21 0.3
22 -0.15
23 -0.15
24 0.2
25 0.08
26 0.36
27 0.28
3 -0.36
4 -0.81
45 0.15
5 -0.66
51 0.15
52 0.15
55 0.45
6 -0.56

> <PUBCHEM_EFFECTIVE_ROTOR_COUNT>
10.2

> <PUBCHEM_PHARMACOPHORE_FEATURES>
8
1 1 acceptor
1 15 hydrophobe
1 2 donor
1 3 acceptor
1 4 cation
1 6 acceptor
6 17 18 19 22 23 25 rings
6 4 7 8 9 10 11 rings

> <PUBCHEM_HEAVY_ATOM_COUNT>
27

> <PUBCHEM_ATOM_DEF_STEREO_COUNT>
2

> <PUBCHEM_ATOM_UDEF_STEREO_COUNT>
0

> <PUBCHEM_BOND_DEF_STEREO_COUNT>
0

> <PUBCHEM_BOND_UDEF_STEREO_COUNT>
0

> <PUBCHEM_ISOTOPIC_ATOM_COUNT>
0

> <PUBCHEM_COMPONENT_COUNT>
1

> <PUBCHEM_CACTVS_TAUTO_COUNT>
3

> <PUBCHEM_CONFORMER_ID>
01980F6000000002

> <PUBCHEM_MMFF94_ENERGY>
66.6907

> <PUBCHEM_FEATURE_SELFOVERLAP>
40.596

> <PUBCHEM_SHAPE_FINGERPRINT>
105312 117 16056878031485685165
11370993 144 18335699382573810515
11796584 16 14907900522764840982
11991303 11 16988552546534637119
1200032 147 16270809893428990401
12107183 9 18050561842231193131
12390115 104 18408039593896535237
12422481 6 17386291965645993917
12516196 113 16443061725281695499
12555020 224 13901911132636856078
12596602 18 18113898260856699153
12730499 353 17967530199531769674
12788726 201 17632584820967935178
13009979 54 17972041603020108815
13165053 103 12391525178105593669
13757389 114 18199472236786480071
14347329 18 18129655293143453513
14790565 3 18410575084684184728
14840074 17 17240484731853623175
14856354 85 18199471133312246135
15183329 4 16988573415364100082
17349148 13 12175628420570117938
17980427 23 18187653479647642973
19958102 18 14979955848311242340
20642791 268 18041008297719667637
21223535 225 18131059464229699928
21756936 100 18272640251515764093
23402539 116 12247684889363531187
23522609 53 18113915857375199076
23569914 2 17268859793977813033
2747138 104 16660370293799741376
2838139 119 17702652268868761497
340366 18 15913041096760193296
392239 28 15791736329474430633
4098825 35 18410859833386194142
44062 13 15410326788444756262
469060 322 16588022394438090917
5104073 3 16371547208430911664
550186 7 17988928881582192495
6328613 192 18408886230613693632

> <PUBCHEM_SHAPE_MULTIPOLES>
523.1
17.35
3.13
1.83
10.44
2.62
-1.93
10.3
3.14
-3.77
0.99
-1.11
0.26
-2.04

> <PUBCHEM_SHAPE_SELFOVERLAP>
1065.906

> <PUBCHEM_SHAPE_VOLUME>
301

> <PUBCHEM_COORDINATE_TYPE>
2
5
10

$$$$
