45784194
  -OEChem-12032416243D

 47 50  0     1  0  0  0  0  0999 V2000
    2.4682   -1.0934   -1.1381 O   0  0  0  0  0  0  0  0  0  0  0  0
   -2.1237   -0.9473   -0.0404 N   0  0  1  0  0  0  0  0  0  0  0  0
   -5.9845    0.8099   -0.3053 N   0  0  0  0  0  0  0  0  0  0  0  0
    1.9388    0.0847    0.7244 N   0  0  0  0  0  0  0  0  0  0  0  0
   -3.2200   -0.0103    0.1936 C   0  0  0  0  0  0  0  0  0  0  0  0
    0.1589   -1.3464   -0.4016 C   0  0  2  0  0  0  0  0  0  0  0  0
   -0.9390   -0.2926   -0.5996 C   0  0  0  0  0  0  0  0  0  0  0  0
   -1.6579   -1.5793    1.1940 C   0  0  0  0  0  0  0  0  0  0  0  0
   -0.3340   -2.2059    0.7756 C   0  0  0  0  0  0  0  0  0  0  0  0
   -3.6481    0.6694   -1.1103 C   0  0  0  0  0  0  0  0  0  0  0  0
   -4.4133   -0.7368    0.8197 C   0  0  0  0  0  0  0  0  0  0  0  0
   -4.8673    1.5676   -0.8862 C   0  0  0  0  0  0  0  0  0  0  0  0
   -5.6075    0.2075    0.9810 C   0  0  0  0  0  0  0  0  0  0  0  0
    1.5306   -0.7403   -0.2147 C   0  0  0  0  0  0  0  0  0  0  0  0
   -7.1568    1.6694   -0.1440 C   0  0  0  0  0  0  0  0  0  0  0  0
    3.2571    0.3017    0.4037 C   0  0  0  0  0  0  0  0  0  0  0  0
    3.5847   -0.4180   -0.7359 C   0  0  0  0  0  0  0  0  0  0  0  0
    4.2441    1.0868    1.0166 C   0  0  0  0  0  0  0  0  0  0  0  0
    4.8387   -0.4255   -1.3343 C   0  0  0  0  0  0  0  0  0  0  0  0
    5.5230    1.1047    0.4414 C   0  0  0  0  0  0  0  0  0  0  0  0
    5.8118    0.3628   -0.7105 C   0  0  0  0  0  0  0  0  0  0  0  0
    6.5960    1.9312    1.0709 C   0  0  0  0  0  0  0  0  0  0  0  0
   -2.8956    0.7743    0.8933 H   0  0  0  0  0  0  0  0  0  0  0  0
    0.1896   -1.9913   -1.2914 H   0  0  0  0  0  0  0  0  0  0  0  0
   -0.6985    0.6373   -0.0672 H   0  0  0  0  0  0  0  0  0  0  0  0
   -1.0491   -0.0645   -1.6652 H   0  0  0  0  0  0  0  0  0  0  0  0
   -1.4854   -0.8456    1.9919 H   0  0  0  0  0  0  0  0  0  0  0  0
   -2.3362   -2.3544    1.5635 H   0  0  0  0  0  0  0  0  0  0  0  0
   -0.4954   -3.2352    0.4313 H   0  0  0  0  0  0  0  0  0  0  0  0
    0.3717   -2.2422    1.6123 H   0  0  0  0  0  0  0  0  0  0  0  0
   -2.8444    1.2941   -1.5166 H   0  0  0  0  0  0  0  0  0  0  0  0
   -3.8876   -0.0844   -1.8725 H   0  0  0  0  0  0  0  0  0  0  0  0
   -4.7090   -1.5929    0.1982 H   0  0  0  0  0  0  0  0  0  0  0  0
   -4.1683   -1.1286    1.8134 H   0  0  0  0  0  0  0  0  0  0  0  0
   -5.1669    1.9838   -1.8558 H   0  0  0  0  0  0  0  0  0  0  0  0
   -4.5898    2.4118   -0.2411 H   0  0  0  0  0  0  0  0  0  0  0  0
   -5.3675    0.9828    1.7207 H   0  0  0  0  0  0  0  0  0  0  0  0
   -6.4493   -0.3723    1.3789 H   0  0  0  0  0  0  0  0  0  0  0  0
   -8.0058    1.0940    0.2415 H   0  0  0  0  0  0  0  0  0  0  0  0
   -6.9671    2.5048    0.5397 H   0  0  0  0  0  0  0  0  0  0  0  0
   -7.4696    2.0791   -1.1109 H   0  0  0  0  0  0  0  0  0  0  0  0
    4.0175    1.6625    1.9084 H   0  0  0  0  0  0  0  0  0  0  0  0
    5.0515   -1.0024   -2.2255 H   0  0  0  0  0  0  0  0  0  0  0  0
    6.8107    0.3930   -1.1411 H   0  0  0  0  0  0  0  0  0  0  0  0
    7.5764    1.4562    0.9566 H   0  0  0  0  0  0  0  0  0  0  0  0
    6.4238    2.0544    2.1456 H   0  0  0  0  0  0  0  0  0  0  0  0
    6.6278    2.9216    0.6061 H   0  0  0  0  0  0  0  0  0  0  0  0
  1 14  1  0  0  0  0
  1 17  1  0  0  0  0
  2  5  1  0  0  0  0
  2  7  1  0  0  0  0
  2  8  1  0  0  0  0
  3 12  1  0  0  0  0
  3 13  1  0  0  0  0
  3 15  1  0  0  0  0
  4 14  2  0  0  0  0
  4 16  1  0  0  0  0
  5 10  1  0  0  0  0
  5 11  1  0  0  0  0
  5 23  1  0  0  0  0
  6  7  1  0  0  0  0
  6  9  1  0  0  0  0
  6 14  1  0  0  0  0
  6 24  1  0  0  0  0
  7 25  1  0  0  0  0
  7 26  1  0  0  0  0
  8  9  1  0  0  0  0
  8 27  1  0  0  0  0
  8 28  1  0  0  0  0
  9 29  1  0  0  0  0
  9 30  1  0  0  0  0
 10 12  1  0  0  0  0
 10 31  1  0  0  0  0
 10 32  1  0  0  0  0
 11 13  1  0  0  0  0
 11 33  1  0  0  0  0
 11 34  1  0  0  0  0
 12 35  1  0  0  0  0
 12 36  1  0  0  0  0
 13 37  1  0  0  0  0
 13 38  1  0  0  0  0
 15 39  1  0  0  0  0
 15 40  1  0  0  0  0
 15 41  1  0  0  0  0
 16 17  2  0  0  0  0
 16 18  1  0  0  0  0
 17 19  1  0  0  0  0
 18 20  2  0  0  0  0
 18 42  1  0  0  0  0
 19 21  2  0  0  0  0
 19 43  1  0  0  0  0
 20 21  1  0  0  0  0
 20 22  1  0  0  0  0
 21 44  1  0  0  0  0
 22 45  1  0  0  0  0
 22 46  1  0  0  0  0
 22 47  1  0  0  0  0
M  END
> <PUBCHEM_COMPOUND_CID>
45784194

> <PUBCHEM_CONFORMER_RMSD>
0.6

> <PUBCHEM_CONFORMER_DIVERSEORDER>
1
86
62
92
52
94
85
20
68
51
84
29
17
64
83
46
76
60
57
91
39
32
81
48
31
78
82
53
89
26
47
7
69
73
9
66
88
55
13
75
54
90
22
56
41
6
72
80
11
40
79
87
45
30
19
58
77
10
67
38
15
93
12
74
71
59
8
21
16
28
27
18
65
63
50
34
25
33
70
44
49
61
42
5
37
24
2
36
4
23
43
3
14
35

> <PUBCHEM_MMFF94_PARTIAL_CHARGES>
22
1 -0.28
12 0.27
13 0.27
14 0.3
15 0.27
16 0.23
17 0.14
18 -0.15
19 -0.15
2 -0.81
20 -0.14
21 -0.15
22 0.14
3 -0.81
4 -0.57
42 0.15
43 0.15
44 0.15
5 0.27
6 0.18
7 0.27
8 0.27

> <PUBCHEM_EFFECTIVE_ROTOR_COUNT>
4.2

> <PUBCHEM_PHARMACOPHORE_FEATURES>
6
1 2 cation
1 3 cation
5 1 4 14 16 17 rings
5 2 6 7 8 9 rings
6 16 17 18 19 20 21 rings
6 3 5 10 11 12 13 rings

> <PUBCHEM_HEAVY_ATOM_COUNT>
22

> <PUBCHEM_ATOM_DEF_STEREO_COUNT>
1

> <PUBCHEM_ATOM_UDEF_STEREO_COUNT>
0

> <PUBCHEM_BOND_DEF_STEREO_COUNT>
0

> <PUBCHEM_BOND_UDEF_STEREO_COUNT>
0

> <PUBCHEM_ISOTOPIC_ATOM_COUNT>
0

> <PUBCHEM_COMPONENT_COUNT>
1

> <PUBCHEM_CACTVS_TAUTO_COUNT>
1

> <PUBCHEM_CONFORMER_ID>
02BA9C8200000001

> <PUBCHEM_MMFF94_ENERGY>
33.1156

> <PUBCHEM_FEATURE_SELFOVERLAP>
30.567

> <PUBCHEM_SHAPE_FINGERPRINT>
10 15 17676492769297462029
10354089 29 16298391253599905558
10692045 39 17968926488693412202
11646440 116 18410022035010818889
12236239 1 16008752432722320070
12403259 415 18411427214865156507
12596602 18 15357701898465491293
12616971 3 15430036590866231286
12633257 1 14707214322360985459
12730499 353 18343590620217783462
12778500 126 18187071842428517808
12838862 33 17749097878347435925
12969540 114 18201711851761680327
13288520 33 11095883766168322707
13402501 40 18411134744688083872
13533116 47 18262235504737825834
13668630 136 9511455628858768557
13673619 4 11312051055008658419
13685833 64 8358254852376798613
13862211 1 11312055435416065717
14123256 34 10519983790121815525
14251764 18 15936416658648983715
14341114 176 13190341275111035894
14341114 328 16153431636140701097
14528608 73 16702299065960601468
14556957 393 15554459521298687913
14681490 219 17561362859667036505
15003188 100 18060131089369446761
15183329 4 15769777944270260701
15238133 3 17749392585511613388
15716309 27 12973604439179135249
16079462 125 18343017822230873816
17870717 6 12031789167495559909
18222031 100 11312056560803219394
193927 3 10231750119756581143
200 152 15698006240483032938
20157964 124 17846782897246310990
20281389 69 18333447629635422313
20374829 77 11600004340975769535
20645477 56 18408887351800617927
20645477 70 17561094588031456910
21033648 29 18340198695791957032
21150785 3 16487251093080030021
220451 1 14273746169794280818
221357 26 17418094286869996800
22224240 67 18040715866608302011
23198884 109 16917068854643023357
23402655 69 17274822476052595006
23522609 53 7996847708284381670
23559900 14 18261404312892057358
249999 5 17969217837330808067
2838139 119 18272362053541175613
2916195 48 18410572907177963467
293599 30 18407478855729997335
29717793 49 15410624670702854956
3004659 81 12895350006006969106
314173 85 9943807794118734751
3663271 9 15430043174892807949
4340502 62 16226047777743047792
465052 167 11386367032759858168
5104073 3 17677335979595589521
5385378 56 18041841701368345379
543368 44 18131349701076337617
59682541 35 18186813483145291553
59682541 52 17274831207757869134
5969126 39 18195806504434218487
59755656 520 18187359939295972791

> <PUBCHEM_SHAPE_MULTIPOLES>
431.94
18.04
1.78
1.22
4.6
0.09
-0.02
-12.53
0.87
0.45
0.33
-0.58
0
2.06

> <PUBCHEM_SHAPE_SELFOVERLAP>
927.504

> <PUBCHEM_SHAPE_VOLUME>
241.9

> <PUBCHEM_COORDINATE_TYPE>
2
5
10

$$$$
