40779167
  -OEChem-12032416163D

 55 58  0     1  0  0  0  0  0999 V2000
   -5.3770    0.5359    0.9495 O   0  0  0  0  0  0  0  0  0  0  0  0
   -6.1842    2.8560   -0.1520 O   0  0  0  0  0  0  0  0  0  0  0  0
   -1.9840   -2.5605    0.6771 N   0  0  2  0  0  0  0  0  0  0  0  0
    2.7384   -2.0388    0.4051 N   0  0  0  0  0  0  0  0  0  0  0  0
   -3.1286    1.0190    0.5920 N   0  0  0  0  0  0  0  0  0  0  0  0
    3.7189   -1.1255    0.5084 N   0  0  0  0  0  0  0  0  0  0  0  0
   -0.6266   -2.0235   -1.4797 C   0  0  2  0  0  0  0  0  0  0  0  0
    0.3304   -2.3941   -0.3131 C   0  0  2  0  0  0  0  0  0  0  0  0
   -2.4378   -1.2679    0.0996 C   0  0  2  0  0  0  0  0  0  0  0  0
   -1.5106   -0.8319   -1.0552 C   0  0  0  0  0  0  0  0  0  0  0  0
   -1.5640   -3.2323   -1.6878 C   0  0  0  0  0  0  0  0  0  0  0  0
   -0.5316   -2.5013    0.9772 C   0  0  0  0  0  0  0  0  0  0  0  0
   -2.2033   -3.6152   -0.3416 C   0  0  0  0  0  0  0  0  0  0  0  0
    1.5753   -1.5431   -0.1068 C   0  0  0  0  0  0  0  0  0  0  0  0
   -2.5810   -0.1741    1.1600 C   0  0  0  0  0  0  0  0  0  0  0  0
    1.8112   -0.2131   -0.3552 C   0  0  0  0  0  0  0  0  0  0  0  0
    3.1466   -0.0123    0.0423 C   0  0  0  0  0  0  0  0  0  0  0  0
    2.9918   -3.3969    0.8273 C   0  0  0  0  0  0  0  0  0  0  0  0
   -4.4960    1.2821    0.5311 C   0  0  0  0  0  0  0  0  0  0  0  0
    3.8851    1.2224   -0.0129 C   0  0  0  0  0  0  0  0  0  0  0  0
   -4.7933    2.6164   -0.1192 C   0  0  0  0  0  0  0  0  0  0  0  0
    3.2177    2.4400    0.1199 C   0  0  0  0  0  0  0  0  0  0  0  0
    5.2673    1.2015   -0.1992 C   0  0  0  0  0  0  0  0  0  0  0  0
    3.9323    3.6367    0.0661 C   0  0  0  0  0  0  0  0  0  0  0  0
    5.9819    2.3980   -0.2529 C   0  0  0  0  0  0  0  0  0  0  0  0
    5.3145    3.6157   -0.1203 C   0  0  0  0  0  0  0  0  0  0  0  0
   -6.4936    4.1069   -0.7597 C   0  0  0  0  0  0  0  0  0  0  0  0
   -0.0746   -1.7932   -2.3971 H   0  0  0  0  0  0  0  0  0  0  0  0
    0.6953   -3.4054   -0.5478 H   0  0  0  0  0  0  0  0  0  0  0  0
   -3.4442   -1.4256   -0.3163 H   0  0  0  0  0  0  0  0  0  0  0  0
   -0.9041    0.0304   -0.7755 H   0  0  0  0  0  0  0  0  0  0  0  0
   -2.1246   -0.5163   -1.9085 H   0  0  0  0  0  0  0  0  0  0  0  0
   -1.0059   -4.0853   -2.0910 H   0  0  0  0  0  0  0  0  0  0  0  0
   -2.3419   -2.9793   -2.4183 H   0  0  0  0  0  0  0  0  0  0  0  0
   -0.2481   -3.4104    1.5239 H   0  0  0  0  0  0  0  0  0  0  0  0
   -0.3196   -1.6815    1.6733 H   0  0  0  0  0  0  0  0  0  0  0  0
   -3.2781   -3.7891   -0.4756 H   0  0  0  0  0  0  0  0  0  0  0  0
   -1.7941   -4.5685    0.0164 H   0  0  0  0  0  0  0  0  0  0  0  0
   -1.6168    0.1004    1.5994 H   0  0  0  0  0  0  0  0  0  0  0  0
   -3.2340   -0.5155    1.9715 H   0  0  0  0  0  0  0  0  0  0  0  0
    1.1328    0.5105   -0.7792 H   0  0  0  0  0  0  0  0  0  0  0  0
   -2.4814    1.7043    0.2125 H   0  0  0  0  0  0  0  0  0  0  0  0
    2.9577   -4.0443   -0.0522 H   0  0  0  0  0  0  0  0  0  0  0  0
    3.9813   -3.4555    1.2892 H   0  0  0  0  0  0  0  0  0  0  0  0
    2.2331   -3.6866    1.5574 H   0  0  0  0  0  0  0  0  0  0  0  0
   -4.2921    3.4024    0.4576 H   0  0  0  0  0  0  0  0  0  0  0  0
   -4.3922    2.6006   -1.1393 H   0  0  0  0  0  0  0  0  0  0  0  0
    2.1430    2.4892    0.2768 H   0  0  0  0  0  0  0  0  0  0  0  0
    5.8144    0.2689   -0.3143 H   0  0  0  0  0  0  0  0  0  0  0  0
    3.4132    4.5849    0.1717 H   0  0  0  0  0  0  0  0  0  0  0  0
    7.0580    2.3822   -0.3998 H   0  0  0  0  0  0  0  0  0  0  0  0
    5.8711    4.5474   -0.1620 H   0  0  0  0  0  0  0  0  0  0  0  0
   -7.5796    4.2319   -0.7545 H   0  0  0  0  0  0  0  0  0  0  0  0
   -6.1433    4.1248   -1.7962 H   0  0  0  0  0  0  0  0  0  0  0  0
   -6.0431    4.9281   -0.1940 H   0  0  0  0  0  0  0  0  0  0  0  0
  1 19  2  0  0  0  0
  2 21  1  0  0  0  0
  2 27  1  0  0  0  0
  3  9  1  0  0  0  0
  3 12  1  0  0  0  0
  3 13  1  0  0  0  0
  4  6  1  0  0  0  0
  4 14  1  0  0  0  0
  4 18  1  0  0  0  0
  5 15  1  0  0  0  0
  5 19  1  0  0  0  0
  5 42  1  0  0  0  0
  6 17  2  0  0  0  0
  7  8  1  0  0  0  0
  7 10  1  0  0  0  0
  7 11  1  0  0  0  0
  7 28  1  0  0  0  0
  8 12  1  0  0  0  0
  8 14  1  0  0  0  0
  8 29  1  0  0  0  0
  9 10  1  0  0  0  0
  9 15  1  0  0  0  0
  9 30  1  0  0  0  0
 10 31  1  0  0  0  0
 10 32  1  0  0  0  0
 11 13  1  0  0  0  0
 11 33  1  0  0  0  0
 11 34  1  0  0  0  0
 12 35  1  0  0  0  0
 12 36  1  0  0  0  0
 13 37  1  0  0  0  0
 13 38  1  0  0  0  0
 14 16  2  0  0  0  0
 15 39  1  0  0  0  0
 15 40  1  0  0  0  0
 16 17  1  0  0  0  0
 16 41  1  0  0  0  0
 17 20  1  0  0  0  0
 18 43  1  0  0  0  0
 18 44  1  0  0  0  0
 18 45  1  0  0  0  0
 19 21  1  0  0  0  0
 20 22  2  0  0  0  0
 20 23  1  0  0  0  0
 21 46  1  0  0  0  0
 21 47  1  0  0  0  0
 22 24  1  0  0  0  0
 22 48  1  0  0  0  0
 23 25  2  0  0  0  0
 23 49  1  0  0  0  0
 24 26  2  0  0  0  0
 24 50  1  0  0  0  0
 25 26  1  0  0  0  0
 25 51  1  0  0  0  0
 26 52  1  0  0  0  0
 27 53  1  0  0  0  0
 27 54  1  0  0  0  0
 27 55  1  0  0  0  0
M  END
> <PUBCHEM_COMPOUND_CID>
40779167

> <PUBCHEM_CONFORMER_RMSD>
1

> <PUBCHEM_CONFORMER_DIVERSEORDER>
1
17
14
9
19
5
2
20
18
8
3
12
7
13
6
15
10
11
16
22
21
4
23
24

> <PUBCHEM_MMFF94_PARTIAL_CHARGES>
31
1 -0.57
12 0.27
13 0.27
14 -0.33
15 0.3
16 -0.15
17 0.23
18 0.26
19 0.57
2 -0.56
20 0.05
21 0.34
22 -0.15
23 -0.15
24 -0.15
25 -0.15
26 -0.15
27 0.28
3 -0.81
4 0.31
41 0.15
42 0.37
48 0.15
49 0.15
5 -0.73
50 0.15
51 0.15
52 0.15
6 -0.71
8 0.18
9 0.27

> <PUBCHEM_EFFECTIVE_ROTOR_COUNT>
8.2

> <PUBCHEM_PHARMACOPHORE_FEATURES>
8
1 1 acceptor
1 2 acceptor
1 3 cation
1 5 donor
1 6 acceptor
5 4 6 14 16 17 rings
6 20 22 23 24 25 26 rings
8 3 7 8 9 10 11 12 13 rings

> <PUBCHEM_HEAVY_ATOM_COUNT>
27

> <PUBCHEM_ATOM_DEF_STEREO_COUNT>
3

> <PUBCHEM_ATOM_UDEF_STEREO_COUNT>
0

> <PUBCHEM_BOND_DEF_STEREO_COUNT>
0

> <PUBCHEM_BOND_UDEF_STEREO_COUNT>
0

> <PUBCHEM_ISOTOPIC_ATOM_COUNT>
0

> <PUBCHEM_COMPONENT_COUNT>
1

> <PUBCHEM_CACTVS_TAUTO_COUNT>
2

> <PUBCHEM_CONFORMER_ID>
026E3D9F00000001

> <PUBCHEM_MMFF94_ENERGY>
64.2465

> <PUBCHEM_FEATURE_SELFOVERLAP>
40.604

> <PUBCHEM_SHAPE_FINGERPRINT>
10673678 19 18268432339782688681
10871710 139 18125723645325284503
11135609 127 18122053214431899589
11479125 193 18119502411484492965
11621639 179 18043814169763136236
12107183 9 18409440363811575082
12788726 201 17986660674825671143
12925494 130 18408882962222865169
13540713 5 18339342141938244366
13878862 14 18117260485372703341
13965767 371 17968090911173882590
14117953 113 18197213651119489572
14142880 1 18263640843532288447
14142895 15 18339638925228210317
14223995 32 18341885347099334536
14251764 30 9727340338984188301
14251764 75 18342188738861250169
14790565 3 18120097440706402500
15979999 66 17335344831516328527
16120349 189 18335138700379147557
19304152 47 18044107966547383672
20715895 44 18339638923882498937
21033648 29 16588302719022767421
21388113 180 18337391526843250301
21475661 188 18335983047999374075
21585482 57 18410001132143493837
21864079 5 18267024032569095586
22122407 14 18193285091963231825
23227448 37 18341055219539420867
23569914 2 17200194275448657080
283562 15 17976250558531042154
2838139 119 18410855451870595223
3388396 114 17044852184125336141
376196 1 18263646174077215675
474 4 18127129676416824035
5104073 3 18114736161868976922
6036956 94 17830456446602051597
6327066 14 18411699881127817285
636775 72 17620756524507942752
6371009 1 18126556826163060673
7288768 16 17895475933175481610
7808743 9 18341050825608425304
7970288 3 9908340289275229389

> <PUBCHEM_SHAPE_MULTIPOLES>
523.98
13.96
6.01
1.07
3.9
2.07
0.18
22.4
-0.09
2.81
0.79
0.74
-0.66
-0.47

> <PUBCHEM_SHAPE_SELFOVERLAP>
1117.928

> <PUBCHEM_SHAPE_VOLUME>
288.7

> <PUBCHEM_COORDINATE_TYPE>
2
5
10

$$$$
