45783477
  -OEChem-12032416403D

 53 56  0     1  0  0  0  0  0999 V2000
   -2.5768   -1.2102    2.4368 F   0  0  0  0  0  0  0  0  0  0  0  0
   -2.1578    0.6257   -2.0914 O   0  0  0  0  0  0  0  0  0  0  0  0
    7.6289   -0.7812    0.7853 O   0  0  0  0  0  0  0  0  0  0  0  0
   -4.0672    0.7316    0.8567 N   0  0  1  0  0  0  0  0  0  0  0  0
   -1.1389    1.2006   -0.1814 N   0  0  0  0  0  0  0  0  0  0  0  0
   -0.7935    0.3761   -2.2872 N   0  0  0  0  0  0  0  0  0  0  0  0
    3.3646    0.0821   -1.6271 N   0  0  0  0  0  0  0  0  0  0  0  0
    5.2278    0.3821   -0.1732 N   0  0  0  0  0  0  0  0  0  0  0  0
   -3.6727    1.4610   -0.3649 C   0  0  1  0  0  0  0  0  0  0  0  0
   -3.8206    2.9490    0.0031 C   0  0  0  0  0  0  0  0  0  0  0  0
   -4.3603    2.9550    1.4262 C   0  0  0  0  0  0  0  0  0  0  0  0
   -5.0122    1.5942    1.5663 C   0  0  0  0  0  0  0  0  0  0  0  0
   -4.6264   -0.5862    0.5836 C   0  0  0  0  0  0  0  0  0  0  0  0
   -2.2741    1.1093   -0.8269 C   0  0  0  0  0  0  0  0  0  0  0  0
   -3.5524   -1.6050    0.3090 C   0  0  0  0  0  0  0  0  0  0  0  0
   -2.5719   -1.8638    1.2667 C   0  0  0  0  0  0  0  0  0  0  0  0
   -3.5393   -2.2907   -0.9055 C   0  0  0  0  0  0  0  0  0  0  0  0
   -0.2596    0.7398   -1.1174 C   0  0  0  0  0  0  0  0  0  0  0  0
   -1.5783   -2.8083    1.0099 C   0  0  0  0  0  0  0  0  0  0  0  0
   -2.5455   -3.2353   -1.1625 C   0  0  0  0  0  0  0  0  0  0  0  0
    1.1476    0.6565   -0.8525 C   0  0  0  0  0  0  0  0  0  0  0  0
   -1.5649   -3.4941   -0.2047 C   0  0  0  0  0  0  0  0  0  0  0  0
    1.6698    1.0451    0.3763 C   0  0  0  0  0  0  0  0  0  0  0  0
    2.0294    0.1860   -1.8121 C   0  0  0  0  0  0  0  0  0  0  0  0
    3.0384    0.9528    0.6044 C   0  0  0  0  0  0  0  0  0  0  0  0
    3.8356    0.4692   -0.4204 C   0  0  0  0  0  0  0  0  0  0  0  0
    5.8155    0.7683    1.0682 C   0  0  0  0  0  0  0  0  0  0  0  0
    7.3230    0.5896    1.0076 C   0  0  0  0  0  0  0  0  0  0  0  0
    9.0317   -0.9992    0.7271 C   0  0  0  0  0  0  0  0  0  0  0  0
   -4.3759    1.2564   -1.1846 H   0  0  0  0  0  0  0  0  0  0  0  0
   -2.8875    3.5191   -0.0619 H   0  0  0  0  0  0  0  0  0  0  0  0
   -4.5493    3.4227   -0.6661 H   0  0  0  0  0  0  0  0  0  0  0  0
   -5.0619    3.7764    1.5993 H   0  0  0  0  0  0  0  0  0  0  0  0
   -3.5321    3.0577    2.1383 H   0  0  0  0  0  0  0  0  0  0  0  0
   -6.0005    1.5947    1.0893 H   0  0  0  0  0  0  0  0  0  0  0  0
   -5.1233    1.3079    2.6167 H   0  0  0  0  0  0  0  0  0  0  0  0
   -5.3676   -0.5533   -0.2256 H   0  0  0  0  0  0  0  0  0  0  0  0
   -5.1711   -0.9504    1.4661 H   0  0  0  0  0  0  0  0  0  0  0  0
   -4.2953   -2.0979   -1.6619 H   0  0  0  0  0  0  0  0  0  0  0  0
   -0.8144   -3.0088    1.7553 H   0  0  0  0  0  0  0  0  0  0  0  0
   -2.5343   -3.7682   -2.1087 H   0  0  0  0  0  0  0  0  0  0  0  0
   -0.7905   -4.2287   -0.4051 H   0  0  0  0  0  0  0  0  0  0  0  0
    1.0339    1.4223    1.1732 H   0  0  0  0  0  0  0  0  0  0  0  0
    1.7029   -0.1374   -2.7960 H   0  0  0  0  0  0  0  0  0  0  0  0
    3.4115    1.2624    1.5734 H   0  0  0  0  0  0  0  0  0  0  0  0
    5.7995    0.0235   -0.9294 H   0  0  0  0  0  0  0  0  0  0  0  0
    5.6063    1.8204    1.2938 H   0  0  0  0  0  0  0  0  0  0  0  0
    5.4251    0.1423    1.8798 H   0  0  0  0  0  0  0  0  0  0  0  0
    7.7451    1.1946    0.1958 H   0  0  0  0  0  0  0  0  0  0  0  0
    7.7676    0.9141    1.9555 H   0  0  0  0  0  0  0  0  0  0  0  0
    9.4736   -0.4356   -0.1003 H   0  0  0  0  0  0  0  0  0  0  0  0
    9.5040   -0.7147    1.6724 H   0  0  0  0  0  0  0  0  0  0  0  0
    9.2076   -2.0646    0.5563 H   0  0  0  0  0  0  0  0  0  0  0  0
  1 16  1  0  0  0  0
  2  6  1  0  0  0  0
  2 14  1  0  0  0  0
  3 28  1  0  0  0  0
  3 29  1  0  0  0  0
  4  9  1  0  0  0  0
  4 12  1  0  0  0  0
  4 13  1  0  0  0  0
  5 14  2  0  0  0  0
  5 18  1  0  0  0  0
  6 18  2  0  0  0  0
  7 24  1  0  0  0  0
  7 26  2  0  0  0  0
  8 26  1  0  0  0  0
  8 27  1  0  0  0  0
  8 46  1  0  0  0  0
  9 10  1  0  0  0  0
  9 14  1  0  0  0  0
  9 30  1  0  0  0  0
 10 11  1  0  0  0  0
 10 31  1  0  0  0  0
 10 32  1  0  0  0  0
 11 12  1  0  0  0  0
 11 33  1  0  0  0  0
 11 34  1  0  0  0  0
 12 35  1  0  0  0  0
 12 36  1  0  0  0  0
 13 15  1  0  0  0  0
 13 37  1  0  0  0  0
 13 38  1  0  0  0  0
 15 16  1  0  0  0  0
 15 17  2  0  0  0  0
 16 19  2  0  0  0  0
 17 20  1  0  0  0  0
 17 39  1  0  0  0  0
 18 21  1  0  0  0  0
 19 22  1  0  0  0  0
 19 40  1  0  0  0  0
 20 22  2  0  0  0  0
 20 41  1  0  0  0  0
 21 23  1  0  0  0  0
 21 24  2  0  0  0  0
 22 42  1  0  0  0  0
 23 25  2  0  0  0  0
 23 43  1  0  0  0  0
 24 44  1  0  0  0  0
 25 26  1  0  0  0  0
 25 45  1  0  0  0  0
 27 28  1  0  0  0  0
 27 47  1  0  0  0  0
 27 48  1  0  0  0  0
 28 49  1  0  0  0  0
 28 50  1  0  0  0  0
 29 51  1  0  0  0  0
 29 52  1  0  0  0  0
 29 53  1  0  0  0  0
M  END
> <PUBCHEM_COMPOUND_CID>
45783477

> <PUBCHEM_CONFORMER_RMSD>
1

> <PUBCHEM_CONFORMER_DIVERSEORDER>
1
94
101
17
68
93
97
120
87
65
45
75
143
82
32
129
142
60
14
61
23
53
69
145
125
110
36
25
102
146
147
99
38
30
11
47
48
144
123
51
58
131
122
28
18
140
81
100
119
37
12
78
132
84
141
63
86
96
49
5
105
126
91
21
138
42
88
79
54
31
130
50
134
2
46
16
41
136
40
114
34
74
117
4
35
85
33
56
72
67
137
52
64
98
13
20
80
92
127
90
77
22
104
115
3
135
19
124
43
73
113
27
15
89
95
76
128
26
139
133
107
116
121
39
103
83
8
55
118
71
108
66
44
10
62
57
7
59
6
111
29
106
112
109
70
9
24

> <PUBCHEM_MMFF94_PARTIAL_CHARGES>
35
1 -0.19
12 0.27
13 0.41
14 0.3
15 -0.14
16 0.19
17 -0.15
18 0.46
19 -0.15
2 -0.02
20 -0.15
21 0.05
22 -0.15
23 -0.15
24 0.16
25 -0.15
26 0.41
27 0.37
28 0.28
29 0.28
3 -0.56
39 0.15
4 -0.81
40 0.15
41 0.15
42 0.15
43 0.15
44 0.15
45 0.15
46 0.4
5 -0.57
6 -0.41
7 -0.62
8 -0.87
9 0.45

> <PUBCHEM_EFFECTIVE_ROTOR_COUNT>
9

> <PUBCHEM_PHARMACOPHORE_FEATURES>
9
1 3 acceptor
1 4 cation
1 8 donor
3 5 6 18 cation
3 7 8 26 cation
5 2 5 6 14 18 rings
5 4 9 10 11 12 rings
6 15 16 17 19 20 22 rings
6 7 21 23 24 25 26 rings

> <PUBCHEM_HEAVY_ATOM_COUNT>
29

> <PUBCHEM_ATOM_DEF_STEREO_COUNT>
1

> <PUBCHEM_ATOM_UDEF_STEREO_COUNT>
0

> <PUBCHEM_BOND_DEF_STEREO_COUNT>
0

> <PUBCHEM_BOND_UDEF_STEREO_COUNT>
0

> <PUBCHEM_ISOTOPIC_ATOM_COUNT>
0

> <PUBCHEM_COMPONENT_COUNT>
1

> <PUBCHEM_CACTVS_TAUTO_COUNT>
8

> <PUBCHEM_CONFORMER_ID>
02BA99B500000001

> <PUBCHEM_MMFF94_ENERGY>
64.7802

> <PUBCHEM_FEATURE_SELFOVERLAP>
45.672

> <PUBCHEM_SHAPE_FINGERPRINT>
10 15 17704068521708171856
10319926 262 18343590646577762060
11135926 11 16153416230910714938
11315181 36 18409162251203458564
11524674 6 18342735213356910622
12422481 6 17822857455100370066
12616971 3 17095529504605265668
12633257 1 17843145807334004353
13004483 165 17840028769474511463
13583140 156 17346320443998657335
13994607 96 13326585089756223991
14844126 61 18339361980576313939
14856354 85 18410294739811562860
15021287 119 17240768380579735900
15183329 4 16732978735507057610
15348495 7 18272927267807486488
15352257 5 18260544499431603394
17780758 139 18409164437083264720
17913733 40 17060342933709618574
18927931 339 16153423935201230860
20554085 129 18269261371486793521
21033648 29 18129679495210546385
21756936 100 18201715116058397485
23522609 53 17970372432700106372
23559900 14 18127155012006553700
23728640 28 18336841895857298219
335507 130 17167584883104362780
3383291 50 18336553815142233075
397830 11 18269823376810809656
4073 2 18343016701850960366
4169191 19 14045162148546145146
469060 322 13542191653673496711
484985 159 18189321511285023647
5265222 85 18050044122572864374
5364581 5 18127967723194421704
58260988 114 16805619100350329145
602551 16 18337399326075857972
68570916 9 18262236733757757780
9953998 17 18334851736887607640

> <PUBCHEM_SHAPE_MULTIPOLES>
552.89
16.81
3.35
1.82
49.01
1.99
0.28
-1.49
-8.33
-6.4
-0.54
-0.72
0.01
-0.77

> <PUBCHEM_SHAPE_SELFOVERLAP>
1186.656

> <PUBCHEM_SHAPE_VOLUME>
308.4

> <PUBCHEM_COORDINATE_TYPE>
2
5
10

$$$$
