51137032
  -OEChem-12032416223D

 46 49  0     1  0  0  0  0  0999 V2000
   -5.2203   -1.3979   -0.1493 S   0  0  0  0  0  0  0  0  0  0  0  0
   -0.9524    2.5020   -0.8946 O   0  0  0  0  0  0  0  0  0  0  0  0
    3.9429   -0.2904    2.5182 O   0  0  0  0  0  0  0  0  0  0  0  0
   -6.3325   -1.1146   -1.0445 O   0  0  0  0  0  0  0  0  0  0  0  0
   -4.5804   -2.7043   -0.1785 O   0  0  0  0  0  0  0  0  0  0  0  0
    2.9663    1.0252    0.8721 N   0  0  0  0  0  0  0  0  0  0  0  0
   -0.3228    0.4984   -0.0423 N   0  0  0  0  0  0  0  0  0  0  0  0
    5.1812   -0.3409   -0.5437 N   0  0  0  0  0  0  0  0  0  0  0  0
    1.4379    2.3077   -0.4250 C   0  0  1  0  0  0  0  0  0  0  0  0
    1.7337    3.0369    0.8948 C   0  0  0  0  0  0  0  0  0  0  0  0
    2.6154    1.3268   -0.5166 C   0  0  0  0  0  0  0  0  0  0  0  0
    2.3209    1.9527    1.7882 C   0  0  0  0  0  0  0  0  0  0  0  0
    0.0459    1.6997   -0.4295 C   0  0  0  0  0  0  0  0  0  0  0  0
    3.7337   -0.0326    1.3344 C   0  0  0  0  0  0  0  0  0  0  0  0
   -1.6784    0.4961   -0.2663 C   0  0  0  0  0  0  0  0  0  0  0  0
   -2.0674    1.7210   -0.7881 C   0  0  0  0  0  0  0  0  0  0  0  0
   -2.6514   -0.4920   -0.0590 C   0  0  0  0  0  0  0  0  0  0  0  0
    4.3334   -0.9264    0.3316 C   0  0  0  0  0  0  0  0  0  0  0  0
   -3.9795   -0.1890   -0.3924 C   0  0  0  0  0  0  0  0  0  0  0  0
   -3.3712    2.0577   -1.1301 C   0  0  0  0  0  0  0  0  0  0  0  0
   -4.3297    1.0611   -0.9171 C   0  0  0  0  0  0  0  0  0  0  0  0
   -5.7986   -1.1067    1.5064 C   0  0  0  0  0  0  0  0  0  0  0  0
    4.0194   -2.2760    0.3228 C   0  0  0  0  0  0  0  0  0  0  0  0
   -6.8923   -2.0780    1.8908 C   0  0  0  0  0  0  0  0  0  0  0  0
    4.6142   -3.0760   -0.6465 C   0  0  0  0  0  0  0  0  0  0  0  0
    5.7399   -1.1502   -1.4714 C   0  0  0  0  0  0  0  0  0  0  0  0
    5.4921   -2.5102   -1.5643 C   0  0  0  0  0  0  0  0  0  0  0  0
    1.4822    3.0093   -1.2674 H   0  0  0  0  0  0  0  0  0  0  0  0
    2.4934    3.8089    0.7176 H   0  0  0  0  0  0  0  0  0  0  0  0
    0.8617    3.5194    1.3471 H   0  0  0  0  0  0  0  0  0  0  0  0
    2.3813    0.4129   -1.0707 H   0  0  0  0  0  0  0  0  0  0  0  0
    3.4865    1.8116   -0.9716 H   0  0  0  0  0  0  0  0  0  0  0  0
    3.0419    2.3397    2.5146 H   0  0  0  0  0  0  0  0  0  0  0  0
    1.5399    1.4051    2.3272 H   0  0  0  0  0  0  0  0  0  0  0  0
   -2.3683   -1.4540    0.3544 H   0  0  0  0  0  0  0  0  0  0  0  0
   -3.6316    3.0282   -1.5337 H   0  0  0  0  0  0  0  0  0  0  0  0
   -5.3640    1.2875   -1.1656 H   0  0  0  0  0  0  0  0  0  0  0  0
   -6.1696   -0.0785    1.5542 H   0  0  0  0  0  0  0  0  0  0  0  0
   -4.9435   -1.2108    2.1810 H   0  0  0  0  0  0  0  0  0  0  0  0
    3.3313   -2.7068    1.0424 H   0  0  0  0  0  0  0  0  0  0  0  0
   -7.2316   -1.8836    2.9129 H   0  0  0  0  0  0  0  0  0  0  0  0
   -6.5385   -3.1128    1.8408 H   0  0  0  0  0  0  0  0  0  0  0  0
   -7.7553   -1.9880    1.2233 H   0  0  0  0  0  0  0  0  0  0  0  0
    4.3935   -4.1385   -0.6869 H   0  0  0  0  0  0  0  0  0  0  0  0
    6.4164   -0.6602   -2.1638 H   0  0  0  0  0  0  0  0  0  0  0  0
    5.9669   -3.1146   -2.3286 H   0  0  0  0  0  0  0  0  0  0  0  0
  1  4  2  0  0  0  0
  1  5  2  0  0  0  0
  1 19  1  0  0  0  0
  1 22  1  0  0  0  0
  2 13  1  0  0  0  0
  2 16  1  0  0  0  0
  3 14  2  0  0  0  0
  6 11  1  0  0  0  0
  6 12  1  0  0  0  0
  6 14  1  0  0  0  0
  7 13  2  0  0  0  0
  7 15  1  0  0  0  0
  8 18  1  0  0  0  0
  8 26  2  0  0  0  0
  9 10  1  0  0  0  0
  9 11  1  0  0  0  0
  9 13  1  0  0  0  0
  9 28  1  0  0  0  0
 10 12  1  0  0  0  0
 10 29  1  0  0  0  0
 10 30  1  0  0  0  0
 11 31  1  0  0  0  0
 11 32  1  0  0  0  0
 12 33  1  0  0  0  0
 12 34  1  0  0  0  0
 14 18  1  0  0  0  0
 15 16  2  0  0  0  0
 15 17  1  0  0  0  0
 16 20  1  0  0  0  0
 17 19  2  0  0  0  0
 17 35  1  0  0  0  0
 18 23  2  0  0  0  0
 19 21  1  0  0  0  0
 20 21  2  0  0  0  0
 20 36  1  0  0  0  0
 21 37  1  0  0  0  0
 22 24  1  0  0  0  0
 22 38  1  0  0  0  0
 22 39  1  0  0  0  0
 23 25  1  0  0  0  0
 23 40  1  0  0  0  0
 24 41  1  0  0  0  0
 24 42  1  0  0  0  0
 24 43  1  0  0  0  0
 25 27  2  0  0  0  0
 25 44  1  0  0  0  0
 26 27  1  0  0  0  0
 26 45  1  0  0  0  0
 27 46  1  0  0  0  0
M  END
> <PUBCHEM_COMPOUND_CID>
51137032

> <PUBCHEM_CONFORMER_RMSD>
0.8

> <PUBCHEM_CONFORMER_DIVERSEORDER>
1
202
198
201
193
78
53
59
181
128
142
130
86
57
98
180
50
85
170
190
156
25
123
77
66
97
173
203
131
7
138
163
126
26
73
161
111
124
21
152
187
199
71
139
29
47
33
129
167
68
206
143
160
91
20
55
144
175
195
72
133
184
179
194
177
183
125
58
88
48
42
112
200
107
182
30
135
132
70
95
106
52
151
61
65
87
80
141
117
146
15
189
120
84
204
81
155
116
178
150
101
43
3
186
102
6
56
67
100
127
31
140
89
159
108
69
34
28
45
60
205
99
174
94
4
119
185
192
44
5
16
153
145
136
9
172
134
46
76
113
171
147
62
90
105
110
40
13
169
165
158
114
36
12
37
24
103
122
176
154
63
188
164
96
8
54
74
35
83
162
191
93
2
82
115
64
157
109
121
39
23
148
51
197
166
38
79
207
118
27
17
14
196
41
149
137
92
22
168
49
10
104
19
18
11
75
32

> <PUBCHEM_MMFF94_PARTIAL_CHARGES>
32
1 1.2
11 0.3
12 0.3
13 0.3
14 0.54
15 0.23
16 0.14
17 -0.15
18 0.4
19 -0.01
2 -0.28
20 -0.15
21 -0.15
22 0.11
23 -0.15
25 -0.15
26 0.16
27 -0.15
3 -0.57
35 0.15
36 0.15
37 0.15
4 -0.65
40 0.15
44 0.15
45 0.15
46 0.15
5 -0.65
6 -0.66
7 -0.57
8 -0.62
9 0.18

> <PUBCHEM_EFFECTIVE_ROTOR_COUNT>
6

> <PUBCHEM_PHARMACOPHORE_FEATURES>
8
1 3 acceptor
1 4 acceptor
1 5 acceptor
1 8 acceptor
5 2 7 13 15 16 rings
5 6 9 10 11 12 rings
6 15 16 17 19 20 21 rings
6 8 18 23 25 26 27 rings

> <PUBCHEM_HEAVY_ATOM_COUNT>
27

> <PUBCHEM_ATOM_DEF_STEREO_COUNT>
1

> <PUBCHEM_ATOM_UDEF_STEREO_COUNT>
0

> <PUBCHEM_BOND_DEF_STEREO_COUNT>
0

> <PUBCHEM_BOND_UDEF_STEREO_COUNT>
0

> <PUBCHEM_ISOTOPIC_ATOM_COUNT>
0

> <PUBCHEM_COMPONENT_COUNT>
1

> <PUBCHEM_CACTVS_TAUTO_COUNT>
1

> <PUBCHEM_CONFORMER_ID>
030C4A0800000001

> <PUBCHEM_MMFF94_ENERGY>
51.3733

> <PUBCHEM_FEATURE_SELFOVERLAP>
40.735

> <PUBCHEM_SHAPE_FINGERPRINT>
10169797 241 18261110828869678730
10928967 22 18334288751757173435
10981352 41 18338799043729632811
11200772 71 12324535310927646313
117089 54 18196380225590735422
11796584 16 18189603961076619004
11991303 11 17461434733804772253
12403259 118 12103547693711557736
12422481 6 18131071558725366615
12623949 98 18338238287865533749
12633257 1 15194987337756152372
13402501 40 18341613681458266246
13533116 47 18130786810508523713
1361 87 17895203242024244987
13690498 29 18187367597200913557
13782708 43 18343578560508356863
13955234 65 18200029702335955768
14251732 14 17603874407254792947
14251740 57 18341610464126490310
14251764 30 18270967847502059958
14420673 8 18197782098435429271
14866123 147 17696754359047225297
14950920 106 17203610423757699835
15510800 12 18268979921952682638
15669420 48 16298682679831224670
1813 80 17603861200093546036
193927 3 18260545641185742705
20567600 254 7997682087438027326
20775530 9 18341325609305994686
21682296 61 18341895178162598663
2215653 11 18269823229663752141
23424784 1240 18410012130636671858
23559900 14 18408878529858904917
25122255 55 18335415777562041095
2748736 6 10159696863567420595
2838139 119 8574444109911133977
3089732 80 18408044026403453099
312425 54 17489587900447324939
3146122 67 17608942220037077475
393628 179 11819574687330193278
439807 62 18187651249779244934
44317340 157 11891329803657693649
46194498 28 18113620122975093156
5104073 3 18335693975495302721
56633871 153 18266182906548665995
60111433 81 12955507783487669916
6823239 73 18340477877556824930
7918774 8 18411140207891057506
86090 222 18113617936488703723
8863177 126 18342173379846806414
9980921 177 16413543055339075275
9980921 52 17558801023724171423

> <PUBCHEM_SHAPE_MULTIPOLES>
521.08
16.66
3.54
1.67
10.16
0.16
0.8
16.37
0.45
-1.37
-0.24
-0.48
0.15
3.39

> <PUBCHEM_SHAPE_SELFOVERLAP>
1123.931

> <PUBCHEM_SHAPE_VOLUME>
289.6

> <PUBCHEM_COORDINATE_TYPE>
2
5
10

$$$$
