51138142
  -OEChem-12032416223D

 60 64  0     1  0  0  0  0  0999 V2000
   -3.2211    2.5717   -1.1565 O   0  0  0  0  0  0  0  0  0  0  0  0
    6.6035   -0.1378   -0.6372 O   0  0  0  0  0  0  0  0  0  0  0  0
   -4.4110    1.5317    0.5483 N   0  0  0  0  0  0  0  0  0  0  0  0
   -2.1305   -0.2378   -0.5145 N   0  0  0  0  0  0  0  0  0  0  0  0
    2.5456    0.8660    1.0409 N   0  0  0  0  0  0  0  0  0  0  0  0
    5.9089   -0.0181    0.5604 N   0  0  0  0  0  0  0  0  0  0  0  0
   -5.6653    2.1870    0.3109 C   0  0  0  0  0  0  0  0  0  0  0  0
   -6.6242    1.6738   -0.7230 C   0  0  0  0  0  0  0  0  0  0  0  0
   -6.9627    1.5631    0.7348 C   0  0  0  0  0  0  0  0  0  0  0  0
   -2.0913    1.0032    0.2456 C   0  0  1  0  0  0  0  0  0  0  0  0
   -1.6653   -1.4221    0.2197 C   0  0  2  0  0  0  0  0  0  0  0  0
   -0.8243    1.8030   -0.0512 C   0  0  0  0  0  0  0  0  0  0  0  0
   -0.1927   -1.4119    0.6423 C   0  0  0  0  0  0  0  0  0  0  0  0
    0.6398   -0.2564    0.6873 C   0  0  0  0  0  0  0  0  0  0  0  0
    0.4312    1.1380    0.4047 C   0  0  0  0  0  0  0  0  0  0  0  0
   -2.0073   -2.6089   -0.6989 C   0  0  0  0  0  0  0  0  0  0  0  0
   -3.2838    1.7842   -0.2156 C   0  0  0  0  0  0  0  0  0  0  0  0
    1.9696   -0.3807    1.1063 C   0  0  0  0  0  0  0  0  0  0  0  0
   -3.4950   -2.9733   -0.6768 C   0  0  0  0  0  0  0  0  0  0  0  0
    1.6292    1.7867    0.6265 C   0  0  0  0  0  0  0  0  0  0  0  0
    0.3897   -2.6205    1.1022 C   0  0  0  0  0  0  0  0  0  0  0  0
    2.5382   -1.5894    1.5113 C   0  0  0  0  0  0  0  0  0  0  0  0
    3.9178    1.1790    1.3787 C   0  0  0  0  0  0  0  0  0  0  0  0
    1.7178   -2.7100    1.5145 C   0  0  0  0  0  0  0  0  0  0  0  0
   -3.7293   -4.1929   -1.5714 C   0  0  0  0  0  0  0  0  0  0  0  0
   -4.3910   -1.8200   -1.1304 C   0  0  0  0  0  0  0  0  0  0  0  0
    4.8988    0.8142    0.2925 C   0  0  0  0  0  0  0  0  0  0  0  0
    4.9048    1.2477   -1.0447 C   0  0  0  0  0  0  0  0  0  0  0  0
    5.9960    0.6205   -1.5854 C   0  0  0  0  0  0  0  0  0  0  0  0
    6.6037    0.6100   -2.9214 C   0  0  0  0  0  0  0  0  0  0  0  0
   -5.5943    3.2644    0.4247 H   0  0  0  0  0  0  0  0  0  0  0  0
   -7.1659    2.4022   -1.3137 H   0  0  0  0  0  0  0  0  0  0  0  0
   -6.3761    0.7622   -1.2524 H   0  0  0  0  0  0  0  0  0  0  0  0
   -6.9407    0.5768    1.1820 H   0  0  0  0  0  0  0  0  0  0  0  0
   -7.7337    2.2161    1.1248 H   0  0  0  0  0  0  0  0  0  0  0  0
   -2.1793    0.8261    1.3259 H   0  0  0  0  0  0  0  0  0  0  0  0
   -2.2482   -1.5196    1.1460 H   0  0  0  0  0  0  0  0  0  0  0  0
   -0.7290    2.0051   -1.1274 H   0  0  0  0  0  0  0  0  0  0  0  0
   -0.9008    2.7858    0.4345 H   0  0  0  0  0  0  0  0  0  0  0  0
   -4.3681    0.8614    1.3112 H   0  0  0  0  0  0  0  0  0  0  0  0
   -1.6373   -0.1425   -1.4015 H   0  0  0  0  0  0  0  0  0  0  0  0
   -1.4645   -3.5154   -0.4163 H   0  0  0  0  0  0  0  0  0  0  0  0
   -1.6778   -2.4054   -1.7287 H   0  0  0  0  0  0  0  0  0  0  0  0
   -3.7823   -3.2517    0.3452 H   0  0  0  0  0  0  0  0  0  0  0  0
    1.8911    2.8315    0.5214 H   0  0  0  0  0  0  0  0  0  0  0  0
   -0.2060   -3.5271    1.1797 H   0  0  0  0  0  0  0  0  0  0  0  0
    3.5700   -1.6626    1.8369 H   0  0  0  0  0  0  0  0  0  0  0  0
    4.1555    0.6713    2.3209 H   0  0  0  0  0  0  0  0  0  0  0  0
    3.9835    2.2561    1.5749 H   0  0  0  0  0  0  0  0  0  0  0  0
    2.1128   -3.6644    1.8525 H   0  0  0  0  0  0  0  0  0  0  0  0
   -3.4752   -3.9761   -2.6147 H   0  0  0  0  0  0  0  0  0  0  0  0
   -4.7784   -4.5056   -1.5370 H   0  0  0  0  0  0  0  0  0  0  0  0
   -3.1212   -5.0425   -1.2429 H   0  0  0  0  0  0  0  0  0  0  0  0
   -4.4933   -1.0639   -0.3503 H   0  0  0  0  0  0  0  0  0  0  0  0
   -4.0360   -1.3600   -2.0583 H   0  0  0  0  0  0  0  0  0  0  0  0
   -5.4083   -2.1824   -1.3210 H   0  0  0  0  0  0  0  0  0  0  0  0
    4.2197    1.9168   -1.5440 H   0  0  0  0  0  0  0  0  0  0  0  0
    7.6340    0.9764   -2.8787 H   0  0  0  0  0  0  0  0  0  0  0  0
    6.6161   -0.4049   -3.3307 H   0  0  0  0  0  0  0  0  0  0  0  0
    6.0459    1.2477   -3.6142 H   0  0  0  0  0  0  0  0  0  0  0  0
  1 17  2  0  0  0  0
  2  6  1  0  0  0  0
  2 29  1  0  0  0  0
  3  7  1  0  0  0  0
  3 17  1  0  0  0  0
  3 40  1  0  0  0  0
  4 10  1  0  0  0  0
  4 11  1  0  0  0  0
  4 41  1  0  0  0  0
  5 18  1  0  0  0  0
  5 20  1  0  0  0  0
  5 23  1  0  0  0  0
  6 27  2  0  0  0  0
  7  8  1  0  0  0  0
  7  9  1  0  0  0  0
  7 31  1  0  0  0  0
  8  9  1  0  0  0  0
  8 32  1  0  0  0  0
  8 33  1  0  0  0  0
  9 34  1  0  0  0  0
  9 35  1  0  0  0  0
 10 12  1  0  0  0  0
 10 17  1  0  0  0  0
 10 36  1  0  0  0  0
 11 13  1  0  0  0  0
 11 16  1  0  0  0  0
 11 37  1  0  0  0  0
 12 15  1  0  0  0  0
 12 38  1  0  0  0  0
 12 39  1  0  0  0  0
 13 14  2  0  0  0  0
 13 21  1  0  0  0  0
 14 15  1  0  0  0  0
 14 18  1  0  0  0  0
 15 20  2  0  0  0  0
 16 19  1  0  0  0  0
 16 42  1  0  0  0  0
 16 43  1  0  0  0  0
 18 22  2  0  0  0  0
 19 25  1  0  0  0  0
 19 26  1  0  0  0  0
 19 44  1  0  0  0  0
 20 45  1  0  0  0  0
 21 24  2  0  0  0  0
 21 46  1  0  0  0  0
 22 24  1  0  0  0  0
 22 47  1  0  0  0  0
 23 27  1  0  0  0  0
 23 48  1  0  0  0  0
 23 49  1  0  0  0  0
 24 50  1  0  0  0  0
 25 51  1  0  0  0  0
 25 52  1  0  0  0  0
 25 53  1  0  0  0  0
 26 54  1  0  0  0  0
 26 55  1  0  0  0  0
 26 56  1  0  0  0  0
 27 28  1  0  0  0  0
 28 29  2  0  0  0  0
 28 57  1  0  0  0  0
 29 30  1  0  0  0  0
 30 58  1  0  0  0  0
 30 59  1  0  0  0  0
 30 60  1  0  0  0  0
M  END
> <PUBCHEM_COMPOUND_CID>
51138142

> <PUBCHEM_CONFORMER_RMSD>
1

> <PUBCHEM_CONFORMER_DIVERSEORDER>
1
48
54
18
10
41
28
47
32
53
71
25
35
5
74
43
50
51
78
68
64
67
57
55
77
9
39
45
70
17
13
21
30
63
59
23
2
61
73
52
75
33
31
66
22
46
8
29
38
12
69
56
15
6
65
3
7
60
4
11
27
76
58
14
40
16
44
72
20
24
26
34
42
37
62
49
36
19

> <PUBCHEM_MMFF94_PARTIAL_CHARGES>
37
1 -0.57
10 0.33
11 0.41
12 0.18
13 -0.14
15 -0.18
17 0.57
18 -0.15
2 -0.02
20 -0.3
21 -0.15
22 -0.15
23 0.44
24 -0.15
27 0.11
28 -0.15
29 -0.04
3 -0.58
30 0.18
31 0.1
32 0.1
33 0.1
34 0.1
35 0.1
4 -0.9
40 0.37
41 0.36
45 0.15
46 0.15
47 0.15
5 0.05
50 0.15
57 0.15
6 -0.41
7 0.05
8 -0.2
9 -0.2

> <PUBCHEM_EFFECTIVE_ROTOR_COUNT>
8.4

> <PUBCHEM_PHARMACOPHORE_FEATURES>
11
1 1 acceptor
1 3 donor
1 4 cation
1 4 donor
1 5 cation
1 6 acceptor
3 19 25 26 hydrophobe
5 2 6 27 28 29 rings
5 5 14 15 18 20 rings
6 13 14 18 21 22 24 rings
7 4 10 11 12 13 14 15 rings

> <PUBCHEM_HEAVY_ATOM_COUNT>
30

> <PUBCHEM_ATOM_DEF_STEREO_COUNT>
2

> <PUBCHEM_ATOM_UDEF_STEREO_COUNT>
0

> <PUBCHEM_BOND_DEF_STEREO_COUNT>
0

> <PUBCHEM_BOND_UDEF_STEREO_COUNT>
0

> <PUBCHEM_ISOTOPIC_ATOM_COUNT>
0

> <PUBCHEM_COMPONENT_COUNT>
1

> <PUBCHEM_CACTVS_TAUTO_COUNT>
2

> <PUBCHEM_CONFORMER_ID>
030C4E5E00000001

> <PUBCHEM_MMFF94_ENERGY>
60.0049

> <PUBCHEM_FEATURE_SELFOVERLAP>
55.952

> <PUBCHEM_SHAPE_FINGERPRINT>
10190108 129 18190473825641481771
10674148 151 17417255325560323400
11445158 3 17828749656293919287
11479125 193 15431735439367728524
12954195 1 18271809050768850491
13540713 5 18190158174892766842
13782708 43 17059774558336939102
14114211 68 18188788149571657650
14294032 229 18260823752960955181
1454969 45 18041000631361598173
14790565 3 18334295374575098977
14840074 17 17168147853414626820
15131766 46 16298966375633420060
15183329 4 17917999334887509552
15629462 23 16343434925170151041
15927050 60 18343297042645789871
15961568 22 16950569817973463252
16752209 62 18262795289563568138
18393751 57 7925051588061236996
19319366 153 18041839506571589371
19841028 212 14620521056844113204
21307412 95 17845675676368335164
21641784 216 17968926612687729318
22393880 68 18342729754310493848
23559900 14 17917422163759717225
25147074 1 18261376837205452210
3610482 184 18114759208441674796
38570 142 18335430036246867331
4058900 60 17968086525981476027
46194498 28 17844248656483931636
5252454 2 18336253561977186081
563151 40 18409173207754922507
59755656 215 18202285779482717973
59755656 520 18342735200740793517

> <PUBCHEM_SHAPE_MULTIPOLES>
585.72
16.07
3.79
1.7
4.87
3.42
0.79
-8.94
7.35
-6.39
0.65
2.62
0.45
-2.33

> <PUBCHEM_SHAPE_SELFOVERLAP>
1261.035

> <PUBCHEM_SHAPE_VOLUME>
325.2

> <PUBCHEM_COORDINATE_TYPE>
2
5
10

$$$$
