24066823
  -OEChem-12032416133D

 69 73  0     1  0  0  0  0  0999 V2000
    2.8552   -0.0710   -2.1235 S   0  0  0  0  0  0  0  0  0  0  0  0
   -7.1488    3.2610   -0.7672 S   0  0  0  0  0  0  0  0  0  0  0  0
   -2.3818    0.2592    2.1912 O   0  0  0  0  0  0  0  0  0  0  0  0
   -6.4764   -1.7563   -0.3752 O   0  0  0  0  0  0  0  0  0  0  0  0
    5.4284    0.1776    1.7476 O   0  0  0  0  0  0  0  0  0  0  0  0
    2.7773   -0.0776    0.4612 N   0  0  0  0  0  0  0  0  0  0  0  0
   -6.7145    0.4013    0.4557 N   0  0  0  0  0  0  0  0  0  0  0  0
    4.9500    0.1355   -0.5599 N   0  0  0  0  0  0  0  0  0  0  0  0
    9.9698    0.5307   -0.2375 N   0  0  0  0  0  0  0  0  0  0  0  0
   -1.0407   -0.9861   -1.1731 C   0  0  1  0  0  0  0  0  0  0  0  0
   -1.0606   -0.2062    0.2004 C   0  0  1  0  0  0  0  0  0  0  0  0
   -2.2880   -0.6117    1.0647 C   0  0  2  0  0  0  0  0  0  0  0  0
   -3.6223   -0.5083    0.2941 C   0  0  1  0  0  0  0  0  0  0  0  0
   -2.4002   -0.8132   -1.8901 C   0  0  0  0  0  0  0  0  0  0  0  0
    0.3187   -0.3258    0.9687 C   0  0  1  0  0  0  0  0  0  0  0  0
   -3.5849   -1.2522   -1.0407 C   0  0  0  0  0  0  0  0  0  0  0  0
    0.0583   -0.3864   -2.1050 C   0  0  0  0  0  0  0  0  0  0  0  0
   -0.7627   -2.4997   -0.9789 C   0  0  0  0  0  0  0  0  0  0  0  0
   -4.8041   -1.0145    1.1302 C   0  0  2  0  0  0  0  0  0  0  0  0
    1.4749   -0.1898    0.0071 C   0  0  0  0  0  0  0  0  0  0  0  0
    1.3392   -0.2290   -1.3652 C   0  0  0  0  0  0  0  0  0  0  0  0
    0.4665    0.6890    2.1119 C   0  0  0  0  0  0  0  0  0  0  0  0
   -4.6271   -2.4754    1.5008 C   0  0  0  0  0  0  0  0  0  0  0  0
   -6.0715   -0.8314    0.3338 C   0  0  0  0  0  0  0  0  0  0  0  0
    3.5869    0.0030   -0.5722 C   0  0  0  0  0  0  0  0  0  0  0  0
   -7.9502    0.6528   -0.2882 C   0  0  0  0  0  0  0  0  0  0  0  0
   -6.1955    1.5571    1.1968 C   0  0  0  0  0  0  0  0  0  0  0  0
   -7.7245    1.6572   -1.4123 C   0  0  0  0  0  0  0  0  0  0  0  0
   -5.7568    2.6662    0.2476 C   0  0  0  0  0  0  0  0  0  0  0  0
    5.7766    0.2136    0.5726 C   0  0  0  0  0  0  0  0  0  0  0  0
    7.2327    0.3239    0.2913 C   0  0  0  0  0  0  0  0  0  0  0  0
    8.1597   -0.1406    1.2178 C   0  0  0  0  0  0  0  0  0  0  0  0
    7.6726    0.8915   -0.8993 C   0  0  0  0  0  0  0  0  0  0  0  0
    9.5045   -0.0152    0.9085 C   0  0  0  0  0  0  0  0  0  0  0  0
    9.0393    0.9709   -1.1139 C   0  0  0  0  0  0  0  0  0  0  0  0
   -1.1823    0.8620   -0.0421 H   0  0  0  0  0  0  0  0  0  0  0  0
   -2.1139   -1.6190    1.4490 H   0  0  0  0  0  0  0  0  0  0  0  0
   -3.7846    0.5518    0.0719 H   0  0  0  0  0  0  0  0  0  0  0  0
   -2.5413    0.2416   -2.1621 H   0  0  0  0  0  0  0  0  0  0  0  0
   -2.4053   -1.3748   -2.8332 H   0  0  0  0  0  0  0  0  0  0  0  0
    0.3861   -1.3304    1.4071 H   0  0  0  0  0  0  0  0  0  0  0  0
   -3.5374   -2.3367   -0.9216 H   0  0  0  0  0  0  0  0  0  0  0  0
   -4.4810   -1.0405   -1.6338 H   0  0  0  0  0  0  0  0  0  0  0  0
   -0.2517    0.6046   -2.4620 H   0  0  0  0  0  0  0  0  0  0  0  0
    0.1920   -1.0207   -2.9901 H   0  0  0  0  0  0  0  0  0  0  0  0
   -1.4721   -2.9685   -0.2911 H   0  0  0  0  0  0  0  0  0  0  0  0
    0.2385   -2.6951   -0.5834 H   0  0  0  0  0  0  0  0  0  0  0  0
   -0.8359   -3.0313   -1.9349 H   0  0  0  0  0  0  0  0  0  0  0  0
   -4.8720   -0.4962    2.0883 H   0  0  0  0  0  0  0  0  0  0  0  0
    1.4847    0.6952    2.5175 H   0  0  0  0  0  0  0  0  0  0  0  0
   -0.1863    0.4486    2.9541 H   0  0  0  0  0  0  0  0  0  0  0  0
    0.2433    1.7062    1.7720 H   0  0  0  0  0  0  0  0  0  0  0  0
   -2.5028    1.1661    1.8617 H   0  0  0  0  0  0  0  0  0  0  0  0
   -3.7773   -2.6404    2.1684 H   0  0  0  0  0  0  0  0  0  0  0  0
   -5.5107   -2.8185    2.0554 H   0  0  0  0  0  0  0  0  0  0  0  0
   -4.5357   -3.1558    0.6507 H   0  0  0  0  0  0  0  0  0  0  0  0
   -8.7087    1.0090    0.4195 H   0  0  0  0  0  0  0  0  0  0  0  0
   -8.3288   -0.2817   -0.7157 H   0  0  0  0  0  0  0  0  0  0  0  0
   -5.3488    1.3150    1.8352 H   0  0  0  0  0  0  0  0  0  0  0  0
   -6.9911    1.9063    1.8670 H   0  0  0  0  0  0  0  0  0  0  0  0
    5.3660    0.1363   -1.4860 H   0  0  0  0  0  0  0  0  0  0  0  0
   -6.9798    1.2840   -2.1235 H   0  0  0  0  0  0  0  0  0  0  0  0
   -8.6572    1.8226   -1.9602 H   0  0  0  0  0  0  0  0  0  0  0  0
   -4.9677    2.3308   -0.4308 H   0  0  0  0  0  0  0  0  0  0  0  0
   -5.3668    3.5143    0.8189 H   0  0  0  0  0  0  0  0  0  0  0  0
    7.8600   -0.5947    2.1563 H   0  0  0  0  0  0  0  0  0  0  0  0
    7.0056    1.3028   -1.6478 H   0  0  0  0  0  0  0  0  0  0  0  0
   10.2676   -0.3634    1.5969 H   0  0  0  0  0  0  0  0  0  0  0  0
    9.4344    1.4126   -2.0228 H   0  0  0  0  0  0  0  0  0  0  0  0
  1 21  1  0  0  0  0
  1 25  1  0  0  0  0
  2 28  1  0  0  0  0
  2 29  1  0  0  0  0
  3 12  1  0  0  0  0
  3 53  1  0  0  0  0
  4 24  2  0  0  0  0
  5 30  2  0  0  0  0
  6 20  1  0  0  0  0
  6 25  2  0  0  0  0
  7 24  1  0  0  0  0
  7 26  1  0  0  0  0
  7 27  1  0  0  0  0
  8 25  1  0  0  0  0
  8 30  1  0  0  0  0
  8 61  1  0  0  0  0
  9 34  2  0  0  0  0
  9 35  1  0  0  0  0
 10 11  1  0  0  0  0
 10 14  1  0  0  0  0
 10 17  1  0  0  0  0
 10 18  1  0  0  0  0
 11 12  1  0  0  0  0
 11 15  1  0  0  0  0
 11 36  1  0  0  0  0
 12 13  1  0  0  0  0
 12 37  1  0  0  0  0
 13 16  1  0  0  0  0
 13 19  1  0  0  0  0
 13 38  1  0  0  0  0
 14 16  1  0  0  0  0
 14 39  1  0  0  0  0
 14 40  1  0  0  0  0
 15 20  1  0  0  0  0
 15 22  1  0  0  0  0
 15 41  1  0  0  0  0
 16 42  1  0  0  0  0
 16 43  1  0  0  0  0
 17 21  1  0  0  0  0
 17 44  1  0  0  0  0
 17 45  1  0  0  0  0
 18 46  1  0  0  0  0
 18 47  1  0  0  0  0
 18 48  1  0  0  0  0
 19 23  1  0  0  0  0
 19 24  1  0  0  0  0
 19 49  1  0  0  0  0
 20 21  2  0  0  0  0
 22 50  1  0  0  0  0
 22 51  1  0  0  0  0
 22 52  1  0  0  0  0
 23 54  1  0  0  0  0
 23 55  1  0  0  0  0
 23 56  1  0  0  0  0
 26 28  1  0  0  0  0
 26 57  1  0  0  0  0
 26 58  1  0  0  0  0
 27 29  1  0  0  0  0
 27 59  1  0  0  0  0
 27 60  1  0  0  0  0
 28 62  1  0  0  0  0
 28 63  1  0  0  0  0
 29 64  1  0  0  0  0
 29 65  1  0  0  0  0
 30 31  1  0  0  0  0
 31 32  2  0  0  0  0
 31 33  1  0  0  0  0
 32 34  1  0  0  0  0
 32 66  1  0  0  0  0
 33 35  2  0  0  0  0
 33 67  1  0  0  0  0
 34 68  1  0  0  0  0
 35 69  1  0  0  0  0
M  END
> <PUBCHEM_COMPOUND_CID>
24066823

> <PUBCHEM_CONFORMER_RMSD>
1

> <PUBCHEM_CONFORMER_DIVERSEORDER>
1
36
33
24
7
38
32
40
25
27
41
20
23
18
19
31
39
5
34
30
37
11
26
13
21
35
16
28
17
15
14
29
9
8
12
10
22
4
6
2
3

> <PUBCHEM_MMFF94_PARTIAL_CHARGES>
33
1 -0.08
12 0.28
15 0.18
17 0.18
19 0.06
2 -0.46
20 0.05
21 -0.14
24 0.57
25 0.44
26 0.3
27 0.3
28 0.23
29 0.23
3 -0.68
30 0.54
31 0.09
32 -0.15
33 -0.15
34 0.16
35 0.16
4 -0.57
5 -0.57
53 0.4
6 -0.57
61 0.37
66 0.15
67 0.15
68 0.15
69 0.15
7 -0.66
8 -0.49
9 -0.62

> <PUBCHEM_EFFECTIVE_ROTOR_COUNT>
8.4

> <PUBCHEM_PHARMACOPHORE_FEATURES>
12
1 23 hydrophobe
1 3 acceptor
1 3 donor
1 4 acceptor
1 5 acceptor
1 8 donor
1 9 acceptor
5 1 6 20 21 25 rings
6 10 11 12 13 14 16 rings
6 10 11 15 17 20 21 rings
6 2 7 26 27 28 29 rings
6 9 31 32 33 34 35 rings

> <PUBCHEM_HEAVY_ATOM_COUNT>
35

> <PUBCHEM_ATOM_DEF_STEREO_COUNT>
5

> <PUBCHEM_ATOM_UDEF_STEREO_COUNT>
1

> <PUBCHEM_BOND_DEF_STEREO_COUNT>
0

> <PUBCHEM_BOND_UDEF_STEREO_COUNT>
0

> <PUBCHEM_ISOTOPIC_ATOM_COUNT>
0

> <PUBCHEM_COMPONENT_COUNT>
1

> <PUBCHEM_CACTVS_TAUTO_COUNT>
3

> <PUBCHEM_CONFORMER_ID>
016F3B0700000001

> <PUBCHEM_MMFF94_ENERGY>
100.7259

> <PUBCHEM_FEATURE_SELFOVERLAP>
60.979

> <PUBCHEM_SHAPE_FINGERPRINT>
10 15 17989209239656727726
10076449 9 16988842778818015505
10533779 1 17898565381749179861
11135926 11 16415767426736708095
11181472 205 18334861563693711276
11315181 36 17676489479758500523
11456790 92 16877670066911620068
11578821 258 17989209278475835096
12089408 11 17967532394217456722
12104220 1 17022621970883464269
12838862 33 16845564306432549434
13811026 1 15410898483241463052
14040221 310 16415472732689638129
14117953 113 16917072179185561632
14150023 24 18202844340549964174
14251764 18 17095243627228735812
15131766 46 17834114522230884372
15289351 153 17060343968954926798
15301273 46 18412832369962514870
15461852 350 18201716288979861895
1754911 235 14979958055808335905
20580484 106 18408314493948170506
21130935 74 16878233072741132154
21150785 3 11384116345289941740
21772524 286 18115305553746945628
21781055 127 16806179748270007078
21792961 116 17489873704924636556
21792965 68 18041267761152919861
22149856 69 17894344463898595024
23522609 53 16444500960095267799
23559900 14 14924798967842006774
23576562 1 17488445529525615981
249057 3 17274821389715987008
3178227 256 13984666940569467220
335352 9 15841554098529869608
4339292 15 18200311165097859431
437795 83 16630250199761073817
44280117 145 17460045191192733410
44802255 64 17989484109480127183
5028188 123 18188218710429398910
504579 68 14692566615771461276
6009941 240 18201721785963513582
6201320 215 18263919956019140388
6691757 9 18187652414517015363
9953998 17 16877662366182171275
999808 66 12901549031369296705

> <PUBCHEM_SHAPE_MULTIPOLES>
690.45
29.67
2.06
1.93
47.74
0.75
-0.18
14.12
4.43
-6.21
-0.02
0.09
-0.18
-0.62

> <PUBCHEM_SHAPE_SELFOVERLAP>
1451.811

> <PUBCHEM_SHAPE_VOLUME>
392.7

> <PUBCHEM_COORDINATE_TYPE>
2
5
10

$$$$
