26744664
  -OEChem-12032416183D

 44 45  0     1  0  0  0  0  0999 V2000
    3.2932   -0.5539   -0.7861 O   0  0  0  0  0  0  0  0  0  0  0  0
    2.8685    2.2596    1.4054 O   0  0  0  0  0  0  0  0  0  0  0  0
    4.4265    2.2689   -0.8619 O   0  0  0  0  0  0  0  0  0  0  0  0
    0.1872   -0.5697   -1.3607 O   0  0  0  0  0  0  0  0  0  0  0  0
   -6.2149    1.3914    0.3362 O   0  0  0  0  0  0  0  0  0  0  0  0
    6.8439   -0.7693    0.2212 N   0  0  0  0  0  0  0  0  0  0  0  0
   -0.6756   -1.6806    0.4894 N   0  0  0  0  0  0  0  0  0  0  0  0
    3.4088    1.0379    0.9492 C   0  0  1  0  0  0  0  0  0  0  0  0
    2.4631    0.3126    0.0069 C   0  0  2  0  0  0  0  0  0  0  0  0
    4.6334    1.2126    0.0750 C   0  0  1  0  0  0  0  0  0  0  0  0
    4.6642   -0.1034   -0.6945 C   0  0  1  0  0  0  0  0  0  0  0  0
    1.4078   -0.5080    0.7266 C   0  0  0  0  0  0  0  0  0  0  0  0
    5.4650   -1.1886    0.0120 C   0  0  0  0  0  0  0  0  0  0  0  0
    0.2591   -0.9058   -0.1817 C   0  0  0  0  0  0  0  0  0  0  0  0
   -1.8715   -2.1941   -0.1382 C   0  0  0  0  0  0  0  0  0  0  0  0
   -3.0256   -1.2421   -0.0119 C   0  0  0  0  0  0  0  0  0  0  0  0
   -3.6948   -1.1140    1.2053 C   0  0  0  0  0  0  0  0  0  0  0  0
   -3.4282   -0.4851   -1.1121 C   0  0  0  0  0  0  0  0  0  0  0  0
   -4.7667   -0.2294    1.3221 C   0  0  0  0  0  0  0  0  0  0  0  0
   -4.5002    0.3996   -0.9954 C   0  0  0  0  0  0  0  0  0  0  0  0
   -5.1694    0.5275    0.2217 C   0  0  0  0  0  0  0  0  0  0  0  0
   -6.5737    2.1340   -0.8284 C   0  0  0  0  0  0  0  0  0  0  0  0
    3.6486    0.4101    1.8158 H   0  0  0  0  0  0  0  0  0  0  0  0
    1.9867    1.0334   -0.6703 H   0  0  0  0  0  0  0  0  0  0  0  0
    5.5318    1.4579    0.6470 H   0  0  0  0  0  0  0  0  0  0  0  0
    5.0335    0.0301   -1.7183 H   0  0  0  0  0  0  0  0  0  0  0  0
    0.9777    0.0721    1.5521 H   0  0  0  0  0  0  0  0  0  0  0  0
    1.8481   -1.4246    1.1375 H   0  0  0  0  0  0  0  0  0  0  0  0
    5.4417   -2.1085   -0.5840 H   0  0  0  0  0  0  0  0  0  0  0  0
    5.0100   -1.4441    0.9758 H   0  0  0  0  0  0  0  0  0  0  0  0
    3.5659    2.7185    1.9037 H   0  0  0  0  0  0  0  0  0  0  0  0
    5.2208    2.3215   -1.4205 H   0  0  0  0  0  0  0  0  0  0  0  0
    7.2826   -0.5707   -0.6771 H   0  0  0  0  0  0  0  0  0  0  0  0
    7.3722   -1.5366    0.6343 H   0  0  0  0  0  0  0  0  0  0  0  0
   -0.5317   -1.8891    1.4734 H   0  0  0  0  0  0  0  0  0  0  0  0
   -2.1173   -3.1468    0.3446 H   0  0  0  0  0  0  0  0  0  0  0  0
   -1.6591   -2.4140   -1.1910 H   0  0  0  0  0  0  0  0  0  0  0  0
   -3.3898   -1.6985    2.0693 H   0  0  0  0  0  0  0  0  0  0  0  0
   -2.9140   -0.5742   -2.0656 H   0  0  0  0  0  0  0  0  0  0  0  0
   -5.2841   -0.1338    2.2729 H   0  0  0  0  0  0  0  0  0  0  0  0
   -4.7600    0.9568   -1.8890 H   0  0  0  0  0  0  0  0  0  0  0  0
   -7.4232    2.7694   -0.5574 H   0  0  0  0  0  0  0  0  0  0  0  0
   -6.9113    1.4765   -1.6366 H   0  0  0  0  0  0  0  0  0  0  0  0
   -5.7645    2.8005   -1.1457 H   0  0  0  0  0  0  0  0  0  0  0  0
  1  9  1  0  0  0  0
  1 11  1  0  0  0  0
  2  8  1  0  0  0  0
  2 31  1  0  0  0  0
  3 10  1  0  0  0  0
  3 32  1  0  0  0  0
  4 14  2  0  0  0  0
  5 21  1  0  0  0  0
  5 22  1  0  0  0  0
  6 13  1  0  0  0  0
  6 33  1  0  0  0  0
  6 34  1  0  0  0  0
  7 14  1  0  0  0  0
  7 15  1  0  0  0  0
  7 35  1  0  0  0  0
  8  9  1  0  0  0  0
  8 10  1  0  0  0  0
  8 23  1  0  0  0  0
  9 12  1  0  0  0  0
  9 24  1  0  0  0  0
 10 11  1  0  0  0  0
 10 25  1  0  0  0  0
 11 13  1  0  0  0  0
 11 26  1  0  0  0  0
 12 14  1  0  0  0  0
 12 27  1  0  0  0  0
 12 28  1  0  0  0  0
 13 29  1  0  0  0  0
 13 30  1  0  0  0  0
 15 16  1  0  0  0  0
 15 36  1  0  0  0  0
 15 37  1  0  0  0  0
 16 17  2  0  0  0  0
 16 18  1  0  0  0  0
 17 19  1  0  0  0  0
 17 38  1  0  0  0  0
 18 20  2  0  0  0  0
 18 39  1  0  0  0  0
 19 21  2  0  0  0  0
 19 40  1  0  0  0  0
 20 21  1  0  0  0  0
 20 41  1  0  0  0  0
 22 42  1  0  0  0  0
 22 43  1  0  0  0  0
 22 44  1  0  0  0  0
M  END
> <PUBCHEM_COMPOUND_CID>
26744664

> <PUBCHEM_CONFORMER_RMSD>
1

> <PUBCHEM_CONFORMER_DIVERSEORDER>
1
65
5
41
71
93
61
84
27
12
63
39
76
11
52
4
86
56
77
8
25
32
21
20
53
18
44
72
34
62
57
69
55
15
3
90
31
38
36
60
26
94
50
47
91
80
30
59
54
68
49
14
75
70
2
78
79
10
9
87
17
7
58
67
24
23
89
74
19
81
28
66
13
16
83
37
40
82
22
85
73
6
29
64
45
51
48
92
46
33
35
42
43
88

> <PUBCHEM_MMFF94_PARTIAL_CHARGES>
31
1 -0.56
10 0.28
11 0.28
12 0.06
13 0.27
14 0.57
15 0.44
16 -0.14
17 -0.15
18 -0.15
19 -0.15
2 -0.68
20 -0.15
21 0.08
22 0.28
3 -0.68
31 0.4
32 0.4
33 0.36
34 0.36
35 0.37
38 0.15
39 0.15
4 -0.57
40 0.15
41 0.15
5 -0.36
6 -0.99
7 -0.73
8 0.28
9 0.28

> <PUBCHEM_EFFECTIVE_ROTOR_COUNT>
8

> <PUBCHEM_PHARMACOPHORE_FEATURES>
12
1 1 acceptor
1 2 acceptor
1 2 donor
1 3 acceptor
1 3 donor
1 4 acceptor
1 5 acceptor
1 6 cation
1 6 donor
1 7 donor
5 1 8 9 10 11 rings
6 16 17 18 19 20 21 rings

> <PUBCHEM_HEAVY_ATOM_COUNT>
22

> <PUBCHEM_ATOM_DEF_STEREO_COUNT>
4

> <PUBCHEM_ATOM_UDEF_STEREO_COUNT>
0

> <PUBCHEM_BOND_DEF_STEREO_COUNT>
0

> <PUBCHEM_BOND_UDEF_STEREO_COUNT>
0

> <PUBCHEM_ISOTOPIC_ATOM_COUNT>
0

> <PUBCHEM_COMPONENT_COUNT>
1

> <PUBCHEM_CACTVS_TAUTO_COUNT>
2

> <PUBCHEM_CONFORMER_ID>
0198175800000001

> <PUBCHEM_MMFF94_ENERGY>
57.853

> <PUBCHEM_FEATURE_SELFOVERLAP>
60.909

> <PUBCHEM_SHAPE_FINGERPRINT>
11089746 13 18343578542779906623
11370993 144 18261110789809030751
11405975 8 18340204202103885338
11595378 159 16226314954583966252
12516196 113 9223227447060805111
12596602 18 16805612507259472449
12778500 126 17894909569208187378
1420 369 8502657025977836049
14251758 9 18040710364143499950
14341114 328 16081092580337953545
146900 427 13479141224171784254
15142383 8 18410289190977404000
15183329 4 17632582642981639372
15348495 7 17968383449785842186
15537594 2 13479133514272744059
17780758 139 11746938668918679231
17844677 252 18188218709442649530
19377110 9 11602822363117929639
19489759 90 14836409120531725419
19784866 170 17603865577124045543
20281389 69 18410857685185088921
21033648 29 18336259136950114729
21054139 6 12895068505155174252
21150785 3 13326845639145943994
21315759 148 17459200727443871722
21315763 76 17847063263741560179
21365058 27 14129066898267898968
21774942 28 17273984523580572065
22289505 5 18202005451858581976
23402539 116 17847061086187957067
23559900 14 18273495697928239218
2838139 119 17988921142199272729
3009799 131 16415474939537937202
32948 21 18342458175160017994
4325135 7 10015578411474318202
5104073 3 17968372463512732954
5385378 56 18115872897714842235
57724786 102 18188211004503637380
59682541 35 8430301421608367614
59755656 520 18408037425576997263
6328613 192 18409737296064574596
633830 44 18261668276785766462
90127 26 18040720315535050866

> <PUBCHEM_SHAPE_MULTIPOLES>
413.44
17.24
2.07
1.19
0.7
0.66
-0.09
6.7
0.45
0.46
-0.06
0.57
0.15
0.94

> <PUBCHEM_SHAPE_SELFOVERLAP>
856.368

> <PUBCHEM_SHAPE_VOLUME>
237.2

> <PUBCHEM_COORDINATE_TYPE>
2
5
10

$$$$
