11887247
  -OEChem-12032416143D

 53 58  0     1  0  0  0  0  0999 V2000
   -0.1153    3.4376    0.7049 O   0  0  0  0  0  0  0  0  0  0  0  0
    0.1174    0.4554    1.6765 O   0  0  0  0  0  0  0  0  0  0  0  0
   -4.5488    1.3709    1.9257 O   0  0  0  0  0  0  0  0  0  0  0  0
    3.2194   -3.6798   -0.1227 O   0  0  0  0  0  0  0  0  0  0  0  0
    5.1585   -3.4688    1.2927 O   0  0  0  0  0  0  0  0  0  0  0  0
    2.3682    1.9153   -0.8018 N   0  0  0  0  0  0  0  0  0  0  0  0
   -2.7346    0.8940    0.5621 N   0  0  0  0  0  0  0  0  0  0  0  0
    2.1079    2.8885   -1.6803 N   0  0  0  0  0  0  0  0  0  0  0  0
    3.6412    1.4913   -2.4970 N   0  0  0  0  0  0  0  0  0  0  0  0
    2.8916    2.6244   -2.7187 N   0  0  0  0  0  0  0  0  0  0  0  0
    0.3637    1.1192    0.4234 C   0  0  1  0  0  0  0  0  0  0  0  0
   -0.6928    2.1961    0.2715 C   0  0  1  0  0  0  0  0  0  0  0  0
    1.6774    1.8748    0.4898 C   0  0  2  0  0  0  0  0  0  0  0  0
   -1.7958    1.7734    1.2158 C   0  0  2  0  0  0  0  0  0  0  0  0
    1.2634    3.2338    1.0434 C   0  0  0  0  0  0  0  0  0  0  0  0
   -1.0287    1.0467    2.3047 C   0  0  0  0  0  0  0  0  0  0  0  0
    3.2999    1.0691   -1.3013 C   0  0  0  0  0  0  0  0  0  0  0  0
   -4.0516    0.7658    0.9795 C   0  0  0  0  0  0  0  0  0  0  0  0
    3.8092   -0.0895   -0.6133 C   0  0  0  0  0  0  0  0  0  0  0  0
   -4.8840   -0.2007    0.2180 C   0  0  0  0  0  0  0  0  0  0  0  0
    3.1766   -1.3265   -0.7707 C   0  0  0  0  0  0  0  0  0  0  0  0
    4.9414    0.0313    0.2139 C   0  0  0  0  0  0  0  0  0  0  0  0
   -5.9528   -0.8023    0.8494 C   0  0  0  0  0  0  0  0  0  0  0  0
   -4.5623   -0.4648   -1.0973 C   0  0  0  0  0  0  0  0  0  0  0  0
    3.7006   -2.4071   -0.0915 C   0  0  0  0  0  0  0  0  0  0  0  0
    5.4520   -1.0790    0.8905 C   0  0  0  0  0  0  0  0  0  0  0  0
    4.8078   -2.2867    0.7168 C   0  0  0  0  0  0  0  0  0  0  0  0
   -6.7350   -1.7086    0.1335 C   0  0  0  0  0  0  0  0  0  0  0  0
   -5.3447   -1.3710   -1.8132 C   0  0  0  0  0  0  0  0  0  0  0  0
   -6.4310   -1.9929   -1.1978 C   0  0  0  0  0  0  0  0  0  0  0  0
    4.1483   -4.3470    0.7560 C   0  0  0  0  0  0  0  0  0  0  0  0
   -7.2672   -2.9627   -1.9624 C   0  0  0  0  0  0  0  0  0  0  0  0
    0.3136    0.3590   -0.3626 H   0  0  0  0  0  0  0  0  0  0  0  0
   -1.0174    2.3315   -0.7653 H   0  0  0  0  0  0  0  0  0  0  0  0
    2.3851    1.4170    1.1905 H   0  0  0  0  0  0  0  0  0  0  0  0
   -2.3439    2.6226    1.6380 H   0  0  0  0  0  0  0  0  0  0  0  0
    1.3234    3.2324    2.1377 H   0  0  0  0  0  0  0  0  0  0  0  0
    1.8597    4.0756    0.6791 H   0  0  0  0  0  0  0  0  0  0  0  0
   -0.6599    1.7491    3.0603 H   0  0  0  0  0  0  0  0  0  0  0  0
   -1.6059    0.2674    2.8113 H   0  0  0  0  0  0  0  0  0  0  0  0
   -2.3631    0.2775   -0.1531 H   0  0  0  0  0  0  0  0  0  0  0  0
    2.3018   -1.4418   -1.4030 H   0  0  0  0  0  0  0  0  0  0  0  0
    5.4334    0.9940    0.3369 H   0  0  0  0  0  0  0  0  0  0  0  0
   -6.1996   -0.5960    1.8866 H   0  0  0  0  0  0  0  0  0  0  0  0
   -3.7475    0.0229   -1.6221 H   0  0  0  0  0  0  0  0  0  0  0  0
    6.3237   -0.9883    1.5287 H   0  0  0  0  0  0  0  0  0  0  0  0
   -7.5770   -2.1891    0.6249 H   0  0  0  0  0  0  0  0  0  0  0  0
   -5.1014   -1.5804   -2.8517 H   0  0  0  0  0  0  0  0  0  0  0  0
    4.6423   -5.1513    0.1989 H   0  0  0  0  0  0  0  0  0  0  0  0
    3.5884   -4.7881    1.5887 H   0  0  0  0  0  0  0  0  0  0  0  0
   -6.8691   -3.9755   -1.8457 H   0  0  0  0  0  0  0  0  0  0  0  0
   -8.3052   -2.9508   -1.6128 H   0  0  0  0  0  0  0  0  0  0  0  0
   -7.2858   -2.7138   -3.0289 H   0  0  0  0  0  0  0  0  0  0  0  0
  1 12  1  0  0  0  0
  1 15  1  0  0  0  0
  2 11  1  0  0  0  0
  2 16  1  0  0  0  0
  3 18  2  0  0  0  0
  4 25  1  0  0  0  0
  4 31  1  0  0  0  0
  5 27  1  0  0  0  0
  5 31  1  0  0  0  0
  6  8  1  0  0  0  0
  6 13  1  0  0  0  0
  6 17  1  0  0  0  0
  7 14  1  0  0  0  0
  7 18  1  0  0  0  0
  7 41  1  0  0  0  0
  8 10  2  0  0  0  0
  9 10  1  0  0  0  0
  9 17  2  0  0  0  0
 11 12  1  0  0  0  0
 11 13  1  0  0  0  0
 11 33  1  0  0  0  0
 12 14  1  0  0  0  0
 12 34  1  0  0  0  0
 13 15  1  0  0  0  0
 13 35  1  0  0  0  0
 14 16  1  0  0  0  0
 14 36  1  0  0  0  0
 15 37  1  0  0  0  0
 15 38  1  0  0  0  0
 16 39  1  0  0  0  0
 16 40  1  0  0  0  0
 17 19  1  0  0  0  0
 18 20  1  0  0  0  0
 19 21  2  0  0  0  0
 19 22  1  0  0  0  0
 20 23  2  0  0  0  0
 20 24  1  0  0  0  0
 21 25  1  0  0  0  0
 21 42  1  0  0  0  0
 22 26  2  0  0  0  0
 22 43  1  0  0  0  0
 23 28  1  0  0  0  0
 23 44  1  0  0  0  0
 24 29  2  0  0  0  0
 24 45  1  0  0  0  0
 25 27  2  0  0  0  0
 26 27  1  0  0  0  0
 26 46  1  0  0  0  0
 28 30  2  0  0  0  0
 28 47  1  0  0  0  0
 29 30  1  0  0  0  0
 29 48  1  0  0  0  0
 30 32  1  0  0  0  0
 31 49  1  0  0  0  0
 31 50  1  0  0  0  0
 32 51  1  0  0  0  0
 32 52  1  0  0  0  0
 32 53  1  0  0  0  0
M  END
> <PUBCHEM_COMPOUND_CID>
11887247

> <PUBCHEM_CONFORMER_RMSD>
0.8

> <PUBCHEM_CONFORMER_DIVERSEORDER>
1
99
73
104
107
106
69
56
58
102
91
128
60
72
84
19
63
93
39
78
112
76
67
130
14
66
116
53
74
95
123
11
113
98
23
51
89
17
68
61
52
110
57
81
90
94
54
26
79
86
70
83
71
117
65
114
115
13
92
42
96
125
111
87
124
31
48
85
33
88
25
77
45
75
118
129
59
120
119
24
3
20
55
122
108
82
127
6
38
103
101
9
105
21
12
37
44
43
97
121
100
28
22
80
18
10
62
15
29
109
32
7
5
49
2
16
30
64
36
4
126
46
8
40
50
34
47
27
41
35

> <PUBCHEM_MMFF94_PARTIAL_CHARGES>
39
1 -0.56
11 0.28
12 0.28
13 0.26
14 0.3
15 0.28
16 0.28
17 0.13
18 0.54
19 0.05
2 -0.56
20 0.09
21 -0.15
22 -0.15
23 -0.15
24 -0.15
25 0.08
26 -0.15
27 0.08
28 -0.15
29 -0.15
3 -0.57
30 -0.14
31 0.56
32 0.14
4 -0.36
41 0.37
42 0.15
43 0.15
44 0.15
45 0.15
46 0.15
47 0.15
48 0.15
5 -0.36
6 0.31
7 -0.73
8 -0.42
9 -0.34

> <PUBCHEM_EFFECTIVE_ROTOR_COUNT>
6.8

> <PUBCHEM_PHARMACOPHORE_FEATURES>
13
1 1 acceptor
1 2 acceptor
1 3 acceptor
1 4 acceptor
1 5 acceptor
1 7 donor
3 6 9 17 cation
5 1 11 12 13 15 rings
5 2 11 12 14 16 rings
5 4 5 25 27 31 rings
5 6 8 9 10 17 rings
6 19 21 22 25 26 27 rings
6 20 23 24 28 29 30 rings

> <PUBCHEM_HEAVY_ATOM_COUNT>
32

> <PUBCHEM_ATOM_DEF_STEREO_COUNT>
4

> <PUBCHEM_ATOM_UDEF_STEREO_COUNT>
0

> <PUBCHEM_BOND_DEF_STEREO_COUNT>
0

> <PUBCHEM_BOND_UDEF_STEREO_COUNT>
0

> <PUBCHEM_ISOTOPIC_ATOM_COUNT>
0

> <PUBCHEM_COMPONENT_COUNT>
1

> <PUBCHEM_CACTVS_TAUTO_COUNT>
2

> <PUBCHEM_CONFORMER_ID>
00B5628F00000001

> <PUBCHEM_MMFF94_ENERGY>
84.9176

> <PUBCHEM_FEATURE_SELFOVERLAP>
66.822

> <PUBCHEM_SHAPE_FINGERPRINT>
10556698 54 16227143974152411623
10622 236 18338517430775502115
11069576 57 18334588919058693174
11103572 155 18190477124640855163
11135609 149 18187911864210432820
11135926 11 17897190076657573860
11497681 19 18194684770893352014
11607047 403 17985809652862131192
11796584 16 17489039184179053105
12166972 35 18334574616438120350
12422481 6 17131271229751173119
12655364 74 13534512754259379834
12977781 61 18052503682681971633
131258 38 18200586012243168022
14150023 79 17911797187143130216
14347332 77 18272369794042771337
1454969 45 18187940448251236062
15250474 111 18342181098261843871
15264996 154 18341907272285155294
15419009 47 17753318778125685021
15684389 69 18335416839052304258
17134984 74 18195809789371231631
17324776 126 18117548527155067035
17492 89 18124033430224888498
17857418 61 18272090509082435825
19303781 99 18043257842391309578
19315092 285 18131067109149460160
19319366 153 18266743678367788220
20567600 247 18341328968086289491
20775438 99 18263073491032089483
21458453 9 14547581752431304235
21585481 104 17967520291310795485
21585483 132 17915160525062576847
21792938 131 18129933616363890775
23569914 152 17904447777282516855
24893989 43 17198542924921162567
25222932 49 18060698416353413644
2838139 119 12829492566971116851
3004659 81 17488476333062646597
314194 84 18411708694379090275
34797466 226 16588310561617335837
3986486 107 8285913653644172266
4015057 19 18040727973583280145
439807 62 18411134771465157719
4408954 87 17773573053973624438
46194498 28 17676482882256107253
463206 1 18411143532312101442
50009960 94 17971453136518322442
5223283 242 16733262340186394205
57035037 87 13551482493064247006
57527295 17 18340503238954443401
59025328 239 18040721320927189724
59682541 52 18261386797919913327
6058803 2 18194989377709688392
6636735 143 14549015477862527607
66674814 147 18260830367115457138
6677587 24 17099731996359153229
96874 4 18341041943738155827

> <PUBCHEM_SHAPE_MULTIPOLES>
604.29
17.22
4.75
2.07
24.65
2.45
-0.84
18.57
-3.38
-4.93
0.26
0.11
-0.88
-5.32

> <PUBCHEM_SHAPE_SELFOVERLAP>
1349.44

> <PUBCHEM_SHAPE_VOLUME>
323.2

> <PUBCHEM_COORDINATE_TYPE>
2
5
10

$$$$
