44716431
  -OEChem-12032416163D

 69 74  0     1  0  0  0  0  0999 V2000
    0.5604    4.8363    3.5958 Cl  0  0  0  0  0  0  0  0  0  0  0  0
    4.1613    1.6858   -2.0278 O   0  0  0  0  0  0  0  0  0  0  0  0
    2.0838    0.8642   -2.6155 O   0  0  0  0  0  0  0  0  0  0  0  0
    1.3175    0.6226   -0.0002 N   0  0  2  0  0  0  0  0  0  0  0  0
   -2.6409   -0.9967    0.1372 N   0  0  0  0  0  0  0  0  0  0  0  0
    2.3310   -2.9941   -0.0266 N   0  0  0  0  0  0  0  0  0  0  0  0
   -7.5762   -1.1432   -0.3608 N   0  0  0  0  0  0  0  0  0  0  0  0
   -9.5132   -1.1693    0.7250 N   0  0  0  0  0  0  0  0  0  0  0  0
    1.1141   -0.7845   -0.4643 C   0  0  2  0  0  0  0  0  0  0  0  0
    0.2091    1.5136   -0.4274 C   0  0  1  0  0  0  0  0  0  0  0  0
   -0.2153   -1.3445    0.0653 C   0  0  0  0  0  0  0  0  0  0  0  0
   -1.3842   -0.4756   -0.3980 C   0  0  2  0  0  0  0  0  0  0  0  0
   -1.1586    0.9678    0.0494 C   0  0  0  0  0  0  0  0  0  0  0  0
    2.6823    1.1383   -0.2958 C   0  0  1  0  0  0  0  0  0  0  0  0
    2.2786   -1.6282   -0.0395 C   0  0  0  0  0  0  0  0  0  0  0  0
    3.7936    0.3123    0.4008 C   0  0  0  0  0  0  0  0  0  0  0  0
    3.5131   -1.1482    0.3401 C   0  0  0  0  0  0  0  0  0  0  0  0
    0.3342    2.9496    0.0757 C   0  0  0  0  0  0  0  0  0  0  0  0
    4.3429   -2.2649    0.6310 C   0  0  0  0  0  0  0  0  0  0  0  0
    3.5765   -3.4104    0.3937 C   0  0  0  0  0  0  0  0  0  0  0  0
    2.9112    1.2017   -1.7796 C   0  0  0  0  0  0  0  0  0  0  0  0
   -3.7706   -0.5271   -0.6499 C   0  0  0  0  0  0  0  0  0  0  0  0
    0.3850    3.2070    1.4458 C   0  0  0  0  0  0  0  0  0  0  0  0
    0.3987    4.0044   -0.8349 C   0  0  0  0  0  0  0  0  0  0  0  0
    5.6735   -2.4188    1.0691 C   0  0  0  0  0  0  0  0  0  0  0  0
    4.0788   -4.7040    0.5753 C   0  0  0  0  0  0  0  0  0  0  0  0
   -5.0758   -1.0981   -0.0978 C   0  0  0  0  0  0  0  0  0  0  0  0
    6.1871   -3.7070    1.2563 C   0  0  0  0  0  0  0  0  0  0  0  0
    0.5002    4.5189    1.9053 C   0  0  0  0  0  0  0  0  0  0  0  0
    0.5137    5.3164   -0.3753 C   0  0  0  0  0  0  0  0  0  0  0  0
    5.4002   -4.8307    1.0128 C   0  0  0  0  0  0  0  0  0  0  0  0
   -6.2767   -0.6221   -0.9192 C   0  0  0  0  0  0  0  0  0  0  0  0
    0.5647    5.5737    0.9947 C   0  0  0  0  0  0  0  0  0  0  0  0
    4.5134    1.7997   -3.4103 C   0  0  0  0  0  0  0  0  0  0  0  0
   -8.0705   -2.4086   -0.5076 C   0  0  0  0  0  0  0  0  0  0  0  0
   -8.4765   -0.4356    0.3863 C   0  0  0  0  0  0  0  0  0  0  0  0
   -9.2663   -2.4005    0.1709 C   0  0  0  0  0  0  0  0  0  0  0  0
    1.0600   -0.8400   -1.5572 H   0  0  0  0  0  0  0  0  0  0  0  0
    0.1543    1.5421   -1.5218 H   0  0  0  0  0  0  0  0  0  0  0  0
   -0.3624   -2.3711   -0.2955 H   0  0  0  0  0  0  0  0  0  0  0  0
   -0.1899   -1.4010    1.1631 H   0  0  0  0  0  0  0  0  0  0  0  0
   -1.4016   -0.5163   -1.4962 H   0  0  0  0  0  0  0  0  0  0  0  0
   -1.2340    1.0135    1.1447 H   0  0  0  0  0  0  0  0  0  0  0  0
   -1.9504    1.6206   -0.3393 H   0  0  0  0  0  0  0  0  0  0  0  0
    2.7830    2.1637    0.0786 H   0  0  0  0  0  0  0  0  0  0  0  0
    4.7860    0.5163   -0.0154 H   0  0  0  0  0  0  0  0  0  0  0  0
    3.8275    0.5995    1.4603 H   0  0  0  0  0  0  0  0  0  0  0  0
   -2.6272   -2.0165    0.1159 H   0  0  0  0  0  0  0  0  0  0  0  0
    1.5746   -3.6134   -0.2827 H   0  0  0  0  0  0  0  0  0  0  0  0
   -3.6633   -0.8367   -1.6970 H   0  0  0  0  0  0  0  0  0  0  0  0
   -3.8387    0.5656   -0.6293 H   0  0  0  0  0  0  0  0  0  0  0  0
    0.3461    2.3886    2.1609 H   0  0  0  0  0  0  0  0  0  0  0  0
    0.3618    3.8198   -1.9050 H   0  0  0  0  0  0  0  0  0  0  0  0
    6.2994   -1.5521    1.2621 H   0  0  0  0  0  0  0  0  0  0  0  0
    3.4679   -5.5801    0.3845 H   0  0  0  0  0  0  0  0  0  0  0  0
   -5.0395   -2.1951   -0.1035 H   0  0  0  0  0  0  0  0  0  0  0  0
   -5.2049   -0.7940    0.9491 H   0  0  0  0  0  0  0  0  0  0  0  0
    7.2123   -3.8307    1.5950 H   0  0  0  0  0  0  0  0  0  0  0  0
    0.5642    6.1376   -1.0843 H   0  0  0  0  0  0  0  0  0  0  0  0
    5.8197   -5.8221    1.1640 H   0  0  0  0  0  0  0  0  0  0  0  0
   -6.2368   -0.9816   -1.9533 H   0  0  0  0  0  0  0  0  0  0  0  0
   -6.3649    0.4697   -0.9211 H   0  0  0  0  0  0  0  0  0  0  0  0
    0.6544    6.6011    1.3383 H   0  0  0  0  0  0  0  0  0  0  0  0
    5.5302    2.1965   -3.4706 H   0  0  0  0  0  0  0  0  0  0  0  0
    3.8350    2.4920   -3.9178 H   0  0  0  0  0  0  0  0  0  0  0  0
    4.4912    0.8157   -3.8884 H   0  0  0  0  0  0  0  0  0  0  0  0
   -7.5485   -3.1765   -1.0610 H   0  0  0  0  0  0  0  0  0  0  0  0
   -8.3245    0.6017    0.6513 H   0  0  0  0  0  0  0  0  0  0  0  0
   -9.9620   -3.2184    0.2886 H   0  0  0  0  0  0  0  0  0  0  0  0
  1 29  1  0  0  0  0
  2 21  1  0  0  0  0
  2 34  1  0  0  0  0
  3 21  2  0  0  0  0
  4  9  1  0  0  0  0
  4 10  1  0  0  0  0
  4 14  1  0  0  0  0
  5 12  1  0  0  0  0
  5 22  1  0  0  0  0
  5 48  1  0  0  0  0
  6 15  1  0  0  0  0
  6 20  1  0  0  0  0
  6 49  1  0  0  0  0
  7 32  1  0  0  0  0
  7 35  1  0  0  0  0
  7 36  1  0  0  0  0
  8 36  2  0  0  0  0
  8 37  1  0  0  0  0
  9 11  1  0  0  0  0
  9 15  1  0  0  0  0
  9 38  1  0  0  0  0
 10 13  1  0  0  0  0
 10 18  1  0  0  0  0
 10 39  1  0  0  0  0
 11 12  1  0  0  0  0
 11 40  1  0  0  0  0
 11 41  1  0  0  0  0
 12 13  1  0  0  0  0
 12 42  1  0  0  0  0
 13 43  1  0  0  0  0
 13 44  1  0  0  0  0
 14 16  1  0  0  0  0
 14 21  1  0  0  0  0
 14 45  1  0  0  0  0
 15 17  2  0  0  0  0
 16 17  1  0  0  0  0
 16 46  1  0  0  0  0
 16 47  1  0  0  0  0
 17 19  1  0  0  0  0
 18 23  2  0  0  0  0
 18 24  1  0  0  0  0
 19 20  1  0  0  0  0
 19 25  2  0  0  0  0
 20 26  2  0  0  0  0
 22 27  1  0  0  0  0
 22 50  1  0  0  0  0
 22 51  1  0  0  0  0
 23 29  1  0  0  0  0
 23 52  1  0  0  0  0
 24 30  2  0  0  0  0
 24 53  1  0  0  0  0
 25 28  1  0  0  0  0
 25 54  1  0  0  0  0
 26 31  1  0  0  0  0
 26 55  1  0  0  0  0
 27 32  1  0  0  0  0
 27 56  1  0  0  0  0
 27 57  1  0  0  0  0
 28 31  2  0  0  0  0
 28 58  1  0  0  0  0
 29 33  2  0  0  0  0
 30 33  1  0  0  0  0
 30 59  1  0  0  0  0
 31 60  1  0  0  0  0
 32 61  1  0  0  0  0
 32 62  1  0  0  0  0
 33 63  1  0  0  0  0
 34 64  1  0  0  0  0
 34 65  1  0  0  0  0
 34 66  1  0  0  0  0
 35 37  2  0  0  0  0
 35 67  1  0  0  0  0
 36 68  1  0  0  0  0
 37 69  1  0  0  0  0
M  END
> <PUBCHEM_COMPOUND_CID>
44716431

> <PUBCHEM_CONFORMER_RMSD>
1

> <PUBCHEM_CONFORMER_DIVERSEORDER>
1
134
56
117
174
113
102
163
32
153
75
60
136
22
107
161
98
123
120
68
131
29
121
156
96
34
111
91
168
125
129
147
48
42
128
78
132
54
16
67
13
79
74
35
5
41
166
122
100
3
27
110
139
157
145
130
81
15
126
92
165
101
52
72
77
169
4
25
7
118
124
87
160
99
17
30
150
14
84
140
55
171
18
173
167
9
95
154
51
85
148
133
49
137
104
112
93
36
46
76
135
50
146
109
103
119
114
97
164
80
144
64
159
142
20
45
40
155
63
175
33
90
37
105
162
43
69
70
94
127
39
172
116
61
26
6
83
57
38
11
24
138
59
19
31
106
141
151
82
10
89
23
86
149
2
21
12
152
143
108
8
47
62
28
158
66
73
170
65
71
88
58
53
115
44

> <PUBCHEM_MMFF94_PARTIAL_CHARGES>
46
1 -0.18
10 0.41
12 0.27
14 0.33
15 -0.33
16 0.18
17 -0.18
18 -0.14
2 -0.43
20 -0.15
21 0.66
22 0.27
23 -0.15
24 -0.15
25 -0.15
26 -0.15
28 -0.15
29 0.18
3 -0.57
30 -0.15
31 -0.15
32 0.26
33 -0.15
34 0.28
35 -0.3
36 0.04
37 0.08
4 -0.81
48 0.36
49 0.27
5 -0.9
52 0.15
53 0.15
54 0.15
55 0.15
58 0.15
59 0.15
6 0.03
60 0.15
63 0.15
67 0.15
68 0.15
69 0.15
7 0.05
8 -0.57
9 0.45

> <PUBCHEM_EFFECTIVE_ROTOR_COUNT>
9.2

> <PUBCHEM_PHARMACOPHORE_FEATURES>
13
1 3 acceptor
1 4 cation
1 5 cation
1 5 donor
1 6 cation
1 6 donor
3 7 8 36 cation
5 6 15 17 19 20 rings
5 7 8 35 36 37 rings
6 18 23 24 29 30 33 rings
6 19 20 25 26 28 31 rings
6 4 9 10 11 12 13 rings
6 4 9 14 15 16 17 rings

> <PUBCHEM_HEAVY_ATOM_COUNT>
37

> <PUBCHEM_ATOM_DEF_STEREO_COUNT>
4

> <PUBCHEM_ATOM_UDEF_STEREO_COUNT>
0

> <PUBCHEM_BOND_DEF_STEREO_COUNT>
0

> <PUBCHEM_BOND_UDEF_STEREO_COUNT>
0

> <PUBCHEM_ISOTOPIC_ATOM_COUNT>
0

> <PUBCHEM_COMPONENT_COUNT>
1

> <PUBCHEM_CACTVS_TAUTO_COUNT>
1

> <PUBCHEM_CONFORMER_ID>
02AA518F00000001

> <PUBCHEM_MMFF94_ENERGY>
70.2946

> <PUBCHEM_FEATURE_SELFOVERLAP>
66.168

> <PUBCHEM_SHAPE_FINGERPRINT>
10169797 241 18131347553477145485
10411042 1 18337387128284678850
10721379 63 18057328486308060001
10952577 141 11814460884545623962
11331351 85 17703789185276716173
11456790 92 18409737232214663107
12293681 160 18050595086032509404
12342043 65 18113891672740883391
13008946 170 18265324191597319093
13248334 5 18265612267786191769
13540713 5 18265349312671427940
13782708 43 17894344463624892631
14068700 675 18189895323263106862
14400156 413 18262223495798543005
15351339 4 17986689253269209001
15439362 3 17693095579767137156
16096371 109 18055061327976200561
17980427 26 17910375505437872005
18365409 1 17689429391393254869
19301679 30 18198060274730524894
21133410 230 18338782495242124120
21344244 78 18339632374421090154
21716022 299 18187937153098899084
21792965 184 18129111017528545146
6697151 62 18194088916904910255
70251023 43 18261952934359565690

> <PUBCHEM_SHAPE_MULTIPOLES>
726.67
19.37
8.08
2.07
66.27
8.12
0.35
-31.96
-1.12
-9.62
-5.08
-3.01
3.18
-3.56

> <PUBCHEM_SHAPE_SELFOVERLAP>
1577.223

> <PUBCHEM_SHAPE_VOLUME>
397.5

> <PUBCHEM_COORDINATE_TYPE>
2
5
10

$$$$
