45783286
  -OEChem-12032416343D

 59 64  0     1  0  0  0  0  0999 V2000
   -2.8653   -1.4739    1.9637 O   0  0  0  0  0  0  0  0  0  0  0  0
    5.3311   -0.8120   -2.6698 O   0  0  0  0  0  0  0  0  0  0  0  0
   -3.6774   -0.4099   -1.4591 N   0  0  1  0  0  0  0  0  0  0  0  0
   -1.3960   -1.2011    0.2954 N   0  0  0  0  0  0  0  0  0  0  0  0
    3.6089   -0.9364   -0.4522 N   0  0  0  0  0  0  0  0  0  0  0  0
   -1.5953   -1.5112    2.5533 N   0  0  0  0  0  0  0  0  0  0  0  0
   -1.8354    2.9689    1.2274 N   0  0  0  0  0  0  0  0  0  0  0  0
    3.4292   -1.2551    1.8860 N   0  0  0  0  0  0  0  0  0  0  0  0
   -3.8932   -1.2117   -0.2381 C   0  0  1  0  0  0  0  0  0  0  0  0
   -4.3458   -2.5912   -0.7510 C   0  0  0  0  0  0  0  0  0  0  0  0
   -4.4135   -2.4501   -2.2650 C   0  0  0  0  0  0  0  0  0  0  0  0
   -4.5733   -0.9582   -2.4774 C   0  0  0  0  0  0  0  0  0  0  0  0
   -3.8888    1.0173   -1.2540 C   0  0  0  0  0  0  0  0  0  0  0  0
   -2.6575   -1.2888    0.6338 C   0  0  0  0  0  0  0  0  0  0  0  0
   -2.7240    1.6794   -0.6097 C   0  0  0  0  0  0  0  0  0  0  0  0
   -1.4660    1.6493   -1.1939 C   0  0  0  0  0  0  0  0  0  0  0  0
   -0.7825   -1.3433    1.5060 C   0  0  0  0  0  0  0  0  0  0  0  0
   -2.8541    2.3467    0.5912 C   0  0  0  0  0  0  0  0  0  0  0  0
    0.6459   -1.3145    1.6346 C   0  0  0  0  0  0  0  0  0  0  0  0
   -0.3828    2.2809   -0.5680 C   0  0  0  0  0  0  0  0  0  0  0  0
    3.5040   -1.9286   -1.5308 C   0  0  0  0  0  0  0  0  0  0  0  0
    4.9102   -0.2678   -0.3432 C   0  0  0  0  0  0  0  0  0  0  0  0
    2.8186   -1.1146    0.6881 C   0  0  0  0  0  0  0  0  0  0  0  0
    4.0096   -1.3253   -2.8363 C   0  0  0  0  0  0  0  0  0  0  0  0
    5.3415    0.2463   -1.7123 C   0  0  0  0  0  0  0  0  0  0  0  0
   -0.6156    2.9382    0.6583 C   0  0  0  0  0  0  0  0  0  0  0  0
    1.4447   -1.1367    0.5104 C   0  0  0  0  0  0  0  0  0  0  0  0
    1.2371   -1.4626    2.8844 C   0  0  0  0  0  0  0  0  0  0  0  0
    0.9034    2.2686   -1.1337 C   0  0  0  0  0  0  0  0  0  0  0  0
    0.4607    3.5657    1.2793 C   0  0  0  0  0  0  0  0  0  0  0  0
    2.6204   -1.4259    2.9558 C   0  0  0  0  0  0  0  0  0  0  0  0
    1.9617    2.9042   -0.4907 C   0  0  0  0  0  0  0  0  0  0  0  0
    1.7396    3.5537    0.7173 C   0  0  0  0  0  0  0  0  0  0  0  0
   -4.7147   -0.7946    0.3614 H   0  0  0  0  0  0  0  0  0  0  0  0
   -3.6769   -3.4106   -0.4662 H   0  0  0  0  0  0  0  0  0  0  0  0
   -5.3444   -2.8206   -0.3593 H   0  0  0  0  0  0  0  0  0  0  0  0
   -5.2364   -3.0264   -2.6980 H   0  0  0  0  0  0  0  0  0  0  0  0
   -3.4767   -2.8024   -2.7144 H   0  0  0  0  0  0  0  0  0  0  0  0
   -5.6154   -0.6592   -2.3069 H   0  0  0  0  0  0  0  0  0  0  0  0
   -4.2785   -0.6624   -3.4890 H   0  0  0  0  0  0  0  0  0  0  0  0
   -4.8192    1.2104   -0.7033 H   0  0  0  0  0  0  0  0  0  0  0  0
   -4.0220    1.5127   -2.2264 H   0  0  0  0  0  0  0  0  0  0  0  0
   -1.3205    1.1372   -2.1432 H   0  0  0  0  0  0  0  0  0  0  0  0
   -3.8082    2.4086    1.1054 H   0  0  0  0  0  0  0  0  0  0  0  0
    4.1179   -2.7975   -1.2626 H   0  0  0  0  0  0  0  0  0  0  0  0
    2.4779   -2.2805   -1.6819 H   0  0  0  0  0  0  0  0  0  0  0  0
    4.8600    0.5758    0.3552 H   0  0  0  0  0  0  0  0  0  0  0  0
    5.6482   -0.9858    0.0349 H   0  0  0  0  0  0  0  0  0  0  0  0
    3.3485   -0.5241   -3.1884 H   0  0  0  0  0  0  0  0  0  0  0  0
    4.0434   -2.0942   -3.6146 H   0  0  0  0  0  0  0  0  0  0  0  0
    6.3606    0.6421   -1.6582 H   0  0  0  0  0  0  0  0  0  0  0  0
    4.6886    1.0567   -2.0585 H   0  0  0  0  0  0  0  0  0  0  0  0
    1.0085   -1.0010   -0.4749 H   0  0  0  0  0  0  0  0  0  0  0  0
    0.6656   -1.6037    3.7958 H   0  0  0  0  0  0  0  0  0  0  0  0
    1.0892    1.7606   -2.0775 H   0  0  0  0  0  0  0  0  0  0  0  0
    0.3132    4.0807    2.2268 H   0  0  0  0  0  0  0  0  0  0  0  0
    3.1309   -1.5363    3.9069 H   0  0  0  0  0  0  0  0  0  0  0  0
    2.9546    2.8902   -0.9295 H   0  0  0  0  0  0  0  0  0  0  0  0
    2.5599    4.0512    1.2264 H   0  0  0  0  0  0  0  0  0  0  0  0
  1  6  1  0  0  0  0
  1 14  1  0  0  0  0
  2 24  1  0  0  0  0
  2 25  1  0  0  0  0
  3  9  1  0  0  0  0
  3 12  1  0  0  0  0
  3 13  1  0  0  0  0
  4 14  2  0  0  0  0
  4 17  1  0  0  0  0
  5 21  1  0  0  0  0
  5 22  1  0  0  0  0
  5 23  1  0  0  0  0
  6 17  2  0  0  0  0
  7 18  2  0  0  0  0
  7 26  1  0  0  0  0
  8 23  2  0  0  0  0
  8 31  1  0  0  0  0
  9 10  1  0  0  0  0
  9 14  1  0  0  0  0
  9 34  1  0  0  0  0
 10 11  1  0  0  0  0
 10 35  1  0  0  0  0
 10 36  1  0  0  0  0
 11 12  1  0  0  0  0
 11 37  1  0  0  0  0
 11 38  1  0  0  0  0
 12 39  1  0  0  0  0
 12 40  1  0  0  0  0
 13 15  1  0  0  0  0
 13 41  1  0  0  0  0
 13 42  1  0  0  0  0
 15 16  2  0  0  0  0
 15 18  1  0  0  0  0
 16 20  1  0  0  0  0
 16 43  1  0  0  0  0
 17 19  1  0  0  0  0
 18 44  1  0  0  0  0
 19 27  2  0  0  0  0
 19 28  1  0  0  0  0
 20 26  1  0  0  0  0
 20 29  2  0  0  0  0
 21 24  1  0  0  0  0
 21 45  1  0  0  0  0
 21 46  1  0  0  0  0
 22 25  1  0  0  0  0
 22 47  1  0  0  0  0
 22 48  1  0  0  0  0
 23 27  1  0  0  0  0
 24 49  1  0  0  0  0
 24 50  1  0  0  0  0
 25 51  1  0  0  0  0
 25 52  1  0  0  0  0
 26 30  2  0  0  0  0
 27 53  1  0  0  0  0
 28 31  2  0  0  0  0
 28 54  1  0  0  0  0
 29 32  1  0  0  0  0
 29 55  1  0  0  0  0
 30 33  1  0  0  0  0
 30 56  1  0  0  0  0
 31 57  1  0  0  0  0
 32 33  2  0  0  0  0
 32 58  1  0  0  0  0
 33 59  1  0  0  0  0
M  END
> <PUBCHEM_COMPOUND_CID>
45783286

> <PUBCHEM_CONFORMER_RMSD>
1

> <PUBCHEM_CONFORMER_DIVERSEORDER>
1
181
84
117
182
143
155
20
220
146
240
83
205
87
50
216
5
232
149
186
38
203
151
47
110
90
3
190
157
27
222
156
241
164
223
32
124
64
215
107
154
81
230
115
92
242
198
72
89
139
123
54
150
19
163
40
244
112
62
102
42
122
209
70
225
33
44
169
228
245
93
80
39
202
234
4
43
35
170
53
7
187
108
52
78
57
236
41
212
71
104
193
214
101
95
136
2
243
178
148
22
195
29
85
98
160
105
116
179
218
76
25
194
173
188
175
69
68
211
127
196
177
140
239
94
31
158
74
23
128
26
233
138
176
197
145
75
137
135
229
125
172
21
192
134
231
28
48
226
18
171
213
34
221
14
235
217
121
60
109
37
227
180
191
113
59
97
8
142
17
208
238
120
11
77
185
204
133
237
119
207
206
183
201
49
91
51
100
114
159
16
132
106
63
200
61
129
30
99
189
118
144
165
174
126
162
224
36
167
184
58
141
131
130
147
55
210
73
96
13
152
88
56
66
153
168
6
67
45
86
10
161
79
24
111
15
46
199
9
12
103
166
219
65
82

> <PUBCHEM_MMFF94_PARTIAL_CHARGES>
39
1 -0.02
12 0.27
13 0.41
14 0.3
15 -0.14
16 -0.15
17 0.46
18 0.16
19 0.05
2 -0.56
21 0.37
22 0.37
23 0.41
24 0.28
25 0.28
26 0.31
27 -0.15
28 -0.15
29 -0.15
3 -0.81
30 -0.15
31 0.16
32 -0.15
33 -0.15
4 -0.57
43 0.15
44 0.15
5 -0.84
53 0.15
54 0.15
55 0.15
56 0.15
57 0.15
58 0.15
59 0.15
6 -0.41
7 -0.62
8 -0.62
9 0.45

> <PUBCHEM_EFFECTIVE_ROTOR_COUNT>
7.2

> <PUBCHEM_PHARMACOPHORE_FEATURES>
11
1 2 acceptor
1 3 cation
1 7 acceptor
3 4 6 17 cation
3 5 8 23 cation
5 1 4 6 14 17 rings
5 3 9 10 11 12 rings
6 2 5 21 22 24 25 rings
6 20 26 29 30 32 33 rings
6 7 15 16 18 20 26 rings
6 8 19 23 27 28 31 rings

> <PUBCHEM_HEAVY_ATOM_COUNT>
33

> <PUBCHEM_ATOM_DEF_STEREO_COUNT>
1

> <PUBCHEM_ATOM_UDEF_STEREO_COUNT>
0

> <PUBCHEM_BOND_DEF_STEREO_COUNT>
0

> <PUBCHEM_BOND_UDEF_STEREO_COUNT>
0

> <PUBCHEM_ISOTOPIC_ATOM_COUNT>
0

> <PUBCHEM_COMPONENT_COUNT>
1

> <PUBCHEM_CACTVS_TAUTO_COUNT>
1

> <PUBCHEM_CONFORMER_ID>
02BA98F600000001

> <PUBCHEM_MMFF94_ENERGY>
87.5597

> <PUBCHEM_FEATURE_SELFOVERLAP>
55.857

> <PUBCHEM_SHAPE_FINGERPRINT>
1100329 8 18192688104689342889
11578080 2 17203325581178502504
12166972 35 16880164768463288338
12596599 1 18200297828327015345
12788726 201 18193275191499299969
13111901 137 17024029457515346827
13383661 66 16541872932051215559
13761468 95 17612890196649822684
14114206 34 18187377492805849268
14910302 57 17702655549685854726
14931854 50 18040713666857326118
15968369 153 18340504338434163201
16090146 7 17917421026927798255
17138139 8 18260828224363963510
17357779 13 18336842969255892960
17492 54 17895475821590779261
17909252 39 18129103492666266372
19319366 153 17607238763070919867
20691752 17 17169523330087755437
20764821 26 18195245512189026390
20775438 99 17619600911173074463
20905425 154 18118949533096471665
21315764 21 16154813649184576547
21792965 270 14883721801690991632
238918 7 17541931431044808984
70251023 43 18270122434650322279

> <PUBCHEM_SHAPE_MULTIPOLES>
637.5
9.78
4.18
3.01
2.76
4.14
0.34
-6.51
-7.94
-1.03
0.6
1.79
-2.18
-0.52

> <PUBCHEM_SHAPE_SELFOVERLAP>
1408.844

> <PUBCHEM_SHAPE_VOLUME>
341.7

> <PUBCHEM_COORDINATE_TYPE>
2
5
10

$$$$
