7673970
  -OEChem-12032416133D

 69 72  0     1  0  0  0  0  0999 V2000
   -3.2802    0.9584    1.5446 O   0  0  0  0  0  0  0  0  0  0  0  0
   -3.1857   -0.8848   -1.4402 O   0  0  0  0  0  0  0  0  0  0  0  0
   -4.5738    3.1782   -2.2362 O   0  0  0  0  0  0  0  0  0  0  0  0
    2.4263    2.0588    0.2726 O   0  0  0  0  0  0  0  0  0  0  0  0
   -2.7906   -7.0020   -0.1802 O   0  0  0  0  0  0  0  0  0  0  0  0
    9.5928   -0.2696   -0.4311 O   0  0  0  0  0  0  0  0  0  0  0  0
   -1.6291   -0.7266    0.2975 N   0  0  0  0  0  0  0  0  0  0  0  0
    0.9613    0.3317    0.7474 N   0  0  0  0  0  0  0  0  0  0  0  0
   -2.9423    2.5264   -0.1427 N   0  0  0  0  0  0  0  0  0  0  0  0
   -5.2594    5.0869   -1.1851 N   0  0  0  0  0  0  0  0  0  0  0  0
    3.2633   -0.1041    0.4798 N   0  0  0  0  0  0  0  0  0  0  0  0
   -1.4017    0.7081    0.0931 C   0  0  2  0  0  0  0  0  0  0  0  0
   -0.1823    1.2404    0.8508 C   0  0  0  0  0  0  0  0  0  0  0  0
   -0.7868   -1.3622    1.3179 C   0  0  0  0  0  0  0  0  0  0  0  0
    0.6830   -1.0902    1.0045 C   0  0  0  0  0  0  0  0  0  0  0  0
   -4.0917    3.3520    0.1226 C   0  0  1  0  0  0  0  0  0  0  0  0
   -2.6353    1.3959    0.5952 C   0  0  0  0  0  0  0  0  0  0  0  0
   -3.7531    4.4473    1.1244 C   0  0  0  0  0  0  0  0  0  0  0  0
   -4.9276    5.4038    1.2504 C   0  0  0  0  0  0  0  0  0  0  0  0
   -2.4770   -1.4109   -0.5828 C   0  0  0  0  0  0  0  0  0  0  0  0
   -5.1909    6.0462   -0.0984 C   0  0  0  0  0  0  0  0  0  0  0  0
   -4.6205    3.8638   -1.2128 C   0  0  0  0  0  0  0  0  0  0  0  0
    2.2486    0.8571    0.4817 C   0  0  0  0  0  0  0  0  0  0  0  0
   -2.5580   -2.8738   -0.4770 C   0  0  0  0  0  0  0  0  0  0  0  0
   -1.6897   -3.6711   -1.2178 C   0  0  0  0  0  0  0  0  0  0  0  0
   -3.5036   -3.4548    0.3634 C   0  0  0  0  0  0  0  0  0  0  0  0
    4.6475    0.0934    0.2453 C   0  0  0  0  0  0  0  0  0  0  0  0
   -1.7677   -5.0601   -1.1174 C   0  0  0  0  0  0  0  0  0  0  0  0
   -3.5814   -4.8440    0.4638 C   0  0  0  0  0  0  0  0  0  0  0  0
   -2.7135   -5.6466   -0.2766 C   0  0  0  0  0  0  0  0  0  0  0  0
    5.1305    1.3728   -0.0182 C   0  0  0  0  0  0  0  0  0  0  0  0
    5.5175   -0.9933    0.2795 C   0  0  0  0  0  0  0  0  0  0  0  0
    6.4925    1.5666   -0.2491 C   0  0  0  0  0  0  0  0  0  0  0  0
    6.8795   -0.7996    0.0488 C   0  0  0  0  0  0  0  0  0  0  0  0
    7.3669    0.4804   -0.2156 C   0  0  0  0  0  0  0  0  0  0  0  0
    8.7870    0.6821   -0.4552 C   0  0  0  0  0  0  0  0  0  0  0  0
   -3.7819   -7.5353    0.6967 C   0  0  0  0  0  0  0  0  0  0  0  0
    9.3272    2.0785   -0.7437 C   0  0  0  0  0  0  0  0  0  0  0  0
   -1.2786    0.8675   -0.9853 H   0  0  0  0  0  0  0  0  0  0  0  0
    0.0747    2.2406    0.4850 H   0  0  0  0  0  0  0  0  0  0  0  0
   -0.3940    1.3542    1.9223 H   0  0  0  0  0  0  0  0  0  0  0  0
   -0.9577   -2.4379    1.3896 H   0  0  0  0  0  0  0  0  0  0  0  0
   -1.0653   -0.9281    2.2856 H   0  0  0  0  0  0  0  0  0  0  0  0
    1.3069   -1.4244    1.8405 H   0  0  0  0  0  0  0  0  0  0  0  0
    0.9835   -1.6458    0.1082 H   0  0  0  0  0  0  0  0  0  0  0  0
   -4.8838    2.7192    0.5441 H   0  0  0  0  0  0  0  0  0  0  0  0
   -2.8577    4.9975    0.8065 H   0  0  0  0  0  0  0  0  0  0  0  0
   -3.5221    4.0081    2.1021 H   0  0  0  0  0  0  0  0  0  0  0  0
   -2.3168    2.8109   -0.8914 H   0  0  0  0  0  0  0  0  0  0  0  0
   -5.8168    4.8572    1.5871 H   0  0  0  0  0  0  0  0  0  0  0  0
   -4.7155    6.1752    1.9986 H   0  0  0  0  0  0  0  0  0  0  0  0
   -6.1326    6.6039   -0.0862 H   0  0  0  0  0  0  0  0  0  0  0  0
   -4.3886    6.7487   -0.3500 H   0  0  0  0  0  0  0  0  0  0  0  0
   -5.6664    5.4114   -2.0569 H   0  0  0  0  0  0  0  0  0  0  0  0
    3.0100   -1.0701    0.6578 H   0  0  0  0  0  0  0  0  0  0  0  0
   -0.9489   -3.2232   -1.8748 H   0  0  0  0  0  0  0  0  0  0  0  0
   -4.1833   -2.8368    0.9442 H   0  0  0  0  0  0  0  0  0  0  0  0
   -1.0889   -5.6801   -1.6966 H   0  0  0  0  0  0  0  0  0  0  0  0
   -4.3390   -5.2331    1.1355 H   0  0  0  0  0  0  0  0  0  0  0  0
    4.5244    2.2655   -0.0616 H   0  0  0  0  0  0  0  0  0  0  0  0
    5.1501   -1.9954    0.4844 H   0  0  0  0  0  0  0  0  0  0  0  0
    6.8310    2.5782   -0.4508 H   0  0  0  0  0  0  0  0  0  0  0  0
    7.5408   -1.6614    0.0804 H   0  0  0  0  0  0  0  0  0  0  0  0
   -3.5968   -7.2456    1.7367 H   0  0  0  0  0  0  0  0  0  0  0  0
   -3.7018   -8.6263    0.6498 H   0  0  0  0  0  0  0  0  0  0  0  0
   -4.7932   -7.2746    0.3667 H   0  0  0  0  0  0  0  0  0  0  0  0
    8.8804    2.4752   -1.6590 H   0  0  0  0  0  0  0  0  0  0  0  0
    9.1410    2.7393    0.1069 H   0  0  0  0  0  0  0  0  0  0  0  0
   10.4100    2.0192   -0.8946 H   0  0  0  0  0  0  0  0  0  0  0  0
  1 17  2  0  0  0  0
  2 20  2  0  0  0  0
  3 22  2  0  0  0  0
  4 23  2  0  0  0  0
  5 30  1  0  0  0  0
  5 37  1  0  0  0  0
  6 36  2  0  0  0  0
  7 12  1  0  0  0  0
  7 14  1  0  0  0  0
  7 20  1  0  0  0  0
  8 13  1  0  0  0  0
  8 15  1  0  0  0  0
  8 23  1  0  0  0  0
  9 16  1  0  0  0  0
  9 17  1  0  0  0  0
  9 49  1  0  0  0  0
 10 21  1  0  0  0  0
 10 22  1  0  0  0  0
 10 54  1  0  0  0  0
 11 23  1  0  0  0  0
 11 27  1  0  0  0  0
 11 55  1  0  0  0  0
 12 13  1  0  0  0  0
 12 17  1  0  0  0  0
 12 39  1  0  0  0  0
 13 40  1  0  0  0  0
 13 41  1  0  0  0  0
 14 15  1  0  0  0  0
 14 42  1  0  0  0  0
 14 43  1  0  0  0  0
 15 44  1  0  0  0  0
 15 45  1  0  0  0  0
 16 18  1  0  0  0  0
 16 22  1  0  0  0  0
 16 46  1  0  0  0  0
 18 19  1  0  0  0  0
 18 47  1  0  0  0  0
 18 48  1  0  0  0  0
 19 21  1  0  0  0  0
 19 50  1  0  0  0  0
 19 51  1  0  0  0  0
 20 24  1  0  0  0  0
 21 52  1  0  0  0  0
 21 53  1  0  0  0  0
 24 25  2  0  0  0  0
 24 26  1  0  0  0  0
 25 28  1  0  0  0  0
 25 56  1  0  0  0  0
 26 29  2  0  0  0  0
 26 57  1  0  0  0  0
 27 31  2  0  0  0  0
 27 32  1  0  0  0  0
 28 30  2  0  0  0  0
 28 58  1  0  0  0  0
 29 30  1  0  0  0  0
 29 59  1  0  0  0  0
 31 33  1  0  0  0  0
 31 60  1  0  0  0  0
 32 34  2  0  0  0  0
 32 61  1  0  0  0  0
 33 35  2  0  0  0  0
 33 62  1  0  0  0  0
 34 35  1  0  0  0  0
 34 63  1  0  0  0  0
 35 36  1  0  0  0  0
 36 38  1  0  0  0  0
 37 64  1  0  0  0  0
 37 65  1  0  0  0  0
 37 66  1  0  0  0  0
 38 67  1  0  0  0  0
 38 68  1  0  0  0  0
 38 69  1  0  0  0  0
M  END
> <PUBCHEM_COMPOUND_CID>
7673970

> <PUBCHEM_CONFORMER_RMSD>
1.2

> <PUBCHEM_CONFORMER_DIVERSEORDER>
1
16
65
19
41
54
44
13
57
23
22
61
2
28
63
52
69
29
36
27
18
49
15
17
10
39
30
43
58
14
7
56
55
59
5
60
31
3
50
32
53
34
33
6
46
12
64
40
51
26
62
4
67
11
45
20
25
35
24
38
47
68
48
37
8
66
21
9
42

> <PUBCHEM_MMFF94_PARTIAL_CHARGES>
47
1 -0.57
10 -0.73
11 -0.55
12 0.36
13 0.3
14 0.3
15 0.3
16 0.36
17 0.57
2 -0.57
20 0.54
21 0.3
22 0.57
23 0.69
24 0.09
25 -0.15
26 -0.15
27 0.12
28 -0.15
29 -0.15
3 -0.57
30 0.08
31 -0.15
32 -0.15
33 -0.15
34 -0.15
35 0.09
36 0.42
37 0.28
38 0.06
4 -0.57
49 0.37
5 -0.36
54 0.37
55 0.37
56 0.15
57 0.15
58 0.15
59 0.15
6 -0.57
60 0.15
61 0.15
62 0.15
63 0.15
7 -0.66
8 -0.66
9 -0.73

> <PUBCHEM_EFFECTIVE_ROTOR_COUNT>
12.2

> <PUBCHEM_PHARMACOPHORE_FEATURES>
13
1 1 acceptor
1 10 donor
1 11 donor
1 2 acceptor
1 3 acceptor
1 4 acceptor
1 5 acceptor
1 6 acceptor
1 9 donor
6 10 16 18 19 21 22 rings
6 24 25 26 28 29 30 rings
6 27 31 32 33 34 35 rings
6 7 8 12 13 14 15 rings

> <PUBCHEM_HEAVY_ATOM_COUNT>
38

> <PUBCHEM_ATOM_DEF_STEREO_COUNT>
2

> <PUBCHEM_ATOM_UDEF_STEREO_COUNT>
0

> <PUBCHEM_BOND_DEF_STEREO_COUNT>
0

> <PUBCHEM_BOND_UDEF_STEREO_COUNT>
0

> <PUBCHEM_ISOTOPIC_ATOM_COUNT>
0

> <PUBCHEM_COMPONENT_COUNT>
1

> <PUBCHEM_CACTVS_TAUTO_COUNT>
36

> <PUBCHEM_CONFORMER_ID>
0075187200000001

> <PUBCHEM_MMFF94_ENERGY>
120.9649

> <PUBCHEM_FEATURE_SELFOVERLAP>
65.976

> <PUBCHEM_SHAPE_FINGERPRINT>
10319688 45 18267306619963435139
10369192 42 18264492772324830477
10411042 1 17979076316452172995
11297750 10 17913487115033884456
117089 54 17760934335052534162
11763715 3 17831596622842256301
12522641 68 18337107843888618501
12758862 11 18129373950772418241
12758862 56 17975969088551160019
13248334 5 17402334772355844129
13690498 29 18268992166920079474
14415360 78 18122909724544908526
15064981 194 18335708285793433445
15320295 44 18337117886556450364
15361156 5 18117006674722983344
15400415 2 18267583507662067208
15439362 3 18124880049671721062
15890870 6 18269273452871568505
16992828 155 17895186654454905836
19427546 20 18409730690309544408
20505436 4 18041278743077989632
21360442 43 18410293631757888438
21716022 299 17393045453599808479
23523766 6 17617096245328297703
23729398 52 17402622848507813179
3627633 1 18267020755514225907
4058900 60 18053661383079931409
4144715 1 18270955851928051824
44280117 145 18337676434115456900
44802255 64 18337112254846808021
504843 32 18410856517048897227
563151 97 18195799675372479373
6058803 2 18187078495074382896
6376802 90 18341621395335399198
6700243 42 17840064962852601428
6703917 75 18339361856075256693
6898599 12 18410012126631620972

> <PUBCHEM_SHAPE_MULTIPOLES>
721.9
20.95
11.29
1.22
71.92
11.18
0.23
-15.73
4.46
-35.92
0.54
-1.53
-0.55
0.21

> <PUBCHEM_SHAPE_SELFOVERLAP>
1539.891

> <PUBCHEM_SHAPE_VOLUME>
394.9

> <PUBCHEM_COORDINATE_TYPE>
2
5
10

$$$$
