26743294
  -OEChem-12032416193D

 64 66  0     1  0  0  0  0  0999 V2000
   -1.7471    0.7311    1.7384 O   0  0  0  0  0  0  0  0  0  0  0  0
    6.2192    0.0920    1.3399 O   0  0  0  0  0  0  0  0  0  0  0  0
    2.2678   -3.1137   -0.5759 N   0  0  0  0  0  0  0  0  0  0  0  0
    6.5306    1.0694   -0.7454 N   0  0  0  0  0  0  0  0  0  0  0  0
   -0.3613    0.7870    1.8254 N   0  0  0  0  0  0  0  0  0  0  0  0
    3.6584   -0.8554    0.7175 C   0  0  1  0  0  0  0  0  0  0  0  0
    2.1321   -0.8626    0.4633 C   0  0  2  0  0  0  0  0  0  0  0  0
    4.1621   -2.3068    0.7887 C   0  0  0  0  0  0  0  0  0  0  0  0
    1.7601   -1.7507   -0.7360 C   0  0  0  0  0  0  0  0  0  0  0  0
    3.7201   -3.1374   -0.4153 C   0  0  0  0  0  0  0  0  0  0  0  0
    1.5460    0.5399    0.2955 C   0  0  0  0  0  0  0  0  0  0  0  0
    4.4587   -0.0502   -0.3132 C   0  0  0  0  0  0  0  0  0  0  0  0
    0.0726    0.5551    0.5832 C   0  0  0  0  0  0  0  0  0  0  0  0
    5.8183    0.3603    0.2107 C   0  0  0  0  0  0  0  0  0  0  0  0
   -0.9834    0.3478   -0.3210 C   0  0  0  0  0  0  0  0  0  0  0  0
   -2.1054    0.4690    0.4555 C   0  0  0  0  0  0  0  0  0  0  0  0
    7.8602    1.5867   -0.5160 C   0  0  0  0  0  0  0  0  0  0  0  0
   -7.7251    0.1172   -0.5234 C   0  0  0  0  0  0  0  0  0  0  0  0
   -3.5155    0.3812    0.2099 C   0  0  0  0  0  0  0  0  0  0  0  0
   -6.2586    0.2089   -0.2676 C   0  0  0  0  0  0  0  0  0  0  0  0
    8.0696    2.8753   -1.3008 C   0  0  0  0  0  0  0  0  0  0  0  0
    8.9097    0.5432   -0.8778 C   0  0  0  0  0  0  0  0  0  0  0  0
   -3.9842    0.1153   -1.0767 C   0  0  0  0  0  0  0  0  0  0  0  0
   -4.4186    0.5608    1.2578 C   0  0  0  0  0  0  0  0  0  0  0  0
   -5.3556    0.0292   -1.3156 C   0  0  0  0  0  0  0  0  0  0  0  0
   -5.7901    0.4747    1.0191 C   0  0  0  0  0  0  0  0  0  0  0  0
   -8.1153   -1.2868   -1.0807 C   0  0  0  0  0  0  0  0  0  0  0  0
   -8.1853    1.1820   -1.5668 C   0  0  0  0  0  0  0  0  0  0  0  0
   -8.6398    0.3375    0.7271 C   0  0  0  0  0  0  0  0  0  0  0  0
    3.8122   -0.4016    1.7064 H   0  0  0  0  0  0  0  0  0  0  0  0
    1.6770   -1.3193    1.3564 H   0  0  0  0  0  0  0  0  0  0  0  0
    3.7681   -2.7713    1.7028 H   0  0  0  0  0  0  0  0  0  0  0  0
    5.2537   -2.3435    0.8750 H   0  0  0  0  0  0  0  0  0  0  0  0
    0.6732   -1.8244   -0.8348 H   0  0  0  0  0  0  0  0  0  0  0  0
    2.1360   -1.3203   -1.6725 H   0  0  0  0  0  0  0  0  0  0  0  0
    4.2101   -2.7969   -1.3341 H   0  0  0  0  0  0  0  0  0  0  0  0
    4.0354   -4.1755   -0.2613 H   0  0  0  0  0  0  0  0  0  0  0  0
    1.7135    0.9233   -0.7184 H   0  0  0  0  0  0  0  0  0  0  0  0
    2.0380    1.2392    0.9841 H   0  0  0  0  0  0  0  0  0  0  0  0
    3.9466    0.8858   -0.5601 H   0  0  0  0  0  0  0  0  0  0  0  0
    4.5890   -0.5987   -1.2516 H   0  0  0  0  0  0  0  0  0  0  0  0
    2.0097   -3.6679   -1.3918 H   0  0  0  0  0  0  0  0  0  0  0  0
   -0.9268    0.1440   -1.3803 H   0  0  0  0  0  0  0  0  0  0  0  0
    6.1284    1.1859   -1.6714 H   0  0  0  0  0  0  0  0  0  0  0  0
    7.9563    1.8133    0.5528 H   0  0  0  0  0  0  0  0  0  0  0  0
    7.9772    2.7046   -2.3793 H   0  0  0  0  0  0  0  0  0  0  0  0
    7.3222    3.6258   -1.0210 H   0  0  0  0  0  0  0  0  0  0  0  0
    9.0615    3.2959   -1.1059 H   0  0  0  0  0  0  0  0  0  0  0  0
    8.8430    0.2638   -1.9353 H   0  0  0  0  0  0  0  0  0  0  0  0
    8.7740   -0.3698   -0.2878 H   0  0  0  0  0  0  0  0  0  0  0  0
    9.9196    0.9210   -0.6874 H   0  0  0  0  0  0  0  0  0  0  0  0
   -3.3051   -0.0295   -1.9129 H   0  0  0  0  0  0  0  0  0  0  0  0
   -4.0919    0.7693    2.2735 H   0  0  0  0  0  0  0  0  0  0  0  0
   -7.6295   -1.4957   -2.0402 H   0  0  0  0  0  0  0  0  0  0  0  0
   -9.1967   -1.3654   -1.2421 H   0  0  0  0  0  0  0  0  0  0  0  0
   -7.8209   -2.0786   -0.3818 H   0  0  0  0  0  0  0  0  0  0  0  0
   -7.7017    1.0378   -2.5392 H   0  0  0  0  0  0  0  0  0  0  0  0
   -9.2676    1.1346   -1.7342 H   0  0  0  0  0  0  0  0  0  0  0  0
   -7.9417    2.1943   -1.2231 H   0  0  0  0  0  0  0  0  0  0  0  0
   -8.4462   -0.4119    1.5035 H   0  0  0  0  0  0  0  0  0  0  0  0
   -9.7003    0.2551    0.4599 H   0  0  0  0  0  0  0  0  0  0  0  0
   -8.4952    1.3343    1.1599 H   0  0  0  0  0  0  0  0  0  0  0  0
   -5.6932   -0.1790   -2.3268 H   0  0  0  0  0  0  0  0  0  0  0  0
   -6.4475    0.6225    1.8688 H   0  0  0  0  0  0  0  0  0  0  0  0
  1  5  1  0  0  0  0
  1 16  1  0  0  0  0
  2 14  2  0  0  0  0
  3  9  1  0  0  0  0
  3 10  1  0  0  0  0
  3 42  1  0  0  0  0
  4 14  1  0  0  0  0
  4 17  1  0  0  0  0
  4 44  1  0  0  0  0
  5 13  2  0  0  0  0
  6  7  1  0  0  0  0
  6  8  1  0  0  0  0
  6 12  1  0  0  0  0
  6 30  1  0  0  0  0
  7  9  1  0  0  0  0
  7 11  1  0  0  0  0
  7 31  1  0  0  0  0
  8 10  1  0  0  0  0
  8 32  1  0  0  0  0
  8 33  1  0  0  0  0
  9 34  1  0  0  0  0
  9 35  1  0  0  0  0
 10 36  1  0  0  0  0
 10 37  1  0  0  0  0
 11 13  1  0  0  0  0
 11 38  1  0  0  0  0
 11 39  1  0  0  0  0
 12 14  1  0  0  0  0
 12 40  1  0  0  0  0
 12 41  1  0  0  0  0
 13 15  1  0  0  0  0
 15 16  2  0  0  0  0
 15 43  1  0  0  0  0
 16 19  1  0  0  0  0
 17 21  1  0  0  0  0
 17 22  1  0  0  0  0
 17 45  1  0  0  0  0
 18 20  1  0  0  0  0
 18 27  1  0  0  0  0
 18 28  1  0  0  0  0
 18 29  1  0  0  0  0
 19 23  2  0  0  0  0
 19 24  1  0  0  0  0
 20 25  2  0  0  0  0
 20 26  1  0  0  0  0
 21 46  1  0  0  0  0
 21 47  1  0  0  0  0
 21 48  1  0  0  0  0
 22 49  1  0  0  0  0
 22 50  1  0  0  0  0
 22 51  1  0  0  0  0
 23 25  1  0  0  0  0
 23 52  1  0  0  0  0
 24 26  2  0  0  0  0
 24 53  1  0  0  0  0
 25 63  1  0  0  0  0
 26 64  1  0  0  0  0
 27 54  1  0  0  0  0
 27 55  1  0  0  0  0
 27 56  1  0  0  0  0
 28 57  1  0  0  0  0
 28 58  1  0  0  0  0
 28 59  1  0  0  0  0
 29 60  1  0  0  0  0
 29 61  1  0  0  0  0
 29 62  1  0  0  0  0
M  END
> <PUBCHEM_COMPOUND_CID>
26743294

> <PUBCHEM_CONFORMER_RMSD>
1

> <PUBCHEM_CONFORMER_DIVERSEORDER>
1
3
78
107
160
48
151
164
171
111
69
71
37
42
88
133
53
79
26
118
96
83
169
146
130
141
170
120
121
77
136
159
61
68
154
6
144
116
62
142
91
156
123
135
23
126
103
57
13
44
119
29
157
122
158
131
176
93
63
86
150
39
64
100
25
165
149
117
90
38
127
102
129
82
139
166
31
20
55
10
115
125
134
105
163
110
140
4
47
138
54
167
112
72
162
81
175
99
11
145
17
49
106
87
30
52
66
51
113
14
84
74
92
56
95
59
114
58
8
65
147
32
137
50
89
173
73
76
22
153
143
12
5
75
21
43
161
174
15
104
85
152
7
27
16
132
168
172
108
28
128
109
155
148
34
80
45
2
70
94
41
19
36
46
40
97
9
67
18
124
98
35
60
33
24
101

> <PUBCHEM_MMFF94_PARTIAL_CHARGES>
28
1 -0.02
10 0.27
11 0.18
12 0.06
13 0.11
14 0.57
15 -0.15
16 0.09
17 0.3
18 0.14
19 0.05
2 -0.57
20 -0.14
23 -0.15
24 -0.15
25 -0.15
26 -0.15
3 -0.9
4 -0.73
42 0.36
43 0.15
44 0.37
5 -0.41
52 0.15
53 0.15
63 0.15
64 0.15
9 0.27

> <PUBCHEM_EFFECTIVE_ROTOR_COUNT>
9.2

> <PUBCHEM_PHARMACOPHORE_FEATURES>
10
1 2 acceptor
1 3 cation
1 3 donor
1 4 donor
1 5 acceptor
3 17 21 22 hydrophobe
4 18 27 28 29 hydrophobe
5 1 5 13 15 16 rings
6 19 20 23 24 25 26 rings
6 3 6 7 8 9 10 rings

> <PUBCHEM_HEAVY_ATOM_COUNT>
29

> <PUBCHEM_ATOM_DEF_STEREO_COUNT>
2

> <PUBCHEM_ATOM_UDEF_STEREO_COUNT>
0

> <PUBCHEM_BOND_DEF_STEREO_COUNT>
0

> <PUBCHEM_BOND_UDEF_STEREO_COUNT>
0

> <PUBCHEM_ISOTOPIC_ATOM_COUNT>
0

> <PUBCHEM_COMPONENT_COUNT>
1

> <PUBCHEM_CACTVS_TAUTO_COUNT>
2

> <PUBCHEM_CONFORMER_ID>
019811FE00000001

> <PUBCHEM_MMFF94_ENERGY>
58.7146

> <PUBCHEM_FEATURE_SELFOVERLAP>
50.745

> <PUBCHEM_SHAPE_FINGERPRINT>
10 15 17530683216865791010
10299344 5 17917992763503072603
10533779 1 18119813762992627636
10595046 47 18271247110101030665
10674148 151 15554728872152322694
10835480 77 18113621183372799577
11181472 205 17987805082083864441
11315181 36 18335422370843489601
11409948 35 15719661063138679530
11443803 9 18343576370639791890
12144603 126 18060427893954803801
12373685 5 17530954817697358570
13150687 139 18341626915011978886
13533116 47 18131065979051334347
13540713 5 17772202907680859770
13617811 41 18342455955253536712
14118638 360 18342177713574400721
14142895 15 18261393398567229061
14251764 18 17775280552564854875
14344974 52 17095522938111732325
1454969 45 18342739624192948928
14767858 380 18131071541587493656
15064986 266 18339653230993107161
15183329 4 18059568063060928329
1577012 14 17845938433977763817
15840311 113 17967818280405441772
16991971 28 16702019811703925489
1754911 235 18411983572244297428
18335252 114 18410015447258837660
18365409 1 18200593743126538406
20105231 36 16702304585473898415
20157964 124 18040715844943717514
20554085 129 16008744736700576176
21049683 271 18343300400893633561
21150785 3 18413108372481080877
21267235 1 16558750139859410609
21360443 126 18409451423067862966
21403212 168 11241963785222175233
23522609 53 17702126714836917048
23559900 14 18272639178923687145
23729417 116 17403187994023558014
246663 6 14549023186537377140
3004659 81 17346875659238335281
335352 9 17418369187443799397
4073 2 18333735719363396883
4325135 7 18342175561758569628
437795 160 14779554538559667049
4403749 210 17823990133103851322
44880568 143 18116147771353264533
45377200 153 15410320174611716079
4625314 4 18260268564250222870
504579 68 18060138743048621452
5486654 2 18130788971167295106
6058803 2 17627245454948528402
636775 72 16733257972737800965
636775 8 17774722073978649791

> <PUBCHEM_SHAPE_MULTIPOLES>
570.12
29.55
2.22
1.41
4.2
1.47
0.16
-12.45
-9.55
-5.71
-0.76
1.08
-0.26
-1.49

> <PUBCHEM_SHAPE_SELFOVERLAP>
1187.392

> <PUBCHEM_SHAPE_VOLUME>
324.5

> <PUBCHEM_COORDINATE_TYPE>
2
5
10

$$$$
