40778249
  -OEChem-12032416173D

 53 55  0     1  0  0  0  0  0999 V2000
   -2.2213    0.2860   -0.4278 O   0  0  0  0  0  0  0  0  0  0  0  0
   -5.6394    0.1793    0.6700 O   0  0  0  0  0  0  0  0  0  0  0  0
   -4.8495    0.5224   -1.9428 O   0  0  0  0  0  0  0  0  0  0  0  0
   -2.2356   -2.9620    2.3656 O   0  0  0  0  0  0  0  0  0  0  0  0
   -0.0957    1.6574    1.1072 O   0  0  0  0  0  0  0  0  0  0  0  0
   -0.6803    2.6416   -0.9028 N   0  0  0  0  0  0  0  0  0  0  0  0
   -0.8665   -1.8880    0.8251 N   0  0  0  0  0  0  0  0  0  0  0  0
    1.5465    2.2331   -0.4684 N   0  0  0  0  0  0  0  0  0  0  0  0
    1.7760   -2.2346   -2.6825 N   0  0  0  0  0  0  0  0  0  0  0  0
   -4.3742    0.7504    0.4137 C   0  0  2  0  0  0  0  0  0  0  0  0
   -4.2663    1.3778   -0.9607 C   0  0  1  0  0  0  0  0  0  0  0  0
   -3.2762   -0.2980    0.3568 C   0  0  2  0  0  0  0  0  0  0  0  0
   -2.7582    1.3955   -1.1840 C   0  0  1  0  0  0  0  0  0  0  0  0
   -2.7419   -0.6855    1.7241 C   0  0  0  0  0  0  0  0  0  0  0  0
   -2.0953    2.6689   -0.6769 C   0  0  0  0  0  0  0  0  0  0  0  0
   -1.9443   -1.9761    1.6940 C   0  0  0  0  0  0  0  0  0  0  0  0
    0.2425    2.1272    0.0234 C   0  0  0  0  0  0  0  0  0  0  0  0
    0.0606   -2.9742    0.6053 C   0  0  0  0  0  0  0  0  0  0  0  0
    1.1301   -2.6088   -0.3830 C   0  0  0  0  0  0  0  0  0  0  0  0
    2.7471    1.8300    0.1614 C   0  0  0  0  0  0  0  0  0  0  0  0
    2.4233   -2.3159    0.0356 C   0  0  0  0  0  0  0  0  0  0  0  0
    0.8602   -2.5546   -1.7410 C   0  0  0  0  0  0  0  0  0  0  0  0
    3.9693    2.0162   -0.4846 C   0  0  0  0  0  0  0  0  0  0  0  0
    2.7096    1.2465    1.4278 C   0  0  0  0  0  0  0  0  0  0  0  0
    3.3932   -1.9822   -0.9033 C   0  0  0  0  0  0  0  0  0  0  0  0
    5.1539    1.6189    0.1357 C   0  0  0  0  0  0  0  0  0  0  0  0
    3.8941    0.8493    2.0481 C   0  0  0  0  0  0  0  0  0  0  0  0
    3.0220   -1.9562   -2.2379 C   0  0  0  0  0  0  0  0  0  0  0  0
    5.1161    1.0354    1.4020 C   0  0  0  0  0  0  0  0  0  0  0  0
   -4.1576    1.4957    1.1885 H   0  0  0  0  0  0  0  0  0  0  0  0
   -4.7532    2.3544   -1.0333 H   0  0  0  0  0  0  0  0  0  0  0  0
   -3.6268   -1.1950   -0.1706 H   0  0  0  0  0  0  0  0  0  0  0  0
   -2.4966    1.2268   -2.2352 H   0  0  0  0  0  0  0  0  0  0  0  0
   -3.5721   -0.8414    2.4231 H   0  0  0  0  0  0  0  0  0  0  0  0
   -2.0976    0.0985    2.1378 H   0  0  0  0  0  0  0  0  0  0  0  0
   -2.2679    2.8035    0.3965 H   0  0  0  0  0  0  0  0  0  0  0  0
   -2.4928    3.5432   -1.2022 H   0  0  0  0  0  0  0  0  0  0  0  0
   -6.3018    0.8848    0.5768 H   0  0  0  0  0  0  0  0  0  0  0  0
   -4.7239    0.9464   -2.8089 H   0  0  0  0  0  0  0  0  0  0  0  0
   -0.3291    3.0030   -1.7843 H   0  0  0  0  0  0  0  0  0  0  0  0
   -0.7010   -1.0111    0.3388 H   0  0  0  0  0  0  0  0  0  0  0  0
   -0.5041   -3.8452    0.2520 H   0  0  0  0  0  0  0  0  0  0  0  0
    0.4927   -3.2521    1.5739 H   0  0  0  0  0  0  0  0  0  0  0  0
    1.6539    2.6493   -1.3900 H   0  0  0  0  0  0  0  0  0  0  0  0
    2.6871   -2.3428    1.0892 H   0  0  0  0  0  0  0  0  0  0  0  0
   -0.1305   -2.7723   -2.1282 H   0  0  0  0  0  0  0  0  0  0  0  0
    4.0127    2.4689   -1.4719 H   0  0  0  0  0  0  0  0  0  0  0  0
    1.8036    1.0670    1.9892 H   0  0  0  0  0  0  0  0  0  0  0  0
    4.4077   -1.7504   -0.6001 H   0  0  0  0  0  0  0  0  0  0  0  0
    6.1054    1.7630   -0.3676 H   0  0  0  0  0  0  0  0  0  0  0  0
    3.8660    0.3932    3.0335 H   0  0  0  0  0  0  0  0  0  0  0  0
    3.7412   -1.7012   -3.0092 H   0  0  0  0  0  0  0  0  0  0  0  0
    6.0383    0.7251    1.8846 H   0  0  0  0  0  0  0  0  0  0  0  0
  1 12  1  0  0  0  0
  1 13  1  0  0  0  0
  2 10  1  0  0  0  0
  2 38  1  0  0  0  0
  3 11  1  0  0  0  0
  3 39  1  0  0  0  0
  4 16  2  0  0  0  0
  5 17  2  0  0  0  0
  6 15  1  0  0  0  0
  6 17  1  0  0  0  0
  6 40  1  0  0  0  0
  7 16  1  0  0  0  0
  7 18  1  0  0  0  0
  7 41  1  0  0  0  0
  8 17  1  0  0  0  0
  8 20  1  0  0  0  0
  8 44  1  0  0  0  0
  9 22  1  0  0  0  0
  9 28  2  0  0  0  0
 10 11  1  0  0  0  0
 10 12  1  0  0  0  0
 10 30  1  0  0  0  0
 11 13  1  0  0  0  0
 11 31  1  0  0  0  0
 12 14  1  0  0  0  0
 12 32  1  0  0  0  0
 13 15  1  0  0  0  0
 13 33  1  0  0  0  0
 14 16  1  0  0  0  0
 14 34  1  0  0  0  0
 14 35  1  0  0  0  0
 15 36  1  0  0  0  0
 15 37  1  0  0  0  0
 18 19  1  0  0  0  0
 18 42  1  0  0  0  0
 18 43  1  0  0  0  0
 19 21  1  0  0  0  0
 19 22  2  0  0  0  0
 20 23  2  0  0  0  0
 20 24  1  0  0  0  0
 21 25  2  0  0  0  0
 21 45  1  0  0  0  0
 22 46  1  0  0  0  0
 23 26  1  0  0  0  0
 23 47  1  0  0  0  0
 24 27  2  0  0  0  0
 24 48  1  0  0  0  0
 25 28  1  0  0  0  0
 25 49  1  0  0  0  0
 26 29  2  0  0  0  0
 26 50  1  0  0  0  0
 27 29  1  0  0  0  0
 27 51  1  0  0  0  0
 28 52  1  0  0  0  0
 29 53  1  0  0  0  0
M  END
> <PUBCHEM_COMPOUND_CID>
40778249

> <PUBCHEM_CONFORMER_RMSD>
1.4

> <PUBCHEM_CONFORMER_DIVERSEORDER>
1
6
42
111
93
109
14
45
105
18
26
21
49
110
113
96
46
20
38
119
62
108
73
54
25
106
71
37
27
22
68
102
63
91
47
33
19
72
97
7
17
107
74
114
99
82
61
92
122
59
87
121
30
65
84
98
29
41
28
112
69
86
81
10
23
83
43
9
52
44
55
32
80
48
60
104
94
16
100
35
118
76
5
67
101
78
64
103
11
57
117
40
4
56
31
66
89
24
15
12
75
13
8
51
34
2
53
77
50
79
36
88
70
58
116
95
85
3
120
39
115
90

> <PUBCHEM_MMFF94_PARTIAL_CHARGES>
43
1 -0.56
10 0.28
11 0.28
12 0.28
13 0.28
14 0.06
15 0.3
16 0.57
17 0.69
18 0.44
19 -0.14
2 -0.68
20 0.12
21 -0.15
22 0.16
23 -0.15
24 -0.15
25 -0.15
26 -0.15
27 -0.15
28 0.16
29 -0.15
3 -0.68
38 0.4
39 0.4
4 -0.57
40 0.37
41 0.37
44 0.37
45 0.15
46 0.15
47 0.15
48 0.15
49 0.15
5 -0.57
50 0.15
51 0.15
52 0.15
53 0.15
6 -0.73
7 -0.73
8 -0.55
9 -0.62

> <PUBCHEM_EFFECTIVE_ROTOR_COUNT>
11

> <PUBCHEM_PHARMACOPHORE_FEATURES>
14
1 1 acceptor
1 2 acceptor
1 2 donor
1 3 acceptor
1 3 donor
1 4 acceptor
1 5 acceptor
1 6 donor
1 7 donor
1 8 donor
1 9 acceptor
5 1 10 11 12 13 rings
6 20 23 24 26 27 29 rings
6 9 19 21 22 25 28 rings

> <PUBCHEM_HEAVY_ATOM_COUNT>
29

> <PUBCHEM_ATOM_DEF_STEREO_COUNT>
4

> <PUBCHEM_ATOM_UDEF_STEREO_COUNT>
0

> <PUBCHEM_BOND_DEF_STEREO_COUNT>
0

> <PUBCHEM_BOND_UDEF_STEREO_COUNT>
0

> <PUBCHEM_ISOTOPIC_ATOM_COUNT>
0

> <PUBCHEM_COMPONENT_COUNT>
1

> <PUBCHEM_CACTVS_TAUTO_COUNT>
6

> <PUBCHEM_CONFORMER_ID>
026E3A0900000001

> <PUBCHEM_MMFF94_ENERGY>
70.1721

> <PUBCHEM_FEATURE_SELFOVERLAP>
71.113

> <PUBCHEM_SHAPE_FINGERPRINT>
11112241 14 17774434000908857528
12422481 6 18055323926566123258
12596602 18 15985097556805766804
13402501 40 18410014325422566464
13617811 41 17387138568621275013
13726171 33 17827672397166159780
14251757 17 18335146340782523499
144659 39 17968375775001505508
14725015 67 18118405038375161987
14930077 153 17466255306603744548
15721738 202 17275096271844422655
16067689 68 14044070123109981830
17093844 170 18410015420987659376
20531524 4 18262253156783945166
20642791 35 18121216473029019553
20691752 17 18042969757348757277
20764821 26 18261691353518259215
20775438 99 18270381850955303807
22182313 1 18338252534103684786
23559900 14 18187658955081949630
238 59 18131348588262861998
238918 7 18341889719148297970
3027735 51 17842830298826106391
3298306 158 18412538829858407316
4093350 32 17846222103703822259
508706 21 18262524813270627891
57828716 16 15068634820604719393
6287921 2 17631448964757330702
9862522 239 18127690650579826690

> <PUBCHEM_SHAPE_MULTIPOLES>
547.54
9.97
4.1
2.15
2.39
1.74
-0.12
-4.81
0.77
-1.84
-0.63
-0.19
1.32
3.2

> <PUBCHEM_SHAPE_SELFOVERLAP>
1156.052

> <PUBCHEM_SHAPE_VOLUME>
304.8

> <PUBCHEM_COORDINATE_TYPE>
2
5
10

$$$$
