38028183
  -OEChem-12032416283D

 63 65  0     1  0  0  0  0  0999 V2000
    3.4812   -1.7034    0.1274 O   0  0  0  0  0  0  0  0  0  0  0  0
    4.3152    3.0558   -0.9282 O   0  0  0  0  0  0  0  0  0  0  0  0
   -3.4338    0.3024   -1.6938 O   0  0  0  0  0  0  0  0  0  0  0  0
   -2.8641   -0.4726    0.4182 N   0  0  0  0  0  0  0  0  0  0  0  0
    3.4641    0.6172    0.1984 N   0  0  0  0  0  0  0  0  0  0  0  0
   -0.7115   -2.2706   -0.6668 C   0  0  1  0  0  0  0  0  0  0  0  0
   -1.7911   -2.6624    0.3730 C   0  0  1  0  0  0  0  0  0  0  0  0
    0.6756   -2.7401   -0.2023 C   0  0  0  0  0  0  0  0  0  0  0  0
    1.0686   -2.1379    1.1599 C   0  0  2  0  0  0  0  0  0  0  0  0
   -1.0186   -2.8501   -2.0512 C   0  0  0  0  0  0  0  0  0  0  0  0
   -0.0560   -2.2474    2.1695 C   0  0  0  0  0  0  0  0  0  0  0  0
   -1.3251   -2.4956    1.8004 C   0  0  0  0  0  0  0  0  0  0  0  0
   -3.0807   -1.8616    0.1599 C   0  0  0  0  0  0  0  0  0  0  0  0
    1.5305   -0.6843    1.0085 C   0  0  0  0  0  0  0  0  0  0  0  0
   -0.3492   -2.0148   -3.1380 C   0  0  0  0  0  0  0  0  0  0  0  0
   -0.5663   -4.3045   -2.1314 C   0  0  0  0  0  0  0  0  0  0  0  0
    0.3195   -2.1104    3.6187 C   0  0  0  0  0  0  0  0  0  0  0  0
    2.9125   -0.6451    0.4067 C   0  0  0  0  0  0  0  0  0  0  0  0
    4.7990    0.7457   -0.3858 C   0  0  0  0  0  0  0  0  0  0  0  0
    2.8722    1.8869    0.6332 C   0  0  0  0  0  0  0  0  0  0  0  0
   -3.0605    0.5176   -0.5437 C   0  0  0  0  0  0  0  0  0  0  0  0
    4.8058    1.8228   -1.4612 C   0  0  0  0  0  0  0  0  0  0  0  0
    2.9631    2.9205   -0.4825 C   0  0  0  0  0  0  0  0  0  0  0  0
   -2.7662    1.9123   -0.1253 C   0  0  0  0  0  0  0  0  0  0  0  0
   -3.4236    2.9778   -0.7402 C   0  0  0  0  0  0  0  0  0  0  0  0
   -1.8341    2.1566    0.8834 C   0  0  0  0  0  0  0  0  0  0  0  0
   -3.1491    4.2875   -0.3465 C   0  0  0  0  0  0  0  0  0  0  0  0
   -1.5597    3.4663    1.2772 C   0  0  0  0  0  0  0  0  0  0  0  0
   -2.2173    4.5318    0.6624 C   0  0  0  0  0  0  0  0  0  0  0  0
   -0.6871   -1.1782   -0.7535 H   0  0  0  0  0  0  0  0  0  0  0  0
   -2.0442   -3.7237    0.2566 H   0  0  0  0  0  0  0  0  0  0  0  0
    1.4343   -2.5179   -0.9583 H   0  0  0  0  0  0  0  0  0  0  0  0
    0.6870   -3.8283   -0.0580 H   0  0  0  0  0  0  0  0  0  0  0  0
    1.8939   -2.7501    1.5506 H   0  0  0  0  0  0  0  0  0  0  0  0
   -2.0951   -2.8188   -2.2481 H   0  0  0  0  0  0  0  0  0  0  0  0
   -2.0839   -2.6107    2.5721 H   0  0  0  0  0  0  0  0  0  0  0  0
   -3.8522   -2.1945    0.8649 H   0  0  0  0  0  0  0  0  0  0  0  0
   -3.4922   -2.0092   -0.8422 H   0  0  0  0  0  0  0  0  0  0  0  0
    1.5926   -0.1970    1.9877 H   0  0  0  0  0  0  0  0  0  0  0  0
    0.8431   -0.1072    0.3828 H   0  0  0  0  0  0  0  0  0  0  0  0
    0.7416   -2.0133   -3.0502 H   0  0  0  0  0  0  0  0  0  0  0  0
   -0.6939   -0.9757   -3.1010 H   0  0  0  0  0  0  0  0  0  0  0  0
   -0.5985   -2.4078   -4.1299 H   0  0  0  0  0  0  0  0  0  0  0  0
    0.5218   -4.4147   -2.1886 H   0  0  0  0  0  0  0  0  0  0  0  0
   -0.9592   -4.7528   -3.0525 H   0  0  0  0  0  0  0  0  0  0  0  0
   -0.9482   -4.9123   -1.3057 H   0  0  0  0  0  0  0  0  0  0  0  0
    1.1073   -2.8257    3.8769 H   0  0  0  0  0  0  0  0  0  0  0  0
   -0.5293   -2.3058    4.2831 H   0  0  0  0  0  0  0  0  0  0  0  0
    0.6796   -1.1013    3.8377 H   0  0  0  0  0  0  0  0  0  0  0  0
   -2.6433   -0.2083    1.3726 H   0  0  0  0  0  0  0  0  0  0  0  0
    5.1428   -0.2077   -0.7979 H   0  0  0  0  0  0  0  0  0  0  0  0
    5.4714    1.0246    0.4339 H   0  0  0  0  0  0  0  0  0  0  0  0
    3.4577    2.2169    1.4995 H   0  0  0  0  0  0  0  0  0  0  0  0
    1.8351    1.7775    0.9531 H   0  0  0  0  0  0  0  0  0  0  0  0
    4.1930    1.5321   -2.3227 H   0  0  0  0  0  0  0  0  0  0  0  0
    5.8266    1.9926   -1.8175 H   0  0  0  0  0  0  0  0  0  0  0  0
    2.6300    3.8971   -0.1176 H   0  0  0  0  0  0  0  0  0  0  0  0
    2.3280    2.6457   -1.3330 H   0  0  0  0  0  0  0  0  0  0  0  0
   -4.1563    2.8073   -1.5247 H   0  0  0  0  0  0  0  0  0  0  0  0
   -1.2801    1.3568    1.3660 H   0  0  0  0  0  0  0  0  0  0  0  0
   -3.6614    5.1173   -0.8247 H   0  0  0  0  0  0  0  0  0  0  0  0
   -0.8284    3.6571    2.0572 H   0  0  0  0  0  0  0  0  0  0  0  0
   -2.0025    5.5517    0.9679 H   0  0  0  0  0  0  0  0  0  0  0  0
  1 18  2  0  0  0  0
  2 22  1  0  0  0  0
  2 23  1  0  0  0  0
  3 21  2  0  0  0  0
  4 13  1  0  0  0  0
  4 21  1  0  0  0  0
  4 50  1  0  0  0  0
  5 18  1  0  0  0  0
  5 19  1  0  0  0  0
  5 20  1  0  0  0  0
  6  7  1  0  0  0  0
  6  8  1  0  0  0  0
  6 10  1  0  0  0  0
  6 30  1  0  0  0  0
  7 12  1  0  0  0  0
  7 13  1  0  0  0  0
  7 31  1  0  0  0  0
  8  9  1  0  0  0  0
  8 32  1  0  0  0  0
  8 33  1  0  0  0  0
  9 11  1  0  0  0  0
  9 14  1  0  0  0  0
  9 34  1  0  0  0  0
 10 15  1  0  0  0  0
 10 16  1  0  0  0  0
 10 35  1  0  0  0  0
 11 12  2  0  0  0  0
 11 17  1  0  0  0  0
 12 36  1  0  0  0  0
 13 37  1  0  0  0  0
 13 38  1  0  0  0  0
 14 18  1  0  0  0  0
 14 39  1  0  0  0  0
 14 40  1  0  0  0  0
 15 41  1  0  0  0  0
 15 42  1  0  0  0  0
 15 43  1  0  0  0  0
 16 44  1  0  0  0  0
 16 45  1  0  0  0  0
 16 46  1  0  0  0  0
 17 47  1  0  0  0  0
 17 48  1  0  0  0  0
 17 49  1  0  0  0  0
 19 22  1  0  0  0  0
 19 51  1  0  0  0  0
 19 52  1  0  0  0  0
 20 23  1  0  0  0  0
 20 53  1  0  0  0  0
 20 54  1  0  0  0  0
 21 24  1  0  0  0  0
 22 55  1  0  0  0  0
 22 56  1  0  0  0  0
 23 57  1  0  0  0  0
 23 58  1  0  0  0  0
 24 25  2  0  0  0  0
 24 26  1  0  0  0  0
 25 27  1  0  0  0  0
 25 59  1  0  0  0  0
 26 28  2  0  0  0  0
 26 60  1  0  0  0  0
 27 29  2  0  0  0  0
 27 61  1  0  0  0  0
 28 29  1  0  0  0  0
 28 62  1  0  0  0  0
 29 63  1  0  0  0  0
M  END
> <PUBCHEM_COMPOUND_CID>
38028183

> <PUBCHEM_CONFORMER_RMSD>
1.2

> <PUBCHEM_CONFORMER_DIVERSEORDER>
1
58
83
93
60
81
11
80
71
102
114
29
13
21
96
38
18
37
87
24
101
90
65
49
70
55
79
94
63
109
4
35
33
16
59
69
53
39
47
10
76
28
92
15
106
89
110
72
9
2
50
108
85
68
44
45
113
48
86
100
61
111
74
34
98
40
62
54
7
64
66
77
25
27
82
103
23
43
22
20
30
88
91
31
5
73
46
36
3
78
99
75
57
8
115
104
95
84
17
42
107
97
67
12
51
112
105
26
41
6
56
19
52
14
32

> <PUBCHEM_MMFF94_PARTIAL_CHARGES>
31
1 -0.57
11 -0.28
12 -0.29
13 0.3
14 0.06
17 0.14
18 0.57
19 0.3
2 -0.56
20 0.3
21 0.54
22 0.28
23 0.28
24 0.09
25 -0.15
26 -0.15
27 -0.15
28 -0.15
29 -0.15
3 -0.57
36 0.15
4 -0.73
5 -0.66
50 0.37
59 0.15
60 0.15
61 0.15
62 0.15
63 0.15
7 0.14
9 0.14

> <PUBCHEM_EFFECTIVE_ROTOR_COUNT>
10

> <PUBCHEM_PHARMACOPHORE_FEATURES>
8
1 1 acceptor
1 2 acceptor
1 3 acceptor
1 4 donor
3 10 15 16 hydrophobe
6 2 5 19 20 22 23 rings
6 24 25 26 27 28 29 rings
6 6 7 8 9 11 12 rings

> <PUBCHEM_HEAVY_ATOM_COUNT>
29

> <PUBCHEM_ATOM_DEF_STEREO_COUNT>
3

> <PUBCHEM_ATOM_UDEF_STEREO_COUNT>
0

> <PUBCHEM_BOND_DEF_STEREO_COUNT>
0

> <PUBCHEM_BOND_UDEF_STEREO_COUNT>
0

> <PUBCHEM_ISOTOPIC_ATOM_COUNT>
0

> <PUBCHEM_COMPONENT_COUNT>
1

> <PUBCHEM_CACTVS_TAUTO_COUNT>
2

> <PUBCHEM_CONFORMER_ID>
0244439700000001

> <PUBCHEM_MMFF94_ENERGY>
67.4274

> <PUBCHEM_FEATURE_SELFOVERLAP>
40.597

> <PUBCHEM_SHAPE_FINGERPRINT>
11221954 11 18267309716297206147
11513181 2 18201717297954311614
12107698 1 18336546010706289835
12156800 1 16960197266344958953
12788726 201 18190176969764125336
12978246 48 18336827481198252736
13122387 1 18409445929187525944
13761468 95 18055105209366925524
13994607 96 18043814409811929367
14279260 333 18334579045488074438
14787075 74 17970622111701335427
161222 619 18048350823511999577
17980427 23 17474065884191367203
19930381 70 16177064908261687298
20764821 26 17617937380060292792
21860390 5 17477193934568741367
23559900 14 16692428484397076973
26353 1 17051865900047267743
35225 105 18339641243159577172
469060 322 14780107643946716978
474 4 17546434584607224185
5048184 11 18336268920780658752
5081480 168 16766220033640579663
7288768 16 17676486198118578538

> <PUBCHEM_SHAPE_MULTIPOLES>
569.24
7.38
6.69
2.49
4.17
2.44
0.42
9.78
-2.03
-2.12
-1.31
0.22
-2.98
-1.44

> <PUBCHEM_SHAPE_SELFOVERLAP>
1181.364

> <PUBCHEM_SHAPE_VOLUME>
321.5

> <PUBCHEM_COORDINATE_TYPE>
2
5
10

$$$$
