75536758
  -OEChem-12032416333D

 48 50  0     1  0  0  0  0  0999 V2000
   -0.3738    0.9809   -0.1660 O   0  0  0  0  0  0  0  0  0  0  0  0
    0.8012   -2.3600    0.4369 O   0  0  0  0  0  0  0  0  0  0  0  0
   -7.6693    1.0464   -0.4265 O   0  0  0  0  0  0  0  0  0  0  0  0
   -3.7264   -1.9128   -0.0032 O   0  0  0  0  0  0  0  0  0  0  0  0
    3.0561   -0.1918    0.1369 N   0  0  0  0  0  0  0  0  0  0  0  0
   -2.9290    0.0748    0.8202 N   0  0  0  0  0  0  0  0  0  0  0  0
   -5.0663   -0.0279   -0.1845 N   0  0  0  0  0  0  0  0  0  0  0  0
    7.5814   -0.7477   -0.4504 N   0  0  0  0  0  0  0  0  0  0  0  0
    1.6757   -0.2096   -0.3192 C   0  0  1  0  0  0  0  0  0  0  0  0
    0.7372   -0.9576    0.6095 C   0  0  1  0  0  0  0  0  0  0  0  0
   -0.6107   -0.3937    0.1808 C   0  0  1  0  0  0  0  0  0  0  0  0
    1.0413    1.1713   -0.3395 C   0  0  0  0  0  0  0  0  0  0  0  0
   -1.6683   -0.4741    1.2672 C   0  0  0  0  0  0  0  0  0  0  0  0
    3.9560    0.2313   -0.9293 C   0  0  0  0  0  0  0  0  0  0  0  0
   -3.8967   -0.7059    0.1988 C   0  0  0  0  0  0  0  0  0  0  0  0
   -6.1365   -0.7721   -0.8526 C   0  0  0  0  0  0  0  0  0  0  0  0
   -5.2872    1.4239   -0.1203 C   0  0  0  0  0  0  0  0  0  0  0  0
    5.3893    0.2719   -0.4701 C   0  0  0  0  0  0  0  0  0  0  0  0
   -7.4999   -0.3678   -0.3142 C   0  0  0  0  0  0  0  0  0  0  0  0
   -6.6995    1.7367    0.3625 C   0  0  0  0  0  0  0  0  0  0  0  0
    5.8567    1.3097    0.3284 C   0  0  0  0  0  0  0  0  0  0  0  0
    6.2837   -0.7237   -0.8288 C   0  0  0  0  0  0  0  0  0  0  0  0
    7.1855    1.3201    0.7380 C   0  0  0  0  0  0  0  0  0  0  0  0
    7.9995    0.2776    0.3253 C   0  0  0  0  0  0  0  0  0  0  0  0
    1.6105   -0.6737   -1.3135 H   0  0  0  0  0  0  0  0  0  0  0  0
    0.9491   -0.7207    1.6596 H   0  0  0  0  0  0  0  0  0  0  0  0
   -0.9740   -0.9004   -0.7229 H   0  0  0  0  0  0  0  0  0  0  0  0
    1.3861    1.8006    0.4892 H   0  0  0  0  0  0  0  0  0  0  0  0
    1.2224    1.7059   -1.2768 H   0  0  0  0  0  0  0  0  0  0  0  0
   -1.3707    0.1215    2.1374 H   0  0  0  0  0  0  0  0  0  0  0  0
   -1.8153   -1.5098    1.5913 H   0  0  0  0  0  0  0  0  0  0  0  0
    3.3194   -1.1305    0.4380 H   0  0  0  0  0  0  0  0  0  0  0  0
   -3.0590    1.0648    0.9697 H   0  0  0  0  0  0  0  0  0  0  0  0
    3.6897    1.2325   -1.2912 H   0  0  0  0  0  0  0  0  0  0  0  0
    3.8722   -0.4429   -1.7916 H   0  0  0  0  0  0  0  0  0  0  0  0
    0.6137   -2.5622   -0.4953 H   0  0  0  0  0  0  0  0  0  0  0  0
   -5.9934   -1.8517   -0.7472 H   0  0  0  0  0  0  0  0  0  0  0  0
   -6.0637   -0.5241   -1.9183 H   0  0  0  0  0  0  0  0  0  0  0  0
   -5.1542    1.7933   -1.1442 H   0  0  0  0  0  0  0  0  0  0  0  0
   -4.5744    1.9457    0.5155 H   0  0  0  0  0  0  0  0  0  0  0  0
   -8.2920   -0.8491   -0.8960 H   0  0  0  0  0  0  0  0  0  0  0  0
   -7.6231   -0.6675    0.7333 H   0  0  0  0  0  0  0  0  0  0  0  0
   -6.8961    2.8098    0.2736 H   0  0  0  0  0  0  0  0  0  0  0  0
   -6.8281    1.4605    1.4160 H   0  0  0  0  0  0  0  0  0  0  0  0
    5.1952    2.1147    0.6367 H   0  0  0  0  0  0  0  0  0  0  0  0
    5.9794   -1.5614   -1.4487 H   0  0  0  0  0  0  0  0  0  0  0  0
    7.5718    2.1189    1.3606 H   0  0  0  0  0  0  0  0  0  0  0  0
    9.0437    0.2392    0.6177 H   0  0  0  0  0  0  0  0  0  0  0  0
  1 11  1  0  0  0  0
  1 12  1  0  0  0  0
  2 10  1  0  0  0  0
  2 36  1  0  0  0  0
  3 19  1  0  0  0  0
  3 20  1  0  0  0  0
  4 15  2  0  0  0  0
  5  9  1  0  0  0  0
  5 14  1  0  0  0  0
  5 32  1  0  0  0  0
  6 13  1  0  0  0  0
  6 15  1  0  0  0  0
  6 33  1  0  0  0  0
  7 15  1  0  0  0  0
  7 16  1  0  0  0  0
  7 17  1  0  0  0  0
  8 22  1  0  0  0  0
  8 24  2  0  0  0  0
  9 10  1  0  0  0  0
  9 12  1  0  0  0  0
  9 25  1  0  0  0  0
 10 11  1  0  0  0  0
 10 26  1  0  0  0  0
 11 13  1  0  0  0  0
 11 27  1  0  0  0  0
 12 28  1  0  0  0  0
 12 29  1  0  0  0  0
 13 30  1  0  0  0  0
 13 31  1  0  0  0  0
 14 18  1  0  0  0  0
 14 34  1  0  0  0  0
 14 35  1  0  0  0  0
 16 19  1  0  0  0  0
 16 37  1  0  0  0  0
 16 38  1  0  0  0  0
 17 20  1  0  0  0  0
 17 39  1  0  0  0  0
 17 40  1  0  0  0  0
 18 21  1  0  0  0  0
 18 22  2  0  0  0  0
 19 41  1  0  0  0  0
 19 42  1  0  0  0  0
 20 43  1  0  0  0  0
 20 44  1  0  0  0  0
 21 23  2  0  0  0  0
 21 45  1  0  0  0  0
 22 46  1  0  0  0  0
 23 24  1  0  0  0  0
 23 47  1  0  0  0  0
 24 48  1  0  0  0  0
M  END
> <PUBCHEM_COMPOUND_CID>
75536758

> <PUBCHEM_CONFORMER_RMSD>
1

> <PUBCHEM_CONFORMER_DIVERSEORDER>
1
96
58
130
23
72
135
14
125
71
29
26
8
47
52
107
129
53
121
73
34
60
7
101
91
97
82
90
131
132
74
122
118
38
43
9
76
64
102
59
44
83
40
5
28
108
69
93
65
111
31
57
17
61
6
46
32
110
70
35
62
98
33
13
89
56
84
27
105
45
104
92
11
134
85
95
48
22
66
112
115
114
15
37
77
68
25
127
116
51
54
12
49
67
94
106
36
99
120
4
41
42
39
30
128
19
75
81
18
21
10
117
136
88
79
63
86
24
123
133
16
126
20
87
113
2
55
3
124
100
109
103
78
50
119
80

> <PUBCHEM_MMFF94_PARTIAL_CHARGES>
31
1 -0.56
10 0.28
11 0.28
12 0.28
13 0.3
14 0.41
15 0.69
16 0.3
17 0.3
18 -0.14
19 0.28
2 -0.68
20 0.28
21 -0.15
22 0.16
23 -0.15
24 0.16
3 -0.56
32 0.36
33 0.37
36 0.4
4 -0.57
45 0.15
46 0.15
47 0.15
48 0.15
5 -0.9
6 -0.73
7 -0.66
8 -0.62
9 0.27

> <PUBCHEM_EFFECTIVE_ROTOR_COUNT>
9.2

> <PUBCHEM_PHARMACOPHORE_FEATURES>
12
1 1 acceptor
1 2 acceptor
1 2 donor
1 3 acceptor
1 4 acceptor
1 5 cation
1 5 donor
1 6 donor
1 8 acceptor
5 1 9 10 11 12 rings
6 3 7 16 17 19 20 rings
6 8 18 21 22 23 24 rings

> <PUBCHEM_HEAVY_ATOM_COUNT>
24

> <PUBCHEM_ATOM_DEF_STEREO_COUNT>
3

> <PUBCHEM_ATOM_UDEF_STEREO_COUNT>
0

> <PUBCHEM_BOND_DEF_STEREO_COUNT>
0

> <PUBCHEM_BOND_UDEF_STEREO_COUNT>
0

> <PUBCHEM_ISOTOPIC_ATOM_COUNT>
0

> <PUBCHEM_COMPONENT_COUNT>
1

> <PUBCHEM_CACTVS_TAUTO_COUNT>
2

> <PUBCHEM_CONFORMER_ID>
0480997600000001

> <PUBCHEM_MMFF94_ENERGY>
50.3639

> <PUBCHEM_FEATURE_SELFOVERLAP>
60.898

> <PUBCHEM_SHAPE_FINGERPRINT>
10 15 13623533458886058979
10050765 1 18050849918514166476
10066227 49 17274268240751757622
106641 1 10015576203692303526
11135609 99 10879407540489550773
11135926 11 18260823791942604199
11315181 36 17346601889648997603
11524674 6 14273460288424134129
11719270 70 17704072872309758462
12082328 90 18131068226004350423
125118 31 18335986445698975828
13533116 47 17676760977995889474
13885169 127 18343584023337686765
13914758 101 18408323267949404976
13968360 50 17346321466649709494
14123256 10 18411981360066652991
14251764 18 17385721400557326827
14251764 46 17240202135953446121
14344974 52 18343295990932319949
15183329 4 16950280711023775044
15716309 27 11097856298112104817
15849732 13 18059856181423988900
18681886 176 18059285552569961619
20157964 124 17917998270136469070
20281389 69 15502374547367861004
20554085 129 18201988942157511658
21150785 3 17203608185715676477
21315763 28 18342738533055068989
220451 1 14707208851121198864
22224240 67 18259983777521346250
23559900 14 17846210115991228865
246663 6 11239998966506672661
3009799 131 18273216408435566033
335352 9 18187368753000634212
4073 2 18114749342722934778
4339292 15 16988268898948338751
5385378 56 17458340797819211050
5758199 1 18259984864253573867
59682541 35 9079107865111670853
5969126 39 15051736361445471665
59755656 215 18333734589923790462
59755656 520 15864071009712962187

> <PUBCHEM_SHAPE_MULTIPOLES>
450.51
25.82
1.58
0.89
3.75
0.11
-0.05
-6.21
2.7
-0.95
-0.14
0.19
0.05
0.44

> <PUBCHEM_SHAPE_SELFOVERLAP>
933.141

> <PUBCHEM_SHAPE_VOLUME>
255.9

> <PUBCHEM_COORDINATE_TYPE>
2
5
10

$$$$
