75536561
  -OEChem-12032416303D

 53 55  0     1  0  0  0  0  0999 V2000
    1.3640   -1.2147   -0.3980 O   0  0  0  0  0  0  0  0  0  0  0  0
    0.3596    2.0718    0.6487 O   0  0  0  0  0  0  0  0  0  0  0  0
    4.9702    1.4228    0.1019 O   0  0  0  0  0  0  0  0  0  0  0  0
   -8.3130   -0.2417    0.6335 O   0  0  0  0  0  0  0  0  0  0  0  0
    3.9443   -0.5804    0.7028 N   0  0  0  0  0  0  0  0  0  0  0  0
   -2.0026    0.0848    0.0591 N   0  0  0  0  0  0  0  0  0  0  0  0
    1.6693    0.0865    0.1307 C   0  0  1  0  0  0  0  0  0  0  0  0
    0.3494    0.6576    0.6311 C   0  0  2  0  0  0  0  0  0  0  0  0
    6.1457   -0.6219   -0.2621 C   0  0  0  0  0  0  0  0  0  0  0  0
   -0.6199    0.0915   -0.3901 C   0  0  1  0  0  0  0  0  0  0  0  0
    6.9024    0.0867   -1.3867 C   0  0  0  0  0  0  0  0  0  0  0  0
    7.1454   -0.7902    0.8877 C   0  0  0  0  0  0  0  0  0  0  0  0
    8.0855    0.7495   -0.6959 C   0  0  0  0  0  0  0  0  0  0  0  0
    8.4775   -0.2670    0.3611 C   0  0  0  0  0  0  0  0  0  0  0  0
   -0.0578   -1.3056   -0.5959 C   0  0  0  0  0  0  0  0  0  0  0  0
    2.7216   -0.0354    1.2184 C   0  0  0  0  0  0  0  0  0  0  0  0
    4.9734    0.1973    0.1843 C   0  0  0  0  0  0  0  0  0  0  0  0
   -2.9155   -0.1434   -1.0547 C   0  0  0  0  0  0  0  0  0  0  0  0
   -4.3522   -0.1701   -0.6056 C   0  0  0  0  0  0  0  0  0  0  0  0
   -4.8589   -1.2944    0.0462 C   0  0  0  0  0  0  0  0  0  0  0  0
   -5.1766    0.9301   -0.8411 C   0  0  0  0  0  0  0  0  0  0  0  0
   -6.1900   -1.3186    0.4624 C   0  0  0  0  0  0  0  0  0  0  0  0
   -6.5078    0.9061   -0.4250 C   0  0  0  0  0  0  0  0  0  0  0  0
   -7.0144   -0.2184    0.2267 C   0  0  0  0  0  0  0  0  0  0  0  0
   -9.0997    0.9170    0.3604 C   0  0  0  0  0  0  0  0  0  0  0  0
    2.0652    0.6905   -0.6965 H   0  0  0  0  0  0  0  0  0  0  0  0
    0.1177    0.2931    1.6397 H   0  0  0  0  0  0  0  0  0  0  0  0
    5.7930   -1.5963   -0.6209 H   0  0  0  0  0  0  0  0  0  0  0  0
   -0.5233    0.6810   -1.3129 H   0  0  0  0  0  0  0  0  0  0  0  0
    6.3047    0.8046   -1.9570 H   0  0  0  0  0  0  0  0  0  0  0  0
    7.2764   -0.6617   -2.0972 H   0  0  0  0  0  0  0  0  0  0  0  0
    7.2344   -1.8391    1.1903 H   0  0  0  0  0  0  0  0  0  0  0  0
    6.8452   -0.2222    1.7766 H   0  0  0  0  0  0  0  0  0  0  0  0
    7.7784    1.6907   -0.2255 H   0  0  0  0  0  0  0  0  0  0  0  0
    8.9036    0.9637   -1.3895 H   0  0  0  0  0  0  0  0  0  0  0  0
    9.0450   -1.0860   -0.0969 H   0  0  0  0  0  0  0  0  0  0  0  0
    9.0937    0.1694    1.1525 H   0  0  0  0  0  0  0  0  0  0  0  0
   -0.2596   -1.6991   -1.5968 H   0  0  0  0  0  0  0  0  0  0  0  0
   -0.4409   -2.0216    0.1404 H   0  0  0  0  0  0  0  0  0  0  0  0
    2.3865   -0.7207    2.0046 H   0  0  0  0  0  0  0  0  0  0  0  0
    2.9245    0.9414    1.6704 H   0  0  0  0  0  0  0  0  0  0  0  0
    4.0526   -1.5902    0.7259 H   0  0  0  0  0  0  0  0  0  0  0  0
   -2.2191    0.9871    0.4836 H   0  0  0  0  0  0  0  0  0  0  0  0
    0.5643    2.3873   -0.2478 H   0  0  0  0  0  0  0  0  0  0  0  0
   -2.6981   -1.0995   -1.5479 H   0  0  0  0  0  0  0  0  0  0  0  0
   -2.7879    0.6338   -1.8195 H   0  0  0  0  0  0  0  0  0  0  0  0
   -4.2263   -2.1577    0.2350 H   0  0  0  0  0  0  0  0  0  0  0  0
   -4.7937    1.8133   -1.3458 H   0  0  0  0  0  0  0  0  0  0  0  0
   -6.5790   -2.1972    0.9697 H   0  0  0  0  0  0  0  0  0  0  0  0
   -7.0920    1.7944   -0.6393 H   0  0  0  0  0  0  0  0  0  0  0  0
  -10.1042    0.7251    0.7515 H   0  0  0  0  0  0  0  0  0  0  0  0
   -9.2033    1.0884   -0.7164 H   0  0  0  0  0  0  0  0  0  0  0  0
   -8.7150    1.7976    0.8859 H   0  0  0  0  0  0  0  0  0  0  0  0
  1  7  1  0  0  0  0
  1 15  1  0  0  0  0
  2  8  1  0  0  0  0
  2 44  1  0  0  0  0
  3 17  2  0  0  0  0
  4 24  1  0  0  0  0
  4 25  1  0  0  0  0
  5 16  1  0  0  0  0
  5 17  1  0  0  0  0
  5 42  1  0  0  0  0
  6 10  1  0  0  0  0
  6 18  1  0  0  0  0
  6 43  1  0  0  0  0
  7  8  1  0  0  0  0
  7 16  1  0  0  0  0
  7 26  1  0  0  0  0
  8 10  1  0  0  0  0
  8 27  1  0  0  0  0
  9 11  1  0  0  0  0
  9 12  1  0  0  0  0
  9 17  1  0  0  0  0
  9 28  1  0  0  0  0
 10 15  1  0  0  0  0
 10 29  1  0  0  0  0
 11 13  1  0  0  0  0
 11 30  1  0  0  0  0
 11 31  1  0  0  0  0
 12 14  1  0  0  0  0
 12 32  1  0  0  0  0
 12 33  1  0  0  0  0
 13 14  1  0  0  0  0
 13 34  1  0  0  0  0
 13 35  1  0  0  0  0
 14 36  1  0  0  0  0
 14 37  1  0  0  0  0
 15 38  1  0  0  0  0
 15 39  1  0  0  0  0
 16 40  1  0  0  0  0
 16 41  1  0  0  0  0
 18 19  1  0  0  0  0
 18 45  1  0  0  0  0
 18 46  1  0  0  0  0
 19 20  2  0  0  0  0
 19 21  1  0  0  0  0
 20 22  1  0  0  0  0
 20 47  1  0  0  0  0
 21 23  2  0  0  0  0
 21 48  1  0  0  0  0
 22 24  2  0  0  0  0
 22 49  1  0  0  0  0
 23 24  1  0  0  0  0
 23 50  1  0  0  0  0
 25 51  1  0  0  0  0
 25 52  1  0  0  0  0
 25 53  1  0  0  0  0
M  END
> <PUBCHEM_COMPOUND_CID>
75536561

> <PUBCHEM_CONFORMER_RMSD>
1

> <PUBCHEM_CONFORMER_DIVERSEORDER>
1
52
109
96
116
7
33
111
133
89
24
123
77
128
79
121
12
50
88
127
25
90
87
30
115
85
18
59
73
32
80
100
81
84
108
15
136
126
51
56
62
103
10
63
16
58
129
41
118
69
124
119
47
39
97
101
49
83
86
17
66
70
22
44
13
78
104
139
131
122
20
45
14
43
94
117
102
106
55
11
114
67
37
130
95
23
82
60
135
29
26
21
112
107
42
31
99
53
5
132
92
57
93
46
28
34
2
38
91
35
110
61
36
120
40
74
76
125
54
134
98
137
9
48
113
138
105
4
75
71
68
64
65
27
72
8
6
19
3

> <PUBCHEM_MMFF94_PARTIAL_CHARGES>
28
1 -0.56
10 0.27
15 0.28
16 0.3
17 0.57
18 0.41
19 -0.14
2 -0.68
20 -0.15
21 -0.15
22 -0.15
23 -0.15
24 0.08
25 0.28
3 -0.57
4 -0.36
42 0.37
43 0.36
44 0.4
47 0.15
48 0.15
49 0.15
5 -0.73
50 0.15
6 -0.9
7 0.28
8 0.28
9 0.06

> <PUBCHEM_EFFECTIVE_ROTOR_COUNT>
10

> <PUBCHEM_PHARMACOPHORE_FEATURES>
11
1 1 acceptor
1 2 acceptor
1 2 donor
1 3 acceptor
1 4 acceptor
1 5 donor
1 6 cation
1 6 donor
5 1 7 8 10 15 rings
5 9 11 12 13 14 rings
6 19 20 21 22 23 24 rings

> <PUBCHEM_HEAVY_ATOM_COUNT>
25

> <PUBCHEM_ATOM_DEF_STEREO_COUNT>
3

> <PUBCHEM_ATOM_UDEF_STEREO_COUNT>
0

> <PUBCHEM_BOND_DEF_STEREO_COUNT>
0

> <PUBCHEM_BOND_UDEF_STEREO_COUNT>
0

> <PUBCHEM_ISOTOPIC_ATOM_COUNT>
0

> <PUBCHEM_COMPONENT_COUNT>
1

> <PUBCHEM_CACTVS_TAUTO_COUNT>
2

> <PUBCHEM_CONFORMER_ID>
048098B100000001

> <PUBCHEM_MMFF94_ENERGY>
59.6207

> <PUBCHEM_FEATURE_SELFOVERLAP>
55.822

> <PUBCHEM_SHAPE_FINGERPRINT>
10 15 18186801366609921699
10050765 1 18050567348542256966
10299344 5 17894629253392702499
10319688 140 16772965679718037006
106641 1 16805045125321307551
10670039 82 13182745819344502955
11315181 36 17530683204809018757
11638347 137 12685084879069986272
13533116 47 16660912298020593656
14123256 10 18260830397469760820
14150022 121 18262236617488127893
14251764 18 17530683216633792791
14251764 46 18202001027498610279
14849402 71 16805896185549151884
14856354 85 18411702110516316615
14933364 13 18333448746337300020
15183329 4 15626224615363322302
15461852 350 8574424336077142137
15716309 27 17530682108991153371
15849732 13 18342457062600049428
16120349 18 12319446702358171274
18006028 8 15841550777981969520
18335252 98 17603585205616222594
21095086 128 16805319985726843730
21150785 3 17240202136011468440
21267235 1 18342740719214625592
21792934 111 17917985084186308040
21792961 116 18339635647017390349
22224240 67 14634588276859440984
23035841 295 18410008849102179546
232437 2 17240483602187475643
23516275 137 18115601326738123051
249057 3 15554443020007532949
28498 318 15769780139177760788
335352 9 18131066056681992389
33684 2 18410573980856490338
34797466 226 16877665656317355702
4325135 7 16877942741341487655
5283156 175 18411135815120864570
5758199 1 16950000331137020675
59682541 35 14851609890255179973
59755656 215 17703792492264501214
6394761 36 16200433567631293277
67123 10 17458064871628567886

> <PUBCHEM_SHAPE_MULTIPOLES>
481.05
29.81
1.27
1.01
1.75
0.11
0.07
1.51
-0.84
0.59
-0.07
-0.64
0.03
-0.16

> <PUBCHEM_SHAPE_SELFOVERLAP>
1001.938

> <PUBCHEM_SHAPE_VOLUME>
275.4

> <PUBCHEM_COORDINATE_TYPE>
2
5
10

$$$$
