11885280
  -OEChem-12032416213D

 58 62  0     1  0  0  0  0  0999 V2000
    3.7182   -1.4140   -0.5595 S   0  0  0  0  0  0  0  0  0  0  0  0
    3.7288   -1.7147   -1.9763 O   0  0  0  0  0  0  0  0  0  0  0  0
    3.2138   -2.3542    0.4195 O   0  0  0  0  0  0  0  0  0  0  0  0
   -1.7217    1.0763   -1.7501 O   0  0  0  0  0  0  0  0  0  0  0  0
   -8.6385    0.4709    0.0701 O   0  0  0  0  0  0  0  0  0  0  0  0
    2.9558    0.1003   -0.3296 N   0  0  2  0  0  0  0  0  0  0  0  0
    0.0994    1.4506   -0.3419 N   0  0  0  0  0  0  0  0  0  0  0  0
   -7.2853   -1.4392   -0.2113 N   0  0  0  0  0  0  0  0  0  0  0  0
    2.3374    2.3600   -1.1929 C   0  0  1  0  0  0  0  0  0  0  0  0
    2.0569    1.8488    1.1926 C   0  0  2  0  0  0  0  0  0  0  0  0
    2.4749    2.9384    0.2091 C   0  0  0  0  0  0  0  0  0  0  0  0
    3.2489    1.1336   -1.3636 C   0  0  0  0  0  0  0  0  0  0  0  0
    3.0064    0.6442    1.0605 C   0  0  0  0  0  0  0  0  0  0  0  0
    0.8618    2.0340   -1.4544 C   0  0  0  0  0  0  0  0  0  0  0  0
    0.6218    1.4182    0.9531 C   0  0  0  0  0  0  0  0  0  0  0  0
   -0.1363    0.9882    1.9744 C   0  0  0  0  0  0  0  0  0  0  0  0
   -1.2144    1.0294   -0.6280 C   0  0  0  0  0  0  0  0  0  0  0  0
   -2.0274    0.5186    0.5311 C   0  0  0  0  0  0  0  0  0  0  0  0
   -1.4777    0.5269    1.7547 C   0  0  0  0  0  0  0  0  0  0  0  0
    5.4424   -1.2203   -0.1210 C   0  0  0  0  0  0  0  0  0  0  0  0
   -3.3963    0.0094    0.3379 C   0  0  0  0  0  0  0  0  0  0  0  0
    5.8159   -1.4518    1.1803 C   0  0  0  0  0  0  0  0  0  0  0  0
    6.3283   -0.8458   -1.1015 C   0  0  0  0  0  0  0  0  0  0  0  0
   -4.4850    0.8766    0.4360 C   0  0  0  0  0  0  0  0  0  0  0  0
   -3.6055   -1.3414    0.0570 C   0  0  0  0  0  0  0  0  0  0  0  0
    7.1595   -1.2993    1.5227 C   0  0  0  0  0  0  0  0  0  0  0  0
    7.6720   -0.6935   -0.7593 C   0  0  0  0  0  0  0  0  0  0  0  0
    8.0875   -0.9202    0.5529 C   0  0  0  0  0  0  0  0  0  0  0  0
   -5.7809    0.3938    0.2534 C   0  0  0  0  0  0  0  0  0  0  0  0
   -4.9015   -1.8241   -0.1257 C   0  0  0  0  0  0  0  0  0  0  0  0
   -5.9891   -0.9565   -0.0274 C   0  0  0  0  0  0  0  0  0  0  0  0
   -8.4902   -0.7263   -0.1529 C   0  0  0  0  0  0  0  0  0  0  0  0
   -9.6798   -1.6170   -0.4101 C   0  0  0  0  0  0  0  0  0  0  0  0
    2.6562    3.1093   -1.9285 H   0  0  0  0  0  0  0  0  0  0  0  0
    2.1545    2.2535    2.2086 H   0  0  0  0  0  0  0  0  0  0  0  0
    1.8453    3.8298    0.3236 H   0  0  0  0  0  0  0  0  0  0  0  0
    3.5098    3.2498    0.3964 H   0  0  0  0  0  0  0  0  0  0  0  0
    3.0948    0.7163   -2.3642 H   0  0  0  0  0  0  0  0  0  0  0  0
    4.2971    1.4431   -1.2803 H   0  0  0  0  0  0  0  0  0  0  0  0
    4.0298    0.9574    1.2973 H   0  0  0  0  0  0  0  0  0  0  0  0
    2.7134   -0.1342    1.7740 H   0  0  0  0  0  0  0  0  0  0  0  0
    0.3388    2.9650   -1.7136 H   0  0  0  0  0  0  0  0  0  0  0  0
    0.7606    1.3789   -2.3289 H   0  0  0  0  0  0  0  0  0  0  0  0
    0.2472    0.9462    2.9885 H   0  0  0  0  0  0  0  0  0  0  0  0
   -2.0203    0.1682    2.6246 H   0  0  0  0  0  0  0  0  0  0  0  0
    5.1086   -1.7373    1.9517 H   0  0  0  0  0  0  0  0  0  0  0  0
    6.0226   -0.6554   -2.1247 H   0  0  0  0  0  0  0  0  0  0  0  0
   -4.3375    1.9319    0.6535 H   0  0  0  0  0  0  0  0  0  0  0  0
   -2.7678   -2.0300   -0.0236 H   0  0  0  0  0  0  0  0  0  0  0  0
    7.4828   -1.4731    2.5449 H   0  0  0  0  0  0  0  0  0  0  0  0
    8.3944   -0.3957   -1.5137 H   0  0  0  0  0  0  0  0  0  0  0  0
    9.1335   -0.8002    0.8196 H   0  0  0  0  0  0  0  0  0  0  0  0
   -6.5716    1.1254    0.3447 H   0  0  0  0  0  0  0  0  0  0  0  0
   -5.0489   -2.8787   -0.3445 H   0  0  0  0  0  0  0  0  0  0  0  0
   -7.3534   -2.4348   -0.4125 H   0  0  0  0  0  0  0  0  0  0  0  0
   -9.6133   -2.0405   -1.4162 H   0  0  0  0  0  0  0  0  0  0  0  0
  -10.6025   -1.0358   -0.3291 H   0  0  0  0  0  0  0  0  0  0  0  0
   -9.7045   -2.4253    0.3262 H   0  0  0  0  0  0  0  0  0  0  0  0
  1  2  2  0  0  0  0
  1  3  2  0  0  0  0
  1  6  1  0  0  0  0
  1 20  1  0  0  0  0
  4 17  2  0  0  0  0
  5 32  2  0  0  0  0
  6 12  1  0  0  0  0
  6 13  1  0  0  0  0
  7 14  1  0  0  0  0
  7 15  1  0  0  0  0
  7 17  1  0  0  0  0
  8 31  1  0  0  0  0
  8 32  1  0  0  0  0
  8 55  1  0  0  0  0
  9 11  1  0  0  0  0
  9 12  1  0  0  0  0
  9 14  1  0  0  0  0
  9 34  1  0  0  0  0
 10 11  1  0  0  0  0
 10 13  1  0  0  0  0
 10 15  1  0  0  0  0
 10 35  1  0  0  0  0
 11 36  1  0  0  0  0
 11 37  1  0  0  0  0
 12 38  1  0  0  0  0
 12 39  1  0  0  0  0
 13 40  1  0  0  0  0
 13 41  1  0  0  0  0
 14 42  1  0  0  0  0
 14 43  1  0  0  0  0
 15 16  2  0  0  0  0
 16 19  1  0  0  0  0
 16 44  1  0  0  0  0
 17 18  1  0  0  0  0
 18 19  2  0  0  0  0
 18 21  1  0  0  0  0
 19 45  1  0  0  0  0
 20 22  2  0  0  0  0
 20 23  1  0  0  0  0
 21 24  2  0  0  0  0
 21 25  1  0  0  0  0
 22 26  1  0  0  0  0
 22 46  1  0  0  0  0
 23 27  2  0  0  0  0
 23 47  1  0  0  0  0
 24 29  1  0  0  0  0
 24 48  1  0  0  0  0
 25 30  2  0  0  0  0
 25 49  1  0  0  0  0
 26 28  2  0  0  0  0
 26 50  1  0  0  0  0
 27 28  1  0  0  0  0
 27 51  1  0  0  0  0
 28 52  1  0  0  0  0
 29 31  2  0  0  0  0
 29 53  1  0  0  0  0
 30 31  1  0  0  0  0
 30 54  1  0  0  0  0
 32 33  1  0  0  0  0
 33 56  1  0  0  0  0
 33 57  1  0  0  0  0
 33 58  1  0  0  0  0
M  END
> <PUBCHEM_COMPOUND_CID>
11885280

> <PUBCHEM_CONFORMER_RMSD>
0.8

> <PUBCHEM_CONFORMER_DIVERSEORDER>
1
17
18
7
12
13
16
6
11
8
4
15
14
9
3
5
10
2

> <PUBCHEM_MMFF94_PARTIAL_CHARGES>
43
1 1.45
10 0.14
12 0.36
13 0.36
14 0.3
15 -0.03
16 -0.15
17 0.62
18 -0.01
19 -0.15
2 -0.65
20 -0.01
21 0.03
22 -0.15
23 -0.15
24 -0.15
25 -0.15
26 -0.15
27 -0.15
28 -0.15
29 -0.15
3 -0.65
30 -0.15
31 0.12
32 0.57
33 0.06
4 -0.57
44 0.15
45 0.15
46 0.15
47 0.15
48 0.15
49 0.15
5 -0.57
50 0.15
51 0.15
52 0.15
53 0.15
54 0.15
55 0.37
6 -0.85
7 -0.47
8 -0.55

> <PUBCHEM_EFFECTIVE_ROTOR_COUNT>
6

> <PUBCHEM_PHARMACOPHORE_FEATURES>
10
1 2 acceptor
1 3 acceptor
1 4 acceptor
1 5 acceptor
1 8 donor
6 20 22 23 26 27 28 rings
6 21 24 25 29 30 31 rings
6 6 9 10 11 12 13 rings
6 7 15 16 17 18 19 rings
6 7 9 10 11 14 15 rings

> <PUBCHEM_HEAVY_ATOM_COUNT>
33

> <PUBCHEM_ATOM_DEF_STEREO_COUNT>
2

> <PUBCHEM_ATOM_UDEF_STEREO_COUNT>
0

> <PUBCHEM_BOND_DEF_STEREO_COUNT>
0

> <PUBCHEM_BOND_UDEF_STEREO_COUNT>
0

> <PUBCHEM_ISOTOPIC_ATOM_COUNT>
0

> <PUBCHEM_COMPONENT_COUNT>
1

> <PUBCHEM_CACTVS_TAUTO_COUNT>
2

> <PUBCHEM_CONFORMER_ID>
00B55AE000000001

> <PUBCHEM_MMFF94_ENERGY>
86.8135

> <PUBCHEM_FEATURE_SELFOVERLAP>
52.349

> <PUBCHEM_SHAPE_FINGERPRINT>
10 15 14405183975784874706
106641 1 15913324697724616202
10670039 82 15285351791537402837
11115154 58 18040438772087679781
11135609 99 18131350855620862630
11456790 92 17346048848691985771
11828532 37 16661224644795044171
12107698 1 17821730520507225588
12133447 93 18200326398349066524
12522641 24 17988359373499248920
12522641 33 17969227918695101044
12592606 108 18408884053682537403
12633257 1 13686006588700616298
13533116 47 18343585183358495961
13540713 4 16372717260122016417
13540713 5 15121791873316164761
13673619 4 18408602560929994981
14040221 8 18260835869622574357
14068700 675 18410576167612685448
15183329 4 18186523194141100595
15392192 104 13614518571666524916
15439362 3 17679030545820662124
15510800 12 18341909501283139651
15840311 113 12967127234092960650
18335252 114 13045940209553544890
18603816 31 18200584900369195927
20105231 36 16630533912900496510
2026 5 18341611486851634983
20771845 140 17275387599807919486
21344244 78 17561082505982745264
21641784 216 15213289812807338535
21792934 111 15338848547299288761
22224240 67 13470688148464822573
23559900 14 18114466785119053065
23569943 247 17895470319953971595
23576562 1 14852463180725960471
249057 3 18408322203040270787
2838139 119 8214133037314182538
3004659 81 18410573998273756251
3383291 50 17988927786461471463
4066623 53 16298387959634505124
4098825 35 17676205749734387188
4112364 45 15482376656042071856
4149490 64 18339362001924407259
439807 62 17894349973228799614
59682541 35 14692567736990131287
59682541 52 17167865266536978662
59755656 520 10303802160555211552
6126387 218 17775565321781482011
6438161 24 18413106173779539803
9962374 69 18341888645390786319

> <PUBCHEM_SHAPE_MULTIPOLES>
644.55
24.96
2.45
1.51
31.66
0.65
-0.05
-18.74
0.98
-1.57
0.28
-1.75
0.32
-0.76

> <PUBCHEM_SHAPE_SELFOVERLAP>
1398.996

> <PUBCHEM_SHAPE_VOLUME>
351.1

> <PUBCHEM_COORDINATE_TYPE>
2
5
10

$$$$
