51138033
  -OEChem-12032416283D

 62 65  0     1  0  0  0  0  0999 V2000
   -3.4453    1.9759   -1.6716 O   0  0  0  0  0  0  0  0  0  0  0  0
   -2.1370   -0.3070   -0.6265 N   0  0  0  0  0  0  0  0  0  0  0  0
    2.5097    0.9577    0.8943 N   0  0  0  0  0  0  0  0  0  0  0  0
   -4.2020    2.0629    0.5282 N   0  0  0  0  0  0  0  0  0  0  0  0
    6.8638   -0.3604   -0.3976 N   0  0  0  0  0  0  0  0  0  0  0  0
   -1.6659   -1.4324    0.1918 C   0  0  2  0  0  0  0  0  0  0  0  0
   -0.1980   -1.3754    0.6267 C   0  0  0  0  0  0  0  0  0  0  0  0
    0.6207   -0.2095    0.6003 C   0  0  0  0  0  0  0  0  0  0  0  0
   -2.1200    0.9836    0.0470 C   0  0  1  0  0  0  0  0  0  0  0  0
   -1.9847   -2.6835   -0.6465 C   0  0  0  0  0  0  0  0  0  0  0  0
    0.3990    1.1597    0.2207 C   0  0  0  0  0  0  0  0  0  0  0  0
   -0.8592    1.7766   -0.2918 C   0  0  0  0  0  0  0  0  0  0  0  0
    1.9474   -0.2885    1.0396 C   0  0  0  0  0  0  0  0  0  0  0  0
   -3.4683   -3.0636   -0.6136 C   0  0  0  0  0  0  0  0  0  0  0  0
    1.5871    1.8366    0.4089 C   0  0  0  0  0  0  0  0  0  0  0  0
    0.3934   -2.5424    1.1741 C   0  0  0  0  0  0  0  0  0  0  0  0
   -3.3165    1.7165   -0.4781 C   0  0  0  0  0  0  0  0  0  0  0  0
    2.5256   -1.4596    1.5320 C   0  0  0  0  0  0  0  0  0  0  0  0
    3.8745    1.3097    1.2229 C   0  0  0  0  0  0  0  0  0  0  0  0
    1.7181   -2.5874    1.6042 C   0  0  0  0  0  0  0  0  0  0  0  0
   -4.3726   -1.9550   -1.1540 C   0  0  0  0  0  0  0  0  0  0  0  0
   -3.6791   -4.3444   -1.4247 C   0  0  0  0  0  0  0  0  0  0  0  0
    4.8710    0.8834    0.1738 C   0  0  0  0  0  0  0  0  0  0  0  0
   -5.4243    2.7954    0.2881 C   0  0  0  0  0  0  0  0  0  0  0  0
   -6.6055    1.8758    0.0023 C   0  0  0  0  0  0  0  0  0  0  0  0
    4.7493    1.3082   -1.1447 C   0  0  0  0  0  0  0  0  0  0  0  0
    5.9365    0.0573    0.4931 C   0  0  0  0  0  0  0  0  0  0  0  0
   -6.9140    0.9373    1.1602 C   0  0  0  0  0  0  0  0  0  0  0  0
    5.6836    0.8997   -2.0899 C   0  0  0  0  0  0  0  0  0  0  0  0
    6.7128    0.0729   -1.6693 C   0  0  0  0  0  0  0  0  0  0  0  0
   -2.2572   -1.4741    1.1169 H   0  0  0  0  0  0  0  0  0  0  0  0
   -2.2039    0.8612    1.1344 H   0  0  0  0  0  0  0  0  0  0  0  0
   -1.4344   -3.5618   -0.2971 H   0  0  0  0  0  0  0  0  0  0  0  0
   -1.6469   -2.5470   -1.6846 H   0  0  0  0  0  0  0  0  0  0  0  0
   -0.7621    1.9106   -1.3782 H   0  0  0  0  0  0  0  0  0  0  0  0
   -0.9544    2.7883    0.1261 H   0  0  0  0  0  0  0  0  0  0  0  0
   -1.6356   -0.2666   -1.5131 H   0  0  0  0  0  0  0  0  0  0  0  0
   -3.7628   -3.2742    0.4224 H   0  0  0  0  0  0  0  0  0  0  0  0
    1.8376    2.8751    0.2357 H   0  0  0  0  0  0  0  0  0  0  0  0
   -0.1926   -3.4487    1.3080 H   0  0  0  0  0  0  0  0  0  0  0  0
    3.5539   -1.4983    1.8736 H   0  0  0  0  0  0  0  0  0  0  0  0
    4.1040    0.8695    2.2006 H   0  0  0  0  0  0  0  0  0  0  0  0
    3.9305    2.3977    1.3518 H   0  0  0  0  0  0  0  0  0  0  0  0
    2.1204   -3.5113    2.0112 H   0  0  0  0  0  0  0  0  0  0  0  0
   -4.0209   -1.5698   -2.1167 H   0  0  0  0  0  0  0  0  0  0  0  0
   -4.4806   -1.1338   -0.4405 H   0  0  0  0  0  0  0  0  0  0  0  0
   -5.3874   -2.3390   -1.3136 H   0  0  0  0  0  0  0  0  0  0  0  0
   -3.4159   -4.1968   -2.4777 H   0  0  0  0  0  0  0  0  0  0  0  0
   -4.7251   -4.6661   -1.3797 H   0  0  0  0  0  0  0  0  0  0  0  0
   -3.0655   -5.1623   -1.0321 H   0  0  0  0  0  0  0  0  0  0  0  0
   -4.0041    1.7970    1.4881 H   0  0  0  0  0  0  0  0  0  0  0  0
   -5.2716    3.4728   -0.5591 H   0  0  0  0  0  0  0  0  0  0  0  0
   -5.6182    3.4050    1.1770 H   0  0  0  0  0  0  0  0  0  0  0  0
   -7.4907    2.4872   -0.2071 H   0  0  0  0  0  0  0  0  0  0  0  0
   -6.4056    1.2783   -0.8951 H   0  0  0  0  0  0  0  0  0  0  0  0
    3.9399    1.9642   -1.4515 H   0  0  0  0  0  0  0  0  0  0  0  0
    6.0865   -0.3076    1.5045 H   0  0  0  0  0  0  0  0  0  0  0  0
   -6.0855    0.2477    1.3496 H   0  0  0  0  0  0  0  0  0  0  0  0
   -7.1124    1.4993    2.0783 H   0  0  0  0  0  0  0  0  0  0  0  0
   -7.8009    0.3377    0.9316 H   0  0  0  0  0  0  0  0  0  0  0  0
    5.6099    1.2201   -3.1228 H   0  0  0  0  0  0  0  0  0  0  0  0
    7.4676   -0.2733   -2.3676 H   0  0  0  0  0  0  0  0  0  0  0  0
  1 17  2  0  0  0  0
  2  6  1  0  0  0  0
  2  9  1  0  0  0  0
  2 37  1  0  0  0  0
  3 13  1  0  0  0  0
  3 15  1  0  0  0  0
  3 19  1  0  0  0  0
  4 17  1  0  0  0  0
  4 24  1  0  0  0  0
  4 51  1  0  0  0  0
  5 27  1  0  0  0  0
  5 30  2  0  0  0  0
  6  7  1  0  0  0  0
  6 10  1  0  0  0  0
  6 31  1  0  0  0  0
  7  8  2  0  0  0  0
  7 16  1  0  0  0  0
  8 11  1  0  0  0  0
  8 13  1  0  0  0  0
  9 12  1  0  0  0  0
  9 17  1  0  0  0  0
  9 32  1  0  0  0  0
 10 14  1  0  0  0  0
 10 33  1  0  0  0  0
 10 34  1  0  0  0  0
 11 12  1  0  0  0  0
 11 15  2  0  0  0  0
 12 35  1  0  0  0  0
 12 36  1  0  0  0  0
 13 18  2  0  0  0  0
 14 21  1  0  0  0  0
 14 22  1  0  0  0  0
 14 38  1  0  0  0  0
 15 39  1  0  0  0  0
 16 20  2  0  0  0  0
 16 40  1  0  0  0  0
 18 20  1  0  0  0  0
 18 41  1  0  0  0  0
 19 23  1  0  0  0  0
 19 42  1  0  0  0  0
 19 43  1  0  0  0  0
 20 44  1  0  0  0  0
 21 45  1  0  0  0  0
 21 46  1  0  0  0  0
 21 47  1  0  0  0  0
 22 48  1  0  0  0  0
 22 49  1  0  0  0  0
 22 50  1  0  0  0  0
 23 26  1  0  0  0  0
 23 27  2  0  0  0  0
 24 25  1  0  0  0  0
 24 52  1  0  0  0  0
 24 53  1  0  0  0  0
 25 28  1  0  0  0  0
 25 54  1  0  0  0  0
 25 55  1  0  0  0  0
 26 29  2  0  0  0  0
 26 56  1  0  0  0  0
 27 57  1  0  0  0  0
 28 58  1  0  0  0  0
 28 59  1  0  0  0  0
 28 60  1  0  0  0  0
 29 30  1  0  0  0  0
 29 61  1  0  0  0  0
 30 62  1  0  0  0  0
M  END
> <PUBCHEM_COMPOUND_CID>
51138033

> <PUBCHEM_CONFORMER_RMSD>
1

> <PUBCHEM_CONFORMER_DIVERSEORDER>
1
78
93
132
68
19
118
74
57
24
76
125
104
39
55
116
9
86
54
43
123
27
122
30
102
63
92
35
67
115
6
46
124
130
42
90
72
26
71
113
40
10
77
131
121
5
12
120
66
41
11
85
127
119
82
101
126
20
45
103
64
110
44
87
32
112
48
117
4
94
129
105
79
47
22
108
83
60
49
58
34
28
18
99
89
75
109
33
2
107
114
7
14
31
100
69
111
95
88
13
37
97
8
91
98
29
61
70
3
23
106
16
59
38
81
15
73
56
36
128
17
51
50
25
133
53
21
62
84
65
96
52
80

> <PUBCHEM_MMFF94_PARTIAL_CHARGES>
33
1 -0.57
11 -0.18
12 0.18
13 -0.15
15 -0.3
16 -0.15
17 0.57
18 -0.15
19 0.4
2 -0.9
20 -0.15
23 -0.14
24 0.3
26 -0.15
27 0.16
29 -0.15
3 0.05
30 0.16
37 0.36
39 0.15
4 -0.73
40 0.15
41 0.15
44 0.15
5 -0.62
51 0.37
56 0.15
57 0.15
6 0.41
61 0.15
62 0.15
7 -0.14
9 0.33

> <PUBCHEM_EFFECTIVE_ROTOR_COUNT>
8.8

> <PUBCHEM_PHARMACOPHORE_FEATURES>
12
1 1 acceptor
1 2 cation
1 2 donor
1 28 hydrophobe
1 3 cation
1 4 donor
1 5 acceptor
3 14 21 22 hydrophobe
5 3 8 11 13 15 rings
6 5 23 26 27 29 30 rings
6 7 8 13 16 18 20 rings
7 2 6 7 8 9 11 12 rings

> <PUBCHEM_HEAVY_ATOM_COUNT>
30

> <PUBCHEM_ATOM_DEF_STEREO_COUNT>
2

> <PUBCHEM_ATOM_UDEF_STEREO_COUNT>
0

> <PUBCHEM_BOND_DEF_STEREO_COUNT>
0

> <PUBCHEM_BOND_UDEF_STEREO_COUNT>
0

> <PUBCHEM_ISOTOPIC_ATOM_COUNT>
0

> <PUBCHEM_COMPONENT_COUNT>
1

> <PUBCHEM_CACTVS_TAUTO_COUNT>
2

> <PUBCHEM_CONFORMER_ID>
030C4DF100000001

> <PUBCHEM_MMFF94_ENERGY>
64.1288

> <PUBCHEM_FEATURE_SELFOVERLAP>
61.026

> <PUBCHEM_SHAPE_FINGERPRINT>
10190108 129 18188503492098443603
10670039 82 18113614625638071270
10674148 151 17632301108340032768
11331351 85 17626381582881870207
11445158 3 17756129108023401023
11796584 16 18273498962403648774
12954195 1 18342458174759331743
13540713 5 18189032270727802210
13782708 43 16987436606013966375
14294032 229 18260261911135385621
14347332 77 18268987747182655606
1454969 45 18040720264523269101
14790565 3 18333453140194579264
14840074 17 17095246929768702980
14955137 171 17895207605136420148
15064986 266 18042984227984555734
15183329 4 17917716756088522384
15629462 23 16486987158981820001
15927050 60 18342453712837379319
16752209 62 18261387918990780354
19319366 153 18041277651839999338
21641784 216 17823683330029620079
22122407 14 14707470530599222750
22393880 68 18340476850827408888
23559900 14 18343578569515451656
25147074 1 18188194442956834810
3009799 131 11167935836308972729
350125 39 18408037420943620977
3610482 184 18115043990548692644
38570 142 18261121733469960570
4058900 60 18123758552302029537
5252454 2 18335127662028177769
563151 40 18408610257790958211
59755656 215 18273218577430830957
59755656 520 18342174449742081941
9658208 31 18412258471805127432

> <PUBCHEM_SHAPE_MULTIPOLES>
591.59
16.07
3.89
1.57
5.5
3.35
0.31
-7.73
4.46
-7.05
0.67
1.33
0.46
-2.28

> <PUBCHEM_SHAPE_SELFOVERLAP>
1262.835

> <PUBCHEM_SHAPE_VOLUME>
328.1

> <PUBCHEM_COORDINATE_TYPE>
2
5
10

$$$$
