71693196
  -OEChem-12032416403D

 65 67  0     1  0  0  0  0  0999 V2000
    4.0972    0.2432   -1.5214 O   0  0  0  0  0  0  0  0  0  0  0  0
    4.5453   -1.8807    0.0710 O   0  0  0  0  0  0  0  0  0  0  0  0
   -7.0398   -2.1476   -0.3660 O   0  0  0  0  0  0  0  0  0  0  0  0
    5.4338   -5.1729    1.1788 O   0  0  0  0  0  0  0  0  0  0  0  0
    5.3785   -4.2787   -0.9153 O   0  0  0  0  0  0  0  0  0  0  0  0
    3.4763    1.5964    0.2677 N   0  0  0  0  0  0  0  0  0  0  0  0
   -3.0946    0.1592    1.3925 N   0  0  0  0  0  0  0  0  0  0  0  0
   -1.7057   -0.7869   -0.0619 N   0  0  0  0  0  0  0  0  0  0  0  0
    0.7799    2.2055   -0.9163 C   0  0  1  0  0  0  0  0  0  0  0  0
    1.7576    3.2333   -0.2936 C   0  0  1  0  0  0  0  0  0  0  0  0
   -0.6418    2.4224   -0.3760 C   0  0  0  0  0  0  0  0  0  0  0  0
   -0.7085    2.2926    1.1574 C   0  0  2  0  0  0  0  0  0  0  0  0
    0.7710    2.2835   -2.4461 C   0  0  0  0  0  0  0  0  0  0  0  0
    0.3998    3.0710    1.8371 C   0  0  0  0  0  0  0  0  0  0  0  0
    1.4878    3.4946    1.1696 C   0  0  0  0  0  0  0  0  0  0  0  0
    3.2142    2.7903   -0.4731 C   0  0  0  0  0  0  0  0  0  0  0  0
   -0.6903    0.8219    1.5885 C   0  0  0  0  0  0  0  0  0  0  0  0
   -0.1289    3.4222   -2.9155 C   0  0  0  0  0  0  0  0  0  0  0  0
    0.3189    0.9550   -3.0441 C   0  0  0  0  0  0  0  0  0  0  0  0
    0.2074    3.3912    3.2934 C   0  0  0  0  0  0  0  0  0  0  0  0
   -1.8067    0.0484    0.9476 C   0  0  0  0  0  0  0  0  0  0  0  0
    3.9014    0.4054   -0.3200 C   0  0  0  0  0  0  0  0  0  0  0  0
   -3.8768   -0.6589    0.6184 C   0  0  0  0  0  0  0  0  0  0  0  0
   -2.9868   -1.2383   -0.2817 C   0  0  0  0  0  0  0  0  0  0  0  0
    4.1032   -0.6960    0.6988 C   0  0  0  0  0  0  0  0  0  0  0  0
   -5.2448   -0.9336    0.6280 C   0  0  0  0  0  0  0  0  0  0  0  0
   -3.4728   -2.1480   -1.2358 C   0  0  0  0  0  0  0  0  0  0  0  0
   -5.7112   -1.8413   -0.3286 C   0  0  0  0  0  0  0  0  0  0  0  0
   -4.8427   -2.4389   -1.2447 C   0  0  0  0  0  0  0  0  0  0  0  0
    4.7439   -2.9359    1.0075 C   0  0  0  0  0  0  0  0  0  0  0  0
   -7.8779   -1.5072    0.5932 C   0  0  0  0  0  0  0  0  0  0  0  0
    5.2130   -4.1712    0.2906 C   0  0  0  0  0  0  0  0  0  0  0  0
    1.0956    1.1960   -0.6265 H   0  0  0  0  0  0  0  0  0  0  0  0
    1.6465    4.1994   -0.8018 H   0  0  0  0  0  0  0  0  0  0  0  0
   -1.3682    1.7705   -0.8681 H   0  0  0  0  0  0  0  0  0  0  0  0
   -0.9724    3.4479   -0.5910 H   0  0  0  0  0  0  0  0  0  0  0  0
   -1.6672    2.7347    1.4649 H   0  0  0  0  0  0  0  0  0  0  0  0
    1.7808    2.4718   -2.8248 H   0  0  0  0  0  0  0  0  0  0  0  0
    2.2295    4.0903    1.6982 H   0  0  0  0  0  0  0  0  0  0  0  0
    3.8931    3.5575   -0.0814 H   0  0  0  0  0  0  0  0  0  0  0  0
    3.4736    2.6532   -1.5263 H   0  0  0  0  0  0  0  0  0  0  0  0
   -0.7932    0.7370    2.6776 H   0  0  0  0  0  0  0  0  0  0  0  0
    0.2646    0.3455    1.3346 H   0  0  0  0  0  0  0  0  0  0  0  0
    0.1056    4.3740   -2.4298 H   0  0  0  0  0  0  0  0  0  0  0  0
    0.0213    3.5788   -3.9909 H   0  0  0  0  0  0  0  0  0  0  0  0
   -1.1957    3.2071   -2.7932 H   0  0  0  0  0  0  0  0  0  0  0  0
    0.9795    0.1395   -2.7305 H   0  0  0  0  0  0  0  0  0  0  0  0
    0.3480    0.9988   -4.1384 H   0  0  0  0  0  0  0  0  0  0  0  0
   -0.7033    0.6938   -2.7532 H   0  0  0  0  0  0  0  0  0  0  0  0
   -0.7383    3.9219    3.4441 H   0  0  0  0  0  0  0  0  0  0  0  0
    1.0077    4.0286    3.6843 H   0  0  0  0  0  0  0  0  0  0  0  0
    0.1937    2.4765    3.8933 H   0  0  0  0  0  0  0  0  0  0  0  0
    3.4010    1.6344    1.2803 H   0  0  0  0  0  0  0  0  0  0  0  0
   -3.4157    0.7405    2.1554 H   0  0  0  0  0  0  0  0  0  0  0  0
    3.1481   -0.8748    1.2064 H   0  0  0  0  0  0  0  0  0  0  0  0
    4.8476   -0.3596    1.4298 H   0  0  0  0  0  0  0  0  0  0  0  0
   -5.8635   -0.4372    1.3640 H   0  0  0  0  0  0  0  0  0  0  0  0
   -2.8060   -2.6173   -1.9521 H   0  0  0  0  0  0  0  0  0  0  0  0
   -5.2289   -3.1417   -1.9793 H   0  0  0  0  0  0  0  0  0  0  0  0
    5.5092   -2.6400    1.7328 H   0  0  0  0  0  0  0  0  0  0  0  0
    3.7977   -3.1615    1.5106 H   0  0  0  0  0  0  0  0  0  0  0  0
   -8.8983   -1.8648    0.4201 H   0  0  0  0  0  0  0  0  0  0  0  0
   -7.8938   -0.4208    0.4539 H   0  0  0  0  0  0  0  0  0  0  0  0
   -7.6106   -1.7917    1.6167 H   0  0  0  0  0  0  0  0  0  0  0  0
    5.7418   -5.9928    0.7369 H   0  0  0  0  0  0  0  0  0  0  0  0
  1 22  2  0  0  0  0
  2 25  1  0  0  0  0
  2 30  1  0  0  0  0
  3 28  1  0  0  0  0
  3 31  1  0  0  0  0
  4 32  1  0  0  0  0
  4 65  1  0  0  0  0
  5 32  2  0  0  0  0
  6 16  1  0  0  0  0
  6 22  1  0  0  0  0
  6 53  1  0  0  0  0
  7 21  1  0  0  0  0
  7 23  1  0  0  0  0
  7 54  1  0  0  0  0
  8 21  2  0  0  0  0
  8 24  1  0  0  0  0
  9 10  1  0  0  0  0
  9 11  1  0  0  0  0
  9 13  1  0  0  0  0
  9 33  1  0  0  0  0
 10 15  1  0  0  0  0
 10 16  1  0  0  0  0
 10 34  1  0  0  0  0
 11 12  1  0  0  0  0
 11 35  1  0  0  0  0
 11 36  1  0  0  0  0
 12 14  1  0  0  0  0
 12 17  1  0  0  0  0
 12 37  1  0  0  0  0
 13 18  1  0  0  0  0
 13 19  1  0  0  0  0
 13 38  1  0  0  0  0
 14 15  2  0  0  0  0
 14 20  1  0  0  0  0
 15 39  1  0  0  0  0
 16 40  1  0  0  0  0
 16 41  1  0  0  0  0
 17 21  1  0  0  0  0
 17 42  1  0  0  0  0
 17 43  1  0  0  0  0
 18 44  1  0  0  0  0
 18 45  1  0  0  0  0
 18 46  1  0  0  0  0
 19 47  1  0  0  0  0
 19 48  1  0  0  0  0
 19 49  1  0  0  0  0
 20 50  1  0  0  0  0
 20 51  1  0  0  0  0
 20 52  1  0  0  0  0
 22 25  1  0  0  0  0
 23 24  2  0  0  0  0
 23 26  1  0  0  0  0
 24 27  1  0  0  0  0
 25 55  1  0  0  0  0
 25 56  1  0  0  0  0
 26 28  2  0  0  0  0
 26 57  1  0  0  0  0
 27 29  2  0  0  0  0
 27 58  1  0  0  0  0
 28 29  1  0  0  0  0
 29 59  1  0  0  0  0
 30 32  1  0  0  0  0
 30 60  1  0  0  0  0
 30 61  1  0  0  0  0
 31 62  1  0  0  0  0
 31 63  1  0  0  0  0
 31 64  1  0  0  0  0
M  END
> <PUBCHEM_COMPOUND_CID>
71693196

> <PUBCHEM_CONFORMER_RMSD>
1.2

> <PUBCHEM_CONFORMER_DIVERSEORDER>
1
43
28
39
22
34
29
13
24
27
16
37
36
25
15
33
17
30
5
32
12
23
38
26
21
4
35
2
20
31
10
18
14
9
19
11
7
42
3
40
6
41
8

> <PUBCHEM_MMFF94_PARTIAL_CHARGES>
34
1 -0.57
10 0.14
12 0.14
14 -0.28
15 -0.29
16 0.3
17 0.18
2 -0.56
20 0.14
21 0.01
22 0.57
23 -0.15
24 0.23
25 0.34
26 -0.15
27 -0.15
28 0.08
29 -0.15
3 -0.36
30 0.34
31 0.28
32 0.66
39 0.15
4 -0.65
5 -0.57
53 0.37
54 0.27
57 0.15
58 0.15
59 0.15
6 -0.73
65 0.5
7 0.03
8 -0.57

> <PUBCHEM_EFFECTIVE_ROTOR_COUNT>
11.8

> <PUBCHEM_PHARMACOPHORE_FEATURES>
13
1 1 acceptor
1 2 acceptor
1 3 acceptor
1 4 acceptor
1 5 acceptor
1 6 donor
1 7 donor
3 13 18 19 hydrophobe
3 4 5 32 anion
3 7 8 21 cation
5 7 8 21 23 24 rings
6 23 24 26 27 28 29 rings
6 9 10 11 12 14 15 rings

> <PUBCHEM_HEAVY_ATOM_COUNT>
32

> <PUBCHEM_ATOM_DEF_STEREO_COUNT>
3

> <PUBCHEM_ATOM_UDEF_STEREO_COUNT>
0

> <PUBCHEM_BOND_DEF_STEREO_COUNT>
0

> <PUBCHEM_BOND_UDEF_STEREO_COUNT>
0

> <PUBCHEM_ISOTOPIC_ATOM_COUNT>
0

> <PUBCHEM_COMPONENT_COUNT>
1

> <PUBCHEM_CACTVS_TAUTO_COUNT>
6

> <PUBCHEM_CONFORMER_ID>
0445F38C00000001

> <PUBCHEM_MMFF94_ENERGY>
65.1232

> <PUBCHEM_FEATURE_SELFOVERLAP>
66.147

> <PUBCHEM_SHAPE_FINGERPRINT>
10622 236 18337393717265606170
11069576 57 18336271232052591956
12107183 9 18200043837136234569
131258 38 17985255520481725998
13165053 137 14800061074557081267
13533116 47 18268430307808931305
14068700 675 18341900632454605322
14114206 34 15938114158705361084
14674994 50 17901947435663510260
14747282 125 16544406679504616750
15183329 4 17559128768904968441
18681886 176 15264830686505375777
19311894 1 17544191580982279954
19438510 23 9727333724750247046
20775530 9 18188496744678161610
21285901 2 17676755578668233540
23569914 152 17906977774897016351
3004659 81 17129881653877108881
345986 75 18202285801242527664
4017518 198 16898215232361462084
484985 159 17760364388711950852
57527585 103 17765715724710565740
70251023 43 18187925037175777338

> <PUBCHEM_SHAPE_MULTIPOLES>
614.26
14.26
6.33
2.48
17.49
4.9
-0.72
23.18
0.97
-11.85
0.99
-0.55
-2.9
-1.82

> <PUBCHEM_SHAPE_SELFOVERLAP>
1285.163

> <PUBCHEM_SHAPE_VOLUME>
346.7

> <PUBCHEM_COORDINATE_TYPE>
2
5
10

$$$$
