44716462
  -OEChem-12032416163D

 69 74  0     1  0  0  0  0  0999 V2000
    0.7703    7.0469    1.2855 Cl  0  0  0  0  0  0  0  0  0  0  0  0
    0.5870    4.6621    3.0366 F   0  0  0  0  0  0  0  0  0  0  0  0
    4.1584    1.3771   -2.1130 O   0  0  0  0  0  0  0  0  0  0  0  0
    2.0699    0.5618   -2.6703 O   0  0  0  0  0  0  0  0  0  0  0  0
    1.3047    0.4183   -0.0475 N   0  0  2  0  0  0  0  0  0  0  0  0
   -2.6728   -1.1471    0.1489 N   0  0  0  0  0  0  0  0  0  0  0  0
    2.2743   -3.2092    0.0481 N   0  0  0  0  0  0  0  0  0  0  0  0
   -7.6102   -1.2501   -0.3392 N   0  0  0  0  0  0  0  0  0  0  0  0
   -9.5459   -1.2156    0.7488 N   0  0  0  0  0  0  0  0  0  0  0  0
    1.0836   -1.0011   -0.4633 C   0  0  2  0  0  0  0  0  0  0  0  0
    0.2066    1.3077   -0.5036 C   0  0  1  0  0  0  0  0  0  0  0  0
   -0.2517   -1.5267    0.0864 C   0  0  0  0  0  0  0  0  0  0  0  0
   -1.4106   -0.6599   -0.4049 C   0  0  2  0  0  0  0  0  0  0  0  0
   -1.1669    0.7951   -0.0071 C   0  0  0  0  0  0  0  0  0  0  0  0
    2.6752    0.9071   -0.3618 C   0  0  1  0  0  0  0  0  0  0  0  0
    2.2384   -1.8440   -0.0112 C   0  0  0  0  0  0  0  0  0  0  0  0
    3.7775    0.0918    0.3613 C   0  0  0  0  0  0  0  0  0  0  0  0
    3.4792   -1.3665    0.3506 C   0  0  0  0  0  0  0  0  0  0  0  0
    0.3498    2.7584   -0.0497 C   0  0  0  0  0  0  0  0  0  0  0  0
    4.2958   -2.4826    0.6785 C   0  0  0  0  0  0  0  0  0  0  0  0
    3.5153   -3.6261    0.4810 C   0  0  0  0  0  0  0  0  0  0  0  0
    2.9027    0.9172   -1.8472 C   0  0  0  0  0  0  0  0  0  0  0  0
   -3.7977   -0.6908   -0.6526 C   0  0  0  0  0  0  0  0  0  0  0  0
    0.4047    3.0613    1.3109 C   0  0  0  0  0  0  0  0  0  0  0  0
    0.4257    3.7809   -0.9954 C   0  0  0  0  0  0  0  0  0  0  0  0
    5.6251   -2.6377    1.1201 C   0  0  0  0  0  0  0  0  0  0  0  0
    4.0021   -4.9189    0.7060 C   0  0  0  0  0  0  0  0  0  0  0  0
   -5.1090   -1.2266   -0.0801 C   0  0  0  0  0  0  0  0  0  0  0  0
    6.1232   -3.9250    1.3506 C   0  0  0  0  0  0  0  0  0  0  0  0
    0.5356    4.3866    1.7256 C   0  0  0  0  0  0  0  0  0  0  0  0
    0.5567    5.1062   -0.5809 C   0  0  0  0  0  0  0  0  0  0  0  0
    5.3225   -5.0467    1.1462 C   0  0  0  0  0  0  0  0  0  0  0  0
   -6.3052   -0.7642   -0.9162 C   0  0  0  0  0  0  0  0  0  0  0  0
    0.6116    5.4090    0.7797 C   0  0  0  0  0  0  0  0  0  0  0  0
    4.5098    1.4394   -3.4989 C   0  0  0  0  0  0  0  0  0  0  0  0
   -8.1200   -2.5137   -0.4425 C   0  0  0  0  0  0  0  0  0  0  0  0
   -8.5007   -0.5066    0.3843 C   0  0  0  0  0  0  0  0  0  0  0  0
   -9.3147   -2.4678    0.2366 C   0  0  0  0  0  0  0  0  0  0  0  0
    1.0273   -1.0931   -1.5535 H   0  0  0  0  0  0  0  0  0  0  0  0
    0.1505    1.2997   -1.5982 H   0  0  0  0  0  0  0  0  0  0  0  0
   -0.2255   -1.5461    1.1855 H   0  0  0  0  0  0  0  0  0  0  0  0
   -0.4118   -2.5631   -0.2391 H   0  0  0  0  0  0  0  0  0  0  0  0
   -1.4301   -0.7376   -1.5010 H   0  0  0  0  0  0  0  0  0  0  0  0
   -1.9514    1.4439   -0.4168 H   0  0  0  0  0  0  0  0  0  0  0  0
   -1.2399    0.8790    1.0862 H   0  0  0  0  0  0  0  0  0  0  0  0
    2.7889    1.9433   -0.0227 H   0  0  0  0  0  0  0  0  0  0  0  0
    4.7716    0.2694   -0.0626 H   0  0  0  0  0  0  0  0  0  0  0  0
    3.8164    0.4144    1.4103 H   0  0  0  0  0  0  0  0  0  0  0  0
   -2.6715   -2.1671    0.1623 H   0  0  0  0  0  0  0  0  0  0  0  0
    1.5100   -3.8277   -0.1860 H   0  0  0  0  0  0  0  0  0  0  0  0
   -3.6956   -1.0373   -1.6886 H   0  0  0  0  0  0  0  0  0  0  0  0
   -3.8524    0.4028   -0.6692 H   0  0  0  0  0  0  0  0  0  0  0  0
    0.3576    2.2795    2.0638 H   0  0  0  0  0  0  0  0  0  0  0  0
    0.3855    3.5603   -2.0587 H   0  0  0  0  0  0  0  0  0  0  0  0
    6.2617   -1.7727    1.2829 H   0  0  0  0  0  0  0  0  0  0  0  0
    3.3804   -5.7934    0.5457 H   0  0  0  0  0  0  0  0  0  0  0  0
   -5.2330   -0.8854    0.9559 H   0  0  0  0  0  0  0  0  0  0  0  0
   -5.0862   -2.3235   -0.0484 H   0  0  0  0  0  0  0  0  0  0  0  0
    7.1474   -4.0496    1.6922 H   0  0  0  0  0  0  0  0  0  0  0  0
    0.6147    5.8924   -1.3292 H   0  0  0  0  0  0  0  0  0  0  0  0
    5.7301   -6.0374    1.3306 H   0  0  0  0  0  0  0  0  0  0  0  0
   -6.3801    0.3279   -0.9552 H   0  0  0  0  0  0  0  0  0  0  0  0
   -6.2710   -1.1592   -1.9375 H   0  0  0  0  0  0  0  0  0  0  0  0
    5.5314    1.8213   -3.5737 H   0  0  0  0  0  0  0  0  0  0  0  0
    3.8394    2.1226   -4.0290 H   0  0  0  0  0  0  0  0  0  0  0  0
    4.4747    0.4402   -3.9433 H   0  0  0  0  0  0  0  0  0  0  0  0
   -7.6082   -3.3062   -0.9701 H   0  0  0  0  0  0  0  0  0  0  0  0
   -8.3357    0.5372    0.6137 H   0  0  0  0  0  0  0  0  0  0  0  0
  -10.0202   -3.2727    0.3827 H   0  0  0  0  0  0  0  0  0  0  0  0
  1 34  1  0  0  0  0
  2 30  1  0  0  0  0
  3 22  1  0  0  0  0
  3 35  1  0  0  0  0
  4 22  2  0  0  0  0
  5 10  1  0  0  0  0
  5 11  1  0  0  0  0
  5 15  1  0  0  0  0
  6 13  1  0  0  0  0
  6 23  1  0  0  0  0
  6 49  1  0  0  0  0
  7 16  1  0  0  0  0
  7 21  1  0  0  0  0
  7 50  1  0  0  0  0
  8 33  1  0  0  0  0
  8 36  1  0  0  0  0
  8 37  1  0  0  0  0
  9 37  2  0  0  0  0
  9 38  1  0  0  0  0
 10 12  1  0  0  0  0
 10 16  1  0  0  0  0
 10 39  1  0  0  0  0
 11 14  1  0  0  0  0
 11 19  1  0  0  0  0
 11 40  1  0  0  0  0
 12 13  1  0  0  0  0
 12 41  1  0  0  0  0
 12 42  1  0  0  0  0
 13 14  1  0  0  0  0
 13 43  1  0  0  0  0
 14 44  1  0  0  0  0
 14 45  1  0  0  0  0
 15 17  1  0  0  0  0
 15 22  1  0  0  0  0
 15 46  1  0  0  0  0
 16 18  2  0  0  0  0
 17 18  1  0  0  0  0
 17 47  1  0  0  0  0
 17 48  1  0  0  0  0
 18 20  1  0  0  0  0
 19 24  2  0  0  0  0
 19 25  1  0  0  0  0
 20 21  1  0  0  0  0
 20 26  2  0  0  0  0
 21 27  2  0  0  0  0
 23 28  1  0  0  0  0
 23 51  1  0  0  0  0
 23 52  1  0  0  0  0
 24 30  1  0  0  0  0
 24 53  1  0  0  0  0
 25 31  2  0  0  0  0
 25 54  1  0  0  0  0
 26 29  1  0  0  0  0
 26 55  1  0  0  0  0
 27 32  1  0  0  0  0
 27 56  1  0  0  0  0
 28 33  1  0  0  0  0
 28 57  1  0  0  0  0
 28 58  1  0  0  0  0
 29 32  2  0  0  0  0
 29 59  1  0  0  0  0
 30 34  2  0  0  0  0
 31 34  1  0  0  0  0
 31 60  1  0  0  0  0
 32 61  1  0  0  0  0
 33 62  1  0  0  0  0
 33 63  1  0  0  0  0
 35 64  1  0  0  0  0
 35 65  1  0  0  0  0
 35 66  1  0  0  0  0
 36 38  2  0  0  0  0
 36 67  1  0  0  0  0
 37 68  1  0  0  0  0
 38 69  1  0  0  0  0
M  END
> <PUBCHEM_COMPOUND_CID>
44716462

> <PUBCHEM_CONFORMER_RMSD>
1

> <PUBCHEM_CONFORMER_DIVERSEORDER>
1
140
7
106
75
102
153
133
42
44
176
46
104
45
125
51
76
108
96
11
100
49
115
88
61
121
170
71
70
137
146
84
57
134
33
83
131
167
164
135
113
3
60
169
73
111
142
92
22
172
158
171
101
94
62
166
65
72
95
103
43
130
21
69
175
24
85
127
150
154
145
56
37
162
163
38
23
155
122
67
93
17
91
141
40
53
10
126
116
160
119
80
138
9
136
66
6
55
28
34
41
156
15
81
20
149
63
99
68
110
39
161
30
118
124
86
117
114
89
128
78
64
105
120
58
123
165
2
50
47
129
12
32
148
109
14
168
159
97
112
157
54
4
139
144
25
174
132
143
48
18
35
74
13
107
19
5
90
16
26
27
77
152
151
147
79
8
87
98
31
36
52
59
82
173
29

> <PUBCHEM_MMFF94_PARTIAL_CHARGES>
46
1 -0.18
10 0.45
11 0.41
13 0.27
15 0.33
16 -0.33
17 0.18
18 -0.18
19 -0.14
2 -0.19
21 -0.15
22 0.66
23 0.27
24 -0.15
25 -0.15
26 -0.15
27 -0.15
29 -0.15
3 -0.43
30 0.19
31 -0.15
32 -0.15
33 0.26
34 0.18
35 0.28
36 -0.3
37 0.04
38 0.08
4 -0.57
49 0.36
5 -0.81
50 0.27
53 0.15
54 0.15
55 0.15
56 0.15
59 0.15
6 -0.9
60 0.15
61 0.15
67 0.15
68 0.15
69 0.15
7 0.03
8 0.05
9 -0.57

> <PUBCHEM_EFFECTIVE_ROTOR_COUNT>
9.2

> <PUBCHEM_PHARMACOPHORE_FEATURES>
13
1 4 acceptor
1 5 cation
1 6 cation
1 6 donor
1 7 cation
1 7 donor
3 8 9 37 cation
5 7 16 18 20 21 rings
5 8 9 36 37 38 rings
6 19 24 25 30 31 34 rings
6 20 21 26 27 29 32 rings
6 5 10 11 12 13 14 rings
6 5 10 15 16 17 18 rings

> <PUBCHEM_HEAVY_ATOM_COUNT>
38

> <PUBCHEM_ATOM_DEF_STEREO_COUNT>
4

> <PUBCHEM_ATOM_UDEF_STEREO_COUNT>
0

> <PUBCHEM_BOND_DEF_STEREO_COUNT>
0

> <PUBCHEM_BOND_UDEF_STEREO_COUNT>
0

> <PUBCHEM_ISOTOPIC_ATOM_COUNT>
0

> <PUBCHEM_COMPONENT_COUNT>
1

> <PUBCHEM_CACTVS_TAUTO_COUNT>
1

> <PUBCHEM_CONFORMER_ID>
02AA51AE00000001

> <PUBCHEM_MMFF94_ENERGY>
70.5446

> <PUBCHEM_FEATURE_SELFOVERLAP>
66.168

> <PUBCHEM_SHAPE_FINGERPRINT>
10411042 1 18336824178294457691
10675989 125 18055074530437116625
10721379 63 18127979804968742081
11297750 10 18261659412479774117
11331351 85 17775283829376917167
11456790 92 18336835208962243851
12293681 160 18049470281342216956
12342043 65 18113610197769564439
13008946 170 18264761241722947653
13248334 5 18266173018758419289
13540713 5 18192728764374412524
13782708 43 17821723915343941791
13835254 42 18268706121918486808
14068700 675 18189612744485186326
14400156 413 18261942016489844373
14849402 71 18340487872193674817
15439362 3 17693375950926618776
16096371 109 18125434465884276809
16758388 162 18412547601378819521
17980427 26 17910095134325648781
18365409 1 17690273811980862253
19301679 30 18197497320487469462
21133410 230 18337656599614391928
21344244 78 18338224995263804954
21716022 299 18187374203140073124
21792965 184 18128265488770823010
25242607 90 18340473487953692251
3534868 343 18335994060338154702
6695519 79 17401513909854078579
70251023 43 18261389980111293986

> <PUBCHEM_SHAPE_MULTIPOLES>
739.97
19.03
9.18
1.91
66.53
13.56
1.06
-33.46
-1.43
-10.68
-5.97
-2.96
2.25
-3.47

> <PUBCHEM_SHAPE_SELFOVERLAP>
1608.747

> <PUBCHEM_SHAPE_VOLUME>
405.2

> <PUBCHEM_COORDINATE_TYPE>
2
5
10

$$$$
