7051138
  -OEChem-12032416253D

 61 65  0     1  0  0  0  0  0999 V2000
    4.7622   -2.1239   -0.8475 S   0  0  0  0  0  0  0  0  0  0  0  0
   -1.5717    3.0333   -1.6346 O   0  0  0  0  0  0  0  0  0  0  0  0
    0.2456    1.1445    3.0243 O   0  0  0  0  0  0  0  0  0  0  0  0
    5.4004    0.6814    0.5494 O   0  0  0  0  0  0  0  0  0  0  0  0
    5.6778   -2.2450    0.2759 O   0  0  0  0  0  0  0  0  0  0  0  0
    4.8513   -3.0536   -1.9622 O   0  0  0  0  0  0  0  0  0  0  0  0
    0.2524    2.5571   -0.2560 N   0  0  0  0  0  0  0  0  0  0  0  0
   -1.4701    1.6041    1.5881 N   0  0  0  0  0  0  0  0  0  0  0  0
    3.5713    1.3662   -0.7071 N   0  0  0  0  0  0  0  0  0  0  0  0
   -4.6033   -1.7678    1.4131 N   0  0  0  0  0  0  0  0  0  0  0  0
    0.8060    1.5862    0.7034 C   0  0  1  0  0  0  0  0  0  0  0  0
    3.1575    2.4509    0.1496 C   0  0  2  0  0  0  0  0  0  0  0  0
    2.1986    1.9734    1.2334 C   0  0  0  0  0  0  0  0  0  0  0  0
    2.5105    3.5894   -0.6305 C   0  0  0  0  0  0  0  0  0  0  0  0
    1.1634    3.1885   -1.2125 C   0  0  0  0  0  0  0  0  0  0  0  0
   -1.9719    1.6067    0.2337 C   0  0  1  0  0  0  0  0  0  0  0  0
   -1.1017    2.5031   -0.6254 C   0  0  0  0  0  0  0  0  0  0  0  0
   -0.1370    1.4582    1.8977 C   0  0  0  0  0  0  0  0  0  0  0  0
   -2.0889    0.2066   -0.3510 C   0  0  0  0  0  0  0  0  0  0  0  0
   -3.3040   -0.5164    0.1673 C   0  0  0  0  0  0  0  0  0  0  0  0
    4.6707    0.5641   -0.4310 C   0  0  0  0  0  0  0  0  0  0  0  0
   -4.5815   -0.4957   -0.4195 C   0  0  0  0  0  0  0  0  0  0  0  0
    4.8638   -0.4896   -1.4935 C   0  0  0  0  0  0  0  0  0  0  0  0
   -3.3258   -1.2930    1.2825 C   0  0  0  0  0  0  0  0  0  0  0  0
   -5.3920   -1.2970    0.3875 C   0  0  0  0  0  0  0  0  0  0  0  0
   -5.1490    0.1171   -1.5544 C   0  0  0  0  0  0  0  0  0  0  0  0
   -6.7470   -1.5169    0.1154 C   0  0  0  0  0  0  0  0  0  0  0  0
    3.1242   -2.2274   -0.1867 C   0  0  0  0  0  0  0  0  0  0  0  0
   -6.5030   -0.0939   -1.8390 C   0  0  0  0  0  0  0  0  0  0  0  0
   -7.2879   -0.8988   -1.0156 C   0  0  0  0  0  0  0  0  0  0  0  0
    2.0950   -2.6633   -1.0017 C   0  0  0  0  0  0  0  0  0  0  0  0
    2.9050   -1.8690    1.1312 C   0  0  0  0  0  0  0  0  0  0  0  0
    0.8033   -2.7436   -0.4813 C   0  0  0  0  0  0  0  0  0  0  0  0
    1.6134   -1.9493    1.6517 C   0  0  0  0  0  0  0  0  0  0  0  0
    0.5625   -2.3865    0.8453 C   0  0  0  0  0  0  0  0  0  0  0  0
    0.8560    0.6220    0.1881 H   0  0  0  0  0  0  0  0  0  0  0  0
    4.0589    2.8411    0.6387 H   0  0  0  0  0  0  0  0  0  0  0  0
    2.6330    1.1314    1.7861 H   0  0  0  0  0  0  0  0  0  0  0  0
    2.0887    2.7874    1.9645 H   0  0  0  0  0  0  0  0  0  0  0  0
    2.3640    4.4436    0.0431 H   0  0  0  0  0  0  0  0  0  0  0  0
    3.1713    3.9281   -1.4373 H   0  0  0  0  0  0  0  0  0  0  0  0
    1.2968    2.4797   -2.0388 H   0  0  0  0  0  0  0  0  0  0  0  0
    0.6764    4.0728   -1.6404 H   0  0  0  0  0  0  0  0  0  0  0  0
   -2.9564    2.0895    0.2851 H   0  0  0  0  0  0  0  0  0  0  0  0
   -2.1421    1.5099    2.3437 H   0  0  0  0  0  0  0  0  0  0  0  0
    2.9888    1.1451   -1.5087 H   0  0  0  0  0  0  0  0  0  0  0  0
   -2.1538    0.2586   -1.4457 H   0  0  0  0  0  0  0  0  0  0  0  0
   -1.1969   -0.3894   -0.1397 H   0  0  0  0  0  0  0  0  0  0  0  0
    5.8645   -0.3660   -1.9197 H   0  0  0  0  0  0  0  0  0  0  0  0
    4.1402   -0.4057   -2.3094 H   0  0  0  0  0  0  0  0  0  0  0  0
   -2.5670   -1.5547    2.0061 H   0  0  0  0  0  0  0  0  0  0  0  0
   -4.9227   -2.3745    2.1557 H   0  0  0  0  0  0  0  0  0  0  0  0
   -4.5520    0.7488   -2.2060 H   0  0  0  0  0  0  0  0  0  0  0  0
   -7.3588   -2.1433    0.7559 H   0  0  0  0  0  0  0  0  0  0  0  0
   -6.9461    0.3766   -2.7127 H   0  0  0  0  0  0  0  0  0  0  0  0
   -8.3375   -1.0490   -1.2554 H   0  0  0  0  0  0  0  0  0  0  0  0
    2.2616   -2.9378   -2.0386 H   0  0  0  0  0  0  0  0  0  0  0  0
    3.7073   -1.5216    1.7745 H   0  0  0  0  0  0  0  0  0  0  0  0
   -0.0157   -3.0829   -1.1089 H   0  0  0  0  0  0  0  0  0  0  0  0
    1.4257   -1.6719    2.6848 H   0  0  0  0  0  0  0  0  0  0  0  0
   -0.4396   -2.4582    1.2538 H   0  0  0  0  0  0  0  0  0  0  0  0
  1  5  2  0  0  0  0
  1  6  2  0  0  0  0
  1 23  1  0  0  0  0
  1 28  1  0  0  0  0
  2 17  2  0  0  0  0
  3 18  2  0  0  0  0
  4 21  2  0  0  0  0
  7 11  1  0  0  0  0
  7 15  1  0  0  0  0
  7 17  1  0  0  0  0
  8 16  1  0  0  0  0
  8 18  1  0  0  0  0
  8 45  1  0  0  0  0
  9 12  1  0  0  0  0
  9 21  1  0  0  0  0
  9 46  1  0  0  0  0
 10 24  1  0  0  0  0
 10 25  1  0  0  0  0
 10 52  1  0  0  0  0
 11 13  1  0  0  0  0
 11 18  1  0  0  0  0
 11 36  1  0  0  0  0
 12 13  1  0  0  0  0
 12 14  1  0  0  0  0
 12 37  1  0  0  0  0
 13 38  1  0  0  0  0
 13 39  1  0  0  0  0
 14 15  1  0  0  0  0
 14 40  1  0  0  0  0
 14 41  1  0  0  0  0
 15 42  1  0  0  0  0
 15 43  1  0  0  0  0
 16 17  1  0  0  0  0
 16 19  1  0  0  0  0
 16 44  1  0  0  0  0
 19 20  1  0  0  0  0
 19 47  1  0  0  0  0
 19 48  1  0  0  0  0
 20 22  1  0  0  0  0
 20 24  2  0  0  0  0
 21 23  1  0  0  0  0
 22 25  1  0  0  0  0
 22 26  2  0  0  0  0
 23 49  1  0  0  0  0
 23 50  1  0  0  0  0
 24 51  1  0  0  0  0
 25 27  2  0  0  0  0
 26 29  1  0  0  0  0
 26 53  1  0  0  0  0
 27 30  1  0  0  0  0
 27 54  1  0  0  0  0
 28 31  2  0  0  0  0
 28 32  1  0  0  0  0
 29 30  2  0  0  0  0
 29 55  1  0  0  0  0
 30 56  1  0  0  0  0
 31 33  1  0  0  0  0
 31 57  1  0  0  0  0
 32 34  2  0  0  0  0
 32 58  1  0  0  0  0
 33 35  2  0  0  0  0
 33 59  1  0  0  0  0
 34 35  1  0  0  0  0
 34 60  1  0  0  0  0
 35 61  1  0  0  0  0
M  END
> <PUBCHEM_COMPOUND_CID>
7051138

> <PUBCHEM_CONFORMER_RMSD>
1.2

> <PUBCHEM_CONFORMER_DIVERSEORDER>
1
308
16
108
183
366
36
5
377
96
406
45
573
70
121
7
146
434
497
512
244
53
186
475
423
363
352
40
94
378
502
20
255
557
49
300
307
526
246
124
456
364
431
468
339
76
359
48
131
224
556
136
536
43
195
490
228
563
111
113
270
275
371
303
449
347
161
483
88
21
529
226
176
58
9
500
498
439
403
404
380
119
62
132
13
134
122
41
259
87
142
118
485
510
133
425
200
104
167
56
313
147
387
89
489
235
462
394
504
57
381
414
120
531
150
105
360
419
222
154
128
38
24
101
34
345
239
6
362
530
93
201
59
73
28
544
215
26
135
71
379
103
159
273
432
2
365
149
322
123
143
19
140
422
312
202
109
3
171
90
10
199
39
192
232
209
50
115
126
280
550
293
204
175
294
67
42
326
390
412
69
571
314
4
92
55
197
95
66
281
190
60
467
106
177
170
144
116
461
32
77
208
236
487
316
464
220
68
537
206
444
11
388
507
271
84
227
65
459
17
8
367
258
30
157
156
376
15
46

> <PUBCHEM_MMFF94_PARTIAL_CHARGES>
45
1 1.2
10 0.03
11 0.36
12 0.3
15 0.3
16 0.36
17 0.57
18 0.57
19 0.18
2 -0.57
20 -0.18
21 0.57
23 0.17
24 -0.3
25 -0.15
26 -0.15
27 -0.15
28 -0.01
29 -0.15
3 -0.57
30 -0.15
31 -0.15
32 -0.15
33 -0.15
34 -0.15
35 -0.15
4 -0.57
45 0.37
46 0.37
5 -0.65
51 0.15
52 0.27
53 0.15
54 0.15
55 0.15
56 0.15
57 0.15
58 0.15
59 0.15
6 -0.65
60 0.15
61 0.15
7 -0.66
8 -0.73
9 -0.73

> <PUBCHEM_EFFECTIVE_ROTOR_COUNT>
8.2

> <PUBCHEM_PHARMACOPHORE_FEATURES>
14
1 10 cation
1 10 donor
1 2 acceptor
1 3 acceptor
1 4 acceptor
1 5 acceptor
1 6 acceptor
1 8 donor
1 9 donor
5 10 20 22 24 25 rings
6 22 25 26 27 29 30 rings
6 28 31 32 33 34 35 rings
6 7 11 12 13 14 15 rings
6 7 8 11 16 17 18 rings

> <PUBCHEM_HEAVY_ATOM_COUNT>
35

> <PUBCHEM_ATOM_DEF_STEREO_COUNT>
3

> <PUBCHEM_ATOM_UDEF_STEREO_COUNT>
0

> <PUBCHEM_BOND_DEF_STEREO_COUNT>
0

> <PUBCHEM_BOND_UDEF_STEREO_COUNT>
0

> <PUBCHEM_ISOTOPIC_ATOM_COUNT>
0

> <PUBCHEM_COMPONENT_COUNT>
1

> <PUBCHEM_CACTVS_TAUTO_COUNT>
4

> <PUBCHEM_CONFORMER_ID>
006B978200000001

> <PUBCHEM_MMFF94_ENERGY>
76.5995

> <PUBCHEM_FEATURE_SELFOVERLAP>
71.185

> <PUBCHEM_SHAPE_FINGERPRINT>
11204353 107 18262803007431161603
13402501 40 18334295391760398503
13811026 1 18408598146504967946
14068700 675 18130505236652567602
14725015 67 18260537918945132776
14747281 78 16370727041397277877
14840074 17 18131068247226382327
14931854 50 18336281080444361006
15001296 14 18129939104244600303
15183329 4 18186513320270262969
15664445 248 18041557052521949325
15721738 202 18131071515226865930
17492 54 18260843613363647108
19311894 1 17477215929587393862
20737093 15 18057293225391562631
20775438 99 18199453540794249622
21033650 10 16515962563218288469
22393880 68 18190181170653259420
23559900 14 18334851762688767313
27425 322 16299792160004468868
3298306 158 18117558642371214455
4280585 95 18262228911524819402
46194498 28 17895472652200522397
463206 1 18200589340721274967
469060 322 18266189326743928874
484989 97 18262249914147596410
508706 21 18042135288421375000
5265222 85 17324378774649663452
59755656 215 18040426720450878573
6669772 16 18193841676732759644
6823239 73 18113891685309442923

> <PUBCHEM_SHAPE_MULTIPOLES>
674.86
14.63
4.28
1.86
18.13
1.33
-0.54
-9.01
5.96
-4.86
0.81
0.2
0.1
1.27

> <PUBCHEM_SHAPE_SELFOVERLAP>
1461.529

> <PUBCHEM_SHAPE_VOLUME>
368.6

> <PUBCHEM_COORDINATE_TYPE>
2
5
10

$$$$
