25338283
  -OEChem-12032416383D

 48 51  0     1  0  0  0  0  0999 V2000
    3.0656   -2.5465   -0.4445 O   0  0  0  0  0  0  0  0  0  0  0  0
   -4.4516   -1.5844   -0.5029 O   0  0  0  0  0  0  0  0  0  0  0  0
   -1.7977    1.0363    0.9574 O   0  0  0  0  0  0  0  0  0  0  0  0
   -0.1267   -2.7305    1.0361 N   0  0  1  0  0  0  0  0  0  0  0  0
   -2.1811   -1.1137   -0.4686 N   0  0  0  0  0  0  0  0  0  0  0  0
    1.9357   -0.6393   -0.1242 N   0  0  0  0  0  0  0  0  0  0  0  0
    4.0218   -1.5230   -0.4426 N   0  0  0  0  0  0  0  0  0  0  0  0
    2.9856    1.9052    0.0221 N   0  0  0  0  0  0  0  0  0  0  0  0
    5.7474    2.3205   -0.2348 N   0  0  0  0  0  0  0  0  0  0  0  0
   -1.7249   -2.4725   -0.6412 C   0  0  1  0  0  0  0  0  0  0  0  0
    0.6514   -2.8443   -0.2123 C   0  0  1  0  0  0  0  0  0  0  0  0
   -0.3611   -2.5249   -1.3297 C   0  0  0  0  0  0  0  0  0  0  0  0
   -1.4899   -3.1523    0.6992 C   0  0  0  0  0  0  0  0  0  0  0  0
    1.8650   -1.9403   -0.2515 C   0  0  0  0  0  0  0  0  0  0  0  0
    0.4298   -3.5136    2.1327 C   0  0  0  0  0  0  0  0  0  0  0  0
   -3.5261   -0.7819   -0.4135 C   0  0  0  0  0  0  0  0  0  0  0  0
   -3.8314    0.6637   -0.2590 C   0  0  0  0  0  0  0  0  0  0  0  0
    3.2783   -0.4296   -0.2483 C   0  0  0  0  0  0  0  0  0  0  0  0
   -2.9558    1.5119    0.4187 C   0  0  0  0  0  0  0  0  0  0  0  0
   -5.0129    1.1696   -0.8009 C   0  0  0  0  0  0  0  0  0  0  0  0
    3.8452    0.8859   -0.1750 C   0  0  0  0  0  0  0  0  0  0  0  0
   -3.2614    2.8662    0.5543 C   0  0  0  0  0  0  0  0  0  0  0  0
   -5.3188    2.5239   -0.6652 C   0  0  0  0  0  0  0  0  0  0  0  0
   -4.4431    3.3722    0.0123 C   0  0  0  0  0  0  0  0  0  0  0  0
    5.2017    1.0900   -0.3012 C   0  0  0  0  0  0  0  0  0  0  0  0
   -0.9639    1.9760    1.6322 C   0  0  0  0  0  0  0  0  0  0  0  0
    3.5313    3.1358    0.0884 C   0  0  0  0  0  0  0  0  0  0  0  0
    4.8878    3.3397   -0.0378 C   0  0  0  0  0  0  0  0  0  0  0  0
   -2.4750   -3.0162   -1.2266 H   0  0  0  0  0  0  0  0  0  0  0  0
    0.9831   -3.8831   -0.3544 H   0  0  0  0  0  0  0  0  0  0  0  0
   -0.1359   -1.5999   -1.8733 H   0  0  0  0  0  0  0  0  0  0  0  0
   -0.3525   -3.3443   -2.0596 H   0  0  0  0  0  0  0  0  0  0  0  0
   -2.2103   -2.8452    1.4648 H   0  0  0  0  0  0  0  0  0  0  0  0
   -1.5469   -4.2419    0.5777 H   0  0  0  0  0  0  0  0  0  0  0  0
   -1.4751   -0.3903   -0.3753 H   0  0  0  0  0  0  0  0  0  0  0  0
    1.4369   -3.1651    2.3855 H   0  0  0  0  0  0  0  0  0  0  0  0
    0.4852   -4.5823    1.8964 H   0  0  0  0  0  0  0  0  0  0  0  0
   -0.1816   -3.3933    3.0338 H   0  0  0  0  0  0  0  0  0  0  0  0
   -5.7065    0.5269   -1.3367 H   0  0  0  0  0  0  0  0  0  0  0  0
   -2.6313    3.5848    1.0665 H   0  0  0  0  0  0  0  0  0  0  0  0
   -6.2382    2.9182   -1.0881 H   0  0  0  0  0  0  0  0  0  0  0  0
   -4.6822    4.4265    0.1170 H   0  0  0  0  0  0  0  0  0  0  0  0
    5.9156    0.2899   -0.4603 H   0  0  0  0  0  0  0  0  0  0  0  0
   -0.0885    1.4260    1.9936 H   0  0  0  0  0  0  0  0  0  0  0  0
   -1.4597    2.3975    2.5131 H   0  0  0  0  0  0  0  0  0  0  0  0
   -0.5916    2.7487    0.9507 H   0  0  0  0  0  0  0  0  0  0  0  0
    2.8411    3.9551    0.2469 H   0  0  0  0  0  0  0  0  0  0  0  0
    5.3254    4.3289    0.0157 H   0  0  0  0  0  0  0  0  0  0  0  0
  1  7  1  0  0  0  0
  1 14  1  0  0  0  0
  2 16  2  0  0  0  0
  3 19  1  0  0  0  0
  3 26  1  0  0  0  0
  4 11  1  0  0  0  0
  4 13  1  0  0  0  0
  4 15  1  0  0  0  0
  5 10  1  0  0  0  0
  5 16  1  0  0  0  0
  5 35  1  0  0  0  0
  6 14  2  0  0  0  0
  6 18  1  0  0  0  0
  7 18  2  0  0  0  0
  8 21  2  0  0  0  0
  8 27  1  0  0  0  0
  9 25  2  0  0  0  0
  9 28  1  0  0  0  0
 10 12  1  0  0  0  0
 10 13  1  0  0  0  0
 10 29  1  0  0  0  0
 11 12  1  0  0  0  0
 11 14  1  0  0  0  0
 11 30  1  0  0  0  0
 12 31  1  0  0  0  0
 12 32  1  0  0  0  0
 13 33  1  0  0  0  0
 13 34  1  0  0  0  0
 15 36  1  0  0  0  0
 15 37  1  0  0  0  0
 15 38  1  0  0  0  0
 16 17  1  0  0  0  0
 17 19  1  0  0  0  0
 17 20  2  0  0  0  0
 18 21  1  0  0  0  0
 19 22  2  0  0  0  0
 20 23  1  0  0  0  0
 20 39  1  0  0  0  0
 21 25  1  0  0  0  0
 22 24  1  0  0  0  0
 22 40  1  0  0  0  0
 23 24  2  0  0  0  0
 23 41  1  0  0  0  0
 24 42  1  0  0  0  0
 25 43  1  0  0  0  0
 26 44  1  0  0  0  0
 26 45  1  0  0  0  0
 26 46  1  0  0  0  0
 27 28  2  0  0  0  0
 27 47  1  0  0  0  0
 28 48  1  0  0  0  0
M  END
> <PUBCHEM_COMPOUND_CID>
25338283

> <PUBCHEM_CONFORMER_RMSD>
1

> <PUBCHEM_CONFORMER_DIVERSEORDER>
3
149
55
129
79
145
134
34
86
11
113
148
64
123
120
143
26
116
93
77
111
107
44
103
141
33
28
144
23
136
153
109
124
45
98
154
101
56
147
155
68
140
7
83
36
96
137
135
94
108
38
47
78
52
139
82
105
106
16
112
131
138
117
43
81
63
127
61
125
97
130
62
132
133
57
13
46
71
110
19
151
142
29
85
150
80
119
121
48
84
22
14
87
18
10
104
115
30
102
66
58
69
60
15
88
73
42
76
89
17
90
152
4
21
100
59
27
51
20
118
2
50
126
72
12
5
24
146
156
39
65
25
99
128
31
122
8
74
53
9
67
75
70
92
35
6
114
37
95
41
49
91
40
1
54
32

> <PUBCHEM_MMFF94_PARTIAL_CHARGES>
35
1 -0.02
10 0.3
11 0.45
13 0.27
14 0.3
15 0.27
16 0.54
17 0.09
18 0.46
19 0.08
2 -0.57
20 -0.15
21 0.36
22 -0.15
23 -0.15
24 -0.15
25 0.16
26 0.28
27 0.16
28 0.16
3 -0.36
35 0.37
39 0.15
4 -0.81
40 0.15
41 0.15
42 0.15
43 0.15
47 0.15
48 0.15
5 -0.73
6 -0.57
7 -0.41
8 -0.62
9 -0.62

> <PUBCHEM_EFFECTIVE_ROTOR_COUNT>
7

> <PUBCHEM_PHARMACOPHORE_FEATURES>
11
1 2 acceptor
1 3 acceptor
1 4 cation
1 5 donor
1 8 acceptor
1 9 acceptor
3 6 7 18 cation
5 1 6 7 14 18 rings
5 4 10 11 12 13 rings
6 17 19 20 22 23 24 rings
6 8 9 21 25 27 28 rings

> <PUBCHEM_HEAVY_ATOM_COUNT>
28

> <PUBCHEM_ATOM_DEF_STEREO_COUNT>
2

> <PUBCHEM_ATOM_UDEF_STEREO_COUNT>
0

> <PUBCHEM_BOND_DEF_STEREO_COUNT>
0

> <PUBCHEM_BOND_UDEF_STEREO_COUNT>
0

> <PUBCHEM_ISOTOPIC_ATOM_COUNT>
0

> <PUBCHEM_COMPONENT_COUNT>
1

> <PUBCHEM_CACTVS_TAUTO_COUNT>
2

> <PUBCHEM_CONFORMER_ID>
0182A1AB00000003

> <PUBCHEM_MMFF94_ENERGY>
74.8358

> <PUBCHEM_FEATURE_SELFOVERLAP>
55.826

> <PUBCHEM_SHAPE_FINGERPRINT>
10937287 8 18409446972964513263
11135609 187 18341889676426303633
11370993 70 18410573989473234037
11513181 2 18131634495440471838
12107183 9 18261938688591342042
12788726 201 18119236518221428531
12978246 48 18412543201892489201
13583140 156 17753909220491256699
13590594 115 17186167465967582386
1361 2 18408322164180337085
13617811 41 18339625820760724425
14117953 113 17260181099901876389
14251764 38 18411700967400608362
14251764 75 18270127807723481737
14931854 50 18271804652785766989
14932702 115 18057893639353201856
15142526 21 18260830354552197915
15320467 1 18339642346908721252
16067690 210 17470981036927057624
16992787 43 18411695509816207981
18681886 176 17982160128582268619
21734292 116 18412824715645289589
23559900 14 18058441011195638650
245318 6 18187661222577321108
2838139 119 18412822521212426798
3298306 158 18272359901936796145
469060 322 17760390059162241875
474 4 18265333894044627771
474144 1 18118670046178066345
5048184 11 18411704287637662228
5081480 168 16840539396053609343
5951187 136 17769665200421307133
6036956 94 17831019392075843805
7288768 16 18113615728674896722
9981440 41 18265893734552821986

> <PUBCHEM_SHAPE_MULTIPOLES>
528.73
11.97
5.53
1.14
3.22
0.46
-0.47
-13.31
2.79
0.74
-1
-0.38
0.69
-0.23

> <PUBCHEM_SHAPE_SELFOVERLAP>
1147.369

> <PUBCHEM_SHAPE_VOLUME>
289.1

> <PUBCHEM_COORDINATE_TYPE>
2
5
10

$$$$
