75536044
  -OEChem-12032416323D

 56 59  0     1  0  0  0  0  0999 V2000
   -5.7205    1.3310   -0.8134 S   0  0  0  0  0  0  0  0  0  0  0  0
   -2.4381   -2.0012    0.5747 O   0  0  0  0  0  0  0  0  0  0  0  0
   -0.3960   -3.0566   -1.3446 O   0  0  0  0  0  0  0  0  0  0  0  0
   -3.9520   -4.3647    0.4112 O   0  0  0  0  0  0  0  0  0  0  0  0
   -2.2185    2.4432    0.4565 O   0  0  0  0  0  0  0  0  0  0  0  0
    1.0837   -1.0749    0.1066 N   0  0  0  0  0  0  0  0  0  0  0  0
    3.6882    0.0978    0.1243 N   0  0  0  0  0  0  0  0  0  0  0  0
   -2.8952    0.5132   -0.6397 N   0  0  0  0  0  0  0  0  0  0  0  0
   -0.0742   -1.7412    0.6766 C   0  0  1  0  0  0  0  0  0  0  0  0
   -1.4073   -0.9887    0.5763 C   0  0  1  0  0  0  0  0  0  0  0  0
   -0.4015   -3.0999    0.0764 C   0  0  1  0  0  0  0  0  0  0  0  0
   -1.8200   -3.3023    0.5960 C   0  0  2  0  0  0  0  0  0  0  0  0
    1.3119    0.2161    0.7674 C   0  0  0  0  0  0  0  0  0  0  0  0
    2.2780   -1.9188    0.2337 C   0  0  0  0  0  0  0  0  0  0  0  0
   -1.6157   -0.1298   -0.6661 C   0  0  0  0  0  0  0  0  0  0  0  0
    2.4953    0.9539    0.1370 C   0  0  0  0  0  0  0  0  0  0  0  0
    3.4945   -1.2523   -0.4135 C   0  0  0  0  0  0  0  0  0  0  0  0
   -2.6736   -4.2751   -0.1969 C   0  0  0  0  0  0  0  0  0  0  0  0
    4.9393    0.7151    0.0159 C   0  0  0  0  0  0  0  0  0  0  0  0
   -3.0987    1.7686   -0.0716 C   0  0  0  0  0  0  0  0  0  0  0  0
    5.3525    1.6289    0.9854 C   0  0  0  0  0  0  0  0  0  0  0  0
    5.7731    0.4167   -1.0617 C   0  0  0  0  0  0  0  0  0  0  0  0
    6.5997    2.2444    0.8772 C   0  0  0  0  0  0  0  0  0  0  0  0
    7.0202    1.0321   -1.1699 C   0  0  0  0  0  0  0  0  0  0  0  0
   -4.4906    2.2865   -0.1013 C   0  0  0  0  0  0  0  0  0  0  0  0
    7.4335    1.9460   -0.2005 C   0  0  0  0  0  0  0  0  0  0  0  0
   -4.9781    3.4815    0.3802 C   0  0  0  0  0  0  0  0  0  0  0  0
   -6.3798    3.6145    0.1618 C   0  0  0  0  0  0  0  0  0  0  0  0
   -6.9102    2.5161   -0.4783 C   0  0  0  0  0  0  0  0  0  0  0  0
    0.1032   -1.9140    1.7508 H   0  0  0  0  0  0  0  0  0  0  0  0
   -1.5566   -0.3729    1.4720 H   0  0  0  0  0  0  0  0  0  0  0  0
    0.2671   -3.9012    0.4069 H   0  0  0  0  0  0  0  0  0  0  0  0
   -1.7977   -3.6035    1.6513 H   0  0  0  0  0  0  0  0  0  0  0  0
    0.4507    0.8863    0.7298 H   0  0  0  0  0  0  0  0  0  0  0  0
    1.5238    0.0581    1.8347 H   0  0  0  0  0  0  0  0  0  0  0  0
    2.4950   -2.1309    1.2895 H   0  0  0  0  0  0  0  0  0  0  0  0
    2.1455   -2.8809   -0.2724 H   0  0  0  0  0  0  0  0  0  0  0  0
   -1.6218   -0.7544   -1.5657 H   0  0  0  0  0  0  0  0  0  0  0  0
   -0.8547    0.6382   -0.8082 H   0  0  0  0  0  0  0  0  0  0  0  0
    2.2511    1.2497   -0.8915 H   0  0  0  0  0  0  0  0  0  0  0  0
    2.6644    1.8750    0.7066 H   0  0  0  0  0  0  0  0  0  0  0  0
    4.3723   -1.8793   -0.2129 H   0  0  0  0  0  0  0  0  0  0  0  0
    3.3516   -1.2043   -1.5008 H   0  0  0  0  0  0  0  0  0  0  0  0
   -2.2201   -5.2706   -0.2164 H   0  0  0  0  0  0  0  0  0  0  0  0
   -2.8311   -3.9241   -1.2216 H   0  0  0  0  0  0  0  0  0  0  0  0
   -0.5043   -3.9673   -1.6671 H   0  0  0  0  0  0  0  0  0  0  0  0
   -3.6864    0.0192   -1.0424 H   0  0  0  0  0  0  0  0  0  0  0  0
   -4.4750   -4.9950   -0.1129 H   0  0  0  0  0  0  0  0  0  0  0  0
    4.7235    1.8642    1.8400 H   0  0  0  0  0  0  0  0  0  0  0  0
    5.4783   -0.2788   -1.8423 H   0  0  0  0  0  0  0  0  0  0  0  0
    6.9230    2.9536    1.6336 H   0  0  0  0  0  0  0  0  0  0  0  0
    7.6685    0.8024   -2.0105 H   0  0  0  0  0  0  0  0  0  0  0  0
    8.4045    2.4251   -0.2849 H   0  0  0  0  0  0  0  0  0  0  0  0
   -4.3651    4.2295    0.8669 H   0  0  0  0  0  0  0  0  0  0  0  0
   -6.9692    4.4721    0.4591 H   0  0  0  0  0  0  0  0  0  0  0  0
   -7.9394    2.3529   -0.7653 H   0  0  0  0  0  0  0  0  0  0  0  0
  1 25  1  0  0  0  0
  1 29  1  0  0  0  0
  2 10  1  0  0  0  0
  2 12  1  0  0  0  0
  3 11  1  0  0  0  0
  3 46  1  0  0  0  0
  4 18  1  0  0  0  0
  4 48  1  0  0  0  0
  5 20  2  0  0  0  0
  6  9  1  0  0  0  0
  6 13  1  0  0  0  0
  6 14  1  0  0  0  0
  7 16  1  0  0  0  0
  7 17  1  0  0  0  0
  7 19  1  0  0  0  0
  8 15  1  0  0  0  0
  8 20  1  0  0  0  0
  8 47  1  0  0  0  0
  9 10  1  0  0  0  0
  9 11  1  0  0  0  0
  9 30  1  0  0  0  0
 10 15  1  0  0  0  0
 10 31  1  0  0  0  0
 11 12  1  0  0  0  0
 11 32  1  0  0  0  0
 12 18  1  0  0  0  0
 12 33  1  0  0  0  0
 13 16  1  0  0  0  0
 13 34  1  0  0  0  0
 13 35  1  0  0  0  0
 14 17  1  0  0  0  0
 14 36  1  0  0  0  0
 14 37  1  0  0  0  0
 15 38  1  0  0  0  0
 15 39  1  0  0  0  0
 16 40  1  0  0  0  0
 16 41  1  0  0  0  0
 17 42  1  0  0  0  0
 17 43  1  0  0  0  0
 18 44  1  0  0  0  0
 18 45  1  0  0  0  0
 19 21  2  0  0  0  0
 19 22  1  0  0  0  0
 20 25  1  0  0  0  0
 21 23  1  0  0  0  0
 21 49  1  0  0  0  0
 22 24  2  0  0  0  0
 22 50  1  0  0  0  0
 23 26  2  0  0  0  0
 23 51  1  0  0  0  0
 24 26  1  0  0  0  0
 24 52  1  0  0  0  0
 25 27  2  0  0  0  0
 26 53  1  0  0  0  0
 27 28  1  0  0  0  0
 27 54  1  0  0  0  0
 28 29  2  0  0  0  0
 28 55  1  0  0  0  0
 29 56  1  0  0  0  0
M  END
> <PUBCHEM_COMPOUND_CID>
75536044

> <PUBCHEM_CONFORMER_RMSD>
1

> <PUBCHEM_CONFORMER_DIVERSEORDER>
1
18
25
24
23
15
38
17
13
27
36
40
32
30
20
39
29
26
7
28
37
33
5
35
31
6
22
10
21
8
16
19
34
14
9
12
4
11
3
2

> <PUBCHEM_MMFF94_PARTIAL_CHARGES>
40
1 -0.08
10 0.28
11 0.28
12 0.28
13 0.27
14 0.27
15 0.3
16 0.37
17 0.37
18 0.28
19 0.1
2 -0.56
20 0.71
21 -0.15
22 -0.15
23 -0.15
24 -0.15
25 -0.05
26 -0.15
27 -0.15
28 -0.15
29 -0.11
3 -0.68
4 -0.68
46 0.4
47 0.37
48 0.4
49 0.15
5 -0.57
50 0.15
51 0.15
52 0.15
53 0.15
54 0.15
55 0.15
56 0.15
6 -0.81
7 -0.84
8 -0.73
9 0.27

> <PUBCHEM_EFFECTIVE_ROTOR_COUNT>
9.2

> <PUBCHEM_PHARMACOPHORE_FEATURES>
13
1 2 acceptor
1 3 acceptor
1 3 donor
1 4 acceptor
1 4 donor
1 5 acceptor
1 6 cation
1 7 cation
1 8 donor
5 1 25 27 28 29 rings
5 2 9 10 11 12 rings
6 19 21 22 23 24 26 rings
6 6 7 13 14 16 17 rings

> <PUBCHEM_HEAVY_ATOM_COUNT>
29

> <PUBCHEM_ATOM_DEF_STEREO_COUNT>
4

> <PUBCHEM_ATOM_UDEF_STEREO_COUNT>
0

> <PUBCHEM_BOND_DEF_STEREO_COUNT>
0

> <PUBCHEM_BOND_UDEF_STEREO_COUNT>
0

> <PUBCHEM_ISOTOPIC_ATOM_COUNT>
0

> <PUBCHEM_COMPONENT_COUNT>
1

> <PUBCHEM_CACTVS_TAUTO_COUNT>
2

> <PUBCHEM_CONFORMER_ID>
048096AC00000001

> <PUBCHEM_MMFF94_ENERGY>
80.4322

> <PUBCHEM_FEATURE_SELFOVERLAP>
65.979

> <PUBCHEM_SHAPE_FINGERPRINT>
10050765 1 18409729552049123034
10190206 1 18340473565499499815
10411042 1 17833270105800885891
11007060 377 18343581854732682561
11135609 187 18340202982328334049
11823591 26 18261665991736499441
12107183 9 18189602857939879218
12293681 160 17917428683498863545
12788726 201 18189605228108185979
12895836 83 18408602548176819369
13383665 225 18189917450792139942
13540713 4 18339660970108410750
13540713 5 18188471528556603506
14190465 44 18339626889668758090
14257110 125 18409448042379812349
14294032 229 18339088176247436251
14556957 393 18119817068792229591
14565420 104 18115588119749512337
14790565 3 18195528091151530769
14849402 71 17905607705171519595
14931854 50 17988358157200928089
15064981 194 18267604531416639872
15183329 4 16845574171308335736
15198563 99 18126838529332318167
15347591 1 18338517551962728306
15439362 3 18195530294269020782
15513586 35 16953117584167878804
15778101 99 18408605872818856404
15803439 3 17132108031124885431
15927050 60 18411416185716616767
16087824 20 18338234969091047539
16114785 44 18260275174395387603
16126227 98 18410295809174412721
16992610 120 18335435543107390324
17844677 252 18193279813901806280
18608769 82 18339644542237298537
20691028 202 18409730621290179996
21360443 126 18408601478740557396
21424621 283 18339923718964069485
23522609 53 17604161436516157836
283562 15 18189329237783736459
3246875 12 18409730639060113361
3627633 1 18049442849011829671
4073 2 18410855495311021332
4258327 124 17968110753627936940
5104073 3 18040147418959826410
5758199 1 18339081493542645673
5969126 39 18125997406841788983
59755656 520 18334852801274307287
6327066 14 18408603634766615317
6712543 237 14779553357190823665
6898599 12 18338802324720065604
7288768 16 18113618967243580051
7808743 9 18408037416364031408

> <PUBCHEM_SHAPE_MULTIPOLES>
562.24
18.66
5.45
0.97
13.3
4.75
0.11
-24.46
2.59
-9.38
-0.51
0.62
-0.02
0.65

> <PUBCHEM_SHAPE_SELFOVERLAP>
1182.563

> <PUBCHEM_SHAPE_VOLUME>
316.9

> <PUBCHEM_COORDINATE_TYPE>
2
5
10

$$$$
