7143175
  -OEChem-12032416403D

 51 54  0     1  0  0  0  0  0999 V2000
    3.8165    2.6926   -0.2198 S   0  0  0  0  0  0  0  0  0  0  0  0
    3.7566    3.3150    1.0848 O   0  0  0  0  0  0  0  0  0  0  0  0
    2.9267    3.0851   -1.2909 O   0  0  0  0  0  0  0  0  0  0  0  0
   -0.0997   -1.3225    2.1631 O   0  0  0  0  0  0  0  0  0  0  0  0
   -2.8212   -0.6714   -1.7876 O   0  0  0  0  0  0  0  0  0  0  0  0
    3.7298    0.9945   -0.0251 N   0  0  2  0  0  0  0  0  0  0  0  0
    1.6760   -1.3135    0.6442 N   0  0  0  0  0  0  0  0  0  0  0  0
   -1.9884   -1.5877    0.1844 N   0  0  0  0  0  0  0  0  0  0  0  0
    4.1178   -1.0418    1.3664 C   0  0  1  0  0  0  0  0  0  0  0  0
    3.5707   -1.2807   -1.0162 C   0  0  2  0  0  0  0  0  0  0  0  0
    4.4305   -1.8457    0.1111 C   0  0  0  0  0  0  0  0  0  0  0  0
    4.4553    0.4431    1.1549 C   0  0  0  0  0  0  0  0  0  0  0  0
    3.9492    0.1908   -1.2647 C   0  0  0  0  0  0  0  0  0  0  0  0
    2.6476   -1.2601    1.7447 C   0  0  0  0  0  0  0  0  0  0  0  0
    2.0940   -1.3985   -0.6876 C   0  0  0  0  0  0  0  0  0  0  0  0
    1.1918   -1.5610   -1.6699 C   0  0  0  0  0  0  0  0  0  0  0  0
    0.3145   -1.3771    1.0042 C   0  0  0  0  0  0  0  0  0  0  0  0
   -0.6603   -1.5347   -0.1214 C   0  0  0  0  0  0  0  0  0  0  0  0
   -0.2126   -1.6285   -1.3779 C   0  0  0  0  0  0  0  0  0  0  0  0
    5.4829    2.8261   -0.8147 C   0  0  0  0  0  0  0  0  0  0  0  0
   -2.9942   -1.1509   -0.6697 C   0  0  0  0  0  0  0  0  0  0  0  0
   -4.3656   -1.3400   -0.0478 C   0  0  0  0  0  0  0  0  0  0  0  0
   -5.1320   -0.0535    0.1104 C   0  0  0  0  0  0  0  0  0  0  0  0
   -5.0023    0.6794    1.2817 C   0  0  0  0  0  0  0  0  0  0  0  0
   -5.9577    0.3806   -0.9171 C   0  0  0  0  0  0  0  0  0  0  0  0
   -5.7126    1.8710    1.4285 C   0  0  0  0  0  0  0  0  0  0  0  0
   -6.6680    1.5721   -0.7704 C   0  0  0  0  0  0  0  0  0  0  0  0
   -6.5454    2.3172    0.4024 C   0  0  0  0  0  0  0  0  0  0  0  0
    4.7397   -1.4041    2.1947 H   0  0  0  0  0  0  0  0  0  0  0  0
    3.7903   -1.8510   -1.9284 H   0  0  0  0  0  0  0  0  0  0  0  0
    4.2158   -2.9099    0.2697 H   0  0  0  0  0  0  0  0  0  0  0  0
    5.4953   -1.7671   -0.1401 H   0  0  0  0  0  0  0  0  0  0  0  0
    4.1788    0.9993    2.0569 H   0  0  0  0  0  0  0  0  0  0  0  0
    5.5358    0.5471    1.0081 H   0  0  0  0  0  0  0  0  0  0  0  0
    5.0022    0.2379   -1.5629 H   0  0  0  0  0  0  0  0  0  0  0  0
    3.3422    0.5949   -2.0825 H   0  0  0  0  0  0  0  0  0  0  0  0
    2.5594   -2.2253    2.2622 H   0  0  0  0  0  0  0  0  0  0  0  0
    2.3178   -0.5016    2.4658 H   0  0  0  0  0  0  0  0  0  0  0  0
    1.4909   -1.6247   -2.7109 H   0  0  0  0  0  0  0  0  0  0  0  0
   -0.8503   -1.7993   -2.2369 H   0  0  0  0  0  0  0  0  0  0  0  0
    5.5709    2.3686   -1.8002 H   0  0  0  0  0  0  0  0  0  0  0  0
    5.7061    3.8928   -0.9076 H   0  0  0  0  0  0  0  0  0  0  0  0
    6.1785    2.3864   -0.1003 H   0  0  0  0  0  0  0  0  0  0  0  0
   -2.2198   -1.7430    1.1624 H   0  0  0  0  0  0  0  0  0  0  0  0
   -4.9216   -2.0315   -0.6944 H   0  0  0  0  0  0  0  0  0  0  0  0
   -4.3005   -1.8483    0.9222 H   0  0  0  0  0  0  0  0  0  0  0  0
   -4.3545    0.3410    2.0855 H   0  0  0  0  0  0  0  0  0  0  0  0
   -6.0589   -0.1913   -1.8352 H   0  0  0  0  0  0  0  0  0  0  0  0
   -5.6167    2.4515    2.3413 H   0  0  0  0  0  0  0  0  0  0  0  0
   -7.3160    1.9200   -1.5695 H   0  0  0  0  0  0  0  0  0  0  0  0
   -7.0983    3.2451    0.5164 H   0  0  0  0  0  0  0  0  0  0  0  0
  1  2  2  0  0  0  0
  1  3  2  0  0  0  0
  1  6  1  0  0  0  0
  1 20  1  0  0  0  0
  4 17  2  0  0  0  0
  5 21  2  0  0  0  0
  6 12  1  0  0  0  0
  6 13  1  0  0  0  0
  7 14  1  0  0  0  0
  7 15  1  0  0  0  0
  7 17  1  0  0  0  0
  8 18  1  0  0  0  0
  8 21  1  0  0  0  0
  8 44  1  0  0  0  0
  9 11  1  0  0  0  0
  9 12  1  0  0  0  0
  9 14  1  0  0  0  0
  9 29  1  0  0  0  0
 10 11  1  0  0  0  0
 10 13  1  0  0  0  0
 10 15  1  0  0  0  0
 10 30  1  0  0  0  0
 11 31  1  0  0  0  0
 11 32  1  0  0  0  0
 12 33  1  0  0  0  0
 12 34  1  0  0  0  0
 13 35  1  0  0  0  0
 13 36  1  0  0  0  0
 14 37  1  0  0  0  0
 14 38  1  0  0  0  0
 15 16  2  0  0  0  0
 16 19  1  0  0  0  0
 16 39  1  0  0  0  0
 17 18  1  0  0  0  0
 18 19  2  0  0  0  0
 19 40  1  0  0  0  0
 20 41  1  0  0  0  0
 20 42  1  0  0  0  0
 20 43  1  0  0  0  0
 21 22  1  0  0  0  0
 22 23  1  0  0  0  0
 22 45  1  0  0  0  0
 22 46  1  0  0  0  0
 23 24  2  0  0  0  0
 23 25  1  0  0  0  0
 24 26  1  0  0  0  0
 24 47  1  0  0  0  0
 25 27  2  0  0  0  0
 25 48  1  0  0  0  0
 26 28  2  0  0  0  0
 26 49  1  0  0  0  0
 27 28  1  0  0  0  0
 27 50  1  0  0  0  0
 28 51  1  0  0  0  0
M  END
> <PUBCHEM_COMPOUND_CID>
7143175

> <PUBCHEM_CONFORMER_RMSD>
0.8

> <PUBCHEM_CONFORMER_DIVERSEORDER>
1
48
51
19
21
34
32
16
50
36
20
41
49
57
11
13
30
52
39
8
35
23
40
46
2
24
56
58
15
55
22
42
25
54
53
37
3
38
18
28
44
45
17
43
29
4
31
12
10
7
14
33
47
6
27
5
26
9

> <PUBCHEM_MMFF94_PARTIAL_CHARGES>
34
1 1.33
10 0.14
12 0.36
13 0.36
14 0.3
15 -0.03
16 -0.15
17 0.62
18 0.12
19 -0.15
2 -0.65
20 0.11
21 0.57
22 0.2
23 -0.14
24 -0.15
25 -0.15
26 -0.15
27 -0.15
28 -0.15
3 -0.65
39 0.15
4 -0.57
40 0.15
44 0.37
47 0.15
48 0.15
49 0.15
5 -0.57
50 0.15
51 0.15
6 -0.85
7 -0.47
8 -0.54

> <PUBCHEM_EFFECTIVE_ROTOR_COUNT>
6

> <PUBCHEM_PHARMACOPHORE_FEATURES>
9
1 2 acceptor
1 3 acceptor
1 4 acceptor
1 5 acceptor
1 8 donor
6 23 24 25 26 27 28 rings
6 6 9 10 11 12 13 rings
6 7 15 16 17 18 19 rings
6 7 9 10 11 14 15 rings

> <PUBCHEM_HEAVY_ATOM_COUNT>
28

> <PUBCHEM_ATOM_DEF_STEREO_COUNT>
2

> <PUBCHEM_ATOM_UDEF_STEREO_COUNT>
0

> <PUBCHEM_BOND_DEF_STEREO_COUNT>
0

> <PUBCHEM_BOND_UDEF_STEREO_COUNT>
0

> <PUBCHEM_ISOTOPIC_ATOM_COUNT>
0

> <PUBCHEM_COMPONENT_COUNT>
1

> <PUBCHEM_CACTVS_TAUTO_COUNT>
2

> <PUBCHEM_CONFORMER_ID>
006CFF0700000001

> <PUBCHEM_MMFF94_ENERGY>
72.0424

> <PUBCHEM_FEATURE_SELFOVERLAP>
47.273

> <PUBCHEM_SHAPE_FINGERPRINT>
10763959 59 18271813362884296111
11070050 100 16805321093474965760
11578080 2 17605009168127573490
11796584 16 10665488713513637059
12422481 6 18186235122116378949
12596602 18 18259988176269529699
12633257 1 16518476240209821820
13150687 139 11167077230404418298
13782708 43 10303825254424952796
13878862 14 18261935393412253925
14347332 77 9151178645300850191
14848178 5 9078847255154772353
15001296 14 18411699902713767969
15064981 194 17561363964660307465
15183329 4 15123505879295240251
15238133 3 18340481262180724298
15348495 7 17894918429725901107
15475509 35 10809343360188177804
15475509 84 17389365040183879552
1768 23 17916325882706808561
17844677 252 18411706516957914515
19438510 23 18264486368311729792
19958102 18 11599714061680436957
20567600 247 9871754589215331141
20691028 202 17844538713021864121
20715895 44 18272932700075718394
21033648 29 17240491337523536232
21641784 216 16702034062563208809
22122407 14 18335146341437125569
23522609 53 8140949698142131887
23559900 14 18202011988393131870
25222932 49 11819288787855658698
2748736 6 18272083869226903317
2838139 119 18199186376816698420
29717793 49 12607398880566844995
3472631 163 18410854352659881751
34797466 226 18059584607022206647
3680242 22 18261108539214447745
392239 28 17676477367570794065
397830 11 18041575723356013603
4144715 1 18335712692340240731
465052 167 13118006565230084082
5104073 3 17749388204228500299
513532 50 16845573145465111072
57724786 102 18335701676123023308
633830 44 18411414020710182359

> <PUBCHEM_SHAPE_MULTIPOLES>
541.66
16.48
3.3
1.72
23.46
3.19
-0.25
12.21
-0.41
-3.31
0.26
-0.43
-0.27
-1.41

> <PUBCHEM_SHAPE_SELFOVERLAP>
1156.625

> <PUBCHEM_SHAPE_VOLUME>
300.1

> <PUBCHEM_COORDINATE_TYPE>
2
5
10

$$$$
