38026862
  -OEChem-12032416143D

 74 76  0     1  0  0  0  0  0999 V2000
   -2.6113    1.3831   -0.8760 S   0  0  0  0  0  0  0  0  0  0  0  0
    3.8508   -2.4733    0.2411 O   0  0  0  0  0  0  0  0  0  0  0  0
   -2.5669    0.9173   -2.2490 O   0  0  0  0  0  0  0  0  0  0  0  0
   -2.0020    2.6488   -0.5152 O   0  0  0  0  0  0  0  0  0  0  0  0
    6.8256    4.0059   -0.2673 O   0  0  0  0  0  0  0  0  0  0  0  0
   -8.2905    1.6723    0.7644 O   0  0  0  0  0  0  0  0  0  0  0  0
   -2.0129    0.1626    0.1510 N   0  0  0  0  0  0  0  0  0  0  0  0
    4.3447   -0.2252   -0.0692 N   0  0  0  0  0  0  0  0  0  0  0  0
    6.3566    1.7618    0.1046 N   0  0  0  0  0  0  0  0  0  0  0  0
   -0.3707   -2.2355   -0.5783 C   0  0  1  0  0  0  0  0  0  0  0  0
   -1.5023   -2.2082    0.4794 C   0  0  1  0  0  0  0  0  0  0  0  0
    0.8830   -2.9136   -0.0050 C   0  0  0  0  0  0  0  0  0  0  0  0
    1.4085   -2.1977    1.2536 C   0  0  2  0  0  0  0  0  0  0  0  0
   -0.8076   -2.9517   -1.8602 C   0  0  0  0  0  0  0  0  0  0  0  0
    0.2948   -1.8939    2.2350 C   0  0  0  0  0  0  0  0  0  0  0  0
   -1.0006   -1.9166    1.8742 C   0  0  0  0  0  0  0  0  0  0  0  0
   -2.5863   -1.1916    0.1037 C   0  0  0  0  0  0  0  0  0  0  0  0
    2.1770   -0.9241    0.8842 C   0  0  0  0  0  0  0  0  0  0  0  0
    0.0208   -2.4706   -3.0472 C   0  0  0  0  0  0  0  0  0  0  0  0
   -0.6861   -4.4630   -1.6928 C   0  0  0  0  0  0  0  0  0  0  0  0
    0.7019   -1.6078    3.6537 C   0  0  0  0  0  0  0  0  0  0  0  0
    3.5294   -1.2852    0.3238 C   0  0  0  0  0  0  0  0  0  0  0  0
    5.6754   -0.4918   -0.6210 C   0  0  0  0  0  0  0  0  0  0  0  0
    3.9637    1.1934   -0.0533 C   0  0  0  0  0  0  0  0  0  0  0  0
    6.7379    0.3434    0.0888 C   0  0  0  0  0  0  0  0  0  0  0  0
    5.0260    2.0282    0.6567 C   0  0  0  0  0  0  0  0  0  0  0  0
   -4.3071    1.4678   -0.3840 C   0  0  0  0  0  0  0  0  0  0  0  0
    7.1709    2.8218   -0.2905 C   0  0  0  0  0  0  0  0  0  0  0  0
   -5.2574    0.6669   -1.0173 C   0  0  0  0  0  0  0  0  0  0  0  0
   -4.6953    2.3375    0.6351 C   0  0  0  0  0  0  0  0  0  0  0  0
    8.5534    2.4658   -0.7752 C   0  0  0  0  0  0  0  0  0  0  0  0
   -6.5960    0.7356   -0.6315 C   0  0  0  0  0  0  0  0  0  0  0  0
   -6.0339    2.4062    1.0209 C   0  0  0  0  0  0  0  0  0  0  0  0
   -6.9843    1.6052    0.3878 C   0  0  0  0  0  0  0  0  0  0  0  0
   -9.2091    0.8257    0.0748 C   0  0  0  0  0  0  0  0  0  0  0  0
   -0.1111   -1.2027   -0.8399 H   0  0  0  0  0  0  0  0  0  0  0  0
   -1.9829   -3.1935    0.5273 H   0  0  0  0  0  0  0  0  0  0  0  0
    1.6665   -2.9880   -0.7647 H   0  0  0  0  0  0  0  0  0  0  0  0
    0.6564   -3.9398    0.3124 H   0  0  0  0  0  0  0  0  0  0  0  0
    2.0818   -2.9029    1.7611 H   0  0  0  0  0  0  0  0  0  0  0  0
   -1.8523   -2.7206   -2.0915 H   0  0  0  0  0  0  0  0  0  0  0  0
   -1.7605   -1.7364    2.6322 H   0  0  0  0  0  0  0  0  0  0  0  0
   -3.4135   -1.2419    0.8219 H   0  0  0  0  0  0  0  0  0  0  0  0
   -2.9985   -1.4054   -0.8850 H   0  0  0  0  0  0  0  0  0  0  0  0
    2.3536   -0.3078    1.7727 H   0  0  0  0  0  0  0  0  0  0  0  0
    1.6251   -0.3232    0.1554 H   0  0  0  0  0  0  0  0  0  0  0  0
    1.0861   -2.6914   -2.9291 H   0  0  0  0  0  0  0  0  0  0  0  0
   -0.0882   -1.3898   -3.1880 H   0  0  0  0  0  0  0  0  0  0  0  0
   -0.3151   -2.9569   -3.9697 H   0  0  0  0  0  0  0  0  0  0  0  0
    0.3508   -4.8151   -1.7002 H   0  0  0  0  0  0  0  0  0  0  0  0
   -1.1743   -4.9588   -2.5410 H   0  0  0  0  0  0  0  0  0  0  0  0
   -1.1861   -4.8303   -0.7917 H   0  0  0  0  0  0  0  0  0  0  0  0
    1.3139   -2.4264    4.0462 H   0  0  0  0  0  0  0  0  0  0  0  0
   -0.1642   -1.5011    4.3158 H   0  0  0  0  0  0  0  0  0  0  0  0
    1.2779   -0.6803    3.7179 H   0  0  0  0  0  0  0  0  0  0  0  0
   -1.6212    0.4580    1.0537 H   0  0  0  0  0  0  0  0  0  0  0  0
    5.6368   -0.2336   -1.6862 H   0  0  0  0  0  0  0  0  0  0  0  0
    5.9249   -1.5547   -0.5460 H   0  0  0  0  0  0  0  0  0  0  0  0
    2.9960    1.3589    0.4223 H   0  0  0  0  0  0  0  0  0  0  0  0
    3.8726    1.5067   -1.1004 H   0  0  0  0  0  0  0  0  0  0  0  0
    6.8310    0.0296    1.1355 H   0  0  0  0  0  0  0  0  0  0  0  0
    7.7055    0.1834   -0.3896 H   0  0  0  0  0  0  0  0  0  0  0  0
    4.7764    3.0912    0.5836 H   0  0  0  0  0  0  0  0  0  0  0  0
    5.0645    1.7689    1.7216 H   0  0  0  0  0  0  0  0  0  0  0  0
   -4.9760   -0.0184   -1.8118 H   0  0  0  0  0  0  0  0  0  0  0  0
   -3.9711    2.9651    1.1466 H   0  0  0  0  0  0  0  0  0  0  0  0
    8.4897    1.8606   -1.6833 H   0  0  0  0  0  0  0  0  0  0  0  0
    9.1035    1.9320    0.0043 H   0  0  0  0  0  0  0  0  0  0  0  0
    9.1031    3.3820   -1.0123 H   0  0  0  0  0  0  0  0  0  0  0  0
   -7.2814    0.0856   -1.1646 H   0  0  0  0  0  0  0  0  0  0  0  0
   -6.3303    3.0843    1.8165 H   0  0  0  0  0  0  0  0  0  0  0  0
  -10.2005    1.0089    0.5019 H   0  0  0  0  0  0  0  0  0  0  0  0
   -8.9813   -0.2331    0.2386 H   0  0  0  0  0  0  0  0  0  0  0  0
   -9.2679    1.0780   -0.9894 H   0  0  0  0  0  0  0  0  0  0  0  0
  1  3  2  0  0  0  0
  1  4  2  0  0  0  0
  1  7  1  0  0  0  0
  1 27  1  0  0  0  0
  2 22  2  0  0  0  0
  5 28  2  0  0  0  0
  6 34  1  0  0  0  0
  6 35  1  0  0  0  0
  7 17  1  0  0  0  0
  7 56  1  0  0  0  0
  8 22  1  0  0  0  0
  8 23  1  0  0  0  0
  8 24  1  0  0  0  0
  9 25  1  0  0  0  0
  9 26  1  0  0  0  0
  9 28  1  0  0  0  0
 10 11  1  0  0  0  0
 10 12  1  0  0  0  0
 10 14  1  0  0  0  0
 10 36  1  0  0  0  0
 11 16  1  0  0  0  0
 11 17  1  0  0  0  0
 11 37  1  0  0  0  0
 12 13  1  0  0  0  0
 12 38  1  0  0  0  0
 12 39  1  0  0  0  0
 13 15  1  0  0  0  0
 13 18  1  0  0  0  0
 13 40  1  0  0  0  0
 14 19  1  0  0  0  0
 14 20  1  0  0  0  0
 14 41  1  0  0  0  0
 15 16  2  0  0  0  0
 15 21  1  0  0  0  0
 16 42  1  0  0  0  0
 17 43  1  0  0  0  0
 17 44  1  0  0  0  0
 18 22  1  0  0  0  0
 18 45  1  0  0  0  0
 18 46  1  0  0  0  0
 19 47  1  0  0  0  0
 19 48  1  0  0  0  0
 19 49  1  0  0  0  0
 20 50  1  0  0  0  0
 20 51  1  0  0  0  0
 20 52  1  0  0  0  0
 21 53  1  0  0  0  0
 21 54  1  0  0  0  0
 21 55  1  0  0  0  0
 23 25  1  0  0  0  0
 23 57  1  0  0  0  0
 23 58  1  0  0  0  0
 24 26  1  0  0  0  0
 24 59  1  0  0  0  0
 24 60  1  0  0  0  0
 25 61  1  0  0  0  0
 25 62  1  0  0  0  0
 26 63  1  0  0  0  0
 26 64  1  0  0  0  0
 27 29  2  0  0  0  0
 27 30  1  0  0  0  0
 28 31  1  0  0  0  0
 29 32  1  0  0  0  0
 29 65  1  0  0  0  0
 30 33  2  0  0  0  0
 30 66  1  0  0  0  0
 31 67  1  0  0  0  0
 31 68  1  0  0  0  0
 31 69  1  0  0  0  0
 32 34  2  0  0  0  0
 32 70  1  0  0  0  0
 33 34  1  0  0  0  0
 33 71  1  0  0  0  0
 35 72  1  0  0  0  0
 35 73  1  0  0  0  0
 35 74  1  0  0  0  0
M  END
> <PUBCHEM_COMPOUND_CID>
38026862

> <PUBCHEM_CONFORMER_RMSD>
1.4

> <PUBCHEM_CONFORMER_DIVERSEORDER>
1
96
12
108
91
60
17
10
104
18
58
90
7
28
111
92
36
88
97
52
110
56
14
5
98
65
33
45
48
29
109
102
46
93
24
9
80
61
68
81
37
105
31
15
26
107
51
103
39
49
11
79
78
86
44
53
62
59
112
19
99
66
42
3
76
27
50
16
35
95
87
38
115
63
22
54
55
82
70
47
84
106
72
25
43
69
21
40
75
57
23
8
64
113
94
77
41
32
71
100
20
2
6
114
34
30
4
85
74
13
73
101
83
67
89

> <PUBCHEM_MMFF94_PARTIAL_CHARGES>
36
1 1.45
11 0.14
13 0.14
15 -0.28
16 -0.29
17 0.36
18 0.06
2 -0.57
21 0.14
22 0.57
23 0.3
24 0.3
25 0.3
26 0.3
27 -0.01
28 0.57
29 -0.15
3 -0.65
30 -0.15
31 0.06
32 -0.15
33 -0.15
34 0.08
35 0.28
4 -0.65
42 0.15
5 -0.57
56 0.42
6 -0.36
65 0.15
66 0.15
7 -0.91
70 0.15
71 0.15
8 -0.66
9 -0.66

> <PUBCHEM_EFFECTIVE_ROTOR_COUNT>
12

> <PUBCHEM_PHARMACOPHORE_FEATURES>
10
1 2 acceptor
1 3 acceptor
1 4 acceptor
1 5 acceptor
1 6 acceptor
1 7 donor
3 14 19 20 hydrophobe
6 10 11 12 13 15 16 rings
6 27 29 30 32 33 34 rings
6 8 9 23 24 25 26 rings

> <PUBCHEM_HEAVY_ATOM_COUNT>
35

> <PUBCHEM_ATOM_DEF_STEREO_COUNT>
3

> <PUBCHEM_ATOM_UDEF_STEREO_COUNT>
0

> <PUBCHEM_BOND_DEF_STEREO_COUNT>
0

> <PUBCHEM_BOND_UDEF_STEREO_COUNT>
0

> <PUBCHEM_ISOTOPIC_ATOM_COUNT>
0

> <PUBCHEM_COMPONENT_COUNT>
1

> <PUBCHEM_CACTVS_TAUTO_COUNT>
1

> <PUBCHEM_CONFORMER_ID>
02443E6E00000001

> <PUBCHEM_MMFF94_ENERGY>
77.3596

> <PUBCHEM_FEATURE_SELFOVERLAP>
50.766

> <PUBCHEM_SHAPE_FINGERPRINT>
10369192 42 18342175557817063133
10673678 19 18200596895600462075
10930396 42 16225763043398407613
11273773 42 18413385458170182853
11578080 2 17559084757942797706
11607047 403 18339084779171509231
11720765 8 8574127459327349775
1200032 147 18335419076181236426
12895836 83 18273208716186231027
12895837 130 18266180715729827100
12988421 55 16661470953017638602
14114211 68 17203331070273573591
14216079 64 10303813180945225840
14294032 229 18271247251909388907
14394314 77 18338521842098266625
15119646 57 18339355387700885164
15183329 4 14189287132952090499
15538507 32 18342737446476602208
16114785 44 18189619517548749706
16126227 98 18412543244900132189
16993427 108 10953458548348280039
17899979 129 18341056237916389326
19302320 297 18113335345654295732
19319366 153 18113890529536063578
19438510 23 18260828224332464682
21716022 299 15982864259658790351
21772528 278 18410290336937315039
23522609 53 17702392754412945409
2838139 119 18335694988727223750
437795 51 18411138030875915241
44802255 64 18129671931973722270
46194498 28 17912645701076734967
469060 322 15791720940786463878
474113 269 7853575695386680689
5776283 40 18130784607127699560
58260988 587 18129389202824252479
6081469 158 9727638293243920505
7288768 16 17676201407807189954

> <PUBCHEM_SHAPE_MULTIPOLES>
679.84
22.19
4.75
2.13
1.9
1.31
0.64
-30.86
-1.4
-3.49
-1.27
0.38
2.19
-1.65

> <PUBCHEM_SHAPE_SELFOVERLAP>
1389.712

> <PUBCHEM_SHAPE_VOLUME>
395.1

> <PUBCHEM_COORDINATE_TYPE>
2
5
10

$$$$
