75536530
  -OEChem-12032416303D

 52 53  0     1  0  0  0  0  0999 V2000
    1.6937    0.0309    0.1547 O   0  0  0  0  0  0  0  0  0  0  0  0
    0.2553   -3.0948   -0.8779 O   0  0  0  0  0  0  0  0  0  0  0  0
    3.8491    1.4505   -1.4473 O   0  0  0  0  0  0  0  0  0  0  0  0
   -1.8207   -0.8831   -0.0562 N   0  0  0  0  0  0  0  0  0  0  0  0
    4.1056   -0.8419   -1.1649 N   0  0  0  0  0  0  0  0  0  0  0  0
   -6.6477    3.1827   -1.1791 N   0  0  0  0  0  0  0  0  0  0  0  0
   -0.4163   -1.0526    0.2793 C   0  0  1  0  0  0  0  0  0  0  0  0
    0.4021   -1.6889   -0.8290 C   0  0  1  0  0  0  0  0  0  0  0  0
    1.8118   -1.2790   -0.4249 C   0  0  1  0  0  0  0  0  0  0  0  0
    0.3104    0.2688    0.4690 C   0  0  0  0  0  0  0  0  0  0  0  0
    2.7830   -1.2386   -1.5913 C   0  0  0  0  0  0  0  0  0  0  0  0
    6.1175    0.8593    0.8698 C   0  0  0  0  0  0  0  0  0  0  0  0
   -2.6131   -0.5916    1.1325 C   0  0  0  0  0  0  0  0  0  0  0  0
    5.9632    0.6280   -0.6523 C   0  0  0  0  0  0  0  0  0  0  0  0
    4.5279    0.4761   -1.1292 C   0  0  0  0  0  0  0  0  0  0  0  0
    5.3787    2.1626    1.2318 C   0  0  0  0  0  0  0  0  0  0  0  0
    7.5972    1.0153    1.2590 C   0  0  0  0  0  0  0  0  0  0  0  0
    5.4983   -0.2912    1.6800 C   0  0  0  0  0  0  0  0  0  0  0  0
   -4.0688   -0.3963    0.8018 C   0  0  0  0  0  0  0  0  0  0  0  0
   -4.4990    0.7944    0.2161 C   0  0  0  0  0  0  0  0  0  0  0  0
   -4.9878   -1.4083    1.0803 C   0  0  0  0  0  0  0  0  0  0  0  0
   -5.8478    0.9733   -0.0910 C   0  0  0  0  0  0  0  0  0  0  0  0
   -6.3367   -1.2294    0.7729 C   0  0  0  0  0  0  0  0  0  0  0  0
   -6.7668   -0.0386    0.1875 C   0  0  0  0  0  0  0  0  0  0  0  0
   -6.2891    2.1924   -0.6915 C   0  0  0  0  0  0  0  0  0  0  0  0
   -0.3133   -1.6767    1.1783 H   0  0  0  0  0  0  0  0  0  0  0  0
    0.1334   -1.2712   -1.8073 H   0  0  0  0  0  0  0  0  0  0  0  0
    2.2063   -1.9460    0.3531 H   0  0  0  0  0  0  0  0  0  0  0  0
   -0.0477    1.0439   -0.2184 H   0  0  0  0  0  0  0  0  0  0  0  0
    0.2321    0.6514    1.4911 H   0  0  0  0  0  0  0  0  0  0  0  0
    2.4426   -0.5247   -2.3500 H   0  0  0  0  0  0  0  0  0  0  0  0
    2.8723   -2.2251   -2.0572 H   0  0  0  0  0  0  0  0  0  0  0  0
   -2.1677   -1.7435   -0.4812 H   0  0  0  0  0  0  0  0  0  0  0  0
    4.7425   -1.5764   -0.8711 H   0  0  0  0  0  0  0  0  0  0  0  0
   -2.2541    0.3201    1.6270 H   0  0  0  0  0  0  0  0  0  0  0  0
   -2.5124   -1.4008    1.8675 H   0  0  0  0  0  0  0  0  0  0  0  0
    6.5325   -0.2624   -0.9494 H   0  0  0  0  0  0  0  0  0  0  0  0
    6.4046    1.4637   -1.2111 H   0  0  0  0  0  0  0  0  0  0  0  0
    0.4938   -3.4575   -0.0080 H   0  0  0  0  0  0  0  0  0  0  0  0
    5.5360    2.4195    2.2861 H   0  0  0  0  0  0  0  0  0  0  0  0
    5.7402    3.0052    0.6315 H   0  0  0  0  0  0  0  0  0  0  0  0
    4.2968    2.0796    1.0844 H   0  0  0  0  0  0  0  0  0  0  0  0
    7.7117    1.2088    2.3314 H   0  0  0  0  0  0  0  0  0  0  0  0
    8.0615    1.8470    0.7175 H   0  0  0  0  0  0  0  0  0  0  0  0
    8.1609    0.1065    1.0208 H   0  0  0  0  0  0  0  0  0  0  0  0
    5.9398   -1.2528    1.3961 H   0  0  0  0  0  0  0  0  0  0  0  0
    5.6719   -0.1523    2.7534 H   0  0  0  0  0  0  0  0  0  0  0  0
    4.4148   -0.3592    1.5394 H   0  0  0  0  0  0  0  0  0  0  0  0
   -3.7795    1.5818    0.0002 H   0  0  0  0  0  0  0  0  0  0  0  0
   -4.6669   -2.3421    1.5341 H   0  0  0  0  0  0  0  0  0  0  0  0
   -7.0519   -2.0176    0.9891 H   0  0  0  0  0  0  0  0  0  0  0  0
   -7.8215    0.0857   -0.0462 H   0  0  0  0  0  0  0  0  0  0  0  0
  1  9  1  0  0  0  0
  1 10  1  0  0  0  0
  2  8  1  0  0  0  0
  2 39  1  0  0  0  0
  3 15  2  0  0  0  0
  4  7  1  0  0  0  0
  4 13  1  0  0  0  0
  4 33  1  0  0  0  0
  5 11  1  0  0  0  0
  5 15  1  0  0  0  0
  5 34  1  0  0  0  0
  6 25  3  0  0  0  0
  7  8  1  0  0  0  0
  7 10  1  0  0  0  0
  7 26  1  0  0  0  0
  8  9  1  0  0  0  0
  8 27  1  0  0  0  0
  9 11  1  0  0  0  0
  9 28  1  0  0  0  0
 10 29  1  0  0  0  0
 10 30  1  0  0  0  0
 11 31  1  0  0  0  0
 11 32  1  0  0  0  0
 12 14  1  0  0  0  0
 12 16  1  0  0  0  0
 12 17  1  0  0  0  0
 12 18  1  0  0  0  0
 13 19  1  0  0  0  0
 13 35  1  0  0  0  0
 13 36  1  0  0  0  0
 14 15  1  0  0  0  0
 14 37  1  0  0  0  0
 14 38  1  0  0  0  0
 16 40  1  0  0  0  0
 16 41  1  0  0  0  0
 16 42  1  0  0  0  0
 17 43  1  0  0  0  0
 17 44  1  0  0  0  0
 17 45  1  0  0  0  0
 18 46  1  0  0  0  0
 18 47  1  0  0  0  0
 18 48  1  0  0  0  0
 19 20  2  0  0  0  0
 19 21  1  0  0  0  0
 20 22  1  0  0  0  0
 20 49  1  0  0  0  0
 21 23  2  0  0  0  0
 21 50  1  0  0  0  0
 22 24  2  0  0  0  0
 22 25  1  0  0  0  0
 23 24  1  0  0  0  0
 23 51  1  0  0  0  0
 24 52  1  0  0  0  0
M  END
> <PUBCHEM_COMPOUND_CID>
75536530

> <PUBCHEM_CONFORMER_RMSD>
1.2

> <PUBCHEM_CONFORMER_DIVERSEORDER>
1
8
115
128
116
100
113
62
24
102
87
79
114
112
43
141
74
106
12
139
67
144
83
92
53
64
84
47
129
60
120
105
68
130
39
134
132
37
36
11
45
142
54
135
19
86
46
133
41
110
71
21
145
126
103
61
4
18
90
49
108
137
89
38
15
7
111
50
146
29
51
85
107
59
125
82
136
72
99
20
48
148
75
81
34
55
121
123
2
77
138
73
117
33
88
17
26
96
97
52
31
109
56
94
66
44
27
80
14
3
98
95
28
40
140
131
57
76
22
78
147
127
16
69
70
42
93
32
143
25
23
35
58
118
9
119
30
124
122
91
104
101
6
13
10
65
5
63

> <PUBCHEM_MMFF94_PARTIAL_CHARGES>
28
1 -0.56
10 0.28
11 0.3
13 0.41
14 0.06
15 0.57
19 -0.14
2 -0.68
20 -0.15
21 -0.15
22 0.07
23 -0.15
24 -0.15
25 0.48
3 -0.57
33 0.36
34 0.37
39 0.4
4 -0.9
49 0.15
5 -0.73
50 0.15
51 0.15
52 0.15
6 -0.56
7 0.27
8 0.28
9 0.28

> <PUBCHEM_EFFECTIVE_ROTOR_COUNT>
9

> <PUBCHEM_PHARMACOPHORE_FEATURES>
11
1 1 acceptor
1 2 acceptor
1 2 donor
1 3 acceptor
1 4 cation
1 4 donor
1 5 donor
1 6 acceptor
4 12 16 17 18 hydrophobe
5 1 7 8 9 10 rings
6 19 20 21 22 23 24 rings

> <PUBCHEM_HEAVY_ATOM_COUNT>
25

> <PUBCHEM_ATOM_DEF_STEREO_COUNT>
3

> <PUBCHEM_ATOM_UDEF_STEREO_COUNT>
0

> <PUBCHEM_BOND_DEF_STEREO_COUNT>
0

> <PUBCHEM_BOND_UDEF_STEREO_COUNT>
0

> <PUBCHEM_ISOTOPIC_ATOM_COUNT>
0

> <PUBCHEM_COMPONENT_COUNT>
1

> <PUBCHEM_CACTVS_TAUTO_COUNT>
2

> <PUBCHEM_CONFORMER_ID>
0480989200000001

> <PUBCHEM_MMFF94_ENERGY>
52.216

> <PUBCHEM_FEATURE_SELFOVERLAP>
55.822

> <PUBCHEM_SHAPE_FINGERPRINT>
10 15 18338519741362302122
10692045 39 15792014441576028001
10835480 77 18341048515565223593
11719270 70 18411983542116482206
11761917 142 18116989992844438685
12778500 126 17386000642520665944
13073987 5 17749115453074101259
13167372 99 17894353280316700860
13782708 43 9439107742307711825
14123256 34 8070027778717281820
14251764 18 16877663491785388884
14344974 204 9078242541457472689
14347424 109 16950279642268177300
14461889 52 18338243763828380995
14598715 104 18412254034961979137
14681490 219 15554452898685795418
14767858 380 15913610570684567082
15183329 4 17967820448398600345
15352257 5 9727633912514506561
16079462 125 18341895186293363171
18927931 339 11743833648182254569
20157964 124 17275111635232167974
20567600 254 18131070442038910002
20715895 44 18202283637064332912
21033648 29 18336551530345517075
21150785 3 15554446310058002725
21196832 93 12822711904253306453
21521721 280 17418103134392005939
21859007 373 18262795168861521572
220451 1 12751247982396408535
23016692 55 9295293832996793858
23081809 10 16660373605399186487
23559900 14 18120096074965038947
249057 25 16877954879504784863
2838139 119 18335698381941298149
34797466 226 15554179124548249060
465052 167 11169912788670368322
5104073 3 17313391076581387043
5283384 27 18059850684451457600
53917941 68 18059571433735394463
8863177 126 9511160951015329661
9980921 177 17678451961689846137
999808 66 8430315762240515305

> <PUBCHEM_SHAPE_MULTIPOLES>
481.94
22.44
2.38
1.47
3.2
0.57
0.04
13.26
-3.94
2.32
0.78
-1.59
0.07
3.04

> <PUBCHEM_SHAPE_SELFOVERLAP>
988.947

> <PUBCHEM_SHAPE_VOLUME>
277.4

> <PUBCHEM_COORDINATE_TYPE>
2
5
10

$$$$
