51137107
  -OEChem-12032416293D

 43 46  0     1  0  0  0  0  0999 V2000
    8.7424   -0.5019   -0.1169 F   0  0  0  0  0  0  0  0  0  0  0  0
   -7.6103   -1.3589   -0.0237 F   0  0  0  0  0  0  0  0  0  0  0  0
   -7.3323   -0.0163    1.6640 F   0  0  0  0  0  0  0  0  0  0  0  0
   -7.9490    0.7761   -0.2584 F   0  0  0  0  0  0  0  0  0  0  0  0
   -0.6714   -0.2013   -0.2806 N   0  0  1  0  0  0  0  0  0  0  0  0
    3.9528   -1.3365    0.2561 N   0  0  0  0  0  0  0  0  0  0  0  0
    3.4167    0.8142    0.0923 N   0  0  0  0  0  0  0  0  0  0  0  0
    1.5005   -0.8117    0.3596 C   0  0  1  0  0  0  0  0  0  0  0  0
    0.7616   -0.2014    1.5632 C   0  0  0  0  0  0  0  0  0  0  0  0
    0.6582   -0.4091   -0.8584 C   0  0  0  0  0  0  0  0  0  0  0  0
   -0.4318    0.5308    0.9631 C   0  0  0  0  0  0  0  0  0  0  0  0
    2.9509   -0.4066    0.2328 C   0  0  0  0  0  0  0  0  0  0  0  0
   -1.5628    0.5140   -1.1817 C   0  0  0  0  0  0  0  0  0  0  0  0
   -3.0073    0.3459   -0.7917 C   0  0  0  0  0  0  0  0  0  0  0  0
    5.1444   -0.6715    0.1214 C   0  0  0  0  0  0  0  0  0  0  0  0
    4.7831    0.6691    0.0210 C   0  0  0  0  0  0  0  0  0  0  0  0
   -3.6712   -0.8479   -1.0741 C   0  0  0  0  0  0  0  0  0  0  0  0
   -3.6815    1.3833   -0.1475 C   0  0  0  0  0  0  0  0  0  0  0  0
    6.4670   -1.1141    0.0799 C   0  0  0  0  0  0  0  0  0  0  0  0
    5.7879    1.6398   -0.1299 C   0  0  0  0  0  0  0  0  0  0  0  0
   -5.0091   -1.0044   -0.7125 C   0  0  0  0  0  0  0  0  0  0  0  0
   -5.0194    1.2269    0.2142 C   0  0  0  0  0  0  0  0  0  0  0  0
   -5.6833    0.0332   -0.0683 C   0  0  0  0  0  0  0  0  0  0  0  0
    7.4541   -0.1346   -0.0708 C   0  0  0  0  0  0  0  0  0  0  0  0
    7.1227    1.2184   -0.1740 C   0  0  0  0  0  0  0  0  0  0  0  0
   -7.1130   -0.1354    0.3211 C   0  0  0  0  0  0  0  0  0  0  0  0
    1.4526   -1.9053    0.4664 H   0  0  0  0  0  0  0  0  0  0  0  0
    0.4163   -1.0061    2.2244 H   0  0  0  0  0  0  0  0  0  0  0  0
    1.3845    0.4738    2.1594 H   0  0  0  0  0  0  0  0  0  0  0  0
    1.0404    0.5094   -1.3235 H   0  0  0  0  0  0  0  0  0  0  0  0
    0.6524   -1.2001   -1.6162 H   0  0  0  0  0  0  0  0  0  0  0  0
   -0.1646    1.5791    0.7773 H   0  0  0  0  0  0  0  0  0  0  0  0
   -1.2903    0.5027    1.6413 H   0  0  0  0  0  0  0  0  0  0  0  0
   -1.2997    1.5771   -1.2663 H   0  0  0  0  0  0  0  0  0  0  0  0
   -1.4622    0.1129   -2.2003 H   0  0  0  0  0  0  0  0  0  0  0  0
    3.8395   -2.3367    0.3546 H   0  0  0  0  0  0  0  0  0  0  0  0
   -3.1566   -1.6636   -1.5753 H   0  0  0  0  0  0  0  0  0  0  0  0
   -3.1753    2.3177    0.0800 H   0  0  0  0  0  0  0  0  0  0  0  0
    6.7219   -2.1646    0.1603 H   0  0  0  0  0  0  0  0  0  0  0  0
    5.5407    2.6935   -0.2109 H   0  0  0  0  0  0  0  0  0  0  0  0
   -5.5077   -1.9422   -0.9411 H   0  0  0  0  0  0  0  0  0  0  0  0
   -5.5361    2.0403    0.7166 H   0  0  0  0  0  0  0  0  0  0  0  0
    7.9123    1.9562   -0.2903 H   0  0  0  0  0  0  0  0  0  0  0  0
  1 24  1  0  0  0  0
  2 26  1  0  0  0  0
  3 26  1  0  0  0  0
  4 26  1  0  0  0  0
  5 10  1  0  0  0  0
  5 11  1  0  0  0  0
  5 13  1  0  0  0  0
  6 12  1  0  0  0  0
  6 15  1  0  0  0  0
  6 36  1  0  0  0  0
  7 12  2  0  0  0  0
  7 16  1  0  0  0  0
  8  9  1  0  0  0  0
  8 10  1  0  0  0  0
  8 12  1  0  0  0  0
  8 27  1  0  0  0  0
  9 11  1  0  0  0  0
  9 28  1  0  0  0  0
  9 29  1  0  0  0  0
 10 30  1  0  0  0  0
 10 31  1  0  0  0  0
 11 32  1  0  0  0  0
 11 33  1  0  0  0  0
 13 14  1  0  0  0  0
 13 34  1  0  0  0  0
 13 35  1  0  0  0  0
 14 17  2  0  0  0  0
 14 18  1  0  0  0  0
 15 16  2  0  0  0  0
 15 19  1  0  0  0  0
 16 20  1  0  0  0  0
 17 21  1  0  0  0  0
 17 37  1  0  0  0  0
 18 22  2  0  0  0  0
 18 38  1  0  0  0  0
 19 24  2  0  0  0  0
 19 39  1  0  0  0  0
 20 25  2  0  0  0  0
 20 40  1  0  0  0  0
 21 23  2  0  0  0  0
 21 41  1  0  0  0  0
 22 23  1  0  0  0  0
 22 42  1  0  0  0  0
 23 26  1  0  0  0  0
 24 25  1  0  0  0  0
 25 43  1  0  0  0  0
M  END
> <PUBCHEM_COMPOUND_CID>
51137107

> <PUBCHEM_CONFORMER_RMSD>
0.8

> <PUBCHEM_CONFORMER_DIVERSEORDER>
1
42
20
46
16
35
49
9
44
45
22
4
39
43
3
12
52
33
38
18
32
36
37
50
48
41
21
2
40
47
19
15
34
13
5
14
17
10
28
51
6
7
8
11
23
30
27
25
29
31
26
24

> <PUBCHEM_MMFF94_PARTIAL_CHARGES>
33
1 -0.19
10 0.27
11 0.27
12 0.01
13 0.41
14 -0.14
15 -0.15
16 0.23
17 -0.15
18 -0.15
19 -0.15
2 -0.34
20 -0.15
21 -0.15
22 -0.15
23 -0.14
24 0.19
25 -0.15
26 1.16
3 -0.34
36 0.27
37 0.15
38 0.15
39 0.15
4 -0.34
40 0.15
41 0.15
42 0.15
43 0.15
5 -0.81
6 0.03
7 -0.57
8 0.18

> <PUBCHEM_EFFECTIVE_ROTOR_COUNT>
5

> <PUBCHEM_PHARMACOPHORE_FEATURES>
7
1 5 cation
1 6 donor
3 6 7 12 cation
5 5 8 9 10 11 rings
5 6 7 12 15 16 rings
6 14 17 18 21 22 23 rings
6 15 16 19 20 24 25 rings

> <PUBCHEM_HEAVY_ATOM_COUNT>
26

> <PUBCHEM_ATOM_DEF_STEREO_COUNT>
1

> <PUBCHEM_ATOM_UDEF_STEREO_COUNT>
0

> <PUBCHEM_BOND_DEF_STEREO_COUNT>
0

> <PUBCHEM_BOND_UDEF_STEREO_COUNT>
0

> <PUBCHEM_ISOTOPIC_ATOM_COUNT>
0

> <PUBCHEM_COMPONENT_COUNT>
1

> <PUBCHEM_CACTVS_TAUTO_COUNT>
2

> <PUBCHEM_CONFORMER_ID>
030C4A5300000001

> <PUBCHEM_MMFF94_ENERGY>
47.113

> <PUBCHEM_FEATURE_SELFOVERLAP>
35.63

> <PUBCHEM_SHAPE_FINGERPRINT>
10 15 18342459236249055287
10299344 5 18273213105774585383
10595046 47 18410290277066131248
106641 1 18333454266340764755
10670039 82 10375879554856584447
11315181 36 18409449177295449521
11524674 6 15913324728169248471
11638347 137 16081080464572939176
11646440 116 17167583782775635772
12166972 35 18334013900406152948
12236239 1 18202280299869157268
12516196 113 16660080001329096989
12730499 353 17968093102087491818
13533116 47 17096074793964136234
13885169 127 10231763283741737459
14123256 10 17022902345767914835
14170010 4 18114180861241902772
14251764 18 17918273160432371183
14251764 46 17385443215393702283
14849402 71 18337113487513556212
14856354 85 17775567568007134285
14933364 13 18412825785165804436
15183329 4 15841556279376197771
15419008 47 16081080493825542084
15461852 350 13912328992662489275
15716309 27 18409728456778857527
17093844 174 13542458778868864231
18006028 8 10375871879100920226
18335252 98 18409452479038792195
20157964 124 18408041815175218922
21095086 128 18410009940029212471
21150785 3 13551193285880332350
21267235 1 18411420609152590876
21315763 28 18409448068534419644
21521721 280 18334013916883707234
21792961 116 17489307434576412604
220451 1 17775559836396445782
22224240 67 16443065006335685312
23035841 295 18131349713338597711
23516275 137 17986974993180352303
23536379 177 18342173354430112012
23569943 247 17098890548311122002
249057 3 18272087223237269284
2747138 104 17313391136036286453
28498 318 12031793556757042068
335352 9 15626218035251858949
34797466 226 18272093803391041044
3545911 37 18040432192508057006
4073 2 18114747139589380210
4325135 7 18408885135349339589
4339292 15 11887372726789327757
5283156 175 17275388686445330558
5385378 56 15625955209481993447
5758199 1 17749108880850588858
59682541 35 16950567713470694024
59755656 520 18333724741316179278
6009941 240 11815891275577854885

> <PUBCHEM_SHAPE_MULTIPOLES>
491.03
25.65
1.29
1.02
0.73
0.16
-0.17
-0.03
-0.97
-0.49
0.07
0.95
-0.03
-0.42

> <PUBCHEM_SHAPE_SELFOVERLAP>
1081.477

> <PUBCHEM_SHAPE_VOLUME>
268.9

> <PUBCHEM_COORDINATE_TYPE>
2
5
10

$$$$
