11911754
  -OEChem-12032416283D

 62 65  0     1  0  0  0  0  0999 V2000
    1.1368    3.5932   -0.8846 O   0  0  0  0  0  0  0  0  0  0  0  0
    0.9454    1.6786    1.5718 O   0  0  0  0  0  0  0  0  0  0  0  0
   -3.5933    2.8934    0.7340 O   0  0  0  0  0  0  0  0  0  0  0  0
    3.2788    1.3848   -1.2207 N   0  0  0  0  0  0  0  0  0  0  0  0
   -1.7794    1.6055    0.0783 N   0  0  0  0  0  0  0  0  0  0  0  0
    4.0498   -0.4543    0.0159 N   0  0  0  0  0  0  0  0  0  0  0  0
    4.4276   -0.3146   -2.3600 N   0  0  0  0  0  0  0  0  0  0  0  0
   -6.5612   -2.5990   -0.4015 N   0  0  0  0  0  0  0  0  0  0  0  0
    1.3167    1.4815    0.1971 C   0  0  1  0  0  0  0  0  0  0  0  0
    0.4206    2.3708   -0.6428 C   0  0  1  0  0  0  0  0  0  0  0  0
    2.7069    2.0170   -0.0521 C   0  0  2  0  0  0  0  0  0  0  0  0
   -0.7762    2.6293    0.2437 C   0  0  2  0  0  0  0  0  0  0  0  0
    2.4532    3.4887   -0.3225 C   0  0  0  0  0  0  0  0  0  0  0  0
   -0.1670    2.5834    1.6337 C   0  0  0  0  0  0  0  0  0  0  0  0
    3.9384    0.1690   -1.1873 C   0  0  0  0  0  0  0  0  0  0  0  0
   -3.1233    1.8287    0.3418 C   0  0  0  0  0  0  0  0  0  0  0  0
   -4.0260    0.6647    0.1476 C   0  0  0  0  0  0  0  0  0  0  0  0
    4.8296   -2.3352    1.3239 C   0  0  0  0  0  0  0  0  0  0  0  0
    4.6983   -1.6374    0.0119 C   0  0  0  0  0  0  0  0  0  0  0  0
    5.2314   -2.2157   -1.1220 C   0  0  0  0  0  0  0  0  0  0  0  0
    5.0646   -1.5020   -2.2911 C   0  0  0  0  0  0  0  0  0  0  0  0
    6.3277   -2.5458    1.7047 C   0  0  0  0  0  0  0  0  0  0  0  0
    4.1511   -3.7396    1.2880 C   0  0  0  0  0  0  0  0  0  0  0  0
    4.1896   -1.5947    2.5447 C   0  0  0  0  0  0  0  0  0  0  0  0
   -5.1945    0.5988    0.8777 C   0  0  0  0  0  0  0  0  0  0  0  0
   -3.6675   -0.3126   -0.7578 C   0  0  0  0  0  0  0  0  0  0  0  0
   -6.0425   -0.4935    0.6945 C   0  0  0  0  0  0  0  0  0  0  0  0
   -4.5157   -1.4047   -0.9411 C   0  0  0  0  0  0  0  0  0  0  0  0
   -5.7031   -1.4952   -0.2149 C   0  0  0  0  0  0  0  0  0  0  0  0
   -6.0249   -3.8877   -0.7917 C   0  0  0  0  0  0  0  0  0  0  0  0
   -7.9919   -2.4553   -0.2191 C   0  0  0  0  0  0  0  0  0  0  0  0
    1.1862    0.4174   -0.0245 H   0  0  0  0  0  0  0  0  0  0  0  0
    0.1747    1.9359   -1.6169 H   0  0  0  0  0  0  0  0  0  0  0  0
    3.3782    1.9204    0.8090 H   0  0  0  0  0  0  0  0  0  0  0  0
   -1.2370    3.6064    0.0627 H   0  0  0  0  0  0  0  0  0  0  0  0
    3.1757    3.9468   -1.0052 H   0  0  0  0  0  0  0  0  0  0  0  0
    2.4525    4.0627    0.6107 H   0  0  0  0  0  0  0  0  0  0  0  0
   -0.8603    2.2512    2.4123 H   0  0  0  0  0  0  0  0  0  0  0  0
    0.2283    3.5642    1.9203 H   0  0  0  0  0  0  0  0  0  0  0  0
    3.1557    1.8149   -2.1303 H   0  0  0  0  0  0  0  0  0  0  0  0
   -1.4488    0.6695   -0.1316 H   0  0  0  0  0  0  0  0  0  0  0  0
    5.7514   -3.1645   -1.1248 H   0  0  0  0  0  0  0  0  0  0  0  0
    5.4498   -1.8765   -3.2335 H   0  0  0  0  0  0  0  0  0  0  0  0
    6.4258   -3.0307    2.6829 H   0  0  0  0  0  0  0  0  0  0  0  0
    6.8502   -3.1771    0.9776 H   0  0  0  0  0  0  0  0  0  0  0  0
    6.8561   -1.5862    1.7499 H   0  0  0  0  0  0  0  0  0  0  0  0
    3.0895   -3.6519    1.0285 H   0  0  0  0  0  0  0  0  0  0  0  0
    4.2198   -4.2403    2.2607 H   0  0  0  0  0  0  0  0  0  0  0  0
    4.6182   -4.4014    0.5503 H   0  0  0  0  0  0  0  0  0  0  0  0
    3.1141   -1.4456    2.3923 H   0  0  0  0  0  0  0  0  0  0  0  0
    4.6447   -0.6074    2.6864 H   0  0  0  0  0  0  0  0  0  0  0  0
    4.3204   -2.1596    3.4747 H   0  0  0  0  0  0  0  0  0  0  0  0
   -5.4692    1.3665    1.5949 H   0  0  0  0  0  0  0  0  0  0  0  0
   -2.7720   -0.2605   -1.3682 H   0  0  0  0  0  0  0  0  0  0  0  0
   -6.9532   -0.5399    1.2849 H   0  0  0  0  0  0  0  0  0  0  0  0
   -4.2318   -2.1572   -1.6714 H   0  0  0  0  0  0  0  0  0  0  0  0
   -5.8201   -3.9134   -1.8671 H   0  0  0  0  0  0  0  0  0  0  0  0
   -5.1045   -4.1220   -0.2449 H   0  0  0  0  0  0  0  0  0  0  0  0
   -6.7344   -4.6934   -0.5722 H   0  0  0  0  0  0  0  0  0  0  0  0
   -8.3608   -1.5222   -0.6597 H   0  0  0  0  0  0  0  0  0  0  0  0
   -8.5368   -3.2709   -0.7078 H   0  0  0  0  0  0  0  0  0  0  0  0
   -8.2517   -2.4775    0.8444 H   0  0  0  0  0  0  0  0  0  0  0  0
  1 10  1  0  0  0  0
  1 13  1  0  0  0  0
  2  9  1  0  0  0  0
  2 14  1  0  0  0  0
  3 16  2  0  0  0  0
  4 11  1  0  0  0  0
  4 15  1  0  0  0  0
  4 40  1  0  0  0  0
  5 12  1  0  0  0  0
  5 16  1  0  0  0  0
  5 41  1  0  0  0  0
  6 15  1  0  0  0  0
  6 19  2  0  0  0  0
  7 15  2  0  0  0  0
  7 21  1  0  0  0  0
  8 29  1  0  0  0  0
  8 30  1  0  0  0  0
  8 31  1  0  0  0  0
  9 10  1  0  0  0  0
  9 11  1  0  0  0  0
  9 32  1  0  0  0  0
 10 12  1  0  0  0  0
 10 33  1  0  0  0  0
 11 13  1  0  0  0  0
 11 34  1  0  0  0  0
 12 14  1  0  0  0  0
 12 35  1  0  0  0  0
 13 36  1  0  0  0  0
 13 37  1  0  0  0  0
 14 38  1  0  0  0  0
 14 39  1  0  0  0  0
 16 17  1  0  0  0  0
 17 25  2  0  0  0  0
 17 26  1  0  0  0  0
 18 19  1  0  0  0  0
 18 22  1  0  0  0  0
 18 23  1  0  0  0  0
 18 24  1  0  0  0  0
 19 20  1  0  0  0  0
 20 21  2  0  0  0  0
 20 42  1  0  0  0  0
 21 43  1  0  0  0  0
 22 44  1  0  0  0  0
 22 45  1  0  0  0  0
 22 46  1  0  0  0  0
 23 47  1  0  0  0  0
 23 48  1  0  0  0  0
 23 49  1  0  0  0  0
 24 50  1  0  0  0  0
 24 51  1  0  0  0  0
 24 52  1  0  0  0  0
 25 27  1  0  0  0  0
 25 53  1  0  0  0  0
 26 28  2  0  0  0  0
 26 54  1  0  0  0  0
 27 29  2  0  0  0  0
 27 55  1  0  0  0  0
 28 29  1  0  0  0  0
 28 56  1  0  0  0  0
 30 57  1  0  0  0  0
 30 58  1  0  0  0  0
 30 59  1  0  0  0  0
 31 60  1  0  0  0  0
 31 61  1  0  0  0  0
 31 62  1  0  0  0  0
M  END
> <PUBCHEM_COMPOUND_CID>
11911754

> <PUBCHEM_CONFORMER_RMSD>
1

> <PUBCHEM_CONFORMER_DIVERSEORDER>
1
24
96
29
51
21
41
101
36
14
70
65
87
59
28
48
98
77
7
39
95
66
13
93
8
78
72
99
11
100
97
62
91
64
35
18
6
68
19
69
49
43
25
92
63
33
90
27
53
22
84
50
47
71
32
61
83
46
54
16
76
57
56
31
34
89
9
73
12
37
23
81
88
79
82
52
86
58
94
45
80
4
2
42
60
17
26
67
44
15
30
75
74
85
10
20
5
3
55
38
40

> <PUBCHEM_MMFF94_PARTIAL_CHARGES>
36
1 -0.56
10 0.28
11 0.37
12 0.3
13 0.28
14 0.28
15 0.72
16 0.54
17 0.09
18 0.14
19 0.17
2 -0.56
20 -0.15
21 0.16
25 -0.15
26 -0.15
27 -0.15
28 -0.15
29 0.1
3 -0.57
30 0.37
31 0.37
4 -0.87
40 0.4
41 0.37
42 0.15
43 0.15
5 -0.73
53 0.15
54 0.15
55 0.15
56 0.15
6 -0.62
7 -0.62
8 -0.84
9 0.28

> <PUBCHEM_EFFECTIVE_ROTOR_COUNT>
8.2

> <PUBCHEM_PHARMACOPHORE_FEATURES>
13
1 1 acceptor
1 2 acceptor
1 3 acceptor
1 4 donor
1 5 donor
1 6 acceptor
1 8 cation
4 18 22 23 24 hydrophobe
4 4 6 7 15 cation
5 1 9 10 11 13 rings
5 2 9 10 12 14 rings
6 17 25 26 27 28 29 rings
6 6 7 15 19 20 21 rings

> <PUBCHEM_HEAVY_ATOM_COUNT>
31

> <PUBCHEM_ATOM_DEF_STEREO_COUNT>
4

> <PUBCHEM_ATOM_UDEF_STEREO_COUNT>
0

> <PUBCHEM_BOND_DEF_STEREO_COUNT>
0

> <PUBCHEM_BOND_UDEF_STEREO_COUNT>
0

> <PUBCHEM_ISOTOPIC_ATOM_COUNT>
0

> <PUBCHEM_COMPONENT_COUNT>
1

> <PUBCHEM_CACTVS_TAUTO_COUNT>
6

> <PUBCHEM_CONFORMER_ID>
00B5C24A00000001

> <PUBCHEM_MMFF94_ENERGY>
111.1936

> <PUBCHEM_FEATURE_SELFOVERLAP>
66.677

> <PUBCHEM_SHAPE_FINGERPRINT>
10074138 170 17056690183466349649
10258705 36 17768249012983371958
10622 236 18335981973909325321
11227150 75 16879886584038292562
11607047 403 18266726060955642408
117089 54 18271259299672482159
11796584 16 18270123387880276588
11963148 33 17908416202046505015
11973864 118 17972577043207327602
1200032 147 12247672812537726986
12047536 79 16272209695746806489
12107183 9 18270414789265075361
12342043 65 16772125631300751414
12422481 6 17275103899194241157
12661589 4 18341331205532460483
131258 38 18054779852366194535
13553644 42 18408036313560529591
13782708 43 18260264192369239167
14347332 77 18408884027875712885
15001296 14 18337107994371067131
15163728 17 9294993713673001056
15475509 35 18129940208040860129
15510800 12 18131067091389445879
16989378 47 18260548948173404107
17134984 74 18260832656554298562
17138139 8 18261681389632008402
17492 89 18343026609560557277
19304671 126 13912330083568917350
1979834 28 16702032962571578508
19841028 212 18268710683891907147
20567600 247 18334577931952081536
20626108 58 18412263900649498848
20691028 202 8718562601323729807
20775438 99 18042123318437497874
20843269 155 18338231570674099026
208703 8 18412827971188477838
21033648 29 13685754796823436361
21585481 104 16733256873183435799
21585483 132 18198049473621076943
21599406 157 16515692181989245667
21703447 108 18341890844114037216
21792938 131 18409721886233840859
21792965 302 18189067541921604492
24983565 74 17841992484394696311
25222932 49 18409167710612988916
2838139 119 11314317190726825868
3472631 163 10737548545799290233
439807 62 18333169475401674071
44062 13 18263927648674618429
463206 1 18114752516872071528
474113 269 17846211190629929991
50009960 94 18265310937175691418
5104073 3 17846786238973850609
5219985 13 7853572396672871489
59025328 239 17023472915853182724
59682541 52 15213293102008812938
6058803 2 18267606691870073121
6201460 15 17972588884205413187
636783 263 18049136042635168359
6677587 24 15792873293924332638
6697151 62 18059275640123851565
7970288 3 18265330595451826178
96874 4 18188766150528141490

> <PUBCHEM_SHAPE_MULTIPOLES>
595.45
19.32
5.14
1.83
20.75
0.03
0.05
24.42
-0.86
-0.08
0.54
-3.6
0.81
-3.38

> <PUBCHEM_SHAPE_SELFOVERLAP>
1273.663

> <PUBCHEM_SHAPE_VOLUME>
330.9

> <PUBCHEM_COORDINATE_TYPE>
2
5
10

$$$$
