45783524
  -OEChem-12032416363D

 61 66  0     1  0  0  0  0  0999 V2000
   -2.2612   -2.3648    1.5516 O   0  0  0  0  0  0  0  0  0  0  0  0
    7.6095    0.2283   -0.4293 O   0  0  0  0  0  0  0  0  0  0  0  0
   -4.2840   -0.4369   -0.8351 N   0  0  1  0  0  0  0  0  0  0  0  0
   -1.8127    2.2395    1.8655 N   0  0  0  0  0  0  0  0  0  0  0  0
   -1.4721   -1.2111   -0.1986 N   0  0  0  0  0  0  0  0  0  0  0  0
   -0.8727   -2.2976    1.7234 N   0  0  0  0  0  0  0  0  0  0  0  0
    4.8789   -0.4096   -0.2400 N   0  0  0  0  0  0  0  0  0  0  0  0
    3.2077   -1.4189    1.0977 N   0  0  0  0  0  0  0  0  0  0  0  0
   -3.9848   -1.6294   -0.0173 C   0  0  1  0  0  0  0  0  0  0  0  0
   -4.4132   -2.8215   -0.8926 C   0  0  0  0  0  0  0  0  0  0  0  0
   -5.3946   -0.8059   -1.7132 C   0  0  0  0  0  0  0  0  0  0  0  0
   -4.9958   -2.1998   -2.1539 C   0  0  0  0  0  0  0  0  0  0  0  0
   -4.5847    0.7455   -0.0382 C   0  0  0  0  0  0  0  0  0  0  0  0
   -2.5299   -1.7012    0.3968 C   0  0  0  0  0  0  0  0  0  0  0  0
   -3.3346    1.4032    0.4828 C   0  0  0  0  0  0  0  0  0  0  0  0
   -2.2565    1.9097   -0.2959 C   0  0  0  0  0  0  0  0  0  0  0  0
   -3.0326    1.6206    1.8074 C   0  0  0  0  0  0  0  0  0  0  0  0
   -1.3152    2.4286    0.5958 C   0  0  0  0  0  0  0  0  0  0  0  0
   -1.9903    1.9764   -1.6779 C   0  0  0  0  0  0  0  0  0  0  0  0
   -0.4795   -1.6022    0.6521 C   0  0  0  0  0  0  0  0  0  0  0  0
   -0.1164    3.0134    0.1727 C   0  0  0  0  0  0  0  0  0  0  0  0
   -1.1550    2.6316    3.0931 C   0  0  0  0  0  0  0  0  0  0  0  0
    0.8964   -1.2831    0.4017 C   0  0  0  0  0  0  0  0  0  0  0  0
   -0.7952    2.5586   -2.1156 C   0  0  0  0  0  0  0  0  0  0  0  0
    0.1259    3.0685   -1.2028 C   0  0  0  0  0  0  0  0  0  0  0  0
    5.3082    0.9903   -0.3301 C   0  0  0  0  0  0  0  0  0  0  0  0
    5.8965   -1.3452    0.2582 C   0  0  0  0  0  0  0  0  0  0  0  0
    3.5332   -0.7129   -0.0082 C   0  0  0  0  0  0  0  0  0  0  0  0
    6.6458    1.0731   -1.0573 C   0  0  0  0  0  0  0  0  0  0  0  0
    7.2021   -1.1379   -0.5011 C   0  0  0  0  0  0  0  0  0  0  0  0
    1.2704   -0.5587   -0.7247 C   0  0  0  0  0  0  0  0  0  0  0  0
    1.8942   -1.6864    1.2743 C   0  0  0  0  0  0  0  0  0  0  0  0
    2.6121   -0.2640   -0.9410 C   0  0  0  0  0  0  0  0  0  0  0  0
   -4.6046   -1.6442    0.8903 H   0  0  0  0  0  0  0  0  0  0  0  0
   -3.5947   -3.5065   -1.1389 H   0  0  0  0  0  0  0  0  0  0  0  0
   -5.1901   -3.3979   -0.3756 H   0  0  0  0  0  0  0  0  0  0  0  0
   -6.3488   -0.8362   -1.1720 H   0  0  0  0  0  0  0  0  0  0  0  0
   -5.4895   -0.1265   -2.5658 H   0  0  0  0  0  0  0  0  0  0  0  0
   -5.8404   -2.7739   -2.5462 H   0  0  0  0  0  0  0  0  0  0  0  0
   -4.2261   -2.1489   -2.9340 H   0  0  0  0  0  0  0  0  0  0  0  0
   -5.0841    1.4959   -0.6673 H   0  0  0  0  0  0  0  0  0  0  0  0
   -5.2824    0.5237    0.7796 H   0  0  0  0  0  0  0  0  0  0  0  0
   -3.5848    1.3839    2.7072 H   0  0  0  0  0  0  0  0  0  0  0  0
   -2.6969    1.5862   -2.4047 H   0  0  0  0  0  0  0  0  0  0  0  0
    0.6058    3.4105    0.8781 H   0  0  0  0  0  0  0  0  0  0  0  0
   -1.7811    2.3629    3.9478 H   0  0  0  0  0  0  0  0  0  0  0  0
   -1.0018    3.7136    3.0723 H   0  0  0  0  0  0  0  0  0  0  0  0
   -0.1991    2.1050    3.1547 H   0  0  0  0  0  0  0  0  0  0  0  0
   -0.5841    2.6121   -3.1803 H   0  0  0  0  0  0  0  0  0  0  0  0
    4.5795    1.6143   -0.8583 H   0  0  0  0  0  0  0  0  0  0  0  0
    5.4136    1.3874    0.6870 H   0  0  0  0  0  0  0  0  0  0  0  0
    5.5740   -2.3854    0.1300 H   0  0  0  0  0  0  0  0  0  0  0  0
    6.0553   -1.1613    1.3279 H   0  0  0  0  0  0  0  0  0  0  0  0
    1.0488    3.5145   -1.5647 H   0  0  0  0  0  0  0  0  0  0  0  0
    7.0257    2.0991   -1.0237 H   0  0  0  0  0  0  0  0  0  0  0  0
    6.5451    0.7905   -2.1122 H   0  0  0  0  0  0  0  0  0  0  0  0
    7.1043   -1.4341   -1.5526 H   0  0  0  0  0  0  0  0  0  0  0  0
    7.9937   -1.7494   -0.0567 H   0  0  0  0  0  0  0  0  0  0  0  0
    0.5403   -0.2229   -1.4555 H   0  0  0  0  0  0  0  0  0  0  0  0
    1.6863   -2.2547    2.1761 H   0  0  0  0  0  0  0  0  0  0  0  0
    2.9042    0.2873   -1.8287 H   0  0  0  0  0  0  0  0  0  0  0  0
  1  6  1  0  0  0  0
  1 14  1  0  0  0  0
  2 29  1  0  0  0  0
  2 30  1  0  0  0  0
  3  9  1  0  0  0  0
  3 11  1  0  0  0  0
  3 13  1  0  0  0  0
  4 17  1  0  0  0  0
  4 18  1  0  0  0  0
  4 22  1  0  0  0  0
  5 14  2  0  0  0  0
  5 20  1  0  0  0  0
  6 20  2  0  0  0  0
  7 26  1  0  0  0  0
  7 27  1  0  0  0  0
  7 28  1  0  0  0  0
  8 28  2  0  0  0  0
  8 32  1  0  0  0  0
  9 10  1  0  0  0  0
  9 14  1  0  0  0  0
  9 34  1  0  0  0  0
 10 12  1  0  0  0  0
 10 35  1  0  0  0  0
 10 36  1  0  0  0  0
 11 12  1  0  0  0  0
 11 37  1  0  0  0  0
 11 38  1  0  0  0  0
 12 39  1  0  0  0  0
 12 40  1  0  0  0  0
 13 15  1  0  0  0  0
 13 41  1  0  0  0  0
 13 42  1  0  0  0  0
 15 16  1  0  0  0  0
 15 17  2  0  0  0  0
 16 18  1  0  0  0  0
 16 19  2  0  0  0  0
 17 43  1  0  0  0  0
 18 21  2  0  0  0  0
 19 24  1  0  0  0  0
 19 44  1  0  0  0  0
 20 23  1  0  0  0  0
 21 25  1  0  0  0  0
 21 45  1  0  0  0  0
 22 46  1  0  0  0  0
 22 47  1  0  0  0  0
 22 48  1  0  0  0  0
 23 31  1  0  0  0  0
 23 32  2  0  0  0  0
 24 25  2  0  0  0  0
 24 49  1  0  0  0  0
 25 54  1  0  0  0  0
 26 29  1  0  0  0  0
 26 50  1  0  0  0  0
 26 51  1  0  0  0  0
 27 30  1  0  0  0  0
 27 52  1  0  0  0  0
 27 53  1  0  0  0  0
 28 33  1  0  0  0  0
 29 55  1  0  0  0  0
 29 56  1  0  0  0  0
 30 57  1  0  0  0  0
 30 58  1  0  0  0  0
 31 33  2  0  0  0  0
 31 59  1  0  0  0  0
 32 60  1  0  0  0  0
 33 61  1  0  0  0  0
M  END
> <PUBCHEM_COMPOUND_CID>
45783524

> <PUBCHEM_CONFORMER_RMSD>
1

> <PUBCHEM_CONFORMER_DIVERSEORDER>
1
72
127
51
171
22
182
180
53
172
83
36
11
71
112
143
29
185
183
149
69
67
20
74
109
38
54
95
170
173
167
129
97
27
133
101
73
23
176
108
32
58
178
34
145
157
91
152
137
114
174
148
9
150
105
142
98
160
17
165
100
2
6
102
18
177
146
188
46
175
44
76
166
153
159
10
147
33
61
35
64
7
70
107
155
12
63
80
125
144
187
168
15
84
37
110
45
13
124
62
99
81
43
79
158
21
138
82
41
111
30
113
88
156
161
122
151
28
25
55
119
103
104
106
130
56
179
117
16
121
96
5
128
89
68
184
90
14
40
132
78
181
93
120
162
92
50
65
86
3
126
47
131
4
26
163
135
140
118
85
115
57
94
48
123
136
116
66
87
52
8
77
164
186
154
24
75
42
169
139
49
59
60
19
134
141
39
31

> <PUBCHEM_MMFF94_PARTIAL_CHARGES>
38
1 -0.02
11 0.27
13 0.45
14 0.3
15 -0.18
17 -0.3
18 -0.15
19 -0.15
2 -0.56
20 0.46
21 -0.15
22 0.26
23 0.05
24 -0.15
25 -0.15
26 0.37
27 0.37
28 0.41
29 0.28
3 -0.81
30 0.28
31 -0.15
32 0.16
33 -0.15
4 0.05
43 0.15
44 0.15
45 0.15
49 0.15
5 -0.57
54 0.15
59 0.15
6 -0.41
60 0.15
61 0.15
7 -0.84
8 -0.62
9 0.45

> <PUBCHEM_EFFECTIVE_ROTOR_COUNT>
7.2

> <PUBCHEM_PHARMACOPHORE_FEATURES>
11
1 2 acceptor
1 3 cation
1 4 cation
3 5 6 20 cation
3 7 8 28 cation
5 1 5 6 14 20 rings
5 3 9 10 11 12 rings
5 4 15 16 17 18 rings
6 16 18 19 21 24 25 rings
6 2 7 26 27 29 30 rings
6 8 23 28 31 32 33 rings

> <PUBCHEM_HEAVY_ATOM_COUNT>
33

> <PUBCHEM_ATOM_DEF_STEREO_COUNT>
1

> <PUBCHEM_ATOM_UDEF_STEREO_COUNT>
0

> <PUBCHEM_BOND_DEF_STEREO_COUNT>
0

> <PUBCHEM_BOND_UDEF_STEREO_COUNT>
0

> <PUBCHEM_ISOTOPIC_ATOM_COUNT>
0

> <PUBCHEM_COMPONENT_COUNT>
1

> <PUBCHEM_CACTVS_TAUTO_COUNT>
1

> <PUBCHEM_CONFORMER_ID>
02BA99E400000001

> <PUBCHEM_MMFF94_ENERGY>
75.4235

> <PUBCHEM_FEATURE_SELFOVERLAP>
55.918

> <PUBCHEM_SHAPE_FINGERPRINT>
10454371 7 18342466937231087564
10670039 82 18334856104911487130
10871710 139 18188767233107293341
12107698 1 18202281433413625164
12156800 1 16740522415628141917
12166972 35 17749673012041706327
12788726 201 18187353303671266250
13782708 43 17346605162456821286
14068700 675 18201717400896499109
14394314 77 18188494575467099605
14931854 50 18261096492285058463
15183329 4 18261114033533037338
15297060 5 17989210300772152051
15876981 60 17988932188575661145
17492 54 18040984138676086231
17686467 74 18267297807001585090
18336668 15 18260274070424923845
19958102 18 18261959544668025726
20775438 99 17047075354293895599
21236236 1 18410578375146214782
21304303 282 15214128666617047221
21304303 64 17748825181925136773
21623110 236 18336557087485130564
23419403 2 17839134741840457649
23559900 14 18262794210756565029
27425 322 16696980530696761217
392239 28 18201450172384565824
469060 322 17676492756655108124
484989 97 17825106163435031051
497634 4 18342740672212688996
5171179 24 17988352797044430145
57527585 103 17897759584894369355

> <PUBCHEM_SHAPE_MULTIPOLES>
637.5
14.28
3.74
2.02
28.1
1.47
0.6
-6.13
-5.67
-3.53
0.35
-1.96
0.94
-2.02

> <PUBCHEM_SHAPE_SELFOVERLAP>
1403.854

> <PUBCHEM_SHAPE_VOLUME>
345.9

> <PUBCHEM_COORDINATE_TYPE>
2
5
10

$$$$
