38028898
  -OEChem-12032416143D

 73 75  0     1  0  0  0  0  0999 V2000
   -3.6907   -2.5868   -0.0676 S   0  0  0  0  0  0  0  0  0  0  0  0
    1.0174    3.4049    0.1919 O   0  0  0  0  0  0  0  0  0  0  0  0
   -3.4911   -2.6217    1.3680 O   0  0  0  0  0  0  0  0  0  0  0  0
   -2.8818   -3.4064   -0.9493 O   0  0  0  0  0  0  0  0  0  0  0  0
   -3.6316   -0.9711   -0.6200 N   0  0  0  0  0  0  0  0  0  0  0  0
    2.2340    1.4916   -0.3176 N   0  0  0  0  0  0  0  0  0  0  0  0
    4.6194   -0.1339   -0.0995 N   0  0  0  0  0  0  0  0  0  0  0  0
    6.3550   -1.3974   -1.0836 N   0  0  0  0  0  0  0  0  0  0  0  0
   -2.7706    1.4647    0.8983 C   0  0  1  0  0  0  0  0  0  0  0  0
   -3.9578    1.3967   -0.0947 C   0  0  1  0  0  0  0  0  0  0  0  0
   -1.8858    2.6830    0.5935 C   0  0  0  0  0  0  0  0  0  0  0  0
   -1.3221    2.6497   -0.8396 C   0  0  2  0  0  0  0  0  0  0  0  0
   -3.2481    1.5214    2.3528 C   0  0  0  0  0  0  0  0  0  0  0  0
   -2.3938    2.3199   -1.8587 C   0  0  0  0  0  0  0  0  0  0  0  0
   -3.5706    1.7727   -1.5057 C   0  0  0  0  0  0  0  0  0  0  0  0
   -4.5995    0.0045   -0.0950 C   0  0  0  0  0  0  0  0  0  0  0  0
   -0.1440    1.6752   -0.9473 C   0  0  0  0  0  0  0  0  0  0  0  0
   -2.1653    0.9951    3.2893 C   0  0  0  0  0  0  0  0  0  0  0  0
   -3.6423    2.9463    2.7281 C   0  0  0  0  0  0  0  0  0  0  0  0
   -2.1001    2.6758   -3.2896 C   0  0  0  0  0  0  0  0  0  0  0  0
    1.0807    2.2770   -0.3029 C   0  0  0  0  0  0  0  0  0  0  0  0
    3.4626    2.0057    0.2820 C   0  0  0  0  0  0  0  0  0  0  0  0
    2.3044    0.1479   -0.8962 C   0  0  0  0  0  0  0  0  0  0  0  0
    4.3065    0.8924    0.8989 C   0  0  0  0  0  0  0  0  0  0  0  0
    3.7308   -0.2672   -1.2567 C   0  0  0  0  0  0  0  0  0  0  0  0
   -5.3944   -2.9793   -0.3927 C   0  0  0  0  0  0  0  0  0  0  0  0
   -5.7224   -4.4047    0.0196 C   0  0  0  0  0  0  0  0  0  0  0  0
    5.7517   -0.9339    0.0339 C   0  0  0  0  0  0  0  0  0  0  0  0
   -7.1727   -4.7490   -0.2753 C   0  0  0  0  0  0  0  0  0  0  0  0
    6.1887   -1.2045    1.3206 C   0  0  0  0  0  0  0  0  0  0  0  0
    7.3179   -2.0020    1.4699 C   0  0  0  0  0  0  0  0  0  0  0  0
    7.4494   -2.1693   -0.8989 C   0  0  0  0  0  0  0  0  0  0  0  0
    7.9661   -2.4976    0.3441 C   0  0  0  0  0  0  0  0  0  0  0  0
   -2.1604    0.5616    0.7771 H   0  0  0  0  0  0  0  0  0  0  0  0
   -4.7320    2.1118    0.2107 H   0  0  0  0  0  0  0  0  0  0  0  0
   -1.0776    2.7698    1.3256 H   0  0  0  0  0  0  0  0  0  0  0  0
   -2.4691    3.6107    0.6596 H   0  0  0  0  0  0  0  0  0  0  0  0
   -0.9814    3.6693   -1.0693 H   0  0  0  0  0  0  0  0  0  0  0  0
   -4.1244    0.8808    2.4941 H   0  0  0  0  0  0  0  0  0  0  0  0
   -4.3219    1.6006   -2.2741 H   0  0  0  0  0  0  0  0  0  0  0  0
   -5.4857   -0.0021   -0.7410 H   0  0  0  0  0  0  0  0  0  0  0  0
   -4.9246   -0.2750    0.9102 H   0  0  0  0  0  0  0  0  0  0  0  0
    0.1008    1.5036   -2.0006 H   0  0  0  0  0  0  0  0  0  0  0  0
   -0.3669    0.7073   -0.4886 H   0  0  0  0  0  0  0  0  0  0  0  0
   -1.2520    1.5967    3.2505 H   0  0  0  0  0  0  0  0  0  0  0  0
   -1.9015   -0.0386    3.0408 H   0  0  0  0  0  0  0  0  0  0  0  0
   -2.5199    1.0028    4.3260 H   0  0  0  0  0  0  0  0  0  0  0  0
   -2.7821    3.6124    2.8531 H   0  0  0  0  0  0  0  0  0  0  0  0
   -4.1522    2.9341    3.6995 H   0  0  0  0  0  0  0  0  0  0  0  0
   -4.3443    3.3921    2.0172 H   0  0  0  0  0  0  0  0  0  0  0  0
   -1.8344    3.7348   -3.3713 H   0  0  0  0  0  0  0  0  0  0  0  0
   -2.9643    2.5051   -3.9406 H   0  0  0  0  0  0  0  0  0  0  0  0
   -1.2730    2.0775   -3.6820 H   0  0  0  0  0  0  0  0  0  0  0  0
   -3.4239   -0.8525   -1.6203 H   0  0  0  0  0  0  0  0  0  0  0  0
    3.2248    2.7604    1.0393 H   0  0  0  0  0  0  0  0  0  0  0  0
    4.0188    2.5098   -0.5179 H   0  0  0  0  0  0  0  0  0  0  0  0
    1.6760    0.0807   -1.7877 H   0  0  0  0  0  0  0  0  0  0  0  0
    1.8890   -0.5372   -0.1470 H   0  0  0  0  0  0  0  0  0  0  0  0
    5.2219    1.3489    1.2951 H   0  0  0  0  0  0  0  0  0  0  0  0
    3.7586    0.4354    1.7322 H   0  0  0  0  0  0  0  0  0  0  0  0
    3.7089   -1.3047   -1.6120 H   0  0  0  0  0  0  0  0  0  0  0  0
    4.1117    0.3576   -2.0737 H   0  0  0  0  0  0  0  0  0  0  0  0
   -5.5662   -2.8355   -1.4643 H   0  0  0  0  0  0  0  0  0  0  0  0
   -6.0205   -2.2830    0.1721 H   0  0  0  0  0  0  0  0  0  0  0  0
   -5.0713   -5.1100   -0.5099 H   0  0  0  0  0  0  0  0  0  0  0  0
   -5.5299   -4.5416    1.0901 H   0  0  0  0  0  0  0  0  0  0  0  0
   -7.8521   -4.0857    0.2694 H   0  0  0  0  0  0  0  0  0  0  0  0
   -7.3878   -4.6586   -1.3449 H   0  0  0  0  0  0  0  0  0  0  0  0
   -7.3874   -5.7784    0.0283 H   0  0  0  0  0  0  0  0  0  0  0  0
    5.6873   -0.8450    2.2123 H   0  0  0  0  0  0  0  0  0  0  0  0
    7.6897   -2.2411    2.4618 H   0  0  0  0  0  0  0  0  0  0  0  0
    7.9179   -2.5309   -1.8083 H   0  0  0  0  0  0  0  0  0  0  0  0
    8.8472   -3.1221    0.4367 H   0  0  0  0  0  0  0  0  0  0  0  0
  1  3  2  0  0  0  0
  1  4  2  0  0  0  0
  1  5  1  0  0  0  0
  1 26  1  0  0  0  0
  2 21  2  0  0  0  0
  5 16  1  0  0  0  0
  5 54  1  0  0  0  0
  6 21  1  0  0  0  0
  6 22  1  0  0  0  0
  6 23  1  0  0  0  0
  7 24  1  0  0  0  0
  7 25  1  0  0  0  0
  7 28  1  0  0  0  0
  8 28  1  0  0  0  0
  8 32  2  0  0  0  0
  9 10  1  0  0  0  0
  9 11  1  0  0  0  0
  9 13  1  0  0  0  0
  9 34  1  0  0  0  0
 10 15  1  0  0  0  0
 10 16  1  0  0  0  0
 10 35  1  0  0  0  0
 11 12  1  0  0  0  0
 11 36  1  0  0  0  0
 11 37  1  0  0  0  0
 12 14  1  0  0  0  0
 12 17  1  0  0  0  0
 12 38  1  0  0  0  0
 13 18  1  0  0  0  0
 13 19  1  0  0  0  0
 13 39  1  0  0  0  0
 14 15  2  0  0  0  0
 14 20  1  0  0  0  0
 15 40  1  0  0  0  0
 16 41  1  0  0  0  0
 16 42  1  0  0  0  0
 17 21  1  0  0  0  0
 17 43  1  0  0  0  0
 17 44  1  0  0  0  0
 18 45  1  0  0  0  0
 18 46  1  0  0  0  0
 18 47  1  0  0  0  0
 19 48  1  0  0  0  0
 19 49  1  0  0  0  0
 19 50  1  0  0  0  0
 20 51  1  0  0  0  0
 20 52  1  0  0  0  0
 20 53  1  0  0  0  0
 22 24  1  0  0  0  0
 22 55  1  0  0  0  0
 22 56  1  0  0  0  0
 23 25  1  0  0  0  0
 23 57  1  0  0  0  0
 23 58  1  0  0  0  0
 24 59  1  0  0  0  0
 24 60  1  0  0  0  0
 25 61  1  0  0  0  0
 25 62  1  0  0  0  0
 26 27  1  0  0  0  0
 26 63  1  0  0  0  0
 26 64  1  0  0  0  0
 27 29  1  0  0  0  0
 27 65  1  0  0  0  0
 27 66  1  0  0  0  0
 28 30  2  0  0  0  0
 29 67  1  0  0  0  0
 29 68  1  0  0  0  0
 29 69  1  0  0  0  0
 30 31  1  0  0  0  0
 30 70  1  0  0  0  0
 31 33  2  0  0  0  0
 31 71  1  0  0  0  0
 32 33  1  0  0  0  0
 32 72  1  0  0  0  0
 33 73  1  0  0  0  0
M  END
> <PUBCHEM_COMPOUND_CID>
38028898

> <PUBCHEM_CONFORMER_RMSD>
1.2

> <PUBCHEM_CONFORMER_DIVERSEORDER>
1
62
22
47
69
48
80
64
73
51
50
11
30
70
49
66
75
53
68
81
16
55
19
34
10
44
35
29
24
58
37
40
65
38
33
76
36
32
57
46
77
27
9
54
15
7
59
20
71
42
18
28
63
78
45
31
13
74
52
21
67
5
61
43
79
23
17
12
41
14
4
56
6
3
60
72
25
26
39
2
8

> <PUBCHEM_MMFF94_PARTIAL_CHARGES>
32
1 1.33
10 0.14
12 0.14
14 -0.28
15 -0.29
16 0.36
17 0.06
2 -0.57
20 0.14
21 0.57
22 0.3
23 0.3
24 0.37
25 0.37
26 0.11
28 0.41
3 -0.65
30 -0.15
31 -0.15
32 0.16
33 -0.15
4 -0.65
40 0.15
5 -0.91
54 0.42
6 -0.66
7 -0.84
70 0.15
71 0.15
72 0.15
73 0.15
8 -0.62

> <PUBCHEM_EFFECTIVE_ROTOR_COUNT>
12

> <PUBCHEM_PHARMACOPHORE_FEATURES>
11
1 2 acceptor
1 29 hydrophobe
1 3 acceptor
1 4 acceptor
1 5 donor
1 7 cation
1 8 acceptor
3 13 18 19 hydrophobe
6 6 7 22 23 24 25 rings
6 8 28 30 31 32 33 rings
6 9 10 11 12 14 15 rings

> <PUBCHEM_HEAVY_ATOM_COUNT>
33

> <PUBCHEM_ATOM_DEF_STEREO_COUNT>
3

> <PUBCHEM_ATOM_UDEF_STEREO_COUNT>
0

> <PUBCHEM_BOND_DEF_STEREO_COUNT>
0

> <PUBCHEM_BOND_UDEF_STEREO_COUNT>
0

> <PUBCHEM_ISOTOPIC_ATOM_COUNT>
0

> <PUBCHEM_COMPONENT_COUNT>
1

> <PUBCHEM_CACTVS_TAUTO_COUNT>
1

> <PUBCHEM_CONFORMER_ID>
0244466200000001

> <PUBCHEM_MMFF94_ENERGY>
77.1393

> <PUBCHEM_FEATURE_SELFOVERLAP>
55.838

> <PUBCHEM_SHAPE_FINGERPRINT>
10291535 26 10447633708610817325
10554248 39 7853273369108743184
10622 236 18265613358802544943
117089 54 18410013264703593590
13690498 29 17676487198909814364
13782708 43 18261107431983303700
13947947 140 18410579504607329171
14068700 675 18270407217005123259
14114206 34 16226038990340843069
14856354 85 18200601285205043812
14950920 106 18059860558122614952
15361156 5 17531256019448355252
15510800 12 18343301474513768407
15799311 1 18268728134047865596
15803439 3 14056991750466536763
16728300 4 18129383873064977495
17627616 140 17897435095456277074
18603816 31 18335424517425077409
19841028 212 18265614467189418059
208703 8 18336255851110787571
21033648 29 14404913435690243089
21307412 95 18260816104282947869
23569914 152 11821202926917008792
2838139 119 8430300330839544244
312425 54 17701824285199610432
392239 28 15482373318879239312
397830 11 18339626907566129664
484985 159 18337952282105157133
5104073 3 18131068234536853984
531348 171 17750509573013150628
57527293 21 18261973889283775212
58260988 114 18413393124823566325
8863177 126 18410569596502093652

> <PUBCHEM_SHAPE_MULTIPOLES>
645.44
19.78
5.71
2.35
35.18
5.39
-0.83
27.72
-1.94
-11
0.54
-2.2
-2.25
-1.15

> <PUBCHEM_SHAPE_SELFOVERLAP>
1309.328

> <PUBCHEM_SHAPE_VOLUME>
378.2

> <PUBCHEM_COORDINATE_TYPE>
2
5
10

$$$$
