11883055
  -OEChem-12032416413D

 59 62  0     1  0  0  0  0  0999 V2000
    0.3879    2.1193    0.0108 S   0  0  0  0  0  0  0  0  0  0  0  0
    4.4366    2.2930    1.1409 F   0  0  0  0  0  0  0  0  0  0  0  0
    5.7262   -1.6059   -1.2453 F   0  0  0  0  0  0  0  0  0  0  0  0
   -7.2105    0.3191   -0.7957 O   0  0  0  0  0  0  0  0  0  0  0  0
   -6.7447    2.2141    0.5959 O   0  0  0  0  0  0  0  0  0  0  0  0
    0.7647   -3.6544    1.1683 O   0  0  0  0  0  0  0  0  0  0  0  0
    0.3984   -3.0302   -0.9897 O   0  0  0  0  0  0  0  0  0  0  0  0
    3.4882   -1.3532   -0.0386 O   0  0  0  0  0  0  0  0  0  0  0  0
    0.6711   -0.4520   -0.0202 N   0  0  0  0  0  0  0  0  0  0  0  0
    2.6902    0.8643   -0.0079 N   0  0  0  0  0  0  0  0  0  0  0  0
   -3.1519   -0.7479    0.3865 C   0  0  2  0  0  0  0  0  0  0  0  0
   -3.4200    0.6079   -0.4042 C   0  0  1  0  0  0  0  0  0  0  0  0
   -4.9123    1.1142   -0.4717 C   0  0  1  0  0  0  0  0  0  0  0  0
   -1.7088   -1.2883   -0.0366 C   0  0  1  0  0  0  0  0  0  0  0  0
   -4.2097   -1.8039   -0.0270 C   0  0  0  0  0  0  0  0  0  0  0  0
   -5.8397   -0.0745   -0.8521 C   0  0  1  0  0  0  0  0  0  0  0  0
   -2.4007    1.7129   -0.0004 C   0  0  0  0  0  0  0  0  0  0  0  0
   -5.6438   -1.2979    0.0365 C   0  0  0  0  0  0  0  0  0  0  0  0
   -3.2039   -0.5679    1.9237 C   0  0  0  0  0  0  0  0  0  0  0  0
   -0.6850   -0.1828   -0.0036 C   0  0  0  0  0  0  0  0  0  0  0  0
   -5.4107    1.8124    0.8129 C   0  0  0  0  0  0  0  0  0  0  0  0
   -5.0366    2.1770   -1.6000 C   0  0  0  0  0  0  0  0  0  0  0  0
   -1.0169    1.1568   -0.0062 C   0  0  0  0  0  0  0  0  0  0  0  0
   -1.2329   -2.5183    0.7482 C   0  0  0  0  0  0  0  0  0  0  0  0
    0.0396   -3.0746    0.1775 C   0  0  0  0  0  0  0  0  0  0  0  0
    1.3323    0.6850   -0.0070 C   0  0  0  0  0  0  0  0  0  0  0  0
    3.6706   -0.1409   -0.0233 C   0  0  0  0  0  0  0  0  0  0  0  0
    5.0768    0.3419   -0.0521 C   0  0  0  0  0  0  0  0  0  0  0  0
    5.3778    1.5495    0.5420 C   0  0  0  0  0  0  0  0  0  0  0  0
    6.0337   -0.4336   -0.6720 C   0  0  0  0  0  0  0  0  0  0  0  0
    6.6968    2.0024    0.5150 C   0  0  0  0  0  0  0  0  0  0  0  0
    7.3527    0.0193   -0.6990 C   0  0  0  0  0  0  0  0  0  0  0  0
    7.6842    1.2371   -0.1056 C   0  0  0  0  0  0  0  0  0  0  0  0
   -3.1760    0.3557   -1.4509 H   0  0  0  0  0  0  0  0  0  0  0  0
   -1.7784   -1.5786   -1.0964 H   0  0  0  0  0  0  0  0  0  0  0  0
   -4.1312   -2.6961    0.6053 H   0  0  0  0  0  0  0  0  0  0  0  0
   -4.0114   -2.1388   -1.0538 H   0  0  0  0  0  0  0  0  0  0  0  0
   -5.6390   -0.3785   -1.8883 H   0  0  0  0  0  0  0  0  0  0  0  0
   -2.6232    2.1031    0.9983 H   0  0  0  0  0  0  0  0  0  0  0  0
   -2.4545    2.5514   -0.7027 H   0  0  0  0  0  0  0  0  0  0  0  0
   -6.3241   -2.0935   -0.2934 H   0  0  0  0  0  0  0  0  0  0  0  0
   -5.9428   -1.0807    1.0680 H   0  0  0  0  0  0  0  0  0  0  0  0
   -2.4433    0.1266    2.2914 H   0  0  0  0  0  0  0  0  0  0  0  0
   -4.1696   -0.2172    2.2794 H   0  0  0  0  0  0  0  0  0  0  0  0
   -3.0440   -1.5215    2.4390 H   0  0  0  0  0  0  0  0  0  0  0  0
   -4.8156    2.6928    1.0749 H   0  0  0  0  0  0  0  0  0  0  0  0
   -5.4280    1.1518    1.6751 H   0  0  0  0  0  0  0  0  0  0  0  0
   -4.5042    3.0997   -1.3460 H   0  0  0  0  0  0  0  0  0  0  0  0
   -4.6120    1.8000   -2.5379 H   0  0  0  0  0  0  0  0  0  0  0  0
   -6.0706    2.4605   -1.8190 H   0  0  0  0  0  0  0  0  0  0  0  0
   -1.0405   -2.2430    1.7920 H   0  0  0  0  0  0  0  0  0  0  0  0
   -1.9737   -3.3228    0.7299 H   0  0  0  0  0  0  0  0  0  0  0  0
   -7.4005    0.8603   -1.5796 H   0  0  0  0  0  0  0  0  0  0  0  0
   -6.7313    3.0959    0.1870 H   0  0  0  0  0  0  0  0  0  0  0  0
    2.9801    1.8382   -0.0181 H   0  0  0  0  0  0  0  0  0  0  0  0
    1.6072   -4.0291    0.8333 H   0  0  0  0  0  0  0  0  0  0  0  0
    6.9547    2.9508    0.9770 H   0  0  0  0  0  0  0  0  0  0  0  0
    8.1214   -0.5766   -1.1822 H   0  0  0  0  0  0  0  0  0  0  0  0
    8.7113    1.5897   -0.1267 H   0  0  0  0  0  0  0  0  0  0  0  0
  1 23  1  0  0  0  0
  1 26  1  0  0  0  0
  2 29  1  0  0  0  0
  3 30  1  0  0  0  0
  4 16  1  0  0  0  0
  4 53  1  0  0  0  0
  5 21  1  0  0  0  0
  5 54  1  0  0  0  0
  6 25  1  0  0  0  0
  6 56  1  0  0  0  0
  7 25  2  0  0  0  0
  8 27  2  0  0  0  0
  9 20  1  0  0  0  0
  9 26  2  0  0  0  0
 10 26  1  0  0  0  0
 10 27  1  0  0  0  0
 10 55  1  0  0  0  0
 11 12  1  0  0  0  0
 11 14  1  0  0  0  0
 11 15  1  0  0  0  0
 11 19  1  0  0  0  0
 12 13  1  0  0  0  0
 12 17  1  0  0  0  0
 12 34  1  0  0  0  0
 13 16  1  0  0  0  0
 13 21  1  0  0  0  0
 13 22  1  0  0  0  0
 14 20  1  0  0  0  0
 14 24  1  0  0  0  0
 14 35  1  0  0  0  0
 15 18  1  0  0  0  0
 15 36  1  0  0  0  0
 15 37  1  0  0  0  0
 16 18  1  0  0  0  0
 16 38  1  0  0  0  0
 17 23  1  0  0  0  0
 17 39  1  0  0  0  0
 17 40  1  0  0  0  0
 18 41  1  0  0  0  0
 18 42  1  0  0  0  0
 19 43  1  0  0  0  0
 19 44  1  0  0  0  0
 19 45  1  0  0  0  0
 20 23  2  0  0  0  0
 21 46  1  0  0  0  0
 21 47  1  0  0  0  0
 22 48  1  0  0  0  0
 22 49  1  0  0  0  0
 22 50  1  0  0  0  0
 24 25  1  0  0  0  0
 24 51  1  0  0  0  0
 24 52  1  0  0  0  0
 27 28  1  0  0  0  0
 28 29  2  0  0  0  0
 28 30  1  0  0  0  0
 29 31  1  0  0  0  0
 30 32  2  0  0  0  0
 31 33  2  0  0  0  0
 31 57  1  0  0  0  0
 32 33  1  0  0  0  0
 32 58  1  0  0  0  0
 33 59  1  0  0  0  0
M  END
> <PUBCHEM_COMPOUND_CID>
11883055

> <PUBCHEM_CONFORMER_RMSD>
1

> <PUBCHEM_CONFORMER_DIVERSEORDER>
1
4
5
6
2
3

> <PUBCHEM_MMFF94_PARTIAL_CHARGES>
33
1 -0.08
10 -0.49
14 0.18
16 0.28
17 0.18
2 -0.19
20 0.05
21 0.28
23 -0.14
24 0.06
25 0.66
26 0.44
27 0.54
28 0.09
29 0.19
3 -0.19
30 0.19
31 -0.15
32 -0.15
33 -0.15
4 -0.68
5 -0.68
53 0.4
54 0.4
55 0.37
56 0.5
57 0.15
58 0.15
59 0.15
6 -0.65
7 -0.57
8 -0.57
9 -0.57

> <PUBCHEM_EFFECTIVE_ROTOR_COUNT>
7.2

> <PUBCHEM_PHARMACOPHORE_FEATURES>
13
1 10 donor
1 4 acceptor
1 4 donor
1 5 acceptor
1 5 donor
1 6 acceptor
1 7 acceptor
1 8 acceptor
3 6 7 25 anion
5 1 9 20 23 26 rings
6 11 12 13 15 16 18 rings
6 11 12 14 17 20 23 rings
6 28 29 30 31 32 33 rings

> <PUBCHEM_HEAVY_ATOM_COUNT>
33

> <PUBCHEM_ATOM_DEF_STEREO_COUNT>
5

> <PUBCHEM_ATOM_UDEF_STEREO_COUNT>
0

> <PUBCHEM_BOND_DEF_STEREO_COUNT>
0

> <PUBCHEM_BOND_UDEF_STEREO_COUNT>
0

> <PUBCHEM_ISOTOPIC_ATOM_COUNT>
0

> <PUBCHEM_COMPONENT_COUNT>
1

> <PUBCHEM_CACTVS_TAUTO_COUNT>
3

> <PUBCHEM_CONFORMER_ID>
00B5522F00000001

> <PUBCHEM_MMFF94_ENERGY>
105.2867

> <PUBCHEM_FEATURE_SELFOVERLAP>
66.174

> <PUBCHEM_SHAPE_FINGERPRINT>
10 15 17967816029214869705
10411042 1 17760087711425882355
10835480 77 18341890848909884864
10906281 52 18261126140327900393
11007060 377 18340491169884624179
11135926 11 18337387146097161261
11315181 36 18410576210567450945
11578080 2 17097475511485071335
12107698 1 15913332407106445920
12516196 113 18273213114649668320
12838862 33 18336809975269671756
13402501 40 18413109480951642094
13811026 1 18411981385942439191
14394314 77 18340773629195628025
14790565 3 18408323306498719253
14856354 85 15791735234569006699
14933364 13 18342458153590632220
15021287 119 16877944970582632109
15183329 4 18261106365887129888
15849732 13 18259983799043708012
15927050 60 18409443717543677842
18608769 82 18336549438554545651
18681886 176 18336539520931499753
21033648 29 18341321293016960584
21236236 1 18411136957149460105
21267235 1 18337112363027611595
21279426 13 18412546479342627366
21859007 373 18114450202598678300
23559900 14 18343014532054355848
283562 15 18341334383634335801
3004659 81 18259983795171045140
335352 9 18409729590418258301
3383291 50 18188775083828106395
3633792 109 18344146977332829041
4015057 19 17631446937870513760
4017518 198 18131077056542397638
4073 2 18261958556867167546
4258327 124 17823715225306579660
4408954 64 15796554527046109443
5265222 85 18262523718349158916
5385378 56 18262805051581165555
5758199 1 18410857638225493089
59755656 215 18411139108532820126
6138700 20 18410857646303685758
7226269 152 18342460335196661505

> <PUBCHEM_SHAPE_MULTIPOLES>
629.12
19.87
3.14
1.07
18.6
1.96
-0.09
-9.55
2.72
-0.94
-0.34
-0.58
0
1.33

> <PUBCHEM_SHAPE_SELFOVERLAP>
1352.934

> <PUBCHEM_SHAPE_VOLUME>
349.3

> <PUBCHEM_COORDINATE_TYPE>
2
5
10

$$$$
