45783585
  -OEChem-12032416273D

 63 67  0     1  0  0  0  0  0999 V2000
    1.8072    1.8265    1.9698 O   0  0  0  0  0  0  0  0  0  0  0  0
   -4.7131   -0.2169   -1.3216 O   0  0  0  0  0  0  0  0  0  0  0  0
    4.3542    0.8423   -0.4900 N   0  0  1  0  0  0  0  0  0  0  0  0
    4.3531   -3.3876   -0.0754 N   0  0  0  0  0  0  0  0  0  0  0  0
    1.4062    1.1350   -0.1226 N   0  0  0  0  0  0  0  0  0  0  0  0
    0.4300    1.5813    1.8978 N   0  0  0  0  0  0  0  0  0  0  0  0
   -3.3836    0.5222    0.4306 N   0  0  0  0  0  0  0  0  0  0  0  0
    4.7106   -0.4843    0.0078 C   0  0  0  0  0  0  0  0  0  0  0  0
    3.7969    1.7253    0.5540 C   0  0  1  0  0  0  0  0  0  0  0  0
    5.5056    1.5458   -1.0552 C   0  0  0  0  0  0  0  0  0  0  0  0
    5.2701   -1.3440   -1.1286 C   0  0  0  0  0  0  0  0  0  0  0  0
    3.4991   -1.1770    0.6387 C   0  0  0  0  0  0  0  0  0  0  0  0
    4.1665    3.1495    0.0998 C   0  0  0  0  0  0  0  0  0  0  0  0
    4.9807    2.9625   -1.1725 C   0  0  0  0  0  0  0  0  0  0  0  0
    5.5568   -2.7692   -0.6485 C   0  0  0  0  0  0  0  0  0  0  0  0
    3.8434   -2.6077    1.0609 C   0  0  0  0  0  0  0  0  0  0  0  0
    2.3054    1.5392    0.7387 C   0  0  0  0  0  0  0  0  0  0  0  0
    4.6299   -4.7647    0.3323 C   0  0  0  0  0  0  0  0  0  0  0  0
   -5.7904   -0.1166   -0.3965 C   0  0  0  0  0  0  0  0  0  0  0  0
   -5.9361   -1.4327    0.3659 C   0  0  0  0  0  0  0  0  0  0  0  0
   -7.0740    0.2474   -1.1416 C   0  0  0  0  0  0  0  0  0  0  0  0
   -7.1403   -1.4090    1.3015 C   0  0  0  0  0  0  0  0  0  0  0  0
   -8.2784    0.2712   -0.2061 C   0  0  0  0  0  0  0  0  0  0  0  0
   -8.4227   -1.0431    0.5577 C   0  0  0  0  0  0  0  0  0  0  0  0
    0.2713    1.1770    0.6340 C   0  0  0  0  0  0  0  0  0  0  0  0
   -1.0066    0.8097    0.0961 C   0  0  0  0  0  0  0  0  0  0  0  0
   -3.4692    0.1238   -0.8585 C   0  0  0  0  0  0  0  0  0  0  0  0
   -1.1350    0.3948   -1.2249 C   0  0  0  0  0  0  0  0  0  0  0  0
   -2.1512    0.8556    0.8754 C   0  0  0  0  0  0  0  0  0  0  0  0
   -2.3863    0.0436   -1.7190 C   0  0  0  0  0  0  0  0  0  0  0  0
    5.4882   -0.3936    0.7806 H   0  0  0  0  0  0  0  0  0  0  0  0
    4.2947    1.5474    1.5180 H   0  0  0  0  0  0  0  0  0  0  0  0
    5.7948    1.1730   -2.0422 H   0  0  0  0  0  0  0  0  0  0  0  0
    6.3761    1.5187   -0.3876 H   0  0  0  0  0  0  0  0  0  0  0  0
    6.2093   -0.9345   -1.5174 H   0  0  0  0  0  0  0  0  0  0  0  0
    4.5607   -1.3790   -1.9665 H   0  0  0  0  0  0  0  0  0  0  0  0
    3.1674   -0.6685    1.5485 H   0  0  0  0  0  0  0  0  0  0  0  0
    2.6603   -1.2146   -0.0679 H   0  0  0  0  0  0  0  0  0  0  0  0
    3.3001    3.7942   -0.0840 H   0  0  0  0  0  0  0  0  0  0  0  0
    4.7875    3.6310    0.8651 H   0  0  0  0  0  0  0  0  0  0  0  0
    4.3283    3.0584   -2.0495 H   0  0  0  0  0  0  0  0  0  0  0  0
    5.7824    3.7013   -1.2626 H   0  0  0  0  0  0  0  0  0  0  0  0
    6.3753   -2.7543    0.0834 H   0  0  0  0  0  0  0  0  0  0  0  0
    5.9004   -3.3562   -1.5091 H   0  0  0  0  0  0  0  0  0  0  0  0
    2.9324   -3.0766    1.4527 H   0  0  0  0  0  0  0  0  0  0  0  0
    4.5757   -2.5852    1.8790 H   0  0  0  0  0  0  0  0  0  0  0  0
    4.9619   -5.3606   -0.5252 H   0  0  0  0  0  0  0  0  0  0  0  0
    5.4004   -4.8197    1.1098 H   0  0  0  0  0  0  0  0  0  0  0  0
    3.7208   -5.2435    0.7129 H   0  0  0  0  0  0  0  0  0  0  0  0
   -5.6345    0.7032    0.3183 H   0  0  0  0  0  0  0  0  0  0  0  0
   -5.0284   -1.6478    0.9415 H   0  0  0  0  0  0  0  0  0  0  0  0
   -6.0361   -2.2610   -0.3478 H   0  0  0  0  0  0  0  0  0  0  0  0
   -6.9566    1.2225   -1.6296 H   0  0  0  0  0  0  0  0  0  0  0  0
   -7.2455   -0.4718   -1.9530 H   0  0  0  0  0  0  0  0  0  0  0  0
   -6.9643   -0.6826    2.1045 H   0  0  0  0  0  0  0  0  0  0  0  0
   -7.2575   -2.3891    1.7773 H   0  0  0  0  0  0  0  0  0  0  0  0
   -9.1898    0.4642   -0.7830 H   0  0  0  0  0  0  0  0  0  0  0  0
   -8.1709    1.0976    0.5072 H   0  0  0  0  0  0  0  0  0  0  0  0
   -9.2525   -0.9666    1.2693 H   0  0  0  0  0  0  0  0  0  0  0  0
   -8.6772   -1.8460   -0.1451 H   0  0  0  0  0  0  0  0  0  0  0  0
   -0.2782    0.3351   -1.8911 H   0  0  0  0  0  0  0  0  0  0  0  0
   -2.1370    1.1677    1.9155 H   0  0  0  0  0  0  0  0  0  0  0  0
   -2.5036   -0.2821   -2.7468 H   0  0  0  0  0  0  0  0  0  0  0  0
  1  6  1  0  0  0  0
  1 17  1  0  0  0  0
  2 19  1  0  0  0  0
  2 27  1  0  0  0  0
  3  8  1  0  0  0  0
  3  9  1  0  0  0  0
  3 10  1  0  0  0  0
  4 15  1  0  0  0  0
  4 16  1  0  0  0  0
  4 18  1  0  0  0  0
  5 17  2  0  0  0  0
  5 25  1  0  0  0  0
  6 25  2  0  0  0  0
  7 27  2  0  0  0  0
  7 29  1  0  0  0  0
  8 11  1  0  0  0  0
  8 12  1  0  0  0  0
  8 31  1  0  0  0  0
  9 13  1  0  0  0  0
  9 17  1  0  0  0  0
  9 32  1  0  0  0  0
 10 14  1  0  0  0  0
 10 33  1  0  0  0  0
 10 34  1  0  0  0  0
 11 15  1  0  0  0  0
 11 35  1  0  0  0  0
 11 36  1  0  0  0  0
 12 16  1  0  0  0  0
 12 37  1  0  0  0  0
 12 38  1  0  0  0  0
 13 14  1  0  0  0  0
 13 39  1  0  0  0  0
 13 40  1  0  0  0  0
 14 41  1  0  0  0  0
 14 42  1  0  0  0  0
 15 43  1  0  0  0  0
 15 44  1  0  0  0  0
 16 45  1  0  0  0  0
 16 46  1  0  0  0  0
 18 47  1  0  0  0  0
 18 48  1  0  0  0  0
 18 49  1  0  0  0  0
 19 20  1  0  0  0  0
 19 21  1  0  0  0  0
 19 50  1  0  0  0  0
 20 22  1  0  0  0  0
 20 51  1  0  0  0  0
 20 52  1  0  0  0  0
 21 23  1  0  0  0  0
 21 53  1  0  0  0  0
 21 54  1  0  0  0  0
 22 24  1  0  0  0  0
 22 55  1  0  0  0  0
 22 56  1  0  0  0  0
 23 24  1  0  0  0  0
 23 57  1  0  0  0  0
 23 58  1  0  0  0  0
 24 59  1  0  0  0  0
 24 60  1  0  0  0  0
 25 26  1  0  0  0  0
 26 28  1  0  0  0  0
 26 29  2  0  0  0  0
 27 30  1  0  0  0  0
 28 30  2  0  0  0  0
 28 61  1  0  0  0  0
 29 62  1  0  0  0  0
 30 63  1  0  0  0  0
M  END
> <PUBCHEM_COMPOUND_CID>
45783585

> <PUBCHEM_CONFORMER_RMSD>
1.2

> <PUBCHEM_CONFORMER_DIVERSEORDER>
1
8
63
60
65
69
37
62
64
79
39
53
35
17
68
25
15
74
57
43
16
6
31
41
52
54
50
61
83
36
40
5
44
71
13
4
58
73
2
46
26
28
75
67
45
29
51
18
56
20
7
3
47
72
22
82
32
76
34
24
66
59
48
42
27
19
14
55
9
11
12
23
30
81
49
70
33
21
77
84
38
78
10
80

> <PUBCHEM_MMFF94_PARTIAL_CHARGES>
24
1 -0.02
10 0.27
15 0.27
16 0.27
17 0.3
18 0.27
19 0.28
2 -0.36
25 0.46
26 0.05
27 0.39
28 -0.15
29 0.16
3 -0.81
30 -0.15
4 -0.81
5 -0.57
6 -0.41
61 0.15
62 0.15
63 0.15
7 -0.62
8 0.27
9 0.45

> <PUBCHEM_EFFECTIVE_ROTOR_COUNT>
8.4

> <PUBCHEM_PHARMACOPHORE_FEATURES>
8
1 3 cation
1 4 cation
3 5 6 25 cation
5 1 5 6 17 25 rings
5 3 9 10 13 14 rings
6 19 20 21 22 23 24 rings
6 4 8 11 12 15 16 rings
6 7 26 27 28 29 30 rings

> <PUBCHEM_HEAVY_ATOM_COUNT>
30

> <PUBCHEM_ATOM_DEF_STEREO_COUNT>
1

> <PUBCHEM_ATOM_UDEF_STEREO_COUNT>
0

> <PUBCHEM_BOND_DEF_STEREO_COUNT>
0

> <PUBCHEM_BOND_UDEF_STEREO_COUNT>
0

> <PUBCHEM_ISOTOPIC_ATOM_COUNT>
0

> <PUBCHEM_COMPONENT_COUNT>
1

> <PUBCHEM_CACTVS_TAUTO_COUNT>
1

> <PUBCHEM_CONFORMER_ID>
02BA9A2100000001

> <PUBCHEM_MMFF94_ENERGY>
49.2853

> <PUBCHEM_FEATURE_SELFOVERLAP>
40.6

> <PUBCHEM_SHAPE_FINGERPRINT>
10258705 36 18261122880960667075
10319688 140 18410011014393704074
10319926 262 14692571057221124519
10622 236 18126001564538533642
10673678 19 17972328579454540636
11103572 155 18410014373353853355
11181472 205 18411706457266456013
11409948 35 18338232658129331199
117089 54 17912371918302802598
11828532 37 15791741827475940960
12730499 353 18261391200024261584
13533116 47 18342173375398611329
13617811 41 15936410031303768087
13782708 43 18335697218210889319
13955234 65 18270672182090813656
14114211 68 18263096538717370358
14118638 360 18343868813844962536
14344974 204 17401758628771097722
14675020 138 18199173157535258848
15183329 4 17275108357940356637
15301273 46 18040992948134065077
15352257 5 18333450971895705179
15537594 2 18059289962947415332
17134984 74 18333734602977659866
18335252 98 18187931733077075929
19319366 153 18270958068220041476
208703 8 18198623221037656678
21304303 94 18335137601115225338
21344244 181 18114185228712258819
21344244 246 18336271151044591382
21641784 216 14779540141781363943
22033318 11 17845396387577886657
220451 1 18129942394674696061
2303208 19 18113335315266803303
23522609 53 17915205535966397865
23559900 14 18336261336569410361
24771750 20 17100043167025318885
25269216 80 15792596182523579235
2838139 119 10087655775642621507
3004659 81 18201719531585270060
3014965 18 18342170055890097093
3411729 13 15768348678555735280
345986 75 17632294536728405200
34797466 226 17385724733299344605
4073 2 18195806490857252203
4093350 32 18041562558669977700
4098825 35 18334012761970592685
4144715 1 18113901585483860093
4149490 64 18334009523770596954
437795 51 18334860532558922371
439807 62 18337674118178628727
4435113 14 18188503461886570483
46194498 28 18040710364591899972
513532 50 17167577185969203572
54039377 194 18130231446185213926
70251023 43 18336264527656401280
9831232 110 18261105219379197315

> <PUBCHEM_SHAPE_MULTIPOLES>
580.74
22.31
3.79
1.44
43.2
3.69
0.08
8.93
-2.51
-11.15
0.42
0.25
-0.36
0.46

> <PUBCHEM_SHAPE_SELFOVERLAP>
1236.787

> <PUBCHEM_SHAPE_VOLUME>
322.4

> <PUBCHEM_COORDINATE_TYPE>
2
5
10

$$$$
