11867161
  -OEChem-12032416393D

 58 61  0     1  0  0  0  0  0999 V2000
   -3.1565   -2.3662    0.5202 S   0  0  0  0  0  0  0  0  0  0  0  0
   -3.3327    0.4721   -0.8297 O   0  0  0  0  0  0  0  0  0  0  0  0
    1.8028    0.7121   -2.3402 O   0  0  0  0  0  0  0  0  0  0  0  0
    3.0213   -0.8597   -0.7797 O   0  0  0  0  0  0  0  0  0  0  0  0
   -2.2036   -1.9640   -0.4966 O   0  0  0  0  0  0  0  0  0  0  0  0
   -2.9320   -3.5450    1.3344 O   0  0  0  0  0  0  0  0  0  0  0  0
    1.3328    2.3513   -0.7617 N   0  0  0  0  0  0  0  0  0  0  0  0
   -1.7183    1.9059    0.0803 N   0  0  0  0  0  0  0  0  0  0  0  0
   -3.5121   -1.0404    1.5319 N   0  0  0  0  0  0  0  0  0  0  0  0
   -0.6369    3.8103   -1.2430 C   0  0  1  0  0  0  0  0  0  0  0  0
    0.0412    3.4045    1.0861 C   0  0  2  0  0  0  0  0  0  0  0  0
   -0.4651    4.4724    0.1188 C   0  0  0  0  0  0  0  0  0  0  0  0
    0.7038    3.2415   -1.7393 C   0  0  0  0  0  0  0  0  0  0  0  0
   -1.7178    2.7283   -1.1360 C   0  0  0  0  0  0  0  0  0  0  0  0
    1.4097    2.8810    0.6079 C   0  0  0  0  0  0  0  0  0  0  0  0
   -0.9414    2.2532    1.1938 C   0  0  0  0  0  0  0  0  0  0  0  0
   -1.0425    1.5552    2.3398 C   0  0  0  0  0  0  0  0  0  0  0  0
   -2.6137    0.8160    0.1077 C   0  0  0  0  0  0  0  0  0  0  0  0
    1.8783    1.1392   -1.1851 C   0  0  0  0  0  0  0  0  0  0  0  0
   -2.6634    0.0713    1.3909 C   0  0  0  0  0  0  0  0  0  0  0  0
   -1.9288    0.4278    2.4450 C   0  0  0  0  0  0  0  0  0  0  0  0
    2.5922    0.3182   -0.1411 C   0  0  0  0  0  0  0  0  0  0  0  0
   -4.7295   -2.5598   -0.2805 C   0  0  0  0  0  0  0  0  0  0  0  0
   -4.7072   -3.7102   -1.2734 C   0  0  0  0  0  0  0  0  0  0  0  0
    4.1393   -1.4832   -0.2719 C   0  0  0  0  0  0  0  0  0  0  0  0
   -6.0464   -3.8655   -1.9745 C   0  0  0  0  0  0  0  0  0  0  0  0
    4.4226   -1.3777    1.0817 C   0  0  0  0  0  0  0  0  0  0  0  0
    4.9622   -2.2054   -1.1232 C   0  0  0  0  0  0  0  0  0  0  0  0
    5.5554   -2.0087    1.5958 C   0  0  0  0  0  0  0  0  0  0  0  0
    6.0949   -2.8364   -0.6090 C   0  0  0  0  0  0  0  0  0  0  0  0
    6.3914   -2.7381    0.7505 C   0  0  0  0  0  0  0  0  0  0  0  0
   -0.9701    4.5567   -1.9748 H   0  0  0  0  0  0  0  0  0  0  0  0
    0.1740    3.8710    2.0710 H   0  0  0  0  0  0  0  0  0  0  0  0
    0.2497    5.3018    0.0541 H   0  0  0  0  0  0  0  0  0  0  0  0
   -1.4164    4.8941    0.4668 H   0  0  0  0  0  0  0  0  0  0  0  0
    1.4110    4.0614   -1.9159 H   0  0  0  0  0  0  0  0  0  0  0  0
    0.5652    2.7291   -2.6973 H   0  0  0  0  0  0  0  0  0  0  0  0
   -2.7033    3.2129   -1.1646 H   0  0  0  0  0  0  0  0  0  0  0  0
   -1.6848    2.0628   -2.0080 H   0  0  0  0  0  0  0  0  0  0  0  0
    1.7933    2.1376    1.3102 H   0  0  0  0  0  0  0  0  0  0  0  0
    2.1387    3.7007    0.5873 H   0  0  0  0  0  0  0  0  0  0  0  0
   -0.4423    1.8011    3.2096 H   0  0  0  0  0  0  0  0  0  0  0  0
   -1.9573   -0.1054    3.3892 H   0  0  0  0  0  0  0  0  0  0  0  0
    3.4316    0.9177    0.2317 H   0  0  0  0  0  0  0  0  0  0  0  0
    1.8910    0.0594    0.6587 H   0  0  0  0  0  0  0  0  0  0  0  0
   -3.7247   -1.2965    2.5057 H   0  0  0  0  0  0  0  0  0  0  0  0
   -5.4745   -2.7416    0.5011 H   0  0  0  0  0  0  0  0  0  0  0  0
   -4.9667   -1.6205   -0.7881 H   0  0  0  0  0  0  0  0  0  0  0  0
   -4.4579   -4.6464   -0.7606 H   0  0  0  0  0  0  0  0  0  0  0  0
   -3.9263   -3.5454   -2.0248 H   0  0  0  0  0  0  0  0  0  0  0  0
   -6.3061   -2.9585   -2.5299 H   0  0  0  0  0  0  0  0  0  0  0  0
   -6.8452   -4.0682   -1.2540 H   0  0  0  0  0  0  0  0  0  0  0  0
   -6.0090   -4.6986   -2.6833 H   0  0  0  0  0  0  0  0  0  0  0  0
    3.7830   -0.8398    1.7743 H   0  0  0  0  0  0  0  0  0  0  0  0
    4.7337   -2.2833   -2.1821 H   0  0  0  0  0  0  0  0  0  0  0  0
    5.7837   -1.9372    2.6553 H   0  0  0  0  0  0  0  0  0  0  0  0
    6.7458   -3.4047   -1.2670 H   0  0  0  0  0  0  0  0  0  0  0  0
    7.2726   -3.2307    1.1511 H   0  0  0  0  0  0  0  0  0  0  0  0
  1  5  2  0  0  0  0
  1  6  2  0  0  0  0
  1  9  1  0  0  0  0
  1 23  1  0  0  0  0
  2 18  2  0  0  0  0
  3 19  2  0  0  0  0
  4 22  1  0  0  0  0
  4 25  1  0  0  0  0
  7 13  1  0  0  0  0
  7 15  1  0  0  0  0
  7 19  1  0  0  0  0
  8 14  1  0  0  0  0
  8 16  1  0  0  0  0
  8 18  1  0  0  0  0
  9 20  1  0  0  0  0
  9 46  1  0  0  0  0
 10 12  1  0  0  0  0
 10 13  1  0  0  0  0
 10 14  1  0  0  0  0
 10 32  1  0  0  0  0
 11 12  1  0  0  0  0
 11 15  1  0  0  0  0
 11 16  1  0  0  0  0
 11 33  1  0  0  0  0
 12 34  1  0  0  0  0
 12 35  1  0  0  0  0
 13 36  1  0  0  0  0
 13 37  1  0  0  0  0
 14 38  1  0  0  0  0
 14 39  1  0  0  0  0
 15 40  1  0  0  0  0
 15 41  1  0  0  0  0
 16 17  2  0  0  0  0
 17 21  1  0  0  0  0
 17 42  1  0  0  0  0
 18 20  1  0  0  0  0
 19 22  1  0  0  0  0
 20 21  2  0  0  0  0
 21 43  1  0  0  0  0
 22 44  1  0  0  0  0
 22 45  1  0  0  0  0
 23 24  1  0  0  0  0
 23 47  1  0  0  0  0
 23 48  1  0  0  0  0
 24 26  1  0  0  0  0
 24 49  1  0  0  0  0
 24 50  1  0  0  0  0
 25 27  2  0  0  0  0
 25 28  1  0  0  0  0
 26 51  1  0  0  0  0
 26 52  1  0  0  0  0
 26 53  1  0  0  0  0
 27 29  1  0  0  0  0
 27 54  1  0  0  0  0
 28 30  2  0  0  0  0
 28 55  1  0  0  0  0
 29 31  2  0  0  0  0
 29 56  1  0  0  0  0
 30 31  1  0  0  0  0
 30 57  1  0  0  0  0
 31 58  1  0  0  0  0
M  END
> <PUBCHEM_COMPOUND_CID>
11867161

> <PUBCHEM_CONFORMER_RMSD>
1

> <PUBCHEM_CONFORMER_DIVERSEORDER>
1
200
126
99
67
51
203
54
84
4
57
62
65
41
64
137
2
174
86
109
132
32
40
136
95
7
195
170
130
194
92
48
68
21
83
5
93
63
8
42
121
184
49
66
148
44
36
181
80
124
133
90
30
106
75
147
129
74
143
24
46
169
47
10
168
94
135
60
13
76
202
17
110
157
82
131
149
100
155
61
128
144
71
198
43
18
103
111
165
187
188
52
182
79
175
185
146
26
114
180
193
3
35
161
78
139
9
16
164
159
191
152
72
105
55
117
11
120
134
97
104
56
20
177
183
199
116
89
91
166
201
145
29
150
59
37
34
87
119
81
173
19
186
167
197
113
12
25
96
107
127
118
196
160
102
31
33
6
23
162
39
45
141
85
70
50
163
38
176
156
138
142
73
158
123
122
140
171
154
101
190
88
189
77
98
69
178
179
172
115
58
27
112
14
53
192
153
22
151
125
15
28
108

> <PUBCHEM_MMFF94_PARTIAL_CHARGES>
35
1 1.33
11 0.14
13 0.3
14 0.3
15 0.3
16 -0.03
17 -0.15
18 0.62
19 0.57
2 -0.57
20 0.21
21 -0.15
22 0.34
23 0.11
25 0.08
27 -0.15
28 -0.15
29 -0.15
3 -0.57
30 -0.15
31 -0.15
4 -0.36
42 0.15
43 0.15
46 0.42
5 -0.65
54 0.15
55 0.15
56 0.15
57 0.15
58 0.15
6 -0.65
7 -0.66
8 -0.47
9 -0.75

> <PUBCHEM_EFFECTIVE_ROTOR_COUNT>
9

> <PUBCHEM_PHARMACOPHORE_FEATURES>
11
1 2 acceptor
1 26 hydrophobe
1 3 acceptor
1 4 acceptor
1 5 acceptor
1 6 acceptor
1 9 donor
6 25 27 28 29 30 31 rings
6 7 10 11 12 13 15 rings
6 8 10 11 12 14 16 rings
6 8 16 17 18 20 21 rings

> <PUBCHEM_HEAVY_ATOM_COUNT>
31

> <PUBCHEM_ATOM_DEF_STEREO_COUNT>
2

> <PUBCHEM_ATOM_UDEF_STEREO_COUNT>
0

> <PUBCHEM_BOND_DEF_STEREO_COUNT>
0

> <PUBCHEM_BOND_UDEF_STEREO_COUNT>
0

> <PUBCHEM_ISOTOPIC_ATOM_COUNT>
0

> <PUBCHEM_COMPONENT_COUNT>
1

> <PUBCHEM_CACTVS_TAUTO_COUNT>
1

> <PUBCHEM_CONFORMER_ID>
00B5141900000001

> <PUBCHEM_MMFF94_ENERGY>
78.5439

> <PUBCHEM_FEATURE_SELFOVERLAP>
57.428

> <PUBCHEM_SHAPE_FINGERPRINT>
10319688 77 18335699455477445900
10483366 6 18117264871230612213
10622 236 18340774844243604227
11069576 57 17981887746082303343
11135609 149 18053073389372336751
11227150 75 17629173152009269983
11552529 35 18195812860800258504
11720765 8 18195795487525904677
12523318 42 18119523246512393016
12655364 74 13231470246836692671
12977781 61 18196341875531921273
14020679 6 17412741705753666240
14068700 675 18408879616411355230
14114206 34 17167861924514527688
14659021 117 18187641376034053464
14674994 50 18265333911018872797
14844126 61 18117846495132046360
17324776 126 18339067268284823166
19032999 76 18410005512413789794
19315092 285 17558836332422729987
19611394 137 18269542859775167738
20775438 99 17688571080997533931
20775530 9 18266198268659726926
3027735 51 17977662009517277397
3383291 50 18124314900690276025
345986 75 17486794110357779459
4017518 198 17474395677439095662
44880168 125 17983878699890586150
463206 1 18261122888705660347
484985 159 18043805377806929302
5223283 242 18189329238669199975
613672 6 18114460175438425554

> <PUBCHEM_SHAPE_MULTIPOLES>
597.53
12.25
6.56
2.11
12.71
1.17
0.33
-23.6
-1.27
-4.55
-1.89
-0.84
0.19
-2.24

> <PUBCHEM_SHAPE_SELFOVERLAP>
1265.011

> <PUBCHEM_SHAPE_VOLUME>
333.1

> <PUBCHEM_COORDINATE_TYPE>
2
5
10

$$$$
