75368456
  -OEChem-12032416383D

 53 56  0     1  0  0  0  0  0999 V2000
   -5.4810    3.0318    1.6077 F   0  0  0  0  0  0  0  0  0  0  0  0
   -7.2383    1.9987    0.8673 F   0  0  0  0  0  0  0  0  0  0  0  0
   -6.1232    3.3219   -0.4493 F   0  0  0  0  0  0  0  0  0  0  0  0
    3.2377   -3.1180    0.8602 O   0  0  0  0  0  0  0  0  0  0  0  0
   -3.2513   -2.9601   -1.7242 O   0  0  0  0  0  0  0  0  0  0  0  0
    6.6243    2.5369   -1.7297 O   0  0  0  0  0  0  0  0  0  0  0  0
    1.0418   -2.3820    0.4651 N   0  0  0  0  0  0  0  0  0  0  0  0
    2.4641   -0.9848    1.5016 N   0  0  0  0  0  0  0  0  0  0  0  0
   -1.2954   -1.9285   -0.9686 N   0  0  0  0  0  0  0  0  0  0  0  0
    0.2303   -1.2302    0.8208 C   0  0  1  0  0  0  0  0  0  0  0  0
    1.2478   -0.2107    1.3256 C   0  0  0  0  0  0  0  0  0  0  0  0
   -0.5905   -0.7728   -0.3807 C   0  0  0  0  0  0  0  0  0  0  0  0
    0.4317   -3.5166   -0.2064 C   0  0  0  0  0  0  0  0  0  0  0  0
   -0.4196   -3.0347   -1.3798 C   0  0  0  0  0  0  0  0  0  0  0  0
    2.3575   -2.2708    0.9357 C   0  0  0  0  0  0  0  0  0  0  0  0
    3.6609   -0.4105    2.0751 C   0  0  0  0  0  0  0  0  0  0  0  0
   -2.6702   -2.0144   -1.1941 C   0  0  0  0  0  0  0  0  0  0  0  0
    4.4485    0.3721    1.0645 C   0  0  0  0  0  0  0  0  0  0  0  0
   -3.5139   -0.8944   -0.7574 C   0  0  0  0  0  0  0  0  0  0  0  0
    5.2059   -0.2947    0.1014 C   0  0  0  0  0  0  0  0  0  0  0  0
    4.4225    1.7666    1.0886 C   0  0  0  0  0  0  0  0  0  0  0  0
   -3.7712    0.1659   -1.6264 C   0  0  0  0  0  0  0  0  0  0  0  0
   -4.0576   -0.8910    0.5272 C   0  0  0  0  0  0  0  0  0  0  0  0
    5.9372    0.4327   -0.8374 C   0  0  0  0  0  0  0  0  0  0  0  0
    5.1540    2.4941    0.1499 C   0  0  0  0  0  0  0  0  0  0  0  0
    5.9114    1.8272   -0.8131 C   0  0  0  0  0  0  0  0  0  0  0  0
   -4.5718    1.2297   -1.2108 C   0  0  0  0  0  0  0  0  0  0  0  0
   -4.8582    0.1727    0.9429 C   0  0  0  0  0  0  0  0  0  0  0  0
   -5.1153    1.2332    0.0739 C   0  0  0  0  0  0  0  0  0  0  0  0
   -5.9715    2.3709    0.5178 C   0  0  0  0  0  0  0  0  0  0  0  0
    6.5529    3.9597   -1.6474 C   0  0  0  0  0  0  0  0  0  0  0  0
   -0.4309   -1.5495    1.6365 H   0  0  0  0  0  0  0  0  0  0  0  0
    1.4426    0.5851    0.5993 H   0  0  0  0  0  0  0  0  0  0  0  0
    0.9446    0.2318    2.2792 H   0  0  0  0  0  0  0  0  0  0  0  0
   -1.2768    0.0228   -0.0839 H   0  0  0  0  0  0  0  0  0  0  0  0
    0.0561   -0.3698   -1.1702 H   0  0  0  0  0  0  0  0  0  0  0  0
   -0.1951   -4.0249    0.5351 H   0  0  0  0  0  0  0  0  0  0  0  0
    1.2070   -4.2151   -0.5355 H   0  0  0  0  0  0  0  0  0  0  0  0
    0.2218   -2.6502   -2.1819 H   0  0  0  0  0  0  0  0  0  0  0  0
   -1.0011   -3.8664   -1.7892 H   0  0  0  0  0  0  0  0  0  0  0  0
    4.2888   -1.2229    2.4608 H   0  0  0  0  0  0  0  0  0  0  0  0
    3.3752    0.2065    2.9347 H   0  0  0  0  0  0  0  0  0  0  0  0
    5.2418   -1.3799    0.0730 H   0  0  0  0  0  0  0  0  0  0  0  0
    3.8344    2.2975    1.8326 H   0  0  0  0  0  0  0  0  0  0  0  0
   -3.3520    0.1731   -2.6292 H   0  0  0  0  0  0  0  0  0  0  0  0
   -3.8623   -1.7118    1.2125 H   0  0  0  0  0  0  0  0  0  0  0  0
    6.5263   -0.0922   -1.5844 H   0  0  0  0  0  0  0  0  0  0  0  0
    5.0886    3.5741    0.2254 H   0  0  0  0  0  0  0  0  0  0  0  0
   -4.7596    2.0458   -1.9029 H   0  0  0  0  0  0  0  0  0  0  0  0
   -5.2769    0.1668    1.9457 H   0  0  0  0  0  0  0  0  0  0  0  0
    7.1794    4.3617   -2.4505 H   0  0  0  0  0  0  0  0  0  0  0  0
    6.9673    4.3295   -0.7033 H   0  0  0  0  0  0  0  0  0  0  0  0
    5.5347    4.3224   -1.8244 H   0  0  0  0  0  0  0  0  0  0  0  0
  1 30  1  0  0  0  0
  2 30  1  0  0  0  0
  3 30  1  0  0  0  0
  4 15  2  0  0  0  0
  5 17  2  0  0  0  0
  6 26  1  0  0  0  0
  6 31  1  0  0  0  0
  7 10  1  0  0  0  0
  7 13  1  0  0  0  0
  7 15  1  0  0  0  0
  8 11  1  0  0  0  0
  8 15  1  0  0  0  0
  8 16  1  0  0  0  0
  9 12  1  0  0  0  0
  9 14  1  0  0  0  0
  9 17  1  0  0  0  0
 10 11  1  0  0  0  0
 10 12  1  0  0  0  0
 10 32  1  0  0  0  0
 11 33  1  0  0  0  0
 11 34  1  0  0  0  0
 12 35  1  0  0  0  0
 12 36  1  0  0  0  0
 13 14  1  0  0  0  0
 13 37  1  0  0  0  0
 13 38  1  0  0  0  0
 14 39  1  0  0  0  0
 14 40  1  0  0  0  0
 16 18  1  0  0  0  0
 16 41  1  0  0  0  0
 16 42  1  0  0  0  0
 17 19  1  0  0  0  0
 18 20  2  0  0  0  0
 18 21  1  0  0  0  0
 19 22  2  0  0  0  0
 19 23  1  0  0  0  0
 20 24  1  0  0  0  0
 20 43  1  0  0  0  0
 21 25  2  0  0  0  0
 21 44  1  0  0  0  0
 22 27  1  0  0  0  0
 22 45  1  0  0  0  0
 23 28  2  0  0  0  0
 23 46  1  0  0  0  0
 24 26  2  0  0  0  0
 24 47  1  0  0  0  0
 25 26  1  0  0  0  0
 25 48  1  0  0  0  0
 27 29  2  0  0  0  0
 27 49  1  0  0  0  0
 28 29  1  0  0  0  0
 28 50  1  0  0  0  0
 29 30  1  0  0  0  0
 31 51  1  0  0  0  0
 31 52  1  0  0  0  0
 31 53  1  0  0  0  0
M  END
> <PUBCHEM_COMPOUND_CID>
75368456

> <PUBCHEM_CONFORMER_RMSD>
1

> <PUBCHEM_CONFORMER_DIVERSEORDER>
1
34
36
29
41
18
19
14
35
16
33
40
24
3
21
25
8
9
43
20
10
38
31
27
12
22
5
23
11
26
32
7
13
4
28
15
42
37
30
17
2
39
6

> <PUBCHEM_MMFF94_PARTIAL_CHARGES>
39
1 -0.34
10 0.3
11 0.3
12 0.3
13 0.3
14 0.3
15 0.69
16 0.44
17 0.54
18 -0.14
19 0.09
2 -0.34
20 -0.15
21 -0.15
22 -0.15
23 -0.15
24 -0.15
25 -0.15
26 0.08
27 -0.15
28 -0.15
29 -0.14
3 -0.34
30 1.16
31 0.28
4 -0.57
43 0.15
44 0.15
45 0.15
46 0.15
47 0.15
48 0.15
49 0.15
5 -0.57
50 0.15
6 -0.36
7 -0.66
8 -0.66
9 -0.66

> <PUBCHEM_EFFECTIVE_ROTOR_COUNT>
7.2

> <PUBCHEM_PHARMACOPHORE_FEATURES>
7
1 4 acceptor
1 5 acceptor
1 6 acceptor
5 7 8 10 11 15 rings
6 18 20 21 24 25 26 rings
6 19 22 23 27 28 29 rings
6 7 9 10 12 13 14 rings

> <PUBCHEM_HEAVY_ATOM_COUNT>
31

> <PUBCHEM_ATOM_DEF_STEREO_COUNT>
1

> <PUBCHEM_ATOM_UDEF_STEREO_COUNT>
0

> <PUBCHEM_BOND_DEF_STEREO_COUNT>
0

> <PUBCHEM_BOND_UDEF_STEREO_COUNT>
0

> <PUBCHEM_ISOTOPIC_ATOM_COUNT>
0

> <PUBCHEM_COMPONENT_COUNT>
1

> <PUBCHEM_CACTVS_TAUTO_COUNT>
1

> <PUBCHEM_CONFORMER_ID>
047E080800000001

> <PUBCHEM_MMFF94_ENERGY>
86.2031

> <PUBCHEM_FEATURE_SELFOVERLAP>
35.621

> <PUBCHEM_SHAPE_FINGERPRINT>
100830 2 18335985350018027108
10917259 128 18122893494956267008
11273773 38 18271520910330145817
11475781 23 17632572782443759432
12390115 104 18271804653139350151
12422481 6 17603857867214443436
12975358 362 18196102036702051273
13383665 225 18271812358769602991
13782708 43 11599712992080488969
13828863 39 18259703423552134007
13944108 23 17697884670233257193
14150022 121 17315648562167167194
14202776 33 18267868474405082807
14211702 104 8790890708890947136
14251764 75 18411417306280275797
14664723 55 18341624697664310468
14790565 3 18339074999139864586
14840074 17 18260547818502462765
14848178 5 10951777399675769910
15163728 17 18342739615302743663
15183329 4 15698000721375892786
15188451 53 8646777676930319400
15274700 21 18193844966888965459
15338160 23 18261679276661319867
15357212 105 18410586075674683303
15419009 47 12175085184712005307
15513586 35 17896876771319412861
15575132 122 18410573985489529065
16120349 67 18341059596337825514
16992727 255 18341615949617612880
1768 23 18333733537361358356
18393751 57 18262516984652665947
19304671 126 16343692244850005633
19315092 285 8142093048579219398
19841028 212 8141498234411816433
20691028 202 18341890745556083825
21120745 212 17905039601684838479
21223535 225 18200306766713517044
21315764 119 18060145340914733246
21458453 9 12685378521572866076
21774942 28 18266739272597076844
24771750 20 17917720058676411247
249057 25 18118094044336522722
3610482 184 18131061641587390207
38570 142 18410863144035858802
392239 28 15864071009111568299
397830 11 17895484648439377315
4058900 60 18341337686775487867
4258327 124 18334845127053953615
437795 70 16487264261302463424
439807 62 9727338153077702929
50009960 94 10447655630846569812
5047190 6 13541921040321340860
508180 173 18200036269604514264
57634706 229 17242181369533969504
57724786 102 18338229345802119655
5874358 3 11959179537001118068
5911458 16 18335426789436844492
6034566 193 18336546109353185919
6058803 2 18194091162556627554
6201320 77 12533916465773194861
6695519 79 16153695553153969392
6712543 237 11243063318736614732

> <PUBCHEM_SHAPE_MULTIPOLES>
583.59
18.73
4.57
1.76
1.24
0.7
-0.07
23.92
-2.13
0.03
-1.1
0.66
0.17
-4.51

> <PUBCHEM_SHAPE_SELFOVERLAP>
1262.366

> <PUBCHEM_SHAPE_VOLUME>
322.3

> <PUBCHEM_COORDINATE_TYPE>
2
5
10

$$$$
