7155435
  -OEChem-12032416113D

 48 52  0     1  0  0  0  0  0999 V2000
   -2.9921   -1.2678   -0.6802 S   0  0  0  0  0  0  0  0  0  0  0  0
   -1.7892   -1.4246    1.9798 S   0  0  0  0  0  0  0  0  0  0  0  0
   -3.1371   -2.0695   -1.8770 O   0  0  0  0  0  0  0  0  0  0  0  0
   -4.1530   -0.7871    0.0390 O   0  0  0  0  0  0  0  0  0  0  0  0
   -0.8549    3.5021    2.3659 O   0  0  0  0  0  0  0  0  0  0  0  0
   -1.9566    0.0528   -1.0129 N   0  0  2  0  0  0  0  0  0  0  0  0
   -0.2746    2.2707    0.4598 N   0  0  0  0  0  0  0  0  0  0  0  0
   -1.6397    2.4240   -1.7054 C   0  0  1  0  0  0  0  0  0  0  0  0
    0.3020    0.9267   -1.5852 C   0  0  2  0  0  0  0  0  0  0  0  0
   -0.3290    2.0639   -2.3850 C   0  0  0  0  0  0  0  0  0  0  0  0
   -2.5938    1.2200   -1.6843 C   0  0  0  0  0  0  0  0  0  0  0  0
   -0.6345   -0.2972   -1.6094 C   0  0  0  0  0  0  0  0  0  0  0  0
   -1.3341    2.9473   -0.3011 C   0  0  0  0  0  0  0  0  0  0  0  0
    0.6044    1.3502   -0.1451 C   0  0  0  0  0  0  0  0  0  0  0  0
    1.6591    0.8605    0.5575 C   0  0  0  0  0  0  0  0  0  0  0  0
   -0.1261    2.6911    1.7936 C   0  0  0  0  0  0  0  0  0  0  0  0
    1.8417    1.2681    1.9377 C   0  0  0  0  0  0  0  0  0  0  0  0
    1.0113    2.1148    2.5458 C   0  0  0  0  0  0  0  0  0  0  0  0
    2.6201   -0.0917   -0.0410 C   0  0  0  0  0  0  0  0  0  0  0  0
   -1.9863   -2.1715    0.4551 C   0  0  0  0  0  0  0  0  0  0  0  0
   -1.3193   -3.3677    0.3661 C   0  0  0  0  0  0  0  0  0  0  0  0
    2.3804   -1.4598    0.0432 C   0  0  0  0  0  0  0  0  0  0  0  0
    3.7571    0.3870   -0.6849 C   0  0  0  0  0  0  0  0  0  0  0  0
   -0.6306   -3.6812    1.5734 C   0  0  0  0  0  0  0  0  0  0  0  0
   -0.8017   -2.7089    2.5341 C   0  0  0  0  0  0  0  0  0  0  0  0
    3.2861   -2.3579   -0.5216 C   0  0  0  0  0  0  0  0  0  0  0  0
    4.6629   -0.5108   -1.2497 C   0  0  0  0  0  0  0  0  0  0  0  0
    4.4273   -1.8833   -1.1681 C   0  0  0  0  0  0  0  0  0  0  0  0
   -2.1352    3.2242   -2.2696 H   0  0  0  0  0  0  0  0  0  0  0  0
    1.2267    0.6557   -2.1071 H   0  0  0  0  0  0  0  0  0  0  0  0
    0.3412    2.9319   -2.4230 H   0  0  0  0  0  0  0  0  0  0  0  0
   -0.5080    1.7517   -3.4212 H   0  0  0  0  0  0  0  0  0  0  0  0
   -2.8669    0.9402   -2.7089 H   0  0  0  0  0  0  0  0  0  0  0  0
   -3.5108    1.4968   -1.1528 H   0  0  0  0  0  0  0  0  0  0  0  0
   -0.1688   -1.1227   -1.0716 H   0  0  0  0  0  0  0  0  0  0  0  0
   -0.7854   -0.6263   -2.6452 H   0  0  0  0  0  0  0  0  0  0  0  0
   -2.2470    2.9628    0.3080 H   0  0  0  0  0  0  0  0  0  0  0  0
   -1.0123    3.9949   -0.3831 H   0  0  0  0  0  0  0  0  0  0  0  0
    2.6802    0.8535    2.4895 H   0  0  0  0  0  0  0  0  0  0  0  0
    1.1522    2.4093    3.5789 H   0  0  0  0  0  0  0  0  0  0  0  0
   -1.3187   -3.9919   -0.5180 H   0  0  0  0  0  0  0  0  0  0  0  0
    1.5036   -1.8438    0.5533 H   0  0  0  0  0  0  0  0  0  0  0  0
    3.9533    1.4539   -0.7569 H   0  0  0  0  0  0  0  0  0  0  0  0
   -0.0383   -4.5735    1.7287 H   0  0  0  0  0  0  0  0  0  0  0  0
   -0.3927   -2.6906    3.5345 H   0  0  0  0  0  0  0  0  0  0  0  0
    3.1036   -3.4265   -0.4556 H   0  0  0  0  0  0  0  0  0  0  0  0
    5.5514   -0.1415   -1.7532 H   0  0  0  0  0  0  0  0  0  0  0  0
    5.1328   -2.5824   -1.6075 H   0  0  0  0  0  0  0  0  0  0  0  0
  1  3  2  0  0  0  0
  1  4  2  0  0  0  0
  1  6  1  0  0  0  0
  1 20  1  0  0  0  0
  2 20  1  0  0  0  0
  2 25  1  0  0  0  0
  5 16  2  0  0  0  0
  6 11  1  0  0  0  0
  6 12  1  0  0  0  0
  7 13  1  0  0  0  0
  7 14  1  0  0  0  0
  7 16  1  0  0  0  0
  8 10  1  0  0  0  0
  8 11  1  0  0  0  0
  8 13  1  0  0  0  0
  8 29  1  0  0  0  0
  9 10  1  0  0  0  0
  9 12  1  0  0  0  0
  9 14  1  0  0  0  0
  9 30  1  0  0  0  0
 10 31  1  0  0  0  0
 10 32  1  0  0  0  0
 11 33  1  0  0  0  0
 11 34  1  0  0  0  0
 12 35  1  0  0  0  0
 12 36  1  0  0  0  0
 13 37  1  0  0  0  0
 13 38  1  0  0  0  0
 14 15  2  0  0  0  0
 15 17  1  0  0  0  0
 15 19  1  0  0  0  0
 16 18  1  0  0  0  0
 17 18  2  0  0  0  0
 17 39  1  0  0  0  0
 18 40  1  0  0  0  0
 19 22  2  0  0  0  0
 19 23  1  0  0  0  0
 20 21  2  0  0  0  0
 21 24  1  0  0  0  0
 21 41  1  0  0  0  0
 22 26  1  0  0  0  0
 22 42  1  0  0  0  0
 23 27  2  0  0  0  0
 23 43  1  0  0  0  0
 24 25  2  0  0  0  0
 24 44  1  0  0  0  0
 25 45  1  0  0  0  0
 26 28  2  0  0  0  0
 26 46  1  0  0  0  0
 27 28  1  0  0  0  0
 27 47  1  0  0  0  0
 28 48  1  0  0  0  0
M  END
> <PUBCHEM_COMPOUND_CID>
7155435

> <PUBCHEM_CONFORMER_RMSD>
0.8

> <PUBCHEM_CONFORMER_DIVERSEORDER>
1
8
7
2
4
6
3
5

> <PUBCHEM_MMFF94_PARTIAL_CHARGES>
36
1 1.5
11 0.36
12 0.36
13 0.3
14 -0.03
15 -0.03
16 0.62
17 -0.15
18 -0.14
19 0.03
2 -0.08
20 -0.02
21 -0.15
22 -0.15
23 -0.15
24 -0.15
25 -0.11
26 -0.15
27 -0.15
28 -0.15
3 -0.65
39 0.15
4 -0.65
40 0.15
41 0.15
42 0.15
43 0.15
44 0.15
45 0.15
46 0.15
47 0.15
48 0.15
5 -0.57
6 -0.85
7 -0.47
9 0.14

> <PUBCHEM_EFFECTIVE_ROTOR_COUNT>
4

> <PUBCHEM_PHARMACOPHORE_FEATURES>
8
1 3 acceptor
1 4 acceptor
1 5 acceptor
5 2 20 21 24 25 rings
6 19 22 23 26 27 28 rings
6 6 8 9 10 11 12 rings
6 7 14 15 16 17 18 rings
6 7 8 9 10 13 14 rings

> <PUBCHEM_HEAVY_ATOM_COUNT>
28

> <PUBCHEM_ATOM_DEF_STEREO_COUNT>
2

> <PUBCHEM_ATOM_UDEF_STEREO_COUNT>
0

> <PUBCHEM_BOND_DEF_STEREO_COUNT>
0

> <PUBCHEM_BOND_UDEF_STEREO_COUNT>
0

> <PUBCHEM_ISOTOPIC_ATOM_COUNT>
0

> <PUBCHEM_COMPONENT_COUNT>
1

> <PUBCHEM_CACTVS_TAUTO_COUNT>
1

> <PUBCHEM_CONFORMER_ID>
006D2EEB00000001

> <PUBCHEM_MMFF94_ENERGY>
69.8045

> <PUBCHEM_FEATURE_SELFOVERLAP>
42.199

> <PUBCHEM_SHAPE_FINGERPRINT>
10764073 3 12960727964212389716
121448 382 18263077713601352770
12156800 1 15836457629621280049
12539773 59 16973605505666248710
12553582 1 17969212507386500495
12592029 89 17248927628261304516
12633257 1 17687143859127446953
12788726 201 18200605678829506162
13947920 24 17970082217405977374
14022347 108 17749657606273226255
14251740 79 18192719947191850982
15003188 3 18046887541038529707
16752209 62 17677867137731678119
17357779 13 18336827592983199934
17974551 9 17774171226678287107
1979834 28 16679233816161457491
20600515 1 17173448693324420933
23559900 14 17686057606137780471
3027735 51 18191028906555556738
35225 105 17624173457698352770
469060 322 17462882824307721779
484985 159 17700708259133126398
513532 50 17834628964743900679
6287921 2 16895701237284223594

> <PUBCHEM_SHAPE_MULTIPOLES>
556.36
5.86
4.55
2.66
5.38
1.14
-1.19
3.41
3.23
-2.28
-1.92
-0.64
-1.2
1.28

> <PUBCHEM_SHAPE_SELFOVERLAP>
1200.386

> <PUBCHEM_SHAPE_VOLUME>
305.3

> <PUBCHEM_COORDINATE_TYPE>
2
5
10

$$$$
