75536806
  -OEChem-12032416323D

 44 45  0     1  0  0  0  0  0999 V2000
    1.7849    1.2667    0.4026 O   0  0  0  0  0  0  0  0  0  0  0  0
    1.0546   -1.8197   -1.2845 O   0  0  0  0  0  0  0  0  0  0  0  0
    5.3680   -1.4462    0.5136 O   0  0  0  0  0  0  0  0  0  0  0  0
   -1.3583    0.1826   -1.0725 N   0  0  0  0  0  0  0  0  0  0  0  0
   -5.3211   -0.3461    0.3698 N   0  0  0  0  0  0  0  0  0  0  0  0
    4.5565    0.6587   -0.0671 N   0  0  0  0  0  0  0  0  0  0  0  0
   -0.1414    0.0601   -0.2864 C   0  0  1  0  0  0  0  0  0  0  0  0
   -2.5269    0.3069   -0.2044 C   0  0  0  0  0  0  0  0  0  0  0  0
    1.0552   -0.4191   -1.0871 C   0  0  1  0  0  0  0  0  0  0  0  0
    2.2041    0.0278   -0.1932 C   0  0  1  0  0  0  0  0  0  0  0  0
   -3.6905    0.9739   -0.9437 C   0  0  0  0  0  0  0  0  0  0  0  0
   -2.9550   -1.0705    0.3083 C   0  0  0  0  0  0  0  0  0  0  0  0
    0.3619    1.3954    0.2367 C   0  0  0  0  0  0  0  0  0  0  0  0
   -4.9486    1.0051   -0.0719 C   0  0  0  0  0  0  0  0  0  0  0  0
   -4.2370   -0.9725    1.1393 C   0  0  0  0  0  0  0  0  0  0  0  0
    3.5057    0.2352   -0.9471 C   0  0  0  0  0  0  0  0  0  0  0  0
   -6.5517   -0.3053    1.1591 C   0  0  0  0  0  0  0  0  0  0  0  0
    5.4057   -0.2212    0.5943 C   0  0  0  0  0  0  0  0  0  0  0  0
    6.4338    0.4882    1.4343 C   0  0  0  0  0  0  0  0  0  0  0  0
   -0.2741   -0.6376    0.5498 H   0  0  0  0  0  0  0  0  0  0  0  0
   -2.2961    0.9484    0.6567 H   0  0  0  0  0  0  0  0  0  0  0  0
    1.0996    0.0759   -2.0653 H   0  0  0  0  0  0  0  0  0  0  0  0
    2.3633   -0.6897    0.6226 H   0  0  0  0  0  0  0  0  0  0  0  0
   -1.4647   -0.6254   -1.6850 H   0  0  0  0  0  0  0  0  0  0  0  0
   -3.9087    0.4325   -1.8743 H   0  0  0  0  0  0  0  0  0  0  0  0
   -3.4192    1.9980   -1.2283 H   0  0  0  0  0  0  0  0  0  0  0  0
   -2.1789   -1.5291    0.9304 H   0  0  0  0  0  0  0  0  0  0  0  0
   -3.1283   -1.7539   -0.5344 H   0  0  0  0  0  0  0  0  0  0  0  0
    0.1928    2.2120   -0.4747 H   0  0  0  0  0  0  0  0  0  0  0  0
   -0.0879    1.6741    1.1944 H   0  0  0  0  0  0  0  0  0  0  0  0
   -4.7843    1.6669    0.7887 H   0  0  0  0  0  0  0  0  0  0  0  0
   -5.7630    1.4388   -0.6650 H   0  0  0  0  0  0  0  0  0  0  0  0
   -4.5310   -1.9875    1.4334 H   0  0  0  0  0  0  0  0  0  0  0  0
   -4.0364   -0.4113    2.0616 H   0  0  0  0  0  0  0  0  0  0  0  0
    3.3953    1.0258   -1.6973 H   0  0  0  0  0  0  0  0  0  0  0  0
    3.8092   -0.6869   -1.4541 H   0  0  0  0  0  0  0  0  0  0  0  0
    1.0123   -2.2512   -0.4144 H   0  0  0  0  0  0  0  0  0  0  0  0
   -7.3737    0.1152    0.5691 H   0  0  0  0  0  0  0  0  0  0  0  0
   -6.4397    0.2932    2.0705 H   0  0  0  0  0  0  0  0  0  0  0  0
   -6.8584   -1.3172    1.4464 H   0  0  0  0  0  0  0  0  0  0  0  0
    4.6772    1.6573    0.0763 H   0  0  0  0  0  0  0  0  0  0  0  0
    5.9613    1.2741    2.0305 H   0  0  0  0  0  0  0  0  0  0  0  0
    6.9111   -0.2249    2.1120 H   0  0  0  0  0  0  0  0  0  0  0  0
    7.1923    0.9311    0.7832 H   0  0  0  0  0  0  0  0  0  0  0  0
  1 10  1  0  0  0  0
  1 13  1  0  0  0  0
  2  9  1  0  0  0  0
  2 37  1  0  0  0  0
  3 18  2  0  0  0  0
  4  7  1  0  0  0  0
  4  8  1  0  0  0  0
  4 24  1  0  0  0  0
  5 14  1  0  0  0  0
  5 15  1  0  0  0  0
  5 17  1  0  0  0  0
  6 16  1  0  0  0  0
  6 18  1  0  0  0  0
  6 41  1  0  0  0  0
  7  9  1  0  0  0  0
  7 13  1  0  0  0  0
  7 20  1  0  0  0  0
  8 11  1  0  0  0  0
  8 12  1  0  0  0  0
  8 21  1  0  0  0  0
  9 10  1  0  0  0  0
  9 22  1  0  0  0  0
 10 16  1  0  0  0  0
 10 23  1  0  0  0  0
 11 14  1  0  0  0  0
 11 25  1  0  0  0  0
 11 26  1  0  0  0  0
 12 15  1  0  0  0  0
 12 27  1  0  0  0  0
 12 28  1  0  0  0  0
 13 29  1  0  0  0  0
 13 30  1  0  0  0  0
 14 31  1  0  0  0  0
 14 32  1  0  0  0  0
 15 33  1  0  0  0  0
 15 34  1  0  0  0  0
 16 35  1  0  0  0  0
 16 36  1  0  0  0  0
 17 38  1  0  0  0  0
 17 39  1  0  0  0  0
 17 40  1  0  0  0  0
 18 19  1  0  0  0  0
 19 42  1  0  0  0  0
 19 43  1  0  0  0  0
 19 44  1  0  0  0  0
M  END
> <PUBCHEM_COMPOUND_CID>
75536806

> <PUBCHEM_CONFORMER_RMSD>
0.8

> <PUBCHEM_CONFORMER_DIVERSEORDER>
1
87
48
95
54
91
97
60
110
67
16
100
78
104
15
80
62
36
109
53
93
40
75
99
44
26
32
94
59
33
47
79
20
73
85
82
56
107
83
6
52
46
64
63
19
21
98
42
22
81
70
25
90
27
103
4
34
89
39
74
43
28
10
96
84
23
101
71
88
50
105
35
58
92
24
38
11
9
86
51
37
2
65
106
77
29
13
111
41
66
102
18
8
55
69
49
61
30
31
45
14
17
12
5
108
7
57
68
72
76
3

> <PUBCHEM_MMFF94_PARTIAL_CHARGES>
20
1 -0.56
10 0.28
13 0.28
14 0.27
15 0.27
16 0.3
17 0.27
18 0.57
19 0.06
2 -0.68
24 0.36
3 -0.57
37 0.4
4 -0.9
41 0.37
5 -0.81
6 -0.73
7 0.27
8 0.27
9 0.28

> <PUBCHEM_EFFECTIVE_ROTOR_COUNT>
7.2

> <PUBCHEM_PHARMACOPHORE_FEATURES>
10
1 1 acceptor
1 2 acceptor
1 2 donor
1 3 acceptor
1 4 cation
1 4 donor
1 5 cation
1 6 donor
5 1 7 9 10 13 rings
6 5 8 11 12 14 15 rings

> <PUBCHEM_HEAVY_ATOM_COUNT>
19

> <PUBCHEM_ATOM_DEF_STEREO_COUNT>
3

> <PUBCHEM_ATOM_UDEF_STEREO_COUNT>
0

> <PUBCHEM_BOND_DEF_STEREO_COUNT>
0

> <PUBCHEM_BOND_UDEF_STEREO_COUNT>
0

> <PUBCHEM_ISOTOPIC_ATOM_COUNT>
0

> <PUBCHEM_COMPONENT_COUNT>
1

> <PUBCHEM_CACTVS_TAUTO_COUNT>
2

> <PUBCHEM_CONFORMER_ID>
048099A600000001

> <PUBCHEM_MMFF94_ENERGY>
24.0444

> <PUBCHEM_FEATURE_SELFOVERLAP>
50.746

> <PUBCHEM_SHAPE_FINGERPRINT>
10 15 18341330084740915280
106641 1 18059570342802599354
11089746 13 16128370476288570777
11315181 36 17385725807473646053
117890 112 14405183976101372864
12236239 1 15719396144258717125
12507557 5 17346601906755020185
12596602 18 16702021984767661351
12616971 3 18411698832838987492
12670543 26 10881671400000898602
13167823 11 17457780098333297354
13288520 33 16515401872221985349
13533116 47 17275106081903115102
13668630 136 14056722365928401609
1420 363 15357700794600614217
14251764 18 18410855498788142220
14341114 176 18186524323274803476
14528608 73 11887949965275190768
15048467 5 14620793808214230112
15348495 7 18338513157372486520
17834072 8 11602822402146746192
17844677 252 17240485797148054612
1813 80 15140962816524359726
19784866 240 14996288037312072635
200 152 13262395592442163013
20281389 69 14476964467223227810
20645477 56 12247683764593393141
21150785 3 14405176258404253749
21267235 1 13334742332300085953
21637258 2 16588014736648357082
221357 26 10881398755171623575
22224240 67 18059852887289671327
23035841 295 15936408948892680249
23402539 116 16877938330541891773
23536379 177 17385723586711744780
23557571 272 17676206832007902693
23559900 14 16588593144268574813
23590187 198 16298106492788570907
26918003 58 18342181081160654273
2767999 5 16128653050702848330
29717793 49 15646774491807330191
300161 21 14620795977025158045
33382 64 17603582998271895762
351380 3 15357693097855559728
4072396 5 18201718431936479086
4340502 62 18187080650995238050
465052 167 18260268530143718118
5104073 3 18128259982284580809
542803 24 13039188095604046181
559249 180 16587737630101707771
59755656 215 16443058383559743387
7495541 125 18041003985061071964

> <PUBCHEM_SHAPE_MULTIPOLES>
358.46
15.81
1.29
1.2
3.48
0.13
0.1
3.27
-6.87
-0.48
0
0.7
0.14
0.63

> <PUBCHEM_SHAPE_SELFOVERLAP>
716.729

> <PUBCHEM_SHAPE_VOLUME>
213.1

> <PUBCHEM_COORDINATE_TYPE>
2
5
10

$$$$
