45783789
  -OEChem-12032416263D

 49 53  0     1  0  0  0  0  0999 V2000
   -1.4363   -1.8775    1.8796 O   0  0  0  0  0  0  0  0  0  0  0  0
   -1.6028    1.7865   -0.9551 O   0  0  0  0  0  0  0  0  0  0  0  0
   -3.6090   -0.3339   -0.6505 N   0  0  1  0  0  0  0  0  0  0  0  0
   -0.7917   -1.1847   -0.1505 N   0  0  0  0  0  0  0  0  0  0  0  0
   -0.0357   -1.8896    1.8905 N   0  0  0  0  0  0  0  0  0  0  0  0
    3.9876   -1.4980    0.6769 N   0  0  0  0  0  0  0  0  0  0  0  0
    5.5637   -0.9296   -1.0166 N   0  0  0  0  0  0  0  0  0  0  0  0
   -3.2859   -1.3489    0.3722 C   0  0  1  0  0  0  0  0  0  0  0  0
   -3.8822   -2.6589   -0.1749 C   0  0  0  0  0  0  0  0  0  0  0  0
   -4.5712   -2.2698   -1.4752 C   0  0  0  0  0  0  0  0  0  0  0  0
   -4.8341   -0.7867   -1.3096 C   0  0  0  0  0  0  0  0  0  0  0  0
   -3.7453    1.0098   -0.1032 C   0  0  0  0  0  0  0  0  0  0  0  0
   -1.7992   -1.4510    0.6417 C   0  0  0  0  0  0  0  0  0  0  0  0
   -2.4069    1.6577    0.1325 C   0  0  0  0  0  0  0  0  0  0  0  0
   -1.7953    2.1686    1.2539 C   0  0  0  0  0  0  0  0  0  0  0  0
   -0.5258    2.6468    0.8348 C   0  0  0  0  0  0  0  0  0  0  0  0
    0.2692   -1.4686    0.6594 C   0  0  0  0  0  0  0  0  0  0  0  0
   -0.4564    2.3886   -0.5303 C   0  0  0  0  0  0  0  0  0  0  0  0
    1.6226   -1.3226    0.2069 C   0  0  0  0  0  0  0  0  0  0  0  0
    0.5708    3.2683    1.4574 C   0  0  0  0  0  0  0  0  0  0  0  0
    0.6384    2.7081   -1.3314 C   0  0  0  0  0  0  0  0  0  0  0  0
    1.6869    3.6012    0.6776 C   0  0  0  0  0  0  0  0  0  0  0  0
    1.7175    3.3253   -0.6917 C   0  0  0  0  0  0  0  0  0  0  0  0
    1.9038   -0.8834   -1.0820 C   0  0  0  0  0  0  0  0  0  0  0  0
    2.6905   -1.6142    1.0402 C   0  0  0  0  0  0  0  0  0  0  0  0
    3.2258   -0.7512   -1.4926 C   0  0  0  0  0  0  0  0  0  0  0  0
    4.2220   -1.0684   -0.5833 C   0  0  0  0  0  0  0  0  0  0  0  0
    6.6789   -1.2240   -0.1767 C   0  0  0  0  0  0  0  0  0  0  0  0
   -3.7952   -1.1225    1.3195 H   0  0  0  0  0  0  0  0  0  0  0  0
   -3.1392   -3.4449   -0.3484 H   0  0  0  0  0  0  0  0  0  0  0  0
   -4.6254   -3.0487    0.5313 H   0  0  0  0  0  0  0  0  0  0  0  0
   -5.4878   -2.8423   -1.6451 H   0  0  0  0  0  0  0  0  0  0  0  0
   -3.8964   -2.4468   -2.3220 H   0  0  0  0  0  0  0  0  0  0  0  0
   -4.9889   -0.2956   -2.2753 H   0  0  0  0  0  0  0  0  0  0  0  0
   -5.7186   -0.6249   -0.6803 H   0  0  0  0  0  0  0  0  0  0  0  0
   -4.2679    1.6512   -0.8260 H   0  0  0  0  0  0  0  0  0  0  0  0
   -4.3472    1.0253    0.8141 H   0  0  0  0  0  0  0  0  0  0  0  0
   -2.2104    2.1932    2.2517 H   0  0  0  0  0  0  0  0  0  0  0  0
    0.5614    3.4885    2.5206 H   0  0  0  0  0  0  0  0  0  0  0  0
    0.6554    2.4891   -2.3924 H   0  0  0  0  0  0  0  0  0  0  0  0
    2.5419    4.0811    1.1470 H   0  0  0  0  0  0  0  0  0  0  0  0
    2.5974    3.5938   -1.2712 H   0  0  0  0  0  0  0  0  0  0  0  0
    1.1138   -0.6381   -1.7872 H   0  0  0  0  0  0  0  0  0  0  0  0
    2.5568   -1.9620    2.0602 H   0  0  0  0  0  0  0  0  0  0  0  0
    3.4516   -0.4091   -2.4973 H   0  0  0  0  0  0  0  0  0  0  0  0
    5.7227   -0.3962   -1.8646 H   0  0  0  0  0  0  0  0  0  0  0  0
    6.6703   -2.2715    0.1415 H   0  0  0  0  0  0  0  0  0  0  0  0
    7.6122   -1.0508   -0.7216 H   0  0  0  0  0  0  0  0  0  0  0  0
    6.6873   -0.5831    0.7109 H   0  0  0  0  0  0  0  0  0  0  0  0
  1  5  1  0  0  0  0
  1 13  1  0  0  0  0
  2 14  1  0  0  0  0
  2 18  1  0  0  0  0
  3  8  1  0  0  0  0
  3 11  1  0  0  0  0
  3 12  1  0  0  0  0
  4 13  2  0  0  0  0
  4 17  1  0  0  0  0
  5 17  2  0  0  0  0
  6 25  1  0  0  0  0
  6 27  2  0  0  0  0
  7 27  1  0  0  0  0
  7 28  1  0  0  0  0
  7 46  1  0  0  0  0
  8  9  1  0  0  0  0
  8 13  1  0  0  0  0
  8 29  1  0  0  0  0
  9 10  1  0  0  0  0
  9 30  1  0  0  0  0
  9 31  1  0  0  0  0
 10 11  1  0  0  0  0
 10 32  1  0  0  0  0
 10 33  1  0  0  0  0
 11 34  1  0  0  0  0
 11 35  1  0  0  0  0
 12 14  1  0  0  0  0
 12 36  1  0  0  0  0
 12 37  1  0  0  0  0
 14 15  2  0  0  0  0
 15 16  1  0  0  0  0
 15 38  1  0  0  0  0
 16 18  1  0  0  0  0
 16 20  2  0  0  0  0
 17 19  1  0  0  0  0
 18 21  2  0  0  0  0
 19 24  1  0  0  0  0
 19 25  2  0  0  0  0
 20 22  1  0  0  0  0
 20 39  1  0  0  0  0
 21 23  1  0  0  0  0
 21 40  1  0  0  0  0
 22 23  2  0  0  0  0
 22 41  1  0  0  0  0
 23 42  1  0  0  0  0
 24 26  2  0  0  0  0
 24 43  1  0  0  0  0
 25 44  1  0  0  0  0
 26 27  1  0  0  0  0
 26 45  1  0  0  0  0
 28 47  1  0  0  0  0
 28 48  1  0  0  0  0
 28 49  1  0  0  0  0
M  END
> <PUBCHEM_COMPOUND_CID>
45783789

> <PUBCHEM_CONFORMER_RMSD>
0.8

> <PUBCHEM_CONFORMER_DIVERSEORDER>
1
82
161
81
189
10
97
145
167
72
118
101
46
190
153
32
13
126
52
173
162
137
180
92
116
54
175
25
48
34
4
109
156
139
11
108
40
95
183
119
160
107
187
23
155
56
140
152
131
35
121
186
89
50
17
124
141
136
163
2
8
112
135
150
60
3
178
188
30
42
146
66
164
93
98
70
90
134
86
79
106
63
128
71
7
144
15
19
169
67
130
104
33
133
151
185
61
171
191
84
59
166
154
49
105
172
147
64
85
24
123
5
181
143
179
96
6
149
102
110
94
62
26
14
132
31
142
158
159
68
80
73
41
103
111
75
165
58
76
176
117
170
43
168
9
182
125
69
174
115
39
20
77
148
87
157
74
16
37
53
192
120
51
38
55
18
29
21
138
177
122
88
113
184
12
99
36
83
91
22
27
65
127
28
100
129
45
114
44
47
78
57

> <PUBCHEM_MMFF94_PARTIAL_CHARGES>
34
1 -0.02
11 0.27
12 0.45
13 0.3
14 -0.04
15 -0.15
17 0.46
18 0.14
19 0.05
2 -0.28
20 -0.15
21 -0.15
22 -0.15
23 -0.15
24 -0.15
25 0.16
26 -0.15
27 0.41
28 0.37
3 -0.81
38 0.15
39 0.15
4 -0.57
40 0.15
41 0.15
42 0.15
43 0.15
44 0.15
45 0.15
46 0.4
5 -0.41
6 -0.62
7 -0.87
8 0.45

> <PUBCHEM_EFFECTIVE_ROTOR_COUNT>
6

> <PUBCHEM_PHARMACOPHORE_FEATURES>
10
1 2 acceptor
1 3 cation
1 7 donor
3 4 5 17 cation
3 6 7 27 cation
5 1 4 5 13 17 rings
5 2 14 15 16 18 rings
5 3 8 9 10 11 rings
6 16 18 20 21 22 23 rings
6 6 19 24 25 26 27 rings

> <PUBCHEM_HEAVY_ATOM_COUNT>
28

> <PUBCHEM_ATOM_DEF_STEREO_COUNT>
1

> <PUBCHEM_ATOM_UDEF_STEREO_COUNT>
0

> <PUBCHEM_BOND_DEF_STEREO_COUNT>
0

> <PUBCHEM_BOND_UDEF_STEREO_COUNT>
0

> <PUBCHEM_ISOTOPIC_ATOM_COUNT>
0

> <PUBCHEM_COMPONENT_COUNT>
1

> <PUBCHEM_CACTVS_TAUTO_COUNT>
8

> <PUBCHEM_CONFORMER_ID>
02BA9AED00000001

> <PUBCHEM_MMFF94_ENERGY>
56.094

> <PUBCHEM_FEATURE_SELFOVERLAP>
50.85

> <PUBCHEM_SHAPE_FINGERPRINT>
10006869 2 17687199590791729049
10871710 139 18116999871088987493
1100329 8 18340210700537142825
12156800 1 15650941580963467172
12166972 35 17821734969840272998
12645989 146 18342461401166495038
12788726 201 18262798441584422490
133893 2 18121799462809000081
14787075 74 18408325467320807228
14790565 3 17620474610711020001
14910302 57 17773034142540137238
14955137 171 18197521549177681953
16090146 7 17703799103158477939
17357779 13 18342170076869015662
17492 54 18115863006404814989
17818456 19 17904751190288361794
18336668 15 18114189618231839636
19319366 153 17680146275339308667
20642791 35 18337095810060323873
20691752 17 17677038149167273493
20775438 99 17620732312996378831
20905425 154 18196659720612941381
21344244 246 17909538794458913703
21623110 236 18338529594508350560
23402539 116 18410856538450374662
23419403 2 18121467332677004557
23557571 272 18202002075513140494
23559900 14 18189048870839028813
238918 7 17545596116216483280
3178227 256 18193573173196002465
3298306 158 17834111227262175133
392239 28 18339646642640284880
4280585 95 18409438181329709236
463206 1 17767401649444964391
5171179 24 18271799163928540144
7471813 234 18341049722034179358

> <PUBCHEM_SHAPE_MULTIPOLES>
539.58
9.71
4.46
1.53
7.72
4.28
0.16
-8.89
-3.64
0.11
0.62
-0.14
-0.13
-0.43

> <PUBCHEM_SHAPE_SELFOVERLAP>
1192.672

> <PUBCHEM_SHAPE_VOLUME>
292.6

> <PUBCHEM_COORDINATE_TYPE>
2
5
10

$$$$
