45784265
  -OEChem-12032416283D

 42 44  0     1  0  0  0  0  0999 V2000
    6.1704   -0.6547   -0.8176 F   0  0  0  0  0  0  0  0  0  0  0  0
    5.9327    0.4893    1.0161 F   0  0  0  0  0  0  0  0  0  0  0  0
    5.5233   -1.6405    1.0093 F   0  0  0  0  0  0  0  0  0  0  0  0
   -4.1402    0.5913    0.1178 N   0  0  1  0  0  0  0  0  0  0  0  0
    0.5244    0.4227    1.2006 N   0  0  0  0  0  0  0  0  0  0  0  0
   -0.0475    0.5389   -0.9440 N   0  0  0  0  0  0  0  0  0  0  0  0
   -1.8988    0.8880    0.7403 C   0  0  2  0  0  0  0  0  0  0  0  0
   -2.8942   -0.1681    0.2414 C   0  0  0  0  0  0  0  0  0  0  0  0
   -2.4823    2.2293    0.2632 C   0  0  0  0  0  0  0  0  0  0  0  0
   -3.7492    1.8597   -0.4974 C   0  0  0  0  0  0  0  0  0  0  0  0
   -5.1462   -0.1155   -0.6611 C   0  0  0  0  0  0  0  0  0  0  0  0
   -0.4803    0.6180    0.2944 C   0  0  0  0  0  0  0  0  0  0  0  0
   -5.6098   -1.4151    0.0191 C   0  0  0  0  0  0  0  0  0  0  0  0
   -6.2166   -1.0939    1.3876 C   0  0  0  0  0  0  0  0  0  0  0  0
   -6.6250   -2.1901   -0.8248 C   0  0  0  0  0  0  0  0  0  0  0  0
    1.6828    0.2025    0.5005 C   0  0  0  0  0  0  0  0  0  0  0  0
    1.2996    0.2802   -0.8356 C   0  0  0  0  0  0  0  0  0  0  0  0
    2.9928   -0.0501    0.9087 C   0  0  0  0  0  0  0  0  0  0  0  0
    2.2678    0.0977   -1.8375 C   0  0  0  0  0  0  0  0  0  0  0  0
    3.9434   -0.2292   -0.1016 C   0  0  0  0  0  0  0  0  0  0  0  0
    3.5895   -0.1570   -1.4509 C   0  0  0  0  0  0  0  0  0  0  0  0
    5.3636   -0.5031    0.2716 C   0  0  0  0  0  0  0  0  0  0  0  0
   -1.9227    0.8939    1.8399 H   0  0  0  0  0  0  0  0  0  0  0  0
   -2.9701   -0.9848    0.9671 H   0  0  0  0  0  0  0  0  0  0  0  0
   -2.5789   -0.5899   -0.7222 H   0  0  0  0  0  0  0  0  0  0  0  0
   -2.7330    2.8477    1.1342 H   0  0  0  0  0  0  0  0  0  0  0  0
   -1.7940    2.8045   -0.3651 H   0  0  0  0  0  0  0  0  0  0  0  0
   -3.5203    1.7409   -1.5643 H   0  0  0  0  0  0  0  0  0  0  0  0
   -4.5214    2.6276   -0.3882 H   0  0  0  0  0  0  0  0  0  0  0  0
   -4.7701   -0.3481   -1.6666 H   0  0  0  0  0  0  0  0  0  0  0  0
   -6.0187    0.5370   -0.7996 H   0  0  0  0  0  0  0  0  0  0  0  0
   -4.7555   -2.0861    0.1683 H   0  0  0  0  0  0  0  0  0  0  0  0
    0.4337    0.4368    2.2079 H   0  0  0  0  0  0  0  0  0  0  0  0
   -5.4813   -0.6471    2.0643 H   0  0  0  0  0  0  0  0  0  0  0  0
   -6.5830   -2.0069    1.8699 H   0  0  0  0  0  0  0  0  0  0  0  0
   -7.0618   -0.4028    1.2968 H   0  0  0  0  0  0  0  0  0  0  0  0
   -6.1965   -2.4520   -1.7978 H   0  0  0  0  0  0  0  0  0  0  0  0
   -6.9203   -3.1195   -0.3266 H   0  0  0  0  0  0  0  0  0  0  0  0
   -7.5283   -1.5964   -1.0015 H   0  0  0  0  0  0  0  0  0  0  0  0
    3.2570   -0.1041    1.9593 H   0  0  0  0  0  0  0  0  0  0  0  0
    2.0025    0.1519   -2.8885 H   0  0  0  0  0  0  0  0  0  0  0  0
    4.3344   -0.2974   -2.2305 H   0  0  0  0  0  0  0  0  0  0  0  0
  1 22  1  0  0  0  0
  2 22  1  0  0  0  0
  3 22  1  0  0  0  0
  4  8  1  0  0  0  0
  4 10  1  0  0  0  0
  4 11  1  0  0  0  0
  5 12  1  0  0  0  0
  5 16  1  0  0  0  0
  5 33  1  0  0  0  0
  6 12  2  0  0  0  0
  6 17  1  0  0  0  0
  7  8  1  0  0  0  0
  7  9  1  0  0  0  0
  7 12  1  0  0  0  0
  7 23  1  0  0  0  0
  8 24  1  0  0  0  0
  8 25  1  0  0  0  0
  9 10  1  0  0  0  0
  9 26  1  0  0  0  0
  9 27  1  0  0  0  0
 10 28  1  0  0  0  0
 10 29  1  0  0  0  0
 11 13  1  0  0  0  0
 11 30  1  0  0  0  0
 11 31  1  0  0  0  0
 13 14  1  0  0  0  0
 13 15  1  0  0  0  0
 13 32  1  0  0  0  0
 14 34  1  0  0  0  0
 14 35  1  0  0  0  0
 14 36  1  0  0  0  0
 15 37  1  0  0  0  0
 15 38  1  0  0  0  0
 15 39  1  0  0  0  0
 16 17  2  0  0  0  0
 16 18  1  0  0  0  0
 17 19  1  0  0  0  0
 18 20  2  0  0  0  0
 18 40  1  0  0  0  0
 19 21  2  0  0  0  0
 19 41  1  0  0  0  0
 20 21  1  0  0  0  0
 20 22  1  0  0  0  0
 21 42  1  0  0  0  0
M  END
> <PUBCHEM_COMPOUND_CID>
45784265

> <PUBCHEM_CONFORMER_RMSD>
0.8

> <PUBCHEM_CONFORMER_DIVERSEORDER>
1
12
15
7
10
5
14
8
3
2
13
9
11
6
4

> <PUBCHEM_MMFF94_PARTIAL_CHARGES>
22
1 -0.34
10 0.27
11 0.27
12 0.01
16 -0.15
17 0.23
18 -0.15
19 -0.15
2 -0.34
20 -0.14
21 -0.15
22 1.16
3 -0.34
33 0.27
4 -0.81
40 0.15
41 0.15
42 0.15
5 0.03
6 -0.57
7 0.18
8 0.27

> <PUBCHEM_EFFECTIVE_ROTOR_COUNT>
5

> <PUBCHEM_PHARMACOPHORE_FEATURES>
7
1 4 cation
1 5 donor
3 13 14 15 hydrophobe
3 5 6 12 cation
5 4 7 8 9 10 rings
5 5 6 12 16 17 rings
6 16 17 18 19 20 21 rings

> <PUBCHEM_HEAVY_ATOM_COUNT>
22

> <PUBCHEM_ATOM_DEF_STEREO_COUNT>
1

> <PUBCHEM_ATOM_UDEF_STEREO_COUNT>
0

> <PUBCHEM_BOND_DEF_STEREO_COUNT>
0

> <PUBCHEM_BOND_UDEF_STEREO_COUNT>
0

> <PUBCHEM_ISOTOPIC_ATOM_COUNT>
0

> <PUBCHEM_COMPONENT_COUNT>
1

> <PUBCHEM_CACTVS_TAUTO_COUNT>
2

> <PUBCHEM_CONFORMER_ID>
02BA9CC900000001

> <PUBCHEM_MMFF94_ENERGY>
31.1774

> <PUBCHEM_FEATURE_SELFOVERLAP>
35.629

> <PUBCHEM_SHAPE_FINGERPRINT>
10066227 112 11314318251816025750
10354089 29 14189577446538843330
106641 1 18272644676402633146
10693767 8 16661193759864976706
10763959 59 12612755730628156375
11089746 13 14418131833208618917
11796584 16 18126285238021541566
12166972 35 17822015323593408908
12236239 1 17822011990719379028
12555020 224 16515688836019227187
12616971 3 14836116671749952600
12670543 26 13912316880617317691
13288520 33 18410855465314737593
13668630 136 17458063768054536403
13782708 43 18273492360121426006
13862211 1 18411699924509941759
1420 363 17704075087990058582
14211702 104 18335708195483218274
14251764 18 13110963128908767633
14341114 176 14764359231817711007
146900 427 14908176439447546422
14849402 71 14548155732129976162
15003188 100 14346084178168249335
15142383 8 15267071302550276243
15183329 4 15719381837891530447
15188451 53 18335132094344522614
15716309 27 17632577162935737527
1601671 61 9439404622672665355
17349148 13 17894920606899630433
17780758 139 17203613709929979107
17834072 8 14490474187830969487
17844677 252 18343587352227686737
18222031 100 17313100852360875612
18681886 176 17894910767050551120
18785283 64 17202755046228732728
18927931 339 18412265034942325711
190975 80 17346312756445248967
19489759 90 18335420127789217169
200 152 17458064845901241621
20281389 69 8790882982318199367
20612939 158 15719685320069559294
21054139 6 18113615690083605123
21150785 3 18041006158989289454
21521239 73 17022620900919571667
21623969 137 16845858996480376375
21637258 2 18409725188546128695
21728266 224 18335698313068548177
21781051 124 17203341035235711742
221357 26 15430027769114039375
22224240 67 15267340734749938231
23081809 10 17676491601482985032
23402539 116 18114181913292501917
23522609 53 18126597663044907649
23559900 14 17677616535154334193
23569914 2 8427772367980766727
23569943 247 17171229617542006090
23590187 135 18272653463262220261
26918003 58 16845293843783523955
2838139 119 12468632850888150871
29717793 49 17603587417371347295
3004659 81 17676763262654492811
3009799 131 14996280340609248788
3014965 18 12829476044242595864
312425 54 17131568180260363835
34797466 226 18200888356819384300
3545911 37 12612756809334580745
4340502 62 17917993867452346238
465052 167 17846779594706487086
5104073 3 16271093592481309266
5283156 175 18040435482505720819
5758199 1 14333400169323158090
59682541 35 16988555853105877842
59682541 52 14707473798631380755
7471813 234 17822295694842652685
7495541 125 18201718478690794896

> <PUBCHEM_SHAPE_MULTIPOLES>
415.99
16.8
1.62
1.33
2.31
0.14
0.19
-9.63
-1.24
2.76
0.03
-0.59
-0.15
-0.16

> <PUBCHEM_SHAPE_SELFOVERLAP>
890.018

> <PUBCHEM_SHAPE_VOLUME>
236.4

> <PUBCHEM_COORDINATE_TYPE>
2
5
10

$$$$
