28960535
  -OEChem-12032416293D

 58 61  0     1  0  0  0  0  0999 V2000
    2.7348   -1.8537    1.5614 O   0  0  0  0  0  0  0  0  0  0  0  0
    3.9822   -3.1685    0.1136 O   0  0  0  0  0  0  0  0  0  0  0  0
    2.1230   -2.8728   -2.0676 O   0  0  0  0  0  0  0  0  0  0  0  0
    2.0610    4.6778    1.1644 O   0  0  0  0  0  0  0  0  0  0  0  0
   -1.7195   -2.1910   -0.8727 O   0  0  0  0  0  0  0  0  0  0  0  0
   -7.3278    1.0101   -0.0544 O   0  0  0  0  0  0  0  0  0  0  0  0
    2.7201    0.2829   -0.3572 N   0  0  0  0  0  0  0  0  0  0  0  0
   -0.0080   -1.5674    0.5501 N   0  0  0  0  0  0  0  0  0  0  0  0
    3.0197    5.5353   -0.7434 N   0  0  0  0  0  0  0  0  0  0  0  0
   -2.0343   -0.5133    0.7387 N   0  0  0  0  0  0  0  0  0  0  0  0
    3.0311   -1.1034   -0.7113 C   0  0  2  0  0  0  0  0  0  0  0  0
    1.7451   -1.8433   -1.1440 C   0  0  2  0  0  0  0  0  0  0  0  0
    0.9812   -2.4886    0.0331 C   0  0  1  0  0  0  0  0  0  0  0  0
    3.6853   -1.8132    0.4883 C   0  0  1  0  0  0  0  0  0  0  0  0
    1.9073   -2.9554    1.1750 C   0  0  1  0  0  0  0  0  0  0  0  0
    2.9633   -3.9572    0.7473 C   0  0  0  0  0  0  0  0  0  0  0  0
    3.7922    0.8552    0.4688 C   0  0  0  0  0  0  0  0  0  0  0  0
    2.4977    1.0851   -1.5681 C   0  0  0  0  0  0  0  0  0  0  0  0
    3.4564    2.2859    0.8934 C   0  0  0  0  0  0  0  0  0  0  0  0
    2.1184    2.5241   -1.2146 C   0  0  0  0  0  0  0  0  0  0  0  0
    3.1731    3.1712   -0.3187 C   0  0  0  0  0  0  0  0  0  0  0  0
    2.6963    4.5195    0.1248 C   0  0  0  0  0  0  0  0  0  0  0  0
   -1.3090   -1.4876    0.0474 C   0  0  0  0  0  0  0  0  0  0  0  0
   -3.3797   -0.1264    0.5368 C   0  0  0  0  0  0  0  0  0  0  0  0
   -3.9432    0.8750    1.3276 C   0  0  0  0  0  0  0  0  0  0  0  0
   -4.1431   -0.7458   -0.4528 C   0  0  0  0  0  0  0  0  0  0  0  0
   -5.2700    1.2569    1.1291 C   0  0  0  0  0  0  0  0  0  0  0  0
   -5.4698   -0.3640   -0.6514 C   0  0  0  0  0  0  0  0  0  0  0  0
   -6.0333    0.6373    0.1395 C   0  0  0  0  0  0  0  0  0  0  0  0
   -8.0505    0.3353   -1.0832 C   0  0  0  0  0  0  0  0  0  0  0  0
    3.7575   -1.1370   -1.5364 H   0  0  0  0  0  0  0  0  0  0  0  0
    1.0696   -1.2025   -1.7172 H   0  0  0  0  0  0  0  0  0  0  0  0
    0.4395   -3.3710   -0.3312 H   0  0  0  0  0  0  0  0  0  0  0  0
    4.6379   -1.3924    0.8189 H   0  0  0  0  0  0  0  0  0  0  0  0
    1.3272   -3.3104    2.0331 H   0  0  0  0  0  0  0  0  0  0  0  0
    3.4241   -4.4359    1.6180 H   0  0  0  0  0  0  0  0  0  0  0  0
    2.5964   -4.7317    0.0686 H   0  0  0  0  0  0  0  0  0  0  0  0
    4.7558    0.8424   -0.0573 H   0  0  0  0  0  0  0  0  0  0  0  0
    3.9096    0.3459    1.4293 H   0  0  0  0  0  0  0  0  0  0  0  0
    1.6856    0.6843   -2.1813 H   0  0  0  0  0  0  0  0  0  0  0  0
    3.3975    1.0944   -2.1982 H   0  0  0  0  0  0  0  0  0  0  0  0
    2.5883    2.2598    1.5663 H   0  0  0  0  0  0  0  0  0  0  0  0
    4.2870    2.7038    1.4759 H   0  0  0  0  0  0  0  0  0  0  0  0
    1.9983    3.1065   -2.1365 H   0  0  0  0  0  0  0  0  0  0  0  0
    1.1396    2.5325   -0.7157 H   0  0  0  0  0  0  0  0  0  0  0  0
    4.1055    3.2879   -0.8873 H   0  0  0  0  0  0  0  0  0  0  0  0
    0.2810   -0.8977    1.2567 H   0  0  0  0  0  0  0  0  0  0  0  0
    1.3078   -3.2988   -2.3830 H   0  0  0  0  0  0  0  0  0  0  0  0
    3.5350    5.3748   -1.6029 H   0  0  0  0  0  0  0  0  0  0  0  0
    2.7448    6.4928   -0.5505 H   0  0  0  0  0  0  0  0  0  0  0  0
   -1.5431   -0.0177    1.4784 H   0  0  0  0  0  0  0  0  0  0  0  0
   -3.3594    1.3658    2.1021 H   0  0  0  0  0  0  0  0  0  0  0  0
   -3.7769   -1.5276   -1.1033 H   0  0  0  0  0  0  0  0  0  0  0  0
   -5.7035    2.0376    1.7482 H   0  0  0  0  0  0  0  0  0  0  0  0
   -6.0065   -0.8855   -1.4367 H   0  0  0  0  0  0  0  0  0  0  0  0
   -9.0609    0.7569   -1.0981 H   0  0  0  0  0  0  0  0  0  0  0  0
   -8.1535   -0.7337   -0.8678 H   0  0  0  0  0  0  0  0  0  0  0  0
   -7.6126    0.5199   -2.0700 H   0  0  0  0  0  0  0  0  0  0  0  0
  1 14  1  0  0  0  0
  1 15  1  0  0  0  0
  2 14  1  0  0  0  0
  2 16  1  0  0  0  0
  3 12  1  0  0  0  0
  3 48  1  0  0  0  0
  4 22  2  0  0  0  0
  5 23  2  0  0  0  0
  6 29  1  0  0  0  0
  6 30  1  0  0  0  0
  7 11  1  0  0  0  0
  7 17  1  0  0  0  0
  7 18  1  0  0  0  0
  8 13  1  0  0  0  0
  8 23  1  0  0  0  0
  8 47  1  0  0  0  0
  9 22  1  0  0  0  0
  9 49  1  0  0  0  0
  9 50  1  0  0  0  0
 10 23  1  0  0  0  0
 10 24  1  0  0  0  0
 10 51  1  0  0  0  0
 11 12  1  0  0  0  0
 11 14  1  0  0  0  0
 11 31  1  0  0  0  0
 12 13  1  0  0  0  0
 12 32  1  0  0  0  0
 13 15  1  0  0  0  0
 13 33  1  0  0  0  0
 14 34  1  0  0  0  0
 15 16  1  0  0  0  0
 15 35  1  0  0  0  0
 16 36  1  0  0  0  0
 16 37  1  0  0  0  0
 17 19  1  0  0  0  0
 17 38  1  0  0  0  0
 17 39  1  0  0  0  0
 18 20  1  0  0  0  0
 18 40  1  0  0  0  0
 18 41  1  0  0  0  0
 19 21  1  0  0  0  0
 19 42  1  0  0  0  0
 19 43  1  0  0  0  0
 20 21  1  0  0  0  0
 20 44  1  0  0  0  0
 20 45  1  0  0  0  0
 21 22  1  0  0  0  0
 21 46  1  0  0  0  0
 24 25  2  0  0  0  0
 24 26  1  0  0  0  0
 25 27  1  0  0  0  0
 25 52  1  0  0  0  0
 26 28  2  0  0  0  0
 26 53  1  0  0  0  0
 27 29  2  0  0  0  0
 27 54  1  0  0  0  0
 28 29  1  0  0  0  0
 28 55  1  0  0  0  0
 30 56  1  0  0  0  0
 30 57  1  0  0  0  0
 30 58  1  0  0  0  0
M  END
> <PUBCHEM_COMPOUND_CID>
28960535

> <PUBCHEM_CONFORMER_RMSD>
1

> <PUBCHEM_CONFORMER_DIVERSEORDER>
1
43
14
22
39
21
41
34
36
17
27
40
20
23
37
9
32
35
31
8
38
30
42
28
33
6
26
4
10
24
12
2
5
44
19
25
18
3
29
7
15
13
11
16

> <PUBCHEM_MMFF94_PARTIAL_CHARGES>
37
1 -0.56
10 -0.55
11 0.27
12 0.28
13 0.3
14 0.56
15 0.28
16 0.28
17 0.27
18 0.27
2 -0.56
21 0.06
22 0.57
23 0.69
24 0.12
25 -0.15
26 -0.15
27 -0.15
28 -0.15
29 0.08
3 -0.68
30 0.28
4 -0.57
47 0.37
48 0.4
49 0.37
5 -0.57
50 0.37
51 0.37
52 0.15
53 0.15
54 0.15
55 0.15
6 -0.36
7 -0.81
8 -0.73
9 -0.8

> <PUBCHEM_EFFECTIVE_ROTOR_COUNT>
9.4

> <PUBCHEM_PHARMACOPHORE_FEATURES>
14
1 1 acceptor
1 10 donor
1 2 acceptor
1 3 acceptor
1 3 donor
1 4 acceptor
1 5 acceptor
1 6 acceptor
1 7 cation
1 8 donor
1 9 donor
6 24 25 26 27 28 29 rings
6 7 17 18 19 20 21 rings
8 1 2 11 12 13 14 15 16 rings

> <PUBCHEM_HEAVY_ATOM_COUNT>
30

> <PUBCHEM_ATOM_DEF_STEREO_COUNT>
5

> <PUBCHEM_ATOM_UDEF_STEREO_COUNT>
0

> <PUBCHEM_BOND_DEF_STEREO_COUNT>
0

> <PUBCHEM_BOND_UDEF_STEREO_COUNT>
0

> <PUBCHEM_ISOTOPIC_ATOM_COUNT>
0

> <PUBCHEM_COMPONENT_COUNT>
1

> <PUBCHEM_CACTVS_TAUTO_COUNT>
6

> <PUBCHEM_CONFORMER_ID>
01B9E71700000001

> <PUBCHEM_MMFF94_ENERGY>
93.9848

> <PUBCHEM_FEATURE_SELFOVERLAP>
71.152

> <PUBCHEM_SHAPE_FINGERPRINT>
10439779 11 18411413990945864696
10675989 125 18341900748356302713
10937287 8 18049725418998887944
11059845 2 17618482717086518152
11456790 92 17679024799227779481
12107183 9 17902775690754351816
12166972 35 18270960116476615987
13533116 47 18335141973423515789
13583140 156 18187094931630089883
13590594 115 18193846929403656442
13878862 14 18115291329146167351
13944108 23 18335710420608626356
13965767 371 17824247422945592348
14068700 675 17916309334012842890
14251764 75 18123200253471362849
14556957 393 17702937030176455105
14849402 71 18335985346038914506
15142526 21 18190459552668370363
17980427 23 18198880639770504418
18681886 176 18270397187782298826
21033648 29 17022897918369081959
21133410 127 17895190068896215317
21133410 221 15687576578130826680
21315764 268 18335134251230508413
21344244 78 17972862684465390882
21860390 5 18343029856608054646
22122407 14 18265628602385446113
23559900 14 18341338790582335815
245318 6 18117568546271069501
345986 75 17535177848791995386
34797466 226 14979944892408826587
376196 1 18124320664493708686
44317340 157 18408326592992524723
474 4 18336265738125041674
513532 50 17918001551069321492
57091435 61 18338513148888325833
57124632 79 18265331883715213808
5895379 119 17487353559242583968
59521099 67 18340759339174308625
6086070 43 18335998496733825426
6201320 215 16321757331617260532
67856867 119 18411134741041553751
9849439 229 17974293419296082997
9981440 41 17976819019074327626

> <PUBCHEM_SHAPE_MULTIPOLES>
562.25
14.4
6.04
1.38
38.75
6.44
0.19
4.82
1.03
-12.47
-0.38
-0.29
-0.17
-0.92

> <PUBCHEM_SHAPE_SELFOVERLAP>
1199.698

> <PUBCHEM_SHAPE_VOLUME>
307.9

> <PUBCHEM_COORDINATE_TYPE>
2
5
10

$$$$
