86769009
  -OEChem-12032416393D

 42 44  0     1  0  0  0  0  0999 V2000
    0.0816   -0.8984    0.2062 O   0  0  0  0  0  0  0  0  0  0  0  0
   -1.1494    2.4553   -0.1712 O   0  0  0  0  0  0  0  0  0  0  0  0
    3.4609    1.9690   -0.3978 O   0  0  0  0  0  0  0  0  0  0  0  0
   -3.3691    0.2468    0.0968 N   0  0  0  0  0  0  0  0  0  0  0  0
    2.5877    0.2981    0.9544 N   0  0  0  0  0  0  0  0  0  0  0  0
   -6.4231   -1.5291   -0.1490 N   0  0  0  0  0  0  0  0  0  0  0  0
   -7.7810    0.1955    0.1882 N   0  0  0  0  0  0  0  0  0  0  0  0
    7.1621   -1.3890   -0.3675 N   0  0  0  0  0  0  0  0  0  0  0  0
   -1.9777    0.1634   -0.3165 C   0  0  1  0  0  0  0  0  0  0  0  0
   -1.0728    1.1579    0.3868 C   0  0  1  0  0  0  0  0  0  0  0  0
    0.2926    0.5226    0.1611 C   0  0  1  0  0  0  0  0  0  0  0  0
   -1.3261   -1.1564    0.0624 C   0  0  0  0  0  0  0  0  0  0  0  0
    1.3206    0.9223    1.2045 C   0  0  0  0  0  0  0  0  0  0  0  0
   -4.2359   -0.4733   -0.8284 C   0  0  0  0  0  0  0  0  0  0  0  0
   -5.6799   -0.4117   -0.4069 C   0  0  0  0  0  0  0  0  0  0  0  0
    3.5713    0.8809    0.1610 C   0  0  0  0  0  0  0  0  0  0  0  0
   -6.5394    0.6399   -0.1921 C   0  0  0  0  0  0  0  0  0  0  0  0
    4.8184    0.0944   -0.0216 C   0  0  0  0  0  0  0  0  0  0  0  0
   -7.6771   -1.1148    0.2043 C   0  0  0  0  0  0  0  0  0  0  0  0
    5.5894    0.2642   -1.1663 C   0  0  0  0  0  0  0  0  0  0  0  0
    5.2180   -0.8161    0.9503 C   0  0  0  0  0  0  0  0  0  0  0  0
    6.7419   -0.4948   -1.2903 C   0  0  0  0  0  0  0  0  0  0  0  0
    6.3872   -1.5267    0.7317 C   0  0  0  0  0  0  0  0  0  0  0  0
   -1.8931    0.3333   -1.3993 H   0  0  0  0  0  0  0  0  0  0  0  0
   -1.3089    1.2186    1.4565 H   0  0  0  0  0  0  0  0  0  0  0  0
    0.6727    0.7647   -0.8402 H   0  0  0  0  0  0  0  0  0  0  0  0
   -1.6844   -1.5367    1.0260 H   0  0  0  0  0  0  0  0  0  0  0  0
   -1.4761   -1.9342   -0.6925 H   0  0  0  0  0  0  0  0  0  0  0  0
    1.0069    0.5911    2.2006 H   0  0  0  0  0  0  0  0  0  0  0  0
    1.4484    2.0099    1.2243 H   0  0  0  0  0  0  0  0  0  0  0  0
   -3.6502    1.2275    0.1196 H   0  0  0  0  0  0  0  0  0  0  0  0
   -3.9321   -1.5250   -0.8958 H   0  0  0  0  0  0  0  0  0  0  0  0
   -4.1616   -0.0447   -1.8359 H   0  0  0  0  0  0  0  0  0  0  0  0
   -0.9404    2.3935   -1.1187 H   0  0  0  0  0  0  0  0  0  0  0  0
    2.7180   -0.6345    1.3317 H   0  0  0  0  0  0  0  0  0  0  0  0
   -6.1070   -2.4880   -0.2076 H   0  0  0  0  0  0  0  0  0  0  0  0
   -6.3299    1.6952   -0.2918 H   0  0  0  0  0  0  0  0  0  0  0  0
   -8.4618   -1.8127    0.4594 H   0  0  0  0  0  0  0  0  0  0  0  0
    5.3109    0.9603   -1.9501 H   0  0  0  0  0  0  0  0  0  0  0  0
    4.6765   -0.9736    1.8760 H   0  0  0  0  0  0  0  0  0  0  0  0
    7.3775   -0.4007   -2.1646 H   0  0  0  0  0  0  0  0  0  0  0  0
    6.7464   -2.2441    1.4622 H   0  0  0  0  0  0  0  0  0  0  0  0
  1 11  1  0  0  0  0
  1 12  1  0  0  0  0
  2 10  1  0  0  0  0
  2 34  1  0  0  0  0
  3 16  2  0  0  0  0
  4  9  1  0  0  0  0
  4 14  1  0  0  0  0
  4 31  1  0  0  0  0
  5 13  1  0  0  0  0
  5 16  1  0  0  0  0
  5 35  1  0  0  0  0
  6 15  1  0  0  0  0
  6 19  1  0  0  0  0
  6 36  1  0  0  0  0
  7 17  1  0  0  0  0
  7 19  2  0  0  0  0
  8 22  2  0  0  0  0
  8 23  1  0  0  0  0
  9 10  1  0  0  0  0
  9 12  1  0  0  0  0
  9 24  1  0  0  0  0
 10 11  1  0  0  0  0
 10 25  1  0  0  0  0
 11 13  1  0  0  0  0
 11 26  1  0  0  0  0
 12 27  1  0  0  0  0
 12 28  1  0  0  0  0
 13 29  1  0  0  0  0
 13 30  1  0  0  0  0
 14 15  1  0  0  0  0
 14 32  1  0  0  0  0
 14 33  1  0  0  0  0
 15 17  2  0  0  0  0
 16 18  1  0  0  0  0
 17 37  1  0  0  0  0
 18 20  2  0  0  0  0
 18 21  1  0  0  0  0
 19 38  1  0  0  0  0
 20 22  1  0  0  0  0
 20 39  1  0  0  0  0
 21 23  2  0  0  0  0
 21 40  1  0  0  0  0
 22 41  1  0  0  0  0
 23 42  1  0  0  0  0
M  END
> <PUBCHEM_COMPOUND_CID>
86769009

> <PUBCHEM_CONFORMER_RMSD>
1

> <PUBCHEM_CONFORMER_DIVERSEORDER>
1
94
28
119
46
135
104
142
125
40
34
57
111
67
91
38
50
41
44
66
131
8
127
18
26
17
147
100
85
33
140
121
32
70
5
92
134
105
106
12
112
77
116
68
143
82
89
21
97
16
13
42
122
79
152
47
108
113
61
3
60
6
123
19
130
126
49
141
63
86
138
99
101
90
9
25
39
22
73
7
59
107
102
144
74
109
96
52
14
72
133
118
58
80
45
48
139
136
53
15
128
78
4
146
117
43
137
11
56
81
93
31
10
76
98
20
65
132
120
124
129
84
75
2
110
36
150
54
37
30
71
114
35
149
88
29
148
69
103
83
87
24
27
115
55
151
64
62
51
95
23
145

> <PUBCHEM_MMFF94_PARTIAL_CHARGES>
33
1 -0.56
10 0.28
11 0.28
12 0.28
13 0.3
14 0.45
15 -0.33
16 0.54
17 0.08
18 0.09
19 0.04
2 -0.68
20 -0.15
21 -0.15
22 0.16
23 0.16
3 -0.57
31 0.36
34 0.4
35 0.37
36 0.27
37 0.15
38 0.15
39 0.15
4 -0.9
40 0.15
41 0.15
42 0.15
5 -0.73
6 0.03
7 -0.57
8 -0.62
9 0.27

> <PUBCHEM_EFFECTIVE_ROTOR_COUNT>
8

> <PUBCHEM_PHARMACOPHORE_FEATURES>
13
1 1 acceptor
1 2 acceptor
1 2 donor
1 3 acceptor
1 4 cation
1 4 donor
1 5 donor
1 6 donor
1 8 acceptor
3 6 7 19 cation
5 1 9 10 11 12 rings
5 6 7 15 17 19 rings
6 8 18 20 21 22 23 rings

> <PUBCHEM_HEAVY_ATOM_COUNT>
23

> <PUBCHEM_ATOM_DEF_STEREO_COUNT>
3

> <PUBCHEM_ATOM_UDEF_STEREO_COUNT>
0

> <PUBCHEM_BOND_DEF_STEREO_COUNT>
0

> <PUBCHEM_BOND_UDEF_STEREO_COUNT>
0

> <PUBCHEM_ISOTOPIC_ATOM_COUNT>
0

> <PUBCHEM_COMPONENT_COUNT>
1

> <PUBCHEM_CACTVS_TAUTO_COUNT>
4

> <PUBCHEM_CONFORMER_ID>
052BFD7100000001

> <PUBCHEM_MMFF94_ENERGY>
43.1416

> <PUBCHEM_FEATURE_SELFOVERLAP>
65.973

> <PUBCHEM_SHAPE_FINGERPRINT>
10 15 11743835872078398114
10299344 5 18334013887172467587
11524674 6 17131830989071758783
11638347 137 13254804529498408332
11719270 70 17775851207046586414
12166972 35 17967816063089630109
125118 31 10159706801958291195
13533116 47 17749100059378432682
13668630 136 18342740702382844702
13673619 4 18201998824133486713
13685833 64 17989205949769476488
13862211 1 18412544314404764473
13885169 127 17917433086251655097
13914758 101 15769784537367015355
14251752 14 18412823569237012253
14251764 18 17418378008230400928
14294032 229 18122351181434544105
14344974 204 17843117271952482143
14856354 85 18187086179040154007
14933364 13 17894629258141201093
15183329 4 18410859849605863562
15849732 13 15285360626238254835
21150785 3 16877944940433275934
21267235 1 18410294713857083713
21781051 124 18337398230791314275
220451 1 16877654678480914339
221357 26 17240481399628934292
22224240 67 12679460880676729589
22956985 138 17626679206946371774
23035841 295 18410853270354386283
23081809 10 14635133608994397701
23522609 53 18195556785564869432
23559900 14 18338792441990086184
246663 6 18412829088153943051
28498 318 17846499210134414133
300161 21 8142086463587524657
3004659 81 18411418423626062872
328311 84 18413392059803772899
34797466 226 16008750203824262606
4107672 100 17968371248517523317
465052 167 18272370905647815460
5207 217 13262396661657073297
5758199 1 11314303928585039357
59682541 35 10303804385105223222
59755656 215 18273215274669954943
59755656 520 18114176463148288947
6438161 24 18261386729406450906

> <PUBCHEM_SHAPE_MULTIPOLES>
430.82
23.53
1.59
0.97
14.68
0.38
0.04
-9.75
3.09
-0.43
-0.05
-1.29
-0.03
-0.3

> <PUBCHEM_SHAPE_SELFOVERLAP>
913.406

> <PUBCHEM_SHAPE_VOLUME>
240.5

> <PUBCHEM_COORDINATE_TYPE>
2
5
10

$$$$
