7143905
  -OEChem-12032416413D

 49 53  0     1  0  0  0  0  0999 V2000
    2.6352   -1.4563   -0.6613 S   0  0  0  0  0  0  0  0  0  0  0  0
    2.6782   -1.6842   -2.0902 O   0  0  0  0  0  0  0  0  0  0  0  0
    2.1445   -2.4767    0.2411 O   0  0  0  0  0  0  0  0  0  0  0  0
   -2.8975    0.8600   -1.7727 O   0  0  0  0  0  0  0  0  0  0  0  0
    1.8039    0.0069   -0.3523 N   0  0  2  0  0  0  0  0  0  0  0  0
   -1.1094    1.2292   -0.3216 N   0  0  0  0  0  0  0  0  0  0  0  0
   -6.9278   -0.1137    0.1362 N   0  0  0  0  0  0  0  0  0  0  0  0
   -5.9497   -2.2593   -0.3608 N   0  0  0  0  0  0  0  0  0  0  0  0
    1.0946    2.2847   -1.0888 C   0  0  1  0  0  0  0  0  0  0  0  0
    0.8127    1.6208    1.2587 C   0  0  2  0  0  0  0  0  0  0  0  0
    1.1919    2.7842    0.3465 C   0  0  0  0  0  0  0  0  0  0  0  0
    2.0613    1.1116   -1.3197 C   0  0  0  0  0  0  0  0  0  0  0  0
    1.8161    0.4689    1.0680 C   0  0  0  0  0  0  0  0  0  0  0  0
   -0.3624    1.9106   -1.3879 C   0  0  0  0  0  0  0  0  0  0  0  0
   -0.5993    1.1428    0.9758 C   0  0  0  0  0  0  0  0  0  0  0  0
   -1.3480    0.6201    1.9602 C   0  0  0  0  0  0  0  0  0  0  0  0
   -2.4002    0.7687   -0.6488 C   0  0  0  0  0  0  0  0  0  0  0  0
   -3.2015    0.1548    0.4675 C   0  0  0  0  0  0  0  0  0  0  0  0
   -2.6653    0.1145    1.6965 C   0  0  0  0  0  0  0  0  0  0  0  0
    4.2602   -1.0054   -0.1383 C   0  0  0  0  0  0  0  0  0  0  0  0
   -4.5444   -0.4014    0.2272 C   0  0  0  0  0  0  0  0  0  0  0  0
    4.6299   -1.2128    1.1804 C   0  0  0  0  0  0  0  0  0  0  0  0
    5.1382   -0.4516   -1.0555 C   0  0  0  0  0  0  0  0  0  0  0  0
    5.9134   -0.8561    1.5937 C   0  0  0  0  0  0  0  0  0  0  0  0
    6.4219   -0.0951   -0.6422 C   0  0  0  0  0  0  0  0  0  0  0  0
   -5.6835    0.3627    0.3490 C   0  0  0  0  0  0  0  0  0  0  0  0
   -4.7355   -1.7170   -0.1326 C   0  0  0  0  0  0  0  0  0  0  0  0
    6.8094   -0.2973    0.6824 C   0  0  0  0  0  0  0  0  0  0  0  0
   -6.9869   -1.4135   -0.2107 C   0  0  0  0  0  0  0  0  0  0  0  0
    1.3870    3.0897   -1.7747 H   0  0  0  0  0  0  0  0  0  0  0  0
    0.8815    1.9685    2.2979 H   0  0  0  0  0  0  0  0  0  0  0  0
    0.5220    3.6386    0.5053 H   0  0  0  0  0  0  0  0  0  0  0  0
    2.2098    3.1293    0.5651 H   0  0  0  0  0  0  0  0  0  0  0  0
    1.9383    0.7480   -2.3453 H   0  0  0  0  0  0  0  0  0  0  0  0
    3.0882    1.4741   -1.2048 H   0  0  0  0  0  0  0  0  0  0  0  0
    2.8125    0.8316    1.3409 H   0  0  0  0  0  0  0  0  0  0  0  0
    1.5531   -0.3613    1.7331 H   0  0  0  0  0  0  0  0  0  0  0  0
   -0.9235    2.8315   -1.5987 H   0  0  0  0  0  0  0  0  0  0  0  0
   -0.4253    1.3048   -2.3007 H   0  0  0  0  0  0  0  0  0  0  0  0
   -0.9734    0.5347    2.9749 H   0  0  0  0  0  0  0  0  0  0  0  0
   -3.2002   -0.3187    2.5367 H   0  0  0  0  0  0  0  0  0  0  0  0
    3.9480   -1.6448    1.9064 H   0  0  0  0  0  0  0  0  0  0  0  0
    4.8557   -0.2829   -2.0901 H   0  0  0  0  0  0  0  0  0  0  0  0
    6.2152   -1.0129    2.6252 H   0  0  0  0  0  0  0  0  0  0  0  0
    7.1194    0.3411   -1.3513 H   0  0  0  0  0  0  0  0  0  0  0  0
   -5.6413    1.4114    0.6272 H   0  0  0  0  0  0  0  0  0  0  0  0
   -3.9026   -2.4024   -0.2561 H   0  0  0  0  0  0  0  0  0  0  0  0
    7.8087   -0.0191    1.0043 H   0  0  0  0  0  0  0  0  0  0  0  0
   -7.9740   -1.8226   -0.3877 H   0  0  0  0  0  0  0  0  0  0  0  0
  1  2  2  0  0  0  0
  1  3  2  0  0  0  0
  1  5  1  0  0  0  0
  1 20  1  0  0  0  0
  4 17  2  0  0  0  0
  5 12  1  0  0  0  0
  5 13  1  0  0  0  0
  6 14  1  0  0  0  0
  6 15  1  0  0  0  0
  6 17  1  0  0  0  0
  7 26  2  0  0  0  0
  7 29  1  0  0  0  0
  8 27  1  0  0  0  0
  8 29  2  0  0  0  0
  9 11  1  0  0  0  0
  9 12  1  0  0  0  0
  9 14  1  0  0  0  0
  9 30  1  0  0  0  0
 10 11  1  0  0  0  0
 10 13  1  0  0  0  0
 10 15  1  0  0  0  0
 10 31  1  0  0  0  0
 11 32  1  0  0  0  0
 11 33  1  0  0  0  0
 12 34  1  0  0  0  0
 12 35  1  0  0  0  0
 13 36  1  0  0  0  0
 13 37  1  0  0  0  0
 14 38  1  0  0  0  0
 14 39  1  0  0  0  0
 15 16  2  0  0  0  0
 16 19  1  0  0  0  0
 16 40  1  0  0  0  0
 17 18  1  0  0  0  0
 18 19  2  0  0  0  0
 18 21  1  0  0  0  0
 19 41  1  0  0  0  0
 20 22  2  0  0  0  0
 20 23  1  0  0  0  0
 21 26  1  0  0  0  0
 21 27  2  0  0  0  0
 22 24  1  0  0  0  0
 22 42  1  0  0  0  0
 23 25  2  0  0  0  0
 23 43  1  0  0  0  0
 24 28  2  0  0  0  0
 24 44  1  0  0  0  0
 25 28  1  0  0  0  0
 25 45  1  0  0  0  0
 26 46  1  0  0  0  0
 27 47  1  0  0  0  0
 28 48  1  0  0  0  0
 29 49  1  0  0  0  0
M  END
> <PUBCHEM_COMPOUND_CID>
7143905

> <PUBCHEM_CONFORMER_RMSD>
0.8

> <PUBCHEM_CONFORMER_DIVERSEORDER>
1
9
3
7
5
6
4
8
2

> <PUBCHEM_MMFF94_PARTIAL_CHARGES>
37
1 1.45
10 0.14
12 0.36
13 0.36
14 0.3
15 -0.03
16 -0.15
17 0.62
18 -0.01
19 -0.15
2 -0.65
20 -0.01
21 0.03
22 -0.15
23 -0.15
24 -0.15
25 -0.15
26 0.16
27 0.16
28 -0.15
29 0.47
3 -0.65
4 -0.57
40 0.15
41 0.15
42 0.15
43 0.15
44 0.15
45 0.15
46 0.15
47 0.15
48 0.15
49 0.15
5 -0.85
6 -0.47
7 -0.62
8 -0.62

> <PUBCHEM_EFFECTIVE_ROTOR_COUNT>
4

> <PUBCHEM_PHARMACOPHORE_FEATURES>
10
1 2 acceptor
1 3 acceptor
1 4 acceptor
1 7 acceptor
3 7 8 29 cation
6 20 22 23 24 25 28 rings
6 5 9 10 11 12 13 rings
6 6 15 16 17 18 19 rings
6 6 9 10 11 14 15 rings
6 7 8 21 26 27 29 rings

> <PUBCHEM_HEAVY_ATOM_COUNT>
29

> <PUBCHEM_ATOM_DEF_STEREO_COUNT>
2

> <PUBCHEM_ATOM_UDEF_STEREO_COUNT>
0

> <PUBCHEM_BOND_DEF_STEREO_COUNT>
0

> <PUBCHEM_BOND_UDEF_STEREO_COUNT>
0

> <PUBCHEM_ISOTOPIC_ATOM_COUNT>
0

> <PUBCHEM_COMPONENT_COUNT>
1

> <PUBCHEM_CACTVS_TAUTO_COUNT>
1

> <PUBCHEM_CONFORMER_ID>
006D01E100000001

> <PUBCHEM_MMFF94_ENERGY>
71.8578

> <PUBCHEM_FEATURE_SELFOVERLAP>
52.35

> <PUBCHEM_SHAPE_FINGERPRINT>
10 15 15195567917980507536
10447042 23 17676490532215547946
10670039 82 14923932437073846495
10930396 42 17823675630309169624
11135609 99 17988079027539663631
11796584 16 18130797759071205655
11828532 37 14635453631376092443
11963148 33 18409158905641180562
12107698 1 17894347782848181077
12516196 113 18272933812662288752
12522641 33 17970628717667284332
12596602 18 16702308918521023275
12892183 10 16773242777436639248
13540713 4 16372713970625369633
13911987 19 18042712596830262388
14068700 675 18411418418793422025
14150023 24 17832427879926034796
14251751 18 18412261744644098351
14294032 229 15431421842874300341
14341114 176 15339119031217084594
14347332 77 18040992925884294733
1454969 45 18336272310242233988
14840074 17 17704066287887159260
14955137 171 17561086916845020428
15183329 4 14490468664798374008
15510800 12 18269848652266773159
15728490 51 17489583510985142678
15840311 113 14907892808608042528
15849732 13 17632858629074470607
15927050 60 17553757761629753464
17349148 13 16951140452424378444
17492 89 17899689064956316938
17857418 61 18410014342913762959
1813 80 18342468001913777348
18222031 100 18410864244027404680
18335252 114 12396289392137393363
18393751 57 17845633942635577258
19784866 240 18343589551139717609
19958102 18 15502653750576209338
20028762 73 18272371996812966046
20465049 17 11891338651031555423
20567600 247 18333729135093713555
20567600 70 18341894133815782003
21756936 100 8358251510713134841
23522609 53 18043560272365985125
23559900 14 16805610329774259525
249057 3 18410572886726623669
2747138 104 17846500344396209738
2838139 119 7997967955707670651
3004659 81 18411702114584235459
3009799 131 16588025723385722680
3737641 26 17417255308385618854
392239 28 16773216466825920362
4058900 60 8934731019339388413
4066623 53 16298103206991066716
4098825 35 17676203563722634101
4325135 7 18410858755096156062
437795 51 17631729491374496232
439807 62 17749107799131058575
463206 1 18338517568441477795
59682541 35 18060411444219270266
59755656 520 10159691378899478073
613672 6 18114479884869506986
6669772 16 17677895828482876344
9862260 156 14418125219470790056

> <PUBCHEM_SHAPE_MULTIPOLES>
563.12
16.6
2.29
1.63
7.06
0.32
-0.07
-10.52
-0.65
0.17
0.43
-0.91
0.21
-0.41

> <PUBCHEM_SHAPE_SELFOVERLAP>
1231.155

> <PUBCHEM_SHAPE_VOLUME>
304.4

> <PUBCHEM_COORDINATE_TYPE>
2
5
10

$$$$
