11913350
  -OEChem-12032416283D

 49 53  0     1  0  0  0  0  0999 V2000
    2.8639    3.4935   -2.0312 F   0  0  0  0  0  0  0  0  0  0  0  0
   -1.6386   -3.3937   -0.8749 O   0  0  0  0  0  0  0  0  0  0  0  0
   -0.8458   -0.5164   -1.8012 O   0  0  0  0  0  0  0  0  0  0  0  0
   -5.5701   -0.1723   -1.2131 O   0  0  0  0  0  0  0  0  0  0  0  0
   -4.2376    1.6873    1.4326 O   0  0  0  0  0  0  0  0  0  0  0  0
    1.0979   -2.6999    0.3849 N   0  0  0  0  0  0  0  0  0  0  0  0
   -3.4874   -0.2830   -0.1990 N   0  0  0  0  0  0  0  0  0  0  0  0
    2.6154   -0.9117    0.3106 N   0  0  0  0  0  0  0  0  0  0  0  0
    2.6416   -2.4817    2.1386 N   0  0  0  0  0  0  0  0  0  0  0  0
   -0.5916   -1.2738   -0.6064 C   0  0  1  0  0  0  0  0  0  0  0  0
   -1.8380   -2.0858   -0.3132 C   0  0  1  0  0  0  0  0  0  0  0  0
    0.4753   -2.3122   -0.8620 C   0  0  2  0  0  0  0  0  0  0  0  0
   -2.9344   -1.3607   -1.0551 C   0  0  2  0  0  0  0  0  0  0  0  0
   -0.3194   -3.4712   -1.4347 C   0  0  0  0  0  0  0  0  0  0  0  0
   -2.1958   -0.7484   -2.2292 C   0  0  0  0  0  0  0  0  0  0  0  0
    2.1495   -2.0105    0.9620 C   0  0  0  0  0  0  0  0  0  0  0  0
   -4.7718    0.2146   -0.3636 C   0  0  0  0  0  0  0  0  0  0  0  0
   -5.1667    1.3116    0.5571 C   0  0  0  0  0  0  0  0  0  0  0  0
    3.6411   -0.2640    0.9012 C   0  0  0  0  0  0  0  0  0  0  0  0
   -6.3193    1.9799    0.6376 C   0  0  0  0  0  0  0  0  0  0  0  0
    3.6666   -1.7858    2.6730 C   0  0  0  0  0  0  0  0  0  0  0  0
    4.2124   -0.6587    2.0938 C   0  0  0  0  0  0  0  0  0  0  0  0
    4.1195    0.8997    0.1940 C   0  0  0  0  0  0  0  0  0  0  0  0
   -6.1121    2.8998    1.6929 C   0  0  0  0  0  0  0  0  0  0  0  0
   -4.8309    2.6821    2.1434 C   0  0  0  0  0  0  0  0  0  0  0  0
    3.2438    1.6504   -0.5935 C   0  0  0  0  0  0  0  0  0  0  0  0
    5.4598    1.2794    0.2948 C   0  0  0  0  0  0  0  0  0  0  0  0
    3.7059    2.7752   -1.2767 C   0  0  0  0  0  0  0  0  0  0  0  0
    5.9219    2.4042   -0.3886 C   0  0  0  0  0  0  0  0  0  0  0  0
    5.0450    3.1521   -1.1743 C   0  0  0  0  0  0  0  0  0  0  0  0
   -0.3558   -0.5573    0.1871 H   0  0  0  0  0  0  0  0  0  0  0  0
   -2.0251   -2.2140    0.7578 H   0  0  0  0  0  0  0  0  0  0  0  0
    1.2306   -1.9988   -1.5920 H   0  0  0  0  0  0  0  0  0  0  0  0
   -3.7545   -2.0045   -1.3878 H   0  0  0  0  0  0  0  0  0  0  0  0
   -0.4232   -3.3747   -2.5211 H   0  0  0  0  0  0  0  0  0  0  0  0
    0.1087   -4.4547   -1.2178 H   0  0  0  0  0  0  0  0  0  0  0  0
   -2.1519   -1.4499   -3.0696 H   0  0  0  0  0  0  0  0  0  0  0  0
   -2.6279    0.1907   -2.5878 H   0  0  0  0  0  0  0  0  0  0  0  0
    0.7246   -3.4860    0.9047 H   0  0  0  0  0  0  0  0  0  0  0  0
   -2.8807    0.1343    0.5016 H   0  0  0  0  0  0  0  0  0  0  0  0
   -7.2111    1.8559    0.0406 H   0  0  0  0  0  0  0  0  0  0  0  0
    4.0455   -2.1691    3.6145 H   0  0  0  0  0  0  0  0  0  0  0  0
    5.0193   -0.1347    2.5897 H   0  0  0  0  0  0  0  0  0  0  0  0
   -6.8092    3.6303    2.0773 H   0  0  0  0  0  0  0  0  0  0  0  0
   -4.2256    3.1269    2.9197 H   0  0  0  0  0  0  0  0  0  0  0  0
    2.1920    1.3905   -0.6873 H   0  0  0  0  0  0  0  0  0  0  0  0
    6.1828    0.7119    0.8747 H   0  0  0  0  0  0  0  0  0  0  0  0
    6.9657    2.6949   -0.3140 H   0  0  0  0  0  0  0  0  0  0  0  0
    5.4048    4.0270   -1.7076 H   0  0  0  0  0  0  0  0  0  0  0  0
  1 28  1  0  0  0  0
  2 11  1  0  0  0  0
  2 14  1  0  0  0  0
  3 10  1  0  0  0  0
  3 15  1  0  0  0  0
  4 17  2  0  0  0  0
  5 18  1  0  0  0  0
  5 25  1  0  0  0  0
  6 12  1  0  0  0  0
  6 16  1  0  0  0  0
  6 39  1  0  0  0  0
  7 13  1  0  0  0  0
  7 17  1  0  0  0  0
  7 40  1  0  0  0  0
  8 16  1  0  0  0  0
  8 19  2  0  0  0  0
  9 16  2  0  0  0  0
  9 21  1  0  0  0  0
 10 11  1  0  0  0  0
 10 12  1  0  0  0  0
 10 31  1  0  0  0  0
 11 13  1  0  0  0  0
 11 32  1  0  0  0  0
 12 14  1  0  0  0  0
 12 33  1  0  0  0  0
 13 15  1  0  0  0  0
 13 34  1  0  0  0  0
 14 35  1  0  0  0  0
 14 36  1  0  0  0  0
 15 37  1  0  0  0  0
 15 38  1  0  0  0  0
 17 18  1  0  0  0  0
 18 20  2  0  0  0  0
 19 22  1  0  0  0  0
 19 23  1  0  0  0  0
 20 24  1  0  0  0  0
 20 41  1  0  0  0  0
 21 22  2  0  0  0  0
 21 42  1  0  0  0  0
 22 43  1  0  0  0  0
 23 26  2  0  0  0  0
 23 27  1  0  0  0  0
 24 25  2  0  0  0  0
 24 44  1  0  0  0  0
 25 45  1  0  0  0  0
 26 28  1  0  0  0  0
 26 46  1  0  0  0  0
 27 29  2  0  0  0  0
 27 47  1  0  0  0  0
 28 30  2  0  0  0  0
 29 30  1  0  0  0  0
 29 48  1  0  0  0  0
 30 49  1  0  0  0  0
M  END
> <PUBCHEM_COMPOUND_CID>
11913350

> <PUBCHEM_CONFORMER_RMSD>
1

> <PUBCHEM_CONFORMER_DIVERSEORDER>
1
51
352
279
31
272
172
249
95
223
195
378
252
296
34
91
50
173
147
299
366
284
98
220
261
254
370
159
59
285
183
163
365
191
373
129
359
58
75
78
300
164
14
53
248
318
298
137
174
353
213
246
18
271
170
24
100
317
382
135
49
55
253
146
19
228
138
371
364
150
286
162
313
243
71
339
96
178
89
179
336
7
62
308
154
210
238
134
205
201
54
297
306
41
278
369
224
103
351
340
385
81
290
157
155
288
48
37
175
267
25
239
188
199
132
168
29
311
388
38
131
165
269
329
326
236
84
203
380
166
121
35
280
389
82
264
80
101
310
44
47
381
320
61
319
139
292
143
282
90
276
294
73
281
63
185
102
5
46
358
345
274
257
232
27
361
291
387
142
241
242
158
265
259
192
86
116
144
354
268
126
347
209
105
330
338
211
383
204
303
104
307
321
123
240
233
26
324
344
119
250
93
260
109
88
108
125
136
217
43
390
314
342
184
45
335
187
15
375
180
216
153
332
40
122
312
32
222
127
113
251
189
230
167
9
333
214
270
156
36
355
327
85
346
33
118
293
111
106
65
384
193
367
229
148
74
21
235
145
379
368
277
83
2
323
256
22
60
341
151
215
181
110
39
23
386
356
363
11
133
350
107
322
200
182
115
266
176
225
152
194
331
76
305
244
226
391
234
140
304
262
8
309
227
202
97
325
28
255
275
376
316
4
207
186
99
362
349
12
343
301
198
263
17
357
295
69
177
208
70
212
190
20
171
258
287
56
94
206
360
334
87
160
377
247
237
114
245
374
117
141
30
197
348
372
66
52
231
221
77
68
219
283
112
79
337
92
42
218
6
302
130
169
328
10
289
273
64
315
149
16
128
161
72
3
124
13
57
67
196
120

> <PUBCHEM_MMFF94_PARTIAL_CHARGES>
40
1 -0.19
10 0.28
11 0.28
12 0.37
13 0.3
14 0.28
15 0.28
16 0.72
17 0.71
18 0.05
19 0.31
2 -0.56
20 -0.15
21 0.16
22 -0.15
24 -0.15
25 -0.01
26 -0.15
27 -0.15
28 0.19
29 -0.15
3 -0.56
30 -0.15
39 0.4
4 -0.57
40 0.37
41 0.15
42 0.15
43 0.15
44 0.15
45 0.15
46 0.15
47 0.15
48 0.15
49 0.15
5 -0.28
6 -0.87
7 -0.73
8 -0.62
9 -0.62

> <PUBCHEM_EFFECTIVE_ROTOR_COUNT>
7.2

> <PUBCHEM_PHARMACOPHORE_FEATURES>
13
1 2 acceptor
1 3 acceptor
1 4 acceptor
1 5 acceptor
1 6 donor
1 7 donor
1 8 acceptor
4 6 8 9 16 cation
5 2 10 11 12 14 rings
5 3 10 11 13 15 rings
5 5 18 20 24 25 rings
6 23 26 27 28 29 30 rings
6 8 9 16 19 21 22 rings

> <PUBCHEM_HEAVY_ATOM_COUNT>
30

> <PUBCHEM_ATOM_DEF_STEREO_COUNT>
4

> <PUBCHEM_ATOM_UDEF_STEREO_COUNT>
0

> <PUBCHEM_BOND_DEF_STEREO_COUNT>
0

> <PUBCHEM_BOND_UDEF_STEREO_COUNT>
0

> <PUBCHEM_ISOTOPIC_ATOM_COUNT>
0

> <PUBCHEM_COMPONENT_COUNT>
1

> <PUBCHEM_CACTVS_TAUTO_COUNT>
6

> <PUBCHEM_CONFORMER_ID>
00B5C88600000001

> <PUBCHEM_MMFF94_ENERGY>
77.4688

> <PUBCHEM_FEATURE_SELFOVERLAP>
66.676

> <PUBCHEM_SHAPE_FINGERPRINT>
100830 2 18340779182050128481
10615611 76 18410573989868411667
10917259 128 18128804430749000136
1200032 147 18337124410015218530
12107183 9 18410002227027759930
12128747 34 16227714538918902149
12422481 6 18116425943336437893
12633257 1 18113893815217920651
12975358 362 17626404333403298313
13398642 44 18337402573393211685
13583140 156 17169806921877136391
14040221 275 15936692679308081520
14251764 75 18409454716748460292
14294032 229 17917716855358391919
14765038 42 18188493613774097260
14790565 3 18342460356697910433
14840074 17 18259707812930135261
14849402 71 18125446302160457663
14950920 106 17676485008613085059
15163728 17 18059867146834314887
15238133 3 18131057226192516714
15297060 5 17917723400202190368
16120349 67 18131083639987912586
1768 23 18271536320809882665
19304671 126 15482662460224523907
21033650 10 17418091069828624411
21458453 9 15937550336119503384
21796203 349 17242711119105851186
22122407 14 18336270127708147825
245318 6 18341339907431497209
2838139 119 17059193870743318451
38570 142 18261121802764372430
437795 70 14620248394622958937
4408954 64 16524971741925257747
5223283 242 14907915842269646539
57634706 229 17316212612692706892
57724786 102 18409164377112199018
6034566 193 18340778117113626857
6058803 2 18193251174596516986
6608658 132 17988911302487226821
6609424 69 17833270822284439012
6636735 143 16588025715223478577
86090 222 15793429410321003315

> <PUBCHEM_SHAPE_MULTIPOLES>
566.71
15.53
4.68
2.27
10.91
0.31
-0.73
17.7
-4.38
-0.86
0.68
-0.66
-0.05
-6.61

> <PUBCHEM_SHAPE_SELFOVERLAP>
1256.069

> <PUBCHEM_SHAPE_VOLUME>
304.3

> <PUBCHEM_COORDINATE_TYPE>
2
5
10

$$$$
