26742649
  -OEChem-12032416183D

 53 56  0     1  0  0  0  0  0999 V2000
   -2.3306    2.1476   -2.2407 O   0  0  0  0  0  0  0  0  0  0  0  0
    3.0366   -0.1271    2.3319 O   0  0  0  0  0  0  0  0  0  0  0  0
    2.5694    1.1083    0.4030 N   0  0  0  0  0  0  0  0  0  0  0  0
   -2.2015    1.9498    0.0673 N   0  0  0  0  0  0  0  0  0  0  0  0
   -4.4879   -1.7570    1.1519 N   0  0  0  0  0  0  0  0  0  0  0  0
   -4.9327   -3.4014   -0.2730 N   0  0  0  0  0  0  0  0  0  0  0  0
    0.8364    2.8317    0.8165 C   0  0  2  0  0  0  0  0  0  0  0  0
    0.6602    2.9642   -0.7160 C   0  0  1  0  0  0  0  0  0  0  0  0
    1.0511    1.6666   -1.4506 C   0  0  0  0  0  0  0  0  0  0  0  0
    2.2645    2.3407    1.1305 C   0  0  0  0  0  0  0  0  0  0  0  0
   -0.1954    1.9275    1.5183 C   0  0  0  0  0  0  0  0  0  0  0  0
   -0.7103    3.5033   -1.1458 C   0  0  0  0  0  0  0  0  0  0  0  0
    2.4562    1.2168   -1.0558 C   0  0  0  0  0  0  0  0  0  0  0  0
   -1.6349    2.3959    1.3382 C   0  0  0  0  0  0  0  0  0  0  0  0
   -1.8246    2.4741   -1.1640 C   0  0  0  0  0  0  0  0  0  0  0  0
   -3.1983    0.8894    0.1343 C   0  0  0  0  0  0  0  0  0  0  0  0
    2.9422   -0.0374    1.1087 C   0  0  0  0  0  0  0  0  0  0  0  0
   -2.5762   -0.5038    0.0797 C   0  0  0  0  0  0  0  0  0  0  0  0
    3.2319   -1.2570    0.3445 C   0  0  0  0  0  0  0  0  0  0  0  0
   -3.6030   -1.6087    0.1212 C   0  0  0  0  0  0  0  0  0  0  0  0
    4.5294   -1.5099   -0.1007 C   0  0  0  0  0  0  0  0  0  0  0  0
    2.2095   -2.1638    0.0651 C   0  0  0  0  0  0  0  0  0  0  0  0
   -3.8970   -2.6348   -0.7455 C   0  0  0  0  0  0  0  0  0  0  0  0
    4.8045   -2.6696   -0.8255 C   0  0  0  0  0  0  0  0  0  0  0  0
    2.4845   -3.3233   -0.6596 C   0  0  0  0  0  0  0  0  0  0  0  0
    3.7820   -3.5762   -1.1049 C   0  0  0  0  0  0  0  0  0  0  0  0
   -5.2655   -2.8460    0.8711 C   0  0  0  0  0  0  0  0  0  0  0  0
    0.7375    3.8350    1.2539 H   0  0  0  0  0  0  0  0  0  0  0  0
    1.3847    3.7302   -1.0327 H   0  0  0  0  0  0  0  0  0  0  0  0
    1.0110    1.8227   -2.5349 H   0  0  0  0  0  0  0  0  0  0  0  0
    0.3439    0.8630   -1.2138 H   0  0  0  0  0  0  0  0  0  0  0  0
    2.9994    3.0920    0.8160 H   0  0  0  0  0  0  0  0  0  0  0  0
    2.3942    2.1998    2.2089 H   0  0  0  0  0  0  0  0  0  0  0  0
    0.0262    1.9409    2.5935 H   0  0  0  0  0  0  0  0  0  0  0  0
   -0.0876    0.8867    1.1942 H   0  0  0  0  0  0  0  0  0  0  0  0
   -0.6225    3.8887   -2.1708 H   0  0  0  0  0  0  0  0  0  0  0  0
   -1.0102    4.3613   -0.5343 H   0  0  0  0  0  0  0  0  0  0  0  0
    2.6893    0.2741   -1.5550 H   0  0  0  0  0  0  0  0  0  0  0  0
    3.2009    1.9503   -1.3871 H   0  0  0  0  0  0  0  0  0  0  0  0
   -2.2448    1.9978    2.1572 H   0  0  0  0  0  0  0  0  0  0  0  0
   -1.7054    3.4872    1.3985 H   0  0  0  0  0  0  0  0  0  0  0  0
   -3.8851    1.0025   -0.7142 H   0  0  0  0  0  0  0  0  0  0  0  0
   -3.8083    1.0265    1.0349 H   0  0  0  0  0  0  0  0  0  0  0  0
   -1.9739   -0.6072   -0.8316 H   0  0  0  0  0  0  0  0  0  0  0  0
   -1.8893   -0.6427    0.9232 H   0  0  0  0  0  0  0  0  0  0  0  0
    5.3332   -0.8098    0.1114 H   0  0  0  0  0  0  0  0  0  0  0  0
    1.1947   -1.9753    0.4062 H   0  0  0  0  0  0  0  0  0  0  0  0
   -4.5561   -1.1725    1.9744 H   0  0  0  0  0  0  0  0  0  0  0  0
   -3.4167   -2.8621   -1.6863 H   0  0  0  0  0  0  0  0  0  0  0  0
    5.8146   -2.8664   -1.1724 H   0  0  0  0  0  0  0  0  0  0  0  0
    1.6882   -4.0290   -0.8777 H   0  0  0  0  0  0  0  0  0  0  0  0
    3.9960   -4.4791   -1.6694 H   0  0  0  0  0  0  0  0  0  0  0  0
   -6.0495   -3.1785    1.5363 H   0  0  0  0  0  0  0  0  0  0  0  0
  1 15  2  0  0  0  0
  2 17  2  0  0  0  0
  3 10  1  0  0  0  0
  3 13  1  0  0  0  0
  3 17  1  0  0  0  0
  4 14  1  0  0  0  0
  4 15  1  0  0  0  0
  4 16  1  0  0  0  0
  5 20  1  0  0  0  0
  5 27  1  0  0  0  0
  5 48  1  0  0  0  0
  6 23  1  0  0  0  0
  6 27  2  0  0  0  0
  7  8  1  0  0  0  0
  7 10  1  0  0  0  0
  7 11  1  0  0  0  0
  7 28  1  0  0  0  0
  8  9  1  0  0  0  0
  8 12  1  0  0  0  0
  8 29  1  0  0  0  0
  9 13  1  0  0  0  0
  9 30  1  0  0  0  0
  9 31  1  0  0  0  0
 10 32  1  0  0  0  0
 10 33  1  0  0  0  0
 11 14  1  0  0  0  0
 11 34  1  0  0  0  0
 11 35  1  0  0  0  0
 12 15  1  0  0  0  0
 12 36  1  0  0  0  0
 12 37  1  0  0  0  0
 13 38  1  0  0  0  0
 13 39  1  0  0  0  0
 14 40  1  0  0  0  0
 14 41  1  0  0  0  0
 16 18  1  0  0  0  0
 16 42  1  0  0  0  0
 16 43  1  0  0  0  0
 17 19  1  0  0  0  0
 18 20  1  0  0  0  0
 18 44  1  0  0  0  0
 18 45  1  0  0  0  0
 19 21  2  0  0  0  0
 19 22  1  0  0  0  0
 20 23  2  0  0  0  0
 21 24  1  0  0  0  0
 21 46  1  0  0  0  0
 22 25  2  0  0  0  0
 22 47  1  0  0  0  0
 23 49  1  0  0  0  0
 24 26  2  0  0  0  0
 24 50  1  0  0  0  0
 25 26  1  0  0  0  0
 25 51  1  0  0  0  0
 26 52  1  0  0  0  0
 27 53  1  0  0  0  0
M  END
> <PUBCHEM_COMPOUND_CID>
26742649

> <PUBCHEM_CONFORMER_RMSD>
0.8

> <PUBCHEM_CONFORMER_DIVERSEORDER>
1
88
103
30
44
122
69
82
58
124
111
2
113
121
33
72
91
31
48
70
43
94
105
54
110
100
87
85
95
89
115
29
68
75
36
84
18
45
22
14
3
21
12
59
60
55
118
67
16
61
101
86
23
117
35
9
76
98
114
116
4
13
99
34
104
109
65
74
28
108
24
19
119
90
93
26
83
92
46
96
73
52
6
49
63
78
38
77
20
40
66
41
120
5
27
53
64
47
56
112
79
51
62
80
15
102
17
57
7
42
37
97
71
123
8
106
10
50
39
81
25
107
11
32

> <PUBCHEM_MMFF94_PARTIAL_CHARGES>
31
1 -0.57
10 0.3
12 0.06
13 0.3
14 0.3
15 0.57
16 0.3
17 0.54
18 0.18
19 0.09
2 -0.57
20 -0.33
21 -0.15
22 -0.15
23 0.08
24 -0.15
25 -0.15
26 -0.15
27 0.04
3 -0.66
4 -0.66
46 0.15
47 0.15
48 0.27
49 0.15
5 0.03
50 0.15
51 0.15
52 0.15
53 0.15
6 -0.57

> <PUBCHEM_EFFECTIVE_ROTOR_COUNT>
6.6

> <PUBCHEM_PHARMACOPHORE_FEATURES>
8
1 1 acceptor
1 2 acceptor
1 5 donor
3 5 6 27 cation
5 5 6 20 23 27 rings
6 19 21 22 24 25 26 rings
6 3 7 8 9 10 13 rings
7 4 7 8 11 12 14 15 rings

> <PUBCHEM_HEAVY_ATOM_COUNT>
27

> <PUBCHEM_ATOM_DEF_STEREO_COUNT>
2

> <PUBCHEM_ATOM_UDEF_STEREO_COUNT>
0

> <PUBCHEM_BOND_DEF_STEREO_COUNT>
0

> <PUBCHEM_BOND_UDEF_STEREO_COUNT>
0

> <PUBCHEM_ISOTOPIC_ATOM_COUNT>
0

> <PUBCHEM_COMPONENT_COUNT>
1

> <PUBCHEM_CACTVS_TAUTO_COUNT>
4

> <PUBCHEM_CONFORMER_ID>
01980F7900000001

> <PUBCHEM_MMFF94_ENERGY>
60.4851

> <PUBCHEM_FEATURE_SELFOVERLAP>
40.623

> <PUBCHEM_SHAPE_FINGERPRINT>
107951 10 16377785660902329729
11014199 57 18410301280497965410
11135609 12 18409732820344187872
12422481 6 18339658776170393771
12633257 1 15051725391603144264
1361 2 17979634864285772387
13989917 61 18051134993270810963
14114206 34 17023193677726283401
14251757 5 17978234850711985174
14863182 85 18050287260840431256
15664445 248 17534059950456691173
19315092 285 17272848956045237099
1979834 28 18124030397624173307
20775530 9 18409449176325005611
21285901 2 17824527798484320365
23379529 103 18196944266570662718
23428019 142 16542168073877970422
23466295 7 18195536891201617666
2818148 4 18268171806248348588
3737641 26 18342183301163081830
445580 102 18343023250748198590
463206 1 18266742376644433297
56633871 153 18340499880811458379

> <PUBCHEM_SHAPE_MULTIPOLES>
523.98
9.77
5.73
1.62
3.76
1.55
0.07
13.85
0.42
1.75
-1.24
-0.16
-0.96
1.86

> <PUBCHEM_SHAPE_SELFOVERLAP>
1118.011

> <PUBCHEM_SHAPE_VOLUME>
287.9

> <PUBCHEM_COORDINATE_TYPE>
2
5
10

$$$$
