75536253
  -OEChem-12032416303D

 56 59  0     1  0  0  0  0  0999 V2000
   -6.8052    0.0077    1.1571 F   0  0  0  0  0  0  0  0  0  0  0  0
    2.6590   -1.1401    0.8470 O   0  0  0  0  0  0  0  0  0  0  0  0
    5.4557   -1.3570    1.7522 O   0  0  0  0  0  0  0  0  0  0  0  0
   -1.4805   -1.6111   -1.7362 O   0  0  0  0  0  0  0  0  0  0  0  0
    1.6642    1.5300    0.8429 N   0  0  0  0  0  0  0  0  0  0  0  0
   -0.6534    4.7858   -0.6168 N   0  0  0  0  0  0  0  0  0  0  0  0
   -0.1795   -2.0381   -1.9735 N   0  0  0  0  0  0  0  0  0  0  0  0
    3.5271   -0.0408    1.1521 C   0  0  1  0  0  0  0  0  0  0  0  0
    4.9879   -0.3750    0.8237 C   0  0  2  0  0  0  0  0  0  0  0  0
    2.7326   -1.6178   -0.4985 C   0  0  1  0  0  0  0  0  0  0  0  0
    1.0571    2.4619   -0.1046 C   0  0  0  0  0  0  0  0  0  0  0  0
    5.1514   -0.9478   -0.5815 C   0  0  0  0  0  0  0  0  0  0  0  0
    4.1523   -2.0738   -0.8315 C   0  0  0  0  0  0  0  0  0  0  0  0
    3.0442    1.2441    0.4824 C   0  0  0  0  0  0  0  0  0  0  0  0
    1.5290    3.8967    0.1574 C   0  0  0  0  0  0  0  0  0  0  0  0
   -0.4708    2.3853   -0.0191 C   0  0  0  0  0  0  0  0  0  0  0  0
    1.7471   -2.7727   -0.6293 C   0  0  0  0  0  0  0  0  0  0  0  0
    0.8017    4.8842   -0.7563 C   0  0  0  0  0  0  0  0  0  0  0  0
   -1.1201    3.4319   -0.9258 C   0  0  0  0  0  0  0  0  0  0  0  0
    0.3298   -2.2839   -0.7630 C   0  0  0  0  0  0  0  0  0  0  0  0
   -0.5943   -2.0324    0.2659 C   0  0  0  0  0  0  0  0  0  0  0  0
   -1.7156   -1.6119   -0.3991 C   0  0  0  0  0  0  0  0  0  0  0  0
   -3.0271   -1.1934    0.0022 C   0  0  0  0  0  0  0  0  0  0  0  0
   -3.3662   -1.1630    1.3550 C   0  0  0  0  0  0  0  0  0  0  0  0
   -3.9642   -0.8178   -0.9602 C   0  0  0  0  0  0  0  0  0  0  0  0
   -4.6423   -0.7572    1.7452 C   0  0  0  0  0  0  0  0  0  0  0  0
   -5.2404   -0.4120   -0.5700 C   0  0  0  0  0  0  0  0  0  0  0  0
   -5.5794   -0.3817    0.7826 C   0  0  0  0  0  0  0  0  0  0  0  0
    3.4488    0.0910    2.2394 H   0  0  0  0  0  0  0  0  0  0  0  0
    5.6199    0.5109    0.9511 H   0  0  0  0  0  0  0  0  0  0  0  0
    2.4409   -0.8161   -1.1875 H   0  0  0  0  0  0  0  0  0  0  0  0
    1.3233    2.1804   -1.1333 H   0  0  0  0  0  0  0  0  0  0  0  0
    6.1668   -1.3361   -0.7232 H   0  0  0  0  0  0  0  0  0  0  0  0
    4.9998   -0.1571   -1.3254 H   0  0  0  0  0  0  0  0  0  0  0  0
    4.2173   -2.4022   -1.8751 H   0  0  0  0  0  0  0  0  0  0  0  0
    4.4227   -2.9314   -0.2024 H   0  0  0  0  0  0  0  0  0  0  0  0
    3.1508    1.1524   -0.6037 H   0  0  0  0  0  0  0  0  0  0  0  0
    3.6868    2.0736    0.7991 H   0  0  0  0  0  0  0  0  0  0  0  0
    1.1350    0.6575    0.8330 H   0  0  0  0  0  0  0  0  0  0  0  0
    2.6077    3.9904   -0.0132 H   0  0  0  0  0  0  0  0  0  0  0  0
    1.3454    4.1701    1.2052 H   0  0  0  0  0  0  0  0  0  0  0  0
   -0.8022    2.5469    1.0156 H   0  0  0  0  0  0  0  0  0  0  0  0
   -0.8186    1.3884   -0.3135 H   0  0  0  0  0  0  0  0  0  0  0  0
    1.8113   -3.4357    0.2430 H   0  0  0  0  0  0  0  0  0  0  0  0
    1.9838   -3.3785   -1.5135 H   0  0  0  0  0  0  0  0  0  0  0  0
    1.0913    4.7172   -1.8012 H   0  0  0  0  0  0  0  0  0  0  0  0
    1.1109    5.9031   -0.4987 H   0  0  0  0  0  0  0  0  0  0  0  0
   -2.2067    3.3952   -0.7911 H   0  0  0  0  0  0  0  0  0  0  0  0
   -0.9213    3.1966   -1.9787 H   0  0  0  0  0  0  0  0  0  0  0  0
   -1.0976    5.4478   -1.2524 H   0  0  0  0  0  0  0  0  0  0  0  0
    6.3946   -1.5205    1.5588 H   0  0  0  0  0  0  0  0  0  0  0  0
   -0.4539   -2.1432    1.3312 H   0  0  0  0  0  0  0  0  0  0  0  0
   -2.6577   -1.4494    2.1279 H   0  0  0  0  0  0  0  0  0  0  0  0
   -3.7381   -0.8276   -2.0234 H   0  0  0  0  0  0  0  0  0  0  0  0
   -4.9070   -0.7333    2.7982 H   0  0  0  0  0  0  0  0  0  0  0  0
   -5.9707   -0.1193   -1.3187 H   0  0  0  0  0  0  0  0  0  0  0  0
  1 28  1  0  0  0  0
  2  8  1  0  0  0  0
  2 10  1  0  0  0  0
  3  9  1  0  0  0  0
  3 51  1  0  0  0  0
  4  7  1  0  0  0  0
  4 22  1  0  0  0  0
  5 11  1  0  0  0  0
  5 14  1  0  0  0  0
  5 39  1  0  0  0  0
  6 18  1  0  0  0  0
  6 19  1  0  0  0  0
  6 50  1  0  0  0  0
  7 20  2  0  0  0  0
  8  9  1  0  0  0  0
  8 14  1  0  0  0  0
  8 29  1  0  0  0  0
  9 12  1  0  0  0  0
  9 30  1  0  0  0  0
 10 13  1  0  0  0  0
 10 17  1  0  0  0  0
 10 31  1  0  0  0  0
 11 15  1  0  0  0  0
 11 16  1  0  0  0  0
 11 32  1  0  0  0  0
 12 13  1  0  0  0  0
 12 33  1  0  0  0  0
 12 34  1  0  0  0  0
 13 35  1  0  0  0  0
 13 36  1  0  0  0  0
 14 37  1  0  0  0  0
 14 38  1  0  0  0  0
 15 18  1  0  0  0  0
 15 40  1  0  0  0  0
 15 41  1  0  0  0  0
 16 19  1  0  0  0  0
 16 42  1  0  0  0  0
 16 43  1  0  0  0  0
 17 20  1  0  0  0  0
 17 44  1  0  0  0  0
 17 45  1  0  0  0  0
 18 46  1  0  0  0  0
 18 47  1  0  0  0  0
 19 48  1  0  0  0  0
 19 49  1  0  0  0  0
 20 21  1  0  0  0  0
 21 22  2  0  0  0  0
 21 52  1  0  0  0  0
 22 23  1  0  0  0  0
 23 24  2  0  0  0  0
 23 25  1  0  0  0  0
 24 26  1  0  0  0  0
 24 53  1  0  0  0  0
 25 27  2  0  0  0  0
 25 54  1  0  0  0  0
 26 28  2  0  0  0  0
 26 55  1  0  0  0  0
 27 28  1  0  0  0  0
 27 56  1  0  0  0  0
M  END
> <PUBCHEM_COMPOUND_CID>
75536253

> <PUBCHEM_CONFORMER_RMSD>
1

> <PUBCHEM_CONFORMER_DIVERSEORDER>
1
61
88
19
89
95
104
31
85
42
62
100
72
76
40
110
39
27
60
77
87
56
35
116
94
105
37
65
23
50
84
57
115
18
48
111
32
75
113
83
66
49
15
117
44
30
53
12
68
9
73
28
109
90
112
69
106
97
86
80
63
45
55
58
102
8
118
93
16
119
6
51
99
81
59
34
14
67
22
71
26
36
33
82
103
38
74
41
3
91
4
96
5
43
54
20
64
46
25
70
92
98
21
17
78
11
52
107
24
108
29
114
47
79
101
13
2
7
10

> <PUBCHEM_MMFF94_PARTIAL_CHARGES>
32
1 -0.19
10 0.28
11 0.27
14 0.27
17 0.18
18 0.27
19 0.27
2 -0.56
20 0.11
21 -0.15
22 0.09
23 0.05
24 -0.15
25 -0.15
26 -0.15
27 -0.15
28 0.19
3 -0.68
39 0.36
4 -0.02
5 -0.9
50 0.36
51 0.4
52 0.15
53 0.15
54 0.15
55 0.15
56 0.15
6 -0.9
7 -0.41
8 0.28
9 0.28

> <PUBCHEM_EFFECTIVE_ROTOR_COUNT>
8.4

> <PUBCHEM_PHARMACOPHORE_FEATURES>
12
1 2 acceptor
1 3 acceptor
1 3 donor
1 5 cation
1 5 donor
1 6 cation
1 6 donor
1 7 acceptor
5 4 7 20 21 22 rings
6 2 8 9 10 12 13 rings
6 23 24 25 26 27 28 rings
6 6 11 15 16 18 19 rings

> <PUBCHEM_HEAVY_ATOM_COUNT>
28

> <PUBCHEM_ATOM_DEF_STEREO_COUNT>
3

> <PUBCHEM_ATOM_UDEF_STEREO_COUNT>
0

> <PUBCHEM_BOND_DEF_STEREO_COUNT>
0

> <PUBCHEM_BOND_UDEF_STEREO_COUNT>
0

> <PUBCHEM_ISOTOPIC_ATOM_COUNT>
0

> <PUBCHEM_COMPONENT_COUNT>
1

> <PUBCHEM_CACTVS_TAUTO_COUNT>
1

> <PUBCHEM_CONFORMER_ID>
0480977D00000001

> <PUBCHEM_MMFF94_ENERGY>
35.6332

> <PUBCHEM_FEATURE_SELFOVERLAP>
60.898

> <PUBCHEM_SHAPE_FINGERPRINT>
10006869 2 17977091371936289295
10670039 82 18265634099827358878
10688039 33 18335141942952257358
11135926 11 18119802771289894284
12156800 1 17909866182451591276
12166972 35 18202001079550128915
12293681 4 18260271841278953186
12422481 6 18200606773972158017
12553582 1 18338227280228682116
12633257 1 18334292106284906491
12788726 201 18260834757157069490
13075007 39 18043265706750163347
13402501 40 18339074887597523285
13583140 156 18187922919815481315
14020679 6 18115031908663692859
14363568 33 18191882320688546396
14790565 3 17544194243577354892
14840074 17 18343585169893137452
150020 26 18193001641317317593
15081414 286 18338797922268122308
151778 21 18048040967259228485
15276724 80 18342173376548630940
18785283 64 18192722352346708107
20739085 24 18339361984739223936
21285901 2 18059020488784933406
21360442 67 17181651776329521133
21360443 126 18044654192288921261
21641784 216 18191329116690744468
21796203 349 18192176938671456360
22182313 1 17985820446468346942
469060 322 18337685108846679680
474 4 18272651281287712043
513202 73 18194402195782430594
5283268 108 18410294688055481962
6086070 43 18044344284707793103

> <PUBCHEM_SHAPE_MULTIPOLES>
536.4
11.59
5.29
1.45
8.08
9.67
-0.1
-6.59
-4.75
-2.52
1.98
0.35
-0.6
0.4

> <PUBCHEM_SHAPE_SELFOVERLAP>
1135.441

> <PUBCHEM_SHAPE_VOLUME>
300

> <PUBCHEM_COORDINATE_TYPE>
2
5
10

$$$$
