11866342
  -OEChem-12032416203D

 50 51  0     1  0  0  0  0  0999 V2000
    0.3703    3.2599    0.5483 S   0  0  0  0  0  0  0  0  0  0  0  0
   -4.9243   -0.2380   -0.3510 F   0  0  0  0  0  0  0  0  0  0  0  0
   -3.7468   -0.3437    1.4674 F   0  0  0  0  0  0  0  0  0  0  0  0
   -4.8436    1.4723    0.9896 F   0  0  0  0  0  0  0  0  0  0  0  0
    4.0791    1.3859    1.5551 O   0  0  0  0  0  0  0  0  0  0  0  0
    4.2055    0.4647   -1.9826 O   0  0  0  0  0  0  0  0  0  0  0  0
    1.0230    4.1204   -0.4199 O   0  0  0  0  0  0  0  0  0  0  0  0
   -0.2900    3.8329    1.7056 O   0  0  0  0  0  0  0  0  0  0  0  0
    2.5141   -3.2975    1.3229 O   0  0  0  0  0  0  0  0  0  0  0  0
   -1.7046   -2.4426   -1.0066 O   0  0  0  0  0  0  0  0  0  0  0  0
    1.4612    2.0721    1.0760 N   0  0  0  0  0  0  0  0  0  0  0  0
    1.1010   -2.9380   -0.4959 N   0  0  0  0  0  0  0  0  0  0  0  0
   -2.9686   -3.2249    0.7467 N   0  0  0  0  0  0  0  0  0  0  0  0
    3.6755    1.4229    0.1845 C   0  0  2  0  0  0  0  0  0  0  0  0
    2.1534    1.2137    0.0826 C   0  0  1  0  0  0  0  0  0  0  0  0
    4.4412    0.3368   -0.5820 C   0  0  1  0  0  0  0  0  0  0  0  0
    4.0647   -1.0788   -0.1106 C   0  0  0  0  0  0  0  0  0  0  0  0
    1.7336   -0.2168    0.2844 C   0  0  0  0  0  0  0  0  0  0  0  0
    2.6034   -1.2347    0.2023 C   0  0  0  0  0  0  0  0  0  0  0  0
    2.0831   -2.5885    0.4144 C   0  0  0  0  0  0  0  0  0  0  0  0
   -0.8370    2.2934   -0.3078 C   0  0  0  0  0  0  0  0  0  0  0  0
   -1.9422    1.7899    0.3784 C   0  0  0  0  0  0  0  0  0  0  0  0
    0.4398   -4.2233   -0.4892 C   0  0  0  0  0  0  0  0  0  0  0  0
   -0.6845    2.0344   -1.6699 C   0  0  0  0  0  0  0  0  0  0  0  0
   -2.8947    1.0274   -0.2976 C   0  0  0  0  0  0  0  0  0  0  0  0
   -0.8097   -4.2236    0.3807 C   0  0  0  0  0  0  0  0  0  0  0  0
   -1.6370    1.2720   -2.3460 C   0  0  0  0  0  0  0  0  0  0  0  0
   -2.7420    0.7684   -1.6597 C   0  0  0  0  0  0  0  0  0  0  0  0
   -4.0762    0.4887    0.4356 C   0  0  0  0  0  0  0  0  0  0  0  0
   -1.8476   -3.2054   -0.0556 C   0  0  0  0  0  0  0  0  0  0  0  0
    3.9228    2.4172   -0.2070 H   0  0  0  0  0  0  0  0  0  0  0  0
    1.8604    1.4949   -0.9326 H   0  0  0  0  0  0  0  0  0  0  0  0
    5.5187    0.4731   -0.4287 H   0  0  0  0  0  0  0  0  0  0  0  0
    4.3524   -1.8123   -0.8735 H   0  0  0  0  0  0  0  0  0  0  0  0
    4.6290   -1.3116    0.8012 H   0  0  0  0  0  0  0  0  0  0  0  0
    0.6830   -0.4034    0.4951 H   0  0  0  0  0  0  0  0  0  0  0  0
    1.4775    1.7712    2.0580 H   0  0  0  0  0  0  0  0  0  0  0  0
    5.0371    1.5504    1.5825 H   0  0  0  0  0  0  0  0  0  0  0  0
    4.7401   -0.2105   -2.4340 H   0  0  0  0  0  0  0  0  0  0  0  0
    0.8247   -2.2776   -1.2172 H   0  0  0  0  0  0  0  0  0  0  0  0
   -2.0686    1.9779    1.4413 H   0  0  0  0  0  0  0  0  0  0  0  0
    1.1412   -4.9851   -0.1327 H   0  0  0  0  0  0  0  0  0  0  0  0
    0.1835   -4.4552   -1.5286 H   0  0  0  0  0  0  0  0  0  0  0  0
    0.1620    2.4227   -2.2286 H   0  0  0  0  0  0  0  0  0  0  0  0
   -0.5407   -4.0050    1.4214 H   0  0  0  0  0  0  0  0  0  0  0  0
   -1.2711   -5.2175    0.3546 H   0  0  0  0  0  0  0  0  0  0  0  0
   -1.5189    1.0715   -3.4068 H   0  0  0  0  0  0  0  0  0  0  0  0
   -3.4728    0.1759   -2.2033 H   0  0  0  0  0  0  0  0  0  0  0  0
   -3.7441   -2.5937    0.5745 H   0  0  0  0  0  0  0  0  0  0  0  0
   -3.0642   -3.8624    1.5307 H   0  0  0  0  0  0  0  0  0  0  0  0
  1  7  2  0  0  0  0
  1  8  2  0  0  0  0
  1 11  1  0  0  0  0
  1 21  1  0  0  0  0
  2 29  1  0  0  0  0
  3 29  1  0  0  0  0
  4 29  1  0  0  0  0
  5 14  1  0  0  0  0
  5 38  1  0  0  0  0
  6 16  1  0  0  0  0
  6 39  1  0  0  0  0
  9 20  2  0  0  0  0
 10 30  2  0  0  0  0
 11 15  1  0  0  0  0
 11 37  1  0  0  0  0
 12 20  1  0  0  0  0
 12 23  1  0  0  0  0
 12 40  1  0  0  0  0
 13 30  1  0  0  0  0
 13 49  1  0  0  0  0
 13 50  1  0  0  0  0
 14 15  1  0  0  0  0
 14 16  1  0  0  0  0
 14 31  1  0  0  0  0
 15 18  1  0  0  0  0
 15 32  1  0  0  0  0
 16 17  1  0  0  0  0
 16 33  1  0  0  0  0
 17 19  1  0  0  0  0
 17 34  1  0  0  0  0
 17 35  1  0  0  0  0
 18 19  2  0  0  0  0
 18 36  1  0  0  0  0
 19 20  1  0  0  0  0
 21 22  1  0  0  0  0
 21 24  2  0  0  0  0
 22 25  2  0  0  0  0
 22 41  1  0  0  0  0
 23 26  1  0  0  0  0
 23 42  1  0  0  0  0
 23 43  1  0  0  0  0
 24 27  1  0  0  0  0
 24 44  1  0  0  0  0
 25 28  1  0  0  0  0
 25 29  1  0  0  0  0
 26 30  1  0  0  0  0
 26 45  1  0  0  0  0
 26 46  1  0  0  0  0
 27 28  2  0  0  0  0
 27 47  1  0  0  0  0
 28 48  1  0  0  0  0
M  END
> <PUBCHEM_COMPOUND_CID>
11866342

> <PUBCHEM_CONFORMER_RMSD>
1

> <PUBCHEM_CONFORMER_DIVERSEORDER>
1
239
196
127
223
168
96
64
97
174
12
142
61
243
124
217
222
27
230
120
48
179
176
14
81
164
204
191
224
80
216
26
203
103
208
241
234
180
93
237
190
140
169
49
160
94
5
152
121
101
119
148
23
201
105
242
166
232
155
228
219
229
238
162
178
143
70
221
66
106
202
117
54
213
109
7
111
31
129
185
17
172
114
18
149
245
227
51
128
112
3
240
151
158
72
212
187
57
183
42
35
56
210
199
83
41
95
86
24
189
131
76
225
65
182
137
73
126
116
194
188
186
209
30
90
197
122
146
25
102
236
200
171
63
98
55
40
138
170
125
32
4
115
45
110
130
87
9
141
235
84
195
36
206
69
79
244
85
147
50
123
68
39
247
177
218
198
246
233
150
134
226
181
29
175
145
74
161
163
92
11
13
193
135
167
34
144
192
19
153
88
220
6
100
60
89
231
157
215
59
15
207
53
52
38
47
205
173
91
118
20
82
22
214
75
62
58
113
67
154
8
37
16
107
211
78
108
77
132
2
104
184
139
21
71
156
44
136
43
159
133
10
165
99
28
33
46

> <PUBCHEM_MMFF94_PARTIAL_CHARGES>
41
1 1.45
10 -0.57
11 -0.91
12 -0.73
13 -0.8
14 0.28
15 0.49
16 0.28
17 0.14
18 -0.29
19 -0.12
2 -0.34
20 0.62
21 -0.01
22 -0.15
23 0.3
24 -0.15
25 -0.14
26 0.06
27 -0.15
28 -0.15
29 1.16
3 -0.34
30 0.57
36 0.15
37 0.42
38 0.4
39 0.4
4 -0.34
40 0.37
41 0.15
44 0.15
47 0.15
48 0.15
49 0.37
5 -0.68
50 0.37
6 -0.68
7 -0.65
8 -0.65
9 -0.57

> <PUBCHEM_EFFECTIVE_ROTOR_COUNT>
9.8

> <PUBCHEM_PHARMACOPHORE_FEATURES>
13
1 10 acceptor
1 11 donor
1 12 donor
1 13 donor
1 5 acceptor
1 5 donor
1 6 acceptor
1 6 donor
1 7 acceptor
1 8 acceptor
1 9 acceptor
6 14 15 16 17 18 19 rings
6 21 22 24 25 27 28 rings

> <PUBCHEM_HEAVY_ATOM_COUNT>
30

> <PUBCHEM_ATOM_DEF_STEREO_COUNT>
3

> <PUBCHEM_ATOM_UDEF_STEREO_COUNT>
0

> <PUBCHEM_BOND_DEF_STEREO_COUNT>
0

> <PUBCHEM_BOND_UDEF_STEREO_COUNT>
0

> <PUBCHEM_ISOTOPIC_ATOM_COUNT>
0

> <PUBCHEM_COMPONENT_COUNT>
1

> <PUBCHEM_CACTVS_TAUTO_COUNT>
4

> <PUBCHEM_CONFORMER_ID>
00B510E600000001

> <PUBCHEM_MMFF94_ENERGY>
38.7625

> <PUBCHEM_FEATURE_SELFOVERLAP>
66

> <PUBCHEM_SHAPE_FINGERPRINT>
1100329 8 18339645662876070564
11014199 57 17545046364772181730
11513181 2 17409100530942066006
12038231 1 17834111231478105643
12156800 1 16905035841673619142
12553582 1 18270669879539774364
12633257 1 18339918221331921723
13122387 1 17906447732028519575
13140716 1 18411691089461598754
13402501 40 18408044005007556059
1361 2 18410571774024269115
14114211 80 18269578115964532447
14725015 67 17829038815409746915
14765038 42 18272665553315830864
16067690 210 16343442642973097011
19591789 44 18411139091468884822
19930381 70 18267019458370812107
20764821 26 18338220614080853058
238 59 17830419853358727351
3052486 1 18190741023914264958
463206 1 18409449184814395202
469060 322 17604986094935784598
6287921 2 17977681804789436351
9543594 6 17977674430541669875

> <PUBCHEM_SHAPE_MULTIPOLES>
549.26
7.85
5.94
1.52
0.84
4.18
-0.49
-0.53
0.55
0.14
1.09
0.31
-0.81
0.2

> <PUBCHEM_SHAPE_SELFOVERLAP>
1138.936

> <PUBCHEM_SHAPE_VOLUME>
314.2

> <PUBCHEM_COORDINATE_TYPE>
2
5
10

$$$$
