11865680
  -OEChem-12032416393D

 39 39  0     1  0  0  0  0  0999 V2000
   -1.7255    0.0528   -2.1019 O   0  0  0  0  0  0  0  0  0  0  0  0
   -1.9804   -3.0613   -0.1992 O   0  0  0  0  0  0  0  0  0  0  0  0
    1.4005   -0.2235    2.4105 O   0  0  0  0  0  0  0  0  0  0  0  0
   -5.0786    0.6509    0.4776 O   0  0  0  0  0  0  0  0  0  0  0  0
    4.0906    0.3995   -1.6859 O   0  0  0  0  0  0  0  0  0  0  0  0
   -2.8467    1.2216    0.1411 N   0  0  0  0  0  0  0  0  0  0  0  0
    2.4828   -0.8241    0.4350 N   0  0  0  0  0  0  0  0  0  0  0  0
    4.9734    2.3772   -0.9158 N   0  0  0  0  0  0  0  0  0  0  0  0
   -2.2509   -0.8251   -1.1040 C   0  0  1  0  0  0  0  0  0  0  0  0
   -1.3797   -2.0862   -1.0490 C   0  0  1  0  0  0  0  0  0  0  0  0
   -2.2836   -0.1015    0.2558 C   0  0  1  0  0  0  0  0  0  0  0  0
    0.0511   -1.7812   -0.5732 C   0  0  0  0  0  0  0  0  0  0  0  0
    0.1090   -0.7529    0.5205 C   0  0  0  0  0  0  0  0  0  0  0  0
   -0.9313    0.0004    0.9079 C   0  0  0  0  0  0  0  0  0  0  0  0
    1.3786   -0.5702    1.2300 C   0  0  0  0  0  0  0  0  0  0  0  0
   -4.2020    1.4838    0.2626 C   0  0  0  0  0  0  0  0  0  0  0  0
    3.8423   -0.7085    0.9117 C   0  0  0  0  0  0  0  0  0  0  0  0
    4.4086    0.6894    0.7042 C   0  0  0  0  0  0  0  0  0  0  0  0
   -4.5156    2.9496    0.1259 C   0  0  0  0  0  0  0  0  0  0  0  0
    4.4573    1.1091   -0.7539 C   0  0  0  0  0  0  0  0  0  0  0  0
   -3.2775   -1.0772   -1.3962 H   0  0  0  0  0  0  0  0  0  0  0  0
   -1.3111   -2.5368   -2.0468 H   0  0  0  0  0  0  0  0  0  0  0  0
   -2.9216   -0.6774    0.9390 H   0  0  0  0  0  0  0  0  0  0  0  0
    0.5240   -2.7118   -0.2368 H   0  0  0  0  0  0  0  0  0  0  0  0
    0.6062   -1.4045   -1.4410 H   0  0  0  0  0  0  0  0  0  0  0  0
   -0.8314    0.7091    1.7271 H   0  0  0  0  0  0  0  0  0  0  0  0
   -2.2199    1.9921   -0.0758 H   0  0  0  0  0  0  0  0  0  0  0  0
   -1.7446   -0.4233   -2.9496 H   0  0  0  0  0  0  0  0  0  0  0  0
   -2.8719   -3.2404   -0.5435 H   0  0  0  0  0  0  0  0  0  0  0  0
    2.3776   -1.0672   -0.5431 H   0  0  0  0  0  0  0  0  0  0  0  0
    3.8700   -0.9652    1.9762 H   0  0  0  0  0  0  0  0  0  0  0  0
    4.4365   -1.4499    0.3669 H   0  0  0  0  0  0  0  0  0  0  0  0
    5.4277    0.7311    1.1058 H   0  0  0  0  0  0  0  0  0  0  0  0
    3.8026    1.4245    1.2477 H   0  0  0  0  0  0  0  0  0  0  0  0
   -5.5987    3.0927    0.0812 H   0  0  0  0  0  0  0  0  0  0  0  0
   -4.1169    3.4912    0.9881 H   0  0  0  0  0  0  0  0  0  0  0  0
   -4.0711    3.3459   -0.7916 H   0  0  0  0  0  0  0  0  0  0  0  0
    5.2740    2.9453   -0.1302 H   0  0  0  0  0  0  0  0  0  0  0  0
    5.0686    2.7878   -1.8387 H   0  0  0  0  0  0  0  0  0  0  0  0
  1  9  1  0  0  0  0
  1 28  1  0  0  0  0
  2 10  1  0  0  0  0
  2 29  1  0  0  0  0
  3 15  2  0  0  0  0
  4 16  2  0  0  0  0
  5 20  2  0  0  0  0
  6 11  1  0  0  0  0
  6 16  1  0  0  0  0
  6 27  1  0  0  0  0
  7 15  1  0  0  0  0
  7 17  1  0  0  0  0
  7 30  1  0  0  0  0
  8 20  1  0  0  0  0
  8 38  1  0  0  0  0
  8 39  1  0  0  0  0
  9 10  1  0  0  0  0
  9 11  1  0  0  0  0
  9 21  1  0  0  0  0
 10 12  1  0  0  0  0
 10 22  1  0  0  0  0
 11 14  1  0  0  0  0
 11 23  1  0  0  0  0
 12 13  1  0  0  0  0
 12 24  1  0  0  0  0
 12 25  1  0  0  0  0
 13 14  2  0  0  0  0
 13 15  1  0  0  0  0
 14 26  1  0  0  0  0
 16 19  1  0  0  0  0
 17 18  1  0  0  0  0
 17 31  1  0  0  0  0
 17 32  1  0  0  0  0
 18 20  1  0  0  0  0
 18 33  1  0  0  0  0
 18 34  1  0  0  0  0
 19 35  1  0  0  0  0
 19 36  1  0  0  0  0
 19 37  1  0  0  0  0
M  END
> <PUBCHEM_COMPOUND_CID>
11865680

> <PUBCHEM_CONFORMER_RMSD>
0.8

> <PUBCHEM_CONFORMER_DIVERSEORDER>
2
68
58
171
173
5
189
209
97
116
72
74
93
137
75
52
146
192
91
45
205
191
107
81
177
82
147
3
99
175
100
61
179
17
44
21
105
77
165
136
131
115
89
149
148
42
159
193
31
117
12
164
32
140
69
43
63
51
127
134
59
142
95
135
39
161
128
4
139
28
183
18
180
103
10
27
80
92
62
182
6
163
195
143
50
15
144
110
56
79
67
65
112
172
197
85
8
181
76
96
34
119
154
129
47
141
20
168
123
206
106
25
157
41
46
30
108
88
202
151
13
1
109
184
114
40
208
84
199
9
210
125
122
66
22
185
24
26
49
150
83
71
207
48
121
7
170
37
73
101
126
145
162
11
94
55
132
167
160
33
156
35
201
138
19
38
90
130
124
178
98
196
86
166
78
54
186
29
64
113
174
152
133
60
153
87
120
158
16
194
118
187
104
204
23
176
198
188
111
155
102
53
203
14
200
169
70
190
57
36

> <PUBCHEM_MMFF94_PARTIAL_CHARGES>
27
1 -0.68
10 0.28
11 0.44
12 0.14
13 -0.12
14 -0.29
15 0.62
16 0.57
17 0.3
18 0.06
19 0.06
2 -0.68
20 0.57
26 0.15
27 0.37
28 0.4
29 0.4
3 -0.57
30 0.37
38 0.37
39 0.37
4 -0.57
5 -0.57
6 -0.73
7 -0.73
8 -0.8
9 0.28

> <PUBCHEM_EFFECTIVE_ROTOR_COUNT>
7.8

> <PUBCHEM_PHARMACOPHORE_FEATURES>
11
1 1 acceptor
1 1 donor
1 2 acceptor
1 2 donor
1 3 acceptor
1 4 acceptor
1 5 acceptor
1 6 donor
1 7 donor
1 8 donor
6 9 10 11 12 13 14 rings

> <PUBCHEM_HEAVY_ATOM_COUNT>
20

> <PUBCHEM_ATOM_DEF_STEREO_COUNT>
3

> <PUBCHEM_ATOM_UDEF_STEREO_COUNT>
0

> <PUBCHEM_BOND_DEF_STEREO_COUNT>
0

> <PUBCHEM_BOND_UDEF_STEREO_COUNT>
0

> <PUBCHEM_ISOTOPIC_ATOM_COUNT>
0

> <PUBCHEM_COMPONENT_COUNT>
1

> <PUBCHEM_CACTVS_TAUTO_COUNT>
8

> <PUBCHEM_CONFORMER_ID>
00B50E5000000002

> <PUBCHEM_MMFF94_ENERGY>
29.3743

> <PUBCHEM_FEATURE_SELFOVERLAP>
55.83

> <PUBCHEM_SHAPE_FINGERPRINT>
10498660 4 18060140964010768384
107951 10 18201726162477199047
11796584 16 10303805480374936289
12173636 292 18341602754670802078
12186901 62 18059579134558644271
12633257 1 15357990022230846476
12788726 201 18191296285629151683
12895836 83 18343586273932230816
12895837 130 18193286419340514092
1420 369 9223228550814678600
14848178 5 10591760944228356052
15163728 17 18055931908877369049
15342168 16 18334014964781932677
15664445 248 16328201538858479911
15806764 133 17274260698308773810
17349148 13 11023826205730783169
18186145 218 16629663090705568265
18222031 100 12829502427825651603
18785283 64 18121780526130023259
20645477 70 14907892817113431056
20871999 31 18131064991092415231
21618674 53 18186514419048499250
22079108 93 17385730217893077161
22620623 9 17274247482916151391
23227448 37 18341053020384524093
23352939 185 17679001941148339375
23557571 272 17917141831760771728
23559900 14 17203323421558954042
25 1 17631156508002911587
33382 64 11887370544080498269
3472631 163 18411422842836505932
3759504 43 18413386514943134051
474 4 17604149328549298632
49207404 50 14418127409919740512
59682541 52 15338554908638014325
633830 44 18040154020287571650
6913067 236 14418129660218944163
76465 3 9439399125109082748
7808743 9 18412261740037959625
81539 233 18055627314307540067
960060 61 14549018788839181928

> <PUBCHEM_SHAPE_MULTIPOLES>
367.3
10.3
2.55
1.56
3.99
0.11
-0.04
8.96
-1.15
-2.07
-0.63
1.03
-0.07
-1.48

> <PUBCHEM_SHAPE_SELFOVERLAP>
742.195

> <PUBCHEM_SHAPE_VOLUME>
211.4

> <PUBCHEM_COORDINATE_TYPE>
2
5
10

$$$$
