51137387
  -OEChem-12032416203D

 48 51  0     1  0  0  0  0  0999 V2000
    1.0789   -0.8224   -0.3074 O   0  0  0  0  0  0  0  0  0  0  0  0
   -2.7913   -0.3041    0.7908 N   0  0  1  0  0  0  0  0  0  0  0  0
    1.2598   -2.9072    0.4832 N   0  0  0  0  0  0  0  0  0  0  0  0
    2.3865   -2.6371   -0.2710 N   0  0  0  0  0  0  0  0  0  0  0  0
   -3.7194    0.4132   -0.0812 C   0  0  0  0  0  0  0  0  0  0  0  0
   -1.9070   -1.2034    0.0464 C   0  0  0  0  0  0  0  0  0  0  0  0
   -0.8143   -1.5339    1.0721 C   0  0  2  0  0  0  0  0  0  0  0  0
   -1.8925    0.5984    1.5102 C   0  0  0  0  0  0  0  0  0  0  0  0
   -4.6311   -0.5843   -0.8044 C   0  0  0  0  0  0  0  0  0  0  0  0
   -4.5380    1.4148    0.7407 C   0  0  0  0  0  0  0  0  0  0  0  0
   -0.8242   -0.3447    2.0484 C   0  0  0  0  0  0  0  0  0  0  0  0
   -5.6670    0.1333   -1.6680 C   0  0  0  0  0  0  0  0  0  0  0  0
   -5.5736    2.1302   -0.1252 C   0  0  0  0  0  0  0  0  0  0  0  0
   -6.4764    1.1404   -0.8560 C   0  0  0  0  0  0  0  0  0  0  0  0
    0.5253   -1.8205    0.4342 C   0  0  0  0  0  0  0  0  0  0  0  0
    2.2377   -1.4100   -0.7127 C   0  0  0  0  0  0  0  0  0  0  0  0
    3.1285   -0.6060   -1.5588 C   0  0  0  0  0  0  0  0  0  0  0  0
    3.9508    0.4368   -0.8090 C   0  0  0  0  0  0  0  0  0  0  0  0
    3.3703    1.6509   -0.4421 C   0  0  0  0  0  0  0  0  0  0  0  0
    5.2835    0.1764   -0.4906 C   0  0  0  0  0  0  0  0  0  0  0  0
    4.1226    2.6047    0.2435 C   0  0  0  0  0  0  0  0  0  0  0  0
    6.0358    1.1302    0.1950 C   0  0  0  0  0  0  0  0  0  0  0  0
    5.4554    2.3444    0.5619 C   0  0  0  0  0  0  0  0  0  0  0  0
   -3.1588    0.9778   -0.8406 H   0  0  0  0  0  0  0  0  0  0  0  0
   -1.4896   -0.7171   -0.8451 H   0  0  0  0  0  0  0  0  0  0  0  0
   -2.4108   -2.1245   -0.2656 H   0  0  0  0  0  0  0  0  0  0  0  0
   -1.1102   -2.4319    1.6321 H   0  0  0  0  0  0  0  0  0  0  0  0
   -2.3769    1.1188    2.3420 H   0  0  0  0  0  0  0  0  0  0  0  0
   -1.4319    1.3383    0.8430 H   0  0  0  0  0  0  0  0  0  0  0  0
   -5.1501   -1.2220   -0.0765 H   0  0  0  0  0  0  0  0  0  0  0  0
   -4.0586   -1.2474   -1.4625 H   0  0  0  0  0  0  0  0  0  0  0  0
   -3.9023    2.1883    1.1856 H   0  0  0  0  0  0  0  0  0  0  0  0
   -5.0513    0.9025    1.5653 H   0  0  0  0  0  0  0  0  0  0  0  0
    0.1451    0.1578    2.1344 H   0  0  0  0  0  0  0  0  0  0  0  0
   -1.1043   -0.6996    3.0483 H   0  0  0  0  0  0  0  0  0  0  0  0
   -5.1601    0.6516   -2.4914 H   0  0  0  0  0  0  0  0  0  0  0  0
   -6.3422   -0.6016   -2.1209 H   0  0  0  0  0  0  0  0  0  0  0  0
   -6.1836    2.7917    0.5003 H   0  0  0  0  0  0  0  0  0  0  0  0
   -5.0611    2.7661   -0.8577 H   0  0  0  0  0  0  0  0  0  0  0  0
   -7.1598    1.6839   -1.5181 H   0  0  0  0  0  0  0  0  0  0  0  0
   -7.0964    0.6055   -0.1261 H   0  0  0  0  0  0  0  0  0  0  0  0
    3.8074   -1.2726   -2.1059 H   0  0  0  0  0  0  0  0  0  0  0  0
    2.5433   -0.0950   -2.3344 H   0  0  0  0  0  0  0  0  0  0  0  0
    2.3332    1.8658   -0.6854 H   0  0  0  0  0  0  0  0  0  0  0  0
    5.7471   -0.7662   -0.7689 H   0  0  0  0  0  0  0  0  0  0  0  0
    3.6707    3.5501    0.5291 H   0  0  0  0  0  0  0  0  0  0  0  0
    7.0735    0.9274    0.4435 H   0  0  0  0  0  0  0  0  0  0  0  0
    6.0412    3.0869    1.0958 H   0  0  0  0  0  0  0  0  0  0  0  0
  1 15  1  0  0  0  0
  1 16  1  0  0  0  0
  2  5  1  0  0  0  0
  2  6  1  0  0  0  0
  2  8  1  0  0  0  0
  3  4  1  0  0  0  0
  3 15  2  0  0  0  0
  4 16  2  0  0  0  0
  5  9  1  0  0  0  0
  5 10  1  0  0  0  0
  5 24  1  0  0  0  0
  6  7  1  0  0  0  0
  6 25  1  0  0  0  0
  6 26  1  0  0  0  0
  7 11  1  0  0  0  0
  7 15  1  0  0  0  0
  7 27  1  0  0  0  0
  8 11  1  0  0  0  0
  8 28  1  0  0  0  0
  8 29  1  0  0  0  0
  9 12  1  0  0  0  0
  9 30  1  0  0  0  0
  9 31  1  0  0  0  0
 10 13  1  0  0  0  0
 10 32  1  0  0  0  0
 10 33  1  0  0  0  0
 11 34  1  0  0  0  0
 11 35  1  0  0  0  0
 12 14  1  0  0  0  0
 12 36  1  0  0  0  0
 12 37  1  0  0  0  0
 13 14  1  0  0  0  0
 13 38  1  0  0  0  0
 13 39  1  0  0  0  0
 14 40  1  0  0  0  0
 14 41  1  0  0  0  0
 16 17  1  0  0  0  0
 17 18  1  0  0  0  0
 17 42  1  0  0  0  0
 17 43  1  0  0  0  0
 18 19  2  0  0  0  0
 18 20  1  0  0  0  0
 19 21  1  0  0  0  0
 19 44  1  0  0  0  0
 20 22  2  0  0  0  0
 20 45  1  0  0  0  0
 21 23  2  0  0  0  0
 21 46  1  0  0  0  0
 22 23  1  0  0  0  0
 22 47  1  0  0  0  0
 23 48  1  0  0  0  0
M  END
> <PUBCHEM_COMPOUND_CID>
51137387

> <PUBCHEM_CONFORMER_RMSD>
0.8

> <PUBCHEM_CONFORMER_DIVERSEORDER>
1
95
67
156
103
176
79
41
155
144
113
140
170
128
39
169
123
52
166
93
147
94
45
151
183
130
59
157
133
149
178
20
167
154
109
35
88
53
111
107
177
9
87
42
159
64
125
23
172
82
185
117
163
174
92
84
122
22
134
173
121
161
175
139
171
106
49
97
90
162
179
184
19
72
77
182
164
48
32
105
21
112
7
25
55
47
74
85
127
3
158
142
152
65
100
143
148
10
120
6
40
17
186
138
104
58
168
165
98
150
124
145
38
11
86
160
43
146
69
108
50
63
4
116
66
131
24
13
132
46
76
75
18
54
119
102
129
70
136
8
81
51
31
71
5
135
2
15
29
83
91
44
181
33
68
115
28
141
137
114
118
80
73
56
99
180
57
110
36
89
78
96
62
37
60
26
153
12
126
101
61
34
16
14
30
27

> <PUBCHEM_MMFF94_PARTIAL_CHARGES>
22
1 -0.28
15 0.3
16 0.3
17 0.32
18 -0.14
19 -0.15
2 -0.81
20 -0.15
21 -0.15
22 -0.15
23 -0.15
3 -0.34
4 -0.34
44 0.15
45 0.15
46 0.15
47 0.15
48 0.15
5 0.27
6 0.27
7 0.18
8 0.27

> <PUBCHEM_EFFECTIVE_ROTOR_COUNT>
6.2

> <PUBCHEM_PHARMACOPHORE_FEATURES>
5
1 2 cation
5 1 3 4 15 16 rings
5 2 6 7 8 11 rings
6 18 19 20 21 22 23 rings
6 5 9 10 12 13 14 rings

> <PUBCHEM_HEAVY_ATOM_COUNT>
23

> <PUBCHEM_ATOM_DEF_STEREO_COUNT>
1

> <PUBCHEM_ATOM_UDEF_STEREO_COUNT>
0

> <PUBCHEM_BOND_DEF_STEREO_COUNT>
0

> <PUBCHEM_BOND_UDEF_STEREO_COUNT>
0

> <PUBCHEM_ISOTOPIC_ATOM_COUNT>
0

> <PUBCHEM_COMPONENT_COUNT>
1

> <PUBCHEM_CACTVS_TAUTO_COUNT>
1

> <PUBCHEM_CONFORMER_ID>
030C4B6B00000001

> <PUBCHEM_MMFF94_ENERGY>
31.424

> <PUBCHEM_FEATURE_SELFOVERLAP>
25.374

> <PUBCHEM_SHAPE_FINGERPRINT>
10042902 136 12679162947775847461
10319926 262 13335018245151652305
10666366 153 13254792418582520897
10674148 151 14779271883252601738
10692045 39 16298656197089264928
11069576 57 15409786752189196164
11089746 13 18411703158256176142
11961588 58 18272081725563423375
12403259 415 18264507216030009290
12633257 1 16008751354827908422
12769317 202 18413669106405464056
13103583 49 11963384129072145543
13402501 40 18334856130017191916
13551218 46 8430311338397703097
13673619 4 11527950062262321162
13690498 29 17416953102044797999
14123256 34 10735878395588238613
14187579 7 18271527473267540465
14251732 14 15841549691376316325
14251740 57 10879692309204608549
14251757 5 16987989626514371335
14251764 30 9943538409538324268
14251764 38 18191873537643846004
14341114 176 7853857186994614669
14420673 8 8285942179915013985
14428016 6 17488735825922106736
14461889 52 17385738993344778003
14528608 73 18343019982398905245
14681490 219 18272368646759736377
14739800 52 17968647242524958057
14848178 96 18409739481944263876
14931854 50 17845947311638936168
14932701 244 18194114359948683311
14951699 99 17096657689567014364
15003188 100 18412266172497047820
15183329 4 18412260631736268697
15350500 185 16486113168088049808
17959699 21 18341896285789166681
1813 80 12751519574162871435
18335252 98 18408606985911952299
18608769 82 18337956813770161483
193927 3 12103842367539383583
20157964 124 18413390921399997798
20511986 3 18059846251602155021
20554085 129 16443058379760589577
20567600 254 17894344475749463541
20715895 44 18409167718733950928
21033648 144 18259982635751174975
21033648 29 17822304490950978594
212916 134 16660365887332231003
21298829 104 18413111645315304000
21304303 282 18126833027252773886
21315763 76 18342741814547493232
21403212 168 18410565185940095530
21475661 188 18334298712381976668
21774942 28 17988082184520052040
21968339 14 17989487399229610436
22765269 38 18409164437267842092
22950370 63 9295300443093763754
23016692 55 14117800219655515025
23559900 14 17532105920488188818
23569914 2 17317002963642400085
2748736 6 18334855047632543004
2767999 5 18186237333670698837
2838139 119 18410571777628289253
3089732 80 10735877270264843069
3117164 225 11314311650635388053
34797466 226 18060424590913521335
439807 62 12175358980171009124
465052 167 8646765616646360776
474 4 18413113883377698434
495365 180 17603872143665181739
5104073 3 17967820410123697187
543368 44 18411416199186535597
56633871 153 11314302862779477337
57724786 102 17240773946915192284
6371009 1 18342175557912554296
6394761 36 18113616764832614138
67856867 119 18337386037357886578
7918774 8 11743842486222786053
7970288 3 9871481889274174364
9981440 41 18261397792329901154
999808 66 7997704094782413112

> <PUBCHEM_SHAPE_MULTIPOLES>
452.52
15.84
2.73
1.41
5.39
0.31
0.19
-12.23
-4.81
-2.25
0.34
0.89
0.12
0.68

> <PUBCHEM_SHAPE_SELFOVERLAP>
962.872

> <PUBCHEM_SHAPE_VOLUME>
252.7

> <PUBCHEM_COORDINATE_TYPE>
2
5
10

$$$$
