11912603
  -OEChem-12032416293D

 56 57  0     1  0  0  0  0  0999 V2000
    7.3461   -1.2684   -0.8881 F   0  0  0  0  0  0  0  0  0  0  0  0
    6.8635   -0.8691    1.1884 F   0  0  0  0  0  0  0  0  0  0  0  0
    5.8561   -2.4804    0.1314 F   0  0  0  0  0  0  0  0  0  0  0  0
   -5.6232    0.5640    1.1059 O   0  0  0  0  0  0  0  0  0  0  0  0
    0.9077    2.8376   -0.1487 O   0  0  0  0  0  0  0  0  0  0  0  0
   -0.3793    1.3346    1.0460 N   0  0  0  0  0  0  0  0  0  0  0  0
   -6.2832   -1.2100   -0.2426 N   0  0  0  0  0  0  0  0  0  0  0  0
    1.9331    0.9666    0.7619 N   0  0  0  0  0  0  0  0  0  0  0  0
   -2.9050   -0.0726    0.9199 C   0  0  1  0  0  0  0  0  0  0  0  0
   -1.5798   -0.8287    1.2030 C   0  0  2  0  0  0  0  0  0  0  0  0
   -2.6632    1.2342    0.1427 C   0  0  0  0  0  0  0  0  0  0  0  0
   -0.5734    0.1280    1.8641 C   0  0  0  0  0  0  0  0  0  0  0  0
   -1.6047    2.1026    0.8215 C   0  0  0  0  0  0  0  0  0  0  0  0
   -0.9600   -1.4878   -0.0345 C   0  0  0  0  0  0  0  0  0  0  0  0
   -3.9488   -0.9357    0.2117 C   0  0  0  0  0  0  0  0  0  0  0  0
    0.2753   -2.2840    0.3306 C   0  0  0  0  0  0  0  0  0  0  0  0
   -5.3565   -0.4223    0.4247 C   0  0  0  0  0  0  0  0  0  0  0  0
    0.8414    1.7965    0.5097 C   0  0  0  0  0  0  0  0  0  0  0  0
   -7.7050   -0.9537   -0.2121 C   0  0  0  0  0  0  0  0  0  0  0  0
    3.0827    0.7886   -0.0472 C   0  0  0  0  0  0  0  0  0  0  0  0
   -8.1528   -0.0307   -1.3391 C   0  0  0  0  0  0  0  0  0  0  0  0
    4.0909   -0.0874    0.3551 C   0  0  0  0  0  0  0  0  0  0  0  0
    3.2059    1.4902   -1.2464 C   0  0  0  0  0  0  0  0  0  0  0  0
   -7.8727   -0.6086   -2.7191 C   0  0  0  0  0  0  0  0  0  0  0  0
    5.2223   -0.2617   -0.4420 C   0  0  0  0  0  0  0  0  0  0  0  0
    4.3371    1.3158   -2.0436 C   0  0  0  0  0  0  0  0  0  0  0  0
    5.3453    0.4399   -1.6412 C   0  0  0  0  0  0  0  0  0  0  0  0
    6.3003   -1.1977   -0.0120 C   0  0  0  0  0  0  0  0  0  0  0  0
   -3.3022    0.2105    1.9060 H   0  0  0  0  0  0  0  0  0  0  0  0
   -1.8054   -1.6245    1.9268 H   0  0  0  0  0  0  0  0  0  0  0  0
   -2.3359    1.0034   -0.8788 H   0  0  0  0  0  0  0  0  0  0  0  0
   -3.5890    1.8127    0.0525 H   0  0  0  0  0  0  0  0  0  0  0  0
    0.3524   -0.3809    2.1218 H   0  0  0  0  0  0  0  0  0  0  0  0
   -0.9820    0.4726    2.8236 H   0  0  0  0  0  0  0  0  0  0  0  0
   -1.9611    2.4519    1.7978 H   0  0  0  0  0  0  0  0  0  0  0  0
   -1.4104    2.9889    0.2098 H   0  0  0  0  0  0  0  0  0  0  0  0
   -0.7045   -0.7496   -0.8023 H   0  0  0  0  0  0  0  0  0  0  0  0
   -1.6806   -2.1776   -0.4875 H   0  0  0  0  0  0  0  0  0  0  0  0
   -3.9207   -1.9567    0.6131 H   0  0  0  0  0  0  0  0  0  0  0  0
   -3.7525   -0.9924   -0.8655 H   0  0  0  0  0  0  0  0  0  0  0  0
    1.1308   -1.6532    0.5746 H   0  0  0  0  0  0  0  0  0  0  0  0
    0.5786   -2.9007   -0.5228 H   0  0  0  0  0  0  0  0  0  0  0  0
    0.0860   -2.9588    1.1716 H   0  0  0  0  0  0  0  0  0  0  0  0
   -5.9590   -2.0055   -0.7851 H   0  0  0  0  0  0  0  0  0  0  0  0
    1.9290    0.4064    1.6062 H   0  0  0  0  0  0  0  0  0  0  0  0
   -8.2112   -1.9221   -0.2848 H   0  0  0  0  0  0  0  0  0  0  0  0
   -7.9656   -0.5085    0.7542 H   0  0  0  0  0  0  0  0  0  0  0  0
   -7.6490    0.9392   -1.2511 H   0  0  0  0  0  0  0  0  0  0  0  0
   -9.2287    0.1543   -1.2416 H   0  0  0  0  0  0  0  0  0  0  0  0
    3.9979   -0.6366    1.2894 H   0  0  0  0  0  0  0  0  0  0  0  0
    2.4482    2.1622   -1.6289 H   0  0  0  0  0  0  0  0  0  0  0  0
   -8.3543   -1.5840   -2.8408 H   0  0  0  0  0  0  0  0  0  0  0  0
   -6.7989   -0.7293   -2.8932 H   0  0  0  0  0  0  0  0  0  0  0  0
   -8.2627    0.0606   -3.4928 H   0  0  0  0  0  0  0  0  0  0  0  0
    4.4307    1.8568   -2.9808 H   0  0  0  0  0  0  0  0  0  0  0  0
    6.2181    0.3165   -2.2763 H   0  0  0  0  0  0  0  0  0  0  0  0
  1 28  1  0  0  0  0
  2 28  1  0  0  0  0
  3 28  1  0  0  0  0
  4 17  2  0  0  0  0
  5 18  2  0  0  0  0
  6 12  1  0  0  0  0
  6 13  1  0  0  0  0
  6 18  1  0  0  0  0
  7 17  1  0  0  0  0
  7 19  1  0  0  0  0
  7 44  1  0  0  0  0
  8 18  1  0  0  0  0
  8 20  1  0  0  0  0
  8 45  1  0  0  0  0
  9 10  1  0  0  0  0
  9 11  1  0  0  0  0
  9 15  1  0  0  0  0
  9 29  1  0  0  0  0
 10 12  1  0  0  0  0
 10 14  1  0  0  0  0
 10 30  1  0  0  0  0
 11 13  1  0  0  0  0
 11 31  1  0  0  0  0
 11 32  1  0  0  0  0
 12 33  1  0  0  0  0
 12 34  1  0  0  0  0
 13 35  1  0  0  0  0
 13 36  1  0  0  0  0
 14 16  1  0  0  0  0
 14 37  1  0  0  0  0
 14 38  1  0  0  0  0
 15 17  1  0  0  0  0
 15 39  1  0  0  0  0
 15 40  1  0  0  0  0
 16 41  1  0  0  0  0
 16 42  1  0  0  0  0
 16 43  1  0  0  0  0
 19 21  1  0  0  0  0
 19 46  1  0  0  0  0
 19 47  1  0  0  0  0
 20 22  1  0  0  0  0
 20 23  2  0  0  0  0
 21 24  1  0  0  0  0
 21 48  1  0  0  0  0
 21 49  1  0  0  0  0
 22 25  2  0  0  0  0
 22 50  1  0  0  0  0
 23 26  1  0  0  0  0
 23 51  1  0  0  0  0
 24 52  1  0  0  0  0
 24 53  1  0  0  0  0
 24 54  1  0  0  0  0
 25 27  1  0  0  0  0
 25 28  1  0  0  0  0
 26 27  2  0  0  0  0
 26 55  1  0  0  0  0
 27 56  1  0  0  0  0
M  END
> <PUBCHEM_COMPOUND_CID>
11912603

> <PUBCHEM_CONFORMER_RMSD>
1.2

> <PUBCHEM_CONFORMER_DIVERSEORDER>
1
76
123
71
50
80
26
16
105
49
86
46
98
112
79
28
107
93
114
122
64
129
23
90
39
27
73
81
102
61
29
18
89
88
77
91
33
44
6
124
35
116
47
99
32
10
126
74
113
40
4
118
62
128
42
30
83
53
36
130
21
104
19
85
97
84
43
38
66
108
51
109
127
119
56
37
9
20
8
120
110
25
67
59
121
12
94
22
34
117
95
92
58
31
13
55
72
11
111
65
103
78
100
5
63
3
106
68
115
15
45
87
24
69
125
52
57
54
7
101
96
41
2
14
75
17
70
82
60
48

> <PUBCHEM_MMFF94_PARTIAL_CHARGES>
27
1 -0.34
12 0.3
13 0.3
15 0.06
17 0.57
18 0.69
19 0.3
2 -0.34
20 0.12
22 -0.15
23 -0.15
25 -0.14
26 -0.15
27 -0.15
28 1.16
3 -0.34
4 -0.57
44 0.37
45 0.37
5 -0.57
50 0.15
51 0.15
55 0.15
56 0.15
6 -0.66
7 -0.73
8 -0.55

> <PUBCHEM_EFFECTIVE_ROTOR_COUNT>
11.2

> <PUBCHEM_PHARMACOPHORE_FEATURES>
8
1 16 hydrophobe
1 24 hydrophobe
1 4 acceptor
1 5 acceptor
1 7 donor
1 8 donor
6 20 22 23 25 26 27 rings
6 6 9 10 11 12 13 rings

> <PUBCHEM_HEAVY_ATOM_COUNT>
28

> <PUBCHEM_ATOM_DEF_STEREO_COUNT>
2

> <PUBCHEM_ATOM_UDEF_STEREO_COUNT>
0

> <PUBCHEM_BOND_DEF_STEREO_COUNT>
0

> <PUBCHEM_BOND_UDEF_STEREO_COUNT>
0

> <PUBCHEM_ISOTOPIC_ATOM_COUNT>
0

> <PUBCHEM_COMPONENT_COUNT>
1

> <PUBCHEM_CACTVS_TAUTO_COUNT>
4

> <PUBCHEM_CONFORMER_ID>
00B5C59B00000001

> <PUBCHEM_MMFF94_ENERGY>
53.2004

> <PUBCHEM_FEATURE_SELFOVERLAP>
40.596

> <PUBCHEM_SHAPE_FINGERPRINT>
10 15 10375874082824902597
106641 1 15985381197279022378
10674148 151 13839983314262926654
10693767 8 18131066026675899871
11578080 2 16879616091477079447
11991303 11 18042404793726210571
12035758 1 10375874095857582189
12373685 5 17273963821515977132
12838862 33 18335695083807153040
12838863 1 18340765953893624694
13177829 20 12823295706456883477
13533116 47 18410862066595069200
13782708 43 16988563559104940069
13862211 1 18343588447127264385
13914758 101 17603866672166340503
14068700 675 18060424611740271521
14251752 14 18187083936117691981
14931854 50 17967818210863142226
15183329 4 17530964674388371345
15188451 53 17489872634892353992
18335252 114 17894625976685986541
190975 80 12319452204205632141
20028762 73 17846782913967517503
2026 5 17275106137727258279
21033648 29 13479422724776133348
21315764 119 17312825999970547343
21344244 78 15626226827424493936
21637258 2 17275103951287878857
21781051 124 18189343514534291771
221357 26 17167582696190977948
22224240 67 10592043557592699185
23522609 53 18052857785756293313
23559900 14 18265338485090685888
23576562 1 16806735178152671351
3004659 81 18186809076160490736
3633792 109 17894632556544377908
4093350 32 14490462054896466603
4340502 62 14189577421069681252
58260988 393 13038919806245974154
59682541 35 13973957718900704198
59682541 52 16588022394933781178
6138700 20 18410297990616580379
6438161 24 18201716280189414763
9689198 14 15285359522663190389

> <PUBCHEM_SHAPE_MULTIPOLES>
527.72
21.98
2.17
1.7
16.88
0.2
0.86
-9.15
12.18
-2.02
-0.14
1.42
0.28
-1.16

> <PUBCHEM_SHAPE_SELFOVERLAP>
1082.054

> <PUBCHEM_SHAPE_VOLUME>
304

> <PUBCHEM_COORDINATE_TYPE>
2
5
10

$$$$
