75536254
  -OEChem-12032416303D

 60 63  0     1  0  0  0  0  0999 V2000
   -6.7257   -0.9953   -0.8465 F   0  0  0  0  0  0  0  0  0  0  0  0
    3.3780   -0.5843    0.7082 O   0  0  0  0  0  0  0  0  0  0  0  0
    6.3219   -0.4841    0.6003 O   0  0  0  0  0  0  0  0  0  0  0  0
   -0.9216   -1.3961    1.4970 O   0  0  0  0  0  0  0  0  0  0  0  0
    2.1306    1.9251    0.1929 N   0  0  0  0  0  0  0  0  0  0  0  0
    0.4373   -1.6539    1.6313 N   0  0  0  0  0  0  0  0  0  0  0  0
    0.0608    3.2584    0.1275 C   0  0  0  0  0  0  0  0  0  0  0  0
   -0.7770    4.2137   -0.7332 C   0  0  0  0  0  0  0  0  0  0  0  0
   -0.7555    2.0202    0.5221 C   0  0  0  0  0  0  0  0  0  0  0  0
    4.1626    0.5513    0.3209 C   0  0  1  0  0  0  0  0  0  0  0  0
    1.3379    2.8516   -0.6052 C   0  0  0  0  0  0  0  0  0  0  0  0
    5.4635    0.1218   -0.3698 C   0  0  2  0  0  0  0  0  0  0  0  0
   -2.0854    4.5931   -0.0436 C   0  0  0  0  0  0  0  0  0  0  0  0
   -2.0641    2.4033    1.2094 C   0  0  0  0  0  0  0  0  0  0  0  0
   -2.8899    3.3597    0.3549 C   0  0  0  0  0  0  0  0  0  0  0  0
    3.0617   -1.4938   -0.3485 C   0  0  1  0  0  0  0  0  0  0  0  0
    5.2230   -0.8977   -1.4799 C   0  0  0  0  0  0  0  0  0  0  0  0
    3.3394    1.5303   -0.5135 C   0  0  0  0  0  0  0  0  0  0  0  0
    4.3367   -2.0392   -0.9899 C   0  0  0  0  0  0  0  0  0  0  0  0
    2.2306   -2.6217    0.2510 C   0  0  0  0  0  0  0  0  0  0  0  0
    0.8009   -2.2052    0.4700 C   0  0  0  0  0  0  0  0  0  0  0  0
   -0.2755   -2.3195   -0.4268 C   0  0  0  0  0  0  0  0  0  0  0  0
   -1.3344   -1.7969    0.2674 C   0  0  0  0  0  0  0  0  0  0  0  0
   -2.7242   -1.5912   -0.0201 C   0  0  0  0  0  0  0  0  0  0  0  0
   -3.1381   -1.3559   -1.3313 C   0  0  0  0  0  0  0  0  0  0  0  0
   -3.6622   -1.6256    1.0118 C   0  0  0  0  0  0  0  0  0  0  0  0
   -4.4898   -1.1547   -1.6105 C   0  0  0  0  0  0  0  0  0  0  0  0
   -5.0139   -1.4244    0.7326 C   0  0  0  0  0  0  0  0  0  0  0  0
   -5.4276   -1.1889   -0.5785 C   0  0  0  0  0  0  0  0  0  0  0  0
    0.3414    3.7898    1.0481 H   0  0  0  0  0  0  0  0  0  0  0  0
   -0.2044    5.1240   -0.9474 H   0  0  0  0  0  0  0  0  0  0  0  0
   -1.0030    3.7455   -1.6999 H   0  0  0  0  0  0  0  0  0  0  0  0
   -0.1880    1.3810    1.2072 H   0  0  0  0  0  0  0  0  0  0  0  0
   -0.9783    1.4197   -0.3690 H   0  0  0  0  0  0  0  0  0  0  0  0
    4.4319    1.0464    1.2633 H   0  0  0  0  0  0  0  0  0  0  0  0
    1.9248    3.7508   -0.8312 H   0  0  0  0  0  0  0  0  0  0  0  0
    1.0736    2.3828   -1.5618 H   0  0  0  0  0  0  0  0  0  0  0  0
    5.9937    0.9964   -0.7626 H   0  0  0  0  0  0  0  0  0  0  0  0
   -2.6839    5.2236   -0.7107 H   0  0  0  0  0  0  0  0  0  0  0  0
   -1.8667    5.1908    0.8499 H   0  0  0  0  0  0  0  0  0  0  0  0
   -1.8442    2.8741    2.1755 H   0  0  0  0  0  0  0  0  0  0  0  0
   -2.6482    1.5009    1.4208 H   0  0  0  0  0  0  0  0  0  0  0  0
   -3.7866    3.6657    0.9053 H   0  0  0  0  0  0  0  0  0  0  0  0
   -3.2312    2.8387   -0.5482 H   0  0  0  0  0  0  0  0  0  0  0  0
    2.4682   -0.9757   -1.1113 H   0  0  0  0  0  0  0  0  0  0  0  0
    6.1737   -1.3129   -1.8342 H   0  0  0  0  0  0  0  0  0  0  0  0
    4.7432   -0.4084   -2.3355 H   0  0  0  0  0  0  0  0  0  0  0  0
    3.9521    2.4144   -0.7300 H   0  0  0  0  0  0  0  0  0  0  0  0
    3.0673    1.0838   -1.4757 H   0  0  0  0  0  0  0  0  0  0  0  0
    4.0938   -2.7050   -1.8258 H   0  0  0  0  0  0  0  0  0  0  0  0
    4.8973   -2.6302   -0.2545 H   0  0  0  0  0  0  0  0  0  0  0  0
    2.3738    2.3565    1.0840 H   0  0  0  0  0  0  0  0  0  0  0  0
    2.6601   -2.9559    1.2042 H   0  0  0  0  0  0  0  0  0  0  0  0
    2.2251   -3.4883   -0.4225 H   0  0  0  0  0  0  0  0  0  0  0  0
    7.1576   -0.7060    0.1555 H   0  0  0  0  0  0  0  0  0  0  0  0
   -0.2759   -2.7238   -1.4286 H   0  0  0  0  0  0  0  0  0  0  0  0
   -2.4252   -1.3193   -2.1515 H   0  0  0  0  0  0  0  0  0  0  0  0
   -3.3688   -1.8137    2.0418 H   0  0  0  0  0  0  0  0  0  0  0  0
   -4.8124   -0.9699   -2.6308 H   0  0  0  0  0  0  0  0  0  0  0  0
   -5.7448   -1.4522    1.5354 H   0  0  0  0  0  0  0  0  0  0  0  0
  1 29  1  0  0  0  0
  2 10  1  0  0  0  0
  2 16  1  0  0  0  0
  3 12  1  0  0  0  0
  3 55  1  0  0  0  0
  4  6  1  0  0  0  0
  4 23  1  0  0  0  0
  5 11  1  0  0  0  0
  5 18  1  0  0  0  0
  5 52  1  0  0  0  0
  6 21  2  0  0  0  0
  7  8  1  0  0  0  0
  7  9  1  0  0  0  0
  7 11  1  0  0  0  0
  7 30  1  0  0  0  0
  8 13  1  0  0  0  0
  8 31  1  0  0  0  0
  8 32  1  0  0  0  0
  9 14  1  0  0  0  0
  9 33  1  0  0  0  0
  9 34  1  0  0  0  0
 10 12  1  0  0  0  0
 10 18  1  0  0  0  0
 10 35  1  0  0  0  0
 11 36  1  0  0  0  0
 11 37  1  0  0  0  0
 12 17  1  0  0  0  0
 12 38  1  0  0  0  0
 13 15  1  0  0  0  0
 13 39  1  0  0  0  0
 13 40  1  0  0  0  0
 14 15  1  0  0  0  0
 14 41  1  0  0  0  0
 14 42  1  0  0  0  0
 15 43  1  0  0  0  0
 15 44  1  0  0  0  0
 16 19  1  0  0  0  0
 16 20  1  0  0  0  0
 16 45  1  0  0  0  0
 17 19  1  0  0  0  0
 17 46  1  0  0  0  0
 17 47  1  0  0  0  0
 18 48  1  0  0  0  0
 18 49  1  0  0  0  0
 19 50  1  0  0  0  0
 19 51  1  0  0  0  0
 20 21  1  0  0  0  0
 20 53  1  0  0  0  0
 20 54  1  0  0  0  0
 21 22  1  0  0  0  0
 22 23  2  0  0  0  0
 22 56  1  0  0  0  0
 23 24  1  0  0  0  0
 24 25  2  0  0  0  0
 24 26  1  0  0  0  0
 25 27  1  0  0  0  0
 25 57  1  0  0  0  0
 26 28  2  0  0  0  0
 26 58  1  0  0  0  0
 27 29  2  0  0  0  0
 27 59  1  0  0  0  0
 28 29  1  0  0  0  0
 28 60  1  0  0  0  0
M  END
> <PUBCHEM_COMPOUND_CID>
75536254

> <PUBCHEM_CONFORMER_RMSD>
1

> <PUBCHEM_CONFORMER_DIVERSEORDER>
1
103
108
98
130
29
61
39
80
137
9
74
64
133
20
62
36
30
125
76
87
95
43
78
24
93
2
13
70
110
136
84
117
15
31
119
89
19
122
21
17
51
46
113
100
23
27
42
63
134
102
71
99
59
109
77
66
69
112
37
106
114
128
132
94
120
127
90
14
57
10
96
53
121
105
49
82
88
68
48
126
58
22
67
104
52
118
65
56
72
3
54
131
115
124
60
123
83
18
91
16
129
111
101
44
47
6
50
85
116
41
73
55
135
79
26
45
32
34
25
107
40
33
5
11
38
75
28
35
81
92
97
12
7
4
86
8

> <PUBCHEM_MMFF94_PARTIAL_CHARGES>
28
1 -0.19
10 0.28
11 0.27
12 0.28
16 0.28
18 0.27
2 -0.56
20 0.18
21 0.11
22 -0.15
23 0.09
24 0.05
25 -0.15
26 -0.15
27 -0.15
28 -0.15
29 0.19
3 -0.68
4 -0.02
5 -0.9
52 0.36
55 0.4
56 0.15
57 0.15
58 0.15
59 0.15
6 -0.41
60 0.15

> <PUBCHEM_EFFECTIVE_ROTOR_COUNT>
9.4

> <PUBCHEM_PHARMACOPHORE_FEATURES>
10
1 2 acceptor
1 3 acceptor
1 3 donor
1 5 cation
1 5 donor
1 6 acceptor
5 4 6 21 22 23 rings
6 2 10 12 16 17 19 rings
6 24 25 26 27 28 29 rings
6 7 8 9 13 14 15 rings

> <PUBCHEM_HEAVY_ATOM_COUNT>
29

> <PUBCHEM_ATOM_DEF_STEREO_COUNT>
3

> <PUBCHEM_ATOM_UDEF_STEREO_COUNT>
0

> <PUBCHEM_BOND_DEF_STEREO_COUNT>
0

> <PUBCHEM_BOND_UDEF_STEREO_COUNT>
0

> <PUBCHEM_ISOTOPIC_ATOM_COUNT>
0

> <PUBCHEM_COMPONENT_COUNT>
1

> <PUBCHEM_CACTVS_TAUTO_COUNT>
1

> <PUBCHEM_CONFORMER_ID>
0480977E00000001

> <PUBCHEM_MMFF94_ENERGY>
40.0286

> <PUBCHEM_FEATURE_SELFOVERLAP>
50.748

> <PUBCHEM_SHAPE_FINGERPRINT>
10190206 1 17901982891215106260
10670039 82 18337119977814938158
10675989 125 18264770050680519373
10871710 139 18338522928549594075
11513181 2 18128818538545137079
11646440 116 18335988656836506451
12156800 1 18122030184014957696
12166972 35 17822294638369978438
12293681 4 18188218696953737962
12422481 6 18056227737745046825
12596602 18 13190337993545382647
12788726 201 18335136488538957642
13402501 40 18188203316337811734
14028597 1 17749933519626115538
14464042 87 18412827992588889027
14681490 219 18411414038126765989
14725015 67 18410001144484407570
15081414 286 18194127540802121328
15210252 30 18042122223162990148
15276724 80 18269840809644947375
15483637 11 18265615373000067629
15968369 153 18129076992998170237
19930381 70 17762059139609574155
20567600 299 17909266128296505544
21344244 246 17909257319957002159
21641784 216 18336277759822769748
21860390 5 18197220458552684758
22113638 7 18124594442614614278
221357 26 18342178860510003694
23227448 37 18123473773861997397
23536364 44 18335126580113183701
3014063 31 18410292540266106276
3027735 51 18340773658462878387
3052486 1 18335144138150089452
338550 245 18263096460532862788
38695281 34 17690284807197515809
4340502 62 10665224865098598294
463206 1 18196086866248820143
469060 322 17386291995225598253
508706 21 18337123280322950834
5171179 24 18130497617602735128
6036956 94 17828217806821466484
653340 110 18340481180265667936

> <PUBCHEM_SHAPE_MULTIPOLES>
561.96
12.2
5.29
1.26
2.57
7.33
-0.07
-6.95
-3
-3.24
-0.15
-0.49
-0.44
-0.38

> <PUBCHEM_SHAPE_SELFOVERLAP>
1183.738

> <PUBCHEM_SHAPE_VOLUME>
316.5

> <PUBCHEM_COORDINATE_TYPE>
2
5
10

$$$$
