11885880
  -OEChem-12032416333D

 61 65  0     1  0  0  0  0  0999 V2000
    0.4016   -4.8893    1.8622 F   0  0  0  0  0  0  0  0  0  0  0  0
    0.5180    2.9603   -1.3574 O   0  0  0  0  0  0  0  0  0  0  0  0
    2.9155   -1.4312   -2.6733 O   0  0  0  0  0  0  0  0  0  0  0  0
   -2.1408    0.7289    2.0183 O   0  0  0  0  0  0  0  0  0  0  0  0
   -7.0907   -1.3647   -1.6282 O   0  0  0  0  0  0  0  0  0  0  0  0
    4.0921   -0.4885   -0.8839 N   0  0  0  0  0  0  0  0  0  0  0  0
    2.3232    2.0501   -0.1861 N   0  0  0  0  0  0  0  0  0  0  0  0
   -1.2649    2.4038    0.6582 N   0  0  0  0  0  0  0  0  0  0  0  0
    4.6841    1.9117   -1.1706 C   0  0  1  0  0  0  0  0  0  0  0  0
    4.2420    1.0216    1.0819 C   0  0  2  0  0  0  0  0  0  0  0  0
    5.1402    1.9652    0.2835 C   0  0  0  0  0  0  0  0  0  0  0  0
    4.8046    0.4782   -1.7188 C   0  0  0  0  0  0  0  0  0  0  0  0
    3.2484    2.4444   -1.2579 C   0  0  0  0  0  0  0  0  0  0  0  0
    4.4048   -0.4175    0.5527 C   0  0  0  0  0  0  0  0  0  0  0  0
    2.7872    1.4405    0.9842 C   0  0  0  0  0  0  0  0  0  0  0  0
    1.9422    1.1938    1.9993 C   0  0  0  0  0  0  0  0  0  0  0  0
    0.9701    2.4075   -0.3537 C   0  0  0  0  0  0  0  0  0  0  0  0
    3.1808   -1.3673   -1.4741 C   0  0  0  0  0  0  0  0  0  0  0  0
    0.0559    2.0904    0.7891 C   0  0  0  0  0  0  0  0  0  0  0  0
    0.5493    1.5254    1.8961 C   0  0  0  0  0  0  0  0  0  0  0  0
    2.4518   -2.2910   -0.5990 C   0  0  0  0  0  0  0  0  0  0  0  0
    1.2301   -1.9081   -0.0513 C   0  0  0  0  0  0  0  0  0  0  0  0
    2.9847   -3.5471   -0.3200 C   0  0  0  0  0  0  0  0  0  0  0  0
   -2.2891    1.7015    1.2824 C   0  0  0  0  0  0  0  0  0  0  0  0
    0.5369   -2.7868    0.7810 C   0  0  0  0  0  0  0  0  0  0  0  0
    2.2913   -4.4260    0.5122 C   0  0  0  0  0  0  0  0  0  0  0  0
   -3.6464    2.2898    0.9433 C   0  0  0  0  0  0  0  0  0  0  0  0
    1.0673   -4.0458    1.0627 C   0  0  0  0  0  0  0  0  0  0  0  0
   -4.5657    1.3142    0.2570 C   0  0  0  0  0  0  0  0  0  0  0  0
   -4.5595    1.2289   -1.1277 C   0  0  0  0  0  0  0  0  0  0  0  0
   -5.4052    0.5150    1.0199 C   0  0  0  0  0  0  0  0  0  0  0  0
   -5.4112    0.3255   -1.7633 C   0  0  0  0  0  0  0  0  0  0  0  0
   -6.2569   -0.3886    0.3843 C   0  0  0  0  0  0  0  0  0  0  0  0
   -6.2598   -0.4835   -1.0075 C   0  0  0  0  0  0  0  0  0  0  0  0
   -7.9320   -2.1610   -0.7953 C   0  0  0  0  0  0  0  0  0  0  0  0
    5.3285    2.5554   -1.7820 H   0  0  0  0  0  0  0  0  0  0  0  0
    4.5661    1.0449    2.1304 H   0  0  0  0  0  0  0  0  0  0  0  0
    6.1898    1.6577    0.3670 H   0  0  0  0  0  0  0  0  0  0  0  0
    5.0731    2.9890    0.6724 H   0  0  0  0  0  0  0  0  0  0  0  0
    4.4454    0.4368   -2.7525 H   0  0  0  0  0  0  0  0  0  0  0  0
    5.8576    0.1712   -1.7311 H   0  0  0  0  0  0  0  0  0  0  0  0
    3.2795    3.5423   -1.2307 H   0  0  0  0  0  0  0  0  0  0  0  0
    2.7987    2.1800   -2.2232 H   0  0  0  0  0  0  0  0  0  0  0  0
    3.7926   -1.1085    1.1371 H   0  0  0  0  0  0  0  0  0  0  0  0
    5.4461   -0.7436    0.6660 H   0  0  0  0  0  0  0  0  0  0  0  0
    2.2766    0.7122    2.9123 H   0  0  0  0  0  0  0  0  0  0  0  0
   -0.0371    1.3171    2.7829 H   0  0  0  0  0  0  0  0  0  0  0  0
   -1.5057    3.0316   -0.1047 H   0  0  0  0  0  0  0  0  0  0  0  0
    0.8032   -0.9344   -0.2730 H   0  0  0  0  0  0  0  0  0  0  0  0
    3.9379   -3.8523   -0.7436 H   0  0  0  0  0  0  0  0  0  0  0  0
   -0.4168   -2.4911    1.2083 H   0  0  0  0  0  0  0  0  0  0  0  0
    2.7043   -5.4061    0.7320 H   0  0  0  0  0  0  0  0  0  0  0  0
   -3.5506    3.1946    0.3305 H   0  0  0  0  0  0  0  0  0  0  0  0
   -4.0959    2.6307    1.8852 H   0  0  0  0  0  0  0  0  0  0  0  0
   -3.9006    1.8531   -1.7247 H   0  0  0  0  0  0  0  0  0  0  0  0
   -5.4085    0.5807    2.1044 H   0  0  0  0  0  0  0  0  0  0  0  0
   -5.4086    0.2557   -2.8477 H   0  0  0  0  0  0  0  0  0  0  0  0
   -6.8893   -0.9864    1.0316 H   0  0  0  0  0  0  0  0  0  0  0  0
   -8.5245   -2.8038   -1.4546 H   0  0  0  0  0  0  0  0  0  0  0  0
   -7.3468   -2.8215   -0.1464 H   0  0  0  0  0  0  0  0  0  0  0  0
   -8.6391   -1.5441   -0.2304 H   0  0  0  0  0  0  0  0  0  0  0  0
  1 28  1  0  0  0  0
  2 17  2  0  0  0  0
  3 18  2  0  0  0  0
  4 24  2  0  0  0  0
  5 34  1  0  0  0  0
  5 35  1  0  0  0  0
  6 12  1  0  0  0  0
  6 14  1  0  0  0  0
  6 18  1  0  0  0  0
  7 13  1  0  0  0  0
  7 15  1  0  0  0  0
  7 17  1  0  0  0  0
  8 19  1  0  0  0  0
  8 24  1  0  0  0  0
  8 48  1  0  0  0  0
  9 11  1  0  0  0  0
  9 12  1  0  0  0  0
  9 13  1  0  0  0  0
  9 36  1  0  0  0  0
 10 11  1  0  0  0  0
 10 14  1  0  0  0  0
 10 15  1  0  0  0  0
 10 37  1  0  0  0  0
 11 38  1  0  0  0  0
 11 39  1  0  0  0  0
 12 40  1  0  0  0  0
 12 41  1  0  0  0  0
 13 42  1  0  0  0  0
 13 43  1  0  0  0  0
 14 44  1  0  0  0  0
 14 45  1  0  0  0  0
 15 16  2  0  0  0  0
 16 20  1  0  0  0  0
 16 46  1  0  0  0  0
 17 19  1  0  0  0  0
 18 21  1  0  0  0  0
 19 20  2  0  0  0  0
 20 47  1  0  0  0  0
 21 22  2  0  0  0  0
 21 23  1  0  0  0  0
 22 25  1  0  0  0  0
 22 49  1  0  0  0  0
 23 26  2  0  0  0  0
 23 50  1  0  0  0  0
 24 27  1  0  0  0  0
 25 28  2  0  0  0  0
 25 51  1  0  0  0  0
 26 28  1  0  0  0  0
 26 52  1  0  0  0  0
 27 29  1  0  0  0  0
 27 53  1  0  0  0  0
 27 54  1  0  0  0  0
 29 30  2  0  0  0  0
 29 31  1  0  0  0  0
 30 32  1  0  0  0  0
 30 55  1  0  0  0  0
 31 33  2  0  0  0  0
 31 56  1  0  0  0  0
 32 34  2  0  0  0  0
 32 57  1  0  0  0  0
 33 34  1  0  0  0  0
 33 58  1  0  0  0  0
 35 59  1  0  0  0  0
 35 60  1  0  0  0  0
 35 61  1  0  0  0  0
M  END
> <PUBCHEM_COMPOUND_CID>
11885880

> <PUBCHEM_CONFORMER_RMSD>
1

> <PUBCHEM_CONFORMER_DIVERSEORDER>
1
46
37
31
20
24
9
17
39
42
43
33
13
44
32
22
23
35
5
45
36
29
21
28
38
26
4
41
11
40
16
12
2
30
18
7
25
10
3
19
27
15
8
14
34
6

> <PUBCHEM_MMFF94_PARTIAL_CHARGES>
44
1 -0.19
10 0.14
12 0.3
13 0.3
14 0.3
15 -0.03
16 -0.15
17 0.62
18 0.54
19 0.12
2 -0.57
20 -0.15
21 0.09
22 -0.15
23 -0.15
24 0.57
25 -0.15
26 -0.15
27 0.2
28 0.19
29 -0.14
3 -0.57
30 -0.15
31 -0.15
32 -0.15
33 -0.15
34 0.08
35 0.28
4 -0.57
46 0.15
47 0.15
48 0.37
49 0.15
5 -0.36
50 0.15
51 0.15
52 0.15
55 0.15
56 0.15
57 0.15
58 0.15
6 -0.66
7 -0.47
8 -0.54

> <PUBCHEM_EFFECTIVE_ROTOR_COUNT>
8

> <PUBCHEM_PHARMACOPHORE_FEATURES>
10
1 2 acceptor
1 3 acceptor
1 4 acceptor
1 5 acceptor
1 8 donor
6 21 22 23 25 26 28 rings
6 29 30 31 32 33 34 rings
6 6 9 10 11 12 14 rings
6 7 15 16 17 19 20 rings
6 7 9 10 11 13 15 rings

> <PUBCHEM_HEAVY_ATOM_COUNT>
35

> <PUBCHEM_ATOM_DEF_STEREO_COUNT>
2

> <PUBCHEM_ATOM_UDEF_STEREO_COUNT>
0

> <PUBCHEM_BOND_DEF_STEREO_COUNT>
0

> <PUBCHEM_BOND_UDEF_STEREO_COUNT>
0

> <PUBCHEM_ISOTOPIC_ATOM_COUNT>
0

> <PUBCHEM_COMPONENT_COUNT>
1

> <PUBCHEM_CACTVS_TAUTO_COUNT>
2

> <PUBCHEM_CONFORMER_ID>
00B55D3800000001

> <PUBCHEM_MMFF94_ENERGY>
108.298

> <PUBCHEM_FEATURE_SELFOVERLAP>
52.33

> <PUBCHEM_SHAPE_FINGERPRINT>
10622 236 18125998270356659147
11796584 16 17702392736505835161
13111901 137 18261117422098736555
13150687 139 18265353862128933108
1361 2 18336271218735738216
13692114 37 18198896106216542176
15001296 14 17488446641926712807
15721738 202 17060342924855867907
17134984 74 18411134783748360919
17138139 8 17988920114968599668
17909252 39 17059786515963331406
19315092 285 18130220437645464008
19319366 153 18411973672202424198
20028762 73 18342456994160485014
20764821 26 18408609192470205187
20775438 99 18342182167508766838
20775530 9 17396719587916376490
208703 8 17917429770642359055
21133410 62 18337934758981377927
21197605 99 18130504227604408310
23516275 137 16914293682504145807
25222932 49 17418365922124273781
404807 78 18118406378626842531
444735 86 18343013372750366975
463206 1 18272932769375450553
66674814 147 18335424547268113800
86090 222 18270674385208154499

> <PUBCHEM_SHAPE_MULTIPOLES>
674.59
15.51
5.09
1.99
33.22
6.56
-0.23
1.51
-6.72
-3.9
1.41
-0.27
-0.02
-1.3

> <PUBCHEM_SHAPE_SELFOVERLAP>
1480.194

> <PUBCHEM_SHAPE_VOLUME>
362.6

> <PUBCHEM_COORDINATE_TYPE>
2
5
10

$$$$
