25389794
  -OEChem-12032416173D

 67 72  0     1  0  0  0  0  0999 V2000
    1.2115    3.7127    1.4999 F   0  0  0  0  0  0  0  0  0  0  0  0
    6.4128   -2.2952    1.2528 O   0  0  0  0  0  0  0  0  0  0  0  0
   -3.0031    2.6583    1.4994 O   0  0  0  0  0  0  0  0  0  0  0  0
   -1.2102    1.4442    2.3044 O   0  0  0  0  0  0  0  0  0  0  0  0
   -0.5055    0.6121   -0.2048 N   0  0  2  0  0  0  0  0  0  0  0  0
    2.9086   -1.9496    0.0957 N   0  0  0  0  0  0  0  0  0  0  0  0
   -2.4100   -2.5842    0.3087 N   0  0  0  0  0  0  0  0  0  0  0  0
   -0.6731   -0.7106    0.4728 C   0  0  2  0  0  0  0  0  0  0  0  0
    0.7896    1.2520    0.1394 C   0  0  1  0  0  0  0  0  0  0  0  0
    0.4742   -1.6621    0.0986 C   0  0  0  0  0  0  0  0  0  0  0  0
    1.8216   -1.0529    0.4848 C   0  0  2  0  0  0  0  0  0  0  0  0
    1.9770    0.3126   -0.1827 C   0  0  0  0  0  0  0  0  0  0  0  0
   -1.6960    1.4936   -0.0569 C   0  0  1  0  0  0  0  0  0  0  0  0
   -2.0104   -1.2906    0.1209 C   0  0  0  0  0  0  0  0  0  0  0  0
   -2.9745    0.8746   -0.6771 C   0  0  0  0  0  0  0  0  0  0  0  0
   -3.0773   -0.5816   -0.3862 C   0  0  0  0  0  0  0  0  0  0  0  0
    1.0406    2.5765   -0.5771 C   0  0  0  0  0  0  0  0  0  0  0  0
   -4.1620   -1.4855   -0.5485 C   0  0  0  0  0  0  0  0  0  0  0  0
   -3.7164   -2.7351   -0.1061 C   0  0  0  0  0  0  0  0  0  0  0  0
   -1.9156    1.8435    1.3878 C   0  0  0  0  0  0  0  0  0  0  0  0
    4.1129   -1.6616    0.8592 C   0  0  0  0  0  0  0  0  0  0  0  0
    5.2370   -2.6091    0.4877 C   0  0  1  0  0  0  0  0  0  0  0  0
    1.2392    3.7437    0.1604 C   0  0  0  0  0  0  0  0  0  0  0  0
    1.0711    2.6185   -1.9710 C   0  0  0  0  0  0  0  0  0  0  0  0
   -5.4833   -1.3670   -1.0241 C   0  0  0  0  0  0  0  0  0  0  0  0
    5.6461   -2.5212   -0.9723 C   0  0  0  0  0  0  0  0  0  0  0  0
   -4.5309   -3.8731   -0.1179 C   0  0  0  0  0  0  0  0  0  0  0  0
    7.0763   -2.9959   -0.9126 C   0  0  0  0  0  0  0  0  0  0  0  0
    7.5546   -2.3852    0.3875 C   0  0  0  0  0  0  0  0  0  0  0  0
   -6.3073   -2.4980   -1.0429 C   0  0  0  0  0  0  0  0  0  0  0  0
    1.4681    4.9530   -0.4960 C   0  0  0  0  0  0  0  0  0  0  0  0
    1.3002    3.8278   -2.6274 C   0  0  0  0  0  0  0  0  0  0  0  0
   -5.8363   -3.7309   -0.5966 C   0  0  0  0  0  0  0  0  0  0  0  0
    1.4985    4.9950   -1.8899 C   0  0  0  0  0  0  0  0  0  0  0  0
   -3.3281    3.0714    2.8305 C   0  0  0  0  0  0  0  0  0  0  0  0
   -0.6459   -0.6064    1.5631 H   0  0  0  0  0  0  0  0  0  0  0  0
    0.8383    1.4302    1.2191 H   0  0  0  0  0  0  0  0  0  0  0  0
    0.3505   -2.6234    0.6147 H   0  0  0  0  0  0  0  0  0  0  0  0
    0.4461   -1.8812   -0.9786 H   0  0  0  0  0  0  0  0  0  0  0  0
    1.8171   -0.9247    1.5763 H   0  0  0  0  0  0  0  0  0  0  0  0
    2.0723    0.1661   -1.2677 H   0  0  0  0  0  0  0  0  0  0  0  0
    2.9057    0.7981    0.1431 H   0  0  0  0  0  0  0  0  0  0  0  0
   -1.5275    2.4399   -0.5839 H   0  0  0  0  0  0  0  0  0  0  0  0
   -2.9233    0.9918   -1.7679 H   0  0  0  0  0  0  0  0  0  0  0  0
   -3.8859    1.3836   -0.3454 H   0  0  0  0  0  0  0  0  0  0  0  0
    2.6353   -2.9173    0.2674 H   0  0  0  0  0  0  0  0  0  0  0  0
   -1.8395   -3.3257    0.6910 H   0  0  0  0  0  0  0  0  0  0  0  0
    4.4570   -0.6330    0.7005 H   0  0  0  0  0  0  0  0  0  0  0  0
    3.9235   -1.7553    1.9365 H   0  0  0  0  0  0  0  0  0  0  0  0
    4.9628   -3.6420    0.7390 H   0  0  0  0  0  0  0  0  0  0  0  0
    0.9081    1.7233   -2.5649 H   0  0  0  0  0  0  0  0  0  0  0  0
    5.6200   -1.4845   -1.3301 H   0  0  0  0  0  0  0  0  0  0  0  0
    5.0197   -3.1286   -1.6316 H   0  0  0  0  0  0  0  0  0  0  0  0
   -5.8649   -0.4122   -1.3744 H   0  0  0  0  0  0  0  0  0  0  0  0
   -4.1662   -4.8334    0.2308 H   0  0  0  0  0  0  0  0  0  0  0  0
    7.1024   -4.0899   -0.8442 H   0  0  0  0  0  0  0  0  0  0  0  0
    7.6778   -2.6925   -1.7735 H   0  0  0  0  0  0  0  0  0  0  0  0
    8.3358   -2.9804    0.8686 H   0  0  0  0  0  0  0  0  0  0  0  0
    7.9345   -1.3699    0.2321 H   0  0  0  0  0  0  0  0  0  0  0  0
   -7.3267   -2.4118   -1.4097 H   0  0  0  0  0  0  0  0  0  0  0  0
    1.6223    5.8615    0.0784 H   0  0  0  0  0  0  0  0  0  0  0  0
    1.3213    3.8612   -3.7128 H   0  0  0  0  0  0  0  0  0  0  0  0
   -6.4937   -4.5962   -0.6194 H   0  0  0  0  0  0  0  0  0  0  0  0
    1.6761    5.9367   -2.4011 H   0  0  0  0  0  0  0  0  0  0  0  0
   -4.2101    3.7153    2.7808 H   0  0  0  0  0  0  0  0  0  0  0  0
   -2.5002    3.6417    3.2623 H   0  0  0  0  0  0  0  0  0  0  0  0
   -3.5629    2.2006    3.4499 H   0  0  0  0  0  0  0  0  0  0  0  0
  1 23  1  0  0  0  0
  2 22  1  0  0  0  0
  2 29  1  0  0  0  0
  3 20  1  0  0  0  0
  3 35  1  0  0  0  0
  4 20  2  0  0  0  0
  5  8  1  0  0  0  0
  5  9  1  0  0  0  0
  5 13  1  0  0  0  0
  6 11  1  0  0  0  0
  6 21  1  0  0  0  0
  6 46  1  0  0  0  0
  7 14  1  0  0  0  0
  7 19  1  0  0  0  0
  7 47  1  0  0  0  0
  8 10  1  0  0  0  0
  8 14  1  0  0  0  0
  8 36  1  0  0  0  0
  9 12  1  0  0  0  0
  9 17  1  0  0  0  0
  9 37  1  0  0  0  0
 10 11  1  0  0  0  0
 10 38  1  0  0  0  0
 10 39  1  0  0  0  0
 11 12  1  0  0  0  0
 11 40  1  0  0  0  0
 12 41  1  0  0  0  0
 12 42  1  0  0  0  0
 13 15  1  0  0  0  0
 13 20  1  0  0  0  0
 13 43  1  0  0  0  0
 14 16  2  0  0  0  0
 15 16  1  0  0  0  0
 15 44  1  0  0  0  0
 15 45  1  0  0  0  0
 16 18  1  0  0  0  0
 17 23  1  0  0  0  0
 17 24  2  0  0  0  0
 18 19  1  0  0  0  0
 18 25  2  0  0  0  0
 19 27  2  0  0  0  0
 21 22  1  0  0  0  0
 21 48  1  0  0  0  0
 21 49  1  0  0  0  0
 22 26  1  0  0  0  0
 22 50  1  0  0  0  0
 23 31  2  0  0  0  0
 24 32  1  0  0  0  0
 24 51  1  0  0  0  0
 25 30  1  0  0  0  0
 25 54  1  0  0  0  0
 26 28  1  0  0  0  0
 26 52  1  0  0  0  0
 26 53  1  0  0  0  0
 27 33  1  0  0  0  0
 27 55  1  0  0  0  0
 28 29  1  0  0  0  0
 28 56  1  0  0  0  0
 28 57  1  0  0  0  0
 29 58  1  0  0  0  0
 29 59  1  0  0  0  0
 30 33  2  0  0  0  0
 30 60  1  0  0  0  0
 31 34  1  0  0  0  0
 31 61  1  0  0  0  0
 32 34  2  0  0  0  0
 32 62  1  0  0  0  0
 33 63  1  0  0  0  0
 34 64  1  0  0  0  0
 35 65  1  0  0  0  0
 35 66  1  0  0  0  0
 35 67  1  0  0  0  0
M  END
> <PUBCHEM_COMPOUND_CID>
25389794

> <PUBCHEM_CONFORMER_RMSD>
1

> <PUBCHEM_CONFORMER_DIVERSEORDER>
1
25
38
20
7
4
11
34
31
45
36
40
30
23
47
6
33
37
13
39
5
44
48
35
24
8
21
15
42
32
10
29
22
18
46
27
14
41
9
3
17
26
19
43
2
28
16
12

> <PUBCHEM_MMFF94_PARTIAL_CHARGES>
40
1 -0.19
11 0.27
13 0.33
14 -0.33
15 0.18
16 -0.18
17 -0.14
19 -0.15
2 -0.56
20 0.66
21 0.27
22 0.28
23 0.19
24 -0.15
25 -0.15
27 -0.15
29 0.28
3 -0.43
30 -0.15
31 -0.15
32 -0.15
33 -0.15
34 -0.15
35 0.28
4 -0.57
46 0.36
47 0.27
5 -0.81
51 0.15
54 0.15
55 0.15
6 -0.9
60 0.15
61 0.15
62 0.15
63 0.15
64 0.15
7 0.03
8 0.45
9 0.41

> <PUBCHEM_EFFECTIVE_ROTOR_COUNT>
8.2

> <PUBCHEM_PHARMACOPHORE_FEATURES>
13
1 2 acceptor
1 4 acceptor
1 5 cation
1 6 cation
1 6 donor
1 7 cation
1 7 donor
5 2 22 26 28 29 rings
5 7 14 16 18 19 rings
6 17 23 24 31 32 34 rings
6 18 19 25 27 30 33 rings
6 5 8 13 14 15 16 rings
6 5 8 9 10 11 12 rings

> <PUBCHEM_HEAVY_ATOM_COUNT>
35

> <PUBCHEM_ATOM_DEF_STEREO_COUNT>
5

> <PUBCHEM_ATOM_UDEF_STEREO_COUNT>
0

> <PUBCHEM_BOND_DEF_STEREO_COUNT>
0

> <PUBCHEM_BOND_UDEF_STEREO_COUNT>
0

> <PUBCHEM_ISOTOPIC_ATOM_COUNT>
0

> <PUBCHEM_COMPONENT_COUNT>
1

> <PUBCHEM_CACTVS_TAUTO_COUNT>
1

> <PUBCHEM_CONFORMER_ID>
01836AE200000001

> <PUBCHEM_MMFF94_ENERGY>
75.08

> <PUBCHEM_FEATURE_SELFOVERLAP>
66.167

> <PUBCHEM_SHAPE_FINGERPRINT>
10032420 55 17313647287912317023
10290309 65 17324660254369064602
10411042 1 18409725171013273166
10554248 39 18120352510488019783
10940486 97 18338240353940455981
1100329 8 18341896252184010617
11315621 246 18195534688801650502
11331351 85 18272656696892611055
12166972 35 18336824281558094271
12293681 160 17405447966358056201
12342043 65 17845650336489452350
13009979 54 18342741818863046387
131258 43 18272100435094709652
133893 2 18042421272760935573
13540713 5 18269573761384652721
13757389 114 18124042221410779908
140371 6 18413114965546602215
14068700 675 18341889710163172667
14114211 68 17683538599011990149
15876981 60 18261119509051545926
16087824 20 18119805804021926581
16114785 44 17692807095377049044
17686467 74 18340194251345188338
18365409 1 17915179015107489665
19303781 99 18267286798162908991
19319366 153 17691969684053840349
20771845 65 18342736355443138825
21344244 246 18262519337819717972
21716022 299 18268153234736193417
21927370 108 18335152950906672747
23559900 14 18264197179441957751
249057 3 18335978667676168285
255183 313 17907591232800993001
255183 451 18411134774953153118
3380486 145 18045227041977870249
3504750 166 17829601770085935754
4280585 95 18334850589582888830
4409770 3 17755287981791383764
5080951 261 17769061607493212470
6057620 51 18260831480614870634
6700243 42 17983882003400529974
70251023 43 18336548330115184915

> <PUBCHEM_SHAPE_MULTIPOLES>
680.46
14.09
7.26
1.8
12.73
6.88
0.4
-26
-1.72
3.16
-1.74
-0.43
2.48
-3.62

> <PUBCHEM_SHAPE_SELFOVERLAP>
1491.898

> <PUBCHEM_SHAPE_VOLUME>
369.4

> <PUBCHEM_COORDINATE_TYPE>
2
5
10

$$$$
