51137135
  -OEChem-12032416243D

 56 59  0     1  0  0  0  0  0999 V2000
    7.1531    0.8140   -0.5260 S   0  0  0  0  0  0  0  0  0  0  0  0
    2.1467   -2.0007    0.4710 O   0  0  0  0  0  0  0  0  0  0  0  0
    8.1739   -0.1113   -0.9953 O   0  0  0  0  0  0  0  0  0  0  0  0
    6.8067    1.9787   -1.3264 O   0  0  0  0  0  0  0  0  0  0  0  0
   -2.2438   -0.4019   -0.2198 N   0  0  1  0  0  0  0  0  0  0  0  0
    1.9643    0.2154    0.0323 N   0  0  0  0  0  0  0  0  0  0  0  0
   -8.5616    0.3856    0.3453 N   0  0  0  0  0  0  0  0  0  0  0  0
   -0.1367   -1.1491    0.4878 C   0  0  1  0  0  0  0  0  0  0  0  0
   -0.7966   -0.3309    1.6113 C   0  0  0  0  0  0  0  0  0  0  0  0
   -0.9487   -0.8088   -0.7691 C   0  0  0  0  0  0  0  0  0  0  0  0
   -1.9175    0.4426    0.9292 C   0  0  0  0  0  0  0  0  0  0  0  0
   -3.0697    0.2894   -1.1988 C   0  0  0  0  0  0  0  0  0  0  0  0
    1.3454   -0.9099    0.3144 C   0  0  0  0  0  0  0  0  0  0  0  0
   -4.5191    0.3145   -0.7919 C   0  0  0  0  0  0  0  0  0  0  0  0
    3.2877   -0.1518   -0.0031 C   0  0  0  0  0  0  0  0  0  0  0  0
    3.4033   -1.5078    0.2651 C   0  0  0  0  0  0  0  0  0  0  0  0
   -5.3031   -0.8306   -0.9319 C   0  0  0  0  0  0  0  0  0  0  0  0
   -5.0776    1.4832   -0.2743 C   0  0  0  0  0  0  0  0  0  0  0  0
    4.4506    0.5912   -0.2524 C   0  0  0  0  0  0  0  0  0  0  0  0
    4.6032   -2.2069    0.3080 C   0  0  0  0  0  0  0  0  0  0  0  0
    5.6815   -0.0801   -0.2179 C   0  0  0  0  0  0  0  0  0  0  0  0
    5.7536   -1.4513    0.0571 C   0  0  0  0  0  0  0  0  0  0  0  0
   -6.6457   -0.8071   -0.5544 C   0  0  0  0  0  0  0  0  0  0  0  0
   -6.4202    1.5068    0.1031 C   0  0  0  0  0  0  0  0  0  0  0  0
   -7.2042    0.3617   -0.0370 C   0  0  0  0  0  0  0  0  0  0  0  0
    7.6653    1.3830    1.0785 C   0  0  0  0  0  0  0  0  0  0  0  0
    8.9433    2.1878    0.9996 C   0  0  0  0  0  0  0  0  0  0  0  0
   -9.3848   -0.7989    0.2044 C   0  0  0  0  0  0  0  0  0  0  0  0
   -9.1492    1.5930    0.8912 C   0  0  0  0  0  0  0  0  0  0  0  0
   -0.2852   -2.2130    0.7221 H   0  0  0  0  0  0  0  0  0  0  0  0
   -1.2130   -1.0140    2.3622 H   0  0  0  0  0  0  0  0  0  0  0  0
   -0.1018    0.3429    2.1239 H   0  0  0  0  0  0  0  0  0  0  0  0
   -1.0425   -1.6782   -1.4288 H   0  0  0  0  0  0  0  0  0  0  0  0
   -0.4812    0.0058   -1.3383 H   0  0  0  0  0  0  0  0  0  0  0  0
   -1.5490    1.4298    0.6217 H   0  0  0  0  0  0  0  0  0  0  0  0
   -2.7666    0.5807    1.6060 H   0  0  0  0  0  0  0  0  0  0  0  0
   -3.0218   -0.2362   -2.1632 H   0  0  0  0  0  0  0  0  0  0  0  0
   -2.7024    1.3033   -1.4079 H   0  0  0  0  0  0  0  0  0  0  0  0
   -4.8788   -1.7470   -1.3338 H   0  0  0  0  0  0  0  0  0  0  0  0
   -4.4767    2.3814   -0.1586 H   0  0  0  0  0  0  0  0  0  0  0  0
    4.3818    1.6541   -0.4574 H   0  0  0  0  0  0  0  0  0  0  0  0
    4.6480   -3.2671    0.5231 H   0  0  0  0  0  0  0  0  0  0  0  0
    6.7143   -1.9601    0.0884 H   0  0  0  0  0  0  0  0  0  0  0  0
   -7.2132   -1.7235   -0.6827 H   0  0  0  0  0  0  0  0  0  0  0  0
   -6.8073    2.4398    0.5005 H   0  0  0  0  0  0  0  0  0  0  0  0
    6.8559    1.9942    1.4890 H   0  0  0  0  0  0  0  0  0  0  0  0
    7.8083    0.5041    1.7142 H   0  0  0  0  0  0  0  0  0  0  0  0
    9.2391    2.5304    1.9959 H   0  0  0  0  0  0  0  0  0  0  0  0
    8.8184    3.0678    0.3605 H   0  0  0  0  0  0  0  0  0  0  0  0
    9.7633    1.5906    0.5883 H   0  0  0  0  0  0  0  0  0  0  0  0
   -9.4511   -1.1129   -0.8432 H   0  0  0  0  0  0  0  0  0  0  0  0
   -8.9975   -1.6246    0.8118 H   0  0  0  0  0  0  0  0  0  0  0  0
  -10.4122   -0.6204    0.5408 H   0  0  0  0  0  0  0  0  0  0  0  0
  -10.2069    1.4516    1.1404 H   0  0  0  0  0  0  0  0  0  0  0  0
   -9.1075    2.4154    0.1684 H   0  0  0  0  0  0  0  0  0  0  0  0
   -8.6485    1.8927    1.8185 H   0  0  0  0  0  0  0  0  0  0  0  0
  1  3  2  0  0  0  0
  1  4  2  0  0  0  0
  1 21  1  0  0  0  0
  1 26  1  0  0  0  0
  2 13  1  0  0  0  0
  2 16  1  0  0  0  0
  5 10  1  0  0  0  0
  5 11  1  0  0  0  0
  5 12  1  0  0  0  0
  6 13  2  0  0  0  0
  6 15  1  0  0  0  0
  7 25  1  0  0  0  0
  7 28  1  0  0  0  0
  7 29  1  0  0  0  0
  8  9  1  0  0  0  0
  8 10  1  0  0  0  0
  8 13  1  0  0  0  0
  8 30  1  0  0  0  0
  9 11  1  0  0  0  0
  9 31  1  0  0  0  0
  9 32  1  0  0  0  0
 10 33  1  0  0  0  0
 10 34  1  0  0  0  0
 11 35  1  0  0  0  0
 11 36  1  0  0  0  0
 12 14  1  0  0  0  0
 12 37  1  0  0  0  0
 12 38  1  0  0  0  0
 14 17  2  0  0  0  0
 14 18  1  0  0  0  0
 15 16  2  0  0  0  0
 15 19  1  0  0  0  0
 16 20  1  0  0  0  0
 17 23  1  0  0  0  0
 17 39  1  0  0  0  0
 18 24  2  0  0  0  0
 18 40  1  0  0  0  0
 19 21  2  0  0  0  0
 19 41  1  0  0  0  0
 20 22  2  0  0  0  0
 20 42  1  0  0  0  0
 21 22  1  0  0  0  0
 22 43  1  0  0  0  0
 23 25  2  0  0  0  0
 23 44  1  0  0  0  0
 24 25  1  0  0  0  0
 24 45  1  0  0  0  0
 26 27  1  0  0  0  0
 26 46  1  0  0  0  0
 26 47  1  0  0  0  0
 27 48  1  0  0  0  0
 27 49  1  0  0  0  0
 27 50  1  0  0  0  0
 28 51  1  0  0  0  0
 28 52  1  0  0  0  0
 28 53  1  0  0  0  0
 29 54  1  0  0  0  0
 29 55  1  0  0  0  0
 29 56  1  0  0  0  0
M  END
> <PUBCHEM_COMPOUND_CID>
51137135

> <PUBCHEM_CONFORMER_RMSD>
0.8

> <PUBCHEM_CONFORMER_DIVERSEORDER>
1
202
104
128
199
157
101
158
9
185
149
78
163
30
25
165
217
107
132
155
29
126
164
168
191
10
58
7
50
179
184
218
154
231
208
111
88
67
159
246
87
4
170
2
230
18
172
221
177
123
207
26
173
241
146
245
137
174
171
211
24
248
133
139
201
64
183
227
222
39
105
239
106
150
186
148
28
219
192
215
252
138
13
52
108
226
197
160
122
89
110
156
189
61
20
142
147
17
92
135
212
84
178
169
213
113
14
109
76
11
242
102
232
175
51
253
181
210
121
5
235
244
237
44
162
47
118
240
195
53
81
62
66
73
205
194
225
117
203
3
75
143
190
21
99
204
19
71
95
233
72
247
161
236
129
85
69
176
65
136
6
42
79
127
140
124
196
112
119
166
151
60
68
116
94
56
46
27
114
40
198
103
193
120
251
54
238
80
16
43
250
33
86
167
55
49
36
153
216
83
57
131
209
32
249
41
130
23
74
182
34
38
22
82
91
200
224
8
48
98
12
243
229
93
31
35
125
59
228
187
15
115
90
180
134
70
63
37
223
141
152
96
100
214
97
234
45
77
206
145
144
220
188

> <PUBCHEM_MMFF94_PARTIAL_CHARGES>
34
1 1.2
10 0.27
11 0.27
12 0.41
13 0.3
14 -0.14
15 0.23
16 0.14
17 -0.15
18 -0.15
19 -0.15
2 -0.28
20 -0.15
21 -0.01
22 -0.15
23 -0.15
24 -0.15
25 0.1
26 0.11
28 0.37
29 0.37
3 -0.65
39 0.15
4 -0.65
40 0.15
41 0.15
42 0.15
43 0.15
44 0.15
45 0.15
5 -0.81
6 -0.57
7 -0.84
8 0.18

> <PUBCHEM_EFFECTIVE_ROTOR_COUNT>
7

> <PUBCHEM_PHARMACOPHORE_FEATURES>
8
1 3 acceptor
1 4 acceptor
1 5 cation
1 7 cation
5 2 6 13 15 16 rings
5 5 8 9 10 11 rings
6 14 17 18 23 24 25 rings
6 15 16 19 20 21 22 rings

> <PUBCHEM_HEAVY_ATOM_COUNT>
29

> <PUBCHEM_ATOM_DEF_STEREO_COUNT>
1

> <PUBCHEM_ATOM_UDEF_STEREO_COUNT>
0

> <PUBCHEM_BOND_DEF_STEREO_COUNT>
0

> <PUBCHEM_BOND_UDEF_STEREO_COUNT>
0

> <PUBCHEM_ISOTOPIC_ATOM_COUNT>
0

> <PUBCHEM_COMPONENT_COUNT>
1

> <PUBCHEM_CACTVS_TAUTO_COUNT>
1

> <PUBCHEM_CONFORMER_ID>
030C4A6F00000001

> <PUBCHEM_MMFF94_ENERGY>
65.9569

> <PUBCHEM_FEATURE_SELFOVERLAP>
40.733

> <PUBCHEM_SHAPE_FINGERPRINT>
10 15 16081371864928887668
10162869 55 17604148216168795031
10299344 5 18342455933567177023
10369192 42 18272930505996245045
10595046 47 18337388241081797379
106641 1 14779552296058697814
10666366 153 11023833863799611458
10883706 142 18040148522671228530
11181472 205 17131563725714048907
11315181 36 18409449164679423489
11578821 258 18409444753200599613
11638347 137 14490186099153437776
12013929 94 18412545449648280555
12089408 11 18201998807665331935
12236239 1 18271522018067633086
12592606 108 9079116661094117617
13560911 43 16950277408083928396
14117953 113 13254795745836951313
14251764 18 18186236229716176710
14671636 106 18337672023268933291
14849402 71 18334580170015911757
14856354 85 17704069608619338319
14933364 13 18411699864158444375
15183329 4 17203328896819186899
15690457 1 10953461838367308961
15728490 51 18114184172994140067
1577012 14 18272080595965939007
15840311 113 18409733967897196996
16994733 274 18261108526577881753
1754911 235 18131631192346752740
17686467 74 18187085066691233353
18335252 98 18335424569302450451
19302320 297 17749108942051770156
20105231 36 15985104124622990479
20157964 124 18260547806160645634
21033648 29 17969218001477808000
21150785 3 18344146994454389883
21521721 280 18187085040325279131
21795232 338 18270963566063763819
22224240 67 16877663457130452971
23516275 137 18128836157314121331
23576562 1 16772930645764598133
2747138 104 16878237376815463485
28498 318 11312058742482802555
3092352 35 18413669106353184271
3146122 72 16271351050855385832
34797466 226 18410577249543420046
3552219 110 17988932154268820481
3711267 37 18130797758702778905
4073 2 18113622304354703971
4149490 64 18260546697875058834
4325135 7 18335139787427359559
445580 126 18260541234987030120
45270241 37 17989211443597235590
5265222 85 18272649065337808255
5283156 175 16988846051788738806
5470011 282 17131836473776318772
5758199 1 18260829289299925659
59682541 35 17095529500373426105
6081469 158 14045745906656311168
6394761 36 12247679379183786115
67123 10 18408604764986306383

> <PUBCHEM_SHAPE_MULTIPOLES>
568.1
32.28
1.89
1.09
15.22
0.13
-0.04
14.58
-1.02
-2.46
-0.27
-0.36
0.19
-0.49

> <PUBCHEM_SHAPE_SELFOVERLAP>
1208.422

> <PUBCHEM_SHAPE_VOLUME>
321.5

> <PUBCHEM_COORDINATE_TYPE>
2
5
10

$$$$
