75536787
  -OEChem-12032416393D

 40 42  0     1  0  0  0  0  0999 V2000
   -0.6697   -1.1363    0.3802 O   0  0  0  0  0  0  0  0  0  0  0  0
   -6.8209    0.2487   -0.7731 O   0  0  0  0  0  0  0  0  0  0  0  0
   -2.1634    2.1264    0.2100 O   0  0  0  0  0  0  0  0  0  0  0  0
    2.4469    1.9968   -0.3106 O   0  0  0  0  0  0  0  0  0  0  0  0
   -4.1949   -0.2510    0.5225 N   0  0  0  0  0  0  0  0  0  0  0  0
    1.7843    0.2185    1.0242 N   0  0  0  0  0  0  0  0  0  0  0  0
    6.3780   -1.0720   -0.6343 N   0  0  0  0  0  0  0  0  0  0  0  0
   -2.8297   -0.2149    0.0238 C   0  0  1  0  0  0  0  0  0  0  0  0
   -1.9576    0.8197    0.7107 C   0  0  1  0  0  0  0  0  0  0  0  0
   -0.5663    0.2973    0.3789 C   0  0  1  0  0  0  0  0  0  0  0  0
   -5.0599   -0.9158   -0.4604 C   0  0  0  0  0  0  0  0  0  0  0  0
   -2.0610   -1.4944    0.3107 C   0  0  0  0  0  0  0  0  0  0  0  0
   -6.4996   -0.8998    0.0531 C   0  0  0  0  0  0  0  0  0  0  0  0
   -5.5565    0.1166   -1.4724 C   0  0  0  0  0  0  0  0  0  0  0  0
    0.4930    0.7365    1.3740 C   0  0  0  0  0  0  0  0  0  0  0  0
    2.6711    0.9012    0.1972 C   0  0  0  0  0  0  0  0  0  0  0  0
    3.9584    0.2177   -0.0906 C   0  0  0  0  0  0  0  0  0  0  0  0
    4.6420    0.4850   -1.2717 C   0  0  0  0  0  0  0  0  0  0  0  0
    4.4834   -0.6937    0.8190 C   0  0  0  0  0  0  0  0  0  0  0  0
    5.8368   -0.1802   -1.4942 C   0  0  0  0  0  0  0  0  0  0  0  0
    5.6854   -1.3062    0.5029 C   0  0  0  0  0  0  0  0  0  0  0  0
   -2.8148   -0.0052   -1.0550 H   0  0  0  0  0  0  0  0  0  0  0  0
   -2.1297    0.8252    1.7942 H   0  0  0  0  0  0  0  0  0  0  0  0
   -0.2681    0.6023   -0.6329 H   0  0  0  0  0  0  0  0  0  0  0  0
   -4.7187   -1.8765   -0.8544 H   0  0  0  0  0  0  0  0  0  0  0  0
   -2.3255   -1.9378    1.2774 H   0  0  0  0  0  0  0  0  0  0  0  0
   -2.2021   -2.2534   -0.4648 H   0  0  0  0  0  0  0  0  0  0  0  0
   -4.2162   -0.6719    1.4507 H   0  0  0  0  0  0  0  0  0  0  0  0
   -7.1030   -1.7661   -0.2380 H   0  0  0  0  0  0  0  0  0  0  0  0
   -6.6566   -0.6942    1.1165 H   0  0  0  0  0  0  0  0  0  0  0  0
   -5.0269    1.0725   -1.5317 H   0  0  0  0  0  0  0  0  0  0  0  0
   -5.7127   -0.2699   -2.4851 H   0  0  0  0  0  0  0  0  0  0  0  0
    0.2672    0.3479    2.3732 H   0  0  0  0  0  0  0  0  0  0  0  0
    0.5421    1.8292    1.4292 H   0  0  0  0  0  0  0  0  0  0  0  0
   -2.0131    2.1131   -0.7504 H   0  0  0  0  0  0  0  0  0  0  0  0
    2.0055   -0.7142    1.3558 H   0  0  0  0  0  0  0  0  0  0  0  0
    4.2650    1.1852   -2.0093 H   0  0  0  0  0  0  0  0  0  0  0  0
    4.0138   -0.9238    1.7683 H   0  0  0  0  0  0  0  0  0  0  0  0
    6.4080   -0.0080   -2.4005 H   0  0  0  0  0  0  0  0  0  0  0  0
    6.1410   -2.0196    1.1818 H   0  0  0  0  0  0  0  0  0  0  0  0
  1 10  1  0  0  0  0
  1 12  1  0  0  0  0
  2 13  1  0  0  0  0
  2 14  1  0  0  0  0
  3  9  1  0  0  0  0
  3 35  1  0  0  0  0
  4 16  2  0  0  0  0
  5  8  1  0  0  0  0
  5 11  1  0  0  0  0
  5 28  1  0  0  0  0
  6 15  1  0  0  0  0
  6 16  1  0  0  0  0
  6 36  1  0  0  0  0
  7 20  2  0  0  0  0
  7 21  1  0  0  0  0
  8  9  1  0  0  0  0
  8 12  1  0  0  0  0
  8 22  1  0  0  0  0
  9 10  1  0  0  0  0
  9 23  1  0  0  0  0
 10 15  1  0  0  0  0
 10 24  1  0  0  0  0
 11 13  1  0  0  0  0
 11 14  1  0  0  0  0
 11 25  1  0  0  0  0
 12 26  1  0  0  0  0
 12 27  1  0  0  0  0
 13 29  1  0  0  0  0
 13 30  1  0  0  0  0
 14 31  1  0  0  0  0
 14 32  1  0  0  0  0
 15 33  1  0  0  0  0
 15 34  1  0  0  0  0
 16 17  1  0  0  0  0
 17 18  2  0  0  0  0
 17 19  1  0  0  0  0
 18 20  1  0  0  0  0
 18 37  1  0  0  0  0
 19 21  2  0  0  0  0
 19 38  1  0  0  0  0
 20 39  1  0  0  0  0
 21 40  1  0  0  0  0
M  END
> <PUBCHEM_COMPOUND_CID>
75536787

> <PUBCHEM_CONFORMER_RMSD>
0.8

> <PUBCHEM_CONFORMER_DIVERSEORDER>
1
50
15
14
75
6
82
5
59
39
23
25
83
65
38
46
80
37
20
70
48
33
81
34
84
74
21
78
79
51
30
71
11
40
29
18
7
58
52
56
62
68
44
19
61
63
47
43
35
32
9
67
73
45
54
28
36
22
53
76
2
69
57
55
13
66
24
3
49
27
72
4
10
8
64
42
31
41
60
17
12
16
77
26

> <PUBCHEM_MMFF94_PARTIAL_CHARGES>
28
1 -0.56
10 0.28
11 0.21
12 0.28
13 0.26
14 0.26
15 0.3
16 0.54
17 0.09
18 -0.15
19 -0.15
2 -0.52
20 0.16
21 0.16
28 0.36
3 -0.68
35 0.4
36 0.37
37 0.15
38 0.15
39 0.15
4 -0.57
40 0.15
5 -0.84
6 -0.73
7 -0.62
8 0.27
9 0.28

> <PUBCHEM_EFFECTIVE_ROTOR_COUNT>
7.8

> <PUBCHEM_PHARMACOPHORE_FEATURES>
12
1 1 acceptor
1 2 acceptor
1 3 acceptor
1 3 donor
1 4 acceptor
1 5 cation
1 5 donor
1 6 donor
1 7 acceptor
4 2 11 13 14 rings
5 1 8 9 10 12 rings
6 7 17 18 19 20 21 rings

> <PUBCHEM_HEAVY_ATOM_COUNT>
21

> <PUBCHEM_ATOM_DEF_STEREO_COUNT>
3

> <PUBCHEM_ATOM_UDEF_STEREO_COUNT>
0

> <PUBCHEM_BOND_DEF_STEREO_COUNT>
0

> <PUBCHEM_BOND_UDEF_STEREO_COUNT>
0

> <PUBCHEM_ISOTOPIC_ATOM_COUNT>
0

> <PUBCHEM_COMPONENT_COUNT>
1

> <PUBCHEM_CACTVS_TAUTO_COUNT>
2

> <PUBCHEM_CONFORMER_ID>
0480999300000001

> <PUBCHEM_MMFF94_ENERGY>
51.1335

> <PUBCHEM_FEATURE_SELFOVERLAP>
60.898

> <PUBCHEM_SHAPE_FINGERPRINT>
10 15 10879988064778649718
10354089 29 10663818581732505778
106641 1 14333119789589514154
11724838 91 10807926068525610274
12166972 35 18040719203418505661
12236239 1 17312820485453935931
12516196 113 16989125357764559424
12555020 224 18272086123836859471
12670543 26 18333728009790851533
12730499 353 14562528453633402912
12954195 1 18271243816478721681
13177829 20 12607396702749205726
13533116 47 15697999652340726858
13668630 136 17989208152687195287
13685833 64 17275386516595380466
13862211 1 18060698407747518163
14251751 18 15697709415498759887
14251752 14 18408880720565960509
14294032 229 18124038932157681441
14347332 77 18341328894660434161
14528608 73 16370722651407327435
14848160 23 15410896249315253550
14933364 13 16732702748981560039
15048467 5 13551187792917730743
15183329 4 18333450919606510965
15188451 53 16917067733472040282
15475509 35 16199876039029647278
17834072 8 18335702753811660998
18222031 100 17989492931079130288
190975 80 11167930399370538477
19784866 240 17775292668008227120
20281389 69 12179837308115461535
21033648 29 13912898587305006716
21150785 3 17167865287684988303
21267235 1 18412266164597917275
21315764 119 17821731615323251342
21637258 2 16415474956896848749
21781051 124 18337397149045163747
22079108 93 11167939160797860212
221357 26 17603864499029232508
2215653 11 18411981373083702998
22224240 67 12895065220174884748
23035841 295 18343301483805042771
23198884 109 16515683330124295815
23402539 116 18201720635254903305
23559900 14 18268987751155668353
25147074 1 18191863427538316393
29717793 49 18412266134068935500
3004659 81 18410856573094455696
3472631 163 12973899121507634178
4058900 60 17168698619067990771
4340502 62 12103850059599178452
465052 167 17988928915340713047
542803 24 15068617197441351635
5758199 1 12901543521459057941
59682541 35 10159687002068951062
59682541 52 18113333094489493682
59755656 215 18273214170873980823
6438161 24 18187357698151102938
8988823 20 16773791528760859000

> <PUBCHEM_SHAPE_MULTIPOLES>
393.75
18.04
1.45
1.2
5.09
0.32
0.24
-5.56
6.8
-0.26
-0.12
-0.57
0.07
-0.19

> <PUBCHEM_SHAPE_SELFOVERLAP>
827.364

> <PUBCHEM_SHAPE_VOLUME>
221.9

> <PUBCHEM_COORDINATE_TYPE>
2
5
10

$$$$
