40779387
  -OEChem-12032416163D

 59 63  0     1  0  0  0  0  0999 V2000
    1.6252    3.1429    0.3281 S   0  0  0  0  0  0  0  0  0  0  0  0
    0.6952   -5.1302   -0.1494 S   0  0  0  0  0  0  0  0  0  0  0  0
    1.8963    2.8269    1.7168 O   0  0  0  0  0  0  0  0  0  0  0  0
    2.3980    4.1544   -0.3671 O   0  0  0  0  0  0  0  0  0  0  0  0
   -3.4240    2.1544    1.1296 N   0  0  2  0  0  0  0  0  0  0  0  0
   -2.8765   -2.5073   -0.6150 N   0  0  0  0  0  0  0  0  0  0  0  0
   -0.0344    3.4947    0.1288 N   0  0  0  0  0  0  0  0  0  0  0  0
   -1.9194   -3.4499   -0.5762 N   0  0  0  0  0  0  0  0  0  0  0  0
   -3.4082    0.8958   -1.1505 C   0  0  2  0  0  0  0  0  0  0  0  0
   -3.4303   -0.1156    0.0288 C   0  0  2  0  0  0  0  0  0  0  0  0
   -2.3412    2.6882    0.2619 C   0  0  2  0  0  0  0  0  0  0  0  0
   -2.1818    1.8214   -1.0056 C   0  0  0  0  0  0  0  0  0  0  0  0
   -4.6644    1.7807   -1.0016 C   0  0  0  0  0  0  0  0  0  0  0  0
   -3.2348    0.6974    1.3404 C   0  0  0  0  0  0  0  0  0  0  0  0
   -4.7125    2.3564    0.4245 C   0  0  0  0  0  0  0  0  0  0  0  0
   -1.0179    2.8485    1.0133 C   0  0  0  0  0  0  0  0  0  0  0  0
   -2.5085   -1.3245   -0.0439 C   0  0  0  0  0  0  0  0  0  0  0  0
   -1.2214   -1.5063    0.3996 C   0  0  0  0  0  0  0  0  0  0  0  0
   -0.9107   -2.8326    0.0446 C   0  0  0  0  0  0  0  0  0  0  0  0
   -4.1466   -2.8169   -1.2294 C   0  0  0  0  0  0  0  0  0  0  0  0
    1.7539    1.6382   -0.6106 C   0  0  0  0  0  0  0  0  0  0  0  0
    0.3713   -3.5115    0.3055 C   0  0  0  0  0  0  0  0  0  0  0  0
    3.1774    1.1782   -0.5420 C   0  0  0  0  0  0  0  0  0  0  0  0
    1.4461   -2.9277    0.9392 C   0  0  0  0  0  0  0  0  0  0  0  0
    2.5502   -3.8212    1.0527 C   0  0  0  0  0  0  0  0  0  0  0  0
    3.6719    0.6145    0.6342 C   0  0  0  0  0  0  0  0  0  0  0  0
    4.0087    1.3132   -1.6538 C   0  0  0  0  0  0  0  0  0  0  0  0
    2.2772   -5.0537    0.5015 C   0  0  0  0  0  0  0  0  0  0  0  0
    4.9978    0.1858    0.6985 C   0  0  0  0  0  0  0  0  0  0  0  0
    5.3344    0.8846   -1.5896 C   0  0  0  0  0  0  0  0  0  0  0  0
    5.8291    0.3210   -0.4133 C   0  0  0  0  0  0  0  0  0  0  0  0
   -3.3986    0.3862   -2.1194 H   0  0  0  0  0  0  0  0  0  0  0  0
   -4.4529   -0.5195    0.0773 H   0  0  0  0  0  0  0  0  0  0  0  0
   -2.6370    3.6996   -0.0551 H   0  0  0  0  0  0  0  0  0  0  0  0
   -1.2714    1.2134   -0.9761 H   0  0  0  0  0  0  0  0  0  0  0  0
   -2.1051    2.4717   -1.8859 H   0  0  0  0  0  0  0  0  0  0  0  0
   -5.5701    1.1952   -1.1976 H   0  0  0  0  0  0  0  0  0  0  0  0
   -4.6372    2.5933   -1.7378 H   0  0  0  0  0  0  0  0  0  0  0  0
   -3.9704    0.3524    2.0802 H   0  0  0  0  0  0  0  0  0  0  0  0
   -2.2693    0.5168    1.8213 H   0  0  0  0  0  0  0  0  0  0  0  0
   -4.9552    3.4255    0.3866 H   0  0  0  0  0  0  0  0  0  0  0  0
   -5.5260    1.8910    0.9954 H   0  0  0  0  0  0  0  0  0  0  0  0
   -0.6340    1.8815    1.3513 H   0  0  0  0  0  0  0  0  0  0  0  0
   -1.1589    3.4858    1.8936 H   0  0  0  0  0  0  0  0  0  0  0  0
   -0.3153    4.3638   -0.3405 H   0  0  0  0  0  0  0  0  0  0  0  0
   -0.6011   -0.7767    0.8997 H   0  0  0  0  0  0  0  0  0  0  0  0
   -4.3958   -2.0290   -1.9439 H   0  0  0  0  0  0  0  0  0  0  0  0
   -4.0727   -3.7729   -1.7550 H   0  0  0  0  0  0  0  0  0  0  0  0
   -4.9014   -2.8837   -0.4421 H   0  0  0  0  0  0  0  0  0  0  0  0
    1.0882    0.8878   -0.1755 H   0  0  0  0  0  0  0  0  0  0  0  0
    1.4381    1.8464   -1.6375 H   0  0  0  0  0  0  0  0  0  0  0  0
    1.4654   -1.9115    1.3125 H   0  0  0  0  0  0  0  0  0  0  0  0
    3.4967   -3.5720    1.5145 H   0  0  0  0  0  0  0  0  0  0  0  0
    3.0342    0.4795    1.5033 H   0  0  0  0  0  0  0  0  0  0  0  0
    3.6370    1.7520   -2.5759 H   0  0  0  0  0  0  0  0  0  0  0  0
    2.9311   -5.9128    0.4497 H   0  0  0  0  0  0  0  0  0  0  0  0
    5.3812   -0.2585    1.6124 H   0  0  0  0  0  0  0  0  0  0  0  0
    5.9818    0.9897   -2.4552 H   0  0  0  0  0  0  0  0  0  0  0  0
    6.8609   -0.0140   -0.3638 H   0  0  0  0  0  0  0  0  0  0  0  0
  1  3  2  0  0  0  0
  1  4  2  0  0  0  0
  1  7  1  0  0  0  0
  1 21  1  0  0  0  0
  2 22  1  0  0  0  0
  2 28  1  0  0  0  0
  5 11  1  0  0  0  0
  5 14  1  0  0  0  0
  5 15  1  0  0  0  0
  6  8  1  0  0  0  0
  6 17  1  0  0  0  0
  6 20  1  0  0  0  0
  7 16  1  0  0  0  0
  7 45  1  0  0  0  0
  8 19  2  0  0  0  0
  9 10  1  0  0  0  0
  9 12  1  0  0  0  0
  9 13  1  0  0  0  0
  9 32  1  0  0  0  0
 10 14  1  0  0  0  0
 10 17  1  0  0  0  0
 10 33  1  0  0  0  0
 11 12  1  0  0  0  0
 11 16  1  0  0  0  0
 11 34  1  0  0  0  0
 12 35  1  0  0  0  0
 12 36  1  0  0  0  0
 13 15  1  0  0  0  0
 13 37  1  0  0  0  0
 13 38  1  0  0  0  0
 14 39  1  0  0  0  0
 14 40  1  0  0  0  0
 15 41  1  0  0  0  0
 15 42  1  0  0  0  0
 16 43  1  0  0  0  0
 16 44  1  0  0  0  0
 17 18  2  0  0  0  0
 18 19  1  0  0  0  0
 18 46  1  0  0  0  0
 19 22  1  0  0  0  0
 20 47  1  0  0  0  0
 20 48  1  0  0  0  0
 20 49  1  0  0  0  0
 21 23  1  0  0  0  0
 21 50  1  0  0  0  0
 21 51  1  0  0  0  0
 22 24  2  0  0  0  0
 23 26  2  0  0  0  0
 23 27  1  0  0  0  0
 24 25  1  0  0  0  0
 24 52  1  0  0  0  0
 25 28  2  0  0  0  0
 25 53  1  0  0  0  0
 26 29  1  0  0  0  0
 26 54  1  0  0  0  0
 27 30  2  0  0  0  0
 27 55  1  0  0  0  0
 28 56  1  0  0  0  0
 29 31  2  0  0  0  0
 29 57  1  0  0  0  0
 30 31  1  0  0  0  0
 30 58  1  0  0  0  0
 31 59  1  0  0  0  0
M  END
> <PUBCHEM_COMPOUND_CID>
40779387

> <PUBCHEM_CONFORMER_RMSD>
1.2

> <PUBCHEM_CONFORMER_DIVERSEORDER>
2
60
24
36
20
53
11
12
54
56
39
48
59
18
23
71
25
66
5
49
32
38
62
61
46
41
19
21
1
70
9
45
26
13
4
52
64
16
8
44
50
72
10
43
15
7
22
28
57
42
30
14
68
75
34
27
63
69
65
33
40
3
17
47
6
35
37
73
29
74
67
51
58
55
31

> <PUBCHEM_MMFF94_PARTIAL_CHARGES>
38
1 1.33
10 0.18
11 0.27
14 0.27
15 0.27
16 0.36
17 -0.33
18 -0.15
19 0.29
2 -0.08
20 0.26
21 0.25
22 0.04
23 -0.14
24 -0.15
25 -0.15
26 -0.15
27 -0.15
28 -0.11
29 -0.15
3 -0.65
30 -0.15
31 -0.15
4 -0.65
45 0.42
46 0.15
5 -0.81
52 0.15
53 0.15
54 0.15
55 0.15
56 0.15
57 0.15
58 0.15
59 0.15
6 0.31
7 -0.91
8 -0.71

> <PUBCHEM_EFFECTIVE_ROTOR_COUNT>
8.2

> <PUBCHEM_PHARMACOPHORE_FEATURES>
9
1 3 acceptor
1 4 acceptor
1 5 cation
1 7 donor
1 8 acceptor
5 2 22 24 25 28 rings
5 6 8 17 18 19 rings
6 23 26 27 29 30 31 rings
8 5 9 10 11 12 13 14 15 rings

> <PUBCHEM_HEAVY_ATOM_COUNT>
31

> <PUBCHEM_ATOM_DEF_STEREO_COUNT>
3

> <PUBCHEM_ATOM_UDEF_STEREO_COUNT>
0

> <PUBCHEM_BOND_DEF_STEREO_COUNT>
0

> <PUBCHEM_BOND_UDEF_STEREO_COUNT>
0

> <PUBCHEM_ISOTOPIC_ATOM_COUNT>
0

> <PUBCHEM_COMPONENT_COUNT>
1

> <PUBCHEM_CACTVS_TAUTO_COUNT>
1

> <PUBCHEM_CONFORMER_ID>
026E3E7B00000002

> <PUBCHEM_MMFF94_ENERGY>
59.855

> <PUBCHEM_FEATURE_SELFOVERLAP>
45.69

> <PUBCHEM_SHAPE_FINGERPRINT>
10190108 129 18193011507258279259
10439779 11 18266442365433197706
11135926 11 18263364694505026028
11285246 1 17910083009891188455
11513181 2 17624406489929336662
12422481 6 17900791909547066114
12633257 1 18199203917225972637
12712778 12 18266445676799897472
12788726 201 18048607207136356878
13122387 1 17906168456217145090
140371 6 16969427305989191253
14251757 5 18192448574273028732
14466204 15 18410004460325935786
14659021 117 17907294704433089584
14725015 67 18197209463331034575
15001296 14 18334856066103722762
15297060 5 18343582911315444458
15320467 1 18194397793261136130
15927050 60 18413668007547613205
16719943 64 18408889555514414650
17627616 140 18336547097274889294
19311894 1 18341059592048542182
20764821 26 18337390427320683286
20775438 99 16616424180012111863
20775530 9 16391267348558671819
21344244 246 18265038160324984685
21796203 349 16684052400337018490
23559900 14 18271240629270557784
3027735 51 18339640152538628951
3298306 158 18334859381100972365
338550 245 18262243223083739134
373842 8 18191865613798534778
3882209 13 16830617820211366626
45266715 3 18054757776197421540
463206 1 18339361860142864072
474144 1 18041259025009805498
5265222 85 18189353397164336548
57091435 65 18121511150001650418
6287921 2 17836918997702027794
6371009 1 18192975218478130078
9961470 85 18196635320560776666

> <PUBCHEM_SHAPE_MULTIPOLES>
614
10.25
7.44
1.32
4.26
7.73
0.09
-5.07
2.3
2.54
-0.79
0.23
-0.43
-2.05

> <PUBCHEM_SHAPE_SELFOVERLAP>
1299.614

> <PUBCHEM_SHAPE_VOLUME>
346.1

> <PUBCHEM_COORDINATE_TYPE>
2
5
10

$$$$
