51137141
  -OEChem-12032416243D

 47 50  0     1  0  0  0  0  0999 V2000
    6.1132    0.7938   -0.5446 S   0  0  0  0  0  0  0  0  0  0  0  0
    1.0789   -2.0118    0.3296 O   0  0  0  0  0  0  0  0  0  0  0  0
    7.1053   -0.1046   -1.1165 O   0  0  0  0  0  0  0  0  0  0  0  0
    5.7706    2.0289   -1.2333 O   0  0  0  0  0  0  0  0  0  0  0  0
   -3.2954   -0.2857   -0.1134 N   0  0  1  0  0  0  0  0  0  0  0  0
    0.9283    0.2367    0.0874 N   0  0  0  0  0  0  0  0  0  0  0  0
   -8.2409    0.5430    0.2561 N   0  0  0  0  0  0  0  0  0  0  0  0
   -1.1870   -1.1266    0.4755 C   0  0  1  0  0  0  0  0  0  0  0  0
   -1.8053   -0.3974    1.6810 C   0  0  0  0  0  0  0  0  0  0  0  0
   -2.0212   -0.6654   -0.7272 C   0  0  0  0  0  0  0  0  0  0  0  0
   -2.9269    0.4508    1.0956 C   0  0  0  0  0  0  0  0  0  0  0  0
    0.2950   -0.8982    0.2870 C   0  0  0  0  0  0  0  0  0  0  0  0
   -4.1304    0.5013   -1.0088 C   0  0  0  0  0  0  0  0  0  0  0  0
   -5.5693    0.5155   -0.5658 C   0  0  0  0  0  0  0  0  0  0  0  0
    2.2434   -0.1483   -0.0118 C   0  0  0  0  0  0  0  0  0  0  0  0
    2.3395   -1.5241    0.1360 C   0  0  0  0  0  0  0  0  0  0  0  0
    3.4140    0.5937   -0.2249 C   0  0  0  0  0  0  0  0  0  0  0  0
    4.6325   -0.0986   -0.2783 C   0  0  0  0  0  0  0  0  0  0  0  0
    3.5266   -2.2444    0.0892 C   0  0  0  0  0  0  0  0  0  0  0  0
   -6.3777   -0.5949   -0.7823 C   0  0  0  0  0  0  0  0  0  0  0  0
   -6.0952    1.6397    0.0612 C   0  0  0  0  0  0  0  0  0  0  0  0
    4.6850   -1.4894   -0.1240 C   0  0  0  0  0  0  0  0  0  0  0  0
    6.6728    1.2136    1.0898 C   0  0  0  0  0  0  0  0  0  0  0  0
   -7.6945   -0.5314   -0.3564 C   0  0  0  0  0  0  0  0  0  0  0  0
   -7.4248    1.6033    0.4496 C   0  0  0  0  0  0  0  0  0  0  0  0
    7.9637    2.0006    1.0490 C   0  0  0  0  0  0  0  0  0  0  0  0
   -1.3502   -2.2040    0.6212 H   0  0  0  0  0  0  0  0  0  0  0  0
   -2.2172   -1.1356    2.3805 H   0  0  0  0  0  0  0  0  0  0  0  0
   -1.0864    0.2178    2.2323 H   0  0  0  0  0  0  0  0  0  0  0  0
   -1.5516    0.1873   -1.2356 H   0  0  0  0  0  0  0  0  0  0  0  0
   -2.1465   -1.4730   -1.4566 H   0  0  0  0  0  0  0  0  0  0  0  0
   -2.5470    1.4545    0.8650 H   0  0  0  0  0  0  0  0  0  0  0  0
   -3.7574    0.5443    1.8024 H   0  0  0  0  0  0  0  0  0  0  0  0
   -3.7492    1.5233   -1.1385 H   0  0  0  0  0  0  0  0  0  0  0  0
   -4.1147    0.0601   -2.0156 H   0  0  0  0  0  0  0  0  0  0  0  0
    3.3605    1.6714   -0.3361 H   0  0  0  0  0  0  0  0  0  0  0  0
    3.5564   -3.3199    0.2114 H   0  0  0  0  0  0  0  0  0  0  0  0
   -6.0001   -1.4881   -1.2683 H   0  0  0  0  0  0  0  0  0  0  0  0
   -5.4933    2.5226    0.2474 H   0  0  0  0  0  0  0  0  0  0  0  0
    5.6364   -2.0152   -0.1601 H   0  0  0  0  0  0  0  0  0  0  0  0
    6.8138    0.2808    1.6440 H   0  0  0  0  0  0  0  0  0  0  0  0
    5.8848    1.8006    1.5710 H   0  0  0  0  0  0  0  0  0  0  0  0
   -8.3663   -1.3709   -0.5017 H   0  0  0  0  0  0  0  0  0  0  0  0
   -7.8827    2.4543    0.9430 H   0  0  0  0  0  0  0  0  0  0  0  0
    8.2887    2.2509    2.0634 H   0  0  0  0  0  0  0  0  0  0  0  0
    7.8407    2.9344    0.4910 H   0  0  0  0  0  0  0  0  0  0  0  0
    8.7626    1.4274    0.5678 H   0  0  0  0  0  0  0  0  0  0  0  0
  1  3  2  0  0  0  0
  1  4  2  0  0  0  0
  1 18  1  0  0  0  0
  1 23  1  0  0  0  0
  2 12  1  0  0  0  0
  2 16  1  0  0  0  0
  5 10  1  0  0  0  0
  5 11  1  0  0  0  0
  5 13  1  0  0  0  0
  6 12  2  0  0  0  0
  6 15  1  0  0  0  0
  7 24  2  0  0  0  0
  7 25  1  0  0  0  0
  8  9  1  0  0  0  0
  8 10  1  0  0  0  0
  8 12  1  0  0  0  0
  8 27  1  0  0  0  0
  9 11  1  0  0  0  0
  9 28  1  0  0  0  0
  9 29  1  0  0  0  0
 10 30  1  0  0  0  0
 10 31  1  0  0  0  0
 11 32  1  0  0  0  0
 11 33  1  0  0  0  0
 13 14  1  0  0  0  0
 13 34  1  0  0  0  0
 13 35  1  0  0  0  0
 14 20  2  0  0  0  0
 14 21  1  0  0  0  0
 15 16  2  0  0  0  0
 15 17  1  0  0  0  0
 16 19  1  0  0  0  0
 17 18  2  0  0  0  0
 17 36  1  0  0  0  0
 18 22  1  0  0  0  0
 19 22  2  0  0  0  0
 19 37  1  0  0  0  0
 20 24  1  0  0  0  0
 20 38  1  0  0  0  0
 21 25  2  0  0  0  0
 21 39  1  0  0  0  0
 22 40  1  0  0  0  0
 23 26  1  0  0  0  0
 23 41  1  0  0  0  0
 23 42  1  0  0  0  0
 24 43  1  0  0  0  0
 25 44  1  0  0  0  0
 26 45  1  0  0  0  0
 26 46  1  0  0  0  0
 26 47  1  0  0  0  0
M  END
> <PUBCHEM_COMPOUND_CID>
51137141

> <PUBCHEM_CONFORMER_RMSD>
0.8

> <PUBCHEM_CONFORMER_DIVERSEORDER>
1
54
104
76
83
22
58
65
27
75
101
19
33
84
7
74
36
38
67
66
100
89
81
28
15
91
21
31
62
43
55
61
110
99
56
20
85
42
71
109
23
18
17
72
88
25
70
103
93
108
79
4
86
44
69
53
77
94
50
6
5
11
40
64
98
106
46
68
34
3
12
63
97
87
107
90
35
9
57
37
60
32
39
59
105
49
92
82
13
47
96
2
78
8
10
51
80
102
48
30
41
14
52
73
24
16
29
95
26
45

> <PUBCHEM_MMFF94_PARTIAL_CHARGES>
31
1 1.2
10 0.27
11 0.27
12 0.3
13 0.41
14 -0.14
15 0.23
16 0.14
17 -0.15
18 -0.01
19 -0.15
2 -0.28
20 -0.15
21 -0.15
22 -0.15
23 0.11
24 0.16
25 0.16
3 -0.65
36 0.15
37 0.15
38 0.15
39 0.15
4 -0.65
40 0.15
43 0.15
44 0.15
5 -0.81
6 -0.57
7 -0.62
8 0.18

> <PUBCHEM_EFFECTIVE_ROTOR_COUNT>
6

> <PUBCHEM_PHARMACOPHORE_FEATURES>
8
1 3 acceptor
1 4 acceptor
1 5 cation
1 7 acceptor
5 2 6 12 15 16 rings
5 5 8 9 10 11 rings
6 15 16 17 18 19 22 rings
6 7 14 20 21 24 25 rings

> <PUBCHEM_HEAVY_ATOM_COUNT>
26

> <PUBCHEM_ATOM_DEF_STEREO_COUNT>
1

> <PUBCHEM_ATOM_UDEF_STEREO_COUNT>
0

> <PUBCHEM_BOND_DEF_STEREO_COUNT>
0

> <PUBCHEM_BOND_UDEF_STEREO_COUNT>
0

> <PUBCHEM_ISOTOPIC_ATOM_COUNT>
0

> <PUBCHEM_COMPONENT_COUNT>
1

> <PUBCHEM_CACTVS_TAUTO_COUNT>
1

> <PUBCHEM_CONFORMER_ID>
030C4A7500000001

> <PUBCHEM_MMFF94_ENERGY>
43.3679

> <PUBCHEM_FEATURE_SELFOVERLAP>
40.733

> <PUBCHEM_SHAPE_FINGERPRINT>
10 15 16226051102079499964
10299344 5 18272651234649168271
10369192 42 18201999911609012981
10411042 1 17758392977676824290
10595046 47 18339641140797422571
11135609 187 18343018874556182579
11315181 36 18412544298548948853
11638347 137 15140957340229755440
11646440 116 17022628550593942525
12236239 1 18201435844642418407
12592606 108 8214142958293153417
12730499 353 17894916174726009563
13533116 47 18201717293306435058
14170010 4 18260550021973127164
14251764 18 18113053835573177597
14461889 52 17895197731048467523
14849402 71 18336270123920186373
14856354 85 17561081420135980679
14933364 13 18410856534613739005
15183329 4 17275386478457555161
15301273 46 12035440636567801992
15352257 5 11455890260838270709
1577012 14 18343578517584940543
16994733 274 18334574595464619545
18335252 98 18335707161303110499
18643901 69 11959739282291120945
20156587 128 15410633475655233272
20157964 124 18334858299260122994
2026 5 13901087509004044660
20281389 69 17676485025450107741
20554085 129 18130211736611850386
21033648 29 18114460180113200312
21150785 3 16988843895408953988
21298829 104 18412547604345114000
21795232 338 18271248322690771139
22224240 67 17240483615531293803
23536379 177 18341329995026604251
23559900 14 15482375551782068307
23576562 1 16772650270325940969
28498 318 10303816471454241731
29717793 49 17846501383625626174
3004659 81 16486968501427445467
3146122 72 14835543896129502170
335352 9 18408329866005771294
34797466 226 15626220239097304168
3711267 37 18130799940857460217
4073 2 18114187453737497755
4093350 32 18131071507148628030
4340502 62 16225765199123577722
445580 126 18334850624285193760
445580 167 18411411826677408167
445580 37 16343709790440086913
5265222 85 18131067156574065095
5283156 175 16702305620402708654
5385378 56 18040991813798943130
5470011 282 15123511449941896932
5758199 1 18334575737587932851
5937810 71 17417820509086890233
59682541 35 17240774982492855441
59682541 52 17346328077168224014

> <PUBCHEM_SHAPE_MULTIPOLES>
506.37
25.35
1.89
1.09
11.75
0.03
0.12
-13.53
-1.81
-2.25
0.18
-0.41
-0.2
-0.03

> <PUBCHEM_SHAPE_SELFOVERLAP>
1085.057

> <PUBCHEM_SHAPE_VOLUME>
283.6

> <PUBCHEM_COORDINATE_TYPE>
2
5
10

$$$$
