40777690
  -OEChem-12032416143D

 55 58  0     1  0  0  0  0  0999 V2000
    7.3893   -3.8560    0.3681 F   0  0  0  0  0  0  0  0  0  0  0  0
    2.4708    1.0968    1.0097 O   0  0  0  0  0  0  0  0  0  0  0  0
    4.0368    1.7905   -0.5055 O   0  0  0  0  0  0  0  0  0  0  0  0
   -6.7239   -3.7165   -0.1247 O   0  0  0  0  0  0  0  0  0  0  0  0
   -3.4938    0.7838   -0.3951 N   0  0  0  0  0  0  0  0  0  0  0  0
   -3.9116    1.8634   -1.0775 N   0  0  0  0  0  0  0  0  0  0  0  0
    4.1955   -0.2786    0.5780 N   0  0  0  0  0  0  0  0  0  0  0  0
   -0.5520    2.8773    0.2257 C   0  0  1  0  0  0  0  0  0  0  0  0
    0.6963    2.1231   -0.2705 C   0  0  0  0  0  0  0  0  0  0  0  0
    1.7563    2.3053    0.8198 C   0  0  1  0  0  0  0  0  0  0  0  0
   -1.8492    2.2012   -0.1555 C   0  0  0  0  0  0  0  0  0  0  0  0
   -0.3107    2.9684    1.7045 C   0  0  0  0  0  0  0  0  0  0  0  0
    0.9469    2.6498    2.0254 C   0  0  0  0  0  0  0  0  0  0  0  0
   -2.2645    0.9348    0.1766 C   0  0  0  0  0  0  0  0  0  0  0  0
   -2.9028    2.7261   -0.9276 C   0  0  0  0  0  0  0  0  0  0  0  0
   -1.6063   -0.1196    0.9746 C   0  0  0  0  0  0  0  0  0  0  0  0
   -2.9917    4.0596   -1.5480 C   0  0  0  0  0  0  0  0  0  0  0  0
   -4.3057   -0.3489   -0.3269 C   0  0  0  0  0  0  0  0  0  0  0  0
    3.6250    0.9430    0.2773 C   0  0  0  0  0  0  0  0  0  0  0  0
   -4.7438   -0.8194    0.9110 C   0  0  0  0  0  0  0  0  0  0  0  0
   -4.6808   -1.0096   -1.4966 C   0  0  0  0  0  0  0  0  0  0  0  0
   -5.5569   -1.9508    0.9792 C   0  0  0  0  0  0  0  0  0  0  0  0
   -5.4939   -2.1408   -1.4286 C   0  0  0  0  0  0  0  0  0  0  0  0
   -5.9318   -2.6115   -0.1907 C   0  0  0  0  0  0  0  0  0  0  0  0
    5.3840   -0.8364    0.0547 C   0  0  0  0  0  0  0  0  0  0  0  0
    5.8086   -2.0957    0.4787 C   0  0  0  0  0  0  0  0  0  0  0  0
    6.1316   -0.1286   -0.8866 C   0  0  0  0  0  0  0  0  0  0  0  0
    6.9807   -2.6472   -0.0387 C   0  0  0  0  0  0  0  0  0  0  0  0
    7.3037   -0.6802   -1.4040 C   0  0  0  0  0  0  0  0  0  0  0  0
   -7.1342   -4.1442    1.1732 C   0  0  0  0  0  0  0  0  0  0  0  0
    7.7282   -1.9395   -0.9799 C   0  0  0  0  0  0  0  0  0  0  0  0
   -0.5437    3.8981   -0.1779 H   0  0  0  0  0  0  0  0  0  0  0  0
    0.5169    1.0642   -0.4879 H   0  0  0  0  0  0  0  0  0  0  0  0
    1.0469    2.5558   -1.2162 H   0  0  0  0  0  0  0  0  0  0  0  0
    2.4245    3.1484    0.6036 H   0  0  0  0  0  0  0  0  0  0  0  0
   -1.0544    3.2867    2.4218 H   0  0  0  0  0  0  0  0  0  0  0  0
    1.3424    2.6795    3.0305 H   0  0  0  0  0  0  0  0  0  0  0  0
   -2.0783   -0.2114    1.9579 H   0  0  0  0  0  0  0  0  0  0  0  0
   -1.6584   -1.0909    0.4710 H   0  0  0  0  0  0  0  0  0  0  0  0
   -0.5490    0.0798    1.1565 H   0  0  0  0  0  0  0  0  0  0  0  0
   -2.1635    4.2140   -2.2473 H   0  0  0  0  0  0  0  0  0  0  0  0
   -3.9261    4.1899   -2.1043 H   0  0  0  0  0  0  0  0  0  0  0  0
   -2.9469    4.8424   -0.7839 H   0  0  0  0  0  0  0  0  0  0  0  0
   -4.4795   -0.3083    1.8334 H   0  0  0  0  0  0  0  0  0  0  0  0
   -4.3451   -0.6591   -2.4697 H   0  0  0  0  0  0  0  0  0  0  0  0
   -5.8646   -2.2597    1.9723 H   0  0  0  0  0  0  0  0  0  0  0  0
   -5.7819   -2.6521   -2.3431 H   0  0  0  0  0  0  0  0  0  0  0  0
    3.7016   -0.8499    1.2592 H   0  0  0  0  0  0  0  0  0  0  0  0
    5.2357   -2.6580    1.2114 H   0  0  0  0  0  0  0  0  0  0  0  0
    5.8657    0.8499   -1.2617 H   0  0  0  0  0  0  0  0  0  0  0  0
    7.8868   -0.1302   -2.1370 H   0  0  0  0  0  0  0  0  0  0  0  0
   -7.7560   -5.0353    1.0383 H   0  0  0  0  0  0  0  0  0  0  0  0
   -7.7579   -3.3910    1.6665 H   0  0  0  0  0  0  0  0  0  0  0  0
   -6.2781   -4.4418    1.7882 H   0  0  0  0  0  0  0  0  0  0  0  0
    8.6407   -2.3691   -1.3824 H   0  0  0  0  0  0  0  0  0  0  0  0
  1 28  1  0  0  0  0
  2 10  1  0  0  0  0
  2 19  1  0  0  0  0
  3 19  2  0  0  0  0
  4 24  1  0  0  0  0
  4 30  1  0  0  0  0
  5  6  1  0  0  0  0
  5 14  1  0  0  0  0
  5 18  1  0  0  0  0
  6 15  2  0  0  0  0
  7 19  1  0  0  0  0
  7 25  1  0  0  0  0
  7 48  1  0  0  0  0
  8  9  1  0  0  0  0
  8 11  1  0  0  0  0
  8 12  1  0  0  0  0
  8 32  1  0  0  0  0
  9 10  1  0  0  0  0
  9 33  1  0  0  0  0
  9 34  1  0  0  0  0
 10 13  1  0  0  0  0
 10 35  1  0  0  0  0
 11 14  2  0  0  0  0
 11 15  1  0  0  0  0
 12 13  2  0  0  0  0
 12 36  1  0  0  0  0
 13 37  1  0  0  0  0
 14 16  1  0  0  0  0
 15 17  1  0  0  0  0
 16 38  1  0  0  0  0
 16 39  1  0  0  0  0
 16 40  1  0  0  0  0
 17 41  1  0  0  0  0
 17 42  1  0  0  0  0
 17 43  1  0  0  0  0
 18 20  2  0  0  0  0
 18 21  1  0  0  0  0
 20 22  1  0  0  0  0
 20 44  1  0  0  0  0
 21 23  2  0  0  0  0
 21 45  1  0  0  0  0
 22 24  2  0  0  0  0
 22 46  1  0  0  0  0
 23 24  1  0  0  0  0
 23 47  1  0  0  0  0
 25 26  2  0  0  0  0
 25 27  1  0  0  0  0
 26 28  1  0  0  0  0
 26 49  1  0  0  0  0
 27 29  2  0  0  0  0
 27 50  1  0  0  0  0
 28 31  2  0  0  0  0
 29 31  1  0  0  0  0
 29 51  1  0  0  0  0
 30 52  1  0  0  0  0
 30 53  1  0  0  0  0
 30 54  1  0  0  0  0
 31 55  1  0  0  0  0
M  END
> <PUBCHEM_COMPOUND_CID>
40777690

> <PUBCHEM_CONFORMER_RMSD>
1

> <PUBCHEM_CONFORMER_DIVERSEORDER>
1
80
114
150
86
131
105
88
54
149
101
84
103
58
9
117
139
144
128
43
111
26
79
22
155
122
148
96
140
109
53
59
130
138
112
68
81
33
98
146
102
71
132
44
118
60
25
127
97
124
31
76
154
152
75
82
56
113
85
7
42
136
72
30
94
8
66
35
119
100
115
28
12
91
57
153
106
21
74
147
151
50
17
116
129
48
51
55
92
5
23
93
77
110
95
67
120
40
52
41
39
107
99
10
89
29
73
15
61
133
145
108
87
14
123
69
24
4
125
137
104
46
134
135
3
143
70
32
90
13
19
78
63
11
62
47
45
83
38
34
141
36
27
64
6
49
121
16
20
65
142
37
126
2
18

> <PUBCHEM_MMFF94_PARTIAL_CHARGES>
41
1 -0.19
10 0.42
11 -0.18
12 -0.29
13 -0.29
14 -0.33
15 0.11
16 0.18
17 0.18
18 -0.02
19 0.78
2 -0.43
20 -0.15
21 -0.15
22 -0.15
23 -0.15
24 0.08
25 0.12
26 -0.15
27 -0.15
28 0.19
29 -0.15
3 -0.57
30 0.28
31 -0.15
36 0.15
37 0.15
4 -0.36
44 0.15
45 0.15
46 0.15
47 0.15
48 0.37
49 0.15
5 0.59
50 0.15
51 0.15
55 0.15
6 -0.71
7 -0.55
8 0.32

> <PUBCHEM_EFFECTIVE_ROTOR_COUNT>
7.6

> <PUBCHEM_PHARMACOPHORE_FEATURES>
8
1 3 acceptor
1 4 acceptor
1 6 acceptor
1 7 donor
5 5 6 11 14 15 rings
5 8 9 10 12 13 rings
6 18 20 21 22 23 24 rings
6 25 26 27 28 29 31 rings

> <PUBCHEM_HEAVY_ATOM_COUNT>
31

> <PUBCHEM_ATOM_DEF_STEREO_COUNT>
2

> <PUBCHEM_ATOM_UDEF_STEREO_COUNT>
0

> <PUBCHEM_BOND_DEF_STEREO_COUNT>
0

> <PUBCHEM_BOND_UDEF_STEREO_COUNT>
0

> <PUBCHEM_ISOTOPIC_ATOM_COUNT>
0

> <PUBCHEM_COMPONENT_COUNT>
1

> <PUBCHEM_CACTVS_TAUTO_COUNT>
2

> <PUBCHEM_CONFORMER_ID>
026E37DA00000001

> <PUBCHEM_MMFF94_ENERGY>
96.867

> <PUBCHEM_FEATURE_SELFOVERLAP>
40.598

> <PUBCHEM_SHAPE_FINGERPRINT>
10119406 146 18339071611302510845
10209105 3 18408038529631479651
10280341 67 7781510362018899358
10319688 140 18123189262475998328
10622 236 18117546333201381098
11059845 2 17630914637320863889
117089 54 18262525921878651323
11761917 116 18411143575842315550
12013929 27 18187650168154511694
12166972 35 18334018306762471844
12342043 65 18342731966208751569
12661589 4 18408595986120932202
13383661 66 18201167589412015002
13540713 4 18269815623351192857
1361 4 18337673130467973942
1361 87 17749955595600079539
13690498 29 18334854996171816309
13757389 114 17970061137528446741
13782708 43 18412541020412917548
13947947 140 18272374165771294591
14347332 77 18408885139618238396
14420673 8 18342176661866367761
14647877 103 9943516445507868666
14931854 50 17894343380380335851
15183329 4 16805608015408963480
15230672 131 18118678812253692073
15467298 65 18048313341485797106
15510800 12 18336824303053965474
15530120 55 17749123175092594468
15803439 3 15357698600025152210
18393751 57 17264670895447537697
19246450 95 17631190632087680859
19303781 99 18339065048107393598
19438510 23 9655585110179474117
20505436 4 17098337489699569945
21095086 4 18338521940560111475
21196832 93 18335988649032633138
21307412 95 18336532851596382365
21585483 132 17897154729536274954
21682296 61 18339080518779930115
21796203 349 17060620031903800616
22122407 14 10662946699039572950
22899556 105 18113329825882908011
229767 8 18411701027678610147
23522609 53 18053418549513332048
23559900 14 18270104735423236648
23569943 247 18412266164509156395
24204213 62 17322405152127612924
25269216 80 16153426178123803123
255183 451 18262519324692755701
270888 7 8502381022314784729
2748736 6 8214144036535646870
2838139 119 11170209682616802712
32027 91 18058155301919192359
3504750 166 18059575850037576727
3862424 121 17824838960191299547
393628 179 12252184129894827438
393628 194 8790886276611727043
4107672 100 17968658199340406245
4112364 45 11167679654368197557
4330586 98 17895770611530824418
439807 62 18410014325148279580
44062 13 18337665317791016117
474113 269 17846206826837830927
484985 159 18129384813235781329
513202 73 18410290337707324621
5470011 282 17968100845670576430
5718773 13 18412260657579749838
636775 8 18201731613897979886
6698420 124 18126278637253978633
6712543 237 15123514717831417215
9980921 52 17485904631400464015
999808 66 17775286024289945340

> <PUBCHEM_SHAPE_MULTIPOLES>
598.14
22.49
5.44
1.49
25.32
0.98
-0.07
34.25
4.39
-5.14
-0.42
-0.74
-0.59
2.25

> <PUBCHEM_SHAPE_SELFOVERLAP>
1301.369

> <PUBCHEM_SHAPE_VOLUME>
328.6

> <PUBCHEM_COORDINATE_TYPE>
2
5
10

$$$$
