11912162
  -OEChem-12032416413D

 49 53  0     1  0  0  0  0  0999 V2000
   -1.1307    2.0365   -1.5206 O   0  0  0  0  0  0  0  0  0  0  0  0
    2.6756   -1.1093   -2.4344 O   0  0  0  0  0  0  0  0  0  0  0  0
    3.3367    0.1200   -0.5840 N   0  0  0  0  0  0  0  0  0  0  0  0
    0.7479    1.8685   -0.1470 N   0  0  0  0  0  0  0  0  0  0  0  0
    0.9669   -1.9523    0.0210 N   0  0  0  0  0  0  0  0  0  0  0  0
    2.5938   -4.0757    0.8642 N   0  0  0  0  0  0  0  0  0  0  0  0
   -5.4546   -2.8413   -1.3452 N   0  0  0  0  0  0  0  0  0  0  0  0
    3.0871    2.5714   -0.9216 C   0  0  1  0  0  0  0  0  0  0  0  0
    2.7767    1.6080    1.3227 C   0  0  2  0  0  0  0  0  0  0  0  0
    3.3563    2.7995    0.5620 C   0  0  0  0  0  0  0  0  0  0  0  0
    3.7555    1.2663   -1.3930 C   0  0  0  0  0  0  0  0  0  0  0  0
    1.5702    2.5598   -1.1511 C   0  0  0  0  0  0  0  0  0  0  0  0
    3.4817    0.3124    0.8695 C   0  0  0  0  0  0  0  0  0  0  0  0
    1.2840    1.4817    1.0848 C   0  0  0  0  0  0  0  0  0  0  0  0
    0.4909    0.9563    2.0326 C   0  0  0  0  0  0  0  0  0  0  0  0
   -0.6181    1.7032   -0.4510 C   0  0  0  0  0  0  0  0  0  0  0  0
    2.7695   -1.0056   -1.2104 C   0  0  0  0  0  0  0  0  0  0  0  0
   -1.4699    1.0812    0.6205 C   0  0  0  0  0  0  0  0  0  0  0  0
   -0.9099    0.7540    1.7938 C   0  0  0  0  0  0  0  0  0  0  0  0
    2.2556   -2.0588   -0.3456 C   0  0  0  0  0  0  0  0  0  0  0  0
   -2.8617    0.8501    0.4009 C   0  0  0  0  0  0  0  0  0  0  0  0
   -3.2932   -0.3637   -0.1349 C   0  0  0  0  0  0  0  0  0  0  0  0
   -3.7912    1.8400    0.7209 C   0  0  0  0  0  0  0  0  0  0  0  0
    3.0576   -3.0957    0.0636 C   0  0  0  0  0  0  0  0  0  0  0  0
   -4.6531   -0.5873   -0.3505 C   0  0  0  0  0  0  0  0  0  0  0  0
   -5.1512    1.6164    0.5055 C   0  0  0  0  0  0  0  0  0  0  0  0
    0.5029   -2.9324    0.8213 C   0  0  0  0  0  0  0  0  0  0  0  0
   -5.5821    0.4028   -0.0303 C   0  0  0  0  0  0  0  0  0  0  0  0
    1.3020   -3.9753    1.2356 C   0  0  0  0  0  0  0  0  0  0  0  0
   -5.0952   -1.8305   -0.8992 C   0  0  0  0  0  0  0  0  0  0  0  0
    3.5186    3.3944   -1.5044 H   0  0  0  0  0  0  0  0  0  0  0  0
    2.9730    1.7551    2.3926 H   0  0  0  0  0  0  0  0  0  0  0  0
    2.8969    3.7373    0.8986 H   0  0  0  0  0  0  0  0  0  0  0  0
    4.4340    2.8848    0.7467 H   0  0  0  0  0  0  0  0  0  0  0  0
    1.2090    3.5972   -1.1633 H   0  0  0  0  0  0  0  0  0  0  0  0
    1.3361    2.1474   -2.1407 H   0  0  0  0  0  0  0  0  0  0  0  0
    3.5422    1.0966   -2.4534 H   0  0  0  0  0  0  0  0  0  0  0  0
    4.8447    1.3465   -1.2918 H   0  0  0  0  0  0  0  0  0  0  0  0
    4.5572    0.3773    1.0758 H   0  0  0  0  0  0  0  0  0  0  0  0
    3.1021   -0.5443    1.4317 H   0  0  0  0  0  0  0  0  0  0  0  0
    0.8867    0.6325    2.9895 H   0  0  0  0  0  0  0  0  0  0  0  0
   -1.4848    0.3063    2.5992 H   0  0  0  0  0  0  0  0  0  0  0  0
   -2.5690   -1.1373   -0.3864 H   0  0  0  0  0  0  0  0  0  0  0  0
   -3.4727    2.7926    1.1380 H   0  0  0  0  0  0  0  0  0  0  0  0
    4.0968   -3.1818   -0.2307 H   0  0  0  0  0  0  0  0  0  0  0  0
   -5.8744    2.3874    0.7544 H   0  0  0  0  0  0  0  0  0  0  0  0
   -0.5347   -2.8514    1.1207 H   0  0  0  0  0  0  0  0  0  0  0  0
   -6.6455    0.2436   -0.1926 H   0  0  0  0  0  0  0  0  0  0  0  0
    0.9285   -4.7620    1.8793 H   0  0  0  0  0  0  0  0  0  0  0  0
  1 16  2  0  0  0  0
  2 17  2  0  0  0  0
  3 11  1  0  0  0  0
  3 13  1  0  0  0  0
  3 17  1  0  0  0  0
  4 12  1  0  0  0  0
  4 14  1  0  0  0  0
  4 16  1  0  0  0  0
  5 20  2  0  0  0  0
  5 27  1  0  0  0  0
  6 24  2  0  0  0  0
  6 29  1  0  0  0  0
  7 30  3  0  0  0  0
  8 10  1  0  0  0  0
  8 11  1  0  0  0  0
  8 12  1  0  0  0  0
  8 31  1  0  0  0  0
  9 10  1  0  0  0  0
  9 13  1  0  0  0  0
  9 14  1  0  0  0  0
  9 32  1  0  0  0  0
 10 33  1  0  0  0  0
 10 34  1  0  0  0  0
 11 37  1  0  0  0  0
 11 38  1  0  0  0  0
 12 35  1  0  0  0  0
 12 36  1  0  0  0  0
 13 39  1  0  0  0  0
 13 40  1  0  0  0  0
 14 15  2  0  0  0  0
 15 19  1  0  0  0  0
 15 41  1  0  0  0  0
 16 18  1  0  0  0  0
 17 20  1  0  0  0  0
 18 19  2  0  0  0  0
 18 21  1  0  0  0  0
 19 42  1  0  0  0  0
 20 24  1  0  0  0  0
 21 22  1  0  0  0  0
 21 23  2  0  0  0  0
 22 25  2  0  0  0  0
 22 43  1  0  0  0  0
 23 26  1  0  0  0  0
 23 44  1  0  0  0  0
 24 45  1  0  0  0  0
 25 28  1  0  0  0  0
 25 30  1  0  0  0  0
 26 28  2  0  0  0  0
 26 46  1  0  0  0  0
 27 29  2  0  0  0  0
 27 47  1  0  0  0  0
 28 48  1  0  0  0  0
 29 49  1  0  0  0  0
M  END
> <PUBCHEM_COMPOUND_CID>
11912162

> <PUBCHEM_CONFORMER_RMSD>
0.8

> <PUBCHEM_CONFORMER_DIVERSEORDER>
1
12
28
17
33
6
9
31
21
15
23
30
22
18
32
27
19
4
7
16
24
20
13
2
5
25
29
10
11
3
8
14
26

> <PUBCHEM_MMFF94_PARTIAL_CHARGES>
37
1 -0.57
11 0.3
12 0.3
13 0.3
14 -0.03
15 -0.15
16 0.62
17 0.54
18 -0.01
19 -0.15
2 -0.57
20 0.4
21 0.03
22 -0.15
23 -0.15
24 0.16
25 0.07
26 -0.15
27 0.16
28 -0.15
29 0.16
3 -0.66
30 0.48
4 -0.47
41 0.15
42 0.15
43 0.15
44 0.15
45 0.15
46 0.15
47 0.15
48 0.15
49 0.15
5 -0.62
6 -0.62
7 -0.56
9 0.14

> <PUBCHEM_EFFECTIVE_ROTOR_COUNT>
4

> <PUBCHEM_PHARMACOPHORE_FEATURES>
10
1 1 acceptor
1 2 acceptor
1 5 acceptor
1 6 acceptor
1 7 acceptor
6 21 22 23 25 26 28 rings
6 3 8 9 10 11 13 rings
6 4 14 15 16 18 19 rings
6 4 8 9 10 12 14 rings
6 5 6 20 24 27 29 rings

> <PUBCHEM_HEAVY_ATOM_COUNT>
30

> <PUBCHEM_ATOM_DEF_STEREO_COUNT>
2

> <PUBCHEM_ATOM_UDEF_STEREO_COUNT>
0

> <PUBCHEM_BOND_DEF_STEREO_COUNT>
0

> <PUBCHEM_BOND_UDEF_STEREO_COUNT>
0

> <PUBCHEM_ISOTOPIC_ATOM_COUNT>
0

> <PUBCHEM_COMPONENT_COUNT>
1

> <PUBCHEM_CACTVS_TAUTO_COUNT>
1

> <PUBCHEM_CONFORMER_ID>
00B5C3E200000001

> <PUBCHEM_MMFF94_ENERGY>
87.711

> <PUBCHEM_FEATURE_SELFOVERLAP>
52.351

> <PUBCHEM_SHAPE_FINGERPRINT>
11186622 123 18343579668610185279
11370993 70 18267306610888307488
11796584 16 17917720084756787853
12107183 9 17837218074003805201
12156800 1 15335701882312016146
12596599 1 17701834197451684747
12788726 201 17472978879371225918
13004483 165 17180805151990173778
1361 2 18190744326349009605
13617811 41 18264761246751105413
14068700 675 17976262340354004130
14117953 113 17476922355613600407
15250474 111 18342733010370789055
17093844 170 18265892656125107330
17138139 8 17843116158890157335
17492 54 18190488024771115886
20567600 347 18339353192751265122
20691752 17 18113057129871135407
20764821 26 17975414934373924155
20775530 9 17829046511579950586
21054139 6 18341610481395815964
22393880 68 18342464724821705365
23516275 137 17056158252093683367
23559900 14 17559684944887946613
238 59 18262537917516087026
25222932 49 17130696365906671181
3052486 1 17972878343588720238
338550 245 18411415137469627335
4280585 95 17974272245007165074
4340502 62 17987794262739479296
444735 86 18057590148737875471
460360 51 17898844648341780073
463206 1 18118131272675136235
6823239 73 17488757674314733198

> <PUBCHEM_SHAPE_MULTIPOLES>
580.74
10.11
4.53
1.65
15.91
4.61
-0.11
0.95
-2.57
-3.34
0.47
-0.83
-0.08
-1.54

> <PUBCHEM_SHAPE_SELFOVERLAP>
1291.819

> <PUBCHEM_SHAPE_VOLUME>
300.8

> <PUBCHEM_COORDINATE_TYPE>
2
5
10

$$$$
