25313511
  -OEChem-12032416193D

 51 53  0     1  0  0  0  0  0999 V2000
   -8.4921   -0.4891   -0.9298 F   0  0  0  0  0  0  0  0  0  0  0  0
    4.6193    0.2775   -2.2328 O   0  0  0  0  0  0  0  0  0  0  0  0
   -2.7621   -0.1084    1.5914 O   0  0  0  0  0  0  0  0  0  0  0  0
    1.6684    3.3342    1.0879 N   0  0  0  0  0  0  0  0  0  0  0  0
    5.6766   -0.9059   -0.5413 N   0  0  0  0  0  0  0  0  0  0  0  0
   -1.3811   -0.0753    1.7419 N   0  0  0  0  0  0  0  0  0  0  0  0
    2.4789    1.1606   -0.7355 C   0  0  1  0  0  0  0  0  0  0  0  0
    1.1266    1.1606    0.0165 C   0  0  2  0  0  0  0  0  0  0  0  0
    2.9722    2.6099   -0.8812 C   0  0  0  0  0  0  0  0  0  0  0  0
    1.2037    1.9668    1.3240 C   0  0  0  0  0  0  0  0  0  0  0  0
    2.9832    3.3590    0.4507 C   0  0  0  0  0  0  0  0  0  0  0  0
    0.5895   -0.2461    0.2837 C   0  0  0  0  0  0  0  0  0  0  0  0
    3.5540    0.2811   -0.0858 C   0  0  0  0  0  0  0  0  0  0  0  0
   -0.8949   -0.2315    0.5073 C   0  0  0  0  0  0  0  0  0  0  0  0
    4.6534   -0.1057   -1.0605 C   0  0  0  0  0  0  0  0  0  0  0  0
   -1.9119   -0.3667   -0.4536 C   0  0  0  0  0  0  0  0  0  0  0  0
   -3.0659   -0.2824    0.2798 C   0  0  0  0  0  0  0  0  0  0  0  0
    5.6956   -1.3476    0.8512 C   0  0  0  0  0  0  0  0  0  0  0  0
    6.8010   -1.3594   -1.3508 C   0  0  0  0  0  0  0  0  0  0  0  0
   -4.4646   -0.3367   -0.0321 C   0  0  0  0  0  0  0  0  0  0  0  0
    5.0025   -2.6259    1.0081 C   0  0  0  0  0  0  0  0  0  0  0  0
   -4.8787   -0.5129   -1.3525 C   0  0  0  0  0  0  0  0  0  0  0  0
   -5.4112   -0.2125    0.9850 C   0  0  0  0  0  0  0  0  0  0  0  0
   -6.2391   -0.5645   -1.6557 C   0  0  0  0  0  0  0  0  0  0  0  0
   -6.7716   -0.2640    0.6816 C   0  0  0  0  0  0  0  0  0  0  0  0
   -7.1855   -0.4400   -0.6387 C   0  0  0  0  0  0  0  0  0  0  0  0
    4.4340   -3.6750    1.1412 C   0  0  0  0  0  0  0  0  0  0  0  0
    2.2765    0.7746   -1.7441 H   0  0  0  0  0  0  0  0  0  0  0  0
    0.4123    1.6804   -0.6413 H   0  0  0  0  0  0  0  0  0  0  0  0
    3.9724    2.6469   -1.3265 H   0  0  0  0  0  0  0  0  0  0  0  0
    2.3083    3.1385   -1.5787 H   0  0  0  0  0  0  0  0  0  0  0  0
    1.8585    1.4706    2.0510 H   0  0  0  0  0  0  0  0  0  0  0  0
    0.2153    2.0411    1.7868 H   0  0  0  0  0  0  0  0  0  0  0  0
    3.7431    2.9562    1.1291 H   0  0  0  0  0  0  0  0  0  0  0  0
    3.2577    4.4033    0.2636 H   0  0  0  0  0  0  0  0  0  0  0  0
    1.0815   -0.7058    1.1498 H   0  0  0  0  0  0  0  0  0  0  0  0
    0.7924   -0.8950   -0.5782 H   0  0  0  0  0  0  0  0  0  0  0  0
    3.1146   -0.6554    0.2657 H   0  0  0  0  0  0  0  0  0  0  0  0
    3.9899    0.7980    0.7718 H   0  0  0  0  0  0  0  0  0  0  0  0
    1.7146    3.8330    1.9760 H   0  0  0  0  0  0  0  0  0  0  0  0
   -1.8091   -0.5042   -1.5201 H   0  0  0  0  0  0  0  0  0  0  0  0
    5.2587   -0.5992    1.5148 H   0  0  0  0  0  0  0  0  0  0  0  0
    6.7412   -1.4461    1.1668 H   0  0  0  0  0  0  0  0  0  0  0  0
    6.8362   -2.4525   -1.3389 H   0  0  0  0  0  0  0  0  0  0  0  0
    6.7013   -1.0186   -2.3845 H   0  0  0  0  0  0  0  0  0  0  0  0
    7.7264   -0.9533   -0.9322 H   0  0  0  0  0  0  0  0  0  0  0  0
   -4.1652   -0.6127   -2.1663 H   0  0  0  0  0  0  0  0  0  0  0  0
   -5.1285   -0.0740    2.0255 H   0  0  0  0  0  0  0  0  0  0  0  0
   -6.5623   -0.7015   -2.6835 H   0  0  0  0  0  0  0  0  0  0  0  0
   -7.5093   -0.1671    1.4727 H   0  0  0  0  0  0  0  0  0  0  0  0
    3.9293   -4.6053    1.2587 H   0  0  0  0  0  0  0  0  0  0  0  0
  1 26  1  0  0  0  0
  2 15  2  0  0  0  0
  3  6  1  0  0  0  0
  3 17  1  0  0  0  0
  4 10  1  0  0  0  0
  4 11  1  0  0  0  0
  4 40  1  0  0  0  0
  5 15  1  0  0  0  0
  5 18  1  0  0  0  0
  5 19  1  0  0  0  0
  6 14  2  0  0  0  0
  7  8  1  0  0  0  0
  7  9  1  0  0  0  0
  7 13  1  0  0  0  0
  7 28  1  0  0  0  0
  8 10  1  0  0  0  0
  8 12  1  0  0  0  0
  8 29  1  0  0  0  0
  9 11  1  0  0  0  0
  9 30  1  0  0  0  0
  9 31  1  0  0  0  0
 10 32  1  0  0  0  0
 10 33  1  0  0  0  0
 11 34  1  0  0  0  0
 11 35  1  0  0  0  0
 12 14  1  0  0  0  0
 12 36  1  0  0  0  0
 12 37  1  0  0  0  0
 13 15  1  0  0  0  0
 13 38  1  0  0  0  0
 13 39  1  0  0  0  0
 14 16  1  0  0  0  0
 16 17  2  0  0  0  0
 16 41  1  0  0  0  0
 17 20  1  0  0  0  0
 18 21  1  0  0  0  0
 18 42  1  0  0  0  0
 18 43  1  0  0  0  0
 19 44  1  0  0  0  0
 19 45  1  0  0  0  0
 19 46  1  0  0  0  0
 20 22  2  0  0  0  0
 20 23  1  0  0  0  0
 21 27  3  0  0  0  0
 22 24  1  0  0  0  0
 22 47  1  0  0  0  0
 23 25  2  0  0  0  0
 23 48  1  0  0  0  0
 24 26  2  0  0  0  0
 24 49  1  0  0  0  0
 25 26  1  0  0  0  0
 25 50  1  0  0  0  0
 27 51  1  0  0  0  0
M  END
> <PUBCHEM_COMPOUND_CID>
25313511

> <PUBCHEM_CONFORMER_RMSD>
1.2

> <PUBCHEM_CONFORMER_DIVERSEORDER>
2
41
73
56
77
10
33
71
82
50
39
3
4
38
30
19
69
63
79
40
20
1
5
42
70
43
6
84
17
76
11
25
64
67
54
45
68
59
12
66
57
14
16
53
60
29
61
44
34
21
35
7
58
15
27
28
62
74
55
75
13
48
36
47
80
51
9
8
72
49
52
24
83
46
23
81
18
22
26
32
31
65
78
37

> <PUBCHEM_MMFF94_PARTIAL_CHARGES>
31
1 -0.19
10 0.27
11 0.27
12 0.18
13 0.06
14 0.11
15 0.57
16 -0.15
17 0.09
18 0.5
19 0.3
2 -0.57
20 0.05
21 -0.2
22 -0.15
23 -0.15
24 -0.15
25 -0.15
26 0.19
27 -0.18
3 -0.02
4 -0.9
40 0.36
41 0.15
47 0.15
48 0.15
49 0.15
5 -0.66
50 0.15
51 0.18
6 -0.41

> <PUBCHEM_EFFECTIVE_ROTOR_COUNT>
8.2

> <PUBCHEM_PHARMACOPHORE_FEATURES>
8
1 2 acceptor
1 27 hydrophobe
1 4 cation
1 4 donor
1 6 acceptor
5 3 6 14 16 17 rings
6 20 22 23 24 25 26 rings
6 4 7 8 9 10 11 rings

> <PUBCHEM_HEAVY_ATOM_COUNT>
27

> <PUBCHEM_ATOM_DEF_STEREO_COUNT>
2

> <PUBCHEM_ATOM_UDEF_STEREO_COUNT>
0

> <PUBCHEM_BOND_DEF_STEREO_COUNT>
0

> <PUBCHEM_BOND_UDEF_STEREO_COUNT>
0

> <PUBCHEM_ISOTOPIC_ATOM_COUNT>
0

> <PUBCHEM_COMPONENT_COUNT>
1

> <PUBCHEM_CACTVS_TAUTO_COUNT>
1

> <PUBCHEM_CONFORMER_ID>
018240E700000002

> <PUBCHEM_MMFF94_ENERGY>
47.3229

> <PUBCHEM_FEATURE_SELFOVERLAP>
40.596

> <PUBCHEM_SHAPE_FINGERPRINT>
10 15 13326847838258954750
10448021 39 18261671455436365482
10670039 82 17095517366811630645
10674148 151 14345797154721292710
10763959 59 17603303773900545197
11135609 127 16878516756016634430
11720765 8 18259701212203873412
12166972 35 17917712404917419560
12236239 1 17561088020656818809
12616971 3 17775015621802266033
12838862 33 18187642527734297234
13533116 47 18409446998744587416
13782708 43 18334860567124304715
14150023 79 18125996307699569288
14347332 77 18340485573922194481
146900 427 11458420266905184565
14931854 50 17968107370079871926
15119646 104 18340207388616340371
15183329 4 17967818219083447567
15188451 53 17060341799194303382
18222031 100 18130794443219120908
20567600 234 13902183798820265458
21315764 119 17313106341202537887
2132832 1 17918000472511038056
21344244 78 17418370290527851776
21716022 299 15287302243982984856
221357 26 18113615677182768580
2215653 11 17894912927413845602
22224240 67 9583514300295041557
23081809 10 17560810974050028841
23559900 14 17676207991917948083
23569943 247 18262513685664693899
3004659 81 17775290490412445669
3014965 18 18260546710410981831
3411729 13 17273966021431043480
345986 75 18270677555210380568
34797466 226 16370734750493841127
3729539 64 18187363190717896851
4073 2 18120936363033835458
46194498 28 17022905644941440198
59682541 52 18113898255997508070
8988823 20 18413384354948890176
9658208 31 17241328117564960065

> <PUBCHEM_SHAPE_MULTIPOLES>
521.69
20.45
2.94
1.61
25.83
0.92
0.24
-11.49
6.59
-7.41
-1.26
-0.25
-0.07
-1.09

> <PUBCHEM_SHAPE_SELFOVERLAP>
1097.308

> <PUBCHEM_SHAPE_VOLUME>
293.3

> <PUBCHEM_COORDINATE_TYPE>
2
5
10

$$$$
