38029303
  -OEChem-12032416253D

 70 72  0     1  0  0  0  0  0999 V2000
    3.0211    0.1219    0.5425 S   0  0  0  0  0  0  0  0  0  0  0  0
   -4.1912    2.1730    0.8019 O   0  0  0  0  0  0  0  0  0  0  0  0
    2.4393   -1.0770   -0.0287 O   0  0  0  0  0  0  0  0  0  0  0  0
    3.2693    0.2195    1.9681 O   0  0  0  0  0  0  0  0  0  0  0  0
    2.1233    1.4901    0.0514 N   0  0  0  0  0  0  0  0  0  0  0  0
   -2.9992    0.8216    2.2694 N   0  0  0  0  0  0  0  0  0  0  0  0
   -3.9553   -5.4150   -1.8610 N   0  0  0  0  0  0  0  0  0  0  0  0
   -0.5290    1.5505   -1.3419 C   0  0  1  0  0  0  0  0  0  0  0  0
    0.6624    2.4965   -1.6344 C   0  0  1  0  0  0  0  0  0  0  0  0
   -1.8268    2.3567   -1.1809 C   0  0  0  0  0  0  0  0  0  0  0  0
   -1.7333    3.3902   -0.0426 C   0  0  2  0  0  0  0  0  0  0  0  0
   -0.7044    0.4995   -2.4425 C   0  0  0  0  0  0  0  0  0  0  0  0
   -0.4459    4.1865   -0.1094 C   0  0  0  0  0  0  0  0  0  0  0  0
    0.6092    3.7783   -0.8366 C   0  0  0  0  0  0  0  0  0  0  0  0
    2.0014    1.7937   -1.3829 C   0  0  0  0  0  0  0  0  0  0  0  0
   -1.8935    2.7200    1.3265 C   0  0  0  0  0  0  0  0  0  0  0  0
   -1.4240   -0.7291   -1.8953 C   0  0  0  0  0  0  0  0  0  0  0  0
   -1.4650    1.0899   -3.6255 C   0  0  0  0  0  0  0  0  0  0  0  0
   -0.4148    5.4877    0.6432 C   0  0  0  0  0  0  0  0  0  0  0  0
   -3.1618    1.9014    1.4138 C   0  0  0  0  0  0  0  0  0  0  0  0
    4.5634    0.4303   -0.2871 C   0  0  0  0  0  0  0  0  0  0  0  0
   -4.0495   -0.1315    2.5454 C   0  0  0  0  0  0  0  0  0  0  0  0
    5.4914   -0.6984    0.0408 C   0  0  0  0  0  0  0  0  0  0  0  0
   -4.0289   -1.2845    1.5840 C   0  0  0  0  0  0  0  0  0  0  0  0
    5.3021   -1.9501   -0.5450 C   0  0  0  0  0  0  0  0  0  0  0  0
    6.5450   -0.4980    0.9325 C   0  0  0  0  0  0  0  0  0  0  0  0
   -5.1419   -1.5459    0.7847 C   0  0  0  0  0  0  0  0  0  0  0  0
   -2.8970   -2.0941    1.4901 C   0  0  0  0  0  0  0  0  0  0  0  0
    6.1666   -3.0013   -0.2392 C   0  0  0  0  0  0  0  0  0  0  0  0
    7.4096   -1.5489    1.2383 C   0  0  0  0  0  0  0  0  0  0  0  0
    7.2203   -2.8007    0.6524 C   0  0  0  0  0  0  0  0  0  0  0  0
   -5.1228   -2.6170   -0.1085 C   0  0  0  0  0  0  0  0  0  0  0  0
   -2.8780   -3.1652    0.5968 C   0  0  0  0  0  0  0  0  0  0  0  0
   -3.9908   -3.4267   -0.2027 C   0  0  0  0  0  0  0  0  0  0  0  0
   -3.9713   -4.5239   -1.1177 C   0  0  0  0  0  0  0  0  0  0  0  0
   -0.3404    1.0270   -0.3959 H   0  0  0  0  0  0  0  0  0  0  0  0
    0.6439    2.7929   -2.6907 H   0  0  0  0  0  0  0  0  0  0  0  0
   -2.6888    1.6963   -1.0624 H   0  0  0  0  0  0  0  0  0  0  0  0
   -2.0219    2.9443   -2.0882 H   0  0  0  0  0  0  0  0  0  0  0  0
   -2.5721    4.0861   -0.1850 H   0  0  0  0  0  0  0  0  0  0  0  0
    0.2702    0.1571   -2.8049 H   0  0  0  0  0  0  0  0  0  0  0  0
    1.4912    4.4140   -0.8859 H   0  0  0  0  0  0  0  0  0  0  0  0
    2.8319    2.4492   -1.6716 H   0  0  0  0  0  0  0  0  0  0  0  0
    2.0817    0.8816   -1.9795 H   0  0  0  0  0  0  0  0  0  0  0  0
   -1.0209    2.0937    1.5486 H   0  0  0  0  0  0  0  0  0  0  0  0
   -1.9521    3.4748    2.1202 H   0  0  0  0  0  0  0  0  0  0  0  0
   -1.5205   -1.4949   -2.6729 H   0  0  0  0  0  0  0  0  0  0  0  0
   -0.8619   -1.1724   -1.0665 H   0  0  0  0  0  0  0  0  0  0  0  0
   -2.4315   -0.4959   -1.5379 H   0  0  0  0  0  0  0  0  0  0  0  0
   -1.0309    2.0290   -3.9811 H   0  0  0  0  0  0  0  0  0  0  0  0
   -1.4183    0.3892   -4.4684 H   0  0  0  0  0  0  0  0  0  0  0  0
   -2.5308    1.2383   -3.4220 H   0  0  0  0  0  0  0  0  0  0  0  0
   -1.2381    6.1331    0.3203 H   0  0  0  0  0  0  0  0  0  0  0  0
    0.5182    6.0372    0.4783 H   0  0  0  0  0  0  0  0  0  0  0  0
   -0.5084    5.3144    1.7194 H   0  0  0  0  0  0  0  0  0  0  0  0
    2.2269    2.3239    0.6446 H   0  0  0  0  0  0  0  0  0  0  0  0
   -2.1055    0.6775    2.7302 H   0  0  0  0  0  0  0  0  0  0  0  0
    4.9516    1.3938    0.0572 H   0  0  0  0  0  0  0  0  0  0  0  0
    4.3988    0.4739   -1.3670 H   0  0  0  0  0  0  0  0  0  0  0  0
   -3.9040   -0.5020    3.5663 H   0  0  0  0  0  0  0  0  0  0  0  0
   -5.0135    0.3892    2.5190 H   0  0  0  0  0  0  0  0  0  0  0  0
    4.5010   -2.1205   -1.2587 H   0  0  0  0  0  0  0  0  0  0  0  0
    6.7031    0.4714    1.3976 H   0  0  0  0  0  0  0  0  0  0  0  0
   -6.0303   -0.9230    0.8462 H   0  0  0  0  0  0  0  0  0  0  0  0
   -2.0240   -1.9039    2.1088 H   0  0  0  0  0  0  0  0  0  0  0  0
    6.0225   -3.9745   -0.6992 H   0  0  0  0  0  0  0  0  0  0  0  0
    8.2300   -1.3930    1.9327 H   0  0  0  0  0  0  0  0  0  0  0  0
    7.8940   -3.6187    0.8898 H   0  0  0  0  0  0  0  0  0  0  0  0
   -5.9978   -2.8078   -0.7253 H   0  0  0  0  0  0  0  0  0  0  0  0
   -1.9881   -3.7870    0.5346 H   0  0  0  0  0  0  0  0  0  0  0  0
  1  3  2  0  0  0  0
  1  4  2  0  0  0  0
  1  5  1  0  0  0  0
  1 21  1  0  0  0  0
  2 20  2  0  0  0  0
  5 15  1  0  0  0  0
  5 56  1  0  0  0  0
  6 20  1  0  0  0  0
  6 22  1  0  0  0  0
  6 57  1  0  0  0  0
  7 35  3  0  0  0  0
  8  9  1  0  0  0  0
  8 10  1  0  0  0  0
  8 12  1  0  0  0  0
  8 36  1  0  0  0  0
  9 14  1  0  0  0  0
  9 15  1  0  0  0  0
  9 37  1  0  0  0  0
 10 11  1  0  0  0  0
 10 38  1  0  0  0  0
 10 39  1  0  0  0  0
 11 13  1  0  0  0  0
 11 16  1  0  0  0  0
 11 40  1  0  0  0  0
 12 17  1  0  0  0  0
 12 18  1  0  0  0  0
 12 41  1  0  0  0  0
 13 14  2  0  0  0  0
 13 19  1  0  0  0  0
 14 42  1  0  0  0  0
 15 43  1  0  0  0  0
 15 44  1  0  0  0  0
 16 20  1  0  0  0  0
 16 45  1  0  0  0  0
 16 46  1  0  0  0  0
 17 47  1  0  0  0  0
 17 48  1  0  0  0  0
 17 49  1  0  0  0  0
 18 50  1  0  0  0  0
 18 51  1  0  0  0  0
 18 52  1  0  0  0  0
 19 53  1  0  0  0  0
 19 54  1  0  0  0  0
 19 55  1  0  0  0  0
 21 23  1  0  0  0  0
 21 58  1  0  0  0  0
 21 59  1  0  0  0  0
 22 24  1  0  0  0  0
 22 60  1  0  0  0  0
 22 61  1  0  0  0  0
 23 25  2  0  0  0  0
 23 26  1  0  0  0  0
 24 27  2  0  0  0  0
 24 28  1  0  0  0  0
 25 29  1  0  0  0  0
 25 62  1  0  0  0  0
 26 30  2  0  0  0  0
 26 63  1  0  0  0  0
 27 32  1  0  0  0  0
 27 64  1  0  0  0  0
 28 33  2  0  0  0  0
 28 65  1  0  0  0  0
 29 31  2  0  0  0  0
 29 66  1  0  0  0  0
 30 31  1  0  0  0  0
 30 67  1  0  0  0  0
 31 68  1  0  0  0  0
 32 34  2  0  0  0  0
 32 69  1  0  0  0  0
 33 34  1  0  0  0  0
 33 70  1  0  0  0  0
 34 35  1  0  0  0  0
M  END
> <PUBCHEM_COMPOUND_CID>
38029303

> <PUBCHEM_CONFORMER_RMSD>
1.2

> <PUBCHEM_CONFORMER_DIVERSEORDER>
1
102
41
119
171
62
162
125
103
170
132
144
136
128
28
127
178
85
40
123
44
70
49
93
56
139
53
186
10
140
89
86
74
122
175
160
63
15
4
84
173
104
24
37
39
52
169
149
191
30
124
66
101
165
97
179
77
157
129
21
181
72
36
172
54
29
188
43
13
138
106
105
17
131
155
64
121
91
95
146
94
114
135
107
152
148
75
184
57
99
59
58
26
18
166
14
76
90
164
161
115
182
109
185
48
143
126
168
69
117
81
142
22
23
98
111
190
158
100
47
67
177
167
12
133
141
163
176
32
83
120
80
137
153
145
38
87
113
92
116
51
96
108
71
180
118
20
151
156
6
34
130
16
25
110
147
189
9
150
61
159
65
60
11
27
183
187
73
174
7
134
112
68
2
154
31
82
79
35
3
33
45
88
55
8
5
50
78
42
46
19

> <PUBCHEM_MMFF94_PARTIAL_CHARGES>
42
1 1.33
11 0.14
13 -0.28
14 -0.29
15 0.36
16 0.06
19 0.14
2 -0.57
20 0.57
21 0.25
22 0.44
23 -0.14
24 -0.14
25 -0.15
26 -0.15
27 -0.15
28 -0.15
29 -0.15
3 -0.65
30 -0.15
31 -0.15
32 -0.15
33 -0.15
34 0.07
35 0.48
4 -0.65
42 0.15
5 -0.91
56 0.42
57 0.37
6 -0.73
62 0.15
63 0.15
64 0.15
65 0.15
66 0.15
67 0.15
68 0.15
69 0.15
7 -0.56
70 0.15
9 0.14

> <PUBCHEM_EFFECTIVE_ROTOR_COUNT>
11.8

> <PUBCHEM_PHARMACOPHORE_FEATURES>
10
1 2 acceptor
1 3 acceptor
1 4 acceptor
1 5 donor
1 6 donor
1 7 acceptor
3 12 17 18 hydrophobe
6 23 25 26 29 30 31 rings
6 24 27 28 32 33 34 rings
6 8 9 10 11 13 14 rings

> <PUBCHEM_HEAVY_ATOM_COUNT>
35

> <PUBCHEM_ATOM_DEF_STEREO_COUNT>
3

> <PUBCHEM_ATOM_UDEF_STEREO_COUNT>
0

> <PUBCHEM_BOND_DEF_STEREO_COUNT>
0

> <PUBCHEM_BOND_UDEF_STEREO_COUNT>
0

> <PUBCHEM_ISOTOPIC_ATOM_COUNT>
0

> <PUBCHEM_COMPONENT_COUNT>
1

> <PUBCHEM_CACTVS_TAUTO_COUNT>
2

> <PUBCHEM_CONFORMER_ID>
024447F700000001

> <PUBCHEM_MMFF94_ENERGY>
68.4615

> <PUBCHEM_FEATURE_SELFOVERLAP>
50.764

> <PUBCHEM_SHAPE_FINGERPRINT>
10079526 769 18116721918133231254
10254770 206 18411422808756342331
10622 236 18053946431538322339
10815517 723 18408889533834291970
11069576 57 17831581251206934509
11227150 75 17342072043277119887
11387372 6 18193279581335288718
13947947 73 18044358656185453871
14068700 675 18270403922295559747
14674994 50 18187641358849325485
14705955 166 17487345828729798457
14950920 106 18059860545480273952
15119646 57 9079122171827588199
15163728 17 9727363415147488449
19315092 285 17622724641235010791
20775530 9 18040710398265699585
208703 8 17968670414015828307
21133410 171 17557124414715515135
21585480 29 18270114747022528440
3504750 166 18343578525875266598
4017518 198 18124035620546725069
484985 159 18335974273186100687
5080951 261 17750225912204080368

> <PUBCHEM_SHAPE_MULTIPOLES>
691.58
15.13
6.97
2.45
29.73
0.58
-1.05
-20.91
6.31
-7.21
-1.47
-2.5
0.32
-2.11

> <PUBCHEM_SHAPE_SELFOVERLAP>
1432.535

> <PUBCHEM_SHAPE_VOLUME>
395

> <PUBCHEM_COORDINATE_TYPE>
2
5
10

$$$$
