7134988
  -OEChem-12032416313D

 80 84  0     1  0  0  0  0  0999 V2000
    0.4665    3.0156    0.1871 S   0  0  0  0  0  0  0  0  0  0  0  0
   -7.2739    2.0716   -0.7194 O   0  0  0  0  0  0  0  0  0  0  0  0
   -6.6208    3.7699    0.8404 O   0  0  0  0  0  0  0  0  0  0  0  0
   -0.4281   -1.8329   -1.5236 O   0  0  0  0  0  0  0  0  0  0  0  0
    3.2013   -0.7302   -0.2166 O   0  0  0  0  0  0  0  0  0  0  0  0
    8.9930    1.7409   -0.0746 O   0  0  0  0  0  0  0  0  0  0  0  0
    0.4892    0.4434   -0.0888 N   0  0  0  0  0  0  0  0  0  0  0  0
   -0.3269   -3.5441    0.0445 N   0  0  0  0  0  0  0  0  0  0  0  0
    2.6306    1.5434    0.0301 N   0  0  0  0  0  0  0  0  0  0  0  0
   -3.3445    0.4955    0.3215 C   0  0  2  0  0  0  0  0  0  0  0  0
   -3.4739    1.9402   -0.3355 C   0  0  1  0  0  0  0  0  0  0  0  0
   -4.9077    2.5978   -0.3420 C   0  0  1  0  0  0  0  0  0  0  0  0
   -1.9628   -0.1445   -0.1633 C   0  0  1  0  0  0  0  0  0  0  0  0
   -4.5029   -0.4050   -0.1805 C   0  0  0  0  0  0  0  0  0  0  0  0
   -5.9498    1.5494   -0.8247 C   0  0  1  0  0  0  0  0  0  0  0  0
   -2.3489    2.8941    0.1619 C   0  0  0  0  0  0  0  0  0  0  0  0
   -5.8788    0.2341   -0.0571 C   0  0  0  0  0  0  0  0  0  0  0  0
   -3.3793    0.5335    1.8692 C   0  0  0  0  0  0  0  0  0  0  0  0
   -0.8328    0.8447   -0.0351 C   0  0  0  0  0  0  0  0  0  0  0  0
   -5.3343    3.2177    1.0070 C   0  0  0  0  0  0  0  0  0  0  0  0
   -4.9232    3.7697   -1.3639 C   0  0  0  0  0  0  0  0  0  0  0  0
   -1.0282    2.2049    0.0915 C   0  0  0  0  0  0  0  0  0  0  0  0
   -1.6138   -1.4847    0.4978 C   0  0  0  0  0  0  0  0  0  0  0  0
   -0.7367   -2.2957   -0.4224 C   0  0  0  0  0  0  0  0  0  0  0  0
    1.2616    1.5020    0.0258 C   0  0  0  0  0  0  0  0  0  0  0  0
   -0.6772   -4.1209    1.3479 C   0  0  0  0  0  0  0  0  0  0  0  0
    0.5579   -4.3743   -0.7743 C   0  0  0  0  0  0  0  0  0  0  0  0
   -1.3015   -5.5048    1.1774 C   0  0  0  0  0  0  0  0  0  0  0  0
   -0.0420   -5.7618   -0.9899 C   0  0  0  0  0  0  0  0  0  0  0  0
   -0.3957   -6.4279    0.3484 C   0  0  0  0  0  0  0  0  0  0  0  0
   -1.0623   -7.7827    0.1218 C   0  0  0  0  0  0  0  0  0  0  0  0
    3.5048    0.4509   -0.0886 C   0  0  0  0  0  0  0  0  0  0  0  0
    4.9526    0.7907   -0.0839 C   0  0  0  0  0  0  0  0  0  0  0  0
    5.8662   -0.0416   -0.7306 C   0  0  0  0  0  0  0  0  0  0  0  0
    5.3968    1.9419    0.5664 C   0  0  0  0  0  0  0  0  0  0  0  0
    7.2240    0.2773   -0.7269 C   0  0  0  0  0  0  0  0  0  0  0  0
    6.7547    2.2608    0.5701 C   0  0  0  0  0  0  0  0  0  0  0  0
    7.6683    1.4285   -0.0765 C   0  0  0  0  0  0  0  0  0  0  0  0
    9.3783    2.9323    0.6093 C   0  0  0  0  0  0  0  0  0  0  0  0
   -3.2560    1.7660   -1.4036 H   0  0  0  0  0  0  0  0  0  0  0  0
   -2.0916   -0.2934   -1.2456 H   0  0  0  0  0  0  0  0  0  0  0  0
   -4.5218   -1.3557    0.3643 H   0  0  0  0  0  0  0  0  0  0  0  0
   -4.3395   -0.6607   -1.2358 H   0  0  0  0  0  0  0  0  0  0  0  0
   -5.7778    1.3404   -1.8889 H   0  0  0  0  0  0  0  0  0  0  0  0
   -2.3177    3.7956   -0.4591 H   0  0  0  0  0  0  0  0  0  0  0  0
   -2.5320    3.2108    1.1940 H   0  0  0  0  0  0  0  0  0  0  0  0
   -6.1573    0.3815    0.9921 H   0  0  0  0  0  0  0  0  0  0  0  0
   -6.6327   -0.4577   -0.4547 H   0  0  0  0  0  0  0  0  0  0  0  0
   -4.3265    0.8940    2.2649 H   0  0  0  0  0  0  0  0  0  0  0  0
   -3.2563   -0.4696    2.2927 H   0  0  0  0  0  0  0  0  0  0  0  0
   -2.5844    1.1536    2.2923 H   0  0  0  0  0  0  0  0  0  0  0  0
   -4.6562    4.0174    1.3202 H   0  0  0  0  0  0  0  0  0  0  0  0
   -5.4006    2.4873    1.8094 H   0  0  0  0  0  0  0  0  0  0  0  0
   -4.5361    3.4465   -2.3371 H   0  0  0  0  0  0  0  0  0  0  0  0
   -4.3105    4.6124   -1.0270 H   0  0  0  0  0  0  0  0  0  0  0  0
   -5.9329    4.1574   -1.5397 H   0  0  0  0  0  0  0  0  0  0  0  0
   -1.0972   -1.3291    1.4517 H   0  0  0  0  0  0  0  0  0  0  0  0
   -2.5156   -2.0778    0.6721 H   0  0  0  0  0  0  0  0  0  0  0  0
   -7.8838    1.4025   -1.0742 H   0  0  0  0  0  0  0  0  0  0  0  0
   -6.8783    4.1666    1.6900 H   0  0  0  0  0  0  0  0  0  0  0  0
    0.2499   -4.1904    1.9294 H   0  0  0  0  0  0  0  0  0  0  0  0
   -1.3620   -3.4852    1.9111 H   0  0  0  0  0  0  0  0  0  0  0  0
    1.5172   -4.4479   -0.2486 H   0  0  0  0  0  0  0  0  0  0  0  0
    0.7516   -3.9015   -1.7423 H   0  0  0  0  0  0  0  0  0  0  0  0
    3.0071    2.4843    0.0888 H   0  0  0  0  0  0  0  0  0  0  0  0
   -1.4871   -5.9459    2.1636 H   0  0  0  0  0  0  0  0  0  0  0  0
   -2.2752   -5.4010    0.6812 H   0  0  0  0  0  0  0  0  0  0  0  0
   -0.9455   -5.6717   -1.6068 H   0  0  0  0  0  0  0  0  0  0  0  0
    0.6679   -6.3851   -1.5458 H   0  0  0  0  0  0  0  0  0  0  0  0
    0.5337   -6.5965    0.9086 H   0  0  0  0  0  0  0  0  0  0  0  0
   -1.2884   -8.2682    1.0768 H   0  0  0  0  0  0  0  0  0  0  0  0
   -0.4038   -8.4487   -0.4456 H   0  0  0  0  0  0  0  0  0  0  0  0
   -1.9995   -7.6781   -0.4353 H   0  0  0  0  0  0  0  0  0  0  0  0
    5.5407   -0.9403   -1.2479 H   0  0  0  0  0  0  0  0  0  0  0  0
    4.7266    2.5986    1.1128 H   0  0  0  0  0  0  0  0  0  0  0  0
    7.9310   -0.3738   -1.2337 H   0  0  0  0  0  0  0  0  0  0  0  0
    7.0326    3.1653    1.1004 H   0  0  0  0  0  0  0  0  0  0  0  0
   10.4647    3.0258    0.5087 H   0  0  0  0  0  0  0  0  0  0  0  0
    9.1609    2.8692    1.6809 H   0  0  0  0  0  0  0  0  0  0  0  0
    8.9369    3.8221    0.1478 H   0  0  0  0  0  0  0  0  0  0  0  0
  1 22  1  0  0  0  0
  1 25  1  0  0  0  0
  2 15  1  0  0  0  0
  2 59  1  0  0  0  0
  3 20  1  0  0  0  0
  3 60  1  0  0  0  0
  4 24  2  0  0  0  0
  5 32  2  0  0  0  0
  6 38  1  0  0  0  0
  6 39  1  0  0  0  0
  7 19  1  0  0  0  0
  7 25  2  0  0  0  0
  8 24  1  0  0  0  0
  8 26  1  0  0  0  0
  8 27  1  0  0  0  0
  9 25  1  0  0  0  0
  9 32  1  0  0  0  0
  9 65  1  0  0  0  0
 10 11  1  0  0  0  0
 10 13  1  0  0  0  0
 10 14  1  0  0  0  0
 10 18  1  0  0  0  0
 11 12  1  0  0  0  0
 11 16  1  0  0  0  0
 11 40  1  0  0  0  0
 12 15  1  0  0  0  0
 12 20  1  0  0  0  0
 12 21  1  0  0  0  0
 13 19  1  0  0  0  0
 13 23  1  0  0  0  0
 13 41  1  0  0  0  0
 14 17  1  0  0  0  0
 14 42  1  0  0  0  0
 14 43  1  0  0  0  0
 15 17  1  0  0  0  0
 15 44  1  0  0  0  0
 16 22  1  0  0  0  0
 16 45  1  0  0  0  0
 16 46  1  0  0  0  0
 17 47  1  0  0  0  0
 17 48  1  0  0  0  0
 18 49  1  0  0  0  0
 18 50  1  0  0  0  0
 18 51  1  0  0  0  0
 19 22  2  0  0  0  0
 20 52  1  0  0  0  0
 20 53  1  0  0  0  0
 21 54  1  0  0  0  0
 21 55  1  0  0  0  0
 21 56  1  0  0  0  0
 23 24  1  0  0  0  0
 23 57  1  0  0  0  0
 23 58  1  0  0  0  0
 26 28  1  0  0  0  0
 26 61  1  0  0  0  0
 26 62  1  0  0  0  0
 27 29  1  0  0  0  0
 27 63  1  0  0  0  0
 27 64  1  0  0  0  0
 28 30  1  0  0  0  0
 28 66  1  0  0  0  0
 28 67  1  0  0  0  0
 29 30  1  0  0  0  0
 29 68  1  0  0  0  0
 29 69  1  0  0  0  0
 30 31  1  0  0  0  0
 30 70  1  0  0  0  0
 31 71  1  0  0  0  0
 31 72  1  0  0  0  0
 31 73  1  0  0  0  0
 32 33  1  0  0  0  0
 33 34  2  0  0  0  0
 33 35  1  0  0  0  0
 34 36  1  0  0  0  0
 34 74  1  0  0  0  0
 35 37  2  0  0  0  0
 35 75  1  0  0  0  0
 36 38  2  0  0  0  0
 36 76  1  0  0  0  0
 37 38  1  0  0  0  0
 37 77  1  0  0  0  0
 39 78  1  0  0  0  0
 39 79  1  0  0  0  0
 39 80  1  0  0  0  0
M  END
> <PUBCHEM_COMPOUND_CID>
7134988

> <PUBCHEM_CONFORMER_RMSD>
1.2

> <PUBCHEM_CONFORMER_DIVERSEORDER>
1
4
6
3
8
9
5
10
2
7

> <PUBCHEM_MMFF94_PARTIAL_CHARGES>
35
1 -0.08
13 0.18
15 0.28
16 0.18
19 0.05
2 -0.68
20 0.28
22 -0.14
23 0.06
24 0.57
25 0.44
26 0.3
27 0.3
3 -0.68
32 0.54
33 0.09
34 -0.15
35 -0.15
36 -0.15
37 -0.15
38 0.08
39 0.28
4 -0.57
5 -0.57
59 0.4
6 -0.36
60 0.4
65 0.37
7 -0.57
74 0.15
75 0.15
76 0.15
77 0.15
8 -0.66
9 -0.49

> <PUBCHEM_EFFECTIVE_ROTOR_COUNT>
10.4

> <PUBCHEM_PHARMACOPHORE_FEATURES>
13
1 2 acceptor
1 2 donor
1 3 acceptor
1 3 donor
1 4 acceptor
1 5 acceptor
1 6 acceptor
1 9 donor
5 1 7 19 22 25 rings
6 10 11 12 14 15 17 rings
6 10 11 13 16 19 22 rings
6 33 34 35 36 37 38 rings
6 8 26 27 28 29 30 rings

> <PUBCHEM_HEAVY_ATOM_COUNT>
39

> <PUBCHEM_ATOM_DEF_STEREO_COUNT>
5

> <PUBCHEM_ATOM_UDEF_STEREO_COUNT>
0

> <PUBCHEM_BOND_DEF_STEREO_COUNT>
0

> <PUBCHEM_BOND_UDEF_STEREO_COUNT>
0

> <PUBCHEM_ISOTOPIC_ATOM_COUNT>
0

> <PUBCHEM_COMPONENT_COUNT>
1

> <PUBCHEM_CACTVS_TAUTO_COUNT>
3

> <PUBCHEM_CONFORMER_ID>
006CDF0C00000001

> <PUBCHEM_MMFF94_ENERGY>
127.8226

> <PUBCHEM_FEATURE_SELFOVERLAP>
66.12

> <PUBCHEM_SHAPE_FINGERPRINT>
10050765 1 17762338016733249813
10190206 1 18270382989141956847
102385 1 17905327686310288092
10290309 65 18263641766770726948
10369192 42 18334854987761444589
10411042 1 17617940678969884682
10675989 125 18125164831730953928
10940486 97 18116998982157579252
11007060 377 18343020033775216417
11135609 187 18341331106579355593
11135926 11 18266736883972599325
11136131 41 18189893111065130787
11578080 2 17316470701387927381
11763715 3 17180548381596719455
11991303 11 18260550073502347950
13248334 5 17978791207674744815
14725015 67 18124033426156742190
14856354 85 16370728153529965848
15064981 194 18265629852026087876
15200665 1 18266740366610594042
15320294 125 18114727250091652594
15347591 1 18049722916099142765
15400415 2 18410573968594600356
15439362 3 18121217585388625953
15444296 121 18263083378536927564
15444296 8 17909554200696963758
15890870 6 18411134723239342028
15927050 60 18411133645472186590
16090146 7 18270417026462975696
18365409 1 18336547226144884310
20505436 4 17967806146737410008
21133410 171 17186101929863791162
21133665 82 18413109447019295334
23559900 14 17616807739906321987
244849 19 17681865933253181609
25019877 29 18260551086940589341
283562 15 18271530775596276889
3383291 50 18338237166937137403
3627633 1 17905606957958187614
4017518 198 18411703175573539958
4073 2 18338799039898310880
4144715 1 18126001805310468840
4403749 210 18335699463861879316
4408954 64 16375824540243387107
44426701 170 17910662496203370991
4616759 239 18059571456201410776
4625314 4 18339363076684946516
4874694 18 18343014503102206364
504843 32 18335700571952755943
5265222 85 18410853261337645112
5385378 56 18194973941907923881
563151 97 18340200787847413181
57527295 17 17986374626489466173
6371380 46 18343577465081213048
6669772 16 18341054008121637422
6691757 9 18341056306419497616
9896288 288 18189058749285779682
9961470 85 18411986832821235950
9981440 41 18334867095374179723

> <PUBCHEM_SHAPE_MULTIPOLES>
762.16
19.68
9.35
1.07
42.53
26.74
-0.12
-30.86
0.23
-8.2
-0.67
-0.73
0.22
1.43

> <PUBCHEM_SHAPE_SELFOVERLAP>
1613.101

> <PUBCHEM_SHAPE_VOLUME>
429.8

> <PUBCHEM_COORDINATE_TYPE>
2
5
10

$$$$
