7127958
  -OEChem-12032416123D

 71 75  0     1  0  0  0  0  0999 V2000
   -5.8565    0.2736    0.5213 O   0  0  0  0  0  0  0  0  0  0  0  0
   -2.8660   -0.4453    1.0567 O   0  0  0  0  0  0  0  0  0  0  0  0
    0.7350    2.5082   -2.0055 O   0  0  0  0  0  0  0  0  0  0  0  0
   -3.6203   -4.1041   -0.3247 O   0  0  0  0  0  0  0  0  0  0  0  0
    6.8152    2.1901    0.2949 O   0  0  0  0  0  0  0  0  0  0  0  0
   -4.0517    1.4126   -0.3883 N   0  0  0  0  0  0  0  0  0  0  0  0
   -0.9339    2.0271   -0.4793 N   0  0  0  0  0  0  0  0  0  0  0  0
   -2.2823   -1.7471   -0.7828 N   0  0  0  0  0  0  0  0  0  0  0  0
    1.2559    1.9501    0.2144 N   0  0  0  0  0  0  0  0  0  0  0  0
   -2.3294   -4.4318    1.5466 N   0  0  0  0  0  0  0  0  0  0  0  0
    2.2941   -1.1934   -1.6736 N   0  0  0  0  0  0  0  0  0  0  0  0
   -5.7820    2.5917    0.8845 C   0  0  0  0  0  0  0  0  0  0  0  0
   -6.6674    2.5366    2.0948 C   0  0  0  0  0  0  0  0  0  0  0  0
   -5.2724    3.0777    2.2098 C   0  0  0  0  0  0  0  0  0  0  0  0
   -3.4943    0.2897   -1.1257 C   0  0  1  0  0  0  0  0  0  0  0  0
   -5.2421    1.3173    0.3203 C   0  0  0  0  0  0  0  0  0  0  0  0
   -2.0445    2.2104   -1.3795 C   0  0  2  0  0  0  0  0  0  0  0  0
   -3.3050    2.6439   -0.6387 C   0  0  0  0  0  0  0  0  0  0  0  0
   -2.4596    0.9052   -2.0655 C   0  0  0  0  0  0  0  0  0  0  0  0
   -2.8625   -0.6595   -0.1527 C   0  0  0  0  0  0  0  0  0  0  0  0
   -1.5883   -2.7956   -0.0708 C   0  0  2  0  0  0  0  0  0  0  0  0
    0.4024    2.1929   -0.8655 C   0  0  0  0  0  0  0  0  0  0  0  0
   -0.5026   -3.4593   -0.9274 C   0  0  0  0  0  0  0  0  0  0  0  0
   -2.6335   -3.8187    0.3495 C   0  0  0  0  0  0  0  0  0  0  0  0
    0.7629   -2.6536   -1.0025 C   0  0  0  0  0  0  0  0  0  0  0  0
    1.8763   -2.7397   -0.1207 C   0  0  0  0  0  0  0  0  0  0  0  0
    1.0496   -1.6944   -1.9464 C   0  0  0  0  0  0  0  0  0  0  0  0
    2.6688    2.0125    0.2353 C   0  0  0  0  0  0  0  0  0  0  0  0
    2.8228   -1.8134   -0.5639 C   0  0  0  0  0  0  0  0  0  0  0  0
    2.1708   -3.5194    1.0155 C   0  0  0  0  0  0  0  0  0  0  0  0
    4.0539   -1.6269    0.0749 C   0  0  0  0  0  0  0  0  0  0  0  0
    3.3619    1.7353    1.4136 C   0  0  0  0  0  0  0  0  0  0  0  0
    3.3691    2.3501   -0.9228 C   0  0  0  0  0  0  0  0  0  0  0  0
    3.3982   -3.3436    1.6648 C   0  0  0  0  0  0  0  0  0  0  0  0
    4.3238   -2.4113    1.2000 C   0  0  0  0  0  0  0  0  0  0  0  0
    4.7552    1.7956    1.4339 C   0  0  0  0  0  0  0  0  0  0  0  0
    4.7625    2.4105   -0.9026 C   0  0  0  0  0  0  0  0  0  0  0  0
    5.4555    2.1333    0.2757 C   0  0  0  0  0  0  0  0  0  0  0  0
    7.4602    1.8927    1.5324 C   0  0  0  0  0  0  0  0  0  0  0  0
   -6.0368    3.3453    0.1453 H   0  0  0  0  0  0  0  0  0  0  0  0
   -7.4871    3.2428    2.1519 H   0  0  0  0  0  0  0  0  0  0  0  0
   -6.8712    1.5831    2.5660 H   0  0  0  0  0  0  0  0  0  0  0  0
   -5.1539    4.1461    2.3428 H   0  0  0  0  0  0  0  0  0  0  0  0
   -4.5411    2.4768    2.7365 H   0  0  0  0  0  0  0  0  0  0  0  0
   -4.2895   -0.2361   -1.6663 H   0  0  0  0  0  0  0  0  0  0  0  0
   -1.7538    2.9637   -2.1199 H   0  0  0  0  0  0  0  0  0  0  0  0
   -3.9329    3.2753   -1.2775 H   0  0  0  0  0  0  0  0  0  0  0  0
   -3.1108    3.1740    0.2984 H   0  0  0  0  0  0  0  0  0  0  0  0
   -1.6078    0.2614   -2.3028 H   0  0  0  0  0  0  0  0  0  0  0  0
   -2.9573    1.1548   -3.0117 H   0  0  0  0  0  0  0  0  0  0  0  0
   -1.1245    1.6979    0.4623 H   0  0  0  0  0  0  0  0  0  0  0  0
   -2.4157   -1.8630   -1.7836 H   0  0  0  0  0  0  0  0  0  0  0  0
   -1.1477   -2.3565    0.8337 H   0  0  0  0  0  0  0  0  0  0  0  0
   -0.8774   -3.6438   -1.9432 H   0  0  0  0  0  0  0  0  0  0  0  0
   -0.2575   -4.4491   -0.5203 H   0  0  0  0  0  0  0  0  0  0  0  0
    0.8162    1.6964    1.0955 H   0  0  0  0  0  0  0  0  0  0  0  0
    0.4814   -1.3220   -2.7873 H   0  0  0  0  0  0  0  0  0  0  0  0
   -1.4972   -4.2031    2.0808 H   0  0  0  0  0  0  0  0  0  0  0  0
   -2.9373   -5.1451    1.9353 H   0  0  0  0  0  0  0  0  0  0  0  0
    2.7580   -0.4721   -2.2083 H   0  0  0  0  0  0  0  0  0  0  0  0
    1.4598   -4.2492    1.3921 H   0  0  0  0  0  0  0  0  0  0  0  0
    4.7802   -0.9113   -0.2935 H   0  0  0  0  0  0  0  0  0  0  0  0
    2.8272    1.4690    2.3219 H   0  0  0  0  0  0  0  0  0  0  0  0
    2.9043    2.5758   -1.8720 H   0  0  0  0  0  0  0  0  0  0  0  0
    3.6307   -3.9420    2.5416 H   0  0  0  0  0  0  0  0  0  0  0  0
    5.2720   -2.2924    1.7179 H   0  0  0  0  0  0  0  0  0  0  0  0
    5.2300    1.5669    2.3818 H   0  0  0  0  0  0  0  0  0  0  0  0
    5.3039    2.6726   -1.8077 H   0  0  0  0  0  0  0  0  0  0  0  0
    8.5383    1.9854    1.3654 H   0  0  0  0  0  0  0  0  0  0  0  0
    7.2728    0.8599    1.8453 H   0  0  0  0  0  0  0  0  0  0  0  0
    7.1934    2.6169    2.3095 H   0  0  0  0  0  0  0  0  0  0  0  0
  1 16  2  0  0  0  0
  2 20  2  0  0  0  0
  3 22  2  0  0  0  0
  4 24  2  0  0  0  0
  5 38  1  0  0  0  0
  5 39  1  0  0  0  0
  6 15  1  0  0  0  0
  6 16  1  0  0  0  0
  6 18  1  0  0  0  0
  7 17  1  0  0  0  0
  7 22  1  0  0  0  0
  7 51  1  0  0  0  0
  8 20  1  0  0  0  0
  8 21  1  0  0  0  0
  8 52  1  0  0  0  0
  9 22  1  0  0  0  0
  9 28  1  0  0  0  0
  9 56  1  0  0  0  0
 10 24  1  0  0  0  0
 10 58  1  0  0  0  0
 10 59  1  0  0  0  0
 11 27  1  0  0  0  0
 11 29  1  0  0  0  0
 11 60  1  0  0  0  0
 12 13  1  0  0  0  0
 12 14  1  0  0  0  0
 12 16  1  0  0  0  0
 12 40  1  0  0  0  0
 13 14  1  0  0  0  0
 13 41  1  0  0  0  0
 13 42  1  0  0  0  0
 14 43  1  0  0  0  0
 14 44  1  0  0  0  0
 15 19  1  0  0  0  0
 15 20  1  0  0  0  0
 15 45  1  0  0  0  0
 17 18  1  0  0  0  0
 17 19  1  0  0  0  0
 17 46  1  0  0  0  0
 18 47  1  0  0  0  0
 18 48  1  0  0  0  0
 19 49  1  0  0  0  0
 19 50  1  0  0  0  0
 21 23  1  0  0  0  0
 21 24  1  0  0  0  0
 21 53  1  0  0  0  0
 23 25  1  0  0  0  0
 23 54  1  0  0  0  0
 23 55  1  0  0  0  0
 25 26  1  0  0  0  0
 25 27  2  0  0  0  0
 26 29  1  0  0  0  0
 26 30  2  0  0  0  0
 27 57  1  0  0  0  0
 28 32  2  0  0  0  0
 28 33  1  0  0  0  0
 29 31  2  0  0  0  0
 30 34  1  0  0  0  0
 30 61  1  0  0  0  0
 31 35  1  0  0  0  0
 31 62  1  0  0  0  0
 32 36  1  0  0  0  0
 32 63  1  0  0  0  0
 33 37  2  0  0  0  0
 33 64  1  0  0  0  0
 34 35  2  0  0  0  0
 34 65  1  0  0  0  0
 35 66  1  0  0  0  0
 36 38  2  0  0  0  0
 36 67  1  0  0  0  0
 37 38  1  0  0  0  0
 37 68  1  0  0  0  0
 39 69  1  0  0  0  0
 39 70  1  0  0  0  0
 39 71  1  0  0  0  0
M  END
> <PUBCHEM_COMPOUND_CID>
7127958

> <PUBCHEM_CONFORMER_RMSD>
1.2

> <PUBCHEM_CONFORMER_DIVERSEORDER>
1
74
58
85
105
89
5
99
48
62
108
88
45
92
12
11
95
57
75
19
22
67
71
54
73
113
82
80
97
79
109
103
20
96
104
77
64
9
10
66
52
69
43
38
93
65
84
4
68
87
102
83
47
17
15
42
106
41
81
36
21
78
8
30
60
33
27
34
28
111
14
112
63
6
51
101
24
53
31
3
70
55
90
110
39
91
107
37
56
49
16
44
35
50
18
40
13
94
25
2
86
98
46
26
29
72
23
7
59
32
100
76
61

> <PUBCHEM_MMFF94_PARTIAL_CHARGES>
57
1 -0.57
10 -0.8
11 0.03
12 -0.1
13 -0.2
14 -0.2
15 0.36
16 0.63
17 0.3
18 0.3
2 -0.57
20 0.57
21 0.36
22 0.69
23 0.18
24 0.57
25 -0.18
27 -0.3
28 0.12
29 -0.15
3 -0.57
30 -0.15
31 -0.15
32 -0.15
33 -0.15
34 -0.15
35 -0.15
36 -0.15
37 -0.15
38 0.08
39 0.28
4 -0.57
40 0.1
41 0.1
42 0.1
43 0.1
44 0.1
5 -0.36
51 0.37
52 0.37
56 0.37
57 0.15
58 0.37
59 0.37
6 -0.66
60 0.27
61 0.15
62 0.15
63 0.15
64 0.15
65 0.15
66 0.15
67 0.15
68 0.15
7 -0.73
8 -0.73
9 -0.55

> <PUBCHEM_EFFECTIVE_ROTOR_COUNT>
14.6

> <PUBCHEM_PHARMACOPHORE_FEATURES>
15
1 1 acceptor
1 10 donor
1 11 cation
1 11 donor
1 2 acceptor
1 3 acceptor
1 4 acceptor
1 5 acceptor
1 7 donor
1 8 donor
1 9 donor
5 11 25 26 27 29 rings
5 6 15 17 18 19 rings
6 26 29 30 31 34 35 rings
6 28 32 33 36 37 38 rings

> <PUBCHEM_HEAVY_ATOM_COUNT>
39

> <PUBCHEM_ATOM_DEF_STEREO_COUNT>
3

> <PUBCHEM_ATOM_UDEF_STEREO_COUNT>
0

> <PUBCHEM_BOND_DEF_STEREO_COUNT>
0

> <PUBCHEM_BOND_UDEF_STEREO_COUNT>
0

> <PUBCHEM_ISOTOPIC_ATOM_COUNT>
0

> <PUBCHEM_COMPONENT_COUNT>
1

> <PUBCHEM_CACTVS_TAUTO_COUNT>
12

> <PUBCHEM_CONFORMER_ID>
006CC39600000001

> <PUBCHEM_MMFF94_ENERGY>
99.373

> <PUBCHEM_FEATURE_SELFOVERLAP>
76.268

> <PUBCHEM_SHAPE_FINGERPRINT>
10439779 11 18341610455610733833
10674148 151 17561083606254001460
10675989 125 15092520168182231524
11513181 2 18131063866460376934
12422481 6 18260548866732880521
12633257 1 18339635621052531279
13512321 179 18059011675638376698
14725015 67 17898849041971322431
15420108 30 18272928349384936254
16112460 7 18342459196866531513
20764821 26 18335128787240894854
22223350 30 17677918784956369915
338550 245 18261667182318004132
3411729 13 18343305842658999052
392239 28 18193835947362151919
4093350 32 17346602933326219644
4144715 1 18339087102928527666
508706 21 18338518667683756014
9896288 288 18267026244145437186

> <PUBCHEM_SHAPE_MULTIPOLES>
743.37
14.7
6.26
1.89
0.18
5.37
0.13
-14.73
8.66
-0.02
1.37
0.63
-0.55
-1.39

> <PUBCHEM_SHAPE_SELFOVERLAP>
1603.058

> <PUBCHEM_SHAPE_VOLUME>
408.9

> <PUBCHEM_COORDINATE_TYPE>
2
5
10

$$$$
