26743766
  -OEChem-12032416193D

 46 49  0     1  0  0  0  0  0999 V2000
    3.9897   -2.2634    1.8453 F   0  0  0  0  0  0  0  0  0  0  0  0
   -3.9230    3.2401    2.1448 O   0  0  0  0  0  0  0  0  0  0  0  0
    0.4239    2.6377   -1.4926 O   0  0  0  0  0  0  0  0  0  0  0  0
   -2.4202    0.8306   -0.0247 N   0  0  1  0  0  0  0  0  0  0  0  0
    0.5641    0.9335   -0.0460 N   0  0  0  0  0  0  0  0  0  0  0  0
    1.7656    2.2356   -1.4934 N   0  0  0  0  0  0  0  0  0  0  0  0
   -1.6982    2.0536   -0.4302 C   0  0  1  0  0  0  0  0  0  0  0  0
   -2.0073    3.0786    0.6768 C   0  0  0  0  0  0  0  0  0  0  0  0
   -2.9457    2.3544    1.6341 C   0  0  2  0  0  0  0  0  0  0  0  0
   -3.5639    1.2700    0.7723 C   0  0  0  0  0  0  0  0  0  0  0  0
   -2.8240    0.0013   -1.1527 C   0  0  0  0  0  0  0  0  0  0  0  0
   -0.2134    1.8202   -0.6141 C   0  0  0  0  0  0  0  0  0  0  0  0
   -3.0964   -1.4193   -0.7351 C   0  0  0  0  0  0  0  0  0  0  0  0
    1.7684    1.2271   -0.6165 C   0  0  0  0  0  0  0  0  0  0  0  0
   -2.0664   -2.3600   -0.7475 C   0  0  0  0  0  0  0  0  0  0  0  0
   -4.3789   -1.7948   -0.3353 C   0  0  0  0  0  0  0  0  0  0  0  0
    2.9567    0.4941   -0.2875 C   0  0  0  0  0  0  0  0  0  0  0  0
   -2.3189   -3.6759   -0.3601 C   0  0  0  0  0  0  0  0  0  0  0  0
   -4.6314   -3.1108    0.0523 C   0  0  0  0  0  0  0  0  0  0  0  0
   -3.6015   -4.0514    0.0400 C   0  0  0  0  0  0  0  0  0  0  0  0
    2.8992   -0.5491    0.6366 C   0  0  0  0  0  0  0  0  0  0  0  0
    4.1695    0.8242   -0.8922 C   0  0  0  0  0  0  0  0  0  0  0  0
    4.0546   -1.2624    0.9560 C   0  0  0  0  0  0  0  0  0  0  0  0
    5.3249    0.1111   -0.5726 C   0  0  0  0  0  0  0  0  0  0  0  0
    5.2676   -0.9323    0.3514 C   0  0  0  0  0  0  0  0  0  0  0  0
    6.5048   -1.6926    0.6908 C   0  0  0  0  0  0  0  0  0  0  0  0
   -2.1102    2.4432   -1.3720 H   0  0  0  0  0  0  0  0  0  0  0  0
   -1.1143    3.4246    1.2099 H   0  0  0  0  0  0  0  0  0  0  0  0
   -2.4928    3.9645    0.2486 H   0  0  0  0  0  0  0  0  0  0  0  0
   -2.3855    1.9163    2.4692 H   0  0  0  0  0  0  0  0  0  0  0  0
   -3.9765    0.4747    1.4011 H   0  0  0  0  0  0  0  0  0  0  0  0
   -4.3793    1.6795    0.1614 H   0  0  0  0  0  0  0  0  0  0  0  0
   -2.0228   -0.0310   -1.9041 H   0  0  0  0  0  0  0  0  0  0  0  0
   -3.6902    0.4187   -1.6842 H   0  0  0  0  0  0  0  0  0  0  0  0
   -3.4555    3.9483    2.6198 H   0  0  0  0  0  0  0  0  0  0  0  0
   -1.0618   -2.0799   -1.0538 H   0  0  0  0  0  0  0  0  0  0  0  0
   -5.1923   -1.0744   -0.3263 H   0  0  0  0  0  0  0  0  0  0  0  0
   -1.5168   -4.4081   -0.3690 H   0  0  0  0  0  0  0  0  0  0  0  0
   -5.6302   -3.4034    0.3626 H   0  0  0  0  0  0  0  0  0  0  0  0
   -3.7980   -5.0760    0.3417 H   0  0  0  0  0  0  0  0  0  0  0  0
    1.9694   -0.8308    1.1245 H   0  0  0  0  0  0  0  0  0  0  0  0
    4.2530    1.6305   -1.6166 H   0  0  0  0  0  0  0  0  0  0  0  0
    6.2630    0.3803   -1.0508 H   0  0  0  0  0  0  0  0  0  0  0  0
    6.8102   -1.4755    1.7195 H   0  0  0  0  0  0  0  0  0  0  0  0
    6.3318   -2.7692    0.5896 H   0  0  0  0  0  0  0  0  0  0  0  0
    7.3376   -1.4328    0.0287 H   0  0  0  0  0  0  0  0  0  0  0  0
  1 23  1  0  0  0  0
  2  9  1  0  0  0  0
  2 35  1  0  0  0  0
  3  6  1  0  0  0  0
  3 12  1  0  0  0  0
  4  7  1  0  0  0  0
  4 10  1  0  0  0  0
  4 11  1  0  0  0  0
  5 12  2  0  0  0  0
  5 14  1  0  0  0  0
  6 14  2  0  0  0  0
  7  8  1  0  0  0  0
  7 12  1  0  0  0  0
  7 27  1  0  0  0  0
  8  9  1  0  0  0  0
  8 28  1  0  0  0  0
  8 29  1  0  0  0  0
  9 10  1  0  0  0  0
  9 30  1  0  0  0  0
 10 31  1  0  0  0  0
 10 32  1  0  0  0  0
 11 13  1  0  0  0  0
 11 33  1  0  0  0  0
 11 34  1  0  0  0  0
 13 15  2  0  0  0  0
 13 16  1  0  0  0  0
 14 17  1  0  0  0  0
 15 18  1  0  0  0  0
 15 36  1  0  0  0  0
 16 19  2  0  0  0  0
 16 37  1  0  0  0  0
 17 21  2  0  0  0  0
 17 22  1  0  0  0  0
 18 20  2  0  0  0  0
 18 38  1  0  0  0  0
 19 20  1  0  0  0  0
 19 39  1  0  0  0  0
 20 40  1  0  0  0  0
 21 23  1  0  0  0  0
 21 41  1  0  0  0  0
 22 24  2  0  0  0  0
 22 42  1  0  0  0  0
 23 25  2  0  0  0  0
 24 25  1  0  0  0  0
 24 43  1  0  0  0  0
 25 26  1  0  0  0  0
 26 44  1  0  0  0  0
 26 45  1  0  0  0  0
 26 46  1  0  0  0  0
M  END
> <PUBCHEM_COMPOUND_CID>
26743766

> <PUBCHEM_CONFORMER_RMSD>
0.8

> <PUBCHEM_CONFORMER_DIVERSEORDER>
1
75
42
61
40
15
37
66
52
46
12
74
30
11
43
51
23
60
63
36
57
64
62
21
45
41
70
24
56
55
33
9
69
67
31
29
7
71
58
6
32
39
17
47
35
3
73
59
4
8
18
28
48
5
54
72
22
16
14
20
25
68
50
44
19
53
26
65
2
13
34
27
38
49
10

> <PUBCHEM_MMFF94_PARTIAL_CHARGES>
34
1 -0.19
10 0.27
11 0.41
12 0.3
13 -0.14
14 0.46
15 -0.15
16 -0.15
17 0.05
18 -0.15
19 -0.15
2 -0.68
20 -0.15
21 -0.15
22 -0.15
23 0.19
24 -0.15
25 -0.14
26 0.14
3 -0.02
35 0.4
36 0.15
37 0.15
38 0.15
39 0.15
4 -0.81
40 0.15
41 0.15
42 0.15
43 0.15
5 -0.57
6 -0.41
7 0.45
9 0.28

> <PUBCHEM_EFFECTIVE_ROTOR_COUNT>
5

> <PUBCHEM_PHARMACOPHORE_FEATURES>
8
1 2 acceptor
1 2 donor
1 4 cation
3 5 6 14 cation
5 3 5 6 12 14 rings
5 4 7 8 9 10 rings
6 13 15 16 18 19 20 rings
6 17 21 22 23 24 25 rings

> <PUBCHEM_HEAVY_ATOM_COUNT>
26

> <PUBCHEM_ATOM_DEF_STEREO_COUNT>
2

> <PUBCHEM_ATOM_UDEF_STEREO_COUNT>
0

> <PUBCHEM_BOND_DEF_STEREO_COUNT>
0

> <PUBCHEM_BOND_UDEF_STEREO_COUNT>
0

> <PUBCHEM_ISOTOPIC_ATOM_COUNT>
0

> <PUBCHEM_COMPONENT_COUNT>
1

> <PUBCHEM_CACTVS_TAUTO_COUNT>
1

> <PUBCHEM_CONFORMER_ID>
019813D600000001

> <PUBCHEM_MMFF94_ENERGY>
56.2955

> <PUBCHEM_FEATURE_SELFOVERLAP>
40.597

> <PUBCHEM_SHAPE_FINGERPRINT>
10319688 67 17774731870640686217
10483366 6 18117252824005512093
10622 236 18263070153789700447
10928967 22 18042125350089020474
11036077 4 18270681965725217473
11315621 246 18335425609006212254
114674 6 16394369071061523063
11552529 35 18341889688809181480
12107183 9 18196669591128646499
12174731 88 17899115136787146290
12633257 1 18201155434596441056
12760667 363 18341325704169958455
12788726 201 18126584515911623967
13004483 165 18129383881369698221
13009979 54 18411141376106571717
13583140 156 16486681481753567284
13631057 29 18266741462328141260
14178342 30 18270972258058673623
14705955 166 17060345080712920299
14844126 61 18272647969962489171
14866123 147 18412831300689939011
15250474 111 18407758123610638438
15537594 2 18041288643241148730
15728490 83 18260552233571016579
15842332 3 18190484794339316933
16728300 4 18187661180618911843
17780758 139 18343015584241695584
17909252 39 18193841672406085570
20554085 129 17343779284403310881
20775530 9 18264478671355834183
21033648 29 16343702093421108160
21315759 148 17918276437946150694
235170 7 13407090145599088400
23559900 14 18268416001072960305
23728640 28 18341339907478716889
3004659 81 18115862082723206399
312425 54 18128808660953344546
345986 75 18055365888328007323
4435113 14 17772772476427655606
46194498 28 16517083141143563750
484985 159 18261944159720157567
5104073 3 18272645745559755464
5486654 36 18410857659172744064
602551 16 18271806787943252950
6679774 75 17757312243128582051
7064713 232 18199745847703931888
7970288 3 18336260266474473686
9981440 41 16127815119885126149

> <PUBCHEM_SHAPE_MULTIPOLES>
501.11
12.52
4.83
1.38
15.03
1.45
-0.36
8.97
-2.65
-7.24
-0.94
-0.05
-0.83
-3.39

> <PUBCHEM_SHAPE_SELFOVERLAP>
1092.398

> <PUBCHEM_SHAPE_VOLUME>
275.7

> <PUBCHEM_COORDINATE_TYPE>
2
5
10

$$$$
