71693206
  -OEChem-12032416303D

 69 71  0     1  0  0  0  0  0999 V2000
    3.7176    2.6207    1.1323 O   0  0  0  0  0  0  0  0  0  0  0  0
   -5.5883    1.5157    0.6029 O   0  0  0  0  0  0  0  0  0  0  0  0
   -6.7884   -0.3733    1.1424 O   0  0  0  0  0  0  0  0  0  0  0  0
   -1.0974    3.5884   -0.3958 O   0  0  0  0  0  0  0  0  0  0  0  0
    0.1881    5.3104   -1.1304 O   0  0  0  0  0  0  0  0  0  0  0  0
    4.4096    0.7534   -0.0625 N   0  0  0  0  0  0  0  0  0  0  0  0
   -1.0184   -0.5160   -0.6096 N   0  0  0  0  0  0  0  0  0  0  0  0
   -1.3798   -2.4800   -1.5855 N   0  0  0  0  0  0  0  0  0  0  0  0
    2.3691   -1.0189    1.2561 C   0  0  1  0  0  0  0  0  0  0  0  0
    3.8705   -1.3449    1.0578 C   0  0  1  0  0  0  0  0  0  0  0  0
    1.5005   -2.2124    0.8303 C   0  0  0  0  0  0  0  0  0  0  0  0
    1.7253   -2.6001   -0.6434 C   0  0  2  0  0  0  0  0  0  0  0  0
    2.0560   -0.6411    2.7072 C   0  0  0  0  0  0  0  0  0  0  0  0
    3.1992   -2.6794   -0.9863 C   0  0  0  0  0  0  0  0  0  0  0  0
    4.1443   -2.1241   -0.2072 C   0  0  0  0  0  0  0  0  0  0  0  0
    4.7194   -0.0684    1.0651 C   0  0  0  0  0  0  0  0  0  0  0  0
    0.9937   -1.6377   -1.5856 C   0  0  0  0  0  0  0  0  0  0  0  0
    0.8004    0.2227    2.7732 C   0  0  0  0  0  0  0  0  0  0  0  0
    1.8952   -1.8951    3.5606 C   0  0  0  0  0  0  0  0  0  0  0  0
    3.5660   -3.4517   -2.2229 C   0  0  0  0  0  0  0  0  0  0  0  0
   -0.4749   -1.5782   -1.2770 C   0  0  0  0  0  0  0  0  0  0  0  0
    3.9248    2.0556    0.0618 C   0  0  0  0  0  0  0  0  0  0  0  0
   -2.3637   -0.7476   -0.4789 C   0  0  0  0  0  0  0  0  0  0  0  0
   -2.5643   -1.9794   -1.0958 C   0  0  0  0  0  0  0  0  0  0  0  0
    3.6505    2.6965   -1.2883 C   0  0  0  0  0  0  0  0  0  0  0  0
   -3.3909   -0.0081    0.1081 C   0  0  0  0  0  0  0  0  0  0  0  0
    2.5195    3.7230   -1.2627 C   0  0  0  0  0  0  0  0  0  0  0  0
   -3.8602   -2.5208   -1.1389 C   0  0  0  0  0  0  0  0  0  0  0  0
   -4.6744   -0.5619    0.0560 C   0  0  0  0  0  0  0  0  0  0  0  0
   -4.9069   -1.7958   -0.5559 C   0  0  0  0  0  0  0  0  0  0  0  0
    1.1867    3.1106   -0.8273 C   0  0  0  0  0  0  0  0  0  0  0  0
   -5.7866    0.1630    0.6517 C   0  0  0  0  0  0  0  0  0  0  0  0
    0.0751    4.1350   -0.8120 C   0  0  0  0  0  0  0  0  0  0  0  0
   -6.6175    2.3401    1.1604 C   0  0  0  0  0  0  0  0  0  0  0  0
    2.1037   -0.1691    0.6155 H   0  0  0  0  0  0  0  0  0  0  0  0
    4.2217   -1.9738    1.8856 H   0  0  0  0  0  0  0  0  0  0  0  0
    0.4431   -2.0523    1.0535 H   0  0  0  0  0  0  0  0  0  0  0  0
    1.7865   -3.1044    1.4050 H   0  0  0  0  0  0  0  0  0  0  0  0
    1.2929   -3.6033   -0.7699 H   0  0  0  0  0  0  0  0  0  0  0  0
    2.8707   -0.0449    3.1307 H   0  0  0  0  0  0  0  0  0  0  0  0
    5.1906   -2.2530   -0.4776 H   0  0  0  0  0  0  0  0  0  0  0  0
    5.7833   -0.3228    0.9835 H   0  0  0  0  0  0  0  0  0  0  0  0
    4.6053    0.4927    1.9965 H   0  0  0  0  0  0  0  0  0  0  0  0
    1.0978   -1.9718   -2.6254 H   0  0  0  0  0  0  0  0  0  0  0  0
    1.4290   -0.6313   -1.5445 H   0  0  0  0  0  0  0  0  0  0  0  0
    0.6022    0.5294    3.8061 H   0  0  0  0  0  0  0  0  0  0  0  0
    0.9189    1.1340    2.1780 H   0  0  0  0  0  0  0  0  0  0  0  0
   -0.0876   -0.3054    2.4128 H   0  0  0  0  0  0  0  0  0  0  0  0
    1.8557   -1.6071    4.6186 H   0  0  0  0  0  0  0  0  0  0  0  0
    2.7381   -2.5853    3.4606 H   0  0  0  0  0  0  0  0  0  0  0  0
    0.9620   -2.4336    3.3648 H   0  0  0  0  0  0  0  0  0  0  0  0
    3.1629   -4.4682   -2.1696 H   0  0  0  0  0  0  0  0  0  0  0  0
    4.6507   -3.5346   -2.3504 H   0  0  0  0  0  0  0  0  0  0  0  0
    3.1667   -2.9643   -3.1172 H   0  0  0  0  0  0  0  0  0  0  0  0
    4.6097    0.3915   -0.9905 H   0  0  0  0  0  0  0  0  0  0  0  0
   -0.5195    0.2956   -0.2693 H   0  0  0  0  0  0  0  0  0  0  0  0
    4.5783    3.1814   -1.6132 H   0  0  0  0  0  0  0  0  0  0  0  0
    3.4120    1.9196   -2.0246 H   0  0  0  0  0  0  0  0  0  0  0  0
   -3.1782    0.9417    0.5867 H   0  0  0  0  0  0  0  0  0  0  0  0
    2.7827    4.5441   -0.5839 H   0  0  0  0  0  0  0  0  0  0  0  0
    2.4159    4.1646   -2.2614 H   0  0  0  0  0  0  0  0  0  0  0  0
   -4.0511   -3.4784   -1.6127 H   0  0  0  0  0  0  0  0  0  0  0  0
   -5.9103   -2.2147   -0.5927 H   0  0  0  0  0  0  0  0  0  0  0  0
    0.9029    2.3112   -1.5209 H   0  0  0  0  0  0  0  0  0  0  0  0
    1.2623    2.6940    0.1816 H   0  0  0  0  0  0  0  0  0  0  0  0
   -1.8243    4.2469   -0.3845 H   0  0  0  0  0  0  0  0  0  0  0  0
   -6.3158    3.3846    1.0470 H   0  0  0  0  0  0  0  0  0  0  0  0
   -6.7396    2.1219    2.2254 H   0  0  0  0  0  0  0  0  0  0  0  0
   -7.5577    2.1841    0.6234 H   0  0  0  0  0  0  0  0  0  0  0  0
  1 22  2  0  0  0  0
  2 32  1  0  0  0  0
  2 34  1  0  0  0  0
  3 32  2  0  0  0  0
  4 33  1  0  0  0  0
  4 66  1  0  0  0  0
  5 33  2  0  0  0  0
  6 16  1  0  0  0  0
  6 22  1  0  0  0  0
  6 55  1  0  0  0  0
  7 21  1  0  0  0  0
  7 23  1  0  0  0  0
  7 56  1  0  0  0  0
  8 21  2  0  0  0  0
  8 24  1  0  0  0  0
  9 10  1  0  0  0  0
  9 11  1  0  0  0  0
  9 13  1  0  0  0  0
  9 35  1  0  0  0  0
 10 15  1  0  0  0  0
 10 16  1  0  0  0  0
 10 36  1  0  0  0  0
 11 12  1  0  0  0  0
 11 37  1  0  0  0  0
 11 38  1  0  0  0  0
 12 14  1  0  0  0  0
 12 17  1  0  0  0  0
 12 39  1  0  0  0  0
 13 18  1  0  0  0  0
 13 19  1  0  0  0  0
 13 40  1  0  0  0  0
 14 15  2  0  0  0  0
 14 20  1  0  0  0  0
 15 41  1  0  0  0  0
 16 42  1  0  0  0  0
 16 43  1  0  0  0  0
 17 21  1  0  0  0  0
 17 44  1  0  0  0  0
 17 45  1  0  0  0  0
 18 46  1  0  0  0  0
 18 47  1  0  0  0  0
 18 48  1  0  0  0  0
 19 49  1  0  0  0  0
 19 50  1  0  0  0  0
 19 51  1  0  0  0  0
 20 52  1  0  0  0  0
 20 53  1  0  0  0  0
 20 54  1  0  0  0  0
 22 25  1  0  0  0  0
 23 24  2  0  0  0  0
 23 26  1  0  0  0  0
 24 28  1  0  0  0  0
 25 27  1  0  0  0  0
 25 57  1  0  0  0  0
 25 58  1  0  0  0  0
 26 29  2  0  0  0  0
 26 59  1  0  0  0  0
 27 31  1  0  0  0  0
 27 60  1  0  0  0  0
 27 61  1  0  0  0  0
 28 30  2  0  0  0  0
 28 62  1  0  0  0  0
 29 30  1  0  0  0  0
 29 32  1  0  0  0  0
 30 63  1  0  0  0  0
 31 33  1  0  0  0  0
 31 64  1  0  0  0  0
 31 65  1  0  0  0  0
 34 67  1  0  0  0  0
 34 68  1  0  0  0  0
 34 69  1  0  0  0  0
M  END
> <PUBCHEM_COMPOUND_CID>
71693206

> <PUBCHEM_CONFORMER_RMSD>
1.2

> <PUBCHEM_CONFORMER_DIVERSEORDER>
1
46
56
50
51
29
19
34
3
37
48
47
11
26
45
10
27
6
12
15
41
22
30
25
54
36
14
35
20
55
33
42
44
39
40
32
53
49
8
43
4
21
52
28
24
23
31
18
7
38
9
16
5
2
13
17

> <PUBCHEM_MMFF94_PARTIAL_CHARGES>
35
1 -0.57
10 0.14
12 0.14
14 -0.28
15 -0.29
16 0.3
17 0.18
2 -0.43
20 0.14
21 0.01
22 0.57
23 -0.15
24 0.23
25 0.06
26 -0.15
28 -0.15
29 0.09
3 -0.57
30 -0.15
31 0.06
32 0.63
33 0.66
34 0.28
4 -0.65
41 0.15
5 -0.57
55 0.37
56 0.27
59 0.15
6 -0.73
62 0.15
63 0.15
66 0.5
7 0.03
8 -0.57

> <PUBCHEM_EFFECTIVE_ROTOR_COUNT>
12.8

> <PUBCHEM_PHARMACOPHORE_FEATURES>
12
1 1 acceptor
1 3 acceptor
1 4 acceptor
1 5 acceptor
1 6 donor
1 7 donor
3 13 18 19 hydrophobe
3 4 5 33 anion
3 7 8 21 cation
5 7 8 21 23 24 rings
6 23 24 26 28 29 30 rings
6 9 10 11 12 14 15 rings

> <PUBCHEM_HEAVY_ATOM_COUNT>
34

> <PUBCHEM_ATOM_DEF_STEREO_COUNT>
3

> <PUBCHEM_ATOM_UDEF_STEREO_COUNT>
0

> <PUBCHEM_BOND_DEF_STEREO_COUNT>
0

> <PUBCHEM_BOND_UDEF_STEREO_COUNT>
0

> <PUBCHEM_ISOTOPIC_ATOM_COUNT>
0

> <PUBCHEM_COMPONENT_COUNT>
1

> <PUBCHEM_CACTVS_TAUTO_COUNT>
14

> <PUBCHEM_CONFORMER_ID>
0445F39600000001

> <PUBCHEM_MMFF94_ENERGY>
61.7413

> <PUBCHEM_FEATURE_SELFOVERLAP>
61.06

> <PUBCHEM_SHAPE_FINGERPRINT>
10483366 6 18265917890171276476
10674148 151 18269006448325104284
11479125 193 17904496438429361921
11578080 2 16590239022733110335
12156800 1 15192510047822092566
12422481 6 18408324363556773909
13561361 72 18122906426026037085
15001296 14 18268709592278994201
15082195 135 18199732804284374199
15264996 154 18188511145197297975
15297060 5 17845096340835091584
15781502 13 16977607719881746830
16067690 210 18115587024797005393
21033648 29 17916571048003689675
23559900 14 17988645147158142703
3493558 16 18343031016259546345
373842 8 18338518543599800053
392239 28 17241310508188795250
4144715 1 18336561468936906587
508180 173 17983313796149031848

> <PUBCHEM_SHAPE_MULTIPOLES>
655.41
12.5
5.63
2.4
21.36
7.4
-1.98
0.62
-3.09
-3.37
3.47
-1.94
-1.21
-1.57

> <PUBCHEM_SHAPE_SELFOVERLAP>
1372.018

> <PUBCHEM_SHAPE_VOLUME>
369.4

> <PUBCHEM_COORDINATE_TYPE>
2
5
10

$$$$
