26745401
  -OEChem-12032416183D

 64 68  0     1  0  0  0  0  0999 V2000
   -1.1173   -1.2806    1.3140 O   0  0  0  0  0  0  0  0  0  0  0  0
    0.9055   -0.9832    0.2110 N   0  0  0  0  0  0  0  0  0  0  0  0
   -2.4272    0.4702   -0.2345 N   0  0  1  0  0  0  0  0  0  0  0  0
   -3.0127    4.1698   -0.2398 N   0  0  0  0  0  0  0  0  0  0  0  0
   -1.1333    4.2592    0.9688 N   0  0  0  0  0  0  0  0  0  0  0  0
    3.7826   -1.1500    0.5425 C   0  0  0  0  0  0  0  0  0  0  0  0
    3.1045    0.1060   -0.0260 C   0  0  0  0  0  0  0  0  0  0  0  0
    2.8147   -1.9027    1.4679 C   0  0  0  0  0  0  0  0  0  0  0  0
    1.7783   -0.2366   -0.7027 C   0  0  0  0  0  0  0  0  0  0  0  0
    1.4962   -2.2050    0.7597 C   0  0  0  0  0  0  0  0  0  0  0  0
   -0.9492    0.6080   -0.0934 C   0  0  2  0  0  0  0  0  0  0  0  0
   -0.4034   -0.6352    0.5419 C   0  0  0  0  0  0  0  0  0  0  0  0
    5.0683   -0.7860    1.2811 C   0  0  0  0  0  0  0  0  0  0  0  0
   -0.5275    1.7999    0.8179 C   0  0  0  0  0  0  0  0  0  0  0  0
   -3.0443    1.6819   -0.8462 C   0  0  0  0  0  0  0  0  0  0  0  0
   -1.3609    2.9853    0.5326 C   0  0  0  0  0  0  0  0  0  0  0  0
   -2.5128    2.9037   -0.2064 C   0  0  0  0  0  0  0  0  0  0  0  0
   -2.8065   -0.7004   -1.0350 C   0  0  0  0  0  0  0  0  0  0  0  0
    6.2030   -0.5317    0.3271 C   0  0  0  0  0  0  0  0  0  0  0  0
   -4.1961   -1.1781   -0.7062 C   0  0  0  0  0  0  0  0  0  0  0  0
   -2.1460    4.9513    0.4840 C   0  0  0  0  0  0  0  0  0  0  0  0
    7.0323   -1.5819   -0.0669 C   0  0  0  0  0  0  0  0  0  0  0  0
    6.4261    0.7547   -0.1637 C   0  0  0  0  0  0  0  0  0  0  0  0
   -4.4266   -1.8983    0.4660 C   0  0  0  0  0  0  0  0  0  0  0  0
   -5.2520   -0.9029   -1.5749 C   0  0  0  0  0  0  0  0  0  0  0  0
    8.0847   -1.3456   -0.9514 C   0  0  0  0  0  0  0  0  0  0  0  0
    7.4783    0.9910   -1.0485 C   0  0  0  0  0  0  0  0  0  0  0  0
    8.3076   -0.0593   -1.4422 C   0  0  0  0  0  0  0  0  0  0  0  0
   -5.7133   -2.3433    0.7692 C   0  0  0  0  0  0  0  0  0  0  0  0
   -6.5387   -1.3479   -1.2717 C   0  0  0  0  0  0  0  0  0  0  0  0
   -6.7694   -2.0680   -0.0995 C   0  0  0  0  0  0  0  0  0  0  0  0
   -8.1450   -2.5444    0.2250 C   0  0  0  0  0  0  0  0  0  0  0  0
    4.0190   -1.8209   -0.2958 H   0  0  0  0  0  0  0  0  0  0  0  0
    3.7443    0.5972   -0.7653 H   0  0  0  0  0  0  0  0  0  0  0  0
    2.9213    0.8276    0.7806 H   0  0  0  0  0  0  0  0  0  0  0  0
    2.6144   -1.2968    2.3611 H   0  0  0  0  0  0  0  0  0  0  0  0
    3.2679   -2.8412    1.8079 H   0  0  0  0  0  0  0  0  0  0  0  0
    1.3418    0.6903   -1.0687 H   0  0  0  0  0  0  0  0  0  0  0  0
    1.9510   -0.8765   -1.5764 H   0  0  0  0  0  0  0  0  0  0  0  0
    1.6585   -2.8947   -0.0770 H   0  0  0  0  0  0  0  0  0  0  0  0
    0.8069   -2.6929    1.4560 H   0  0  0  0  0  0  0  0  0  0  0  0
   -0.5710    0.7468   -1.1101 H   0  0  0  0  0  0  0  0  0  0  0  0
    5.3631   -1.6038    1.9524 H   0  0  0  0  0  0  0  0  0  0  0  0
    4.9200    0.0838    1.9341 H   0  0  0  0  0  0  0  0  0  0  0  0
    0.5292    2.0443    0.6657 H   0  0  0  0  0  0  0  0  0  0  0  0
   -0.6464    1.5367    1.8769 H   0  0  0  0  0  0  0  0  0  0  0  0
   -4.1314    1.6559   -0.7127 H   0  0  0  0  0  0  0  0  0  0  0  0
   -2.8297    1.7344   -1.9215 H   0  0  0  0  0  0  0  0  0  0  0  0
   -2.1503   -1.5652   -0.8814 H   0  0  0  0  0  0  0  0  0  0  0  0
   -2.7109   -0.4963   -2.1109 H   0  0  0  0  0  0  0  0  0  0  0  0
   -3.8544    4.4801   -0.7072 H   0  0  0  0  0  0  0  0  0  0  0  0
   -2.3120    6.0109    0.6174 H   0  0  0  0  0  0  0  0  0  0  0  0
    6.8677   -2.5891    0.3065 H   0  0  0  0  0  0  0  0  0  0  0  0
    5.7952    1.5851    0.1418 H   0  0  0  0  0  0  0  0  0  0  0  0
   -3.6160   -2.1240    1.1520 H   0  0  0  0  0  0  0  0  0  0  0  0
   -5.0866   -0.3424   -2.4912 H   0  0  0  0  0  0  0  0  0  0  0  0
    8.7302   -2.1633   -1.2584 H   0  0  0  0  0  0  0  0  0  0  0  0
    7.6535    1.9930   -1.4290 H   0  0  0  0  0  0  0  0  0  0  0  0
    9.1272    0.1248   -2.1306 H   0  0  0  0  0  0  0  0  0  0  0  0
   -5.8807   -2.9026    1.6859 H   0  0  0  0  0  0  0  0  0  0  0  0
   -7.3536   -1.1256   -1.9555 H   0  0  0  0  0  0  0  0  0  0  0  0
   -8.6750   -1.7889    0.8134 H   0  0  0  0  0  0  0  0  0  0  0  0
   -8.7187   -2.7459   -0.6860 H   0  0  0  0  0  0  0  0  0  0  0  0
   -8.1150   -3.4779    0.7973 H   0  0  0  0  0  0  0  0  0  0  0  0
  1 12  2  0  0  0  0
  2  9  1  0  0  0  0
  2 10  1  0  0  0  0
  2 12  1  0  0  0  0
  3 11  1  0  0  0  0
  3 15  1  0  0  0  0
  3 18  1  0  0  0  0
  4 17  1  0  0  0  0
  4 21  1  0  0  0  0
  4 51  1  0  0  0  0
  5 16  1  0  0  0  0
  5 21  2  0  0  0  0
  6  7  1  0  0  0  0
  6  8  1  0  0  0  0
  6 13  1  0  0  0  0
  6 33  1  0  0  0  0
  7  9  1  0  0  0  0
  7 34  1  0  0  0  0
  7 35  1  0  0  0  0
  8 10  1  0  0  0  0
  8 36  1  0  0  0  0
  8 37  1  0  0  0  0
  9 38  1  0  0  0  0
  9 39  1  0  0  0  0
 10 40  1  0  0  0  0
 10 41  1  0  0  0  0
 11 12  1  0  0  0  0
 11 14  1  0  0  0  0
 11 42  1  0  0  0  0
 13 19  1  0  0  0  0
 13 43  1  0  0  0  0
 13 44  1  0  0  0  0
 14 16  1  0  0  0  0
 14 45  1  0  0  0  0
 14 46  1  0  0  0  0
 15 17  1  0  0  0  0
 15 47  1  0  0  0  0
 15 48  1  0  0  0  0
 16 17  2  0  0  0  0
 18 20  1  0  0  0  0
 18 49  1  0  0  0  0
 18 50  1  0  0  0  0
 19 22  2  0  0  0  0
 19 23  1  0  0  0  0
 20 24  2  0  0  0  0
 20 25  1  0  0  0  0
 21 52  1  0  0  0  0
 22 26  1  0  0  0  0
 22 53  1  0  0  0  0
 23 27  2  0  0  0  0
 23 54  1  0  0  0  0
 24 29  1  0  0  0  0
 24 55  1  0  0  0  0
 25 30  2  0  0  0  0
 25 56  1  0  0  0  0
 26 28  2  0  0  0  0
 26 57  1  0  0  0  0
 27 28  1  0  0  0  0
 27 58  1  0  0  0  0
 28 59  1  0  0  0  0
 29 31  2  0  0  0  0
 29 60  1  0  0  0  0
 30 31  1  0  0  0  0
 30 61  1  0  0  0  0
 31 32  1  0  0  0  0
 32 62  1  0  0  0  0
 32 63  1  0  0  0  0
 32 64  1  0  0  0  0
M  END
> <PUBCHEM_COMPOUND_CID>
26745401

> <PUBCHEM_CONFORMER_RMSD>
1

> <PUBCHEM_CONFORMER_DIVERSEORDER>
1
139
29
36
165
230
134
252
210
4
174
84
225
145
98
82
187
254
217
247
156
211
121
95
125
162
203
240
205
199
87
80
130
104
65
192
33
77
49
197
193
249
180
51
42
246
39
131
22
155
213
83
60
94
207
79
218
264
251
151
231
198
182
44
223
114
176
175
24
229
97
129
113
171
53
147
227
10
133
74
244
201
236
160
177
32
190
186
14
179
212
196
184
18
221
17
43
50
188
86
169
109
144
202
154
158
253
222
153
27
226
101
259
110
78
23
167
70
100
239
16
89
123
40
135
124
41
64
242
138
120
233
128
85
127
195
189
152
48
140
106
215
46
245
248
103
255
234
67
220
59
92
237
52
163
13
118
146
105
122
91
117
262
26
75
5
150
66
15
166
73
126
170
141
263
172
62
168
224
9
90
28
102
216
55
19
3
72
112
204
164
20
8
238
93
185
206
99
235
11
12
200
111
178
88
161
191
183
68
108
257
228
107
115
57
173
119
181
232
30
250
241
38
258
149
2
69
45
116
6
143
21
7
61
35
243
81
157
54
31
208
148
136
219
63
256
47
260
137
214
159
194
261
37
142
96
209
76
132
34
56
25
58
71

> <PUBCHEM_MMFF94_PARTIAL_CHARGES>
40
1 -0.57
10 0.3
11 0.33
12 0.57
13 0.14
14 0.18
15 0.45
16 0.05
17 -0.33
18 0.41
19 -0.14
2 -0.66
20 -0.14
21 0.04
22 -0.15
23 -0.15
24 -0.15
25 -0.15
26 -0.15
27 -0.15
28 -0.15
29 -0.15
3 -0.81
30 -0.15
31 -0.14
32 0.14
4 0.03
5 -0.57
51 0.27
52 0.15
53 0.15
54 0.15
55 0.15
56 0.15
57 0.15
58 0.15
59 0.15
60 0.15
61 0.15
9 0.3

> <PUBCHEM_EFFECTIVE_ROTOR_COUNT>
8

> <PUBCHEM_PHARMACOPHORE_FEATURES>
9
1 1 acceptor
1 3 cation
1 4 donor
3 4 5 21 cation
5 4 5 16 17 21 rings
6 19 22 23 26 27 28 rings
6 2 6 7 8 9 10 rings
6 20 24 25 29 30 31 rings
6 3 11 14 15 16 17 rings

> <PUBCHEM_HEAVY_ATOM_COUNT>
32

> <PUBCHEM_ATOM_DEF_STEREO_COUNT>
1

> <PUBCHEM_ATOM_UDEF_STEREO_COUNT>
0

> <PUBCHEM_BOND_DEF_STEREO_COUNT>
0

> <PUBCHEM_BOND_UDEF_STEREO_COUNT>
0

> <PUBCHEM_ISOTOPIC_ATOM_COUNT>
0

> <PUBCHEM_COMPONENT_COUNT>
1

> <PUBCHEM_CACTVS_TAUTO_COUNT>
2

> <PUBCHEM_CONFORMER_ID>
01981A3900000001

> <PUBCHEM_MMFF94_ENERGY>
82.4011

> <PUBCHEM_FEATURE_SELFOVERLAP>
45.774

> <PUBCHEM_SHAPE_FINGERPRINT>
10050765 1 18194684757248775250
10076449 9 18187929521385579699
10411042 1 18339922718858720433
10595046 47 18335700499660861874
10670039 82 18408603626988855932
11007060 377 16950286191628826834
11101153 10 18336269020013143628
11411753 29 17918272031399499744
12082328 90 18341611470008720094
12107698 1 18413108377282496180
12166972 35 17895192242185582708
12758862 11 17023187188236642155
12788726 201 18335410241112287947
13540713 5 17971746675830950098
13631057 29 18408602543665262192
13673619 4 17775564256075639762
13690498 29 18272082786409750756
13782708 43 17346586470685165702
14068700 675 18334859445510060820
14068700 686 18270963432017581038
14118638 360 18334576811778500466
14556957 393 18408610261827502108
14856354 85 18342455980126535391
15021287 119 13254786949828234570
15064986 96 9943541738127507565
15198563 99 18411979127037925469
15419008 47 18059850688435176216
15538507 32 18267867370830290416
15705408 1 17905859807335911501
1577012 14 18261114012068139712
16087824 20 18339921503948010829
16090146 7 17313679195546021962
16991971 28 18270113651579780991
16992752 21 18411143549502318613
16994733 274 15502639482784347511
18608769 82 18341054025385882992
19427546 20 18336542708092730029
21049683 271 18187925144697334429
21120745 212 18411416172995225801
21150785 3 17531246180094887678
21267235 1 18412262860861036455
21796203 349 18193577747040507243
21927370 108 18340216258414169531
23569917 315 18186798042448842690
23576562 1 18124576829835085599
24180151 214 17458340831830510864
249057 25 17823405021366927162
255183 451 17840853385783697503
2747138 104 18410854399656511594
283562 15 18334574599543049027
34797466 226 17846780750384856124
3552219 110 18260837003224836789
3633792 109 17458060469545715254
4258327 124 18044094557823574165
484989 97 17896607369559322003
497634 4 18187078408763483220
5219985 9 18340767130824575897
5912855 24 18265892446014861547
5969126 39 18341892991649594389
6057620 51 18259707809404930410
6058803 2 17900530177796426154
6371380 46 10953457448726369990
6673363 416 18412271657898609868
6691757 9 11169916056834727221
70634741 139 18040149617497635431

> <PUBCHEM_SHAPE_MULTIPOLES>
632.75
22.72
4.46
1.26
24.7
7.84
-0.1
-17.11
-7.69
-7.48
1.29
0.35
-0.28
-0.72

> <PUBCHEM_SHAPE_SELFOVERLAP>
1368.587

> <PUBCHEM_SHAPE_VOLUME>
345.2

> <PUBCHEM_COORDINATE_TYPE>
2
5
10

$$$$
