25338959
  -OEChem-12032416193D

 50 53  0     1  0  0  0  0  0999 V2000
    2.6296    3.3220   -1.5954 O   0  0  0  0  0  0  0  0  0  0  0  0
    1.2020    1.5661   -2.0594 O   0  0  0  0  0  0  0  0  0  0  0  0
   -1.6552    3.4773   -0.2077 O   0  0  0  0  0  0  0  0  0  0  0  0
   -0.0751    1.7989    0.2287 N   0  0  0  0  0  0  0  0  0  0  0  0
    1.9852   -0.9223    1.7702 N   0  0  0  0  0  0  0  0  0  0  0  0
    3.4237    0.7195    2.2433 N   0  0  0  0  0  0  0  0  0  0  0  0
   -6.6013   -2.1186    0.0667 N   0  0  0  0  0  0  0  0  0  0  0  0
    1.0738    2.7253    0.0505 C   0  0  1  0  0  0  0  0  0  0  0  0
    2.1599    2.6147    1.1415 C   0  0  0  0  0  0  0  0  0  0  0  0
    1.4576    0.2160    1.2369 C   0  0  0  0  0  0  0  0  0  0  0  0
    0.1992    0.3545    0.4814 C   0  0  0  0  0  0  0  0  0  0  0  0
    2.3594    1.2058    1.5370 C   0  0  0  0  0  0  0  0  0  0  0  0
    1.4247   -2.2507    1.7220 C   0  0  0  0  0  0  0  0  0  0  0  0
    1.6195    2.4481   -1.3213 C   0  0  0  0  0  0  0  0  0  0  0  0
    3.1691   -0.5677    2.3665 C   0  0  0  0  0  0  0  0  0  0  0  0
   -1.3688    2.3001    0.0054 C   0  0  0  0  0  0  0  0  0  0  0  0
    1.6208   -2.9345    0.3918 C   0  0  0  0  0  0  0  0  0  0  0  0
   -2.4917    1.3518    0.0186 C   0  0  0  0  0  0  0  0  0  0  0  0
    0.5166   -3.3973   -0.3237 C   0  0  0  0  0  0  0  0  0  0  0  0
    2.9062   -3.1037   -0.1228 C   0  0  0  0  0  0  0  0  0  0  0  0
   -3.1605    1.0796    1.2120 C   0  0  0  0  0  0  0  0  0  0  0  0
   -2.8884    0.7242   -1.1623 C   0  0  0  0  0  0  0  0  0  0  0  0
    3.2433    3.1695   -2.8791 C   0  0  0  0  0  0  0  0  0  0  0  0
    0.6976   -4.0297   -1.5539 C   0  0  0  0  0  0  0  0  0  0  0  0
    3.0873   -3.7360   -1.3529 C   0  0  0  0  0  0  0  0  0  0  0  0
   -4.2261    0.1796    1.2244 C   0  0  0  0  0  0  0  0  0  0  0  0
   -3.9540   -0.1757   -1.1498 C   0  0  0  0  0  0  0  0  0  0  0  0
   -4.6229   -0.4480    0.0435 C   0  0  0  0  0  0  0  0  0  0  0  0
    1.9830   -4.1989   -2.0684 C   0  0  0  0  0  0  0  0  0  0  0  0
   -5.7146   -1.3699    0.0563 C   0  0  0  0  0  0  0  0  0  0  0  0
    0.7010    3.7565    0.0292 H   0  0  0  0  0  0  0  0  0  0  0  0
    3.1093    3.0615    0.8290 H   0  0  0  0  0  0  0  0  0  0  0  0
    1.8206    3.1640    2.0287 H   0  0  0  0  0  0  0  0  0  0  0  0
    0.2568   -0.1525   -0.4864 H   0  0  0  0  0  0  0  0  0  0  0  0
   -0.6270   -0.0849    1.0456 H   0  0  0  0  0  0  0  0  0  0  0  0
    1.8917   -2.8521    2.5115 H   0  0  0  0  0  0  0  0  0  0  0  0
    0.3620   -2.1656    1.9783 H   0  0  0  0  0  0  0  0  0  0  0  0
    3.8004   -1.2859    2.8721 H   0  0  0  0  0  0  0  0  0  0  0  0
   -0.4906   -3.2707    0.0642 H   0  0  0  0  0  0  0  0  0  0  0  0
    3.7795   -2.7596    0.4239 H   0  0  0  0  0  0  0  0  0  0  0  0
   -2.8589    1.5628    2.1377 H   0  0  0  0  0  0  0  0  0  0  0  0
   -2.3729    0.9287   -2.0972 H   0  0  0  0  0  0  0  0  0  0  0  0
    3.6957    2.1770   -2.9665 H   0  0  0  0  0  0  0  0  0  0  0  0
    2.5069    3.3304   -3.6723 H   0  0  0  0  0  0  0  0  0  0  0  0
    4.0297    3.9231   -2.9718 H   0  0  0  0  0  0  0  0  0  0  0  0
   -0.1623   -4.3897   -2.1113 H   0  0  0  0  0  0  0  0  0  0  0  0
    4.0882   -3.8699   -1.7527 H   0  0  0  0  0  0  0  0  0  0  0  0
   -4.7374   -0.0226    2.1626 H   0  0  0  0  0  0  0  0  0  0  0  0
   -4.2511   -0.6574   -2.0782 H   0  0  0  0  0  0  0  0  0  0  0  0
    2.1240   -4.6914   -3.0260 H   0  0  0  0  0  0  0  0  0  0  0  0
  1 14  1  0  0  0  0
  1 23  1  0  0  0  0
  2 14  2  0  0  0  0
  3 16  2  0  0  0  0
  4  8  1  0  0  0  0
  4 11  1  0  0  0  0
  4 16  1  0  0  0  0
  5 10  1  0  0  0  0
  5 13  1  0  0  0  0
  5 15  1  0  0  0  0
  6 12  1  0  0  0  0
  6 15  2  0  0  0  0
  7 30  3  0  0  0  0
  8  9  1  0  0  0  0
  8 14  1  0  0  0  0
  8 31  1  0  0  0  0
  9 12  1  0  0  0  0
  9 32  1  0  0  0  0
  9 33  1  0  0  0  0
 10 11  1  0  0  0  0
 10 12  2  0  0  0  0
 11 34  1  0  0  0  0
 11 35  1  0  0  0  0
 13 17  1  0  0  0  0
 13 36  1  0  0  0  0
 13 37  1  0  0  0  0
 15 38  1  0  0  0  0
 16 18  1  0  0  0  0
 17 19  2  0  0  0  0
 17 20  1  0  0  0  0
 18 21  2  0  0  0  0
 18 22  1  0  0  0  0
 19 24  1  0  0  0  0
 19 39  1  0  0  0  0
 20 25  2  0  0  0  0
 20 40  1  0  0  0  0
 21 26  1  0  0  0  0
 21 41  1  0  0  0  0
 22 27  2  0  0  0  0
 22 42  1  0  0  0  0
 23 43  1  0  0  0  0
 23 44  1  0  0  0  0
 23 45  1  0  0  0  0
 24 29  2  0  0  0  0
 24 46  1  0  0  0  0
 25 29  1  0  0  0  0
 25 47  1  0  0  0  0
 26 28  2  0  0  0  0
 26 48  1  0  0  0  0
 27 28  1  0  0  0  0
 27 49  1  0  0  0  0
 28 30  1  0  0  0  0
 29 50  1  0  0  0  0
M  END
> <PUBCHEM_COMPOUND_CID>
25338959

> <PUBCHEM_CONFORMER_RMSD>
0.8

> <PUBCHEM_CONFORMER_DIVERSEORDER>
2
7
58
30
20
36
42
24
47
14
56
18
41
4
21
37
59
26
22
46
54
39
11
60
12
33
49
29
28
32
5
8
53
19
45
31
27
38
50
51
17
43
13
52
40
34
61
16
9
57
55
6
35
44
48
23
15
10
25
1
3

> <PUBCHEM_MMFF94_PARTIAL_CHARGES>
40
1 -0.43
10 -0.33
11 0.48
12 0.05
13 0.4
14 0.66
15 0.04
16 0.54
17 -0.14
18 0.09
19 -0.15
2 -0.57
20 -0.15
21 -0.15
22 -0.15
23 0.28
24 -0.15
25 -0.15
26 -0.15
27 -0.15
28 0.07
29 -0.15
3 -0.57
30 0.48
38 0.15
39 0.15
4 -0.66
40 0.15
41 0.15
42 0.15
46 0.15
47 0.15
48 0.15
49 0.15
5 0.05
50 0.15
6 -0.57
7 -0.56
8 0.36
9 0.18

> <PUBCHEM_EFFECTIVE_ROTOR_COUNT>
6.8

> <PUBCHEM_PHARMACOPHORE_FEATURES>
8
1 2 acceptor
1 3 acceptor
1 7 acceptor
3 5 6 15 cation
5 5 6 10 12 15 rings
6 17 19 20 24 25 29 rings
6 18 21 22 26 27 28 rings
6 4 8 9 10 11 12 rings

> <PUBCHEM_HEAVY_ATOM_COUNT>
30

> <PUBCHEM_ATOM_DEF_STEREO_COUNT>
1

> <PUBCHEM_ATOM_UDEF_STEREO_COUNT>
0

> <PUBCHEM_BOND_DEF_STEREO_COUNT>
0

> <PUBCHEM_BOND_UDEF_STEREO_COUNT>
0

> <PUBCHEM_ISOTOPIC_ATOM_COUNT>
0

> <PUBCHEM_COMPONENT_COUNT>
1

> <PUBCHEM_CACTVS_TAUTO_COUNT>
1

> <PUBCHEM_CONFORMER_ID>
0182A44F00000002

> <PUBCHEM_MMFF94_ENERGY>
76.1684

> <PUBCHEM_FEATURE_SELFOVERLAP>
40.701

> <PUBCHEM_SHAPE_FINGERPRINT>
11456790 92 11598636587867603663
12156800 1 15623162342156742082
12160290 23 17398395711382431952
12712778 12 16320889120994213123
13150687 139 17825967076485961820
13383661 66 17261067783195380475
14251757 5 17045709244943405210
14747281 78 17095801002394164037
14863182 85 18341045306554396306
15444296 7 18116709815500959580
15484559 13 17824542104799129293
15664445 248 17898581878110914196
17974551 9 16482732993600702289
1979834 28 18271232907198226835
20028762 73 17914041256120657655
20764821 26 18198338653083048023
20775530 9 18053384293027550511
21197605 99 18048872189850770459
21304303 282 16237036610637498620
21344244 181 17982478153877653836
21792938 131 18270135585903648879
21792965 20 14761837893253387469
22122407 14 10810734093134159183
23559900 14 18339080363949792717
25019877 29 18129929166592097150
255183 313 17910917475246030106
26353 1 17829055312220784164
3737641 26 17772190812921442098
44802255 64 15723089533061582004
4938544 92 12473773123789152198
5080951 261 17328621773706557916
563151 248 16772362176688180090
6287921 2 18130498665648614219

> <PUBCHEM_SHAPE_MULTIPOLES>
579.85
8.8
5.94
2.35
16.77
2.99
-0.42
4.8
0.52
-5.93
-3.9
-3
-0.7
-0.13

> <PUBCHEM_SHAPE_SELFOVERLAP>
1267.222

> <PUBCHEM_SHAPE_VOLUME>
311.1

> <PUBCHEM_COORDINATE_TYPE>
2
5
10

$$$$
