45783395
  -OEChem-12032416263D

 65 68  0     1  0  0  0  0  0999 V2000
   -0.7291   -0.1094    2.6673 O   0  0  0  0  0  0  0  0  0  0  0  0
    0.2417    1.5212   -2.6838 O   0  0  0  0  0  0  0  0  0  0  0  0
   -1.6546    4.0010    0.9483 O   0  0  0  0  0  0  0  0  0  0  0  0
    0.1694    3.8111   -1.1276 O   0  0  0  0  0  0  0  0  0  0  0  0
    0.2657   -2.9206   -2.1944 O   0  0  0  0  0  0  0  0  0  0  0  0
   -2.6824   -1.6980    0.2159 N   0  0  1  0  0  0  0  0  0  0  0  0
    0.3057   -1.3664    1.1291 N   0  0  0  0  0  0  0  0  0  0  0  0
    0.5987    0.3348    2.6304 N   0  0  0  0  0  0  0  0  0  0  0  0
    2.0299   -1.1053   -0.9190 N   0  0  0  0  0  0  0  0  0  0  0  0
    4.2660   -0.5904   -0.3409 N   0  0  0  0  0  0  0  0  0  0  0  0
   -2.1719   -1.7683    1.5997 C   0  0  1  0  0  0  0  0  0  0  0  0
   -2.1455   -3.2718    1.9310 C   0  0  0  0  0  0  0  0  0  0  0  0
   -2.7150   -3.9607    0.6989 C   0  0  0  0  0  0  0  0  0  0  0  0
   -3.5317   -2.8745    0.0284 C   0  0  0  0  0  0  0  0  0  0  0  0
   -3.3919   -0.4582   -0.0724 C   0  0  0  0  0  0  0  0  0  0  0  0
   -0.8161   -1.1118    1.7540 C   0  0  0  0  0  0  0  0  0  0  0  0
   -2.4443    0.6778   -0.3528 C   0  0  0  0  0  0  0  0  0  0  0  0
   -2.4832    1.8290    0.4336 C   0  0  0  0  0  0  0  0  0  0  0  0
   -1.5272    0.5787   -1.3992 C   0  0  0  0  0  0  0  0  0  0  0  0
    1.1445   -0.4541    1.7000 C   0  0  0  0  0  0  0  0  0  0  0  0
   -0.6492    1.6309   -1.6591 C   0  0  0  0  0  0  0  0  0  0  0  0
   -1.6051    2.8813    0.1738 C   0  0  0  0  0  0  0  0  0  0  0  0
   -0.6882    2.7822   -0.8726 C   0  0  0  0  0  0  0  0  0  0  0  0
    2.5242   -0.3578    1.3194 C   0  0  0  0  0  0  0  0  0  0  0  0
    2.9733   -0.6713    0.0466 C   0  0  0  0  0  0  0  0  0  0  0  0
    3.4618    0.0662    2.2545 C   0  0  0  0  0  0  0  0  0  0  0  0
    4.8012    0.1623    1.8933 C   0  0  0  0  0  0  0  0  0  0  0  0
   -0.1840    1.9822   -3.9648 C   0  0  0  0  0  0  0  0  0  0  0  0
   -2.6211    4.0210    1.9971 C   0  0  0  0  0  0  0  0  0  0  0  0
    2.4043   -1.8322   -2.0873 C   0  0  0  0  0  0  0  0  0  0  0  0
    5.1486   -0.1745    0.5950 C   0  0  0  0  0  0  0  0  0  0  0  0
    1.4265    3.7869   -0.4551 C   0  0  0  0  0  0  0  0  0  0  0  0
    1.1774   -2.1198   -2.9359 C   0  0  0  0  0  0  0  0  0  0  0  0
   -0.8983   -3.2215   -2.9515 C   0  0  0  0  0  0  0  0  0  0  0  0
   -2.8748   -1.2926    2.2983 H   0  0  0  0  0  0  0  0  0  0  0  0
   -1.1483   -3.6585    2.1671 H   0  0  0  0  0  0  0  0  0  0  0  0
   -2.7941   -3.4701    2.7931 H   0  0  0  0  0  0  0  0  0  0  0  0
   -3.3155   -4.8381    0.9563 H   0  0  0  0  0  0  0  0  0  0  0  0
   -1.8968   -4.2878    0.0464 H   0  0  0  0  0  0  0  0  0  0  0  0
   -3.7049   -3.0950   -1.0293 H   0  0  0  0  0  0  0  0  0  0  0  0
   -4.5000   -2.7615    0.5323 H   0  0  0  0  0  0  0  0  0  0  0  0
   -4.1061   -0.2051    0.7220 H   0  0  0  0  0  0  0  0  0  0  0  0
   -3.9966   -0.5787   -0.9824 H   0  0  0  0  0  0  0  0  0  0  0  0
   -3.2148    1.8496    1.2340 H   0  0  0  0  0  0  0  0  0  0  0  0
   -1.4960   -0.3107   -2.0202 H   0  0  0  0  0  0  0  0  0  0  0  0
    3.1816    0.3214    3.2735 H   0  0  0  0  0  0  0  0  0  0  0  0
    1.0961   -0.7154   -0.8580 H   0  0  0  0  0  0  0  0  0  0  0  0
    5.5500    0.4888    2.6059 H   0  0  0  0  0  0  0  0  0  0  0  0
    0.6377    1.8362   -4.6711 H   0  0  0  0  0  0  0  0  0  0  0  0
   -0.4303    3.0481   -3.9290 H   0  0  0  0  0  0  0  0  0  0  0  0
   -1.0489    1.4071   -4.3103 H   0  0  0  0  0  0  0  0  0  0  0  0
   -2.5194    4.9833    2.5098 H   0  0  0  0  0  0  0  0  0  0  0  0
   -2.4241    3.2426    2.7423 H   0  0  0  0  0  0  0  0  0  0  0  0
   -3.6431    3.9767    1.6057 H   0  0  0  0  0  0  0  0  0  0  0  0
    3.1235   -1.2623   -2.6863 H   0  0  0  0  0  0  0  0  0  0  0  0
    2.8728   -2.7788   -1.7934 H   0  0  0  0  0  0  0  0  0  0  0  0
    6.1800   -0.1170    0.2633 H   0  0  0  0  0  0  0  0  0  0  0  0
    1.2840    3.8205    0.6297 H   0  0  0  0  0  0  0  0  0  0  0  0
    1.9935    2.8918   -0.7303 H   0  0  0  0  0  0  0  0  0  0  0  0
    1.9958    4.6689   -0.7606 H   0  0  0  0  0  0  0  0  0  0  0  0
    0.6885   -1.1856   -3.2338 H   0  0  0  0  0  0  0  0  0  0  0  0
    1.4809   -2.6581   -3.8413 H   0  0  0  0  0  0  0  0  0  0  0  0
   -0.6325   -3.7847   -3.8515 H   0  0  0  0  0  0  0  0  0  0  0  0
   -1.5586   -3.8414   -2.3411 H   0  0  0  0  0  0  0  0  0  0  0  0
   -1.4309   -2.3077   -3.2282 H   0  0  0  0  0  0  0  0  0  0  0  0
  1  8  1  0  0  0  0
  1 16  1  0  0  0  0
  2 21  1  0  0  0  0
  2 28  1  0  0  0  0
  3 22  1  0  0  0  0
  3 29  1  0  0  0  0
  4 23  1  0  0  0  0
  4 32  1  0  0  0  0
  5 33  1  0  0  0  0
  5 34  1  0  0  0  0
  6 11  1  0  0  0  0
  6 14  1  0  0  0  0
  6 15  1  0  0  0  0
  7 16  2  0  0  0  0
  7 20  1  0  0  0  0
  8 20  2  0  0  0  0
  9 25  1  0  0  0  0
  9 30  1  0  0  0  0
  9 47  1  0  0  0  0
 10 25  1  0  0  0  0
 10 31  2  0  0  0  0
 11 12  1  0  0  0  0
 11 16  1  0  0  0  0
 11 35  1  0  0  0  0
 12 13  1  0  0  0  0
 12 36  1  0  0  0  0
 12 37  1  0  0  0  0
 13 14  1  0  0  0  0
 13 38  1  0  0  0  0
 13 39  1  0  0  0  0
 14 40  1  0  0  0  0
 14 41  1  0  0  0  0
 15 17  1  0  0  0  0
 15 42  1  0  0  0  0
 15 43  1  0  0  0  0
 17 18  2  0  0  0  0
 17 19  1  0  0  0  0
 18 22  1  0  0  0  0
 18 44  1  0  0  0  0
 19 21  2  0  0  0  0
 19 45  1  0  0  0  0
 20 24  1  0  0  0  0
 21 23  1  0  0  0  0
 22 23  2  0  0  0  0
 24 25  2  0  0  0  0
 24 26  1  0  0  0  0
 26 27  2  0  0  0  0
 26 46  1  0  0  0  0
 27 31  1  0  0  0  0
 27 48  1  0  0  0  0
 28 49  1  0  0  0  0
 28 50  1  0  0  0  0
 28 51  1  0  0  0  0
 29 52  1  0  0  0  0
 29 53  1  0  0  0  0
 29 54  1  0  0  0  0
 30 33  1  0  0  0  0
 30 55  1  0  0  0  0
 30 56  1  0  0  0  0
 31 57  1  0  0  0  0
 32 58  1  0  0  0  0
 32 59  1  0  0  0  0
 32 60  1  0  0  0  0
 33 61  1  0  0  0  0
 33 62  1  0  0  0  0
 34 63  1  0  0  0  0
 34 64  1  0  0  0  0
 34 65  1  0  0  0  0
M  END
> <PUBCHEM_COMPOUND_CID>
45783395

> <PUBCHEM_CONFORMER_RMSD>
1.2

> <PUBCHEM_CONFORMER_DIVERSEORDER>
1
22
60
38
64
65
4
66
43
49
71
30
41
7
51
3
68
11
56
5
55
34
67
40
17
63
31
23
54
20
46
62
50
48
42
47
52
35
16
45
59
70
37
33
21
24
44
14
18
28
58
32
25
53
9
12
2
57
29
10
39
8
61
15
69
6
36
19
13
26
27

> <PUBCHEM_MMFF94_PARTIAL_CHARGES>
38
1 -0.02
10 -0.62
11 0.45
14 0.27
15 0.41
16 0.3
17 -0.14
18 -0.15
19 -0.15
2 -0.36
20 0.46
21 0.08
22 0.08
23 0.08
24 0.05
25 0.41
26 -0.15
27 -0.15
28 0.28
29 0.28
3 -0.36
30 0.37
31 0.16
32 0.28
33 0.28
34 0.28
4 -0.36
44 0.15
45 0.15
46 0.15
47 0.4
48 0.15
5 -0.56
57 0.15
6 -0.81
7 -0.57
8 -0.41
9 -0.87

> <PUBCHEM_EFFECTIVE_ROTOR_COUNT>
12

> <PUBCHEM_PHARMACOPHORE_FEATURES>
13
1 10 acceptor
1 2 acceptor
1 3 acceptor
1 4 acceptor
1 5 acceptor
1 6 cation
1 9 cation
1 9 donor
3 7 8 20 cation
5 1 7 8 16 20 rings
5 6 11 12 13 14 rings
6 10 24 25 26 27 31 rings
6 17 18 19 21 22 23 rings

> <PUBCHEM_HEAVY_ATOM_COUNT>
34

> <PUBCHEM_ATOM_DEF_STEREO_COUNT>
1

> <PUBCHEM_ATOM_UDEF_STEREO_COUNT>
0

> <PUBCHEM_BOND_DEF_STEREO_COUNT>
0

> <PUBCHEM_BOND_UDEF_STEREO_COUNT>
0

> <PUBCHEM_ISOTOPIC_ATOM_COUNT>
0

> <PUBCHEM_COMPONENT_COUNT>
1

> <PUBCHEM_CACTVS_TAUTO_COUNT>
8

> <PUBCHEM_CONFORMER_ID>
02BA996300000001

> <PUBCHEM_MMFF94_ENERGY>
113.2463

> <PUBCHEM_FEATURE_SELFOVERLAP>
65.983

> <PUBCHEM_SHAPE_FINGERPRINT>
10165383 225 17401228676079297765
1100329 8 18260826034094497745
11578080 2 17698198117015019436
11607047 403 17632019620779191273
12156800 1 17769136472529962241
12655364 131 15470651519969007660
133893 2 17391657831223363041
15876981 60 17968100858687528646
20600515 1 18186516588481399863
20905425 154 17682973445719194479
23419403 2 16811761105199534702
23557571 272 18409731772267016794
27425 322 17841441327582381368
3411729 13 11741913951866442763
35225 105 17829285234441478758
469060 322 17910642648636528374

> <PUBCHEM_SHAPE_MULTIPOLES>
645.45
6.32
5.37
3.56
6.95
3.5
-2.42
-3.24
3.32
-4.75
-0.77
0.56
-0.57
0.21

> <PUBCHEM_SHAPE_SELFOVERLAP>
1373.283

> <PUBCHEM_SHAPE_VOLUME>
362.8

> <PUBCHEM_COORDINATE_TYPE>
2
5
10

$$$$
