7155412
  -OEChem-12032416253D

 54 58  0     1  0  0  0  0  0999 V2000
   -3.0754    0.8325   -3.0435 O   0  0  0  0  0  0  0  0  0  0  0  0
   -0.7061    3.7597    0.3577 O   0  0  0  0  0  0  0  0  0  0  0  0
    4.8859    1.1117   -0.5482 O   0  0  0  0  0  0  0  0  0  0  0  0
   -1.1617    1.7358    1.4362 N   0  0  0  0  0  0  0  0  0  0  0  0
   -2.4317    0.0681   -0.9252 N   0  0  0  0  0  0  0  0  0  0  0  0
   -3.5147    0.9783    1.2154 C   0  0  1  0  0  0  0  0  0  0  0  0
   -1.7101   -0.6877    1.3606 C   0  0  2  0  0  0  0  0  0  0  0  0
   -3.1376   -0.3723    1.8058 C   0  0  0  0  0  0  0  0  0  0  0  0
   -2.5564    2.0736    1.7131 C   0  0  0  0  0  0  0  0  0  0  0  0
   -3.5072    0.8600   -0.3099 C   0  0  0  0  0  0  0  0  0  0  0  0
   -0.7513    0.3997    1.8925 C   0  0  0  0  0  0  0  0  0  0  0  0
   -1.6025   -0.7794   -0.1636 C   0  0  0  0  0  0  0  0  0  0  0  0
   -0.7272   -1.6102   -0.7876 C   0  0  0  0  0  0  0  0  0  0  0  0
   -2.3677    0.1221   -2.3288 C   0  0  0  0  0  0  0  0  0  0  0  0
   -0.3599    2.6423    0.7382 C   0  0  0  0  0  0  0  0  0  0  0  0
   -0.6302   -1.5788   -2.2344 C   0  0  0  0  0  0  0  0  0  0  0  0
   -1.3770   -0.7647   -2.9801 C   0  0  0  0  0  0  0  0  0  0  0  0
    0.1448   -2.5345   -0.0296 C   0  0  0  0  0  0  0  0  0  0  0  0
    1.0116    2.2414    0.4029 C   0  0  0  0  0  0  0  0  0  0  0  0
    1.3974   -2.1066    0.3996 C   0  0  0  0  0  0  0  0  0  0  0  0
   -0.2937   -3.8254    0.2495 C   0  0  0  0  0  0  0  0  0  0  0  0
    1.2678    1.5918   -0.8021 C   0  0  0  0  0  0  0  0  0  0  0  0
    2.0502    2.5128    1.2900 C   0  0  0  0  0  0  0  0  0  0  0  0
    2.2194   -2.9777    1.1147 C   0  0  0  0  0  0  0  0  0  0  0  0
    0.5281   -4.6964    0.9646 C   0  0  0  0  0  0  0  0  0  0  0  0
    2.5712    1.2112   -1.1218 C   0  0  0  0  0  0  0  0  0  0  0  0
    3.3535    2.1323    0.9702 C   0  0  0  0  0  0  0  0  0  0  0  0
    1.7847   -4.2726    1.3972 C   0  0  0  0  0  0  0  0  0  0  0  0
    3.6140    1.4814   -0.2356 C   0  0  0  0  0  0  0  0  0  0  0  0
    5.0818    0.4517   -1.7980 C   0  0  0  0  0  0  0  0  0  0  0  0
   -4.5269    1.2518    1.5379 H   0  0  0  0  0  0  0  0  0  0  0  0
   -1.4378   -1.6410    1.8267 H   0  0  0  0  0  0  0  0  0  0  0  0
   -3.8316   -1.1519    1.4676 H   0  0  0  0  0  0  0  0  0  0  0  0
   -3.1988   -0.3409    2.9006 H   0  0  0  0  0  0  0  0  0  0  0  0
   -2.8190    3.0382    1.2660 H   0  0  0  0  0  0  0  0  0  0  0  0
   -2.6483    2.1860    2.8004 H   0  0  0  0  0  0  0  0  0  0  0  0
   -4.4428    0.3781   -0.6261 H   0  0  0  0  0  0  0  0  0  0  0  0
   -3.5149    1.8570   -0.7688 H   0  0  0  0  0  0  0  0  0  0  0  0
   -0.7846    0.4188    2.9891 H   0  0  0  0  0  0  0  0  0  0  0  0
    0.2811    0.1845    1.6181 H   0  0  0  0  0  0  0  0  0  0  0  0
    0.0890   -2.2348   -2.7158 H   0  0  0  0  0  0  0  0  0  0  0  0
   -1.2931   -0.7430   -4.0601 H   0  0  0  0  0  0  0  0  0  0  0  0
    1.7562   -1.1078    0.1880 H   0  0  0  0  0  0  0  0  0  0  0  0
   -1.2708   -4.1691   -0.0806 H   0  0  0  0  0  0  0  0  0  0  0  0
    0.4646    1.3900   -1.5041 H   0  0  0  0  0  0  0  0  0  0  0  0
    1.8573    3.0188    2.2323 H   0  0  0  0  0  0  0  0  0  0  0  0
    3.1981   -2.6477    1.4505 H   0  0  0  0  0  0  0  0  0  0  0  0
    0.1897   -5.7046    1.1849 H   0  0  0  0  0  0  0  0  0  0  0  0
    2.7026    0.7111   -2.0752 H   0  0  0  0  0  0  0  0  0  0  0  0
    4.1617    2.3453    1.6645 H   0  0  0  0  0  0  0  0  0  0  0  0
    2.4247   -4.9508    1.9539 H   0  0  0  0  0  0  0  0  0  0  0  0
    6.1507    0.2298   -1.8825 H   0  0  0  0  0  0  0  0  0  0  0  0
    4.8223    1.1012   -2.6410 H   0  0  0  0  0  0  0  0  0  0  0  0
    4.5524   -0.5065   -1.8339 H   0  0  0  0  0  0  0  0  0  0  0  0
  1 14  2  0  0  0  0
  2 15  2  0  0  0  0
  3 29  1  0  0  0  0
  3 30  1  0  0  0  0
  4  9  1  0  0  0  0
  4 11  1  0  0  0  0
  4 15  1  0  0  0  0
  5 10  1  0  0  0  0
  5 12  1  0  0  0  0
  5 14  1  0  0  0  0
  6  8  1  0  0  0  0
  6  9  1  0  0  0  0
  6 10  1  0  0  0  0
  6 31  1  0  0  0  0
  7  8  1  0  0  0  0
  7 11  1  0  0  0  0
  7 12  1  0  0  0  0
  7 32  1  0  0  0  0
  8 33  1  0  0  0  0
  8 34  1  0  0  0  0
  9 35  1  0  0  0  0
  9 36  1  0  0  0  0
 10 37  1  0  0  0  0
 10 38  1  0  0  0  0
 11 39  1  0  0  0  0
 11 40  1  0  0  0  0
 12 13  2  0  0  0  0
 13 16  1  0  0  0  0
 13 18  1  0  0  0  0
 14 17  1  0  0  0  0
 15 19  1  0  0  0  0
 16 17  2  0  0  0  0
 16 41  1  0  0  0  0
 17 42  1  0  0  0  0
 18 20  2  0  0  0  0
 18 21  1  0  0  0  0
 19 22  2  0  0  0  0
 19 23  1  0  0  0  0
 20 24  1  0  0  0  0
 20 43  1  0  0  0  0
 21 25  2  0  0  0  0
 21 44  1  0  0  0  0
 22 26  1  0  0  0  0
 22 45  1  0  0  0  0
 23 27  2  0  0  0  0
 23 46  1  0  0  0  0
 24 28  2  0  0  0  0
 24 47  1  0  0  0  0
 25 28  1  0  0  0  0
 25 48  1  0  0  0  0
 26 29  2  0  0  0  0
 26 49  1  0  0  0  0
 27 29  1  0  0  0  0
 27 50  1  0  0  0  0
 28 51  1  0  0  0  0
 30 52  1  0  0  0  0
 30 53  1  0  0  0  0
 30 54  1  0  0  0  0
M  END
> <PUBCHEM_COMPOUND_CID>
7155412

> <PUBCHEM_CONFORMER_RMSD>
0.8

> <PUBCHEM_CONFORMER_DIVERSEORDER>
1
4
3
2

> <PUBCHEM_MMFF94_PARTIAL_CHARGES>
39
1 -0.57
10 0.3
11 0.3
12 -0.03
13 -0.03
14 0.62
15 0.54
16 -0.15
17 -0.14
18 0.03
19 0.09
2 -0.57
20 -0.15
21 -0.15
22 -0.15
23 -0.15
24 -0.15
25 -0.15
26 -0.15
27 -0.15
28 -0.15
29 0.08
3 -0.36
30 0.28
4 -0.66
41 0.15
42 0.15
43 0.15
44 0.15
45 0.15
46 0.15
47 0.15
48 0.15
49 0.15
5 -0.47
50 0.15
51 0.15
7 0.14
9 0.3

> <PUBCHEM_EFFECTIVE_ROTOR_COUNT>
5

> <PUBCHEM_PHARMACOPHORE_FEATURES>
8
1 1 acceptor
1 2 acceptor
1 3 acceptor
6 18 20 21 24 25 28 rings
6 19 22 23 26 27 29 rings
6 4 6 7 8 9 11 rings
6 5 12 13 14 16 17 rings
6 5 6 7 8 10 12 rings

> <PUBCHEM_HEAVY_ATOM_COUNT>
30

> <PUBCHEM_ATOM_DEF_STEREO_COUNT>
2

> <PUBCHEM_ATOM_UDEF_STEREO_COUNT>
0

> <PUBCHEM_BOND_DEF_STEREO_COUNT>
0

> <PUBCHEM_BOND_UDEF_STEREO_COUNT>
0

> <PUBCHEM_ISOTOPIC_ATOM_COUNT>
0

> <PUBCHEM_COMPONENT_COUNT>
1

> <PUBCHEM_CACTVS_TAUTO_COUNT>
1

> <PUBCHEM_CONFORMER_ID>
006D2ED400000001

> <PUBCHEM_MMFF94_ENERGY>
101.3377

> <PUBCHEM_FEATURE_SELFOVERLAP>
42.182

> <PUBCHEM_SHAPE_FINGERPRINT>
10165383 225 18115326560436088710
10190108 129 18119527885425855879
10721379 63 17548640436486432783
10764073 3 17696229097911965331
11578080 2 17170414904683534253
12035759 4 17774992493218936261
12156800 1 12958334623213037180
12422481 6 17123387586010806441
12539773 59 17703234987960157898
131258 38 16744298022588352267
133893 2 18265598901953084831
15274700 242 18334300864561778880
17980427 23 17481699754926507129
20775530 9 16749589357888578266
20905425 154 17908734763506302800
21330990 113 17756693493049656607
23419403 2 17678460745140552431
35225 105 17759275119964315606
404807 14 14324747897138098996
469060 322 17461719790055836362
513532 50 15907078467216178069
57527306 92 17631474352551506721
57527585 103 17834389395388237958

> <PUBCHEM_SHAPE_MULTIPOLES>
589.82
6.16
5.16
2.52
5.37
5.53
1.85
-3.88
1.35
2.53
-2.83
-1.67
0.05
-0.98

> <PUBCHEM_SHAPE_SELFOVERLAP>
1304.519

> <PUBCHEM_SHAPE_VOLUME>
310.7

> <PUBCHEM_COORDINATE_TYPE>
2
5
10

$$$$
