40586265
  -OEChem-12032416353D

 57 60  0     1  0  0  0  0  0999 V2000
   -0.7324    1.4531    1.2722 O   0  0  0  0  0  0  0  0  0  0  0  0
   -1.8289    2.6236   -1.3415 O   0  0  0  0  0  0  0  0  0  0  0  0
    1.5014    1.7544   -0.3482 O   0  0  0  0  0  0  0  0  0  0  0  0
   -5.6323    0.7020   -0.2601 O   0  0  0  0  0  0  0  0  0  0  0  0
    2.2070   -0.2445   -1.2061 O   0  0  0  0  0  0  0  0  0  0  0  0
    8.3348   -1.8330    0.3706 O   0  0  0  0  0  0  0  0  0  0  0  0
   -3.6494    0.3816    0.9179 N   0  0  0  0  0  0  0  0  0  0  0  0
    3.6036    1.0850    0.1213 N   0  0  0  0  0  0  0  0  0  0  0  0
   -2.0882    1.3722   -0.6716 C   0  0  1  0  0  0  0  0  0  0  0  0
   -0.7765    0.9202   -0.0620 C   0  0  1  0  0  0  0  0  0  0  0  0
   -2.9841    1.5994    0.5237 C   0  0  2  0  0  0  0  0  0  0  0  0
    0.2442    1.5762   -0.9606 C   0  0  1  0  0  0  0  0  0  0  0  0
   -1.9971    2.0579    1.5834 C   0  0  0  0  0  0  0  0  0  0  0  0
   -0.4204    2.8939   -1.2897 C   0  0  0  0  0  0  0  0  0  0  0  0
   -5.3659   -1.2922    1.0284 C   0  0  0  0  0  0  0  0  0  0  0  0
   -6.8820   -1.3244    1.2318 C   0  0  0  0  0  0  0  0  0  0  0  0
   -4.8658   -2.4206    0.1241 C   0  0  0  0  0  0  0  0  0  0  0  0
   -4.9222    0.0369    0.4895 C   0  0  0  0  0  0  0  0  0  0  0  0
   -7.6669   -1.4837   -0.0699 C   0  0  0  0  0  0  0  0  0  0  0  0
   -5.6672   -2.5503   -1.1701 C   0  0  0  0  0  0  0  0  0  0  0  0
   -7.1628   -2.6607   -0.8970 C   0  0  0  0  0  0  0  0  0  0  0  0
    2.4356    0.7575   -0.5397 C   0  0  0  0  0  0  0  0  0  0  0  0
    4.8052    0.3434    0.1844 C   0  0  0  0  0  0  0  0  0  0  0  0
    5.8915    0.8367    0.9071 C   0  0  0  0  0  0  0  0  0  0  0  0
    4.9050   -0.8813   -0.4757 C   0  0  0  0  0  0  0  0  0  0  0  0
    7.0776    0.1054    0.9696 C   0  0  0  0  0  0  0  0  0  0  0  0
    6.0910   -1.6126   -0.4133 C   0  0  0  0  0  0  0  0  0  0  0  0
    7.1773   -1.1193    0.3093 C   0  0  0  0  0  0  0  0  0  0  0  0
    8.3679   -3.0769   -0.3278 C   0  0  0  0  0  0  0  0  0  0  0  0
   -2.4847    0.6731   -1.4149 H   0  0  0  0  0  0  0  0  0  0  0  0
   -0.6666   -0.1658    0.0099 H   0  0  0  0  0  0  0  0  0  0  0  0
   -3.7419    2.3697    0.3444 H   0  0  0  0  0  0  0  0  0  0  0  0
    0.3231    1.0086   -1.8981 H   0  0  0  0  0  0  0  0  0  0  0  0
   -1.8542    3.1433    1.5409 H   0  0  0  0  0  0  0  0  0  0  0  0
   -2.2866    1.7890    2.6039 H   0  0  0  0  0  0  0  0  0  0  0  0
   -0.2343    3.6564   -0.5250 H   0  0  0  0  0  0  0  0  0  0  0  0
   -0.0886    3.2990   -2.2505 H   0  0  0  0  0  0  0  0  0  0  0  0
   -3.1260   -0.2785    1.4861 H   0  0  0  0  0  0  0  0  0  0  0  0
   -4.9064   -1.4181    2.0184 H   0  0  0  0  0  0  0  0  0  0  0  0
   -7.2217   -0.4200    1.7512 H   0  0  0  0  0  0  0  0  0  0  0  0
   -7.1269   -2.1706    1.8870 H   0  0  0  0  0  0  0  0  0  0  0  0
   -4.9388   -3.3678    0.6742 H   0  0  0  0  0  0  0  0  0  0  0  0
   -3.8058   -2.2839   -0.1221 H   0  0  0  0  0  0  0  0  0  0  0  0
   -7.6267   -0.5691   -0.6695 H   0  0  0  0  0  0  0  0  0  0  0  0
   -8.7257   -1.6403    0.1692 H   0  0  0  0  0  0  0  0  0  0  0  0
   -5.3294   -3.4356   -1.7211 H   0  0  0  0  0  0  0  0  0  0  0  0
   -5.4739   -1.6850   -1.8153 H   0  0  0  0  0  0  0  0  0  0  0  0
   -7.3697   -3.5975   -0.3651 H   0  0  0  0  0  0  0  0  0  0  0  0
   -7.7092   -2.7055   -1.8458 H   0  0  0  0  0  0  0  0  0  0  0  0
    3.6022    1.9680    0.6260 H   0  0  0  0  0  0  0  0  0  0  0  0
    5.8270    1.7897    1.4261 H   0  0  0  0  0  0  0  0  0  0  0  0
    4.1060   -1.3250   -1.0535 H   0  0  0  0  0  0  0  0  0  0  0  0
    7.9205    0.4946    1.5342 H   0  0  0  0  0  0  0  0  0  0  0  0
    6.1014   -2.5560   -0.9488 H   0  0  0  0  0  0  0  0  0  0  0  0
    9.3618   -3.5087   -0.1717 H   0  0  0  0  0  0  0  0  0  0  0  0
    8.2466   -2.9359   -1.4071 H   0  0  0  0  0  0  0  0  0  0  0  0
    7.6426   -3.7880    0.0822 H   0  0  0  0  0  0  0  0  0  0  0  0
  1 10  1  0  0  0  0
  1 13  1  0  0  0  0
  2  9  1  0  0  0  0
  2 14  1  0  0  0  0
  3 12  1  0  0  0  0
  3 22  1  0  0  0  0
  4 18  2  0  0  0  0
  5 22  2  0  0  0  0
  6 28  1  0  0  0  0
  6 29  1  0  0  0  0
  7 11  1  0  0  0  0
  7 18  1  0  0  0  0
  7 38  1  0  0  0  0
  8 22  1  0  0  0  0
  8 23  1  0  0  0  0
  8 50  1  0  0  0  0
  9 10  1  0  0  0  0
  9 11  1  0  0  0  0
  9 30  1  0  0  0  0
 10 12  1  0  0  0  0
 10 31  1  0  0  0  0
 11 13  1  0  0  0  0
 11 32  1  0  0  0  0
 12 14  1  0  0  0  0
 12 33  1  0  0  0  0
 13 34  1  0  0  0  0
 13 35  1  0  0  0  0
 14 36  1  0  0  0  0
 14 37  1  0  0  0  0
 15 16  1  0  0  0  0
 15 17  1  0  0  0  0
 15 18  1  0  0  0  0
 15 39  1  0  0  0  0
 16 19  1  0  0  0  0
 16 40  1  0  0  0  0
 16 41  1  0  0  0  0
 17 20  1  0  0  0  0
 17 42  1  0  0  0  0
 17 43  1  0  0  0  0
 19 21  1  0  0  0  0
 19 44  1  0  0  0  0
 19 45  1  0  0  0  0
 20 21  1  0  0  0  0
 20 46  1  0  0  0  0
 20 47  1  0  0  0  0
 21 48  1  0  0  0  0
 21 49  1  0  0  0  0
 23 24  2  0  0  0  0
 23 25  1  0  0  0  0
 24 26  1  0  0  0  0
 24 51  1  0  0  0  0
 25 27  2  0  0  0  0
 25 52  1  0  0  0  0
 26 28  2  0  0  0  0
 26 53  1  0  0  0  0
 27 28  1  0  0  0  0
 27 54  1  0  0  0  0
 29 55  1  0  0  0  0
 29 56  1  0  0  0  0
 29 57  1  0  0  0  0
M  END
> <PUBCHEM_COMPOUND_CID>
40586265

> <PUBCHEM_CONFORMER_RMSD>
1

> <PUBCHEM_CONFORMER_DIVERSEORDER>
1
83
36
48
78
23
11
87
16
80
30
29
57
88
15
3
55
54
94
97
40
101
59
89
96
75
105
86
76
65
70
35
14
63
44
32
28
69
42
71
73
50
33
99
37
58
46
90
51
34
98
62
77
61
49
104
20
47
9
81
6
39
10
84
24
106
22
74
95
25
100
52
7
72
8
67
2
4
103
26
56
92
27
5
41
66
64
93
60
45
21
18
17
107
68
38
53
82
12
102
85
19
79
91
31
43
13

> <PUBCHEM_MMFF94_PARTIAL_CHARGES>
30
1 -0.56
10 0.28
11 0.3
12 0.28
13 0.28
14 0.28
15 0.06
18 0.57
2 -0.56
22 0.78
23 0.12
24 -0.15
25 -0.15
26 -0.15
27 -0.15
28 0.08
29 0.28
3 -0.43
38 0.37
4 -0.57
5 -0.57
50 0.37
51 0.15
52 0.15
53 0.15
54 0.15
6 -0.36
7 -0.73
8 -0.55
9 0.28

> <PUBCHEM_EFFECTIVE_ROTOR_COUNT>
10.4

> <PUBCHEM_PHARMACOPHORE_FEATURES>
11
1 1 acceptor
1 2 acceptor
1 4 acceptor
1 5 acceptor
1 6 acceptor
1 7 donor
1 8 donor
5 1 9 10 11 13 rings
5 2 9 10 12 14 rings
6 15 16 17 19 20 21 rings
6 23 24 25 26 27 28 rings

> <PUBCHEM_HEAVY_ATOM_COUNT>
29

> <PUBCHEM_ATOM_DEF_STEREO_COUNT>
4

> <PUBCHEM_ATOM_UDEF_STEREO_COUNT>
0

> <PUBCHEM_BOND_DEF_STEREO_COUNT>
0

> <PUBCHEM_BOND_UDEF_STEREO_COUNT>
0

> <PUBCHEM_ISOTOPIC_ATOM_COUNT>
0

> <PUBCHEM_COMPONENT_COUNT>
1

> <PUBCHEM_CACTVS_TAUTO_COUNT>
4

> <PUBCHEM_CONFORMER_ID>
026B4C1900000001

> <PUBCHEM_MMFF94_ENERGY>
79.9169

> <PUBCHEM_FEATURE_SELFOVERLAP>
56.54

> <PUBCHEM_SHAPE_FINGERPRINT>
10 15 13542474167889607743
10369192 42 8502659212369592705
10554248 39 13046209538763650104
11103572 95 17916876712215157591
11963148 33 18188485762595225722
11991303 11 14490481931957718361
12522641 68 17464802486170202285
12838863 1 18271238430843330271
12895837 130 8574416630467800952
13668630 136 17967533480005412770
13782708 43 18411417298302414016
13885169 86 11024106568564184979
14068700 675 18412548729863792681
14428016 167 18336825300040752722
14556957 393 15430328975202156894
14931854 50 16443061686420982864
15183329 4 13406787826629287460
15188451 53 18410856572693678496
15352257 5 18343302574162512986
15510800 12 18115038479768431387
15728490 51 18271524295038226662
16126227 98 10087640412032543095
16992779 147 16700594914023809824
16993089 31 18198911319080479894
16994733 274 10087634888868046798
18603816 31 17916859236431093655
190975 80 18201718487760367944
20028762 73 18412547626099538470
2026 5 18408039624484377275
21033648 29 14116702899146784745
21130935 74 18270680845535468394
21298829 104 9511457827813465426
21307412 95 17603591863279755555
21424621 283 10519988162372233804
21756936 100 10231748977490829313
22224240 67 14189581840855104125
229767 44 18059011799597115151
23389318 12 17894639184369668308
23522609 53 18047508648786521300
255183 313 16200148820158685317
2838139 119 10665217173006947059
3014063 24 18408603686142315630
32027 91 18117282660726351521
3383291 50 18260268581003494227
3504750 166 18410857616619151393
3627633 1 18261672567126708877
38570 142 9079126552852206429
392239 28 17560809869963579779
397830 11 17489594454245366460
406291 66 18409448098188247378
4339292 15 17822005381899100690
4516262 110 10303543767075166969
5104073 3 17059511607558930656
559249 180 18408888447850461769
5718773 13 18407760339502254002
5758199 1 11095891471123373893
5776283 40 8214135248637505846
5937810 71 11097860661741368926
59682541 52 14562524090173326896
5969126 39 18113612387644203381
6126387 218 18060419115320854889
636775 72 9799392422515947206
636775 8 18267593417127572046
6691757 9 15267044931615122516
6712543 237 16917076563919936183
96874 4 18341047514516272271
9689198 14 9367352552331763265
9896288 288 17773887389058476777
9962374 69 18260829315834458020
9980921 221 14996554049979491335

> <PUBCHEM_SHAPE_MULTIPOLES>
551.63
26
3.32
1.26
21.45
0.73
-0.05
28.19
-3.38
-1.19
0.9
-0.89
-0.37
-0.22

> <PUBCHEM_SHAPE_SELFOVERLAP>
1173.445

> <PUBCHEM_SHAPE_VOLUME>
305.7

> <PUBCHEM_COORDINATE_TYPE>
2
5
10

$$$$
