40777964
  -OEChem-12032416253D

 46 48  0     1  0  0  0  0  0999 V2000
   -2.2922    1.0088    0.9128 O   0  0  0  0  0  0  0  0  0  0  0  0
   -4.4778    2.4468   -0.6396 O   0  0  0  0  0  0  0  0  0  0  0  0
   -5.1698   -0.2067   -0.8597 O   0  0  0  0  0  0  0  0  0  0  0  0
    0.2770    2.0016    0.9696 O   0  0  0  0  0  0  0  0  0  0  0  0
   -0.3396   -0.9534    2.0626 O   0  0  0  0  0  0  0  0  0  0  0  0
   -0.0635   -3.0029   -0.8173 O   0  0  0  0  0  0  0  0  0  0  0  0
   -2.0076   -1.8068    0.6941 N   0  0  0  0  0  0  0  0  0  0  0  0
    1.4438    1.1487   -0.8821 N   0  0  0  0  0  0  0  0  0  0  0  0
   -3.4711    1.5382   -1.0842 C   0  0  2  0  0  0  0  0  0  0  0  0
   -3.8128    0.1255   -0.6580 C   0  0  1  0  0  0  0  0  0  0  0  0
   -2.2010    1.8120   -0.2861 C   0  0  2  0  0  0  0  0  0  0  0  0
   -3.4457    0.1549    0.8162 C   0  0  1  0  0  0  0  0  0  0  0  0
   -0.9334    1.4045   -1.0247 C   0  0  0  0  0  0  0  0  0  0  0  0
   -3.1166   -1.2150    1.3821 C   0  0  0  0  0  0  0  0  0  0  0  0
    0.3186    1.5629   -0.1751 C   0  0  0  0  0  0  0  0  0  0  0  0
   -0.6866   -1.6262    1.0953 C   0  0  0  0  0  0  0  0  0  0  0  0
    2.7875    1.1418   -0.4380 C   0  0  0  0  0  0  0  0  0  0  0  0
    0.3501   -2.2854    0.2603 C   0  0  0  0  0  0  0  0  0  0  0  0
    3.7995    0.6897   -1.2848 C   0  0  0  0  0  0  0  0  0  0  0  0
    3.0998    1.5867    0.8464 C   0  0  0  0  0  0  0  0  0  0  0  0
    1.7214   -2.3160    0.3638 C   0  0  0  0  0  0  0  0  0  0  0  0
    5.1240    0.6825   -0.8471 C   0  0  0  0  0  0  0  0  0  0  0  0
    4.4242    1.5796    1.2842 C   0  0  0  0  0  0  0  0  0  0  0  0
    2.1799   -3.1025   -0.7199 C   0  0  0  0  0  0  0  0  0  0  0  0
    1.0560   -3.4967   -1.4082 C   0  0  0  0  0  0  0  0  0  0  0  0
    5.4362    1.1275    0.4374 C   0  0  0  0  0  0  0  0  0  0  0  0
   -3.3674    1.6545   -2.1668 H   0  0  0  0  0  0  0  0  0  0  0  0
   -3.1962   -0.5821   -1.2225 H   0  0  0  0  0  0  0  0  0  0  0  0
   -2.1324    2.8591    0.0306 H   0  0  0  0  0  0  0  0  0  0  0  0
   -4.2510    0.6006    1.4134 H   0  0  0  0  0  0  0  0  0  0  0  0
   -0.8179    2.0114   -1.9303 H   0  0  0  0  0  0  0  0  0  0  0  0
   -0.9854    0.3517   -1.3274 H   0  0  0  0  0  0  0  0  0  0  0  0
   -3.9707   -1.8931    1.2874 H   0  0  0  0  0  0  0  0  0  0  0  0
   -2.8605   -1.1272    2.4438 H   0  0  0  0  0  0  0  0  0  0  0  0
   -4.1984    3.3407   -0.9014 H   0  0  0  0  0  0  0  0  0  0  0  0
   -5.3637   -0.0815   -1.8043 H   0  0  0  0  0  0  0  0  0  0  0  0
   -2.1993   -2.3819   -0.1215 H   0  0  0  0  0  0  0  0  0  0  0  0
    1.3022    0.8071   -1.8304 H   0  0  0  0  0  0  0  0  0  0  0  0
    3.5695    0.3391   -2.2876 H   0  0  0  0  0  0  0  0  0  0  0  0
    2.3727    1.9495    1.5591 H   0  0  0  0  0  0  0  0  0  0  0  0
    2.3202   -1.8340    1.1235 H   0  0  0  0  0  0  0  0  0  0  0  0
    5.9119    0.3300   -1.5062 H   0  0  0  0  0  0  0  0  0  0  0  0
    4.6688    1.9253    2.2844 H   0  0  0  0  0  0  0  0  0  0  0  0
    3.2016   -3.3501   -0.9684 H   0  0  0  0  0  0  0  0  0  0  0  0
    0.8923   -4.0970   -2.2912 H   0  0  0  0  0  0  0  0  0  0  0  0
    6.4673    1.1217    0.7784 H   0  0  0  0  0  0  0  0  0  0  0  0
  1 11  1  0  0  0  0
  1 12  1  0  0  0  0
  2  9  1  0  0  0  0
  2 35  1  0  0  0  0
  3 10  1  0  0  0  0
  3 36  1  0  0  0  0
  4 15  2  0  0  0  0
  5 16  2  0  0  0  0
  6 18  1  0  0  0  0
  6 25  1  0  0  0  0
  7 14  1  0  0  0  0
  7 16  1  0  0  0  0
  7 37  1  0  0  0  0
  8 15  1  0  0  0  0
  8 17  1  0  0  0  0
  8 38  1  0  0  0  0
  9 10  1  0  0  0  0
  9 11  1  0  0  0  0
  9 27  1  0  0  0  0
 10 12  1  0  0  0  0
 10 28  1  0  0  0  0
 11 13  1  0  0  0  0
 11 29  1  0  0  0  0
 12 14  1  0  0  0  0
 12 30  1  0  0  0  0
 13 15  1  0  0  0  0
 13 31  1  0  0  0  0
 13 32  1  0  0  0  0
 14 33  1  0  0  0  0
 14 34  1  0  0  0  0
 16 18  1  0  0  0  0
 17 19  2  0  0  0  0
 17 20  1  0  0  0  0
 18 21  2  0  0  0  0
 19 22  1  0  0  0  0
 19 39  1  0  0  0  0
 20 23  2  0  0  0  0
 20 40  1  0  0  0  0
 21 24  1  0  0  0  0
 21 41  1  0  0  0  0
 22 26  2  0  0  0  0
 22 42  1  0  0  0  0
 23 26  1  0  0  0  0
 23 43  1  0  0  0  0
 24 25  2  0  0  0  0
 24 44  1  0  0  0  0
 25 45  1  0  0  0  0
 26 46  1  0  0  0  0
M  END
> <PUBCHEM_COMPOUND_CID>
40777964

> <PUBCHEM_CONFORMER_RMSD>
1

> <PUBCHEM_CONFORMER_DIVERSEORDER>
1
132
26
47
2
112
95
136
141
49
27
29
62
4
102
13
147
41
87
151
165
60
169
40
149
80
185
133
93
97
3
51
86
131
108
79
167
160
178
157
116
98
105
128
43
23
152
73
148
129
138
92
124
107
36
137
19
30
150
18
50
12
120
7
117
55
134
159
81
42
31
57
71
172
176
113
166
83
52
182
181
77
101
154
74
75
163
109
125
104
91
121
158
135
25
122
6
173
35
115
15
164
16
126
183
82
140
184
11
96
17
94
32
175
85
88
145
63
127
84
89
143
155
180
58
177
162
34
64
53
70
168
170
68
118
106
67
39
123
72
187
37
144
103
66
76
153
21
186
78
8
99
111
10
142
38
48
22
20
44
171
174
119
24
33
46
9
65
114
156
28
14
139
130
179
54
5
90
146
61
45
100
59
161
56
110
69

> <PUBCHEM_MMFF94_PARTIAL_CHARGES>
38
1 -0.56
10 0.28
11 0.28
12 0.28
13 0.06
14 0.3
15 0.57
16 0.71
17 0.12
18 0.05
19 -0.15
2 -0.68
20 -0.15
21 -0.15
22 -0.15
23 -0.15
24 -0.15
25 -0.01
26 -0.15
3 -0.68
35 0.4
36 0.4
37 0.37
38 0.37
39 0.15
4 -0.57
40 0.15
41 0.15
42 0.15
43 0.15
44 0.15
45 0.15
46 0.15
5 -0.57
6 -0.28
7 -0.73
8 -0.55
9 0.28

> <PUBCHEM_EFFECTIVE_ROTOR_COUNT>
9

> <PUBCHEM_PHARMACOPHORE_FEATURES>
13
1 1 acceptor
1 2 acceptor
1 2 donor
1 3 acceptor
1 3 donor
1 4 acceptor
1 5 acceptor
1 6 acceptor
1 7 donor
1 8 donor
5 1 9 10 11 12 rings
5 6 18 21 24 25 rings
6 17 19 20 22 23 26 rings

> <PUBCHEM_HEAVY_ATOM_COUNT>
26

> <PUBCHEM_ATOM_DEF_STEREO_COUNT>
4

> <PUBCHEM_ATOM_UDEF_STEREO_COUNT>
0

> <PUBCHEM_BOND_DEF_STEREO_COUNT>
0

> <PUBCHEM_BOND_UDEF_STEREO_COUNT>
0

> <PUBCHEM_ISOTOPIC_ATOM_COUNT>
0

> <PUBCHEM_COMPONENT_COUNT>
1

> <PUBCHEM_CACTVS_TAUTO_COUNT>
4

> <PUBCHEM_CONFORMER_ID>
026E38EC00000001

> <PUBCHEM_MMFF94_ENERGY>
56.0283

> <PUBCHEM_FEATURE_SELFOVERLAP>
65.992

> <PUBCHEM_SHAPE_FINGERPRINT>
11112241 14 17917422172439218680
11370993 70 18410853278532948656
12156800 1 17340078568207235278
12422481 6 18261938666868397242
13402501 40 18336271167359095966
13726171 33 17535792703193184204
14251751 93 18260827154384376017
14251764 3 18201719600114777664
16752209 62 18263084486706717230
20567600 347 18335135367320540390
20642791 35 17903354806426188789
20691752 17 16951131647430224261
20905425 154 18333736801209416827
21033648 29 18200582705118752600
22182313 1 18115325392526711531
23559900 14 18336272249939040892
23566358 2 18335137545296175551
238 59 18272093751687948310
238918 7 18412266155633852014
27425 322 16371018390203050005
3298306 158 18409727352803496420
508706 21 18186810161911757415
5265222 85 18192445271802238220
59755656 215 18334572456459499197
6287921 2 17842275865618525234
9862522 239 18335412512943868798

> <PUBCHEM_SHAPE_MULTIPOLES>
489.89
9.5
3.68
1.47
2.66
3.39
-0.23
-5.97
0.81
0.68
0.83
0.01
0.22
1.51

> <PUBCHEM_SHAPE_SELFOVERLAP>
1047.157

> <PUBCHEM_SHAPE_VOLUME>
270.7

> <PUBCHEM_COORDINATE_TYPE>
2
5
10

$$$$
