11879690
  -OEChem-12032416363D

 61 65  0     1  0  0  0  0  0999 V2000
   -6.4755    1.5650   -0.3741 S   0  0  0  0  0  0  0  0  0  0  0  0
   -2.0087   -3.8072    0.2425 O   0  0  0  0  0  0  0  0  0  0  0  0
   -2.0009   -1.2205   -1.5465 O   0  0  0  0  0  0  0  0  0  0  0  0
    2.6643   -1.4336   -0.5879 O   0  0  0  0  0  0  0  0  0  0  0  0
   -6.6175   -1.8141   -0.4536 O   0  0  0  0  0  0  0  0  0  0  0  0
    5.2305    4.4119    0.8794 O   0  0  0  0  0  0  0  0  0  0  0  0
   -7.1762    5.2322    0.7058 O   0  0  0  0  0  0  0  0  0  0  0  0
   -7.5040    4.1774   -1.2805 O   0  0  0  0  0  0  0  0  0  0  0  0
    0.7668   -2.1119    0.6635 N   0  0  0  0  0  0  0  0  0  0  0  0
   -4.5097   -1.1434    0.2612 N   0  0  0  0  0  0  0  0  0  0  0  0
    0.4449   -2.2815    1.9493 N   0  0  0  0  0  0  0  0  0  0  0  0
    2.5556   -1.5894    1.7577 N   0  0  0  0  0  0  0  0  0  0  0  0
    1.5461   -1.9601    2.6172 N   0  0  0  0  0  0  0  0  0  0  0  0
    5.8595    2.1444   -0.6396 N   0  0  0  0  0  0  0  0  0  0  0  0
   -1.4675   -1.5377   -0.2479 C   0  0  1  0  0  0  0  0  0  0  0  0
   -2.4623   -2.4578    0.4325 C   0  0  1  0  0  0  0  0  0  0  0  0
   -0.2099   -2.3727   -0.3971 C   0  0  2  0  0  0  0  0  0  0  0  0
   -3.7558   -2.2293   -0.3169 C   0  0  2  0  0  0  0  0  0  0  0  0
   -0.7486   -3.7984   -0.4422 C   0  0  0  0  0  0  0  0  0  0  0  0
   -3.2654   -1.8779   -1.7092 C   0  0  0  0  0  0  0  0  0  0  0  0
    2.0486   -1.6920    0.5507 C   0  0  0  0  0  0  0  0  0  0  0  0
   -5.8867   -1.0257    0.1439 C   0  0  0  0  0  0  0  0  0  0  0  0
   -6.4349    0.2080    0.8214 C   0  0  0  0  0  0  0  0  0  0  0  0
    3.9826   -1.0028   -0.6442 C   0  0  0  0  0  0  0  0  0  0  0  0
    5.5714    0.7859   -0.6690 C   0  0  0  0  0  0  0  0  0  0  0  0
    4.2466    0.3528   -0.6123 C   0  0  0  0  0  0  0  0  0  0  0  0
    4.9473    3.1580   -1.1738 C   0  0  0  0  0  0  0  0  0  0  0  0
    6.8461    2.6823    0.3030 C   0  0  0  0  0  0  0  0  0  0  0  0
    4.9920   -1.9422   -0.7303 C   0  0  0  0  0  0  0  0  0  0  0  0
    4.2536    3.8509   -0.0060 C   0  0  0  0  0  0  0  0  0  0  0  0
    6.0920    3.4041    1.4206 C   0  0  0  0  0  0  0  0  0  0  0  0
    6.6064   -0.1450   -0.7563 C   0  0  0  0  0  0  0  0  0  0  0  0
    6.3167   -1.5091   -0.7870 C   0  0  0  0  0  0  0  0  0  0  0  0
   -7.1540    2.8509    0.7012 C   0  0  0  0  0  0  0  0  0  0  0  0
   -7.2934    4.1286   -0.0754 C   0  0  0  0  0  0  0  0  0  0  0  0
   -1.3254   -0.5907    0.2827 H   0  0  0  0  0  0  0  0  0  0  0  0
   -2.5360   -2.2867    1.5112 H   0  0  0  0  0  0  0  0  0  0  0  0
    0.3092   -2.1567   -1.3384 H   0  0  0  0  0  0  0  0  0  0  0  0
   -4.3937   -3.1191   -0.3510 H   0  0  0  0  0  0  0  0  0  0  0  0
   -0.0820   -4.5349    0.0165 H   0  0  0  0  0  0  0  0  0  0  0  0
   -0.9414   -4.1065   -1.4758 H   0  0  0  0  0  0  0  0  0  0  0  0
   -3.9432   -1.2256   -2.2680 H   0  0  0  0  0  0  0  0  0  0  0  0
   -3.0887   -2.7817   -2.3027 H   0  0  0  0  0  0  0  0  0  0  0  0
   -3.9940   -0.3984    0.7216 H   0  0  0  0  0  0  0  0  0  0  0  0
   -7.4453   -0.0120    1.1799 H   0  0  0  0  0  0  0  0  0  0  0  0
   -5.8133    0.4789    1.6805 H   0  0  0  0  0  0  0  0  0  0  0  0
    4.2226    2.7467   -1.8849 H   0  0  0  0  0  0  0  0  0  0  0  0
    5.5449    3.8941   -1.7262 H   0  0  0  0  0  0  0  0  0  0  0  0
    7.4835    3.3961   -0.2326 H   0  0  0  0  0  0  0  0  0  0  0  0
    7.4983    1.9141    0.7314 H   0  0  0  0  0  0  0  0  0  0  0  0
    3.4171    1.0484   -0.5330 H   0  0  0  0  0  0  0  0  0  0  0  0
    3.6301    4.6713   -0.3750 H   0  0  0  0  0  0  0  0  0  0  0  0
    3.6086    3.1691    0.5592 H   0  0  0  0  0  0  0  0  0  0  0  0
    5.4951    2.7048    2.0182 H   0  0  0  0  0  0  0  0  0  0  0  0
    6.8017    3.8975    2.0920 H   0  0  0  0  0  0  0  0  0  0  0  0
    4.7686   -3.0044   -0.7559 H   0  0  0  0  0  0  0  0  0  0  0  0
    7.6448    0.1700   -0.8183 H   0  0  0  0  0  0  0  0  0  0  0  0
    7.1221   -2.2341   -0.8589 H   0  0  0  0  0  0  0  0  0  0  0  0
   -8.1382    2.5615    1.0794 H   0  0  0  0  0  0  0  0  0  0  0  0
   -6.4636    3.0097    1.5348 H   0  0  0  0  0  0  0  0  0  0  0  0
   -7.2760    6.0594    0.1880 H   0  0  0  0  0  0  0  0  0  0  0  0
  1 23  1  0  0  0  0
  1 34  1  0  0  0  0
  2 16  1  0  0  0  0
  2 19  1  0  0  0  0
  3 15  1  0  0  0  0
  3 20  1  0  0  0  0
  4 21  1  0  0  0  0
  4 24  1  0  0  0  0
  5 22  2  0  0  0  0
  6 30  1  0  0  0  0
  6 31  1  0  0  0  0
  7 35  1  0  0  0  0
  7 61  1  0  0  0  0
  8 35  2  0  0  0  0
  9 11  1  0  0  0  0
  9 17  1  0  0  0  0
  9 21  1  0  0  0  0
 10 18  1  0  0  0  0
 10 22  1  0  0  0  0
 10 44  1  0  0  0  0
 11 13  2  0  0  0  0
 12 13  1  0  0  0  0
 12 21  2  0  0  0  0
 14 25  1  0  0  0  0
 14 27  1  0  0  0  0
 14 28  1  0  0  0  0
 15 16  1  0  0  0  0
 15 17  1  0  0  0  0
 15 36  1  0  0  0  0
 16 18  1  0  0  0  0
 16 37  1  0  0  0  0
 17 19  1  0  0  0  0
 17 38  1  0  0  0  0
 18 20  1  0  0  0  0
 18 39  1  0  0  0  0
 19 40  1  0  0  0  0
 19 41  1  0  0  0  0
 20 42  1  0  0  0  0
 20 43  1  0  0  0  0
 22 23  1  0  0  0  0
 23 45  1  0  0  0  0
 23 46  1  0  0  0  0
 24 26  1  0  0  0  0
 24 29  2  0  0  0  0
 25 26  2  0  0  0  0
 25 32  1  0  0  0  0
 26 51  1  0  0  0  0
 27 30  1  0  0  0  0
 27 47  1  0  0  0  0
 27 48  1  0  0  0  0
 28 31  1  0  0  0  0
 28 49  1  0  0  0  0
 28 50  1  0  0  0  0
 29 33  1  0  0  0  0
 29 56  1  0  0  0  0
 30 52  1  0  0  0  0
 30 53  1  0  0  0  0
 31 54  1  0  0  0  0
 31 55  1  0  0  0  0
 32 33  2  0  0  0  0
 32 57  1  0  0  0  0
 33 58  1  0  0  0  0
 34 35  1  0  0  0  0
 34 59  1  0  0  0  0
 34 60  1  0  0  0  0
M  END
> <PUBCHEM_COMPOUND_CID>
11879690

> <PUBCHEM_CONFORMER_RMSD>
1.2

> <PUBCHEM_CONFORMER_DIVERSEORDER>
1
4
115
96
67
31
110
151
14
119
12
137
108
122
40
28
60
29
59
85
35
66
37
123
130
109
102
53
83
114
129
91
73
76
132
98
111
55
6
103
133
16
131
23
54
48
70
15
63
26
8
41
90
136
149
134
84
9
32
79
107
71
20
128
61
113
146
56
44
127
117
13
39
105
104
88
135
121
89
87
7
92
126
153
101
120
18
46
124
145
65
34
116
43
36
150
19
52
10
139
138
106
75
69
97
148
147
100
140
125
3
58
155
80
82
5
86
74
143
78
68
77
93
72
152
49
24
17
144
11
62
81
64
2
112
141
33
38
45
118
154
142
57
30
50
47
51
94
99
95
21
25
27
22
42

> <PUBCHEM_MMFF94_PARTIAL_CHARGES>
40
1 -0.46
10 -0.73
11 -0.42
12 -0.34
14 -0.84
15 0.28
16 0.28
17 0.26
18 0.3
19 0.28
2 -0.56
20 0.28
21 0.25
22 0.57
23 0.29
24 0.08
25 0.1
26 -0.15
27 0.37
28 0.37
29 -0.15
3 -0.56
30 0.28
31 0.28
32 -0.15
33 -0.15
34 0.29
35 0.66
4 -0.15
44 0.37
5 -0.57
51 0.15
56 0.15
57 0.15
58 0.15
6 -0.56
61 0.5
7 -0.65
8 -0.57
9 0.31

> <PUBCHEM_EFFECTIVE_ROTOR_COUNT>
12.4

> <PUBCHEM_PHARMACOPHORE_FEATURES>
15
1 10 donor
1 14 cation
1 2 acceptor
1 3 acceptor
1 5 acceptor
1 6 acceptor
1 7 acceptor
1 8 acceptor
3 7 8 35 anion
3 9 12 21 cation
5 2 15 16 17 19 rings
5 3 15 16 18 20 rings
5 9 11 12 13 21 rings
6 24 25 26 29 32 33 rings
6 6 14 27 28 30 31 rings

> <PUBCHEM_HEAVY_ATOM_COUNT>
35

> <PUBCHEM_ATOM_DEF_STEREO_COUNT>
4

> <PUBCHEM_ATOM_UDEF_STEREO_COUNT>
0

> <PUBCHEM_BOND_DEF_STEREO_COUNT>
0

> <PUBCHEM_BOND_UDEF_STEREO_COUNT>
0

> <PUBCHEM_ISOTOPIC_ATOM_COUNT>
0

> <PUBCHEM_COMPONENT_COUNT>
1

> <PUBCHEM_CACTVS_TAUTO_COUNT>
2

> <PUBCHEM_CONFORMER_ID>
00B5450A00000001

> <PUBCHEM_MMFF94_ENERGY>
97.0757

> <PUBCHEM_FEATURE_SELFOVERLAP>
76.874

> <PUBCHEM_SHAPE_FINGERPRINT>
10673678 19 18058176192772664702
11135609 127 18058445568910436950
11408170 253 18200882769067432721
11421887 103 17627213904373324704
11456790 92 18113898261146979474
11476731 99 18271238425957740216
11505856 67 18269263720907978455
12013929 29 18341335508984313045
12717326 69 7853574634044800049
13782708 43 8862677788919518574
13944108 23 18124877854827368713
14211702 104 8935001486219648825
14415361 349 10735879525813529896
14664723 55 18129388112181874209
14904525 67 18411412917325391969
15183329 4 16486707968569423490
15569901 51 18411422838632053537
15950262 2 18412831295746047543
16994733 274 18335421278845435307
19053607 189 18052809262016662073
19304144 158 17843119462226624182
19438510 23 18187927325902833443
20691028 202 18409729573417672069
20715895 44 18196655310303812546
21033648 29 17824823589041046750
21223535 225 18270958045927982317
21424621 283 18334860553759504394
21792965 158 17844515811723719728
23191077 185 18339350963721987919
23729398 52 16322027811925605799
2838139 119 18410858788812836143
3918712 181 18192711143126300133
393628 194 18198062466240096437
5223283 242 18196946461547150878
636775 72 18267583687845010616
6695519 79 16805594851176667187

> <PUBCHEM_SHAPE_MULTIPOLES>
653.16
24.39
6.83
1.43
19.56
8.57
-0.54
32.19
2.27
5.68
-0.67
-0.59
-0.35
0.62

> <PUBCHEM_SHAPE_SELFOVERLAP>
1382.625

> <PUBCHEM_SHAPE_VOLUME>
367.9

> <PUBCHEM_COORDINATE_TYPE>
2
5
10

$$$$
