11911961
  -OEChem-12032416283D

 50 55  0     1  0  0  0  0  0999 V2000
   -2.9644   -1.2866   -0.2359 S   0  0  0  0  0  0  0  0  0  0  0  0
   -1.0704    1.6292   -1.5555 O   0  0  0  0  0  0  0  0  0  0  0  0
    2.6212   -0.9029   -2.2058 O   0  0  0  0  0  0  0  0  0  0  0  0
    4.5239   -2.1104    0.4467 O   0  0  0  0  0  0  0  0  0  0  0  0
    3.5967    0.3470   -0.5152 N   0  0  0  0  0  0  0  0  0  0  0  0
    0.7936    1.7487   -0.1572 N   0  0  0  0  0  0  0  0  0  0  0  0
    3.0306    2.7336   -0.9262 C   0  0  2  0  0  0  0  0  0  0  0  0
    2.8173    1.7990    1.3415 C   0  0  2  0  0  0  0  0  0  0  0  0
    3.2456    3.0356    0.5531 C   0  0  0  0  0  0  0  0  0  0  0  0
    1.5321    2.5152   -1.1718 C   0  0  0  0  0  0  0  0  0  0  0  0
    3.8723    1.5162   -1.3524 C   0  0  0  0  0  0  0  0  0  0  0  0
    3.6937    0.5963    0.9336 C   0  0  0  0  0  0  0  0  0  0  0  0
    1.3579    1.4699    1.0911 C   0  0  0  0  0  0  0  0  0  0  0  0
    0.6274    0.8700    2.0449 C   0  0  0  0  0  0  0  0  0  0  0  0
   -0.5340    1.3958   -0.4711 C   0  0  0  0  0  0  0  0  0  0  0  0
    3.1922   -0.8604   -1.1151 C   0  0  0  0  0  0  0  0  0  0  0  0
   -1.3119    0.6960    0.6085 C   0  0  0  0  0  0  0  0  0  0  0  0
   -0.7308    0.4778    1.7968 C   0  0  0  0  0  0  0  0  0  0  0  0
    3.4482   -2.0884   -0.3750 C   0  0  0  0  0  0  0  0  0  0  0  0
   -2.6577    0.2768    0.3805 C   0  0  0  0  0  0  0  0  0  0  0  0
   -3.8274    0.9767    0.5919 C   0  0  0  0  0  0  0  0  0  0  0  0
    2.7784   -3.2816   -0.3487 C   0  0  0  0  0  0  0  0  0  0  0  0
   -5.0028    0.2289    0.2464 C   0  0  0  0  0  0  0  0  0  0  0  0
   -4.6716   -1.0444   -0.2271 C   0  0  0  0  0  0  0  0  0  0  0  0
    3.4916   -4.1040    0.5558 C   0  0  0  0  0  0  0  0  0  0  0  0
    4.5444   -3.3458    1.0126 C   0  0  0  0  0  0  0  0  0  0  0  0
   -6.3723    0.5823    0.3147 C   0  0  0  0  0  0  0  0  0  0  0  0
   -5.6624   -1.9617   -0.6286 C   0  0  0  0  0  0  0  0  0  0  0  0
   -7.3576   -0.3253   -0.0830 C   0  0  0  0  0  0  0  0  0  0  0  0
   -7.0040   -1.5834   -0.5494 C   0  0  0  0  0  0  0  0  0  0  0  0
    3.3584    3.5904   -1.5278 H   0  0  0  0  0  0  0  0  0  0  0  0
    2.9762    1.9993    2.4090 H   0  0  0  0  0  0  0  0  0  0  0  0
    2.6619    3.9134    0.8575 H   0  0  0  0  0  0  0  0  0  0  0  0
    4.3000    3.2673    0.7471 H   0  0  0  0  0  0  0  0  0  0  0  0
    1.3687    2.0494   -2.1517 H   0  0  0  0  0  0  0  0  0  0  0  0
    1.0374    3.4951   -1.2174 H   0  0  0  0  0  0  0  0  0  0  0  0
    3.7028    1.2814   -2.4088 H   0  0  0  0  0  0  0  0  0  0  0  0
    4.9395    1.7428   -1.2402 H   0  0  0  0  0  0  0  0  0  0  0  0
    4.7478    0.7903    1.1638 H   0  0  0  0  0  0  0  0  0  0  0  0
    3.3790   -0.2829    1.5028 H   0  0  0  0  0  0  0  0  0  0  0  0
    1.0481    0.6286    3.0155 H   0  0  0  0  0  0  0  0  0  0  0  0
   -1.2541   -0.0185    2.6089 H   0  0  0  0  0  0  0  0  0  0  0  0
   -3.8499    1.9887    0.9796 H   0  0  0  0  0  0  0  0  0  0  0  0
    1.8880   -3.5369   -0.9055 H   0  0  0  0  0  0  0  0  0  0  0  0
    3.2663   -5.1217    0.8397 H   0  0  0  0  0  0  0  0  0  0  0  0
    5.3529   -3.5290    1.7051 H   0  0  0  0  0  0  0  0  0  0  0  0
   -6.6648    1.5644    0.6780 H   0  0  0  0  0  0  0  0  0  0  0  0
   -5.3949   -2.9488   -0.9950 H   0  0  0  0  0  0  0  0  0  0  0  0
   -8.4049   -0.0423   -0.0258 H   0  0  0  0  0  0  0  0  0  0  0  0
   -7.7772   -2.2824   -0.8564 H   0  0  0  0  0  0  0  0  0  0  0  0
  1 20  1  0  0  0  0
  1 24  1  0  0  0  0
  2 15  2  0  0  0  0
  3 16  2  0  0  0  0
  4 19  1  0  0  0  0
  4 26  1  0  0  0  0
  5 11  1  0  0  0  0
  5 12  1  0  0  0  0
  5 16  1  0  0  0  0
  6 10  1  0  0  0  0
  6 13  1  0  0  0  0
  6 15  1  0  0  0  0
  7  9  1  0  0  0  0
  7 10  1  0  0  0  0
  7 11  1  0  0  0  0
  7 31  1  0  0  0  0
  8  9  1  0  0  0  0
  8 12  1  0  0  0  0
  8 13  1  0  0  0  0
  8 32  1  0  0  0  0
  9 33  1  0  0  0  0
  9 34  1  0  0  0  0
 10 35  1  0  0  0  0
 10 36  1  0  0  0  0
 11 37  1  0  0  0  0
 11 38  1  0  0  0  0
 12 39  1  0  0  0  0
 12 40  1  0  0  0  0
 13 14  2  0  0  0  0
 14 18  1  0  0  0  0
 14 41  1  0  0  0  0
 15 17  1  0  0  0  0
 16 19  1  0  0  0  0
 17 18  2  0  0  0  0
 17 20  1  0  0  0  0
 18 42  1  0  0  0  0
 19 22  2  0  0  0  0
 20 21  2  0  0  0  0
 21 23  1  0  0  0  0
 21 43  1  0  0  0  0
 22 25  1  0  0  0  0
 22 44  1  0  0  0  0
 23 24  1  0  0  0  0
 23 27  2  0  0  0  0
 24 28  2  0  0  0  0
 25 26  2  0  0  0  0
 25 45  1  0  0  0  0
 26 46  1  0  0  0  0
 27 29  1  0  0  0  0
 27 47  1  0  0  0  0
 28 30  1  0  0  0  0
 28 48  1  0  0  0  0
 29 30  2  0  0  0  0
 29 49  1  0  0  0  0
 30 50  1  0  0  0  0
M  END
> <PUBCHEM_COMPOUND_CID>
11911961

> <PUBCHEM_CONFORMER_RMSD>
0.8

> <PUBCHEM_CONFORMER_DIVERSEORDER>
1
14
6
15
10
11
7
3
5
16
2
13
8
9
12
4

> <PUBCHEM_MMFF94_PARTIAL_CHARGES>
37
1 -0.08
10 0.3
11 0.3
12 0.3
13 -0.03
14 -0.15
15 0.62
16 0.71
17 0.06
18 -0.15
19 0.05
2 -0.57
20 -0.01
21 -0.15
22 -0.15
24 0.04
25 -0.15
26 -0.01
27 -0.15
28 -0.15
29 -0.15
3 -0.57
30 -0.15
4 -0.28
41 0.15
42 0.15
43 0.15
44 0.15
45 0.15
46 0.15
47 0.15
48 0.15
49 0.15
5 -0.66
50 0.15
6 -0.47
8 0.14

> <PUBCHEM_EFFECTIVE_ROTOR_COUNT>
4

> <PUBCHEM_PHARMACOPHORE_FEATURES>
9
1 2 acceptor
1 3 acceptor
1 4 acceptor
5 1 20 21 23 24 rings
5 4 19 22 25 26 rings
6 23 24 27 28 29 30 rings
6 5 7 8 9 11 12 rings
6 6 13 14 15 17 18 rings
6 6 7 8 9 10 13 rings

> <PUBCHEM_HEAVY_ATOM_COUNT>
30

> <PUBCHEM_ATOM_DEF_STEREO_COUNT>
2

> <PUBCHEM_ATOM_UDEF_STEREO_COUNT>
0

> <PUBCHEM_BOND_DEF_STEREO_COUNT>
0

> <PUBCHEM_BOND_UDEF_STEREO_COUNT>
0

> <PUBCHEM_ISOTOPIC_ATOM_COUNT>
0

> <PUBCHEM_COMPONENT_COUNT>
1

> <PUBCHEM_CACTVS_TAUTO_COUNT>
1

> <PUBCHEM_CONFORMER_ID>
00B5C31900000001

> <PUBCHEM_MMFF94_ENERGY>
73.9289

> <PUBCHEM_FEATURE_SELFOVERLAP>
47.328

> <PUBCHEM_SHAPE_FINGERPRINT>
10670039 82 14924220469938201295
11135609 149 18116411700818358478
11796584 16 17774731947622783021
11828532 37 16733276741132343771
11963148 33 17981034530104261535
12107183 9 18053672378322953217
12166972 35 18262239889762486054
13150687 139 17824565165254327628
13533116 47 18342459257454937881
1361 2 18335140929203026818
13782708 43 17059771248098373127
14068700 675 18119532034116174930
14251751 18 18338511915800123699
14347332 77 18411980222686621441
14675020 138 18199457939299040888
15183329 4 17918283065154522017
15250474 111 18201147862822332087
15419008 42 17700414677123487541
15475509 35 18131623504650744267
15664445 248 18188213220501365036
15799311 1 18339656641266114571
16993427 108 17606946314622522138
17134984 74 18339645662907888111
17349148 13 14476692939839271201
17857418 61 18273496771653965859
17899979 129 18043826495908572460
19026451 147 18339362959781657530
19315092 285 18130785650767042866
19958102 18 18336536184612082751
20567600 247 18413105070004781675
20721686 124 18115023130150894290
20775438 99 18188764071532245099
20775530 9 18195236720791807206
21033648 29 13973971974461143027
21049683 118 16984595511761271048
21285901 2 17749102313898756869
21304303 94 18187365458339303435
21421861 104 17846210072994089004
21641784 216 15502366791274187893
21703447 108 18202561782940639008
23559900 14 18335707173274849953
23569914 152 17395537669210093679
23569943 247 18116431441401363067
239999 70 17417540232084105964
25222932 49 17130417111390869405
3004659 81 18131077025743623063
345986 75 17846498084684164985
34797466 226 16805329928955695111
404807 14 17836936594621532379
4073 2 18266743674347075027
4340502 62 17703223048410510720
439807 62 18410575063900866779
46194498 28 17894629274936182652
463206 1 18341890835386588594
5104073 3 18131641097490676155
513532 50 17917998304126896734
5326457 24 18341333374965321639
5951187 136 14924521835193478558
59682541 52 18334571352742685511
70251023 43 18188771634894747856

> <PUBCHEM_SHAPE_MULTIPOLES>
593.67
14.86
3.98
1.51
29.22
3.11
0.03
7.71
-1.33
-7.39
0.05
-1.28
-0.44
-1.23

> <PUBCHEM_SHAPE_SELFOVERLAP>
1324.571

> <PUBCHEM_SHAPE_VOLUME>
316.3

> <PUBCHEM_COORDINATE_TYPE>
2
5
10

$$$$
