45360931
  -OEChem-12032416193D

 64 67  0     1  0  0  0  0  0999 V2000
    6.3617   -2.0885   -1.1642 S   0  0  0  0  0  0  0  0  0  0  0  0
    3.2444    2.5134   -0.5178 O   0  0  0  0  0  0  0  0  0  0  0  0
   -4.2522    2.2219    1.3180 O   0  0  0  0  0  0  0  0  0  0  0  0
   -2.8857   -4.3728   -0.1163 O   0  0  0  0  0  0  0  0  0  0  0  0
    3.1739   -0.0999    0.1596 N   0  0  1  0  0  0  0  0  0  0  0  0
   -0.0145    1.3502    1.2188 N   0  0  1  0  0  0  0  0  0  0  0  0
    1.0464    2.6183   -1.1454 N   0  0  0  0  0  0  0  0  0  0  0  0
   -4.2798    1.7500   -0.9547 N   0  0  0  0  0  0  0  0  0  0  0  0
    0.8554    0.2296    0.7979 C   0  0  1  0  0  0  0  0  0  0  0  0
    1.9088    0.4882   -0.3192 C   0  0  1  0  0  0  0  0  0  0  0  0
    1.7246   -0.3465    1.9311 C   0  0  0  0  0  0  0  0  0  0  0  0
    2.8312   -1.0702    1.1933 C   0  0  0  0  0  0  0  0  0  0  0  0
   -0.9219    1.8600    0.1531 C   0  0  2  0  0  0  0  0  0  0  0  0
    2.1541    1.9586   -0.6477 C   0  0  0  0  0  0  0  0  0  0  0  0
   -0.2694    2.0169   -1.2344 C   0  0  0  0  0  0  0  0  0  0  0  0
    3.9746   -0.6918   -0.9044 C   0  0  0  0  0  0  0  0  0  0  0  0
   -1.5031    3.2331    0.5506 C   0  0  0  0  0  0  0  0  0  0  0  0
   -0.7889    0.9898    2.4187 C   0  0  0  0  0  0  0  0  0  0  0  0
   -2.8168    3.4873   -0.1652 C   0  0  0  0  0  0  0  0  0  0  0  0
    5.4209   -0.8114   -0.5193 C   0  0  0  0  0  0  0  0  0  0  0  0
   -3.8535    2.4320    0.1756 C   0  0  0  0  0  0  0  0  0  0  0  0
    6.1529   -0.0047    0.3239 C   0  0  0  0  0  0  0  0  0  0  0  0
    7.5042   -0.4409    0.4419 C   0  0  0  0  0  0  0  0  0  0  0  0
    7.7534   -1.5641   -0.3154 C   0  0  0  0  0  0  0  0  0  0  0  0
   -5.2638    0.6954   -0.8933 C   0  0  0  0  0  0  0  0  0  0  0  0
   -4.6323   -0.6511   -0.6875 C   0  0  0  0  0  0  0  0  0  0  0  0
   -3.9858   -1.2881   -1.7467 C   0  0  0  0  0  0  0  0  0  0  0  0
   -4.6917   -1.2648    0.5637 C   0  0  0  0  0  0  0  0  0  0  0  0
   -3.3992   -2.5389   -1.5550 C   0  0  0  0  0  0  0  0  0  0  0  0
   -4.1051   -2.5156    0.7556 C   0  0  0  0  0  0  0  0  0  0  0  0
   -3.4589   -3.1527   -0.3037 C   0  0  0  0  0  0  0  0  0  0  0  0
   -2.9839   -4.9428    1.1881 C   0  0  0  0  0  0  0  0  0  0  0  0
    0.2118   -0.5935    0.4499 H   0  0  0  0  0  0  0  0  0  0  0  0
    1.5824   -0.0223   -1.2351 H   0  0  0  0  0  0  0  0  0  0  0  0
    2.1478    0.4554    2.5509 H   0  0  0  0  0  0  0  0  0  0  0  0
    1.1674   -1.0300    2.5802 H   0  0  0  0  0  0  0  0  0  0  0  0
    2.4512   -2.0107    0.7745 H   0  0  0  0  0  0  0  0  0  0  0  0
    3.6726   -1.2914    1.8570 H   0  0  0  0  0  0  0  0  0  0  0  0
   -1.7233    1.1216    0.0334 H   0  0  0  0  0  0  0  0  0  0  0  0
   -0.1866    1.0432   -1.7280 H   0  0  0  0  0  0  0  0  0  0  0  0
   -0.8591    2.6426   -1.9099 H   0  0  0  0  0  0  0  0  0  0  0  0
    3.9544   -0.0382   -1.7878 H   0  0  0  0  0  0  0  0  0  0  0  0
    3.5581   -1.6548   -1.2279 H   0  0  0  0  0  0  0  0  0  0  0  0
   -1.6971    3.3260    1.6214 H   0  0  0  0  0  0  0  0  0  0  0  0
   -0.7948    4.0390    0.3201 H   0  0  0  0  0  0  0  0  0  0  0  0
    1.1479    3.5944   -1.4059 H   0  0  0  0  0  0  0  0  0  0  0  0
   -1.4375    1.7876    2.7847 H   0  0  0  0  0  0  0  0  0  0  0  0
   -0.1292    0.7736    3.2652 H   0  0  0  0  0  0  0  0  0  0  0  0
   -1.4173    0.1095    2.2383 H   0  0  0  0  0  0  0  0  0  0  0  0
   -3.2278    4.4508    0.1612 H   0  0  0  0  0  0  0  0  0  0  0  0
   -2.6771    3.5756   -1.2465 H   0  0  0  0  0  0  0  0  0  0  0  0
    5.7518    0.8621    0.8338 H   0  0  0  0  0  0  0  0  0  0  0  0
    8.2555    0.0453    1.0505 H   0  0  0  0  0  0  0  0  0  0  0  0
    8.6861   -2.1018   -0.4110 H   0  0  0  0  0  0  0  0  0  0  0  0
   -3.8795    1.9694   -1.8619 H   0  0  0  0  0  0  0  0  0  0  0  0
   -5.9834    0.9164   -0.0963 H   0  0  0  0  0  0  0  0  0  0  0  0
   -5.8207    0.7062   -1.8373 H   0  0  0  0  0  0  0  0  0  0  0  0
   -3.9324   -0.8192   -2.7256 H   0  0  0  0  0  0  0  0  0  0  0  0
   -5.1904   -0.7780    1.3978 H   0  0  0  0  0  0  0  0  0  0  0  0
   -2.8965   -3.0300   -2.3837 H   0  0  0  0  0  0  0  0  0  0  0  0
   -4.1875   -2.9345    1.7527 H   0  0  0  0  0  0  0  0  0  0  0  0
   -2.4632   -4.3326    1.9339 H   0  0  0  0  0  0  0  0  0  0  0  0
   -4.0256   -5.1376    1.4648 H   0  0  0  0  0  0  0  0  0  0  0  0
   -2.4750   -5.9118    1.1564 H   0  0  0  0  0  0  0  0  0  0  0  0
  1 20  1  0  0  0  0
  1 24  1  0  0  0  0
  2 14  2  0  0  0  0
  3 21  2  0  0  0  0
  4 31  1  0  0  0  0
  4 32  1  0  0  0  0
  5 10  1  0  0  0  0
  5 12  1  0  0  0  0
  5 16  1  0  0  0  0
  6  9  1  0  0  0  0
  6 13  1  0  0  0  0
  6 18  1  0  0  0  0
  7 14  1  0  0  0  0
  7 15  1  0  0  0  0
  7 46  1  0  0  0  0
  8 21  1  0  0  0  0
  8 25  1  0  0  0  0
  8 55  1  0  0  0  0
  9 10  1  0  0  0  0
  9 11  1  0  0  0  0
  9 33  1  0  0  0  0
 10 14  1  0  0  0  0
 10 34  1  0  0  0  0
 11 12  1  0  0  0  0
 11 35  1  0  0  0  0
 11 36  1  0  0  0  0
 12 37  1  0  0  0  0
 12 38  1  0  0  0  0
 13 15  1  0  0  0  0
 13 17  1  0  0  0  0
 13 39  1  0  0  0  0
 15 40  1  0  0  0  0
 15 41  1  0  0  0  0
 16 20  1  0  0  0  0
 16 42  1  0  0  0  0
 16 43  1  0  0  0  0
 17 19  1  0  0  0  0
 17 44  1  0  0  0  0
 17 45  1  0  0  0  0
 18 47  1  0  0  0  0
 18 48  1  0  0  0  0
 18 49  1  0  0  0  0
 19 21  1  0  0  0  0
 19 50  1  0  0  0  0
 19 51  1  0  0  0  0
 20 22  2  0  0  0  0
 22 23  1  0  0  0  0
 22 52  1  0  0  0  0
 23 24  2  0  0  0  0
 23 53  1  0  0  0  0
 24 54  1  0  0  0  0
 25 26  1  0  0  0  0
 25 56  1  0  0  0  0
 25 57  1  0  0  0  0
 26 27  2  0  0  0  0
 26 28  1  0  0  0  0
 27 29  1  0  0  0  0
 27 58  1  0  0  0  0
 28 30  2  0  0  0  0
 28 59  1  0  0  0  0
 29 31  2  0  0  0  0
 29 60  1  0  0  0  0
 30 31  1  0  0  0  0
 30 61  1  0  0  0  0
 32 62  1  0  0  0  0
 32 63  1  0  0  0  0
 32 64  1  0  0  0  0
M  END
> <PUBCHEM_COMPOUND_CID>
45360931

> <PUBCHEM_CONFORMER_RMSD>
1.2

> <PUBCHEM_CONFORMER_DIVERSEORDER>
3
50
35
121
82
185
93
65
41
155
147
118
174
152
17
78
63
128
120
115
117
110
60
36
141
75
140
87
106
173
2
20
180
43
114
64
134
186
187
49
96
166
89
112
11
94
26
70
92
14
160
167
102
182
113
132
56
25
99
58
157
69
190
103
29
177
170
5
32
73
66
151
191
83
122
12
98
8
39
129
175
61
188
48
111
16
163
62
178
168
124
172
165
34
101
146
136
149
107
86
31
150
138
77
84
126
22
85
55
169
179
71
72
131
137
24
164
67
133
44
76
116
80
189
109
10
54
33
148
1
97
108
30
145
90
91
9
119
153
38
100
79
37
183
13
27
59
23
68
139
40
53
46
18
135
15
181
154
104
95
144
51
125
176
142
21
52
158
57
130
123
143
4
19
42
81
184
45
74
171
161
7
105
88
47
162
159
6
127
28
156

> <PUBCHEM_MMFF94_PARTIAL_CHARGES>
39
1 -0.08
10 0.33
12 0.27
13 0.27
14 0.57
15 0.3
16 0.45
18 0.27
19 0.06
2 -0.57
20 -0.14
21 0.57
22 -0.15
23 -0.15
24 -0.11
25 0.44
26 -0.14
27 -0.15
28 -0.15
29 -0.15
3 -0.57
30 -0.15
31 0.08
32 0.28
4 -0.36
46 0.37
5 -0.81
52 0.15
53 0.15
54 0.15
55 0.37
58 0.15
59 0.15
6 -0.81
60 0.15
61 0.15
7 -0.73
8 -0.73
9 0.27

> <PUBCHEM_EFFECTIVE_ROTOR_COUNT>
10.4

> <PUBCHEM_PHARMACOPHORE_FEATURES>
11
1 2 acceptor
1 3 acceptor
1 4 acceptor
1 5 cation
1 6 cation
1 7 donor
1 8 donor
5 1 20 22 23 24 rings
5 5 9 10 11 12 rings
6 26 27 28 29 30 31 rings
7 6 7 9 10 13 14 15 rings

> <PUBCHEM_HEAVY_ATOM_COUNT>
32

> <PUBCHEM_ATOM_DEF_STEREO_COUNT>
3

> <PUBCHEM_ATOM_UDEF_STEREO_COUNT>
0

> <PUBCHEM_BOND_DEF_STEREO_COUNT>
0

> <PUBCHEM_BOND_UDEF_STEREO_COUNT>
0

> <PUBCHEM_ISOTOPIC_ATOM_COUNT>
0

> <PUBCHEM_COMPONENT_COUNT>
1

> <PUBCHEM_CACTVS_TAUTO_COUNT>
6

> <PUBCHEM_CONFORMER_ID>
02B4272300000003

> <PUBCHEM_MMFF94_ENERGY>
84.7371

> <PUBCHEM_FEATURE_SELFOVERLAP>
55.858

> <PUBCHEM_SHAPE_FINGERPRINT>
10391435 84 18339068368042870092
11135609 12 18342751714510023971
11200772 48 18261112937440521331
117089 54 18193279809048546815
11756154 5 18335422413360905931
13782708 43 18059855044117679850
13947920 75 18334009454565602416
14251751 18 18272653454556338668
14251757 5 18409164428952415427
14279260 333 18186517675161717714
14461889 52 18059561474708138938
14856354 85 18412546509080377414
15183329 4 17821726122576979426
15274700 242 17896034351975667090
15297060 5 18200593580175548729
15484559 13 14069329043618432980
17909252 39 17906174310489808337
19311894 1 18264490765947401347
19958102 18 18266739078299766310
208703 8 18335424612151825443
23379529 103 18338521953317964623
23536364 44 17894915178056220298
23559900 14 18343008999978443761
249057 3 18336263449393263549
2838139 119 13045943499873202918
3383291 50 18412261753740922247
395649 100 18409166615586803854
397830 11 17845638336139116808
4073 2 18271806779485323662
42626532 9 18265053728879903947
445580 160 18343304738963102398
4573279 73 18263651839123553956
49967989 163 18335434490920062694
5265222 85 18194397793425257673
54039377 194 18334021609565980907
70634741 139 18412828001711807536
77296 10 18412826915238478132
9862886 166 18201717336624717102

> <PUBCHEM_SHAPE_MULTIPOLES>
624.86
16.38
4.99
1.61
27.81
3.26
-0.41
9.33
3.28
-7.93
-0.27
-0.62
0.18
0.25

> <PUBCHEM_SHAPE_SELFOVERLAP>
1304.877

> <PUBCHEM_SHAPE_VOLUME>
356.1

> <PUBCHEM_COORDINATE_TYPE>
2
5
10

$$$$
