45783686
  -OEChem-12032416203D

 49 52  0     1  0  0  0  0  0999 V2000
    2.8784    3.6720    0.6029 F   0  0  0  0  0  0  0  0  0  0  0  0
    1.8549    1.7752    0.2420 F   0  0  0  0  0  0  0  0  0  0  0  0
    2.3236    3.1298   -1.4402 F   0  0  0  0  0  0  0  0  0  0  0  0
   -1.5005   -0.9437    2.0054 O   0  0  0  0  0  0  0  0  0  0  0  0
    0.6922    3.7349    0.0446 O   0  0  0  0  0  0  0  0  0  0  0  0
    5.4227   -2.0091   -0.9025 O   0  0  0  0  0  0  0  0  0  0  0  0
   -3.8029   -0.6899   -0.6372 N   0  0  1  0  0  0  0  0  0  0  0  0
   -0.8878   -1.6851   -0.0174 N   0  0  0  0  0  0  0  0  0  0  0  0
   -0.0999   -0.9458    1.9992 N   0  0  0  0  0  0  0  0  0  0  0  0
    3.9043   -1.4043    0.7445 N   0  0  0  0  0  0  0  0  0  0  0  0
   -3.3737   -1.4840    0.5314 C   0  0  1  0  0  0  0  0  0  0  0  0
   -3.8378   -2.9190    0.2209 C   0  0  0  0  0  0  0  0  0  0  0  0
   -4.5695   -2.8212   -1.1103 C   0  0  0  0  0  0  0  0  0  0  0  0
   -4.9796   -1.3643   -1.1856 C   0  0  0  0  0  0  0  0  0  0  0  0
   -4.0711    0.7060   -0.3160 C   0  0  0  0  0  0  0  0  0  0  0  0
   -1.8829   -1.3929    0.7813 C   0  0  0  0  0  0  0  0  0  0  0  0
   -2.8035    1.5127   -0.2197 C   0  0  0  0  0  0  0  0  0  0  0  0
   -2.4894    2.1807    0.9639 C   0  0  0  0  0  0  0  0  0  0  0  0
   -1.9428    1.5917   -1.3145 C   0  0  0  0  0  0  0  0  0  0  0  0
    0.1857   -1.3948    0.7733 C   0  0  0  0  0  0  0  0  0  0  0  0
   -1.3149    2.9277    1.0526 C   0  0  0  0  0  0  0  0  0  0  0  0
   -0.7682    2.3387   -1.2260 C   0  0  0  0  0  0  0  0  0  0  0  0
   -0.4543    3.0068   -0.0424 C   0  0  0  0  0  0  0  0  0  0  0  0
    1.5319   -1.5662    0.3086 C   0  0  0  0  0  0  0  0  0  0  0  0
    1.7922   -2.0376   -0.9735 C   0  0  0  0  0  0  0  0  0  0  0  0
    2.6133   -1.2666    1.1213 C   0  0  0  0  0  0  0  0  0  0  0  0
    3.1073   -2.1927   -1.3974 C   0  0  0  0  0  0  0  0  0  0  0  0
    4.1183   -1.8650   -0.5084 C   0  0  0  0  0  0  0  0  0  0  0  0
    1.9328    3.0648   -0.1497 C   0  0  0  0  0  0  0  0  0  0  0  0
    6.4211   -1.6587    0.0486 C   0  0  0  0  0  0  0  0  0  0  0  0
   -3.9031   -1.1591    1.4383 H   0  0  0  0  0  0  0  0  0  0  0  0
   -3.0229   -3.6487    0.1645 H   0  0  0  0  0  0  0  0  0  0  0  0
   -4.5355   -3.2561    0.9973 H   0  0  0  0  0  0  0  0  0  0  0  0
   -5.4245   -3.5014   -1.1635 H   0  0  0  0  0  0  0  0  0  0  0  0
   -3.8846   -3.0689   -1.9309 H   0  0  0  0  0  0  0  0  0  0  0  0
   -5.1881   -1.0581   -2.2154 H   0  0  0  0  0  0  0  0  0  0  0  0
   -5.8726   -1.1883   -0.5725 H   0  0  0  0  0  0  0  0  0  0  0  0
   -4.6632    1.1665   -1.1195 H   0  0  0  0  0  0  0  0  0  0  0  0
   -4.6812    0.8044    0.5915 H   0  0  0  0  0  0  0  0  0  0  0  0
   -3.1493    2.1260    1.8255 H   0  0  0  0  0  0  0  0  0  0  0  0
   -2.1766    1.0816   -2.2453 H   0  0  0  0  0  0  0  0  0  0  0  0
   -1.0746    3.4445    1.9777 H   0  0  0  0  0  0  0  0  0  0  0  0
   -0.1103    2.3973   -2.0886 H   0  0  0  0  0  0  0  0  0  0  0  0
    0.9910   -2.2909   -1.6630 H   0  0  0  0  0  0  0  0  0  0  0  0
    2.4960   -0.8926    2.1341 H   0  0  0  0  0  0  0  0  0  0  0  0
    3.3273   -2.5590   -2.3943 H   0  0  0  0  0  0  0  0  0  0  0  0
    6.3532   -0.5990    0.3170 H   0  0  0  0  0  0  0  0  0  0  0  0
    6.3545   -2.2920    0.9396 H   0  0  0  0  0  0  0  0  0  0  0  0
    7.3989   -1.8274   -0.4123 H   0  0  0  0  0  0  0  0  0  0  0  0
  1 29  1  0  0  0  0
  2 29  1  0  0  0  0
  3 29  1  0  0  0  0
  4  9  1  0  0  0  0
  4 16  1  0  0  0  0
  5 23  1  0  0  0  0
  5 29  1  0  0  0  0
  6 28  1  0  0  0  0
  6 30  1  0  0  0  0
  7 11  1  0  0  0  0
  7 14  1  0  0  0  0
  7 15  1  0  0  0  0
  8 16  2  0  0  0  0
  8 20  1  0  0  0  0
  9 20  2  0  0  0  0
 10 26  1  0  0  0  0
 10 28  2  0  0  0  0
 11 12  1  0  0  0  0
 11 16  1  0  0  0  0
 11 31  1  0  0  0  0
 12 13  1  0  0  0  0
 12 32  1  0  0  0  0
 12 33  1  0  0  0  0
 13 14  1  0  0  0  0
 13 34  1  0  0  0  0
 13 35  1  0  0  0  0
 14 36  1  0  0  0  0
 14 37  1  0  0  0  0
 15 17  1  0  0  0  0
 15 38  1  0  0  0  0
 15 39  1  0  0  0  0
 17 18  2  0  0  0  0
 17 19  1  0  0  0  0
 18 21  1  0  0  0  0
 18 40  1  0  0  0  0
 19 22  2  0  0  0  0
 19 41  1  0  0  0  0
 20 24  1  0  0  0  0
 21 23  2  0  0  0  0
 21 42  1  0  0  0  0
 22 23  1  0  0  0  0
 22 43  1  0  0  0  0
 24 25  1  0  0  0  0
 24 26  2  0  0  0  0
 25 27  2  0  0  0  0
 25 44  1  0  0  0  0
 26 45  1  0  0  0  0
 27 28  1  0  0  0  0
 27 46  1  0  0  0  0
 30 47  1  0  0  0  0
 30 48  1  0  0  0  0
 30 49  1  0  0  0  0
M  END
> <PUBCHEM_COMPOUND_CID>
45783686

> <PUBCHEM_CONFORMER_RMSD>
1

> <PUBCHEM_CONFORMER_DIVERSEORDER>
1
69
67
45
47
12
71
79
25
6
63
80
86
62
78
35
72
52
34
82
4
53
17
31
3
88
60
92
55
22
49
50
24
64
99
84
15
36
44
91
48
32
40
56
75
46
89
43
98
23
85
97
33
93
66
58
42
101
65
39
70
21
28
37
59
7
73
2
96
13
74
8
18
81
68
51
16
94
5
14
83
38
90
26
27
10
95
20
76
54
30
87
11
100
61
19
29
57
41
77
9

> <PUBCHEM_MMFF94_PARTIAL_CHARGES>
35
1 -0.34
10 -0.62
11 0.45
14 0.27
15 0.41
16 0.3
17 -0.14
18 -0.15
19 -0.15
2 -0.34
20 0.46
21 -0.15
22 -0.15
23 0.08
24 0.05
25 -0.15
26 0.16
27 -0.15
28 0.39
29 1.3
3 -0.34
30 0.28
4 -0.02
40 0.15
41 0.15
42 0.15
43 0.15
44 0.15
45 0.15
46 0.15
5 -0.36
6 -0.36
7 -0.81
8 -0.57
9 -0.41

> <PUBCHEM_EFFECTIVE_ROTOR_COUNT>
8

> <PUBCHEM_PHARMACOPHORE_FEATURES>
7
1 5 acceptor
1 7 cation
3 8 9 20 cation
5 4 8 9 16 20 rings
5 7 11 12 13 14 rings
6 10 24 25 26 27 28 rings
6 17 18 19 21 22 23 rings

> <PUBCHEM_HEAVY_ATOM_COUNT>
30

> <PUBCHEM_ATOM_DEF_STEREO_COUNT>
1

> <PUBCHEM_ATOM_UDEF_STEREO_COUNT>
0

> <PUBCHEM_BOND_DEF_STEREO_COUNT>
0

> <PUBCHEM_BOND_UDEF_STEREO_COUNT>
0

> <PUBCHEM_ISOTOPIC_ATOM_COUNT>
0

> <PUBCHEM_COMPONENT_COUNT>
1

> <PUBCHEM_CACTVS_TAUTO_COUNT>
1

> <PUBCHEM_CONFORMER_ID>
02BA9A8600000001

> <PUBCHEM_MMFF94_ENERGY>
72.4917

> <PUBCHEM_FEATURE_SELFOVERLAP>
35.523

> <PUBCHEM_SHAPE_FINGERPRINT>
10498660 4 17831857954158643364
1100329 8 18338518530740940465
11488393 25 17688883350937171827
11513181 2 18199749309400379559
12156800 1 15504864885507440204
12788726 201 18189048694782806275
13761468 95 17177167997880302270
14790565 3 17474953121166380529
14910302 57 17985823722732263510
15876981 60 18335148544428125646
15961568 22 18337664317606636880
17492 54 17898842457971405429
18336668 15 17968105170676490580
19319366 153 17244707758995710531
19930381 70 18124032588067718439
20642791 35 18262506014937030741
20691752 17 17313090978463112233
20764821 26 18336283274988110260
20775438 99 17476047591193758559
20775530 9 18408599271216687219
20905425 154 18265331888389625453
21033648 29 17560220441432011250
21344244 246 18051685848310645927
23557571 272 18270960146288354463
23559900 14 18340194263422500513
23566358 2 18262782091076293821
3027735 51 18122917678998543393
3298306 158 17903918103891834701
4280585 95 18337379457615227210
469060 322 17170710720672110297
531348 171 18052825745548080710
57527585 103 17387709425123373011
6287921 2 18273214192416986241
70251023 43 18410015454968070747
7471813 234 18411419544269831014

> <PUBCHEM_SHAPE_MULTIPOLES>
558.03
9.92
5.05
1.43
8.58
4.61
0.16
-9.01
-2.51
0.09
-0.55
-0.2
-0.2
-0.13

> <PUBCHEM_SHAPE_SELFOVERLAP>
1212.622

> <PUBCHEM_SHAPE_VOLUME>
308.1

> <PUBCHEM_COORDINATE_TYPE>
2
5
10

$$$$
