75536096
  -OEChem-12032416293D

 49 51  0     1  0  0  0  0  0999 V2000
   -1.7527    2.8545    0.2851 S   0  0  0  0  0  0  0  0  0  0  0  0
    4.2976    0.0901    1.0267 F   0  0  0  0  0  0  0  0  0  0  0  0
    4.1549   -0.0002   -1.1411 F   0  0  0  0  0  0  0  0  0  0  0  0
    4.8622    1.8098   -0.1781 F   0  0  0  0  0  0  0  0  0  0  0  0
   -3.8995   -1.0232    1.7185 O   0  0  0  0  0  0  0  0  0  0  0  0
   -5.5104   -1.9388   -0.3251 O   0  0  0  0  0  0  0  0  0  0  0  0
   -2.1047    2.9521    1.6888 O   0  0  0  0  0  0  0  0  0  0  0  0
   -1.8375    4.0222   -0.5711 O   0  0  0  0  0  0  0  0  0  0  0  0
    3.0246   -2.9906    0.1471 O   0  0  0  0  0  0  0  0  0  0  0  0
   -2.6269    1.5861   -0.4302 N   0  0  0  0  0  0  0  0  0  0  0  0
   -2.5714    0.2228    0.1600 C   0  0  2  0  0  0  0  0  0  0  0  0
   -2.0807   -0.7826   -0.9179 C   0  0  2  0  0  0  0  0  0  0  0  0
   -3.9887   -0.2265    0.5384 C   0  0  1  0  0  0  0  0  0  0  0  0
   -3.1882   -1.8451   -1.0205 C   0  0  0  0  0  0  0  0  0  0  0  0
   -4.4434   -1.0713   -0.6487 C   0  0  1  0  0  0  0  0  0  0  0  0
   -0.7171   -1.3726   -0.6341 C   0  0  0  0  0  0  0  0  0  0  0  0
    0.3194   -1.2090   -1.5532 C   0  0  0  0  0  0  0  0  0  0  0  0
   -0.4960   -2.0800    0.5476 C   0  0  0  0  0  0  0  0  0  0  0  0
   -0.0924    2.2569    0.1800 C   0  0  0  0  0  0  0  0  0  0  0  0
    1.5766   -1.7530   -1.2908 C   0  0  0  0  0  0  0  0  0  0  0  0
    0.7612   -2.6241    0.8101 C   0  0  0  0  0  0  0  0  0  0  0  0
    1.7975   -2.4606   -0.1092 C   0  0  0  0  0  0  0  0  0  0  0  0
    0.4413    1.4951    1.2195 C   0  0  0  0  0  0  0  0  0  0  0  0
    0.6848    2.5495   -0.9407 C   0  0  0  0  0  0  0  0  0  0  0  0
    1.7521    1.0258    1.1383 C   0  0  0  0  0  0  0  0  0  0  0  0
    1.9958    2.0801   -1.0218 C   0  0  0  0  0  0  0  0  0  0  0  0
    2.5295    1.3182    0.0175 C   0  0  0  0  0  0  0  0  0  0  0  0
    3.9313    0.8163   -0.0693 C   0  0  0  0  0  0  0  0  0  0  0  0
    3.1809   -3.7020    1.3742 C   0  0  0  0  0  0  0  0  0  0  0  0
   -1.9410    0.2218    1.0513 H   0  0  0  0  0  0  0  0  0  0  0  0
   -2.0356   -0.2723   -1.8909 H   0  0  0  0  0  0  0  0  0  0  0  0
   -4.6843    0.5939    0.7425 H   0  0  0  0  0  0  0  0  0  0  0  0
   -3.2563   -2.2684   -2.0289 H   0  0  0  0  0  0  0  0  0  0  0  0
   -3.0429   -2.6931   -0.3404 H   0  0  0  0  0  0  0  0  0  0  0  0
   -4.7517   -0.4236   -1.4784 H   0  0  0  0  0  0  0  0  0  0  0  0
   -3.0194    1.6842   -1.3740 H   0  0  0  0  0  0  0  0  0  0  0  0
   -3.6045   -0.4425    2.4406 H   0  0  0  0  0  0  0  0  0  0  0  0
   -5.6786   -2.4982   -1.1024 H   0  0  0  0  0  0  0  0  0  0  0  0
    0.1633   -0.6615   -2.4788 H   0  0  0  0  0  0  0  0  0  0  0  0
   -1.2890   -2.2162    1.2776 H   0  0  0  0  0  0  0  0  0  0  0  0
    2.3770   -1.6284   -2.0146 H   0  0  0  0  0  0  0  0  0  0  0  0
    0.8642   -3.1602    1.7473 H   0  0  0  0  0  0  0  0  0  0  0  0
   -0.1406    1.2613    2.1063 H   0  0  0  0  0  0  0  0  0  0  0  0
    0.2871    3.1341   -1.7652 H   0  0  0  0  0  0  0  0  0  0  0  0
    2.1495    0.4354    1.9592 H   0  0  0  0  0  0  0  0  0  0  0  0
    2.5930    2.3106   -1.9000 H   0  0  0  0  0  0  0  0  0  0  0  0
    4.2167   -4.0549    1.4134 H   0  0  0  0  0  0  0  0  0  0  0  0
    2.5392   -4.5889    1.4099 H   0  0  0  0  0  0  0  0  0  0  0  0
    3.0334   -3.0471    2.2397 H   0  0  0  0  0  0  0  0  0  0  0  0
  1  7  2  0  0  0  0
  1  8  2  0  0  0  0
  1 10  1  0  0  0  0
  1 19  1  0  0  0  0
  2 28  1  0  0  0  0
  3 28  1  0  0  0  0
  4 28  1  0  0  0  0
  5 13  1  0  0  0  0
  5 37  1  0  0  0  0
  6 15  1  0  0  0  0
  6 38  1  0  0  0  0
  9 22  1  0  0  0  0
  9 29  1  0  0  0  0
 10 11  1  0  0  0  0
 10 36  1  0  0  0  0
 11 12  1  0  0  0  0
 11 13  1  0  0  0  0
 11 30  1  0  0  0  0
 12 14  1  0  0  0  0
 12 16  1  0  0  0  0
 12 31  1  0  0  0  0
 13 15  1  0  0  0  0
 13 32  1  0  0  0  0
 14 15  1  0  0  0  0
 14 33  1  0  0  0  0
 14 34  1  0  0  0  0
 15 35  1  0  0  0  0
 16 17  2  0  0  0  0
 16 18  1  0  0  0  0
 17 20  1  0  0  0  0
 17 39  1  0  0  0  0
 18 21  2  0  0  0  0
 18 40  1  0  0  0  0
 19 23  2  0  0  0  0
 19 24  1  0  0  0  0
 20 22  2  0  0  0  0
 20 41  1  0  0  0  0
 21 22  1  0  0  0  0
 21 42  1  0  0  0  0
 23 25  1  0  0  0  0
 23 43  1  0  0  0  0
 24 26  2  0  0  0  0
 24 44  1  0  0  0  0
 25 27  2  0  0  0  0
 25 45  1  0  0  0  0
 26 27  1  0  0  0  0
 26 46  1  0  0  0  0
 27 28  1  0  0  0  0
 29 47  1  0  0  0  0
 29 48  1  0  0  0  0
 29 49  1  0  0  0  0
M  END
> <PUBCHEM_COMPOUND_CID>
75536096

> <PUBCHEM_CONFORMER_RMSD>
0.8

> <PUBCHEM_CONFORMER_DIVERSEORDER>
1
4
13
2
24
25
21
27
3
26
29
8
17
16
7
23
28
5
20
6
12
19
9
10
14
22
11
15
18

> <PUBCHEM_MMFF94_PARTIAL_CHARGES>
39
1 1.45
10 -0.91
11 0.36
12 0.14
13 0.28
15 0.28
16 -0.14
17 -0.15
18 -0.15
19 -0.01
2 -0.34
20 -0.15
21 -0.15
22 0.08
23 -0.15
24 -0.15
25 -0.15
26 -0.15
27 -0.14
28 1.16
29 0.28
3 -0.34
36 0.42
37 0.4
38 0.4
39 0.15
4 -0.34
40 0.15
41 0.15
42 0.15
43 0.15
44 0.15
45 0.15
46 0.15
5 -0.68
6 -0.68
7 -0.65
8 -0.65
9 -0.36

> <PUBCHEM_EFFECTIVE_ROTOR_COUNT>
7

> <PUBCHEM_PHARMACOPHORE_FEATURES>
11
1 10 donor
1 5 acceptor
1 5 donor
1 6 acceptor
1 6 donor
1 7 acceptor
1 8 acceptor
1 9 acceptor
5 11 12 13 14 15 rings
6 16 17 18 20 21 22 rings
6 19 23 24 25 26 27 rings

> <PUBCHEM_HEAVY_ATOM_COUNT>
29

> <PUBCHEM_ATOM_DEF_STEREO_COUNT>
4

> <PUBCHEM_ATOM_UDEF_STEREO_COUNT>
0

> <PUBCHEM_BOND_DEF_STEREO_COUNT>
0

> <PUBCHEM_BOND_UDEF_STEREO_COUNT>
0

> <PUBCHEM_ISOTOPIC_ATOM_COUNT>
0

> <PUBCHEM_COMPONENT_COUNT>
1

> <PUBCHEM_CACTVS_TAUTO_COUNT>
1

> <PUBCHEM_CONFORMER_ID>
048096E000000001

> <PUBCHEM_MMFF94_ENERGY>
69.1057

> <PUBCHEM_FEATURE_SELFOVERLAP>
55.851

> <PUBCHEM_SHAPE_FINGERPRINT>
104564 63 18342739602570536356
10863032 1 18267584602704426924
1100329 8 18050845812483363591
11513181 2 17987231140866021582
11578080 2 17678162811532601303
12156800 1 16235004210321046533
12422481 6 18200322004560371985
12553582 1 18339632464425615873
12788726 201 18340495572711833920
13140716 1 18051694635422914496
13965767 371 17700446652906624857
14117953 113 16825868462095993820
14178342 30 18341894026795397744
14223421 5 18339360747366428637
14787075 74 18334855069144217891
14790565 3 18266465492983247285
15209289 33 18201441449126366225
19591789 44 18122625225995590751
20691752 17 18041574524310966652
20905425 154 18271527511330486677
21421861 104 18338525135788419947
22113638 7 18124872623288209605
23227448 37 17978224954969717276
23558518 356 18264496091922430737
2818148 4 18120941603411232646
3052486 1 18336559239242381148
392239 28 18334583438042763203
463206 1 18198056091917175111
469060 322 18337118946537828433
474 4 18265050417354805071
484985 159 15440948998758313514
59755656 215 18410851092647679559

> <PUBCHEM_SHAPE_MULTIPOLES>
544.51
7.98
4.58
1.38
1.71
0.69
-0.15
-2.51
-0.31
-0.98
-0.6
-0.02
-0.17
-1.14

> <PUBCHEM_SHAPE_SELFOVERLAP>
1157.515

> <PUBCHEM_SHAPE_VOLUME>
308.2

> <PUBCHEM_COORDINATE_TYPE>
2
5
10

$$$$
