75536104
  -OEChem-12032416293D

 50 52  0     1  0  0  0  0  0999 V2000
    2.0023    3.1650   -1.4296 O   0  0  0  0  0  0  0  0  0  0  0  0
    1.5995    4.6227    0.8927 O   0  0  0  0  0  0  0  0  0  0  0  0
    4.9510   -3.2054    0.0498 O   0  0  0  0  0  0  0  0  0  0  0  0
   -5.3247   -0.9432    1.7188 O   0  0  0  0  0  0  0  0  0  0  0  0
   -0.9203    1.1982   -0.5737 N   0  0  0  0  0  0  0  0  0  0  0  0
    0.5218    1.4464   -0.6335 C   0  0  2  0  0  0  0  0  0  0  0  0
    1.1876    0.9783    0.6975 C   0  0  2  0  0  0  0  0  0  0  0  0
    0.7897    2.9580   -0.7065 C   0  0  1  0  0  0  0  0  0  0  0  0
    1.7916    2.2452    1.3338 C   0  0  0  0  0  0  0  0  0  0  0  0
    0.9530    3.3740    0.7522 C   0  0  1  0  0  0  0  0  0  0  0  0
    2.1933   -0.1398    0.5249 C   0  0  0  0  0  0  0  0  0  0  0  0
   -1.2185   -0.2003   -0.8476 C   0  0  0  0  0  0  0  0  0  0  0  0
    3.3031    0.0421   -0.3003 C   0  0  0  0  0  0  0  0  0  0  0  0
    2.0105   -1.3519    1.1906 C   0  0  0  0  0  0  0  0  0  0  0  0
   -2.6962   -0.4816   -0.7833 C   0  0  0  0  0  0  0  0  0  0  0  0
    4.2300   -0.9879   -0.4598 C   0  0  0  0  0  0  0  0  0  0  0  0
    2.9373   -2.3820    1.0311 C   0  0  0  0  0  0  0  0  0  0  0  0
    4.0472   -2.1999    0.2060 C   0  0  0  0  0  0  0  0  0  0  0  0
   -3.3341   -0.5832    0.4531 C   0  0  0  0  0  0  0  0  0  0  0  0
   -3.4273   -0.6411   -1.9606 C   0  0  0  0  0  0  0  0  0  0  0  0
   -4.7030   -0.8441    0.5121 C   0  0  0  0  0  0  0  0  0  0  0  0
   -4.7961   -0.9022   -1.9013 C   0  0  0  0  0  0  0  0  0  0  0  0
   -5.4341   -1.0038   -0.6650 C   0  0  0  0  0  0  0  0  0  0  0  0
    6.0623   -2.9516   -0.8085 C   0  0  0  0  0  0  0  0  0  0  0  0
   -6.7260   -1.2119    1.7069 C   0  0  0  0  0  0  0  0  0  0  0  0
    0.9487    0.9535   -1.5161 H   0  0  0  0  0  0  0  0  0  0  0  0
    0.4088    0.6302    1.3921 H   0  0  0  0  0  0  0  0  0  0  0  0
    0.0104    3.5382   -1.2114 H   0  0  0  0  0  0  0  0  0  0  0  0
    1.7298    2.2200    2.4277 H   0  0  0  0  0  0  0  0  0  0  0  0
    2.8517    2.3886    1.0920 H   0  0  0  0  0  0  0  0  0  0  0  0
   -0.0237    3.4222    1.2486 H   0  0  0  0  0  0  0  0  0  0  0  0
   -1.3885    1.7737   -1.2743 H   0  0  0  0  0  0  0  0  0  0  0  0
    1.8499    2.8721   -2.3443 H   0  0  0  0  0  0  0  0  0  0  0  0
   -0.7250   -0.8636   -0.1276 H   0  0  0  0  0  0  0  0  0  0  0  0
   -0.8381   -0.4858   -1.8371 H   0  0  0  0  0  0  0  0  0  0  0  0
    1.7460    4.7707    1.8425 H   0  0  0  0  0  0  0  0  0  0  0  0
    3.4654    0.9769   -0.8282 H   0  0  0  0  0  0  0  0  0  0  0  0
    1.1511   -1.5098    1.8367 H   0  0  0  0  0  0  0  0  0  0  0  0
    5.0686   -0.7795   -1.1153 H   0  0  0  0  0  0  0  0  0  0  0  0
    2.7894   -3.3241    1.5520 H   0  0  0  0  0  0  0  0  0  0  0  0
   -2.7690   -0.4604    1.3740 H   0  0  0  0  0  0  0  0  0  0  0  0
   -2.9440   -0.5625   -2.9308 H   0  0  0  0  0  0  0  0  0  0  0  0
   -5.3646   -1.0257   -2.8186 H   0  0  0  0  0  0  0  0  0  0  0  0
   -6.4989   -1.2081   -0.6917 H   0  0  0  0  0  0  0  0  0  0  0  0
    6.6782   -3.8569   -0.8159 H   0  0  0  0  0  0  0  0  0  0  0  0
    6.6906   -2.1408   -0.4243 H   0  0  0  0  0  0  0  0  0  0  0  0
    5.7415   -2.7749   -1.8407 H   0  0  0  0  0  0  0  0  0  0  0  0
   -7.0552   -1.2577    2.7502 H   0  0  0  0  0  0  0  0  0  0  0  0
   -6.9449   -2.1874    1.2595 H   0  0  0  0  0  0  0  0  0  0  0  0
   -7.2871   -0.4012    1.2299 H   0  0  0  0  0  0  0  0  0  0  0  0
  1  8  1  0  0  0  0
  1 33  1  0  0  0  0
  2 10  1  0  0  0  0
  2 36  1  0  0  0  0
  3 18  1  0  0  0  0
  3 24  1  0  0  0  0
  4 21  1  0  0  0  0
  4 25  1  0  0  0  0
  5  6  1  0  0  0  0
  5 12  1  0  0  0  0
  5 32  1  0  0  0  0
  6  7  1  0  0  0  0
  6  8  1  0  0  0  0
  6 26  1  0  0  0  0
  7  9  1  0  0  0  0
  7 11  1  0  0  0  0
  7 27  1  0  0  0  0
  8 10  1  0  0  0  0
  8 28  1  0  0  0  0
  9 10  1  0  0  0  0
  9 29  1  0  0  0  0
  9 30  1  0  0  0  0
 10 31  1  0  0  0  0
 11 13  2  0  0  0  0
 11 14  1  0  0  0  0
 12 15  1  0  0  0  0
 12 34  1  0  0  0  0
 12 35  1  0  0  0  0
 13 16  1  0  0  0  0
 13 37  1  0  0  0  0
 14 17  2  0  0  0  0
 14 38  1  0  0  0  0
 15 19  2  0  0  0  0
 15 20  1  0  0  0  0
 16 18  2  0  0  0  0
 16 39  1  0  0  0  0
 17 18  1  0  0  0  0
 17 40  1  0  0  0  0
 19 21  1  0  0  0  0
 19 41  1  0  0  0  0
 20 22  2  0  0  0  0
 20 42  1  0  0  0  0
 21 23  2  0  0  0  0
 22 23  1  0  0  0  0
 22 43  1  0  0  0  0
 23 44  1  0  0  0  0
 24 45  1  0  0  0  0
 24 46  1  0  0  0  0
 24 47  1  0  0  0  0
 25 48  1  0  0  0  0
 25 49  1  0  0  0  0
 25 50  1  0  0  0  0
M  END
> <PUBCHEM_COMPOUND_CID>
75536104

> <PUBCHEM_CONFORMER_RMSD>
0.8

> <PUBCHEM_CONFORMER_DIVERSEORDER>
2
98
64
92
90
32
53
113
103
122
78
89
118
5
45
88
39
48
116
16
115
44
120
124
72
52
117
129
121
81
61
27
24
104
70
35
86
107
12
20
56
73
60
109
132
131
63
50
66
65
26
37
38
96
136
79
137
8
114
14
30
105
77
34
49
22
130
85
100
62
31
3
18
133
123
9
19
125
94
138
57
111
99
119
76
83
42
74
40
101
43
108
68
41
28
67
59
127
97
75
46
134
10
135
11
106
126
47
7
17
23
95
6
112
82
51
71
29
84
93
55
128
36
21
110
13
69
87
54
102
4
58
91
33
15
80
25
1

> <PUBCHEM_MMFF94_PARTIAL_CHARGES>
35
1 -0.68
10 0.28
11 -0.14
12 0.41
13 -0.15
14 -0.15
15 -0.14
16 -0.15
17 -0.15
18 0.08
19 -0.15
2 -0.68
20 -0.15
21 0.08
22 -0.15
23 -0.15
24 0.28
25 0.28
3 -0.36
32 0.36
33 0.4
36 0.4
37 0.15
38 0.15
39 0.15
4 -0.36
40 0.15
41 0.15
42 0.15
43 0.15
44 0.15
5 -0.9
6 0.27
7 0.14
8 0.28

> <PUBCHEM_EFFECTIVE_ROTOR_COUNT>
7

> <PUBCHEM_PHARMACOPHORE_FEATURES>
11
1 1 acceptor
1 1 donor
1 2 acceptor
1 2 donor
1 3 acceptor
1 4 acceptor
1 5 cation
1 5 donor
5 6 7 8 9 10 rings
6 11 13 14 16 17 18 rings
6 15 19 20 21 22 23 rings

> <PUBCHEM_HEAVY_ATOM_COUNT>
25

> <PUBCHEM_ATOM_DEF_STEREO_COUNT>
4

> <PUBCHEM_ATOM_UDEF_STEREO_COUNT>
0

> <PUBCHEM_BOND_DEF_STEREO_COUNT>
0

> <PUBCHEM_BOND_UDEF_STEREO_COUNT>
0

> <PUBCHEM_ISOTOPIC_ATOM_COUNT>
0

> <PUBCHEM_COMPONENT_COUNT>
1

> <PUBCHEM_CACTVS_TAUTO_COUNT>
1

> <PUBCHEM_CONFORMER_ID>
048096E800000002

> <PUBCHEM_MMFF94_ENERGY>
89.6385

> <PUBCHEM_FEATURE_SELFOVERLAP>
55.831

> <PUBCHEM_SHAPE_FINGERPRINT>
10319926 262 14979956982151083671
10369192 42 16954510708123344348
10794284 68 17911274683123153120
10928967 22 18338504262285187479
114674 6 18188477073105512434
11809386 21 17831011331002380034
11991303 11 17613723613247075924
12107183 9 18201726094490334425
12342043 65 17895206540722665059
12553582 1 18339067216527820362
12788726 201 17760351206893103096
13009979 54 18201164251889792057
13103583 49 16988836164035707470
13402501 40 17822017514591375411
13533116 47 18337112392992247115
13631057 29 18194396698635657070
13673619 4 17894920615932858507
13757389 114 17763474911387034140
13911852 28 18269830934866930791
13955234 65 18267304428950125161
14251764 30 18334863787875276251
14739800 52 16270220794870314913
14955137 171 18341058453613267751
15081414 286 18411695521820024560
15142526 21 17121126375686853593
15188451 53 16414612952945572215
15806764 133 17748817545288603157
15842332 3 17630597045636528157
16992787 43 18339650053013336996
17349148 13 17417520419689568295
17818456 19 17846501401042976201
1813 80 18272656718536311566
20645477 70 18189878985238759079
20775530 9 18338227163979572514
21120745 212 18196380217385357260
21365058 113 18113628880086037445
21521721 280 18192716863695664512
21591331 117 18340776948561106766
2215653 11 17968362504027269087
22849341 161 18272376360298453283
22950370 63 18340770347259630790
23559900 14 17167858691016213911
314194 84 18411134749046095030
3421961 26 18341040895849881992
46194498 28 17168432674096832527
5486654 36 18335705975506748601
57527585 21 14927362805841695254
621550 5 18040714740636053973
6823239 73 16660641903621695013
7970288 3 18342168934482601398
8863177 126 18114187483881403131
9841814 1 18261936518841339296

> <PUBCHEM_SHAPE_MULTIPOLES>
486.03
13.32
4.27
1.63
13.02
4.54
0.08
-15.16
-1.11
-7.26
-0.5
2.04
-0.13
0.64

> <PUBCHEM_SHAPE_SELFOVERLAP>
1032.272

> <PUBCHEM_SHAPE_VOLUME>
273.2

> <PUBCHEM_COORDINATE_TYPE>
2
5
10

$$$$
