51137092
  -OEChem-12032416243D

 45 48  0     1  0  0  0  0  0999 V2000
    4.4474   -1.9137    0.1438 S   0  0  0  0  0  0  0  0  0  0  0  0
   -7.0065   -0.0252    0.2967 S   0  0  0  0  0  0  0  0  0  0  0  0
   -7.5735    1.3008    0.5010 O   0  0  0  0  0  0  0  0  0  0  0  0
   -7.6241   -0.9363   -0.6564 O   0  0  0  0  0  0  0  0  0  0  0  0
   -0.3207   -0.2744   -0.3291 N   0  0  1  0  0  0  0  0  0  0  0  0
    3.7485    0.5689    0.1477 N   0  0  0  0  0  0  0  0  0  0  0  0
    1.8201   -1.0155    0.2768 C   0  0  2  0  0  0  0  0  0  0  0  0
    1.0051   -0.4899   -0.9126 C   0  0  0  0  0  0  0  0  0  0  0  0
    1.0942   -0.4689    1.5184 C   0  0  0  0  0  0  0  0  0  0  0  0
   -0.0646    0.3522    0.9677 C   0  0  0  0  0  0  0  0  0  0  0  0
   -1.1757    0.5408   -1.1793 C   0  0  0  0  0  0  0  0  0  0  0  0
    3.2861   -0.6588    0.1900 C   0  0  0  0  0  0  0  0  0  0  0  0
   -2.6291    0.4003   -0.8122 C   0  0  0  0  0  0  0  0  0  0  0  0
    5.7030   -0.7352    0.0583 C   0  0  0  0  0  0  0  0  0  0  0  0
    5.1334    0.5416    0.0720 C   0  0  0  0  0  0  0  0  0  0  0  0
   -3.3360   -0.7419   -1.1878 C   0  0  0  0  0  0  0  0  0  0  0  0
   -3.2686    1.4123   -0.0961 C   0  0  0  0  0  0  0  0  0  0  0  0
   -5.3219    0.1399   -0.1319 C   0  0  0  0  0  0  0  0  0  0  0  0
   -4.6824   -0.8722   -0.8478 C   0  0  0  0  0  0  0  0  0  0  0  0
   -4.6150    1.2821    0.2440 C   0  0  0  0  0  0  0  0  0  0  0  0
    7.0922   -0.9267   -0.0156 C   0  0  0  0  0  0  0  0  0  0  0  0
    5.9865    1.6647    0.0094 C   0  0  0  0  0  0  0  0  0  0  0  0
    7.9138    0.2016   -0.0765 C   0  0  0  0  0  0  0  0  0  0  0  0
    7.3703    1.4814   -0.0643 C   0  0  0  0  0  0  0  0  0  0  0  0
   -6.9825   -0.8279    1.8837 C   0  0  0  0  0  0  0  0  0  0  0  0
    1.7127   -2.1099    0.3007 H   0  0  0  0  0  0  0  0  0  0  0  0
    0.9758   -1.2208   -1.7281 H   0  0  0  0  0  0  0  0  0  0  0  0
    1.4255    0.4455   -1.3054 H   0  0  0  0  0  0  0  0  0  0  0  0
    0.7124   -1.3067    2.1155 H   0  0  0  0  0  0  0  0  0  0  0  0
    1.7367    0.1349    2.1680 H   0  0  0  0  0  0  0  0  0  0  0  0
   -0.9298    0.3067    1.6365 H   0  0  0  0  0  0  0  0  0  0  0  0
    0.2443    1.4003    0.8633 H   0  0  0  0  0  0  0  0  0  0  0  0
   -0.8711    1.5962   -1.1818 H   0  0  0  0  0  0  0  0  0  0  0  0
   -1.0812    0.2137   -2.2246 H   0  0  0  0  0  0  0  0  0  0  0  0
   -2.8483   -1.5380   -1.7443 H   0  0  0  0  0  0  0  0  0  0  0  0
   -2.7283    2.3057    0.2054 H   0  0  0  0  0  0  0  0  0  0  0  0
   -5.2111   -1.7738   -1.1442 H   0  0  0  0  0  0  0  0  0  0  0  0
   -5.0915    2.0789    0.8081 H   0  0  0  0  0  0  0  0  0  0  0  0
    7.5236   -1.9230   -0.0255 H   0  0  0  0  0  0  0  0  0  0  0  0
    5.5725    2.6690    0.0182 H   0  0  0  0  0  0  0  0  0  0  0  0
    8.9918    0.0755   -0.1341 H   0  0  0  0  0  0  0  0  0  0  0  0
    8.0250    2.3472   -0.1125 H   0  0  0  0  0  0  0  0  0  0  0  0
   -6.4496   -0.1938    2.5948 H   0  0  0  0  0  0  0  0  0  0  0  0
   -6.4913   -1.7976    1.7836 H   0  0  0  0  0  0  0  0  0  0  0  0
   -8.0158   -0.9660    2.2092 H   0  0  0  0  0  0  0  0  0  0  0  0
  1 12  1  0  0  0  0
  1 14  1  0  0  0  0
  2  3  2  0  0  0  0
  2  4  2  0  0  0  0
  2 18  1  0  0  0  0
  2 25  1  0  0  0  0
  5  8  1  0  0  0  0
  5 10  1  0  0  0  0
  5 11  1  0  0  0  0
  6 12  2  0  0  0  0
  6 15  1  0  0  0  0
  7  8  1  0  0  0  0
  7  9  1  0  0  0  0
  7 12  1  0  0  0  0
  7 26  1  0  0  0  0
  8 27  1  0  0  0  0
  8 28  1  0  0  0  0
  9 10  1  0  0  0  0
  9 29  1  0  0  0  0
  9 30  1  0  0  0  0
 10 31  1  0  0  0  0
 10 32  1  0  0  0  0
 11 13  1  0  0  0  0
 11 33  1  0  0  0  0
 11 34  1  0  0  0  0
 13 16  2  0  0  0  0
 13 17  1  0  0  0  0
 14 15  1  0  0  0  0
 14 21  2  0  0  0  0
 15 22  2  0  0  0  0
 16 19  1  0  0  0  0
 16 35  1  0  0  0  0
 17 20  2  0  0  0  0
 17 36  1  0  0  0  0
 18 19  2  0  0  0  0
 18 20  1  0  0  0  0
 19 37  1  0  0  0  0
 20 38  1  0  0  0  0
 21 23  1  0  0  0  0
 21 39  1  0  0  0  0
 22 24  1  0  0  0  0
 22 40  1  0  0  0  0
 23 24  2  0  0  0  0
 23 41  1  0  0  0  0
 24 42  1  0  0  0  0
 25 43  1  0  0  0  0
 25 44  1  0  0  0  0
 25 45  1  0  0  0  0
M  END
> <PUBCHEM_COMPOUND_CID>
51137092

> <PUBCHEM_CONFORMER_RMSD>
0.8

> <PUBCHEM_CONFORMER_DIVERSEORDER>
1
66
9
26
14
15
82
95
4
54
34
92
89
74
51
35
80
55
79
72
40
94
43
6
36
78
56
39
67
53
63
48
90
19
73
62
86
20
44
60
23
75
70
27
83
13
69
46
65
24
68
93
16
12
5
50
91
71
87
2
64
96
84
58
41
22
18
77
21
85
33
99
3
49
42
52
8
10
30
25
61
29
57
81
45
37
32
7
38
11
88
17
28
76
47
31
59
98
97

> <PUBCHEM_MMFF94_PARTIAL_CHARGES>
32
1 -0.08
10 0.27
11 0.41
12 0.2
13 -0.14
14 0.04
15 0.23
16 -0.15
17 -0.15
18 -0.01
19 -0.15
2 1.2
20 -0.15
21 -0.15
22 -0.15
23 -0.15
24 -0.15
25 0.11
3 -0.65
35 0.15
36 0.15
37 0.15
38 0.15
39 0.15
4 -0.65
40 0.15
41 0.15
42 0.15
5 -0.81
6 -0.57
7 0.18
8 0.27

> <PUBCHEM_EFFECTIVE_ROTOR_COUNT>
5

> <PUBCHEM_PHARMACOPHORE_FEATURES>
8
1 3 acceptor
1 4 acceptor
1 5 cation
1 6 acceptor
5 1 6 12 14 15 rings
5 5 7 8 9 10 rings
6 13 16 17 18 19 20 rings
6 14 15 21 22 23 24 rings

> <PUBCHEM_HEAVY_ATOM_COUNT>
25

> <PUBCHEM_ATOM_DEF_STEREO_COUNT>
1

> <PUBCHEM_ATOM_UDEF_STEREO_COUNT>
0

> <PUBCHEM_BOND_DEF_STEREO_COUNT>
0

> <PUBCHEM_BOND_UDEF_STEREO_COUNT>
0

> <PUBCHEM_ISOTOPIC_ATOM_COUNT>
0

> <PUBCHEM_COMPONENT_COUNT>
1

> <PUBCHEM_CACTVS_TAUTO_COUNT>
1

> <PUBCHEM_CONFORMER_ID>
030C4A4400000001

> <PUBCHEM_MMFF94_ENERGY>
49.0795

> <PUBCHEM_FEATURE_SELFOVERLAP>
40.686

> <PUBCHEM_SHAPE_FINGERPRINT>
10 15 18343867706312274223
10299344 5 18131068242509304415
10595046 47 18412542077022143784
106641 1 18335143111848032627
10670039 82 10159707867938407503
10883706 142 18409441497835616466
11315181 36 16587745331125905733
11638347 137 16443339854874138784
11646440 116 17313106345835258716
11719270 70 13190336855632101176
11724838 91 17967532398143126542
12166972 35 18334576841853983692
12236239 1 18131347502000035702
12516196 113 16732983115487424085
12730499 353 18187363212873078562
12838862 33 16370996434936452499
13177829 20 18261114084101453885
13533116 47 17241035502234432690
13885169 127 9655584002093703067
14123256 10 17675923192246088474
14170010 4 18113617906961768284
14251764 18 17775001297727611735
14251764 46 17749108889461719535
14461889 52 17749111110371360026
14849402 71 18337113483397917484
14856354 85 17489869367081430141
14933364 13 18413388726655878700
15142383 8 14045742617270447178
15183329 4 16415481549392014984
15419008 47 16153701037795850804
15461852 350 14707213227155101987
15475509 8 14476968886928931960
15716309 27 18410572872992512791
15728490 51 18260550073718885131
18335252 98 18334581247846539507
20157964 124 18408603657027162298
20735858 18 15791729702640449704
21095086 128 18343862221016974015
21150785 3 18201719561380781858
21521721 280 18335421278993342778
21792961 116 17060059190488612316
220451 1 17632571647855124318
22224240 67 17022902358848028394
23035841 295 17917709102076771943
23516275 137 17916043298891018143
23522609 53 17703245008515044049
23536379 177 18343862200153651270
23569943 247 17171230708358314514
2747138 104 17603592927883251972
28498 318 11023832768978582816
34797466 226 18272937120340754542
4073 2 18261395585043797026
4325135 7 18410292514575319980
4340502 62 17822007601948962298
5104073 3 16806433709143211928
5283156 175 17060623275009881526
5385378 56 15769505239838328503
5758199 1 18186520999022623706
59682541 35 17530968020373792128
5969126 39 14201391690906781967
9953998 17 18040440984643813273

> <PUBCHEM_SHAPE_MULTIPOLES>
500.49
25.42
1.49
1.13
2.74
0.1
-0.2
2.09
-2.73
-1.12
-0.07
1.56
-0.21
-0.05

> <PUBCHEM_SHAPE_SELFOVERLAP>
1060.314

> <PUBCHEM_SHAPE_VOLUME>
282.5

> <PUBCHEM_COORDINATE_TYPE>
2
5
10

$$$$
