26744389
  -OEChem-12032416373D

 47 51  0     1  0  0  0  0  0999 V2000
    6.0441    0.8842    1.1125 F   0  0  0  0  0  0  0  0  0  0  0  0
   -5.3554    2.0677    1.8417 O   0  0  0  0  0  0  0  0  0  0  0  0
   -0.9188    2.1376   -1.7362 O   0  0  0  0  0  0  0  0  0  0  0  0
   -3.0171   -0.1244    0.2612 N   0  0  1  0  0  0  0  0  0  0  0  0
   -0.2568    0.9997    0.0758 N   0  0  0  0  0  0  0  0  0  0  0  0
    0.1125   -2.3663   -2.1356 N   0  0  0  0  0  0  0  0  0  0  0  0
    0.4777    2.2395   -1.7011 N   0  0  0  0  0  0  0  0  0  0  0  0
   -2.7488    1.1334   -0.4650 C   0  0  1  0  0  0  0  0  0  0  0  0
   -3.4422    2.2258    0.3702 C   0  0  0  0  0  0  0  0  0  0  0  0
   -4.1102    1.4799    1.5185 C   0  0  2  0  0  0  0  0  0  0  0  0
   -4.2752    0.0720    0.9787 C   0  0  0  0  0  0  0  0  0  0  0  0
   -3.0586   -1.2924   -0.6090 C   0  0  0  0  0  0  0  0  0  0  0  0
   -1.2691    1.3925   -0.6553 C   0  0  0  0  0  0  0  0  0  0  0  0
   -1.6778   -1.7772   -0.9631 C   0  0  0  0  0  0  0  0  0  0  0  0
   -0.6678   -2.1963   -0.0525 C   0  0  0  0  0  0  0  0  0  0  0  0
   -1.1683   -1.8931   -2.2358 C   0  0  0  0  0  0  0  0  0  0  0  0
    0.4448   -2.5606   -0.8139 C   0  0  0  0  0  0  0  0  0  0  0  0
    0.7934    1.5433   -0.6049 C   0  0  0  0  0  0  0  0  0  0  0  0
   -0.5932   -2.3010    1.3507 C   0  0  0  0  0  0  0  0  0  0  0  0
    1.6331   -3.0262   -0.2399 C   0  0  0  0  0  0  0  0  0  0  0  0
    0.5890   -2.7651    1.9388 C   0  0  0  0  0  0  0  0  0  0  0  0
    2.1472    1.3735   -0.1621 C   0  0  0  0  0  0  0  0  0  0  0  0
    1.6838   -3.1216    1.1538 C   0  0  0  0  0  0  0  0  0  0  0  0
    2.4164    0.6369    0.9915 C   0  0  0  0  0  0  0  0  0  0  0  0
    3.1943    1.9444   -0.8853 C   0  0  0  0  0  0  0  0  0  0  0  0
    3.7327    0.4717    1.4221 C   0  0  0  0  0  0  0  0  0  0  0  0
    4.5108    1.7792   -0.4547 C   0  0  0  0  0  0  0  0  0  0  0  0
    4.7799    1.0429    0.6989 C   0  0  0  0  0  0  0  0  0  0  0  0
   -3.2284    1.1200   -1.4539 H   0  0  0  0  0  0  0  0  0  0  0  0
   -2.7488    2.9801    0.7599 H   0  0  0  0  0  0  0  0  0  0  0  0
   -4.1869    2.7537   -0.2387 H   0  0  0  0  0  0  0  0  0  0  0  0
   -3.4689    1.4828    2.4084 H   0  0  0  0  0  0  0  0  0  0  0  0
   -4.4074   -0.6515    1.7901 H   0  0  0  0  0  0  0  0  0  0  0  0
   -5.1507    0.0063    0.3192 H   0  0  0  0  0  0  0  0  0  0  0  0
   -3.6555   -1.1113   -1.5123 H   0  0  0  0  0  0  0  0  0  0  0  0
   -3.5483   -2.1249   -0.0843 H   0  0  0  0  0  0  0  0  0  0  0  0
   -5.1843    2.9876    2.1064 H   0  0  0  0  0  0  0  0  0  0  0  0
   -1.5999   -1.6804   -3.2040 H   0  0  0  0  0  0  0  0  0  0  0  0
    0.7263   -2.5461   -2.9181 H   0  0  0  0  0  0  0  0  0  0  0  0
   -1.4366   -2.0297    1.9790 H   0  0  0  0  0  0  0  0  0  0  0  0
    2.4864   -3.3024   -0.8500 H   0  0  0  0  0  0  0  0  0  0  0  0
    0.6527   -2.8472    3.0205 H   0  0  0  0  0  0  0  0  0  0  0  0
    2.5928   -3.4780    1.6316 H   0  0  0  0  0  0  0  0  0  0  0  0
    1.6218    0.1882    1.5811 H   0  0  0  0  0  0  0  0  0  0  0  0
    3.0235    2.5244   -1.7888 H   0  0  0  0  0  0  0  0  0  0  0  0
    3.9426   -0.1006    2.3210 H   0  0  0  0  0  0  0  0  0  0  0  0
    5.3267    2.2234   -1.0172 H   0  0  0  0  0  0  0  0  0  0  0  0
  1 28  1  0  0  0  0
  2 10  1  0  0  0  0
  2 37  1  0  0  0  0
  3  7  1  0  0  0  0
  3 13  1  0  0  0  0
  4  8  1  0  0  0  0
  4 11  1  0  0  0  0
  4 12  1  0  0  0  0
  5 13  2  0  0  0  0
  5 18  1  0  0  0  0
  6 16  1  0  0  0  0
  6 17  1  0  0  0  0
  6 39  1  0  0  0  0
  7 18  2  0  0  0  0
  8  9  1  0  0  0  0
  8 13  1  0  0  0  0
  8 29  1  0  0  0  0
  9 10  1  0  0  0  0
  9 30  1  0  0  0  0
  9 31  1  0  0  0  0
 10 11  1  0  0  0  0
 10 32  1  0  0  0  0
 11 33  1  0  0  0  0
 11 34  1  0  0  0  0
 12 14  1  0  0  0  0
 12 35  1  0  0  0  0
 12 36  1  0  0  0  0
 14 15  1  0  0  0  0
 14 16  2  0  0  0  0
 15 17  1  0  0  0  0
 15 19  2  0  0  0  0
 16 38  1  0  0  0  0
 17 20  2  0  0  0  0
 18 22  1  0  0  0  0
 19 21  1  0  0  0  0
 19 40  1  0  0  0  0
 20 23  1  0  0  0  0
 20 41  1  0  0  0  0
 21 23  2  0  0  0  0
 21 42  1  0  0  0  0
 22 24  2  0  0  0  0
 22 25  1  0  0  0  0
 23 43  1  0  0  0  0
 24 26  1  0  0  0  0
 24 44  1  0  0  0  0
 25 27  2  0  0  0  0
 25 45  1  0  0  0  0
 26 28  2  0  0  0  0
 26 46  1  0  0  0  0
 27 28  1  0  0  0  0
 27 47  1  0  0  0  0
M  END
> <PUBCHEM_COMPOUND_CID>
26744389

> <PUBCHEM_CONFORMER_RMSD>
0.8

> <PUBCHEM_CONFORMER_DIVERSEORDER>
1
92
41
95
71
26
2
21
37
98
50
103
106
94
88
110
79
83
42
65
43
38
58
18
35
99
78
109
54
62
8
3
81
32
30
48
31
19
55
66
64
97
76
101
39
13
72
56
107
29
36
82
28
73
80
57
108
33
25
86
16
23
10
105
93
104
59
17
40
46
52
53
90
4
45
100
63
5
11
75
87
60
51
68
49
102
7
96
20
22
91
61
24
74
12
70
34
9
67
47
77
89
84
15
14
44
69
85
6
27

> <PUBCHEM_MMFF94_PARTIAL_CHARGES>
37
1 -0.19
10 0.28
11 0.27
12 0.45
13 0.3
14 -0.18
16 -0.3
17 -0.15
18 0.46
19 -0.15
2 -0.68
20 -0.15
21 -0.15
22 0.05
23 -0.15
24 -0.15
25 -0.15
26 -0.15
27 -0.15
28 0.19
3 -0.02
37 0.4
38 0.15
39 0.27
4 -0.81
40 0.15
41 0.15
42 0.15
43 0.15
44 0.15
45 0.15
46 0.15
47 0.15
5 -0.57
6 0.03
7 -0.41
8 0.45

> <PUBCHEM_EFFECTIVE_ROTOR_COUNT>
5

> <PUBCHEM_PHARMACOPHORE_FEATURES>
11
1 2 acceptor
1 2 donor
1 4 cation
1 6 cation
1 6 donor
3 5 7 18 cation
5 3 5 7 13 18 rings
5 4 8 9 10 11 rings
5 6 14 15 16 17 rings
6 15 17 19 20 21 23 rings
6 22 24 25 26 27 28 rings

> <PUBCHEM_HEAVY_ATOM_COUNT>
28

> <PUBCHEM_ATOM_DEF_STEREO_COUNT>
2

> <PUBCHEM_ATOM_UDEF_STEREO_COUNT>
0

> <PUBCHEM_BOND_DEF_STEREO_COUNT>
0

> <PUBCHEM_BOND_UDEF_STEREO_COUNT>
0

> <PUBCHEM_ISOTOPIC_ATOM_COUNT>
0

> <PUBCHEM_COMPONENT_COUNT>
1

> <PUBCHEM_CACTVS_TAUTO_COUNT>
1

> <PUBCHEM_CONFORMER_ID>
0198164500000001

> <PUBCHEM_MMFF94_ENERGY>
50.9618

> <PUBCHEM_FEATURE_SELFOVERLAP>
55.915

> <PUBCHEM_SHAPE_FINGERPRINT>
10382601 240 18335707087423204363
12035759 4 18055888091652560599
12156800 1 16376126815910000634
12422481 6 18193256521866931858
12633257 1 17531249499518733587
12788726 201 17763763378311045717
13004483 165 16839366586450415959
13140716 1 18049164664016107641
14081887 123 17477187797266768576
14178342 30 18410867572548145629
14840074 17 17894634798565000468
15274700 242 17459165501145554944
15420108 30 18201156555919898341
16112460 7 18265893738858448904
16120349 306 18336812178540435480
20691752 17 18114187406144255951
20775438 99 15388622725577496886
20905425 154 18265615381531564407
23419403 2 17388809787191635551
23728640 28 18126285478608307950
3411729 13 18268441139827559665
35225 105 17697348409121970625
392239 28 17968093066989516059
5265222 85 18127143077073620644
6287921 2 17772185302172329207
6438718 38 18197498630857715278
7064713 232 18341608243902815448
81228 2 17905867525160110580
9862522 239 18337942424896568365

> <PUBCHEM_SHAPE_MULTIPOLES>
537.29
8.52
4.06
1.89
3.33
2.51
0.2
-7.49
-4.59
0.18
0.16
-0.56
0.53
-1.51

> <PUBCHEM_SHAPE_SELFOVERLAP>
1197.816

> <PUBCHEM_SHAPE_VOLUME>
289.5

> <PUBCHEM_COORDINATE_TYPE>
2
5
10

$$$$
