45360494
  -OEChem-12032416133D

 82 85  0     1  0  0  0  0  0999 V2000
    6.9852    1.3022   -1.0899 F   0  0  0  0  0  0  0  0  0  0  0  0
    4.9126    0.6328   -1.2675 F   0  0  0  0  0  0  0  0  0  0  0  0
    5.6986    2.2034   -2.6092 F   0  0  0  0  0  0  0  0  0  0  0  0
   -6.8066   -1.7444   -0.7351 O   0  0  0  0  0  0  0  0  0  0  0  0
   -1.0260    4.0247   -0.7524 O   0  0  0  0  0  0  0  0  0  0  0  0
   -7.0366    0.4733   -0.1419 O   0  0  0  0  0  0  0  0  0  0  0  0
    5.3547    2.7040   -0.4040 O   0  0  0  0  0  0  0  0  0  0  0  0
   -2.2996    2.7419    0.6899 N   0  0  0  0  0  0  0  0  0  0  0  0
    0.0323   -1.7569    0.9792 N   0  0  0  0  0  0  0  0  0  0  0  0
    2.6848   -2.6960    0.4874 N   0  0  0  0  0  0  0  0  0  0  0  0
    0.0039    3.0695    1.0918 N   0  0  0  0  0  0  0  0  0  0  0  0
    4.0152   -4.5472   -0.1504 N   0  0  0  0  0  0  0  0  0  0  0  0
   -3.0244    0.4706    1.3974 C   0  0  2  0  0  0  0  0  0  0  0  0
   -4.3145    0.6583    0.5601 C   0  0  1  0  0  0  0  0  0  0  0  0
   -2.4770    1.8418    1.8416 C   0  0  0  0  0  0  0  0  0  0  0  0
   -4.0967    1.6466   -0.5974 C   0  0  0  0  0  0  0  0  0  0  0  0
   -1.9291   -0.3307    0.6813 C   0  0  0  0  0  0  0  0  0  0  0  0
   -3.5179    2.9647   -0.0917 C   0  0  0  0  0  0  0  0  0  0  0  0
   -4.8927   -0.6587    0.0430 C   0  0  0  0  0  0  0  0  0  0  0  0
   -1.0119   -1.0151    1.6850 C   0  0  0  0  0  0  0  0  0  0  0  0
    0.6417   -2.7570    1.8644 C   0  0  0  0  0  0  0  0  0  0  0  0
    1.0633   -0.8416    0.4754 C   0  0  0  0  0  0  0  0  0  0  0  0
   -1.0876    3.3277    0.2639 C   0  0  0  0  0  0  0  0  0  0  0  0
   -6.3609   -0.5378   -0.2751 C   0  0  0  0  0  0  0  0  0  0  0  0
    1.6968   -3.5788    1.1203 C   0  0  0  0  0  0  0  0  0  0  0  0
    2.1339   -1.5990   -0.3142 C   0  0  0  0  0  0  0  0  0  0  0  0
   -8.1937   -1.7966   -1.0839 C   0  0  0  0  0  0  0  0  0  0  0  0
    3.9345   -3.2343    0.1612 C   0  0  0  0  0  0  0  0  0  0  0  0
    1.3657    2.9766    0.7107 C   0  0  0  0  0  0  0  0  0  0  0  0
   -9.0207   -1.4766    0.1606 C   0  0  0  0  0  0  0  0  0  0  0  0
   -8.4913   -3.2109   -1.5774 C   0  0  0  0  0  0  0  0  0  0  0  0
   -8.4558   -0.7751   -2.1895 C   0  0  0  0  0  0  0  0  0  0  0  0
    5.0202   -2.3734    0.1803 C   0  0  0  0  0  0  0  0  0  0  0  0
    2.3416    2.7101    1.6710 C   0  0  0  0  0  0  0  0  0  0  0  0
    1.7302    3.1514   -0.6243 C   0  0  0  0  0  0  0  0  0  0  0  0
    6.2688   -2.8937   -0.1416 C   0  0  0  0  0  0  0  0  0  0  0  0
    5.2450   -5.0171   -0.4575 C   0  0  0  0  0  0  0  0  0  0  0  0
    6.3919   -4.2398   -0.4677 C   0  0  0  0  0  0  0  0  0  0  0  0
    3.6820    2.6186    1.2965 C   0  0  0  0  0  0  0  0  0  0  0  0
    3.0707    3.0599   -0.9989 C   0  0  0  0  0  0  0  0  0  0  0  0
    4.0465    2.7935   -0.0385 C   0  0  0  0  0  0  0  0  0  0  0  0
    5.7227    1.7093   -1.3531 C   0  0  0  0  0  0  0  0  0  0  0  0
   -3.3148   -0.0784    2.3041 H   0  0  0  0  0  0  0  0  0  0  0  0
   -5.0494    1.1151    1.2395 H   0  0  0  0  0  0  0  0  0  0  0  0
   -1.5635    1.7110    2.4198 H   0  0  0  0  0  0  0  0  0  0  0  0
   -3.1991    2.3283    2.5094 H   0  0  0  0  0  0  0  0  0  0  0  0
   -3.4087    1.2107   -1.3331 H   0  0  0  0  0  0  0  0  0  0  0  0
   -5.0359    1.8499   -1.1229 H   0  0  0  0  0  0  0  0  0  0  0  0
   -1.3834    0.3219   -0.0058 H   0  0  0  0  0  0  0  0  0  0  0  0
   -2.3681   -1.1172    0.0581 H   0  0  0  0  0  0  0  0  0  0  0  0
   -4.2373    3.4718    0.5623 H   0  0  0  0  0  0  0  0  0  0  0  0
   -3.3278    3.6302   -0.9393 H   0  0  0  0  0  0  0  0  0  0  0  0
   -4.7956   -1.4336    0.8126 H   0  0  0  0  0  0  0  0  0  0  0  0
   -4.3762   -0.9882   -0.8653 H   0  0  0  0  0  0  0  0  0  0  0  0
   -0.5779   -0.3043    2.3981 H   0  0  0  0  0  0  0  0  0  0  0  0
   -1.6265   -1.7116    2.2708 H   0  0  0  0  0  0  0  0  0  0  0  0
   -0.1234   -3.4485    2.2379 H   0  0  0  0  0  0  0  0  0  0  0  0
    1.0996   -2.2728    2.7375 H   0  0  0  0  0  0  0  0  0  0  0  0
    1.5403   -0.3048    1.3061 H   0  0  0  0  0  0  0  0  0  0  0  0
    0.6431   -0.0901   -0.1993 H   0  0  0  0  0  0  0  0  0  0  0  0
    2.1831   -4.2461    1.8430 H   0  0  0  0  0  0  0  0  0  0  0  0
    1.2190   -4.2048    0.3558 H   0  0  0  0  0  0  0  0  0  0  0  0
    1.7035   -2.0082   -1.2373 H   0  0  0  0  0  0  0  0  0  0  0  0
    2.9084   -0.8834   -0.6105 H   0  0  0  0  0  0  0  0  0  0  0  0
   -0.1697    2.9067    2.0776 H   0  0  0  0  0  0  0  0  0  0  0  0
   -8.6474   -2.0286    1.0311 H   0  0  0  0  0  0  0  0  0  0  0  0
   -9.0382   -0.4189    0.4348 H   0  0  0  0  0  0  0  0  0  0  0  0
  -10.0686   -1.7607    0.0071 H   0  0  0  0  0  0  0  0  0  0  0  0
   -8.2576   -3.9498   -0.8023 H   0  0  0  0  0  0  0  0  0  0  0  0
   -7.8650   -3.4603   -2.4416 H   0  0  0  0  0  0  0  0  0  0  0  0
   -9.5410   -3.3305   -1.8644 H   0  0  0  0  0  0  0  0  0  0  0  0
   -9.4204   -0.9732   -2.6722 H   0  0  0  0  0  0  0  0  0  0  0  0
   -7.6787   -0.8237   -2.9612 H   0  0  0  0  0  0  0  0  0  0  0  0
   -8.5061    0.2618   -1.8476 H   0  0  0  0  0  0  0  0  0  0  0  0
    4.9292   -1.3278    0.4550 H   0  0  0  0  0  0  0  0  0  0  0  0
    2.0707    2.5700    2.7143 H   0  0  0  0  0  0  0  0  0  0  0  0
    1.0179    3.3331   -1.4193 H   0  0  0  0  0  0  0  0  0  0  0  0
    7.1450   -2.2523   -0.1338 H   0  0  0  0  0  0  0  0  0  0  0  0
    5.2874   -6.0729   -0.7041 H   0  0  0  0  0  0  0  0  0  0  0  0
    7.3554   -4.6671   -0.7208 H   0  0  0  0  0  0  0  0  0  0  0  0
    4.4377    2.4093    2.0487 H   0  0  0  0  0  0  0  0  0  0  0  0
    3.3416    3.1986   -2.0420 H   0  0  0  0  0  0  0  0  0  0  0  0
  1 42  1  0  0  0  0
  2 42  1  0  0  0  0
  3 42  1  0  0  0  0
  4 24  1  0  0  0  0
  4 27  1  0  0  0  0
  5 23  2  0  0  0  0
  6 24  2  0  0  0  0
  7 41  1  0  0  0  0
  7 42  1  0  0  0  0
  8 15  1  0  0  0  0
  8 18  1  0  0  0  0
  8 23  1  0  0  0  0
  9 20  1  0  0  0  0
  9 21  1  0  0  0  0
  9 22  1  0  0  0  0
 10 25  1  0  0  0  0
 10 26  1  0  0  0  0
 10 28  1  0  0  0  0
 11 23  1  0  0  0  0
 11 29  1  0  0  0  0
 11 65  1  0  0  0  0
 12 28  1  0  0  0  0
 12 37  2  0  0  0  0
 13 14  1  0  0  0  0
 13 15  1  0  0  0  0
 13 17  1  0  0  0  0
 13 43  1  0  0  0  0
 14 16  1  0  0  0  0
 14 19  1  0  0  0  0
 14 44  1  0  0  0  0
 15 45  1  0  0  0  0
 15 46  1  0  0  0  0
 16 18  1  0  0  0  0
 16 47  1  0  0  0  0
 16 48  1  0  0  0  0
 17 20  1  0  0  0  0
 17 49  1  0  0  0  0
 17 50  1  0  0  0  0
 18 51  1  0  0  0  0
 18 52  1  0  0  0  0
 19 24  1  0  0  0  0
 19 53  1  0  0  0  0
 19 54  1  0  0  0  0
 20 55  1  0  0  0  0
 20 56  1  0  0  0  0
 21 25  1  0  0  0  0
 21 57  1  0  0  0  0
 21 58  1  0  0  0  0
 22 26  1  0  0  0  0
 22 59  1  0  0  0  0
 22 60  1  0  0  0  0
 25 61  1  0  0  0  0
 25 62  1  0  0  0  0
 26 63  1  0  0  0  0
 26 64  1  0  0  0  0
 27 30  1  0  0  0  0
 27 31  1  0  0  0  0
 27 32  1  0  0  0  0
 28 33  2  0  0  0  0
 29 34  2  0  0  0  0
 29 35  1  0  0  0  0
 30 66  1  0  0  0  0
 30 67  1  0  0  0  0
 30 68  1  0  0  0  0
 31 69  1  0  0  0  0
 31 70  1  0  0  0  0
 31 71  1  0  0  0  0
 32 72  1  0  0  0  0
 32 73  1  0  0  0  0
 32 74  1  0  0  0  0
 33 36  1  0  0  0  0
 33 75  1  0  0  0  0
 34 39  1  0  0  0  0
 34 76  1  0  0  0  0
 35 40  2  0  0  0  0
 35 77  1  0  0  0  0
 36 38  2  0  0  0  0
 36 78  1  0  0  0  0
 37 38  1  0  0  0  0
 37 79  1  0  0  0  0
 38 80  1  0  0  0  0
 39 41  2  0  0  0  0
 39 81  1  0  0  0  0
 40 41  1  0  0  0  0
 40 82  1  0  0  0  0
M  END
> <PUBCHEM_COMPOUND_CID>
45360494

> <PUBCHEM_CONFORMER_RMSD>
1.4

> <PUBCHEM_CONFORMER_DIVERSEORDER>
1
29
5
22
20
37
14
33
11
24
25
7
17
28
18
15
6
16
34
36
32
8
12
31
35
3
26
13
27
2
19
4
23
30
21
10
9

> <PUBCHEM_MMFF94_PARTIAL_CHARGES>
44
1 -0.34
10 -0.84
11 -0.55
12 -0.62
15 0.3
18 0.3
19 0.06
2 -0.34
20 0.27
21 0.27
22 0.27
23 0.69
24 0.66
25 0.37
26 0.37
27 0.28
28 0.41
29 0.12
3 -0.34
33 -0.15
34 -0.15
35 -0.15
36 -0.15
37 0.16
38 -0.15
39 -0.15
4 -0.43
40 -0.15
41 0.08
42 1.3
5 -0.57
6 -0.57
65 0.37
7 -0.36
75 0.15
76 0.15
77 0.15
78 0.15
79 0.15
8 -0.66
80 0.15
81 0.15
82 0.15
9 -0.81

> <PUBCHEM_EFFECTIVE_ROTOR_COUNT>
15.4

> <PUBCHEM_PHARMACOPHORE_FEATURES>
12
1 10 cation
1 11 donor
1 12 acceptor
1 5 acceptor
1 6 acceptor
1 7 acceptor
1 9 cation
4 27 30 31 32 hydrophobe
6 12 28 33 36 37 38 rings
6 29 34 35 39 40 41 rings
6 8 13 14 15 16 18 rings
6 9 10 21 22 25 26 rings

> <PUBCHEM_HEAVY_ATOM_COUNT>
42

> <PUBCHEM_ATOM_DEF_STEREO_COUNT>
2

> <PUBCHEM_ATOM_UDEF_STEREO_COUNT>
0

> <PUBCHEM_BOND_DEF_STEREO_COUNT>
0

> <PUBCHEM_BOND_UDEF_STEREO_COUNT>
0

> <PUBCHEM_ISOTOPIC_ATOM_COUNT>
0

> <PUBCHEM_COMPONENT_COUNT>
1

> <PUBCHEM_CACTVS_TAUTO_COUNT>
2

> <PUBCHEM_CONFORMER_ID>
02B4256E00000001

> <PUBCHEM_MMFF94_ENERGY>
128.8882

> <PUBCHEM_FEATURE_SELFOVERLAP>
60.899

> <PUBCHEM_SHAPE_FINGERPRINT>
10693767 8 18341887528751958707
117089 54 18411983520667649331
12402354 99 18343017822283868639
12522641 126 18412820309278187751
12645989 146 18196660588165368498
15082195 135 18412825811078670098
15264996 44 18413394216283563686
15320294 125 17752459179735440416
15351339 4 18335141964975902480
15538507 32 18409449207060209443
16067689 302 18336553806710164171
19315092 285 18131913736781058409
20775438 99 18266726060734375059
21344244 246 18409729590676474123
21583282 1 18339921640294454743
22899556 105 18343871030289985415
255183 451 18341044143272659459
3504750 166 17038090729160474082
4046055 25 17980485555715380058
45266715 3 18261113010454835266
59755656 215 18338236076163507137
6700243 42 17413890737889673518

> <PUBCHEM_SHAPE_MULTIPOLES>
794.14
22.47
7.04
1.65
38.96
2.49
-0.16
19.82
-13.28
-11.45
-0.45
0.18
-0.37
-2.83

> <PUBCHEM_SHAPE_SELFOVERLAP>
1665.719

> <PUBCHEM_SHAPE_VOLUME>
448

> <PUBCHEM_COORDINATE_TYPE>
2
5
10

$$$$
