38027937
  -OEChem-12032416253D

 73 75  0     1  0  0  0  0  0999 V2000
    3.8331   -2.2745    0.0613 O   0  0  0  0  0  0  0  0  0  0  0  0
   -1.0820    3.1621    1.2338 O   0  0  0  0  0  0  0  0  0  0  0  0
   -5.9823   -0.4642   -1.3977 O   0  0  0  0  0  0  0  0  0  0  0  0
    1.7509   -3.2181   -0.3500 N   0  0  0  0  0  0  0  0  0  0  0  0
    0.1677    3.0005   -0.7064 N   0  0  0  0  0  0  0  0  0  0  0  0
   -0.2992   -5.0442    0.4690 N   0  0  0  0  0  0  0  0  0  0  0  0
   -1.8967    1.9708   -0.6175 N   0  0  0  0  0  0  0  0  0  0  0  0
    2.5006    1.7624    0.7318 C   0  0  1  0  0  0  0  0  0  0  0  0
    2.5695    2.9259   -0.2888 C   0  0  1  0  0  0  0  0  0  0  0  0
    3.5631    0.7011    0.4075 C   0  0  0  0  0  0  0  0  0  0  0  0
    3.3920    0.1191   -1.0084 C   0  0  2  0  0  0  0  0  0  0  0  0
    2.6831    2.2563    2.1703 C   0  0  0  0  0  0  0  0  0  0  0  0
    3.1842    1.2066   -2.0428 C   0  0  0  0  0  0  0  0  0  0  0  0
    2.8299    2.4584   -1.7016 C   0  0  0  0  0  0  0  0  0  0  0  0
    2.2515   -0.9040   -1.0510 C   0  0  0  0  0  0  0  0  0  0  0  0
    1.2879    3.7662   -0.2571 C   0  0  0  0  0  0  0  0  0  0  0  0
    2.0399    1.2827    3.1528 C   0  0  0  0  0  0  0  0  0  0  0  0
    4.1638    2.4430    2.4850 C   0  0  0  0  0  0  0  0  0  0  0  0
    3.4376    0.8341   -3.4771 C   0  0  0  0  0  0  0  0  0  0  0  0
    2.6909   -2.1896   -0.3969 C   0  0  0  0  0  0  0  0  0  0  0  0
    2.0984   -4.4948    0.2722 C   0  0  0  0  0  0  0  0  0  0  0  0
    0.4369   -3.1960   -0.9994 C   0  0  0  0  0  0  0  0  0  0  0  0
    0.9804   -4.9868    1.1906 C   0  0  0  0  0  0  0  0  0  0  0  0
   -0.6513   -3.7182   -0.0595 C   0  0  0  0  0  0  0  0  0  0  0  0
   -0.9672    2.7431    0.0845 C   0  0  0  0  0  0  0  0  0  0  0  0
   -1.3590   -5.5472    1.3421 C   0  0  0  0  0  0  0  0  0  0  0  0
   -3.1555    1.5072   -0.1688 C   0  0  0  0  0  0  0  0  0  0  0  0
   -3.9576    0.7409   -1.0146 C   0  0  0  0  0  0  0  0  0  0  0  0
   -3.5952    1.8168    1.1182 C   0  0  0  0  0  0  0  0  0  0  0  0
   -5.1995    0.2844   -0.5732 C   0  0  0  0  0  0  0  0  0  0  0  0
   -4.8372    1.3603    1.5594 C   0  0  0  0  0  0  0  0  0  0  0  0
   -5.6394    0.5941    0.7136 C   0  0  0  0  0  0  0  0  0  0  0  0
   -7.2396   -0.8982   -0.8813 C   0  0  0  0  0  0  0  0  0  0  0  0
    1.5152    1.2882    0.6580 H   0  0  0  0  0  0  0  0  0  0  0  0
    3.4019    3.5922   -0.0295 H   0  0  0  0  0  0  0  0  0  0  0  0
    3.5585   -0.0949    1.1576 H   0  0  0  0  0  0  0  0  0  0  0  0
    4.5682    1.1423    0.4256 H   0  0  0  0  0  0  0  0  0  0  0  0
    4.3410   -0.3729   -1.2653 H   0  0  0  0  0  0  0  0  0  0  0  0
    2.1831    3.2203    2.3094 H   0  0  0  0  0  0  0  0  0  0  0  0
    2.7407    3.2106   -2.4830 H   0  0  0  0  0  0  0  0  0  0  0  0
    1.9909   -1.1444   -2.0876 H   0  0  0  0  0  0  0  0  0  0  0  0
    1.3540   -0.5267   -0.5516 H   0  0  0  0  0  0  0  0  0  0  0  0
    1.3786    4.6187   -0.9411 H   0  0  0  0  0  0  0  0  0  0  0  0
    1.0969    4.1831    0.7352 H   0  0  0  0  0  0  0  0  0  0  0  0
    2.4994    0.2901    3.1173 H   0  0  0  0  0  0  0  0  0  0  0  0
    0.9701    1.1688    2.9471 H   0  0  0  0  0  0  0  0  0  0  0  0
    2.1389    1.6540    4.1788 H   0  0  0  0  0  0  0  0  0  0  0  0
    4.7004    1.4965    2.6091 H   0  0  0  0  0  0  0  0  0  0  0  0
    4.2641    2.9692    3.4425 H   0  0  0  0  0  0  0  0  0  0  0  0
    4.6802    3.0563    1.7407 H   0  0  0  0  0  0  0  0  0  0  0  0
    4.4435    0.4168   -3.5897 H   0  0  0  0  0  0  0  0  0  0  0  0
    3.3666    1.6995   -4.1448 H   0  0  0  0  0  0  0  0  0  0  0  0
    2.7120    0.0934   -3.8249 H   0  0  0  0  0  0  0  0  0  0  0  0
    0.1564    2.6786   -1.6694 H   0  0  0  0  0  0  0  0  0  0  0  0
    3.0307   -4.4070    0.8397 H   0  0  0  0  0  0  0  0  0  0  0  0
    2.2754   -5.2124   -0.5383 H   0  0  0  0  0  0  0  0  0  0  0  0
    0.5108   -3.8327   -1.8898 H   0  0  0  0  0  0  0  0  0  0  0  0
    0.1645   -2.1961   -1.3419 H   0  0  0  0  0  0  0  0  0  0  0  0
    1.2487   -5.9841    1.5590 H   0  0  0  0  0  0  0  0  0  0  0  0
    0.9025   -4.3225    2.0617 H   0  0  0  0  0  0  0  0  0  0  0  0
   -0.7986   -3.0029    0.7609 H   0  0  0  0  0  0  0  0  0  0  0  0
   -1.5925   -3.7759   -0.6193 H   0  0  0  0  0  0  0  0  0  0  0  0
   -2.3029   -5.6302    0.7919 H   0  0  0  0  0  0  0  0  0  0  0  0
   -1.5223   -4.9004    2.2117 H   0  0  0  0  0  0  0  0  0  0  0  0
   -1.1158   -6.5532    1.7013 H   0  0  0  0  0  0  0  0  0  0  0  0
   -1.6443    1.7039   -1.5658 H   0  0  0  0  0  0  0  0  0  0  0  0
   -3.6211    0.4954   -2.0191 H   0  0  0  0  0  0  0  0  0  0  0  0
   -3.0321    2.4037    1.8299 H   0  0  0  0  0  0  0  0  0  0  0  0
   -5.1799    1.6012    2.5617 H   0  0  0  0  0  0  0  0  0  0  0  0
   -6.5919    0.2724    1.1205 H   0  0  0  0  0  0  0  0  0  0  0  0
   -7.7290   -1.4800   -1.6693 H   0  0  0  0  0  0  0  0  0  0  0  0
   -7.8959   -0.0510   -0.6552 H   0  0  0  0  0  0  0  0  0  0  0  0
   -7.1129   -1.5663   -0.0227 H   0  0  0  0  0  0  0  0  0  0  0  0
  1 20  2  0  0  0  0
  2 25  2  0  0  0  0
  3 30  1  0  0  0  0
  3 33  1  0  0  0  0
  4 20  1  0  0  0  0
  4 21  1  0  0  0  0
  4 22  1  0  0  0  0
  5 16  1  0  0  0  0
  5 25  1  0  0  0  0
  5 54  1  0  0  0  0
  6 23  1  0  0  0  0
  6 24  1  0  0  0  0
  6 26  1  0  0  0  0
  7 25  1  0  0  0  0
  7 27  1  0  0  0  0
  7 66  1  0  0  0  0
  8  9  1  0  0  0  0
  8 10  1  0  0  0  0
  8 12  1  0  0  0  0
  8 34  1  0  0  0  0
  9 14  1  0  0  0  0
  9 16  1  0  0  0  0
  9 35  1  0  0  0  0
 10 11  1  0  0  0  0
 10 36  1  0  0  0  0
 10 37  1  0  0  0  0
 11 13  1  0  0  0  0
 11 15  1  0  0  0  0
 11 38  1  0  0  0  0
 12 17  1  0  0  0  0
 12 18  1  0  0  0  0
 12 39  1  0  0  0  0
 13 14  2  0  0  0  0
 13 19  1  0  0  0  0
 14 40  1  0  0  0  0
 15 20  1  0  0  0  0
 15 41  1  0  0  0  0
 15 42  1  0  0  0  0
 16 43  1  0  0  0  0
 16 44  1  0  0  0  0
 17 45  1  0  0  0  0
 17 46  1  0  0  0  0
 17 47  1  0  0  0  0
 18 48  1  0  0  0  0
 18 49  1  0  0  0  0
 18 50  1  0  0  0  0
 19 51  1  0  0  0  0
 19 52  1  0  0  0  0
 19 53  1  0  0  0  0
 21 23  1  0  0  0  0
 21 55  1  0  0  0  0
 21 56  1  0  0  0  0
 22 24  1  0  0  0  0
 22 57  1  0  0  0  0
 22 58  1  0  0  0  0
 23 59  1  0  0  0  0
 23 60  1  0  0  0  0
 24 61  1  0  0  0  0
 24 62  1  0  0  0  0
 26 63  1  0  0  0  0
 26 64  1  0  0  0  0
 26 65  1  0  0  0  0
 27 28  2  0  0  0  0
 27 29  1  0  0  0  0
 28 30  1  0  0  0  0
 28 67  1  0  0  0  0
 29 31  2  0  0  0  0
 29 68  1  0  0  0  0
 30 32  2  0  0  0  0
 31 32  1  0  0  0  0
 31 69  1  0  0  0  0
 32 70  1  0  0  0  0
 33 71  1  0  0  0  0
 33 72  1  0  0  0  0
 33 73  1  0  0  0  0
M  END
> <PUBCHEM_COMPOUND_CID>
38027937

> <PUBCHEM_CONFORMER_RMSD>
1.4

> <PUBCHEM_CONFORMER_DIVERSEORDER>
1
106
105
70
23
65
76
20
97
75
30
4
56
7
118
78
54
42
62
11
82
72
73
59
6
8
96
14
37
58
46
95
29
100
61
17
67
25
35
36
68
74
9
28
64
53
49
45
104
52
10
85
2
27
107
41
21
117
16
98
83
114
38
81
13
86
63
113
3
101
24
110
15
66
69
91
51
32
47
87
22
90
33
103
44
12
26
34
92
93
112
88
116
50
94
79
57
18
102
43
39
5
84
80
48
40
31
111
108
89
71
99
109
55
60
19
115
77

> <PUBCHEM_MMFF94_PARTIAL_CHARGES>
35
1 -0.57
11 0.14
13 -0.28
14 -0.29
15 0.06
16 0.3
19 0.14
2 -0.57
20 0.57
21 0.3
22 0.3
23 0.27
24 0.27
25 0.69
26 0.27
27 0.12
28 -0.15
29 -0.15
3 -0.36
30 0.08
31 -0.15
32 -0.15
33 0.28
4 -0.66
40 0.15
5 -0.73
54 0.37
6 -0.81
66 0.37
67 0.15
68 0.15
69 0.15
7 -0.55
70 0.15
9 0.14

> <PUBCHEM_EFFECTIVE_ROTOR_COUNT>
12

> <PUBCHEM_PHARMACOPHORE_FEATURES>
10
1 1 acceptor
1 2 acceptor
1 3 acceptor
1 5 donor
1 6 cation
1 7 donor
3 12 17 18 hydrophobe
6 27 28 29 30 31 32 rings
6 4 6 21 22 23 24 rings
6 8 9 10 11 13 14 rings

> <PUBCHEM_HEAVY_ATOM_COUNT>
33

> <PUBCHEM_ATOM_DEF_STEREO_COUNT>
3

> <PUBCHEM_ATOM_UDEF_STEREO_COUNT>
0

> <PUBCHEM_BOND_DEF_STEREO_COUNT>
0

> <PUBCHEM_BOND_UDEF_STEREO_COUNT>
0

> <PUBCHEM_ISOTOPIC_ATOM_COUNT>
0

> <PUBCHEM_COMPONENT_COUNT>
1

> <PUBCHEM_CACTVS_TAUTO_COUNT>
3

> <PUBCHEM_CONFORMER_ID>
024442A100000001

> <PUBCHEM_MMFF94_ENERGY>
86.4731

> <PUBCHEM_FEATURE_SELFOVERLAP>
50.794

> <PUBCHEM_SHAPE_FINGERPRINT>
10316853 100 18339080518515926159
10928967 22 18198074594546303757
114674 6 18341891874815828584
13561361 72 17976550725595399795
1361 2 18410291432744571931
14863182 85 18408319978342384328
152267 14 17329143568913914607
15968369 26 18187353304151112527
16067690 210 15984564234142941699
16114785 44 16407278313056814864
19315092 285 17917416589271579009
20764821 26 18338237166990131475
20775530 9 17905896868175859582
5309563 4 18267022743741121285
66674814 147 18192725453308068570
86090 222 18270682099249031483

> <PUBCHEM_SHAPE_MULTIPOLES>
641.59
11.31
7.56
2.43
23.39
13.64
0.19
-4.86
-2.03
-2.59
2.78
-2.84
-1.47
0.23

> <PUBCHEM_SHAPE_SELFOVERLAP>
1322.061

> <PUBCHEM_SHAPE_VOLUME>
366.7

> <PUBCHEM_COORDINATE_TYPE>
2
5
10

$$$$
