71693182
  -OEChem-12032416303D

 71 74  0     1  0  0  0  0  0999 V2000
    5.7412    0.2531    0.6218 O   0  0  0  0  0  0  0  0  0  0  0  0
    5.8840   -0.8473   -1.3951 O   0  0  0  0  0  0  0  0  0  0  0  0
   -1.9463    2.5037    0.8406 N   0  0  0  0  0  0  0  0  0  0  0  0
    0.6764   -2.1568   -1.4799 N   0  0  0  0  0  0  0  0  0  0  0  0
    0.0757   -2.4405    0.6411 N   0  0  0  0  0  0  0  0  0  0  0  0
   -3.4854    0.3456   -0.3999 C   0  0  1  0  0  0  0  0  0  0  0  0
   -3.1305    0.3689    1.1052 C   0  0  2  0  0  0  0  0  0  0  0  0
   -2.6389   -0.7025   -1.1359 C   0  0  0  0  0  0  0  0  0  0  0  0
   -2.7827   -2.1244   -0.5524 C   0  0  2  0  0  0  0  0  0  0  0  0
   -4.9846    0.1001   -0.6174 C   0  0  0  0  0  0  0  0  0  0  0  0
   -1.8427    1.1553    1.3709 C   0  0  0  0  0  0  0  0  0  0  0  0
   -2.8525   -2.1402    0.9673 C   0  0  0  0  0  0  0  0  0  0  0  0
   -2.9964   -1.0141    1.6899 C   0  0  0  0  0  0  0  0  0  0  0  0
   -0.6240    3.0954    0.6461 C   0  0  0  0  0  0  0  0  0  0  0  0
   -1.6501   -2.9979   -1.1063 C   0  0  0  0  0  0  0  0  0  0  0  0
   -0.7355    4.6238    0.6230 C   0  0  0  0  0  0  0  0  0  0  0  0
   -0.0027    2.5668   -0.6515 C   0  0  0  0  0  0  0  0  0  0  0  0
   -5.7826    1.3583   -0.2904 C   0  0  0  0  0  0  0  0  0  0  0  0
   -5.2475   -0.3498   -2.0509 C   0  0  0  0  0  0  0  0  0  0  0  0
    0.6178    5.2762    0.3451 C   0  0  0  0  0  0  0  0  0  0  0  0
    1.3494    3.2220   -0.9284 C   0  0  0  0  0  0  0  0  0  0  0  0
   -2.8147   -3.4796    1.6505 C   0  0  0  0  0  0  0  0  0  0  0  0
    1.2452    4.7445   -0.9403 C   0  0  0  0  0  0  0  0  0  0  0  0
   -0.3092   -2.5363   -0.6118 C   0  0  0  0  0  0  0  0  0  0  0  0
    1.7702   -1.7916   -0.7378 C   0  0  0  0  0  0  0  0  0  0  0  0
    1.3702   -1.9776    0.5826 C   0  0  0  0  0  0  0  0  0  0  0  0
    3.0364   -1.3287   -1.0972 C   0  0  0  0  0  0  0  0  0  0  0  0
    2.2743   -1.6898    1.6190 C   0  0  0  0  0  0  0  0  0  0  0  0
    3.9235   -1.0473   -0.0529 C   0  0  0  0  0  0  0  0  0  0  0  0
    3.5513   -1.2239    1.2817 C   0  0  0  0  0  0  0  0  0  0  0  0
    5.2590   -0.5616   -0.3656 C   0  0  0  0  0  0  0  0  0  0  0  0
    7.0517    0.7961    0.4289 C   0  0  0  0  0  0  0  0  0  0  0  0
   -3.2535    1.3115   -0.8660 H   0  0  0  0  0  0  0  0  0  0  0  0
   -3.9316    0.8680    1.6626 H   0  0  0  0  0  0  0  0  0  0  0  0
   -1.5981   -0.3655   -1.0556 H   0  0  0  0  0  0  0  0  0  0  0  0
   -2.8145   -0.7119   -2.2172 H   0  0  0  0  0  0  0  0  0  0  0  0
   -3.7241   -2.5607   -0.9073 H   0  0  0  0  0  0  0  0  0  0  0  0
   -5.3439   -0.6982    0.0439 H   0  0  0  0  0  0  0  0  0  0  0  0
   -0.9955    0.6046    0.9474 H   0  0  0  0  0  0  0  0  0  0  0  0
   -1.6534    1.2087    2.4515 H   0  0  0  0  0  0  0  0  0  0  0  0
   -3.0414   -1.0777    2.7751 H   0  0  0  0  0  0  0  0  0  0  0  0
    0.0275    2.8341    1.4920 H   0  0  0  0  0  0  0  0  0  0  0  0
   -1.6749   -2.9786   -2.2036 H   0  0  0  0  0  0  0  0  0  0  0  0
   -1.7879   -4.0475   -0.8208 H   0  0  0  0  0  0  0  0  0  0  0  0
   -2.5044    3.0708    1.4781 H   0  0  0  0  0  0  0  0  0  0  0  0
   -1.1209    4.9918    1.5819 H   0  0  0  0  0  0  0  0  0  0  0  0
   -1.4499    4.9393   -0.1491 H   0  0  0  0  0  0  0  0  0  0  0  0
   -0.6747    2.7639   -1.4975 H   0  0  0  0  0  0  0  0  0  0  0  0
    0.1479    1.4827   -0.6169 H   0  0  0  0  0  0  0  0  0  0  0  0
   -5.6815    1.6570    0.7561 H   0  0  0  0  0  0  0  0  0  0  0  0
   -6.8507    1.1928   -0.4712 H   0  0  0  0  0  0  0  0  0  0  0  0
   -5.4705    2.2025   -0.9151 H   0  0  0  0  0  0  0  0  0  0  0  0
   -4.9069   -1.3655   -2.2629 H   0  0  0  0  0  0  0  0  0  0  0  0
   -6.3270   -0.3598   -2.2455 H   0  0  0  0  0  0  0  0  0  0  0  0
   -4.8035    0.3377   -2.7797 H   0  0  0  0  0  0  0  0  0  0  0  0
    0.4949    6.3627    0.2730 H   0  0  0  0  0  0  0  0  0  0  0  0
    1.2944    5.0863    1.1875 H   0  0  0  0  0  0  0  0  0  0  0  0
    2.0695    2.9103   -0.1617 H   0  0  0  0  0  0  0  0  0  0  0  0
    1.7377    2.8721   -1.8917 H   0  0  0  0  0  0  0  0  0  0  0  0
   -3.5702   -4.1431    1.2163 H   0  0  0  0  0  0  0  0  0  0  0  0
   -3.0349   -3.3993    2.7208 H   0  0  0  0  0  0  0  0  0  0  0  0
   -1.8379   -3.9603    1.5583 H   0  0  0  0  0  0  0  0  0  0  0  0
    2.2415    5.1811   -1.0725 H   0  0  0  0  0  0  0  0  0  0  0  0
    0.6407    5.0615   -1.7990 H   0  0  0  0  0  0  0  0  0  0  0  0
    0.6132   -2.1444   -2.4893 H   0  0  0  0  0  0  0  0  0  0  0  0
    3.3078   -1.1942   -2.1388 H   0  0  0  0  0  0  0  0  0  0  0  0
    1.9948   -1.8263    2.6588 H   0  0  0  0  0  0  0  0  0  0  0  0
    4.2445   -1.0184    2.0943 H   0  0  0  0  0  0  0  0  0  0  0  0
    7.2930    1.4191    1.2942 H   0  0  0  0  0  0  0  0  0  0  0  0
    7.0733    1.4182   -0.4707 H   0  0  0  0  0  0  0  0  0  0  0  0
    7.7874   -0.0106    0.3589 H   0  0  0  0  0  0  0  0  0  0  0  0
  1 31  1  0  0  0  0
  1 32  1  0  0  0  0
  2 31  2  0  0  0  0
  3 11  1  0  0  0  0
  3 14  1  0  0  0  0
  3 45  1  0  0  0  0
  4 24  1  0  0  0  0
  4 25  1  0  0  0  0
  4 65  1  0  0  0  0
  5 24  2  0  0  0  0
  5 26  1  0  0  0  0
  6  7  1  0  0  0  0
  6  8  1  0  0  0  0
  6 10  1  0  0  0  0
  6 33  1  0  0  0  0
  7 11  1  0  0  0  0
  7 13  1  0  0  0  0
  7 34  1  0  0  0  0
  8  9  1  0  0  0  0
  8 35  1  0  0  0  0
  8 36  1  0  0  0  0
  9 12  1  0  0  0  0
  9 15  1  0  0  0  0
  9 37  1  0  0  0  0
 10 18  1  0  0  0  0
 10 19  1  0  0  0  0
 10 38  1  0  0  0  0
 11 39  1  0  0  0  0
 11 40  1  0  0  0  0
 12 13  2  0  0  0  0
 12 22  1  0  0  0  0
 13 41  1  0  0  0  0
 14 16  1  0  0  0  0
 14 17  1  0  0  0  0
 14 42  1  0  0  0  0
 15 24  1  0  0  0  0
 15 43  1  0  0  0  0
 15 44  1  0  0  0  0
 16 20  1  0  0  0  0
 16 46  1  0  0  0  0
 16 47  1  0  0  0  0
 17 21  1  0  0  0  0
 17 48  1  0  0  0  0
 17 49  1  0  0  0  0
 18 50  1  0  0  0  0
 18 51  1  0  0  0  0
 18 52  1  0  0  0  0
 19 53  1  0  0  0  0
 19 54  1  0  0  0  0
 19 55  1  0  0  0  0
 20 23  1  0  0  0  0
 20 56  1  0  0  0  0
 20 57  1  0  0  0  0
 21 23  1  0  0  0  0
 21 58  1  0  0  0  0
 21 59  1  0  0  0  0
 22 60  1  0  0  0  0
 22 61  1  0  0  0  0
 22 62  1  0  0  0  0
 23 63  1  0  0  0  0
 23 64  1  0  0  0  0
 25 26  2  0  0  0  0
 25 27  1  0  0  0  0
 26 28  1  0  0  0  0
 27 29  2  0  0  0  0
 27 66  1  0  0  0  0
 28 30  2  0  0  0  0
 28 67  1  0  0  0  0
 29 30  1  0  0  0  0
 29 31  1  0  0  0  0
 30 68  1  0  0  0  0
 32 69  1  0  0  0  0
 32 70  1  0  0  0  0
 32 71  1  0  0  0  0
M  END
> <PUBCHEM_COMPOUND_CID>
71693182

> <PUBCHEM_CONFORMER_RMSD>
1

> <PUBCHEM_CONFORMER_DIVERSEORDER>
11
14
86
49
71
44
19
1
39
59
55
73
65
83
78
84
76
54
66
15
56
74
36
16
61
72
24
50
27
46
35
3
22
52
32
87
31
48
80
91
26
51
96
68
67
41
23
21
43
28
85
47
88
40
38
94
30
45
95
58
53
6
18
64
37
77
70
93
60
20
34
25
62
5
2
17
12
75
13
7
4
92
90
69
82
57
29
63
9
79
89
42
8
10
33
81

> <PUBCHEM_MMFF94_PARTIAL_CHARGES>
28
1 -0.43
11 0.27
12 -0.28
13 -0.29
14 0.27
15 0.18
2 -0.57
22 0.14
24 0.01
25 -0.15
26 0.23
27 -0.15
28 -0.15
29 0.09
3 -0.9
30 -0.15
31 0.63
32 0.28
4 0.03
41 0.15
45 0.36
5 -0.57
65 0.27
66 0.15
67 0.15
68 0.15
7 0.14
9 0.14

> <PUBCHEM_EFFECTIVE_ROTOR_COUNT>
10

> <PUBCHEM_PHARMACOPHORE_FEATURES>
10
1 2 acceptor
1 3 cation
1 3 donor
1 4 donor
3 10 18 19 hydrophobe
3 4 5 24 cation
5 4 5 24 25 26 rings
6 14 16 17 20 21 23 rings
6 25 26 27 28 29 30 rings
6 6 7 8 9 12 13 rings

> <PUBCHEM_HEAVY_ATOM_COUNT>
32

> <PUBCHEM_ATOM_DEF_STEREO_COUNT>
3

> <PUBCHEM_ATOM_UDEF_STEREO_COUNT>
0

> <PUBCHEM_BOND_DEF_STEREO_COUNT>
0

> <PUBCHEM_BOND_UDEF_STEREO_COUNT>
0

> <PUBCHEM_ISOTOPIC_ATOM_COUNT>
0

> <PUBCHEM_COMPONENT_COUNT>
1

> <PUBCHEM_CACTVS_TAUTO_COUNT>
7

> <PUBCHEM_CONFORMER_ID>
0445F37E0000000B

> <PUBCHEM_MMFF94_ENERGY>
56.2501

> <PUBCHEM_FEATURE_SELFOVERLAP>
50.853

> <PUBCHEM_SHAPE_FINGERPRINT>
10006869 2 18265039242039629374
10087517 78 18341327886345147344
10670039 82 18268999691976919990
10675989 125 17396129146067418253
10871710 139 18197220244015445637
1100329 8 18337954596575038925
12553582 1 18266765513881442881
12788726 201 18265327301032380313
14028597 1 17822273684205483210
14068700 675 18060127739553561537
14394314 77 18340488872304662321
14840074 17 18341054033975700385
15001296 14 18262519307644878556
15575132 122 18339360743124514173
15961568 22 18342175544831849724
17492 54 18268409288640268863
17627616 140 17904209474874745564
18336668 15 18114744953461309764
19611394 137 18261685877762647923
21033648 29 17988914613432609234
21304303 64 18340206289863984593
21403212 168 12324233920509687751
22113638 7 18413102883692043101
23558518 356 17472129579959148651
25019877 29 17060345136125911263
3298306 158 17977104892208708133
463206 1 18409172142270853229
50677037 204 18341899610680033744
6004065 56 18411972556222661469
6036956 94 18262247697923652180
6608658 132 18340200804346599102

> <PUBCHEM_SHAPE_MULTIPOLES>
631.86
11.5
6.09
1.63
11.81
9.43
0.04
-2.39
-1.7
-0.01
0.39
-0.8
-0.68
0.05

> <PUBCHEM_SHAPE_SELFOVERLAP>
1332.937

> <PUBCHEM_SHAPE_VOLUME>
353.4

> <PUBCHEM_COORDINATE_TYPE>
2
5
10

$$$$
