40533400
  -OEChem-12032416233D

 53 58  0     1  0  0  0  0  0999 V2000
   -2.5903   -0.7234    0.9674 O   0  0  0  0  0  0  0  0  0  0  0  0
    2.6524    1.0740    1.7212 O   0  0  0  0  0  0  0  0  0  0  0  0
   -2.0712    2.1092    0.3909 N   0  0  2  0  0  0  0  0  0  0  0  0
    1.1139    2.0173    0.2446 N   0  0  0  0  0  0  0  0  0  0  0  0
    5.7406   -1.8644   -0.6635 N   0  0  0  0  0  0  0  0  0  0  0  0
   -0.4416    3.9427    0.9095 C   0  0  1  0  0  0  0  0  0  0  0  0
   -0.5427    3.0274   -1.3593 C   0  0  2  0  0  0  0  0  0  0  0  0
   -0.3645    4.3181   -0.5644 C   0  0  0  0  0  0  0  0  0  0  0  0
   -1.8067    3.2922    1.2188 C   0  0  0  0  0  0  0  0  0  0  0  0
   -1.9244    2.4115   -1.0408 C   0  0  0  0  0  0  0  0  0  0  0  0
    0.7397    3.0237    1.2486 C   0  0  0  0  0  0  0  0  0  0  0  0
    0.5646    2.0403   -1.0395 C   0  0  0  0  0  0  0  0  0  0  0  0
   -3.3926    1.5548    0.6756 C   0  0  0  0  0  0  0  0  0  0  0  0
    1.0021    1.1827   -1.9749 C   0  0  0  0  0  0  0  0  0  0  0  0
    2.1207    1.1024    0.6098 C   0  0  0  0  0  0  0  0  0  0  0  0
    2.5664    0.1302   -0.4496 C   0  0  0  0  0  0  0  0  0  0  0  0
    2.0137    0.2111   -1.6692 C   0  0  0  0  0  0  0  0  0  0  0  0
   -3.4725    0.0912    0.3318 C   0  0  0  0  0  0  0  0  0  0  0  0
    3.5812   -0.8989   -0.1635 C   0  0  0  0  0  0  0  0  0  0  0  0
   -4.2763   -0.6309   -0.5197 C   0  0  0  0  0  0  0  0  0  0  0  0
   -3.8657   -1.9852   -0.4056 C   0  0  0  0  0  0  0  0  0  0  0  0
   -2.8274   -1.9888    0.5203 C   0  0  0  0  0  0  0  0  0  0  0  0
    3.3769   -1.8513    0.8288 C   0  0  0  0  0  0  0  0  0  0  0  0
    4.7693   -0.9481   -0.8748 C   0  0  0  0  0  0  0  0  0  0  0  0
   -4.2560   -3.2067   -0.9818 C   0  0  0  0  0  0  0  0  0  0  0  0
   -2.1406   -3.1338    0.9199 C   0  0  0  0  0  0  0  0  0  0  0  0
    4.3531   -2.8104    1.0758 C   0  0  0  0  0  0  0  0  0  0  0  0
   -3.5835   -4.3757   -0.5998 C   0  0  0  0  0  0  0  0  0  0  0  0
   -2.5452   -4.3372    0.3345 C   0  0  0  0  0  0  0  0  0  0  0  0
    5.5065   -2.7741    0.3089 C   0  0  0  0  0  0  0  0  0  0  0  0
   -0.3608    4.8485    1.5232 H   0  0  0  0  0  0  0  0  0  0  0  0
   -0.5156    3.2791   -2.4277 H   0  0  0  0  0  0  0  0  0  0  0  0
    0.5963    4.7943   -0.7965 H   0  0  0  0  0  0  0  0  0  0  0  0
   -1.1514    5.0384   -0.8192 H   0  0  0  0  0  0  0  0  0  0  0  0
   -1.8248    3.0109    2.2793 H   0  0  0  0  0  0  0  0  0  0  0  0
   -2.5969    4.0414    1.0722 H   0  0  0  0  0  0  0  0  0  0  0  0
   -2.7065    3.1100   -1.3687 H   0  0  0  0  0  0  0  0  0  0  0  0
   -2.0467    1.4962   -1.6336 H   0  0  0  0  0  0  0  0  0  0  0  0
    1.6349    3.6446    1.3915 H   0  0  0  0  0  0  0  0  0  0  0  0
    0.5705    2.5151    2.2061 H   0  0  0  0  0  0  0  0  0  0  0  0
   -4.1907    2.1138    0.1707 H   0  0  0  0  0  0  0  0  0  0  0  0
   -3.6064    1.6185    1.7514 H   0  0  0  0  0  0  0  0  0  0  0  0
    0.5876    1.1752   -2.9776 H   0  0  0  0  0  0  0  0  0  0  0  0
    2.2907   -0.4681   -2.4702 H   0  0  0  0  0  0  0  0  0  0  0  0
   -5.0615   -0.2327   -1.1470 H   0  0  0  0  0  0  0  0  0  0  0  0
    2.4614   -1.8635    1.4149 H   0  0  0  0  0  0  0  0  0  0  0  0
    4.9956   -0.2316   -1.6592 H   0  0  0  0  0  0  0  0  0  0  0  0
   -5.0611   -3.2522   -1.7089 H   0  0  0  0  0  0  0  0  0  0  0  0
   -1.3359   -3.0957    1.6444 H   0  0  0  0  0  0  0  0  0  0  0  0
    4.2150   -3.5631    1.8434 H   0  0  0  0  0  0  0  0  0  0  0  0
   -3.8754   -5.3268   -1.0379 H   0  0  0  0  0  0  0  0  0  0  0  0
   -2.0417   -5.2601    0.6116 H   0  0  0  0  0  0  0  0  0  0  0  0
    6.2982   -3.5001    0.4620 H   0  0  0  0  0  0  0  0  0  0  0  0
  1 18  1  0  0  0  0
  1 22  1  0  0  0  0
  2 15  2  0  0  0  0
  3  9  1  0  0  0  0
  3 10  1  0  0  0  0
  3 13  1  0  0  0  0
  4 11  1  0  0  0  0
  4 12  1  0  0  0  0
  4 15  1  0  0  0  0
  5 24  1  0  0  0  0
  5 30  2  0  0  0  0
  6  8  1  0  0  0  0
  6  9  1  0  0  0  0
  6 11  1  0  0  0  0
  6 31  1  0  0  0  0
  7  8  1  0  0  0  0
  7 10  1  0  0  0  0
  7 12  1  0  0  0  0
  7 32  1  0  0  0  0
  8 33  1  0  0  0  0
  8 34  1  0  0  0  0
  9 35  1  0  0  0  0
  9 36  1  0  0  0  0
 10 37  1  0  0  0  0
 10 38  1  0  0  0  0
 11 39  1  0  0  0  0
 11 40  1  0  0  0  0
 12 14  2  0  0  0  0
 13 18  1  0  0  0  0
 13 41  1  0  0  0  0
 13 42  1  0  0  0  0
 14 17  1  0  0  0  0
 14 43  1  0  0  0  0
 15 16  1  0  0  0  0
 16 17  2  0  0  0  0
 16 19  1  0  0  0  0
 17 44  1  0  0  0  0
 18 20  2  0  0  0  0
 19 23  1  0  0  0  0
 19 24  2  0  0  0  0
 20 21  1  0  0  0  0
 20 45  1  0  0  0  0
 21 22  1  0  0  0  0
 21 25  2  0  0  0  0
 22 26  2  0  0  0  0
 23 27  2  0  0  0  0
 23 46  1  0  0  0  0
 24 47  1  0  0  0  0
 25 28  1  0  0  0  0
 25 48  1  0  0  0  0
 26 29  1  0  0  0  0
 26 49  1  0  0  0  0
 27 30  1  0  0  0  0
 27 50  1  0  0  0  0
 28 29  2  0  0  0  0
 28 51  1  0  0  0  0
 29 52  1  0  0  0  0
 30 53  1  0  0  0  0
M  END
> <PUBCHEM_COMPOUND_CID>
40533400

> <PUBCHEM_CONFORMER_RMSD>
0.8

> <PUBCHEM_CONFORMER_DIVERSEORDER>
5
9
48
40
41
37
24
25
20
36
46
43
38
39
26
47
35
44
33
18
45
27
29
4
23
19
12
28
34
42
31
21
17
10
22
32
11
14
16
30
3
6
13
2
8
15
1
7

> <PUBCHEM_MMFF94_PARTIAL_CHARGES>
38
1 -0.28
10 0.27
11 0.3
12 -0.03
13 0.45
14 -0.15
15 0.62
16 -0.01
17 -0.15
18 -0.04
19 0.03
2 -0.57
20 -0.15
22 0.14
23 -0.15
24 0.16
25 -0.15
26 -0.15
27 -0.15
28 -0.15
29 -0.15
3 -0.81
30 0.16
4 -0.47
43 0.15
44 0.15
45 0.15
46 0.15
47 0.15
48 0.15
49 0.15
5 -0.62
50 0.15
51 0.15
52 0.15
53 0.15
7 0.14
9 0.27

> <PUBCHEM_EFFECTIVE_ROTOR_COUNT>
4

> <PUBCHEM_PHARMACOPHORE_FEATURES>
10
1 1 acceptor
1 2 acceptor
1 3 cation
1 5 acceptor
5 1 18 20 21 22 rings
6 21 22 25 26 28 29 rings
6 3 6 7 8 9 10 rings
6 4 12 14 15 16 17 rings
6 4 6 7 8 11 12 rings
6 5 19 23 24 27 30 rings

> <PUBCHEM_HEAVY_ATOM_COUNT>
30

> <PUBCHEM_ATOM_DEF_STEREO_COUNT>
2

> <PUBCHEM_ATOM_UDEF_STEREO_COUNT>
0

> <PUBCHEM_BOND_DEF_STEREO_COUNT>
0

> <PUBCHEM_BOND_UDEF_STEREO_COUNT>
0

> <PUBCHEM_ISOTOPIC_ATOM_COUNT>
0

> <PUBCHEM_COMPONENT_COUNT>
1

> <PUBCHEM_CACTVS_TAUTO_COUNT>
3

> <PUBCHEM_CONFORMER_ID>
026A7D9800000005

> <PUBCHEM_MMFF94_ENERGY>
74.2335

> <PUBCHEM_FEATURE_SELFOVERLAP>
52.405

> <PUBCHEM_SHAPE_FINGERPRINT>
10483366 6 18191287305616816389
10622 236 17896590688091162098
10928967 22 17835262394768049639
11069576 57 17762892569449796279
114674 6 17187861250992299113
11552529 35 18339359639771352684
12156800 1 15688642662465110109
12523318 42 18193829341665683512
12633257 1 17987529116869563225
12712778 12 18192976150612478570
12788726 201 18262236599801447154
12969540 37 18122621918665330405
13631057 29 18409451358885401126
14020679 6 15832016637790289364
14114206 34 17458340823409165939
14251757 5 18336268925281003746
14659021 117 18337099095219643482
14674994 50 18189322490452547901
14705955 166 16987161513632477409
14844126 61 18264775367532735201
14863182 85 17329429957201271505
14866123 147 18341054009028517721
15927050 60 17333086426369833109
17492 89 18123189280025035359
19315092 285 17056682826572180763
19611394 137 18200297829308152394
20775438 99 17475767211375543127
20775530 9 18337112366484127371
21864079 5 9294750661473122711
22440779 20 15693827998130350364
23559900 14 18194676201800385751
3027735 51 17977368448797988741
4017518 198 17617373979008458462
4573279 73 18187663426971145086
463206 1 18336270119192358291
5085150 59 17613415771476054033
5265222 85 17760670074372116124
613672 6 18194097811091128987
6201320 77 16124482526206775070

> <PUBCHEM_SHAPE_MULTIPOLES>
590.7
9.89
6.72
1.47
7.81
0.24
0.2
13.72
0.32
-4.31
-0.67
0.43
-0.65
-0.98

> <PUBCHEM_SHAPE_SELFOVERLAP>
1324.615

> <PUBCHEM_SHAPE_VOLUME>
305.3

> <PUBCHEM_COORDINATE_TYPE>
2
5
10

$$$$
