45360654
  -OEChem-12032416393D

 64 67  0     1  0  0  0  0  0999 V2000
   -5.3376   -3.9381    0.2732 F   0  0  0  0  0  0  0  0  0  0  0  0
   -0.6927   -2.0952    2.7653 O   0  0  0  0  0  0  0  0  0  0  0  0
   -4.7035    2.8657   -0.4198 O   0  0  0  0  0  0  0  0  0  0  0  0
    8.9032   -0.0721   -0.3462 O   0  0  0  0  0  0  0  0  0  0  0  0
   -0.9500    0.9069    0.7050 N   0  0  1  0  0  0  0  0  0  0  0  0
   -1.4956   -0.0335    3.2918 N   0  0  0  0  0  0  0  0  0  0  0  0
    2.5987    0.4812    0.1037 N   0  0  0  0  0  0  0  0  0  0  0  0
   -3.2943    1.6608   -1.8167 N   0  0  0  0  0  0  0  0  0  0  0  0
   -0.8364   -0.5374    0.9447 C   0  0  1  0  0  0  0  0  0  0  0  0
    1.1559    0.4159   -0.0646 C   0  0  1  0  0  0  0  0  0  0  0  0
    0.5558   -0.9080    0.4098 C   0  0  0  0  0  0  0  0  0  0  0  0
   -1.9803    1.5681    1.4980 C   0  0  1  0  0  0  0  0  0  0  0  0
    0.4020    1.4590    0.7488 C   0  0  0  0  0  0  0  0  0  0  0  0
   -1.7376    1.3571    2.9843 C   0  0  0  0  0  0  0  0  0  0  0  0
   -0.9780   -0.9486    2.4073 C   0  0  0  0  0  0  0  0  0  0  0  0
   -2.1183    3.0553    1.1701 C   0  0  0  0  0  0  0  0  0  0  0  0
   -2.3189    3.2736   -0.3234 C   0  0  0  0  0  0  0  0  0  0  0  0
    3.2832   -0.2362   -0.9645 C   0  0  0  0  0  0  0  0  0  0  0  0
   -3.5790    2.5997   -0.8359 C   0  0  0  0  0  0  0  0  0  0  0  0
    4.7792   -0.1922   -0.8004 C   0  0  0  0  0  0  0  0  0  0  0  0
    5.4828    0.9683   -1.1225 C   0  0  0  0  0  0  0  0  0  0  0  0
    5.4614   -1.3125   -0.3257 C   0  0  0  0  0  0  0  0  0  0  0  0
   -4.3253    0.8831   -2.4619 C   0  0  0  0  0  0  0  0  0  0  0  0
    6.8687    1.0085   -0.9701 C   0  0  0  0  0  0  0  0  0  0  0  0
    6.8474   -1.2723   -0.1734 C   0  0  0  0  0  0  0  0  0  0  0  0
    7.5510   -0.1118   -0.4957 C   0  0  0  0  0  0  0  0  0  0  0  0
   -4.5959   -0.4051   -1.7310 C   0  0  0  0  0  0  0  0  0  0  0  0
   -3.8829   -1.5574   -2.0619 C   0  0  0  0  0  0  0  0  0  0  0  0
   -5.5593   -0.4464   -0.7231 C   0  0  0  0  0  0  0  0  0  0  0  0
   -4.1335   -2.7511   -1.3852 C   0  0  0  0  0  0  0  0  0  0  0  0
   -5.8100   -1.6400   -0.0464 C   0  0  0  0  0  0  0  0  0  0  0  0
    9.5371   -1.2529    0.1436 C   0  0  0  0  0  0  0  0  0  0  0  0
   -5.0971   -2.7923   -0.3774 C   0  0  0  0  0  0  0  0  0  0  0  0
   -1.6176   -1.0643    0.3846 H   0  0  0  0  0  0  0  0  0  0  0  0
    0.8920    0.5728   -1.1217 H   0  0  0  0  0  0  0  0  0  0  0  0
    1.1824   -1.3681    1.1837 H   0  0  0  0  0  0  0  0  0  0  0  0
    0.4865   -1.6151   -0.4249 H   0  0  0  0  0  0  0  0  0  0  0  0
   -2.9351    1.0809    1.2550 H   0  0  0  0  0  0  0  0  0  0  0  0
    0.4843    2.4470    0.2863 H   0  0  0  0  0  0  0  0  0  0  0  0
    0.7923    1.5185    1.7721 H   0  0  0  0  0  0  0  0  0  0  0  0
   -0.8729    1.9232    3.3476 H   0  0  0  0  0  0  0  0  0  0  0  0
   -2.6080    1.6720    3.5701 H   0  0  0  0  0  0  0  0  0  0  0  0
   -1.2383    3.6183    1.5038 H   0  0  0  0  0  0  0  0  0  0  0  0
   -2.9757    3.4652    1.7193 H   0  0  0  0  0  0  0  0  0  0  0  0
   -1.6050   -0.3260    4.2580 H   0  0  0  0  0  0  0  0  0  0  0  0
    2.8912    1.4585    0.0874 H   0  0  0  0  0  0  0  0  0  0  0  0
   -1.4412    2.9728   -0.9032 H   0  0  0  0  0  0  0  0  0  0  0  0
   -2.4425    4.3475   -0.5121 H   0  0  0  0  0  0  0  0  0  0  0  0
    3.0321    0.1917   -1.9442 H   0  0  0  0  0  0  0  0  0  0  0  0
    2.9571   -1.2834   -0.9936 H   0  0  0  0  0  0  0  0  0  0  0  0
   -2.3310    1.4807   -2.0835 H   0  0  0  0  0  0  0  0  0  0  0  0
    4.9626    1.8472   -1.4941 H   0  0  0  0  0  0  0  0  0  0  0  0
    4.9251   -2.2222   -0.0687 H   0  0  0  0  0  0  0  0  0  0  0  0
   -5.2433    1.4778   -2.5376 H   0  0  0  0  0  0  0  0  0  0  0  0
   -3.9926    0.6794   -3.4860 H   0  0  0  0  0  0  0  0  0  0  0  0
    7.4115    1.9153   -1.2227 H   0  0  0  0  0  0  0  0  0  0  0  0
    7.3138   -2.1773    0.2005 H   0  0  0  0  0  0  0  0  0  0  0  0
   -3.1277   -1.5373   -2.8431 H   0  0  0  0  0  0  0  0  0  0  0  0
   -6.1247    0.4422   -0.4565 H   0  0  0  0  0  0  0  0  0  0  0  0
   -3.5777   -3.6481   -1.6416 H   0  0  0  0  0  0  0  0  0  0  0  0
   -6.5602   -1.6726    0.7381 H   0  0  0  0  0  0  0  0  0  0  0  0
    9.2055   -1.4961    1.1588 H   0  0  0  0  0  0  0  0  0  0  0  0
    9.4106   -2.0936   -0.5471 H   0  0  0  0  0  0  0  0  0  0  0  0
   10.6104   -1.0440    0.1995 H   0  0  0  0  0  0  0  0  0  0  0  0
  1 33  1  0  0  0  0
  2 15  2  0  0  0  0
  3 19  2  0  0  0  0
  4 26  1  0  0  0  0
  4 32  1  0  0  0  0
  5  9  1  0  0  0  0
  5 12  1  0  0  0  0
  5 13  1  0  0  0  0
  6 14  1  0  0  0  0
  6 15  1  0  0  0  0
  6 45  1  0  0  0  0
  7 10  1  0  0  0  0
  7 18  1  0  0  0  0
  7 46  1  0  0  0  0
  8 19  1  0  0  0  0
  8 23  1  0  0  0  0
  8 51  1  0  0  0  0
  9 11  1  0  0  0  0
  9 15  1  0  0  0  0
  9 34  1  0  0  0  0
 10 11  1  0  0  0  0
 10 13  1  0  0  0  0
 10 35  1  0  0  0  0
 11 36  1  0  0  0  0
 11 37  1  0  0  0  0
 12 14  1  0  0  0  0
 12 16  1  0  0  0  0
 12 38  1  0  0  0  0
 13 39  1  0  0  0  0
 13 40  1  0  0  0  0
 14 41  1  0  0  0  0
 14 42  1  0  0  0  0
 16 17  1  0  0  0  0
 16 43  1  0  0  0  0
 16 44  1  0  0  0  0
 17 19  1  0  0  0  0
 17 47  1  0  0  0  0
 17 48  1  0  0  0  0
 18 20  1  0  0  0  0
 18 49  1  0  0  0  0
 18 50  1  0  0  0  0
 20 21  2  0  0  0  0
 20 22  1  0  0  0  0
 21 24  1  0  0  0  0
 21 52  1  0  0  0  0
 22 25  2  0  0  0  0
 22 53  1  0  0  0  0
 23 27  1  0  0  0  0
 23 54  1  0  0  0  0
 23 55  1  0  0  0  0
 24 26  2  0  0  0  0
 24 56  1  0  0  0  0
 25 26  1  0  0  0  0
 25 57  1  0  0  0  0
 27 28  2  0  0  0  0
 27 29  1  0  0  0  0
 28 30  1  0  0  0  0
 28 58  1  0  0  0  0
 29 31  2  0  0  0  0
 29 59  1  0  0  0  0
 30 33  2  0  0  0  0
 30 60  1  0  0  0  0
 31 33  1  0  0  0  0
 31 61  1  0  0  0  0
 32 62  1  0  0  0  0
 32 63  1  0  0  0  0
 32 64  1  0  0  0  0
M  END
> <PUBCHEM_COMPOUND_CID>
45360654

> <PUBCHEM_CONFORMER_RMSD>
1

> <PUBCHEM_CONFORMER_DIVERSEORDER>
1
103
195
166
105
91
70
69
137
46
213
65
183
74
19
50
156
29
200
182
210
203
75
23
152
79
45
120
61
191
78
163
199
37
25
15
55
202
177
162
189
40
16
181
141
39
89
214
211
186
104
180
179
30
197
21
60
157
99
154
209
134
52
129
85
187
110
126
63
109
77
90
117
206
198
178
168
67
207
95
174
56
28
107
164
176
204
158
42
196
93
81
97
121
128
190
201
185
111
80
24
167
14
212
143
88
145
26
32
153
82
53
173
140
33
193
101
149
49
161
192
215
57
71
159
172
188
44
47
31
84
7
27
6
112
208
72
175
142
96
13
86
92
106
83
76
148
165
34
48
102
18
123
125
171
170
108
139
114
131
130
119
136
194
41
54
68
36
122
20
2
160
62
146
144
124
151
133
66
17
64
35
22
8
169
155
150
58
10
100
9
87
38
43
115
12
132
3
51
116
11
73
5
147
98
135
59
113
94
205
138
4
127
118
216
184

> <PUBCHEM_MMFF94_PARTIAL_CHARGES>
42
1 -0.19
10 0.27
12 0.27
13 0.27
14 0.3
15 0.57
17 0.06
18 0.41
19 0.57
2 -0.57
20 -0.14
21 -0.15
22 -0.15
23 0.44
24 -0.15
25 -0.15
26 0.08
27 -0.14
28 -0.15
29 -0.15
3 -0.57
30 -0.15
31 -0.15
32 0.28
33 0.19
4 -0.36
45 0.37
46 0.36
5 -0.81
51 0.37
52 0.15
53 0.15
56 0.15
57 0.15
58 0.15
59 0.15
6 -0.73
60 0.15
61 0.15
7 -0.9
8 -0.73
9 0.33

> <PUBCHEM_EFFECTIVE_ROTOR_COUNT>
11.2

> <PUBCHEM_PHARMACOPHORE_FEATURES>
12
1 2 acceptor
1 3 acceptor
1 4 acceptor
1 5 cation
1 6 donor
1 7 cation
1 7 donor
1 8 donor
5 5 9 10 11 13 rings
6 20 21 22 24 25 26 rings
6 27 28 29 30 31 33 rings
6 5 6 9 12 14 15 rings

> <PUBCHEM_HEAVY_ATOM_COUNT>
33

> <PUBCHEM_ATOM_DEF_STEREO_COUNT>
3

> <PUBCHEM_ATOM_UDEF_STEREO_COUNT>
0

> <PUBCHEM_BOND_DEF_STEREO_COUNT>
0

> <PUBCHEM_BOND_UDEF_STEREO_COUNT>
0

> <PUBCHEM_ISOTOPIC_ATOM_COUNT>
0

> <PUBCHEM_COMPONENT_COUNT>
1

> <PUBCHEM_CACTVS_TAUTO_COUNT>
6

> <PUBCHEM_CONFORMER_ID>
02B4260E00000001

> <PUBCHEM_MMFF94_ENERGY>
78.4708

> <PUBCHEM_FEATURE_SELFOVERLAP>
61.085

> <PUBCHEM_SHAPE_FINGERPRINT>
10119406 146 16371002954565140626
10462385 53 14908185244562709228
105312 117 16081091433101838937
10554248 39 17240492369365863342
10577160 103 18265891535624595928
10577160 183 16153697722882658592
10674148 151 18130784547794085497
11488393 25 16986281010924454241
12128747 34 11314300624985477613
12373685 5 18115018612156977386
12422481 6 10231760015313875480
12988421 55 12540974024431938445
13941219 33 13182748025939302220
14040222 275 17240778238141428966
14068700 675 17703508895415437034
14279260 333 18333727992416440166
14932701 244 18409453578971965165
15183329 4 17095517405666529150
15461852 350 18412550903886864876
17686467 74 17846490445056171024
20101258 96 14764342708825316699
2838139 119 16443063885375926612
4015057 19 18260555562666341084
437795 160 18341036473035802970
44802255 64 14057001632801266536
484985 159 15626214698885359373
4938544 92 8718825388127381621
5080951 261 18131356280322449259
57527573 199 7997149992725417815
6086070 43 15502376777015504828
70634741 139 18273492377723035166
77296 10 18341612556239826590

> <PUBCHEM_SHAPE_MULTIPOLES>
634.32
21.3
3.39
2.45
56.56
0.09
1.72
-10.52
-9
-7.5
0.04
-3.21
0.24
-0.46

> <PUBCHEM_SHAPE_SELFOVERLAP>
1346.005

> <PUBCHEM_SHAPE_VOLUME>
355.8

> <PUBCHEM_COORDINATE_TYPE>
2
5
10

$$$$
