26743187
  -OEChem-12032416193D

 73 77  0     1  0  0  0  0  0999 V2000
   -2.4941   -3.4315   -1.1527 O   0  0  0  0  0  0  0  0  0  0  0  0
    4.4060    0.2397   -1.9933 O   0  0  0  0  0  0  0  0  0  0  0  0
    6.8329    0.6076   -0.2559 O   0  0  0  0  0  0  0  0  0  0  0  0
   -3.8460   -1.8613   -0.1023 N   0  0  0  0  0  0  0  0  0  0  0  0
    1.6155   -3.0720    2.1922 N   0  0  0  0  0  0  0  0  0  0  0  0
    3.1507   -0.3519   -2.0662 N   0  0  0  0  0  0  0  0  0  0  0  0
   -0.1564   -2.6766   -0.1338 C   0  0  1  0  0  0  0  0  0  0  0  0
    1.1714   -1.9030    0.0470 C   0  0  2  0  0  0  0  0  0  0  0  0
   -0.0788   -3.9969    0.6509 C   0  0  0  0  0  0  0  0  0  0  0  0
   -1.4031   -1.8777    0.2646 C   0  0  0  0  0  0  0  0  0  0  0  0
    1.5528   -1.7682    1.5308 C   0  0  0  0  0  0  0  0  0  0  0  0
   -6.1119   -0.0969   -0.5112 C   0  0  0  0  0  0  0  0  0  0  0  0
    0.3445   -3.7878    2.1042 C   0  0  0  0  0  0  0  0  0  0  0  0
    1.1639   -0.5329   -0.6323 C   0  0  0  0  0  0  0  0  0  0  0  0
   -4.7885    0.4092    0.0825 C   0  0  0  0  0  0  0  0  0  0  0  0
   -5.8576   -1.3128   -1.4148 C   0  0  0  0  0  0  0  0  0  0  0  0
   -4.0327   -0.7129    0.7922 C   0  0  0  0  0  0  0  0  0  0  0  0
   -5.0817   -2.3991   -0.6736 C   0  0  0  0  0  0  0  0  0  0  0  0
   -2.6243   -2.4657   -0.3962 C   0  0  0  0  0  0  0  0  0  0  0  0
   -6.8218    1.0138   -1.2815 C   0  0  0  0  0  0  0  0  0  0  0  0
    2.5589   -0.0508   -0.9069 C   0  0  0  0  0  0  0  0  0  0  0  0
   -7.5306    1.9649   -0.3566 C   0  0  0  0  0  0  0  0  0  0  0  0
    3.3843    0.7210   -0.0709 C   0  0  0  0  0  0  0  0  0  0  0  0
    4.5332    0.8754   -0.8006 C   0  0  0  0  0  0  0  0  0  0  0  0
   -8.8553    1.7249    0.0086 C   0  0  0  0  0  0  0  0  0  0  0  0
   -6.8637    3.0865    0.1360 C   0  0  0  0  0  0  0  0  0  0  0  0
    5.8085    1.5597   -0.5555 C   0  0  0  0  0  0  0  0  0  0  0  0
   -9.5131    2.6067    0.8664 C   0  0  0  0  0  0  0  0  0  0  0  0
   -7.5212    3.9682    0.9937 C   0  0  0  0  0  0  0  0  0  0  0  0
   -8.8460    3.7284    1.3589 C   0  0  0  0  0  0  0  0  0  0  0  0
    8.0624    1.1146    0.0585 C   0  0  0  0  0  0  0  0  0  0  0  0
    8.2645    2.4946    0.0746 C   0  0  0  0  0  0  0  0  0  0  0  0
    9.1152    0.2520    0.3632 C   0  0  0  0  0  0  0  0  0  0  0  0
    9.5196    3.0121    0.3955 C   0  0  0  0  0  0  0  0  0  0  0  0
   10.3702    0.7693    0.6842 C   0  0  0  0  0  0  0  0  0  0  0  0
   10.5724    2.1495    0.7003 C   0  0  0  0  0  0  0  0  0  0  0  0
   -0.2138   -2.9249   -1.2027 H   0  0  0  0  0  0  0  0  0  0  0  0
    1.9501   -2.5180   -0.4312 H   0  0  0  0  0  0  0  0  0  0  0  0
    0.6535   -4.6532    0.1613 H   0  0  0  0  0  0  0  0  0  0  0  0
   -1.0317   -4.5366    0.6275 H   0  0  0  0  0  0  0  0  0  0  0  0
   -1.3309   -0.8457   -0.0905 H   0  0  0  0  0  0  0  0  0  0  0  0
   -1.5404   -1.8613    1.3490 H   0  0  0  0  0  0  0  0  0  0  0  0
    2.5413   -1.3110    1.6317 H   0  0  0  0  0  0  0  0  0  0  0  0
    0.8455   -1.1162    2.0583 H   0  0  0  0  0  0  0  0  0  0  0  0
   -6.7516   -0.4352    0.3165 H   0  0  0  0  0  0  0  0  0  0  0  0
   -0.4296   -3.2601    2.6720 H   0  0  0  0  0  0  0  0  0  0  0  0
    0.4648   -4.7676    2.5798 H   0  0  0  0  0  0  0  0  0  0  0  0
    0.6446    0.2134   -0.0185 H   0  0  0  0  0  0  0  0  0  0  0  0
    0.6250   -0.5880   -1.5873 H   0  0  0  0  0  0  0  0  0  0  0  0
   -4.9629    1.2101    0.8072 H   0  0  0  0  0  0  0  0  0  0  0  0
   -4.1553    0.8198   -0.7146 H   0  0  0  0  0  0  0  0  0  0  0  0
   -5.2868   -1.0004   -2.2990 H   0  0  0  0  0  0  0  0  0  0  0  0
   -6.8084   -1.7250   -1.7720 H   0  0  0  0  0  0  0  0  0  0  0  0
   -3.0856   -0.3230    1.1682 H   0  0  0  0  0  0  0  0  0  0  0  0
   -4.6026   -1.0680    1.6592 H   0  0  0  0  0  0  0  0  0  0  0  0
   -5.6781   -2.8002    0.1544 H   0  0  0  0  0  0  0  0  0  0  0  0
   -4.8681   -3.2292   -1.3542 H   0  0  0  0  0  0  0  0  0  0  0  0
    1.8617   -2.9414    3.1729 H   0  0  0  0  0  0  0  0  0  0  0  0
   -7.5658    0.5837   -1.9654 H   0  0  0  0  0  0  0  0  0  0  0  0
   -6.1217    1.5623   -1.9251 H   0  0  0  0  0  0  0  0  0  0  0  0
    3.1766    1.1110    0.9146 H   0  0  0  0  0  0  0  0  0  0  0  0
   -9.3853    0.8534   -0.3663 H   0  0  0  0  0  0  0  0  0  0  0  0
   -5.8350    3.2924   -0.1475 H   0  0  0  0  0  0  0  0  0  0  0  0
    6.0736    2.1317   -1.4539 H   0  0  0  0  0  0  0  0  0  0  0  0
    5.6602    2.2388    0.2940 H   0  0  0  0  0  0  0  0  0  0  0  0
  -10.5443    2.4197    1.1511 H   0  0  0  0  0  0  0  0  0  0  0  0
   -7.0027    4.8428    1.3755 H   0  0  0  0  0  0  0  0  0  0  0  0
   -9.3580    4.4151    2.0265 H   0  0  0  0  0  0  0  0  0  0  0  0
    7.4982    3.2261   -0.1569 H   0  0  0  0  0  0  0  0  0  0  0  0
    8.9636   -0.8239    0.3522 H   0  0  0  0  0  0  0  0  0  0  0  0
    9.6786    4.0865    0.4070 H   0  0  0  0  0  0  0  0  0  0  0  0
   11.1900    0.0977    0.9215 H   0  0  0  0  0  0  0  0  0  0  0  0
   11.5496    2.5523    0.9498 H   0  0  0  0  0  0  0  0  0  0  0  0
  1 19  2  0  0  0  0
  2  6  1  0  0  0  0
  2 24  1  0  0  0  0
  3 27  1  0  0  0  0
  3 31  1  0  0  0  0
  4 17  1  0  0  0  0
  4 18  1  0  0  0  0
  4 19  1  0  0  0  0
  5 11  1  0  0  0  0
  5 13  1  0  0  0  0
  5 58  1  0  0  0  0
  6 21  2  0  0  0  0
  7  8  1  0  0  0  0
  7  9  1  0  0  0  0
  7 10  1  0  0  0  0
  7 37  1  0  0  0  0
  8 11  1  0  0  0  0
  8 14  1  0  0  0  0
  8 38  1  0  0  0  0
  9 13  1  0  0  0  0
  9 39  1  0  0  0  0
  9 40  1  0  0  0  0
 10 19  1  0  0  0  0
 10 41  1  0  0  0  0
 10 42  1  0  0  0  0
 11 43  1  0  0  0  0
 11 44  1  0  0  0  0
 12 15  1  0  0  0  0
 12 16  1  0  0  0  0
 12 20  1  0  0  0  0
 12 45  1  0  0  0  0
 13 46  1  0  0  0  0
 13 47  1  0  0  0  0
 14 21  1  0  0  0  0
 14 48  1  0  0  0  0
 14 49  1  0  0  0  0
 15 17  1  0  0  0  0
 15 50  1  0  0  0  0
 15 51  1  0  0  0  0
 16 18  1  0  0  0  0
 16 52  1  0  0  0  0
 16 53  1  0  0  0  0
 17 54  1  0  0  0  0
 17 55  1  0  0  0  0
 18 56  1  0  0  0  0
 18 57  1  0  0  0  0
 20 22  1  0  0  0  0
 20 59  1  0  0  0  0
 20 60  1  0  0  0  0
 21 23  1  0  0  0  0
 22 25  2  0  0  0  0
 22 26  1  0  0  0  0
 23 24  2  0  0  0  0
 23 61  1  0  0  0  0
 24 27  1  0  0  0  0
 25 28  1  0  0  0  0
 25 62  1  0  0  0  0
 26 29  2  0  0  0  0
 26 63  1  0  0  0  0
 27 64  1  0  0  0  0
 27 65  1  0  0  0  0
 28 30  2  0  0  0  0
 28 66  1  0  0  0  0
 29 30  1  0  0  0  0
 29 67  1  0  0  0  0
 30 68  1  0  0  0  0
 31 32  2  0  0  0  0
 31 33  1  0  0  0  0
 32 34  1  0  0  0  0
 32 69  1  0  0  0  0
 33 35  2  0  0  0  0
 33 70  1  0  0  0  0
 34 36  2  0  0  0  0
 34 71  1  0  0  0  0
 35 36  1  0  0  0  0
 35 72  1  0  0  0  0
 36 73  1  0  0  0  0
M  END
> <PUBCHEM_COMPOUND_CID>
26743187

> <PUBCHEM_CONFORMER_RMSD>
1.6

> <PUBCHEM_CONFORMER_DIVERSEORDER>
1
20
52
7
79
71
40
95
23
25
80
108
111
105
44
61
72
34
15
33
28
70
92
54
59
94
63
32
57
78
96
86
3
11
99
56
98
77
89
21
39
83
101
85
88
47
22
67
91
6
66
53
48
51
37
38
106
17
41
76
31
50
36
102
35
13
109
112
64
10
19
69
14
12
73
82
74
24
60
65
27
26
46
75
8
30
16
81
68
103
90
84
4
104
42
2
62
58
9
100
43
110
45
49
107
93
55
97
5
29
18
87

> <PUBCHEM_MMFF94_PARTIAL_CHARGES>
42
1 -0.57
10 0.06
11 0.27
13 0.27
14 0.18
17 0.3
18 0.3
19 0.57
2 -0.02
20 0.14
21 0.11
22 -0.14
23 -0.15
24 -0.04
25 -0.15
26 -0.15
27 0.46
28 -0.15
29 -0.15
3 -0.36
30 -0.15
31 0.08
32 -0.15
33 -0.15
34 -0.15
35 -0.15
36 -0.15
4 -0.66
5 -0.9
58 0.36
6 -0.41
61 0.15
62 0.15
63 0.15
66 0.15
67 0.15
68 0.15
69 0.15
70 0.15
71 0.15
72 0.15
73 0.15

> <PUBCHEM_EFFECTIVE_ROTOR_COUNT>
12.4

> <PUBCHEM_PHARMACOPHORE_FEATURES>
10
1 1 acceptor
1 3 acceptor
1 5 cation
1 5 donor
1 6 acceptor
5 2 6 21 23 24 rings
6 22 25 26 28 29 30 rings
6 31 32 33 34 35 36 rings
6 4 12 15 16 17 18 rings
6 5 7 8 9 11 13 rings

> <PUBCHEM_HEAVY_ATOM_COUNT>
36

> <PUBCHEM_ATOM_DEF_STEREO_COUNT>
2

> <PUBCHEM_ATOM_UDEF_STEREO_COUNT>
0

> <PUBCHEM_BOND_DEF_STEREO_COUNT>
0

> <PUBCHEM_BOND_UDEF_STEREO_COUNT>
0

> <PUBCHEM_ISOTOPIC_ATOM_COUNT>
0

> <PUBCHEM_COMPONENT_COUNT>
1

> <PUBCHEM_CACTVS_TAUTO_COUNT>
1

> <PUBCHEM_CONFORMER_ID>
0198119300000001

> <PUBCHEM_MMFF94_ENERGY>
78.8683

> <PUBCHEM_FEATURE_SELFOVERLAP>
50.748

> <PUBCHEM_SHAPE_FINGERPRINT>
10100884 174 8790877484855857029
10190206 1 17561089073293449289
10280341 67 18409728426983690445
10372059 70 18343015614987260856
10533779 1 18335696101815396061
11135926 11 17968088716614503615
11181472 205 18261116301391678436
11476731 50 10087640378163486836
11578821 258 18267867375432167988
11621639 183 14925319986088383535
1200032 147 18187933837669262019
12013929 2 18343023303669453164
12559416 138 8430321182458153513
13008946 267 18336824196102302218
13008946 335 17676209065227808363
131240 88 18410302389254292793
1361 4 9654760472617823156
13726171 33 18342463600363362643
14040221 275 15864079783840382089
14394314 77 18260544545979683724
14671636 106 8790885185915893132
15289351 153 18337380630521042226
15439362 3 18411138004837793886
15685185 35 18342741802554121897
16991971 28 11167939169356243782
19438510 23 18260554403346398787
20105231 36 11241964881209189640
21585481 151 10665227051743224405
21774942 28 18413672413482575588
21781055 127 18041290920059165030
22899556 56 18043543908688410435
44280117 145 18200591535877111271
44426699 153 14274556407692203296
44575985 433 18202284663535721745
44575985 74 18341324557893205709
44802255 64 17489590107923431303
4516262 110 18261103038163305631
4756326 101 17632006538408606024
5372103 7 17775007873153854293
54039377 194 9511460026636040009
57303763 176 18341332198613722680
58260988 521 13117993405982630298
5937810 71 17846506907396758609
636775 72 18341895203869566493
636775 8 8718831998382730264
6673363 416 18059853992304366725
6698420 124 18114462362020150426

> <PUBCHEM_SHAPE_MULTIPOLES>
708.31
37.67
5.25
1.48
40.72
1.08
-0.14
-55.18
-5.42
-7.38
-2.41
-0.26
0.76
-2.99

> <PUBCHEM_SHAPE_SELFOVERLAP>
1505.177

> <PUBCHEM_SHAPE_VOLUME>
390.2

> <PUBCHEM_COORDINATE_TYPE>
2
5
10

$$$$
