45783312
  -OEChem-12032416363D

 61 65  0     1  0  0  0  0  0999 V2000
   -3.6322    1.2416   -1.7454 O   0  0  0  0  0  0  0  0  0  0  0  0
    5.8568   -1.4778    1.3880 O   0  0  0  0  0  0  0  0  0  0  0  0
   -3.9912    0.4290    1.8205 N   0  0  1  0  0  0  0  0  0  0  0  0
    3.1044    0.8720   -0.1474 N   0  0  0  0  0  0  0  0  0  0  0  0
   -1.9590    1.0888   -0.2641 N   0  0  0  0  0  0  0  0  0  0  0  0
   -2.4486    1.2340   -2.4942 N   0  0  0  0  0  0  0  0  0  0  0  0
    2.6233    1.0199   -2.4609 N   0  0  0  0  0  0  0  0  0  0  0  0
    7.3983    0.2255    1.5178 N   0  0  0  0  0  0  0  0  0  0  0  0
    0.8098   -4.2202   -1.6907 N   0  0  0  0  0  0  0  0  0  0  0  0
   -4.3674    1.1417    0.5833 C   0  0  1  0  0  0  0  0  0  0  0  0
   -4.7601    2.5555    1.0504 C   0  0  0  0  0  0  0  0  0  0  0  0
   -4.6321    2.5233    2.5667 C   0  0  0  0  0  0  0  0  0  0  0  0
   -4.7529    1.0509    2.9038 C   0  0  0  0  0  0  0  0  0  0  0  0
    5.0815    0.7081    1.9724 C   0  0  0  0  0  0  0  0  0  0  0  0
   -4.2172   -1.0087    1.7467 C   0  0  0  0  0  0  0  0  0  0  0  0
    3.7049    0.0596    2.1011 C   0  0  0  0  0  0  0  0  0  0  0  0
    5.0593    1.8637    0.9740 C   0  0  0  0  0  0  0  0  0  0  0  0
    3.0642   -0.2826    0.7543 C   0  0  0  0  0  0  0  0  0  0  0  0
    4.4224    1.4818   -0.3619 C   0  0  0  0  0  0  0  0  0  0  0  0
   -3.2542    1.1533   -0.4432 C   0  0  0  0  0  0  0  0  0  0  0  0
   -3.1178   -1.7111    0.9950 C   0  0  0  0  0  0  0  0  0  0  0  0
    2.1724    0.9679   -1.1874 C   0  0  0  0  0  0  0  0  0  0  0  0
    6.1289   -0.2973    1.5924 C   0  0  0  0  0  0  0  0  0  0  0  0
   -1.5069    1.1416   -1.5506 C   0  0  0  0  0  0  0  0  0  0  0  0
    0.8323    1.0048   -0.8371 C   0  0  0  0  0  0  0  0  0  0  0  0
   -0.1053    1.1015   -1.8593 C   0  0  0  0  0  0  0  0  0  0  0  0
   -3.4190   -2.4596   -0.1429 C   0  0  0  0  0  0  0  0  0  0  0  0
   -1.7983   -1.6133    1.4366 C   0  0  0  0  0  0  0  0  0  0  0  0
    0.3198    1.1574   -3.1820 C   0  0  0  0  0  0  0  0  0  0  0  0
    1.6828    1.1136   -3.4275 C   0  0  0  0  0  0  0  0  0  0  0  0
   -2.4006   -3.1102   -0.8392 C   0  0  0  0  0  0  0  0  0  0  0  0
   -0.7799   -2.2640    0.7401 C   0  0  0  0  0  0  0  0  0  0  0  0
   -1.0809   -3.0124   -0.3978 C   0  0  0  0  0  0  0  0  0  0  0  0
   -0.0376   -3.6789   -1.1113 C   0  0  0  0  0  0  0  0  0  0  0  0
   -5.2560    0.6845    0.1257 H   0  0  0  0  0  0  0  0  0  0  0  0
   -5.8022    2.7584    0.7747 H   0  0  0  0  0  0  0  0  0  0  0  0
   -4.1390    3.3509    0.6243 H   0  0  0  0  0  0  0  0  0  0  0  0
   -3.6480    2.9049    2.8658 H   0  0  0  0  0  0  0  0  0  0  0  0
   -5.3968    3.1310    3.0595 H   0  0  0  0  0  0  0  0  0  0  0  0
   -4.3287    0.8276    3.8876 H   0  0  0  0  0  0  0  0  0  0  0  0
   -5.8061    0.7426    2.8902 H   0  0  0  0  0  0  0  0  0  0  0  0
    5.3703    1.0987    2.9576 H   0  0  0  0  0  0  0  0  0  0  0  0
    3.0441    0.7650    2.6231 H   0  0  0  0  0  0  0  0  0  0  0  0
    3.7477   -0.8409    2.7256 H   0  0  0  0  0  0  0  0  0  0  0  0
    6.0528    2.2853    0.7900 H   0  0  0  0  0  0  0  0  0  0  0  0
    4.4655    2.6770    1.4139 H   0  0  0  0  0  0  0  0  0  0  0  0
   -4.2154   -1.4389    2.7582 H   0  0  0  0  0  0  0  0  0  0  0  0
   -5.2051   -1.2442    1.3294 H   0  0  0  0  0  0  0  0  0  0  0  0
    3.5745   -1.1283    0.2795 H   0  0  0  0  0  0  0  0  0  0  0  0
    2.0370   -0.6082    0.9478 H   0  0  0  0  0  0  0  0  0  0  0  0
    4.3344    2.3955   -0.9636 H   0  0  0  0  0  0  0  0  0  0  0  0
    5.0687    0.7861   -0.9111 H   0  0  0  0  0  0  0  0  0  0  0  0
    0.5294    0.9772    0.2056 H   0  0  0  0  0  0  0  0  0  0  0  0
   -4.4422   -2.5426   -0.4994 H   0  0  0  0  0  0  0  0  0  0  0  0
   -1.5486   -1.0389    2.3248 H   0  0  0  0  0  0  0  0  0  0  0  0
    8.1861   -0.3627    1.2668 H   0  0  0  0  0  0  0  0  0  0  0  0
    7.6135    1.1893    1.7506 H   0  0  0  0  0  0  0  0  0  0  0  0
   -0.3649    1.2327   -4.0202 H   0  0  0  0  0  0  0  0  0  0  0  0
    2.0664    1.1539   -4.4417 H   0  0  0  0  0  0  0  0  0  0  0  0
   -2.6508   -3.6890   -1.7251 H   0  0  0  0  0  0  0  0  0  0  0  0
    0.2422   -2.1851    1.1005 H   0  0  0  0  0  0  0  0  0  0  0  0
  1  6  1  0  0  0  0
  1 20  1  0  0  0  0
  2 23  2  0  0  0  0
  3 10  1  0  0  0  0
  3 13  1  0  0  0  0
  3 15  1  0  0  0  0
  4 18  1  0  0  0  0
  4 19  1  0  0  0  0
  4 22  1  0  0  0  0
  5 20  2  0  0  0  0
  5 24  1  0  0  0  0
  6 24  2  0  0  0  0
  7 22  2  0  0  0  0
  7 30  1  0  0  0  0
  8 23  1  0  0  0  0
  8 56  1  0  0  0  0
  8 57  1  0  0  0  0
  9 34  3  0  0  0  0
 10 11  1  0  0  0  0
 10 20  1  0  0  0  0
 10 35  1  0  0  0  0
 11 12  1  0  0  0  0
 11 36  1  0  0  0  0
 11 37  1  0  0  0  0
 12 13  1  0  0  0  0
 12 38  1  0  0  0  0
 12 39  1  0  0  0  0
 13 40  1  0  0  0  0
 13 41  1  0  0  0  0
 14 16  1  0  0  0  0
 14 17  1  0  0  0  0
 14 23  1  0  0  0  0
 14 42  1  0  0  0  0
 15 21  1  0  0  0  0
 15 47  1  0  0  0  0
 15 48  1  0  0  0  0
 16 18  1  0  0  0  0
 16 43  1  0  0  0  0
 16 44  1  0  0  0  0
 17 19  1  0  0  0  0
 17 45  1  0  0  0  0
 17 46  1  0  0  0  0
 18 49  1  0  0  0  0
 18 50  1  0  0  0  0
 19 51  1  0  0  0  0
 19 52  1  0  0  0  0
 21 27  2  0  0  0  0
 21 28  1  0  0  0  0
 22 25  1  0  0  0  0
 24 26  1  0  0  0  0
 25 26  2  0  0  0  0
 25 53  1  0  0  0  0
 26 29  1  0  0  0  0
 27 31  1  0  0  0  0
 27 54  1  0  0  0  0
 28 32  2  0  0  0  0
 28 55  1  0  0  0  0
 29 30  2  0  0  0  0
 29 58  1  0  0  0  0
 30 59  1  0  0  0  0
 31 33  2  0  0  0  0
 31 60  1  0  0  0  0
 32 33  1  0  0  0  0
 32 61  1  0  0  0  0
 33 34  1  0  0  0  0
M  END
> <PUBCHEM_COMPOUND_CID>
45783312

> <PUBCHEM_CONFORMER_RMSD>
1

> <PUBCHEM_CONFORMER_DIVERSEORDER>
1
34
91
123
70
167
61
103
65
80
30
180
109
187
23
192
116
115
76
7
85
102
83
170
93
128
46
88
176
141
50
81
127
129
45
100
43
99
87
171
29
160
199
135
82
161
66
31
158
40
172
3
133
145
36
35
21
124
58
156
147
146
168
89
51
130
178
166
159
126
139
62
197
152
191
142
11
97
200
27
17
42
173
193
24
112
198
195
157
28
56
194
186
190
119
38
59
154
37
44
179
49
47
26
162
19
155
143
132
169
79
77
9
140
189
73
177
67
33
75
121
72
52
16
5
114
125
60
111
117
122
98
113
148
63
110
184
185
12
104
196
144
32
41
188
134
48
181
55
120
90
175
107
20
39
69
136
53
163
10
153
118
105
68
71
183
15
8
96
164
150
57
137
149
2
92
25
131
106
95
54
151
84
74
4
14
101
78
108
138
13
165
174
182
6
94
64
18
86
22

> <PUBCHEM_MMFF94_PARTIAL_CHARGES>
39
1 -0.02
10 0.45
13 0.27
14 0.06
15 0.41
18 0.37
19 0.37
2 -0.57
20 0.3
21 -0.14
22 0.41
23 0.57
24 0.46
25 -0.15
26 0.05
27 -0.15
28 -0.15
29 -0.15
3 -0.81
30 0.16
31 -0.15
32 -0.15
33 0.07
34 0.48
4 -0.84
5 -0.57
53 0.15
54 0.15
55 0.15
56 0.37
57 0.37
58 0.15
59 0.15
6 -0.41
60 0.15
61 0.15
7 -0.62
8 -0.8
9 -0.56

> <PUBCHEM_EFFECTIVE_ROTOR_COUNT>
8.2

> <PUBCHEM_PHARMACOPHORE_FEATURES>
11
1 2 acceptor
1 3 cation
1 8 donor
1 9 acceptor
3 4 7 22 cation
3 5 6 24 cation
5 1 5 6 20 24 rings
5 3 10 11 12 13 rings
6 21 27 28 31 32 33 rings
6 4 14 16 17 18 19 rings
6 7 22 25 26 29 30 rings

> <PUBCHEM_HEAVY_ATOM_COUNT>
34

> <PUBCHEM_ATOM_DEF_STEREO_COUNT>
1

> <PUBCHEM_ATOM_UDEF_STEREO_COUNT>
0

> <PUBCHEM_BOND_DEF_STEREO_COUNT>
0

> <PUBCHEM_BOND_UDEF_STEREO_COUNT>
0

> <PUBCHEM_ISOTOPIC_ATOM_COUNT>
0

> <PUBCHEM_COMPONENT_COUNT>
1

> <PUBCHEM_CACTVS_TAUTO_COUNT>
2

> <PUBCHEM_CONFORMER_ID>
02BA991000000001

> <PUBCHEM_MMFF94_ENERGY>
80.4777

> <PUBCHEM_FEATURE_SELFOVERLAP>
55.823

> <PUBCHEM_SHAPE_FINGERPRINT>
11582403 64 17131550540280481391
12422481 6 18114187397395864274
12633257 1 18410571807835744944
12788726 201 17837234906038049647
13642711 20 17417823803004435203
14068700 675 17983840457775524207
14950920 106 18270954765005686280
16110190 28 17748548134616628480
19438510 23 16988294062407111249
20554085 129 18271250413854489209
21033648 29 17203343186339482785
21133410 90 17981588666978729837
21796203 349 17169296808880597508
21987440 362 17907585726605797689
22440779 20 13912601632796487951
244849 19 17274282594099612630
474113 269 17168434882707250203
484985 159 16515950554378829203
5265222 85 17690049786485833374
581034 39 18339926034341923222
5951187 136 16410720488377672737
7064713 232 18409456877306511625
9981440 41 16487251079926103301

> <PUBCHEM_SHAPE_MULTIPOLES>
653.1
13.09
3.74
3.33
16.4
4.47
1.57
-6.13
-12.4
-3.46
0.51
0.33
-1.65
-1.35

> <PUBCHEM_SHAPE_SELFOVERLAP>
1419.72

> <PUBCHEM_SHAPE_VOLUME>
352.8

> <PUBCHEM_COORDINATE_TYPE>
2
5
10

$$$$
