26743118
  -OEChem-12032416193D

 63 67  0     1  0  0  0  0  0999 V2000
   -3.9250    3.1269    0.9312 S   0  0  0  0  0  0  0  0  0  0  0  0
    3.4772   -2.9890    0.9806 O   0  0  0  0  0  0  0  0  0  0  0  0
   -0.9235    1.9682    1.8264 O   0  0  0  0  0  0  0  0  0  0  0  0
    2.0788    3.2071   -1.5443 O   0  0  0  0  0  0  0  0  0  0  0  0
    2.8920    3.8772    0.6230 O   0  0  0  0  0  0  0  0  0  0  0  0
   -2.2193   -3.4902   -0.3643 N   0  0  0  0  0  0  0  0  0  0  0  0
    3.0557   -2.1485   -1.1447 N   0  0  0  0  0  0  0  0  0  0  0  0
   -0.1559    0.8121    1.8989 N   0  0  0  0  0  0  0  0  0  0  0  0
    0.4812   -3.4909    0.8248 C   0  0  1  0  0  0  0  0  0  0  0  0
   -0.3261   -2.1930    0.5839 C   0  0  2  0  0  0  0  0  0  0  0  0
   -0.4947   -4.6728    0.9506 C   0  0  0  0  0  0  0  0  0  0  0  0
   -1.3244   -2.3519   -0.5753 C   0  0  0  0  0  0  0  0  0  0  0  0
   -1.4804   -4.7421   -0.2150 C   0  0  0  0  0  0  0  0  0  0  0  0
    0.5615   -0.9673    0.3642 C   0  0  0  0  0  0  0  0  0  0  0  0
    1.5437   -3.7722   -0.2444 C   0  0  0  0  0  0  0  0  0  0  0  0
   -0.1781    0.3044    0.6633 C   0  0  0  0  0  0  0  0  0  0  0  0
    2.7954   -2.9458   -0.0399 C   0  0  0  0  0  0  0  0  0  0  0  0
   -0.9365    1.0892   -0.2226 C   0  0  0  0  0  0  0  0  0  0  0  0
   -1.3827    2.1224    0.5583 C   0  0  0  0  0  0  0  0  0  0  0  0
    4.1882   -1.2544   -1.2234 C   0  0  0  0  0  0  0  0  0  0  0  0
   -2.2176    3.3024    0.3026 C   0  0  0  0  0  0  0  0  0  0  0  0
    3.8615    0.1136   -0.6984 C   0  0  0  0  0  0  0  0  0  0  0  0
    3.0873    0.9852   -1.4681 C   0  0  0  0  0  0  0  0  0  0  0  0
    4.3360    0.5047    0.5661 C   0  0  0  0  0  0  0  0  0  0  0  0
    2.8114    2.2308   -0.9424 C   0  0  0  0  0  0  0  0  0  0  0  0
    3.2758    2.6135    0.2952 C   0  0  0  0  0  0  0  0  0  0  0  0
    4.0419    1.7720    1.0753 C   0  0  0  0  0  0  0  0  0  0  0  0
   -4.4403    1.6274    0.1071 C   0  0  0  0  0  0  0  0  0  0  0  0
    2.1337    4.2471   -0.5466 C   0  0  0  0  0  0  0  0  0  0  0  0
   -4.4555    1.5669   -1.2863 C   0  0  0  0  0  0  0  0  0  0  0  0
   -4.8277    0.5174    0.8577 C   0  0  0  0  0  0  0  0  0  0  0  0
   -4.8581    0.3964   -1.9293 C   0  0  0  0  0  0  0  0  0  0  0  0
   -5.2302   -0.6532    0.2147 C   0  0  0  0  0  0  0  0  0  0  0  0
   -5.2455   -0.7136   -1.1788 C   0  0  0  0  0  0  0  0  0  0  0  0
    0.9906   -3.3913    1.7933 H   0  0  0  0  0  0  0  0  0  0  0  0
   -0.9175   -2.0280    1.4983 H   0  0  0  0  0  0  0  0  0  0  0  0
   -1.0599   -4.5659    1.8863 H   0  0  0  0  0  0  0  0  0  0  0  0
    0.0529   -5.6194    1.0304 H   0  0  0  0  0  0  0  0  0  0  0  0
   -1.9559   -1.4625   -0.6553 H   0  0  0  0  0  0  0  0  0  0  0  0
   -0.8068   -2.4552   -1.5363 H   0  0  0  0  0  0  0  0  0  0  0  0
   -2.1950   -5.5515   -0.0289 H   0  0  0  0  0  0  0  0  0  0  0  0
   -0.9592   -4.9880   -1.1477 H   0  0  0  0  0  0  0  0  0  0  0  0
    0.9021   -0.9180   -0.6731 H   0  0  0  0  0  0  0  0  0  0  0  0
    1.4341   -0.9989    1.0256 H   0  0  0  0  0  0  0  0  0  0  0  0
    1.1389   -3.6484   -1.2537 H   0  0  0  0  0  0  0  0  0  0  0  0
    1.8746   -4.8170   -0.1794 H   0  0  0  0  0  0  0  0  0  0  0  0
   -2.8590   -3.5674   -1.1544 H   0  0  0  0  0  0  0  0  0  0  0  0
   -1.1270    0.9319   -1.2739 H   0  0  0  0  0  0  0  0  0  0  0  0
    2.4301   -2.1740   -1.9443 H   0  0  0  0  0  0  0  0  0  0  0  0
    4.4882   -1.1899   -2.2755 H   0  0  0  0  0  0  0  0  0  0  0  0
    5.0309   -1.6928   -0.6764 H   0  0  0  0  0  0  0  0  0  0  0  0
   -2.2539    3.5250   -0.7690 H   0  0  0  0  0  0  0  0  0  0  0  0
   -1.7779    4.1806    0.7878 H   0  0  0  0  0  0  0  0  0  0  0  0
    2.7125    0.6974   -2.4445 H   0  0  0  0  0  0  0  0  0  0  0  0
    4.9357   -0.1773    1.1638 H   0  0  0  0  0  0  0  0  0  0  0  0
    4.4049    2.0771    2.0500 H   0  0  0  0  0  0  0  0  0  0  0  0
    1.1106    4.4915   -0.2385 H   0  0  0  0  0  0  0  0  0  0  0  0
    2.5894    5.1383   -0.9931 H   0  0  0  0  0  0  0  0  0  0  0  0
   -4.1648    2.4214   -1.8920 H   0  0  0  0  0  0  0  0  0  0  0  0
   -4.8206    0.5453    1.9444 H   0  0  0  0  0  0  0  0  0  0  0  0
   -4.8707    0.3492   -3.0143 H   0  0  0  0  0  0  0  0  0  0  0  0
   -5.5301   -1.5184    0.7988 H   0  0  0  0  0  0  0  0  0  0  0  0
   -5.5575   -1.6256   -1.6792 H   0  0  0  0  0  0  0  0  0  0  0  0
  1 21  1  0  0  0  0
  1 28  1  0  0  0  0
  2 17  2  0  0  0  0
  3  8  1  0  0  0  0
  3 19  1  0  0  0  0
  4 25  1  0  0  0  0
  4 29  1  0  0  0  0
  5 26  1  0  0  0  0
  5 29  1  0  0  0  0
  6 12  1  0  0  0  0
  6 13  1  0  0  0  0
  6 47  1  0  0  0  0
  7 17  1  0  0  0  0
  7 20  1  0  0  0  0
  7 49  1  0  0  0  0
  8 16  2  0  0  0  0
  9 10  1  0  0  0  0
  9 11  1  0  0  0  0
  9 15  1  0  0  0  0
  9 35  1  0  0  0  0
 10 12  1  0  0  0  0
 10 14  1  0  0  0  0
 10 36  1  0  0  0  0
 11 13  1  0  0  0  0
 11 37  1  0  0  0  0
 11 38  1  0  0  0  0
 12 39  1  0  0  0  0
 12 40  1  0  0  0  0
 13 41  1  0  0  0  0
 13 42  1  0  0  0  0
 14 16  1  0  0  0  0
 14 43  1  0  0  0  0
 14 44  1  0  0  0  0
 15 17  1  0  0  0  0
 15 45  1  0  0  0  0
 15 46  1  0  0  0  0
 16 18  1  0  0  0  0
 18 19  2  0  0  0  0
 18 48  1  0  0  0  0
 19 21  1  0  0  0  0
 20 22  1  0  0  0  0
 20 50  1  0  0  0  0
 20 51  1  0  0  0  0
 21 52  1  0  0  0  0
 21 53  1  0  0  0  0
 22 23  2  0  0  0  0
 22 24  1  0  0  0  0
 23 25  1  0  0  0  0
 23 54  1  0  0  0  0
 24 27  2  0  0  0  0
 24 55  1  0  0  0  0
 25 26  2  0  0  0  0
 26 27  1  0  0  0  0
 27 56  1  0  0  0  0
 28 30  2  0  0  0  0
 28 31  1  0  0  0  0
 29 57  1  0  0  0  0
 29 58  1  0  0  0  0
 30 32  1  0  0  0  0
 30 59  1  0  0  0  0
 31 33  2  0  0  0  0
 31 60  1  0  0  0  0
 32 34  2  0  0  0  0
 32 61  1  0  0  0  0
 33 34  1  0  0  0  0
 33 62  1  0  0  0  0
 34 63  1  0  0  0  0
M  END
> <PUBCHEM_COMPOUND_CID>
26743118

> <PUBCHEM_CONFORMER_RMSD>
1.6

> <PUBCHEM_CONFORMER_DIVERSEORDER>
1
108
60
59
19
4
65
93
74
113
116
61
20
6
127
52
75
83
57
128
126
47
8
53
33
26
90
106
51
92
29
85
9
110
64
95
122
17
43
46
119
91
79
13
112
48
81
40
121
69
118
73
96
76
98
109
50
56
7
49
124
71
77
28
38
99
25
120
104
123
72
63
103
89
21
100
87
105
82
31
32
58
67
37
35
114
62
16
39
107
22
117
5
111
78
2
129
12
86
101
115
97
15
45
27
54
88
68
10
3
24
23
80
84
41
94
66
42
102
55
125
70
18
30
11
44
34
36
14

> <PUBCHEM_MMFF94_PARTIAL_CHARGES>
42
1 -0.33
12 0.27
13 0.27
14 0.18
15 0.06
16 0.11
17 0.57
18 -0.15
19 -0.04
2 -0.57
20 0.44
21 0.41
22 -0.14
23 -0.15
24 -0.15
25 0.08
26 0.08
27 -0.15
28 0.1
29 0.56
3 -0.02
30 -0.15
31 -0.15
32 -0.15
33 -0.15
34 -0.15
4 -0.36
47 0.36
48 0.15
49 0.37
5 -0.36
54 0.15
55 0.15
56 0.15
59 0.15
6 -0.9
60 0.15
61 0.15
62 0.15
63 0.15
7 -0.73
8 -0.41

> <PUBCHEM_EFFECTIVE_ROTOR_COUNT>
11.8

> <PUBCHEM_PHARMACOPHORE_FEATURES>
12
1 2 acceptor
1 4 acceptor
1 5 acceptor
1 6 cation
1 6 donor
1 7 donor
1 8 acceptor
5 3 8 16 18 19 rings
5 4 5 25 26 29 rings
6 22 23 24 25 26 27 rings
6 28 30 31 32 33 34 rings
6 6 9 10 11 12 13 rings

> <PUBCHEM_HEAVY_ATOM_COUNT>
34

> <PUBCHEM_ATOM_DEF_STEREO_COUNT>
2

> <PUBCHEM_ATOM_UDEF_STEREO_COUNT>
0

> <PUBCHEM_BOND_DEF_STEREO_COUNT>
0

> <PUBCHEM_BOND_UDEF_STEREO_COUNT>
0

> <PUBCHEM_ISOTOPIC_ATOM_COUNT>
0

> <PUBCHEM_COMPONENT_COUNT>
1

> <PUBCHEM_CACTVS_TAUTO_COUNT>
2

> <PUBCHEM_CONFORMER_ID>
0198114E00000001

> <PUBCHEM_MMFF94_ENERGY>
59.7658

> <PUBCHEM_FEATURE_SELFOVERLAP>
61.053

> <PUBCHEM_SHAPE_FINGERPRINT>
10190108 129 18266763354262161881
10439779 11 18410562995037224170
10675989 125 18050285074369274395
11285246 1 17841739338256092132
1361 2 18409169870232751129
14251757 5 17832142006537464849
14790565 3 18412830157843445051
15420108 30 16977885891896574800
18681886 176 18123462787500029554
19319366 153 18340472444486785015
19930381 70 18120378648840940968
20715895 44 18264759016687229894
20764821 26 18051131690144138759
20775438 99 18128521850814817254
23559900 14 18122052105902556273
338550 245 18410014325285494372
3493558 16 17900819658681659047
463206 1 17834119641023824205
66674814 147 18409161100073166724

> <PUBCHEM_SHAPE_MULTIPOLES>
665.13
10.25
6.84
1.46
7.62
4.13
-0.15
-4.14
-2.39
-2.51
0.74
0.31
-0.43
-0.68

> <PUBCHEM_SHAPE_SELFOVERLAP>
1418.889

> <PUBCHEM_SHAPE_VOLUME>
372.6

> <PUBCHEM_COORDINATE_TYPE>
2
5
10

$$$$
