11867521
  -OEChem-12032416373D

 60 64  0     1  0  0  0  0  0999 V2000
   -6.9540   -3.0743   -1.7137 F   0  0  0  0  0  0  0  0  0  0  0  0
   -8.8538   -2.2354   -1.0883 F   0  0  0  0  0  0  0  0  0  0  0  0
   -7.5738   -3.2241    0.3652 F   0  0  0  0  0  0  0  0  0  0  0  0
    1.0463    3.4131    0.8449 O   0  0  0  0  0  0  0  0  0  0  0  0
    1.5257    0.4974    1.9220 O   0  0  0  0  0  0  0  0  0  0  0  0
   -3.1447    2.4386    1.0297 O   0  0  0  0  0  0  0  0  0  0  0  0
    3.1900    1.8120   -1.0514 N   0  0  0  0  0  0  0  0  0  0  0  0
   -1.5022    0.8541    1.3997 N   0  0  0  0  0  0  0  0  0  0  0  0
    2.7370    2.7283   -1.9129 N   0  0  0  0  0  0  0  0  0  0  0  0
    4.0919    1.2902   -2.9457 N   0  0  0  0  0  0  0  0  0  0  0  0
    3.2934    2.4043   -3.0738 N   0  0  0  0  0  0  0  0  0  0  0  0
   -3.5785    0.1537    0.7106 N   0  0  0  0  0  0  0  0  0  0  0  0
    6.5975   -3.4150    0.8040 N   0  0  0  0  0  0  0  0  0  0  0  0
    1.4961    1.0839    0.6080 C   0  0  1  0  0  0  0  0  0  0  0  0
    0.4128    2.1448    0.6151 C   0  0  1  0  0  0  0  0  0  0  0  0
    2.7821    1.8479    0.3555 C   0  0  2  0  0  0  0  0  0  0  0  0
   -0.4636    1.7761    1.7910 C   0  0  2  0  0  0  0  0  0  0  0  0
    2.4684    3.2366    0.9014 C   0  0  0  0  0  0  0  0  0  0  0  0
    0.5245    1.1211    2.7382 C   0  0  0  0  0  0  0  0  0  0  0  0
    4.0124    0.9408   -1.6823 C   0  0  0  0  0  0  0  0  0  0  0  0
   -2.7926    1.2616    1.0403 C   0  0  0  0  0  0  0  0  0  0  0  0
    4.6727   -0.1711   -1.0477 C   0  0  0  0  0  0  0  0  0  0  0  0
    5.9388   -0.0040   -0.4845 C   0  0  0  0  0  0  0  0  0  0  0  0
    4.0474   -1.4179   -0.9947 C   0  0  0  0  0  0  0  0  0  0  0  0
   -4.9314    0.1410    0.2980 C   0  0  0  0  0  0  0  0  0  0  0  0
    6.5778   -1.0809    0.1301 C   0  0  0  0  0  0  0  0  0  0  0  0
    4.6864   -2.4947   -0.3799 C   0  0  0  0  0  0  0  0  0  0  0  0
    5.9517   -2.3262    0.1825 C   0  0  0  0  0  0  0  0  0  0  0  0
   -5.5427   -1.0692    0.0137 C   0  0  0  0  0  0  0  0  0  0  0  0
   -5.6172    1.3395    0.1863 C   0  0  0  0  0  0  0  0  0  0  0  0
   -6.8767   -1.0812   -0.3936 C   0  0  0  0  0  0  0  0  0  0  0  0
   -6.9514    1.3274   -0.2208 C   0  0  0  0  0  0  0  0  0  0  0  0
   -7.5811    0.1171   -0.5108 C   0  0  0  0  0  0  0  0  0  0  0  0
    7.9123   -3.2507    1.3914 C   0  0  0  0  0  0  0  0  0  0  0  0
    5.9491   -4.7094    0.8756 C   0  0  0  0  0  0  0  0  0  0  0  0
   -7.5506   -2.3750   -0.7033 C   0  0  0  0  0  0  0  0  0  0  0  0
    1.2971    0.2767   -0.1039 H   0  0  0  0  0  0  0  0  0  0  0  0
   -0.1200    2.2146   -0.3388 H   0  0  0  0  0  0  0  0  0  0  0  0
    3.6271    1.4372    0.9200 H   0  0  0  0  0  0  0  0  0  0  0  0
   -0.9281    2.6483    2.2634 H   0  0  0  0  0  0  0  0  0  0  0  0
    2.9621    4.0570    0.3721 H   0  0  0  0  0  0  0  0  0  0  0  0
    2.7535    3.3027    1.9576 H   0  0  0  0  0  0  0  0  0  0  0  0
    0.0755    0.3726    3.3982 H   0  0  0  0  0  0  0  0  0  0  0  0
    1.0295    1.8700    3.3582 H   0  0  0  0  0  0  0  0  0  0  0  0
   -1.2682   -0.1309    1.3180 H   0  0  0  0  0  0  0  0  0  0  0  0
   -3.1306   -0.7571    0.7738 H   0  0  0  0  0  0  0  0  0  0  0  0
    6.4395    0.9609   -0.5168 H   0  0  0  0  0  0  0  0  0  0  0  0
    3.0608   -1.5647   -1.4282 H   0  0  0  0  0  0  0  0  0  0  0  0
    7.5608   -0.8987    0.5531 H   0  0  0  0  0  0  0  0  0  0  0  0
    4.1576   -3.4425   -0.3652 H   0  0  0  0  0  0  0  0  0  0  0  0
   -4.9948   -2.0036    0.1047 H   0  0  0  0  0  0  0  0  0  0  0  0
   -5.2017    2.3147    0.3917 H   0  0  0  0  0  0  0  0  0  0  0  0
   -7.5009    2.2599   -0.3125 H   0  0  0  0  0  0  0  0  0  0  0  0
   -8.6207    0.1281   -0.8264 H   0  0  0  0  0  0  0  0  0  0  0  0
    7.8944   -2.5132    2.2015 H   0  0  0  0  0  0  0  0  0  0  0  0
    8.2800   -4.1855    1.8291 H   0  0  0  0  0  0  0  0  0  0  0  0
    8.6484   -2.9504    0.6373 H   0  0  0  0  0  0  0  0  0  0  0  0
    5.0100   -4.6513    1.4373 H   0  0  0  0  0  0  0  0  0  0  0  0
    5.7546   -5.1107   -0.1252 H   0  0  0  0  0  0  0  0  0  0  0  0
    6.5743   -5.4476    1.3902 H   0  0  0  0  0  0  0  0  0  0  0  0
  1 36  1  0  0  0  0
  2 36  1  0  0  0  0
  3 36  1  0  0  0  0
  4 15  1  0  0  0  0
  4 18  1  0  0  0  0
  5 14  1  0  0  0  0
  5 19  1  0  0  0  0
  6 21  2  0  0  0  0
  7  9  1  0  0  0  0
  7 16  1  0  0  0  0
  7 20  1  0  0  0  0
  8 17  1  0  0  0  0
  8 21  1  0  0  0  0
  8 45  1  0  0  0  0
  9 11  2  0  0  0  0
 10 11  1  0  0  0  0
 10 20  2  0  0  0  0
 12 21  1  0  0  0  0
 12 25  1  0  0  0  0
 12 46  1  0  0  0  0
 13 28  1  0  0  0  0
 13 34  1  0  0  0  0
 13 35  1  0  0  0  0
 14 15  1  0  0  0  0
 14 16  1  0  0  0  0
 14 37  1  0  0  0  0
 15 17  1  0  0  0  0
 15 38  1  0  0  0  0
 16 18  1  0  0  0  0
 16 39  1  0  0  0  0
 17 19  1  0  0  0  0
 17 40  1  0  0  0  0
 18 41  1  0  0  0  0
 18 42  1  0  0  0  0
 19 43  1  0  0  0  0
 19 44  1  0  0  0  0
 20 22  1  0  0  0  0
 22 23  2  0  0  0  0
 22 24  1  0  0  0  0
 23 26  1  0  0  0  0
 23 47  1  0  0  0  0
 24 27  2  0  0  0  0
 24 48  1  0  0  0  0
 25 29  1  0  0  0  0
 25 30  2  0  0  0  0
 26 28  2  0  0  0  0
 26 49  1  0  0  0  0
 27 28  1  0  0  0  0
 27 50  1  0  0  0  0
 29 31  2  0  0  0  0
 29 51  1  0  0  0  0
 30 32  1  0  0  0  0
 30 52  1  0  0  0  0
 31 33  1  0  0  0  0
 31 36  1  0  0  0  0
 32 33  2  0  0  0  0
 32 53  1  0  0  0  0
 33 54  1  0  0  0  0
 34 55  1  0  0  0  0
 34 56  1  0  0  0  0
 34 57  1  0  0  0  0
 35 58  1  0  0  0  0
 35 59  1  0  0  0  0
 35 60  1  0  0  0  0
M  END
> <PUBCHEM_COMPOUND_CID>
11867521

> <PUBCHEM_CONFORMER_RMSD>
1

> <PUBCHEM_CONFORMER_DIVERSEORDER>
1
191
187
29
188
123
102
127
96
190
60
164
23
10
82
61
169
117
105
119
51
49
5
175
133
109
177
46
159
35
4
53
75
179
108
63
58
126
43
76
172
73
113
156
147
89
197
122
92
57
198
129
84
125
158
48
200
45
173
54
167
97
88
90
152
98
181
165
176
39
71
151
47
103
34
142
114
40
80
201
121
153
27
37
186
99
140
18
55
199
65
118
104
150
26
69
107
42
131
86
95
93
124
130
44
168
139
163
85
162
160
50
31
77
66
189
180
132
195
170
38
157
138
183
146
194
135
32
149
185
79
67
25
81
141
72
106
110
116
196
83
174
15
112
120
100
28
144
154
94
87
134
68
33
13
137
115
70
143
161
20
184
14
21
78
193
36
41
155
62
12
178
22
59
8
128
111
74
2
136
171
101
91
3
182
148
9
145
64
11
30
56
166
192
19
6
7
52
24
17
16

> <PUBCHEM_MMFF94_PARTIAL_CHARGES>
45
1 -0.34
10 -0.34
12 -0.55
13 -0.84
14 0.28
15 0.28
16 0.26
17 0.3
18 0.28
19 0.28
2 -0.34
20 0.13
21 0.69
22 0.05
23 -0.15
24 -0.15
25 0.12
26 -0.15
27 -0.15
28 0.1
29 -0.15
3 -0.34
30 -0.15
31 -0.14
32 -0.15
33 -0.15
34 0.37
35 0.37
36 1.16
4 -0.56
45 0.37
46 0.37
47 0.15
48 0.15
49 0.15
5 -0.56
50 0.15
51 0.15
52 0.15
53 0.15
54 0.15
6 -0.57
7 0.31
8 -0.73
9 -0.42

> <PUBCHEM_EFFECTIVE_ROTOR_COUNT>
9.2

> <PUBCHEM_PHARMACOPHORE_FEATURES>
12
1 12 donor
1 13 cation
1 4 acceptor
1 5 acceptor
1 6 acceptor
1 8 donor
3 7 10 20 cation
5 4 14 15 16 18 rings
5 5 14 15 17 19 rings
5 7 9 10 11 20 rings
6 22 23 24 26 27 28 rings
6 25 29 30 31 32 33 rings

> <PUBCHEM_HEAVY_ATOM_COUNT>
36

> <PUBCHEM_ATOM_DEF_STEREO_COUNT>
4

> <PUBCHEM_ATOM_UDEF_STEREO_COUNT>
0

> <PUBCHEM_BOND_DEF_STEREO_COUNT>
0

> <PUBCHEM_BOND_UDEF_STEREO_COUNT>
0

> <PUBCHEM_ISOTOPIC_ATOM_COUNT>
0

> <PUBCHEM_COMPONENT_COUNT>
1

> <PUBCHEM_CACTVS_TAUTO_COUNT>
3

> <PUBCHEM_CONFORMER_ID>
00B5158100000001

> <PUBCHEM_MMFF94_ENERGY>
103.6041

> <PUBCHEM_FEATURE_SELFOVERLAP>
61.641

> <PUBCHEM_SHAPE_FINGERPRINT>
10674148 151 10665528314220063922
10693767 8 18335419050026356218
10883706 17 18409732897475030635
11720765 8 18259709991185734788
12013929 112 17895464814612740061
12661589 4 18059008514247280611
12758862 65 16917064477850329338
13782708 43 17703515493245060245
14347332 77 18272376360721096241
14951699 99 8502653714573881689
15183329 4 18200888317806105545
15230672 131 18273216383879104663
15350500 16 17749948840112486042
15357212 105 13827835953076660954
15510800 12 17203343203302788821
16067689 391 18187657851449818147
17134984 74 18200882884550799804
17324776 126 18119528739502433930
19303781 99 18130773569446103775
19304671 126 15719683142410741156
19841028 212 18337671902477001970
20567600 247 18342181059216397465
20775438 99 18041845150511647664
21362857 166 18262793086161468567
21585481 104 17894347779381590485
21585483 132 18261667082690439538
21895439 516 17749114439277580035
23569943 247 18337955593741039083
3383291 50 16917074386698460951
3504750 166 17980207387547061168
3711267 37 10881408612327459110
4066623 53 16225766303331229900
4169191 19 8718829778370136691
437795 139 18059860523789237385
439807 62 18341617040533595975
4408954 87 17346019101306090118
4440575 13 18412260632538264782
4760202 70 18335433323411164190
50009960 94 18059561482374569341
5364581 5 9655578513906123071
57035037 87 13335321822890223918
5718773 13 18342174440539931947
5719381 36 17917422194705554159
58902169 19 18113907013863430653
59682541 52 18186526526571875396
6695519 79 13613664148263874492
96874 4 18338515236195160410
9689198 14 9150875210045215168

> <PUBCHEM_SHAPE_MULTIPOLES>
666.57
25.8
4.81
2.09
35.78
3.32
-0.73
31.36
-5.23
-4.34
0.4
-2.31
-1.32
-5.19

> <PUBCHEM_SHAPE_SELFOVERLAP>
1453.517

> <PUBCHEM_SHAPE_VOLUME>
367.1

> <PUBCHEM_COORDINATE_TYPE>
2
5
10

$$$$
