11884086
  -OEChem-12032416283D

 53 56  0     1  0  0  0  0  0999 V2000
   -1.1603    1.1502    1.1849 O   0  0  0  0  0  0  0  0  0  0  0  0
   -2.6557    3.2051   -0.5311 O   0  0  0  0  0  0  0  0  0  0  0  0
    0.8332    2.4422   -0.2514 O   0  0  0  0  0  0  0  0  0  0  0  0
   -6.0607    0.6104   -0.1927 O   0  0  0  0  0  0  0  0  0  0  0  0
    1.2907    0.3778   -1.1228 O   0  0  0  0  0  0  0  0  0  0  0  0
   -4.6743   -2.5946    0.2730 O   0  0  0  0  0  0  0  0  0  0  0  0
   -3.9871   -0.0329    0.5589 N   0  0  0  0  0  0  0  0  0  0  0  0
    2.8784    1.5669    0.1204 N   0  0  0  0  0  0  0  0  0  0  0  0
   -2.7189    1.7640   -0.4935 C   0  0  1  0  0  0  0  0  0  0  0  0
   -1.3092    1.2690   -0.2398 C   0  0  1  0  0  0  0  0  0  0  0  0
   -3.4873    1.3100    0.7256 C   0  0  2  0  0  0  0  0  0  0  0  0
   -0.4646    2.3885   -0.7992 C   0  0  1  0  0  0  0  0  0  0  0  0
   -2.4308    1.3753    1.8151 C   0  0  0  0  0  0  0  0  0  0  0  0
   -1.2818    3.6112   -0.4477 C   0  0  0  0  0  0  0  0  0  0  0  0
   -5.2771   -0.2954    0.0978 C   0  0  0  0  0  0  0  0  0  0  0  0
    1.6518    1.3552   -0.4787 C   0  0  0  0  0  0  0  0  0  0  0  0
   -5.6284   -1.7148   -0.0505 C   0  0  0  0  0  0  0  0  0  0  0  0
    4.0013    0.7085    0.1317 C   0  0  0  0  0  0  0  0  0  0  0  0
   -6.7741   -2.2843   -0.4656 C   0  0  0  0  0  0  0  0  0  0  0  0
    7.3884   -1.8799    0.1659 C   0  0  0  0  0  0  0  0  0  0  0  0
    6.2035   -0.9741    0.1539 C   0  0  0  0  0  0  0  0  0  0  0  0
    5.1522    1.1046    0.7944 C   0  0  0  0  0  0  0  0  0  0  0  0
    3.9299   -0.5123   -0.5202 C   0  0  0  0  0  0  0  0  0  0  0  0
   -6.5258   -3.6761   -0.4008 C   0  0  0  0  0  0  0  0  0  0  0  0
   -5.2351   -3.8129    0.0543 C   0  0  0  0  0  0  0  0  0  0  0  0
    6.2605    0.2577    0.8056 C   0  0  0  0  0  0  0  0  0  0  0  0
    5.0380   -1.3592   -0.5089 C   0  0  0  0  0  0  0  0  0  0  0  0
    7.0984   -3.2197    0.8683 C   0  0  0  0  0  0  0  0  0  0  0  0
    7.9446   -2.1403   -1.2469 C   0  0  0  0  0  0  0  0  0  0  0  0
   -3.1326    1.4252   -1.4486 H   0  0  0  0  0  0  0  0  0  0  0  0
   -1.1226    0.2850   -0.6779 H   0  0  0  0  0  0  0  0  0  0  0  0
   -4.3241    1.9733    0.9701 H   0  0  0  0  0  0  0  0  0  0  0  0
   -0.4086    2.3083   -1.8933 H   0  0  0  0  0  0  0  0  0  0  0  0
   -2.5740    0.6422    2.6149 H   0  0  0  0  0  0  0  0  0  0  0  0
   -2.3945    2.3734    2.2653 H   0  0  0  0  0  0  0  0  0  0  0  0
   -1.1025    4.4428   -1.1357 H   0  0  0  0  0  0  0  0  0  0  0  0
   -1.0793    3.9696    0.5679 H   0  0  0  0  0  0  0  0  0  0  0  0
   -3.3587   -0.8116    0.7376 H   0  0  0  0  0  0  0  0  0  0  0  0
    2.9898    2.4486    0.6152 H   0  0  0  0  0  0  0  0  0  0  0  0
   -7.6840   -1.7937   -0.7798 H   0  0  0  0  0  0  0  0  0  0  0  0
    8.1964   -1.3992    0.7342 H   0  0  0  0  0  0  0  0  0  0  0  0
    5.2071    2.0620    1.3052 H   0  0  0  0  0  0  0  0  0  0  0  0
    3.0644   -0.8783   -1.0531 H   0  0  0  0  0  0  0  0  0  0  0  0
   -7.2029   -4.4791   -0.6539 H   0  0  0  0  0  0  0  0  0  0  0  0
    7.1604    0.5733    1.3268 H   0  0  0  0  0  0  0  0  0  0  0  0
    4.9727   -2.3145   -1.0226 H   0  0  0  0  0  0  0  0  0  0  0  0
   -4.6026   -4.6630    0.2644 H   0  0  0  0  0  0  0  0  0  0  0  0
    6.3536   -3.8132    0.3272 H   0  0  0  0  0  0  0  0  0  0  0  0
    8.0121   -3.8194    0.9430 H   0  0  0  0  0  0  0  0  0  0  0  0
    6.7216   -3.0530    1.8836 H   0  0  0  0  0  0  0  0  0  0  0  0
    8.1766   -1.1969   -1.7536 H   0  0  0  0  0  0  0  0  0  0  0  0
    8.8668   -2.7290   -1.1937 H   0  0  0  0  0  0  0  0  0  0  0  0
    7.2334   -2.6909   -1.8721 H   0  0  0  0  0  0  0  0  0  0  0  0
  1 10  1  0  0  0  0
  1 13  1  0  0  0  0
  2  9  1  0  0  0  0
  2 14  1  0  0  0  0
  3 12  1  0  0  0  0
  3 16  1  0  0  0  0
  4 15  2  0  0  0  0
  5 16  2  0  0  0  0
  6 17  1  0  0  0  0
  6 25  1  0  0  0  0
  7 11  1  0  0  0  0
  7 15  1  0  0  0  0
  7 38  1  0  0  0  0
  8 16  1  0  0  0  0
  8 18  1  0  0  0  0
  8 39  1  0  0  0  0
  9 10  1  0  0  0  0
  9 11  1  0  0  0  0
  9 30  1  0  0  0  0
 10 12  1  0  0  0  0
 10 31  1  0  0  0  0
 11 13  1  0  0  0  0
 11 32  1  0  0  0  0
 12 14  1  0  0  0  0
 12 33  1  0  0  0  0
 13 34  1  0  0  0  0
 13 35  1  0  0  0  0
 14 36  1  0  0  0  0
 14 37  1  0  0  0  0
 15 17  1  0  0  0  0
 17 19  2  0  0  0  0
 18 22  2  0  0  0  0
 18 23  1  0  0  0  0
 19 24  1  0  0  0  0
 19 40  1  0  0  0  0
 20 21  1  0  0  0  0
 20 28  1  0  0  0  0
 20 29  1  0  0  0  0
 20 41  1  0  0  0  0
 21 26  2  0  0  0  0
 21 27  1  0  0  0  0
 22 26  1  0  0  0  0
 22 42  1  0  0  0  0
 23 27  2  0  0  0  0
 23 43  1  0  0  0  0
 24 25  2  0  0  0  0
 24 44  1  0  0  0  0
 25 47  1  0  0  0  0
 26 45  1  0  0  0  0
 27 46  1  0  0  0  0
 28 48  1  0  0  0  0
 28 49  1  0  0  0  0
 28 50  1  0  0  0  0
 29 51  1  0  0  0  0
 29 52  1  0  0  0  0
 29 53  1  0  0  0  0
M  END
> <PUBCHEM_COMPOUND_CID>
11884086

> <PUBCHEM_CONFORMER_RMSD>
1

> <PUBCHEM_CONFORMER_DIVERSEORDER>
1
19
25
4
26
8
31
9
41
23
36
11
14
32
39
37
40
38
30
10
34
17
13
3
29
45
7
35
22
42
15
27
18
24
2
33
16
28
12
44
21
43
6
5
20

> <PUBCHEM_MMFF94_PARTIAL_CHARGES>
36
1 -0.56
10 0.28
11 0.3
12 0.28
13 0.28
14 0.28
15 0.71
16 0.78
17 0.05
18 0.12
19 -0.15
2 -0.56
20 0.14
21 -0.14
22 -0.15
23 -0.15
24 -0.15
25 -0.01
26 -0.15
27 -0.15
3 -0.43
38 0.37
39 0.37
4 -0.57
40 0.15
42 0.15
43 0.15
44 0.15
45 0.15
46 0.15
47 0.15
5 -0.57
6 -0.28
7 -0.73
8 -0.55
9 0.28

> <PUBCHEM_EFFECTIVE_ROTOR_COUNT>
9.2

> <PUBCHEM_PHARMACOPHORE_FEATURES>
12
1 1 acceptor
1 2 acceptor
1 4 acceptor
1 5 acceptor
1 6 acceptor
1 7 donor
1 8 donor
3 20 28 29 hydrophobe
5 1 9 10 11 13 rings
5 2 9 10 12 14 rings
5 6 17 19 24 25 rings
6 18 21 22 23 26 27 rings

> <PUBCHEM_HEAVY_ATOM_COUNT>
29

> <PUBCHEM_ATOM_DEF_STEREO_COUNT>
4

> <PUBCHEM_ATOM_UDEF_STEREO_COUNT>
0

> <PUBCHEM_BOND_DEF_STEREO_COUNT>
0

> <PUBCHEM_BOND_UDEF_STEREO_COUNT>
0

> <PUBCHEM_ISOTOPIC_ATOM_COUNT>
0

> <PUBCHEM_COMPONENT_COUNT>
1

> <PUBCHEM_CACTVS_TAUTO_COUNT>
4

> <PUBCHEM_CONFORMER_ID>
00B5563600000001

> <PUBCHEM_MMFF94_ENERGY>
71.5974

> <PUBCHEM_FEATURE_SELFOVERLAP>
61.614

> <PUBCHEM_SHAPE_FINGERPRINT>
10669705 251 18130795534099597894
10939801 23 18056478581072978694
11135609 201 10159706776878921285
11393246 34 18411420583641178418
11475781 23 7853856096927587178
11497681 19 18409452518474226500
11761917 116 18410300237681373326
11761917 87 15768949952834667846
12522641 126 18115598183518030276
12645989 146 18408327666280538008
12895837 130 8286189552845671803
12988421 55 12391514135570360749
13248334 5 17905327678111023125
13347071 3 18342460399790794342
1361 4 18266458883096546342
13782708 43 18413387618860115896
13885169 86 10159703516492822115
13944108 23 8212776265271366583
13947947 140 18342747294794062987
14068700 675 18333452044909548500
14178184 131 18201995564364410575
14211702 104 18343028812736050007
14251764 75 10375880674877333956
14344974 204 18413109433771397126
14671636 106 18412266151739616494
15064981 113 14129323075755535714
15183329 4 14417850332451626485
15188451 53 18341893012929252057
15274700 208 16700326672020419464
15510800 12 18201725037184951791
15728490 51 18340484586380201908
15803439 3 17028499801174275797
16126227 98 9295290551810675831
16992779 147 16341996901700869064
16994733 274 10015862072594813534
17627616 140 17750223730060670627
19301676 85 18262797509793842979
20028762 73 18410856577305676542
2026 5 18340200891143620903
20691028 202 10087640412095905314
208703 8 18337102475412204579
21130935 74 18342738541803304984
21197605 99 18343302591859671758
21585480 29 17413572180260196006
21756936 100 9079112242132056297
229767 44 18059574749603244959
23389318 12 18114186376280143260
23522609 53 18048914881868065652
23559900 14 18340761663479674609
24983565 74 18191012410172359346
270888 7 9439413419024007429
2748736 6 9871473084237263314
312425 54 17845387573829779521
32027 91 18268423728372610441
3504750 166 18411985720055259145
3627633 1 18409727331498601917
392239 28 16200147746501217445
397830 11 18342728616856713312
406291 66 18411699928362304135
4280585 95 18409167719145037399
474113 269 18270953648799408447
54076057 127 17775565352553231952
5718773 13 18410290328431795298
5719381 36 18187918418847985170
5874358 3 16806427143166761834
636775 8 18270690754193897134
6376802 137 17988371463546922067
6712543 237 16415208892521831615
7288768 16 11815905565466967653
7970288 3 18337388348419309823
8863177 126 18412262827223620896
96874 4 18341046423663254751
9896288 288 17773887397806562833

> <PUBCHEM_SHAPE_MULTIPOLES>
551.63
23.11
4.62
1.05
17.85
1.99
-0.18
28.39
0.06
-5.47
0.51
0.46
-0.16
-0.19

> <PUBCHEM_SHAPE_SELFOVERLAP>
1193.549

> <PUBCHEM_SHAPE_VOLUME>
302.7

> <PUBCHEM_COORDINATE_TYPE>
2
5
10

$$$$
