26742907
  -OEChem-12032416193D

 49 52  0     1  0  0  0  0  0999 V2000
    7.0029   -1.8825    1.7192 S   0  0  0  0  0  0  0  0  0  0  0  0
   -9.1271   -0.6542    0.8306 F   0  0  0  0  0  0  0  0  0  0  0  0
   -3.3576   -0.6617   -1.6284 O   0  0  0  0  0  0  0  0  0  0  0  0
    4.5372    0.5442   -1.4397 O   0  0  0  0  0  0  0  0  0  0  0  0
    0.4549    3.2997    0.8272 N   0  0  0  0  0  0  0  0  0  0  0  0
   -1.9755   -0.6085   -1.7636 N   0  0  0  0  0  0  0  0  0  0  0  0
    4.9961   -0.5631    0.5804 N   0  0  0  0  0  0  0  0  0  0  0  0
    7.1005   -0.8410   -0.6448 N   0  0  0  0  0  0  0  0  0  0  0  0
    1.9546    1.2463   -0.6697 C   0  0  1  0  0  0  0  0  0  0  0  0
    0.4423    1.1226   -0.3668 C   0  0  2  0  0  0  0  0  0  0  0  0
    2.3500    2.7324   -0.6522 C   0  0  0  0  0  0  0  0  0  0  0  0
    0.0526    1.8950    0.9047 C   0  0  0  0  0  0  0  0  0  0  0  0
    1.8948    3.4421    0.6222 C   0  0  0  0  0  0  0  0  0  0  0  0
   -0.0352   -0.3278   -0.2819 C   0  0  0  0  0  0  0  0  0  0  0  0
    2.8484    0.4328    0.2740 C   0  0  0  0  0  0  0  0  0  0  0  0
   -1.5133   -0.4321   -0.5225 C   0  0  0  0  0  0  0  0  0  0  0  0
    4.2180    0.1590   -0.3198 C   0  0  0  0  0  0  0  0  0  0  0  0
   -2.5471   -0.3671    0.4278 C   0  0  0  0  0  0  0  0  0  0  0  0
   -3.6856   -0.5168   -0.3190 C   0  0  0  0  0  0  0  0  0  0  0  0
   -5.0883   -0.5511   -0.0226 C   0  0  0  0  0  0  0  0  0  0  0  0
    6.3265   -1.0124    0.4038 C   0  0  0  0  0  0  0  0  0  0  0  0
   -5.5268   -0.4109    1.2941 C   0  0  0  0  0  0  0  0  0  0  0  0
   -6.0143   -0.7257   -1.0512 C   0  0  0  0  0  0  0  0  0  0  0  0
   -6.8909   -0.4456    1.5824 C   0  0  0  0  0  0  0  0  0  0  0  0
   -7.3785   -0.7604   -0.7629 C   0  0  0  0  0  0  0  0  0  0  0  0
    8.4568   -2.0543    0.8258 C   0  0  0  0  0  0  0  0  0  0  0  0
    8.3215   -1.4387   -0.4008 C   0  0  0  0  0  0  0  0  0  0  0  0
   -7.8169   -0.6203    0.5539 C   0  0  0  0  0  0  0  0  0  0  0  0
    2.1027    0.8750   -1.6933 H   0  0  0  0  0  0  0  0  0  0  0  0
   -0.0774    1.6053   -1.2096 H   0  0  0  0  0  0  0  0  0  0  0  0
    1.8898    3.2290   -1.5172 H   0  0  0  0  0  0  0  0  0  0  0  0
    3.4321    2.8562   -0.7706 H   0  0  0  0  0  0  0  0  0  0  0  0
   -1.0323    1.8808    1.0435 H   0  0  0  0  0  0  0  0  0  0  0  0
    0.4930    1.4295    1.7952 H   0  0  0  0  0  0  0  0  0  0  0  0
    2.4419    3.0759    1.4978 H   0  0  0  0  0  0  0  0  0  0  0  0
    2.1289    4.5089    0.5334 H   0  0  0  0  0  0  0  0  0  0  0  0
    0.1971   -0.7673    0.6959 H   0  0  0  0  0  0  0  0  0  0  0  0
    0.4797   -0.9392   -1.0346 H   0  0  0  0  0  0  0  0  0  0  0  0
    2.4127   -0.5530    0.4683 H   0  0  0  0  0  0  0  0  0  0  0  0
    2.9724    0.9230    1.2450 H   0  0  0  0  0  0  0  0  0  0  0  0
    0.1884    3.7751    1.6889 H   0  0  0  0  0  0  0  0  0  0  0  0
   -2.4658   -0.2339    1.4967 H   0  0  0  0  0  0  0  0  0  0  0  0
    4.5937   -0.8146    1.4801 H   0  0  0  0  0  0  0  0  0  0  0  0
   -4.8296   -0.2734    2.1166 H   0  0  0  0  0  0  0  0  0  0  0  0
   -5.7124   -0.8386   -2.0893 H   0  0  0  0  0  0  0  0  0  0  0  0
   -7.2331   -0.3368    2.6074 H   0  0  0  0  0  0  0  0  0  0  0  0
   -8.1002   -0.8966   -1.5630 H   0  0  0  0  0  0  0  0  0  0  0  0
    9.3123   -2.5787    1.2267 H   0  0  0  0  0  0  0  0  0  0  0  0
    9.0900   -1.3970   -1.1608 H   0  0  0  0  0  0  0  0  0  0  0  0
  1 21  1  0  0  0  0
  1 26  1  0  0  0  0
  2 28  1  0  0  0  0
  3  6  1  0  0  0  0
  3 19  1  0  0  0  0
  4 17  2  0  0  0  0
  5 12  1  0  0  0  0
  5 13  1  0  0  0  0
  5 41  1  0  0  0  0
  6 16  2  0  0  0  0
  7 17  1  0  0  0  0
  7 21  1  0  0  0  0
  7 43  1  0  0  0  0
  8 21  2  0  0  0  0
  8 27  1  0  0  0  0
  9 10  1  0  0  0  0
  9 11  1  0  0  0  0
  9 15  1  0  0  0  0
  9 29  1  0  0  0  0
 10 12  1  0  0  0  0
 10 14  1  0  0  0  0
 10 30  1  0  0  0  0
 11 13  1  0  0  0  0
 11 31  1  0  0  0  0
 11 32  1  0  0  0  0
 12 33  1  0  0  0  0
 12 34  1  0  0  0  0
 13 35  1  0  0  0  0
 13 36  1  0  0  0  0
 14 16  1  0  0  0  0
 14 37  1  0  0  0  0
 14 38  1  0  0  0  0
 15 17  1  0  0  0  0
 15 39  1  0  0  0  0
 15 40  1  0  0  0  0
 16 18  1  0  0  0  0
 18 19  2  0  0  0  0
 18 42  1  0  0  0  0
 19 20  1  0  0  0  0
 20 22  2  0  0  0  0
 20 23  1  0  0  0  0
 22 24  1  0  0  0  0
 22 44  1  0  0  0  0
 23 25  2  0  0  0  0
 23 45  1  0  0  0  0
 24 28  2  0  0  0  0
 24 46  1  0  0  0  0
 25 28  1  0  0  0  0
 25 47  1  0  0  0  0
 26 27  2  0  0  0  0
 26 48  1  0  0  0  0
 27 49  1  0  0  0  0
M  END
> <PUBCHEM_COMPOUND_CID>
26742907

> <PUBCHEM_CONFORMER_RMSD>
1

> <PUBCHEM_CONFORMER_DIVERSEORDER>
1
5
46
34
117
121
63
131
32
150
173
165
163
143
19
15
178
67
161
101
90
65
155
76
50
133
48
59
151
176
78
92
190
140
96
79
124
119
138
84
30
185
170
188
64
22
38
44
83
141
52
45
127
189
98
157
162
160
187
7
37
169
95
21
91
191
51
113
53
142
55
23
102
154
75
105
177
135
149
167
118
100
110
136
175
66
137
159
129
69
126
40
153
14
89
43
82
148
144
49
74
130
25
152
120
68
123
139
111
172
3
156
20
103
93
27
72
36
56
31
183
61
168
108
99
186
115
41
58
13
24
106
104
128
77
180
88
146
86
184
4
29
112
181
70
39
109
174
47
94
114
132
71
73
42
145
18
35
116
179
122
171
158
26
10
97
6
134
164
60
166
85
2
62
57
182
80
125
28
87
147
81
107
8
33
54
17
9
11
16
12

> <PUBCHEM_MMFF94_PARTIAL_CHARGES>
34
1 -0.08
12 0.27
13 0.27
14 0.18
15 0.06
16 0.11
17 0.57
18 -0.15
19 0.09
2 -0.19
20 0.05
21 0.44
22 -0.15
23 -0.15
24 -0.15
25 -0.15
26 -0.11
27 0.08
28 0.19
3 -0.02
4 -0.57
41 0.36
42 0.15
43 0.37
44 0.15
45 0.15
46 0.15
47 0.15
48 0.15
49 0.15
5 -0.9
6 -0.41
7 -0.49
8 -0.57

> <PUBCHEM_EFFECTIVE_ROTOR_COUNT>
8.2

> <PUBCHEM_PHARMACOPHORE_FEATURES>
9
1 4 acceptor
1 5 cation
1 5 donor
1 6 acceptor
1 7 donor
5 1 8 21 26 27 rings
5 3 6 16 18 19 rings
6 20 22 23 24 25 28 rings
6 5 9 10 11 12 13 rings

> <PUBCHEM_HEAVY_ATOM_COUNT>
28

> <PUBCHEM_ATOM_DEF_STEREO_COUNT>
2

> <PUBCHEM_ATOM_UDEF_STEREO_COUNT>
0

> <PUBCHEM_BOND_DEF_STEREO_COUNT>
0

> <PUBCHEM_BOND_UDEF_STEREO_COUNT>
0

> <PUBCHEM_ISOTOPIC_ATOM_COUNT>
0

> <PUBCHEM_COMPONENT_COUNT>
1

> <PUBCHEM_CACTVS_TAUTO_COUNT>
3

> <PUBCHEM_CONFORMER_ID>
0198107B00000001

> <PUBCHEM_MMFF94_ENERGY>
44.4625

> <PUBCHEM_FEATURE_SELFOVERLAP>
45.672

> <PUBCHEM_SHAPE_FINGERPRINT>
10 15 13686294682269565162
10280341 67 15912220707516616155
10299344 5 17749111079868913603
10674148 151 16370723733797471928
10753850 27 18333445427139833520
11273773 46 17894352155125258794
11297750 10 18336816538207696756
11315181 36 9943807795062811655
11456790 92 18271817830578640873
11476731 38 18334863832032172732
12166972 35 17967814942936180252
12373685 5 13470683711916931741
12592606 108 18410009961836611611
13150687 139 10665225913719485000
13540713 5 17629470067207831653
13673619 4 18040713662657284804
13685833 64 18335137592514487218
13782708 43 17969508280678877659
14216079 64 18411418385061313814
14251764 18 17846780732192338452
14347424 109 17774999129054237152
15183329 4 16732698329117366656
15419008 145 18272094851706531089
1577012 14 17702951473813309269
19301679 30 18268995280977266342
20105231 36 14996290223714236241
20771845 65 18407759240677201764
21150785 3 13118002197300909534
21267235 1 18409167693259026548
21365058 113 17240204356388787997
21781055 127 16916249734974468768
21792934 111 18202275897058745992
21792961 116 18261384499600733230
22224240 67 11239997858473688708
23559900 14 17895757438781400157
246663 6 17749111084127022611
3004659 81 17894908530184680606
3178227 256 18334859428462008114
3383291 50 18411699880764210298
437795 160 16056589998405520575
439807 62 17967535666534214790
4403749 210 11671479236727095772
5104073 3 17916305133455771019
5219985 9 18412261727580468480
54039377 194 18334859386213753894
5470011 282 17095246913232742894
6058803 2 17484509393439964765
9663363 56 18410285905301035794
9962374 69 18340198695776314631

> <PUBCHEM_SHAPE_MULTIPOLES>
541.14
26.95
2.52
1.39
1.19
2.92
-0.03
-22.72
-5.29
-4.37
-0.8
0.61
-0.21
-1.11

> <PUBCHEM_SHAPE_SELFOVERLAP>
1150.064

> <PUBCHEM_SHAPE_VOLUME>
303.7

> <PUBCHEM_COORDINATE_TYPE>
2
5
10

$$$$
