11912794
  -OEChem-12032416373D

 64 67  0     1  0  0  0  0  0999 V2000
   -0.0065    0.7474    2.3651 O   0  0  0  0  0  0  0  0  0  0  0  0
   -1.5614    3.2357    1.3033 O   0  0  0  0  0  0  0  0  0  0  0  0
   -5.0335    0.6428    1.2178 O   0  0  0  0  0  0  0  0  0  0  0  0
   -7.4243   -2.0277   -2.0939 O   0  0  0  0  0  0  0  0  0  0  0  0
   -7.3596   -0.4972   -0.4198 O   0  0  0  0  0  0  0  0  0  0  0  0
    6.9251   -2.9038    1.2820 O   0  0  0  0  0  0  0  0  0  0  0  0
   -2.8984   -0.1503    1.6635 N   0  0  0  0  0  0  0  0  0  0  0  0
    0.8415    2.7304   -0.5807 N   0  0  0  0  0  0  0  0  0  0  0  0
    2.6283    1.2500   -0.6716 N   0  0  0  0  0  0  0  0  0  0  0  0
    1.8743    2.4221   -2.6375 N   0  0  0  0  0  0  0  0  0  0  0  0
   -1.6350    1.8305    1.0108 C   0  0  1  0  0  0  0  0  0  0  0  0
   -0.2201    1.2868    1.0497 C   0  0  1  0  0  0  0  0  0  0  0  0
   -2.3417    1.0973    2.1279 C   0  0  2  0  0  0  0  0  0  0  0  0
    0.6493    2.5032    0.8349 C   0  0  2  0  0  0  0  0  0  0  0  0
   -1.2196    0.8627    3.1235 C   0  0  0  0  0  0  0  0  0  0  0  0
   -0.1848    3.6190    1.4372 C   0  0  0  0  0  0  0  0  0  0  0  0
   -4.2123   -0.2716    1.2434 C   0  0  0  0  0  0  0  0  0  0  0  0
   -4.5679   -1.6803    0.7951 C   0  0  0  0  0  0  0  0  0  0  0  0
   -4.4046   -1.9405   -0.7242 C   0  0  0  0  0  0  0  0  0  0  0  0
    1.8240    2.1069   -1.3292 C   0  0  0  0  0  0  0  0  0  0  0  0
   -5.3083   -1.0311   -1.5906 C   0  0  0  0  0  0  0  0  0  0  0  0
   -4.7337   -3.4249   -0.9898 C   0  0  0  0  0  0  0  0  0  0  0  0
   -2.9413   -1.7080   -1.1561 C   0  0  0  0  0  0  0  0  0  0  0  0
   -6.7880   -1.1370   -1.2929 C   0  0  0  0  0  0  0  0  0  0  0  0
    3.5745    0.6605   -1.4315 C   0  0  0  0  0  0  0  0  0  0  0  0
    2.8437    1.7966   -3.3371 C   0  0  0  0  0  0  0  0  0  0  0  0
    3.7309    0.8974   -2.7820 C   0  0  0  0  0  0  0  0  0  0  0  0
    4.4379   -0.2595   -0.7306 C   0  0  0  0  0  0  0  0  0  0  0  0
    5.8135   -0.0316   -0.6923 C   0  0  0  0  0  0  0  0  0  0  0  0
    3.8980   -1.3765   -0.0930 C   0  0  0  0  0  0  0  0  0  0  0  0
    6.6493   -0.9206   -0.0166 C   0  0  0  0  0  0  0  0  0  0  0  0
    4.7338   -2.2656    0.5827 C   0  0  0  0  0  0  0  0  0  0  0  0
    6.1094   -2.0377    0.6209 C   0  0  0  0  0  0  0  0  0  0  0  0
    6.3074   -4.0252    1.9118 C   0  0  0  0  0  0  0  0  0  0  0  0
   -2.1081    1.7245    0.0292 H   0  0  0  0  0  0  0  0  0  0  0  0
   -0.0597    0.4725    0.3358 H   0  0  0  0  0  0  0  0  0  0  0  0
   -3.1412    1.6909    2.5844 H   0  0  0  0  0  0  0  0  0  0  0  0
    1.6124    2.4557    1.3560 H   0  0  0  0  0  0  0  0  0  0  0  0
   -1.3516   -0.0347    3.7358 H   0  0  0  0  0  0  0  0  0  0  0  0
   -1.1035    1.7225    3.7924 H   0  0  0  0  0  0  0  0  0  0  0  0
    0.0185    3.7237    2.5087 H   0  0  0  0  0  0  0  0  0  0  0  0
   -0.0327    4.5938    0.9635 H   0  0  0  0  0  0  0  0  0  0  0  0
   -2.2799   -0.9537    1.5963 H   0  0  0  0  0  0  0  0  0  0  0  0
    0.1999    3.3362   -1.0797 H   0  0  0  0  0  0  0  0  0  0  0  0
   -5.5983   -1.8753    1.1168 H   0  0  0  0  0  0  0  0  0  0  0  0
   -3.9491   -2.3909    1.3600 H   0  0  0  0  0  0  0  0  0  0  0  0
   -5.0308    0.0243   -1.4771 H   0  0  0  0  0  0  0  0  0  0  0  0
   -5.1629   -1.2499   -2.6571 H   0  0  0  0  0  0  0  0  0  0  0  0
   -5.7401   -3.6828   -0.6431 H   0  0  0  0  0  0  0  0  0  0  0  0
   -4.0306   -4.0846   -0.4681 H   0  0  0  0  0  0  0  0  0  0  0  0
   -4.6764   -3.6592   -2.0588 H   0  0  0  0  0  0  0  0  0  0  0  0
   -2.6576   -0.6533   -1.0794 H   0  0  0  0  0  0  0  0  0  0  0  0
   -2.2472   -2.2917   -0.5411 H   0  0  0  0  0  0  0  0  0  0  0  0
   -2.7877   -2.0067   -2.1997 H   0  0  0  0  0  0  0  0  0  0  0  0
    2.8881    2.0455   -4.3921 H   0  0  0  0  0  0  0  0  0  0  0  0
    4.4905    0.4156   -3.3851 H   0  0  0  0  0  0  0  0  0  0  0  0
   -8.3809   -2.0891   -1.8855 H   0  0  0  0  0  0  0  0  0  0  0  0
    6.2544    0.8359   -1.1781 H   0  0  0  0  0  0  0  0  0  0  0  0
    2.8282   -1.5714   -0.1151 H   0  0  0  0  0  0  0  0  0  0  0  0
    7.7200   -0.7372    0.0112 H   0  0  0  0  0  0  0  0  0  0  0  0
    4.2488   -3.1127    1.0556 H   0  0  0  0  0  0  0  0  0  0  0  0
    5.6204   -3.7130    2.7056 H   0  0  0  0  0  0  0  0  0  0  0  0
    5.8252   -4.6824    1.1802 H   0  0  0  0  0  0  0  0  0  0  0  0
    7.1032   -4.6071    2.3884 H   0  0  0  0  0  0  0  0  0  0  0  0
  1 12  1  0  0  0  0
  1 15  1  0  0  0  0
  2 11  1  0  0  0  0
  2 16  1  0  0  0  0
  3 17  2  0  0  0  0
  4 24  1  0  0  0  0
  4 57  1  0  0  0  0
  5 24  2  0  0  0  0
  6 33  1  0  0  0  0
  6 34  1  0  0  0  0
  7 13  1  0  0  0  0
  7 17  1  0  0  0  0
  7 43  1  0  0  0  0
  8 14  1  0  0  0  0
  8 20  1  0  0  0  0
  8 44  1  0  0  0  0
  9 20  1  0  0  0  0
  9 25  2  0  0  0  0
 10 20  2  0  0  0  0
 10 26  1  0  0  0  0
 11 12  1  0  0  0  0
 11 13  1  0  0  0  0
 11 35  1  0  0  0  0
 12 14  1  0  0  0  0
 12 36  1  0  0  0  0
 13 15  1  0  0  0  0
 13 37  1  0  0  0  0
 14 16  1  0  0  0  0
 14 38  1  0  0  0  0
 15 39  1  0  0  0  0
 15 40  1  0  0  0  0
 16 41  1  0  0  0  0
 16 42  1  0  0  0  0
 17 18  1  0  0  0  0
 18 19  1  0  0  0  0
 18 45  1  0  0  0  0
 18 46  1  0  0  0  0
 19 21  1  0  0  0  0
 19 22  1  0  0  0  0
 19 23  1  0  0  0  0
 21 24  1  0  0  0  0
 21 47  1  0  0  0  0
 21 48  1  0  0  0  0
 22 49  1  0  0  0  0
 22 50  1  0  0  0  0
 22 51  1  0  0  0  0
 23 52  1  0  0  0  0
 23 53  1  0  0  0  0
 23 54  1  0  0  0  0
 25 27  1  0  0  0  0
 25 28  1  0  0  0  0
 26 27  2  0  0  0  0
 26 55  1  0  0  0  0
 27 56  1  0  0  0  0
 28 29  2  0  0  0  0
 28 30  1  0  0  0  0
 29 31  1  0  0  0  0
 29 58  1  0  0  0  0
 30 32  2  0  0  0  0
 30 59  1  0  0  0  0
 31 33  2  0  0  0  0
 31 60  1  0  0  0  0
 32 33  1  0  0  0  0
 32 61  1  0  0  0  0
 34 62  1  0  0  0  0
 34 63  1  0  0  0  0
 34 64  1  0  0  0  0
M  END
> <PUBCHEM_COMPOUND_CID>
11912794

> <PUBCHEM_CONFORMER_RMSD>
1.2

> <PUBCHEM_CONFORMER_DIVERSEORDER>
1
82
70
88
28
45
67
57
14
35
93
47
34
27
79
65
86
7
38
95
64
89
90
66
59
21
78
94
77
23
8
42
76
10
75
53
41
68
83
69
63
72
85
32
61
62
92
25
52
60
91
12
22
56
33
30
18
55
84
54
40
5
80
39
51
73
74
50
29
81
3
24
15
11
58
87
43
2
26
37
16
19
20
36
48
6
44
9
4
17
71
31
49
46
13

> <PUBCHEM_MMFF94_PARTIAL_CHARGES>
39
1 -0.56
10 -0.62
11 0.28
12 0.28
13 0.3
14 0.37
15 0.28
16 0.28
17 0.57
18 0.06
2 -0.56
20 0.72
21 0.06
24 0.66
25 0.31
26 0.16
27 -0.15
29 -0.15
3 -0.57
30 -0.15
31 -0.15
32 -0.15
33 0.08
34 0.28
4 -0.65
43 0.37
44 0.4
5 -0.57
55 0.15
56 0.15
57 0.5
58 0.15
59 0.15
6 -0.36
60 0.15
61 0.15
7 -0.73
8 -0.87
9 -0.62

> <PUBCHEM_EFFECTIVE_ROTOR_COUNT>
11.2

> <PUBCHEM_PHARMACOPHORE_FEATURES>
16
1 1 acceptor
1 2 acceptor
1 3 acceptor
1 4 acceptor
1 5 acceptor
1 6 acceptor
1 7 donor
1 8 donor
1 9 acceptor
3 19 22 23 hydrophobe
3 4 5 24 anion
4 8 9 10 20 cation
5 1 11 12 13 15 rings
5 2 11 12 14 16 rings
6 28 29 30 31 32 33 rings
6 9 10 20 25 26 27 rings

> <PUBCHEM_HEAVY_ATOM_COUNT>
34

> <PUBCHEM_ATOM_DEF_STEREO_COUNT>
4

> <PUBCHEM_ATOM_UDEF_STEREO_COUNT>
0

> <PUBCHEM_BOND_DEF_STEREO_COUNT>
0

> <PUBCHEM_BOND_UDEF_STEREO_COUNT>
0

> <PUBCHEM_ISOTOPIC_ATOM_COUNT>
0

> <PUBCHEM_COMPONENT_COUNT>
1

> <PUBCHEM_CACTVS_TAUTO_COUNT>
6

> <PUBCHEM_CONFORMER_ID>
00B5C65A00000001

> <PUBCHEM_MMFF94_ENERGY>
106.6377

> <PUBCHEM_FEATURE_SELFOVERLAP>
81.965

> <PUBCHEM_SHAPE_FINGERPRINT>
10622 236 18261117327171177098
11135926 11 17098376174938737436
11211813 140 18342168943325229979
11720765 8 18261106430444119212
1200032 147 13912591707565162773
12373685 5 18341612637501800768
12559416 39 17846495980341290183
12758862 65 16988560264137712466
12977781 61 18197750319757122336
14068700 675 18272647939628439768
14340393 91 17822275869763906527
14508693 111 17916882338173714630
15163728 17 11602816908541248881
15183329 4 16225763012742643344
15320294 125 18342182137485843263
15419009 47 17897154737350249213
15721738 15 15864344697940358986
19304671 126 15936688271948468549
20156587 76 16844420840209920773
21223535 225 16950557727935573245
21315763 87 14620525540494005365
21458453 9 15338546258563109398
21585480 29 18340197493908372818
25222932 49 17989491827499316920
3882209 13 15866853714977136770
437795 139 18273213123281320133
437795 70 15864068749895435406
4394409 98 18273493464730011583
4408954 87 14117511086684143141
444735 79 15698000751567342684
46194498 28 15287077032856194316
463206 1 18339376252156305914
4756261 7 14833554917252793670
50009960 94 16915354806299754055
5085150 59 17632298943876605559
5223283 242 16443345351567367693
613672 6 17346048873738745447
6677587 24 16594767047786414716
96874 4 18412820278870505542

> <PUBCHEM_SHAPE_MULTIPOLES>
644.56
18.81
4.29
2.99
4.52
0.56
-0.59
22.1
-4.16
-2.59
1
-0.23
-1.3
-6.75

> <PUBCHEM_SHAPE_SELFOVERLAP>
1378.637

> <PUBCHEM_SHAPE_VOLUME>
355.8

> <PUBCHEM_COORDINATE_TYPE>
2
5
10

$$$$
