28963020
  -OEChem-12032416143D

 72 74  0     1  0  0  0  0  0999 V2000
   -0.6899   -0.4919    2.2525 O   0  0  0  0  0  0  0  0  0  0  0  0
   -5.5031   -1.6947    0.2634 O   0  0  0  0  0  0  0  0  0  0  0  0
    5.2834    1.3630   -0.6166 O   0  0  0  0  0  0  0  0  0  0  0  0
    7.6781    1.6000    0.9368 O   0  0  0  0  0  0  0  0  0  0  0  0
    4.2303   -0.6161   -0.0102 N   0  0  0  0  0  0  0  0  0  0  0  0
   -4.8180    0.4774    0.7017 N   0  0  0  0  0  0  0  0  0  0  0  0
    0.1818   -0.9592   -1.4350 C   0  0  1  0  0  0  0  0  0  0  0  0
    0.3752   -0.5374    0.0596 C   0  0  2  0  0  0  0  0  0  0  0  0
    1.8244   -0.8855    0.5556 C   0  0  1  0  0  0  0  0  0  0  0  0
   -0.7827   -1.0721    0.9506 C   0  0  2  0  0  0  0  0  0  0  0  0
   -1.2125   -0.5011   -1.9242 C   0  0  0  0  0  0  0  0  0  0  0  0
   -2.1784   -0.6990    0.3989 C   0  0  1  0  0  0  0  0  0  0  0  0
    1.2432   -0.2435   -2.3022 C   0  0  0  0  0  0  0  0  0  0  0  0
    2.8840   -0.2220   -0.3686 C   0  0  2  0  0  0  0  0  0  0  0  0
   -2.3508   -1.0550   -1.0776 C   0  0  0  0  0  0  0  0  0  0  0  0
    2.6700   -0.5225   -1.8518 C   0  0  0  0  0  0  0  0  0  0  0  0
    0.3032   -2.4904   -1.6406 C   0  0  0  0  0  0  0  0  0  0  0  0
   -3.3045   -1.3441    1.2163 C   0  0  2  0  0  0  0  0  0  0  0  0
    2.0931   -0.4707    2.0121 C   0  0  0  0  0  0  0  0  0  0  0  0
   -3.1663   -2.8624    1.1931 C   0  0  0  0  0  0  0  0  0  0  0  0
   -4.6599   -0.9006    0.6747 C   0  0  0  0  0  0  0  0  0  0  0  0
    5.3237    0.2207   -0.1676 C   0  0  0  0  0  0  0  0  0  0  0  0
   -6.0156    1.1344    0.2392 C   0  0  0  0  0  0  0  0  0  0  0  0
    6.6079   -0.4516    0.2913 C   0  0  0  0  0  0  0  0  0  0  0  0
   -6.2398    2.4683    0.9415 C   0  0  0  0  0  0  0  0  0  0  0  0
   -5.9055    1.5382   -1.2254 C   0  0  0  0  0  0  0  0  0  0  0  0
   -5.3786    3.4690    0.1726 C   0  0  0  0  0  0  0  0  0  0  0  0
   -5.1292    2.8521   -1.2039 C   0  0  0  0  0  0  0  0  0  0  0  0
    7.8323    0.4368    0.1339 C   0  0  0  0  0  0  0  0  0  0  0  0
    8.8044    2.4599    0.8302 C   0  0  0  0  0  0  0  0  0  0  0  0
    0.3082    0.5617    0.1027 H   0  0  0  0  0  0  0  0  0  0  0  0
    1.9600   -1.9738    0.5183 H   0  0  0  0  0  0  0  0  0  0  0  0
   -0.6462   -2.1488    1.0637 H   0  0  0  0  0  0  0  0  0  0  0  0
   -1.3652   -0.7988   -2.9696 H   0  0  0  0  0  0  0  0  0  0  0  0
   -1.2680    0.5958   -1.9081 H   0  0  0  0  0  0  0  0  0  0  0  0
   -2.2590    0.3932    0.4795 H   0  0  0  0  0  0  0  0  0  0  0  0
    1.0758    0.8415   -2.2691 H   0  0  0  0  0  0  0  0  0  0  0  0
    1.1361   -0.5379   -3.3540 H   0  0  0  0  0  0  0  0  0  0  0  0
    2.8121    0.8666   -0.2366 H   0  0  0  0  0  0  0  0  0  0  0  0
   -3.2832   -0.6365   -1.4732 H   0  0  0  0  0  0  0  0  0  0  0  0
   -2.4098   -2.1320   -1.2480 H   0  0  0  0  0  0  0  0  0  0  0  0
    2.9368   -1.5640   -2.0690 H   0  0  0  0  0  0  0  0  0  0  0  0
    3.3562    0.0846   -2.4565 H   0  0  0  0  0  0  0  0  0  0  0  0
    1.2947   -2.8752   -1.3888 H   0  0  0  0  0  0  0  0  0  0  0  0
    0.1158   -2.7543   -2.6882 H   0  0  0  0  0  0  0  0  0  0  0  0
   -0.4102   -3.0528   -1.0319 H   0  0  0  0  0  0  0  0  0  0  0  0
   -3.2544   -1.0069    2.2596 H   0  0  0  0  0  0  0  0  0  0  0  0
    1.8213    0.5758    2.1839 H   0  0  0  0  0  0  0  0  0  0  0  0
    3.1473   -0.5876    2.2831 H   0  0  0  0  0  0  0  0  0  0  0  0
    1.5409   -1.1047    2.7114 H   0  0  0  0  0  0  0  0  0  0  0  0
    4.3796   -1.5687    0.3107 H   0  0  0  0  0  0  0  0  0  0  0  0
   -0.7535    0.4738    2.1585 H   0  0  0  0  0  0  0  0  0  0  0  0
   -3.2324   -3.3039    0.1960 H   0  0  0  0  0  0  0  0  0  0  0  0
   -3.9936   -3.3058    1.7629 H   0  0  0  0  0  0  0  0  0  0  0  0
   -2.2570   -3.2188    1.6818 H   0  0  0  0  0  0  0  0  0  0  0  0
   -4.0790    1.0603    1.0814 H   0  0  0  0  0  0  0  0  0  0  0  0
   -6.8647    0.4606    0.3965 H   0  0  0  0  0  0  0  0  0  0  0  0
   -5.9896    2.4468    2.0070 H   0  0  0  0  0  0  0  0  0  0  0  0
   -7.2935    2.7597    0.8501 H   0  0  0  0  0  0  0  0  0  0  0  0
   -6.9073    1.7196   -1.6344 H   0  0  0  0  0  0  0  0  0  0  0  0
   -5.4181    0.7858   -1.8529 H   0  0  0  0  0  0  0  0  0  0  0  0
    6.7434   -1.3738   -0.2846 H   0  0  0  0  0  0  0  0  0  0  0  0
    6.4795   -0.7169    1.3477 H   0  0  0  0  0  0  0  0  0  0  0  0
   -4.4243    3.6303    0.6871 H   0  0  0  0  0  0  0  0  0  0  0  0
   -5.8768    4.4410    0.0966 H   0  0  0  0  0  0  0  0  0  0  0  0
   -5.4446    3.5175   -2.0136 H   0  0  0  0  0  0  0  0  0  0  0  0
   -4.0575    2.6611   -1.3349 H   0  0  0  0  0  0  0  0  0  0  0  0
    8.7249   -0.1132    0.4532 H   0  0  0  0  0  0  0  0  0  0  0  0
    7.9548    0.7300   -0.9155 H   0  0  0  0  0  0  0  0  0  0  0  0
    8.6321    3.3329    1.4653 H   0  0  0  0  0  0  0  0  0  0  0  0
    8.9315    2.7993   -0.2024 H   0  0  0  0  0  0  0  0  0  0  0  0
    9.7099    1.9510    1.1744 H   0  0  0  0  0  0  0  0  0  0  0  0
  1 10  1  0  0  0  0
  1 52  1  0  0  0  0
  2 21  2  0  0  0  0
  3 22  2  0  0  0  0
  4 29  1  0  0  0  0
  4 30  1  0  0  0  0
  5 14  1  0  0  0  0
  5 22  1  0  0  0  0
  5 51  1  0  0  0  0
  6 21  1  0  0  0  0
  6 23  1  0  0  0  0
  6 56  1  0  0  0  0
  7  8  1  0  0  0  0
  7 11  1  0  0  0  0
  7 13  1  0  0  0  0
  7 17  1  0  0  0  0
  8  9  1  0  0  0  0
  8 10  1  0  0  0  0
  8 31  1  0  0  0  0
  9 14  1  0  0  0  0
  9 19  1  0  0  0  0
  9 32  1  0  0  0  0
 10 12  1  0  0  0  0
 10 33  1  0  0  0  0
 11 15  1  0  0  0  0
 11 34  1  0  0  0  0
 11 35  1  0  0  0  0
 12 15  1  0  0  0  0
 12 18  1  0  0  0  0
 12 36  1  0  0  0  0
 13 16  1  0  0  0  0
 13 37  1  0  0  0  0
 13 38  1  0  0  0  0
 14 16  1  0  0  0  0
 14 39  1  0  0  0  0
 15 40  1  0  0  0  0
 15 41  1  0  0  0  0
 16 42  1  0  0  0  0
 16 43  1  0  0  0  0
 17 44  1  0  0  0  0
 17 45  1  0  0  0  0
 17 46  1  0  0  0  0
 18 20  1  0  0  0  0
 18 21  1  0  0  0  0
 18 47  1  0  0  0  0
 19 48  1  0  0  0  0
 19 49  1  0  0  0  0
 19 50  1  0  0  0  0
 20 53  1  0  0  0  0
 20 54  1  0  0  0  0
 20 55  1  0  0  0  0
 22 24  1  0  0  0  0
 23 25  1  0  0  0  0
 23 26  1  0  0  0  0
 23 57  1  0  0  0  0
 24 29  1  0  0  0  0
 24 62  1  0  0  0  0
 24 63  1  0  0  0  0
 25 27  1  0  0  0  0
 25 58  1  0  0  0  0
 25 59  1  0  0  0  0
 26 28  1  0  0  0  0
 26 60  1  0  0  0  0
 26 61  1  0  0  0  0
 27 28  1  0  0  0  0
 27 64  1  0  0  0  0
 27 65  1  0  0  0  0
 28 66  1  0  0  0  0
 28 67  1  0  0  0  0
 29 68  1  0  0  0  0
 29 69  1  0  0  0  0
 30 70  1  0  0  0  0
 30 71  1  0  0  0  0
 30 72  1  0  0  0  0
M  END
> <PUBCHEM_COMPOUND_CID>
28963020

> <PUBCHEM_CONFORMER_RMSD>
1

> <PUBCHEM_CONFORMER_DIVERSEORDER>
1
75
70
7
40
106
110
95
66
99
42
105
107
26
33
52
84
25
93
28
56
53
12
111
112
46
61
48
44
108
100
94
59
82
20
85
38
65
71
67
68
57
69
14
62
50
109
86
5
79
17
60
41
55
63
27
98
6
35
30
88
78
74
8
39
19
9
32
101
92
45
81
49
54
36
18
31
96
64
13
77
73
83
97
21
58
2
51
16
90
102
76
24
11
72
22
47
15
89
80
104
4
103
87
3
91
43
10
37
34
29
23

> <PUBCHEM_MMFF94_PARTIAL_CHARGES>
18
1 -0.68
10 0.28
14 0.3
18 0.06
2 -0.57
21 0.57
22 0.57
23 0.3
24 0.06
29 0.28
3 -0.57
30 0.28
4 -0.56
5 -0.73
51 0.37
52 0.4
56 0.37
6 -0.73

> <PUBCHEM_EFFECTIVE_ROTOR_COUNT>
11.6

> <PUBCHEM_PHARMACOPHORE_FEATURES>
11
1 1 acceptor
1 1 donor
1 2 acceptor
1 20 hydrophobe
1 3 acceptor
1 4 acceptor
1 5 donor
1 6 donor
5 23 25 26 27 28 rings
6 7 8 10 11 12 15 rings
6 7 8 9 13 14 16 rings

> <PUBCHEM_HEAVY_ATOM_COUNT>
30

> <PUBCHEM_ATOM_DEF_STEREO_COUNT>
7

> <PUBCHEM_ATOM_UDEF_STEREO_COUNT>
0

> <PUBCHEM_BOND_DEF_STEREO_COUNT>
0

> <PUBCHEM_BOND_UDEF_STEREO_COUNT>
0

> <PUBCHEM_ISOTOPIC_ATOM_COUNT>
0

> <PUBCHEM_COMPONENT_COUNT>
1

> <PUBCHEM_CACTVS_TAUTO_COUNT>
4

> <PUBCHEM_CONFORMER_ID>
01B9F0CC00000001

> <PUBCHEM_MMFF94_ENERGY>
76.9443

> <PUBCHEM_FEATURE_SELFOVERLAP>
55.838

> <PUBCHEM_SHAPE_FINGERPRINT>
10554248 39 17131839712244769100
11578080 2 18200317602730921287
11578821 258 18131069389968161192
11720765 8 17117486468550242343
12166972 35 9655570821061046546
12422481 6 16226892121622909615
13257819 101 18271805679530552189
13540713 5 15721391843441372447
13673619 4 8358247138700074103
13911987 19 16845573085076560303
14251764 30 8574423210631985191
14767858 380 15410894046202739560
14950920 106 13624118386868083877
15021287 119 15936417736364009373
15131766 46 18055065730692471132
15238133 3 18041574571561005692
15352257 5 8574713503018941872
15604295 49 18271238448160472840
16994733 274 18409725188794302400
17492 54 15985102985633756174
17980427 23 18113908173567488943
20739085 24 15069205393693042103
20982279 24 12829759641487578456
21033648 29 18342163493375234616
21130935 74 18113335306735788306
21267235 1 14707206617954794070
21756936 100 18334852814655191607
21814621 53 18408893923485865634
22122407 14 18335432304359481960
22288116 15 13973678455563184597
22393880 68 16127792095118768743
23522609 53 16371879316565981966
23559900 14 18195260914342728735
23569914 2 17835472259323043592
23569943 247 16154533290978602658
23576562 1 17130693049955002632
24771293 8 17458910444317216876
2838139 119 18343016679553866901
312425 54 17894347796260603610
3383291 50 13840261507637243120
3918712 181 18049440345457872513
392239 28 17022902371654030100
4093350 32 18261388902691850290
4169191 19 17703796916133537616
437795 83 17203615843532304456
44802255 64 17917712422055032503
484989 97 15337973417584687071
4938544 92 18409448119705002527
5104073 3 16299250049242819688
54039377 194 12966836975866347397
58083652 198 15574715845539163310
636775 72 18408885161330913120
8863177 126 10737587045400627101
9849439 229 17684655325745199781
999808 66 12324240559721862368

> <PUBCHEM_SHAPE_MULTIPOLES>
583.95
20.73
2.88
1.9
30.88
1.76
-0.4
19.84
4.94
-4.1
0.22
-0.22
-0.51
1.89

> <PUBCHEM_SHAPE_SELFOVERLAP>
1190.677

> <PUBCHEM_SHAPE_VOLUME>
336.2

> <PUBCHEM_COORDINATE_TYPE>
2
5
10

$$$$
