45784166
  -OEChem-12032416363D

 56 58  0     1  0  0  0  0  0999 V2000
   -5.2728   -1.3942    0.1573 F   0  0  0  0  0  0  0  0  0  0  0  0
   -1.2800   -0.5983   -0.6912 O   0  0  0  0  0  0  0  0  0  0  0  0
    2.8750    3.4991   -0.8490 O   0  0  0  0  0  0  0  0  0  0  0  0
    3.8372    1.3827   -1.0066 N   0  0  0  0  0  0  0  0  0  0  0  0
   -1.5123   -2.8210   -0.5884 N   0  0  0  0  0  0  0  0  0  0  0  0
   -2.7479   -2.2506   -0.3454 N   0  0  0  0  0  0  0  0  0  0  0  0
    2.0105    0.2045    1.0715 C   0  0  1  0  0  0  0  0  0  0  0  0
    3.5449    0.0087    0.9872 C   0  0  1  0  0  0  0  0  0  0  0  0
    1.3090   -1.1446    1.2905 C   0  0  0  0  0  0  0  0  0  0  0  0
    1.6116   -2.1485    0.1621 C   0  0  2  0  0  0  0  0  0  0  0  0
    1.6220    1.1784    2.1882 C   0  0  0  0  0  0  0  0  0  0  0  0
    3.0905   -2.1999   -0.1642 C   0  0  0  0  0  0  0  0  0  0  0  0
    3.9413   -1.2336    0.2243 C   0  0  0  0  0  0  0  0  0  0  0  0
    4.2251    1.2314    0.3607 C   0  0  0  0  0  0  0  0  0  0  0  0
    0.7838   -1.8383   -1.0900 C   0  0  0  0  0  0  0  0  0  0  0  0
    0.2661    1.8123    1.8936 C   0  0  0  0  0  0  0  0  0  0  0  0
    1.6035    0.4633    3.5353 C   0  0  0  0  0  0  0  0  0  0  0  0
    3.5777   -3.4116   -0.9090 C   0  0  0  0  0  0  0  0  0  0  0  0
   -0.6866   -1.8197   -0.7849 C   0  0  0  0  0  0  0  0  0  0  0  0
    3.1895    2.5104   -1.5062 C   0  0  0  0  0  0  0  0  0  0  0  0
   -2.5648   -0.9528   -0.4152 C   0  0  0  0  0  0  0  0  0  0  0  0
    2.9187    2.4202   -2.9842 C   0  0  0  0  0  0  0  0  0  0  0  0
   -3.4920    0.1286   -0.2491 C   0  0  0  0  0  0  0  0  0  0  0  0
   -4.8323   -0.1335    0.0345 C   0  0  0  0  0  0  0  0  0  0  0  0
   -3.0500    1.4458   -0.3730 C   0  0  0  0  0  0  0  0  0  0  0  0
   -5.7306    0.9216    0.1943 C   0  0  0  0  0  0  0  0  0  0  0  0
   -3.9484    2.5009   -0.2135 C   0  0  0  0  0  0  0  0  0  0  0  0
   -5.2887    2.2388    0.0703 C   0  0  0  0  0  0  0  0  0  0  0  0
    1.6529    0.6143    0.1190 H   0  0  0  0  0  0  0  0  0  0  0  0
    3.9555   -0.1097    1.9978 H   0  0  0  0  0  0  0  0  0  0  0  0
    1.6878   -1.6201    2.2056 H   0  0  0  0  0  0  0  0  0  0  0  0
    0.2334   -1.0248    1.4455 H   0  0  0  0  0  0  0  0  0  0  0  0
    1.3118   -3.1376    0.5379 H   0  0  0  0  0  0  0  0  0  0  0  0
    2.3457    1.9976    2.2492 H   0  0  0  0  0  0  0  0  0  0  0  0
    5.0009   -1.3463    0.0029 H   0  0  0  0  0  0  0  0  0  0  0  0
    5.3142    1.1018    0.3654 H   0  0  0  0  0  0  0  0  0  0  0  0
    4.0175    2.1474    0.9204 H   0  0  0  0  0  0  0  0  0  0  0  0
    0.9506   -2.6036   -1.8577 H   0  0  0  0  0  0  0  0  0  0  0  0
    1.0791   -0.8820   -1.5385 H   0  0  0  0  0  0  0  0  0  0  0  0
   -0.5392    1.0723    1.8579 H   0  0  0  0  0  0  0  0  0  0  0  0
    0.2815    2.3445    0.9364 H   0  0  0  0  0  0  0  0  0  0  0  0
    0.0079    2.5408    2.6701 H   0  0  0  0  0  0  0  0  0  0  0  0
    0.7498   -0.2123    3.6532 H   0  0  0  0  0  0  0  0  0  0  0  0
    1.5064    1.2073    4.3358 H   0  0  0  0  0  0  0  0  0  0  0  0
    2.5286   -0.0855    3.7353 H   0  0  0  0  0  0  0  0  0  0  0  0
    3.1382   -3.4542   -1.9099 H   0  0  0  0  0  0  0  0  0  0  0  0
    4.6665   -3.4120   -1.0279 H   0  0  0  0  0  0  0  0  0  0  0  0
    3.3059   -4.3243   -0.3690 H   0  0  0  0  0  0  0  0  0  0  0  0
    4.1042    0.6528   -1.6611 H   0  0  0  0  0  0  0  0  0  0  0  0
    2.5322    1.4296   -3.2409 H   0  0  0  0  0  0  0  0  0  0  0  0
    2.1741    3.1690   -3.2678 H   0  0  0  0  0  0  0  0  0  0  0  0
    3.8454    2.6036   -3.5345 H   0  0  0  0  0  0  0  0  0  0  0  0
   -2.0143    1.6909   -0.5940 H   0  0  0  0  0  0  0  0  0  0  0  0
   -6.7740    0.7173    0.4153 H   0  0  0  0  0  0  0  0  0  0  0  0
   -3.6046    3.5267   -0.3099 H   0  0  0  0  0  0  0  0  0  0  0  0
   -5.9882    3.0602    0.1947 H   0  0  0  0  0  0  0  0  0  0  0  0
  1 24  1  0  0  0  0
  2 19  1  0  0  0  0
  2 21  1  0  0  0  0
  3 20  2  0  0  0  0
  4 14  1  0  0  0  0
  4 20  1  0  0  0  0
  4 49  1  0  0  0  0
  5  6  1  0  0  0  0
  5 19  2  0  0  0  0
  6 21  2  0  0  0  0
  7  8  1  0  0  0  0
  7  9  1  0  0  0  0
  7 11  1  0  0  0  0
  7 29  1  0  0  0  0
  8 13  1  0  0  0  0
  8 14  1  0  0  0  0
  8 30  1  0  0  0  0
  9 10  1  0  0  0  0
  9 31  1  0  0  0  0
  9 32  1  0  0  0  0
 10 12  1  0  0  0  0
 10 15  1  0  0  0  0
 10 33  1  0  0  0  0
 11 16  1  0  0  0  0
 11 17  1  0  0  0  0
 11 34  1  0  0  0  0
 12 13  2  0  0  0  0
 12 18  1  0  0  0  0
 13 35  1  0  0  0  0
 14 36  1  0  0  0  0
 14 37  1  0  0  0  0
 15 19  1  0  0  0  0
 15 38  1  0  0  0  0
 15 39  1  0  0  0  0
 16 40  1  0  0  0  0
 16 41  1  0  0  0  0
 16 42  1  0  0  0  0
 17 43  1  0  0  0  0
 17 44  1  0  0  0  0
 17 45  1  0  0  0  0
 18 46  1  0  0  0  0
 18 47  1  0  0  0  0
 18 48  1  0  0  0  0
 20 22  1  0  0  0  0
 21 23  1  0  0  0  0
 22 50  1  0  0  0  0
 22 51  1  0  0  0  0
 22 52  1  0  0  0  0
 23 24  1  0  0  0  0
 23 25  2  0  0  0  0
 24 26  2  0  0  0  0
 25 27  1  0  0  0  0
 25 53  1  0  0  0  0
 26 28  1  0  0  0  0
 26 54  1  0  0  0  0
 27 28  2  0  0  0  0
 27 55  1  0  0  0  0
 28 56  1  0  0  0  0
M  END
> <PUBCHEM_COMPOUND_CID>
45784166

> <PUBCHEM_CONFORMER_RMSD>
1.2

> <PUBCHEM_CONFORMER_DIVERSEORDER>
1
25
47
67
30
107
108
89
51
96
17
102
99
27
80
114
105
104
75
35
100
60
92
70
83
84
56
88
101
113
58
10
98
62
71
3
29
42
68
110
76
7
53
69
50
18
106
65
12
74
97
28
48
61
4
37
118
90
21
43
15
41
116
26
72
73
16
9
20
52
32
55
34
40
59
38
79
78
23
111
86
11
117
82
44
112
93
31
54
81
94
24
14
19
46
95
63
6
13
77
22
33
85
103
87
2
64
66
39
8
109
45
115
5
91
49
36
57

> <PUBCHEM_MMFF94_PARTIAL_CHARGES>
29
1 -0.19
10 0.14
12 -0.28
13 -0.29
14 0.3
15 0.18
18 0.14
19 0.3
2 -0.28
20 0.57
21 0.43
22 0.06
23 0.05
24 0.19
25 -0.15
26 -0.15
27 -0.15
28 -0.15
3 -0.57
35 0.15
4 -0.73
49 0.37
5 -0.34
53 0.15
54 0.15
55 0.15
56 0.15
6 -0.34
8 0.14

> <PUBCHEM_EFFECTIVE_ROTOR_COUNT>
7.8

> <PUBCHEM_PHARMACOPHORE_FEATURES>
6
1 3 acceptor
1 4 donor
3 11 16 17 hydrophobe
5 2 5 6 19 21 rings
6 23 24 25 26 27 28 rings
6 7 8 9 10 12 13 rings

> <PUBCHEM_HEAVY_ATOM_COUNT>
28

> <PUBCHEM_ATOM_DEF_STEREO_COUNT>
3

> <PUBCHEM_ATOM_UDEF_STEREO_COUNT>
0

> <PUBCHEM_BOND_DEF_STEREO_COUNT>
0

> <PUBCHEM_BOND_UDEF_STEREO_COUNT>
0

> <PUBCHEM_ISOTOPIC_ATOM_COUNT>
0

> <PUBCHEM_COMPONENT_COUNT>
1

> <PUBCHEM_CACTVS_TAUTO_COUNT>
2

> <PUBCHEM_CONFORMER_ID>
02BA9C6600000001

> <PUBCHEM_MMFF94_ENERGY>
49.9406

> <PUBCHEM_FEATURE_SELFOVERLAP>
30.447

> <PUBCHEM_SHAPE_FINGERPRINT>
10763959 59 18117272554510224069
10764073 3 17625496226818079106
11578080 2 15720833240785392070
11595378 159 17168699701236199029
12156800 1 13843407304745598316
12166972 35 18198346152148258647
12422481 6 18120341360551932896
12467345 10 18334014986367915676
12788726 201 16166122508654969436
13402501 40 18129091239414701625
144659 178 17984144755744982152
14674994 50 13033344093014509020
151778 21 18412262843796951989
17921350 177 17244678110346433788
21033648 29 18196913506067480457
21860390 5 17603598421542166780
23559900 14 18339357449369803759
245318 6 17823716332637788301
338550 245 18410292484410575372
376196 1 16053190432710687362
38570 142 17387433409319413188
392239 28 15936962067518378096
474 4 17822010973102105060
5081480 168 18266459806915416790
508180 173 18121519079356207012
7288768 16 16591406884813604660
7808743 9 18339637957461719699

> <PUBCHEM_SHAPE_MULTIPOLES>
542.27
10.98
3.84
2.16
14.29
0.02
-0.97
3.04
1.36
-2.39
1.94
-2.78
1.68
-0.96

> <PUBCHEM_SHAPE_SELFOVERLAP>
1143.353

> <PUBCHEM_SHAPE_VOLUME>
306.7

> <PUBCHEM_COORDINATE_TYPE>
2
5
10

$$$$
