7161554
  -OEChem-12032416373D

 43 45  0     1  0  0  0  0  0999 V2000
   -4.3873   -0.0298   -1.8645 S   0  0  0  0  0  0  0  0  0  0  0  0
    4.3533   -2.4295    1.0611 F   0  0  0  0  0  0  0  0  0  0  0  0
    0.2245   -1.8140    0.6117 O   0  0  0  0  0  0  0  0  0  0  0  0
   -0.8784   -0.4994    2.1583 O   0  0  0  0  0  0  0  0  0  0  0  0
   -3.9514    1.8558    0.9727 O   0  0  0  0  0  0  0  0  0  0  0  0
    2.7485    2.7469    0.6039 O   0  0  0  0  0  0  0  0  0  0  0  0
   -1.8592    1.1003    0.3083 N   0  0  0  0  0  0  0  0  0  0  0  0
    0.8628    1.6882   -0.2850 N   0  0  0  0  0  0  0  0  0  0  0  0
   -0.9806    0.0258   -0.1920 C   0  0  1  0  0  0  0  0  0  0  0  0
    0.2284    0.5539   -0.9681 C   0  0  0  0  0  0  0  0  0  0  0  0
   -1.1875    2.2493    0.9310 C   0  0  0  0  0  0  0  0  0  0  0  0
   -0.0518    2.7713    0.0632 C   0  0  0  0  0  0  0  0  0  0  0  0
   -0.5570   -0.7699    1.0091 C   0  0  0  0  0  0  0  0  0  0  0  0
   -3.2654    1.0106    0.3958 C   0  0  0  0  0  0  0  0  0  0  0  0
    2.2177    1.7946    0.0344 C   0  0  0  0  0  0  0  0  0  0  0  0
    3.1034    0.6843   -0.3361 C   0  0  0  0  0  0  0  0  0  0  0  0
   -3.8995   -0.1419   -0.2304 C   0  0  0  0  0  0  0  0  0  0  0  0
    3.3102   -0.3641    0.5568 C   0  0  0  0  0  0  0  0  0  0  0  0
    3.7320    0.6842   -1.5787 C   0  0  0  0  0  0  0  0  0  0  0  0
   -4.1804   -1.3691    0.3181 C   0  0  0  0  0  0  0  0  0  0  0  0
    0.7015   -2.6601    1.6629 C   0  0  0  0  0  0  0  0  0  0  0  0
   -4.8090   -2.2375   -0.6204 C   0  0  0  0  0  0  0  0  0  0  0  0
    4.1512   -1.4198    0.2047 C   0  0  0  0  0  0  0  0  0  0  0  0
    4.5730   -0.3714   -1.9306 C   0  0  0  0  0  0  0  0  0  0  0  0
   -4.9817   -1.6355   -1.8473 C   0  0  0  0  0  0  0  0  0  0  0  0
    4.7826   -1.4233   -1.0390 C   0  0  0  0  0  0  0  0  0  0  0  0
   -1.5424   -0.6537   -0.8377 H   0  0  0  0  0  0  0  0  0  0  0  0
    0.9436   -0.2412   -1.1870 H   0  0  0  0  0  0  0  0  0  0  0  0
   -0.1115    0.9423   -1.9368 H   0  0  0  0  0  0  0  0  0  0  0  0
   -0.8075    1.9368    1.9091 H   0  0  0  0  0  0  0  0  0  0  0  0
   -1.9043    3.0570    1.1121 H   0  0  0  0  0  0  0  0  0  0  0  0
   -0.4431    3.1797   -0.8762 H   0  0  0  0  0  0  0  0  0  0  0  0
    0.4751    3.5786    0.5815 H   0  0  0  0  0  0  0  0  0  0  0  0
    2.8290   -0.3652    1.5307 H   0  0  0  0  0  0  0  0  0  0  0  0
    3.5745    1.4988   -2.2806 H   0  0  0  0  0  0  0  0  0  0  0  0
   -3.9488   -1.6390    1.3406 H   0  0  0  0  0  0  0  0  0  0  0  0
   -0.1312   -3.2295    2.0859 H   0  0  0  0  0  0  0  0  0  0  0  0
    1.1996   -2.0736    2.4408 H   0  0  0  0  0  0  0  0  0  0  0  0
    1.4247   -3.3593    1.2348 H   0  0  0  0  0  0  0  0  0  0  0  0
   -5.1184   -3.2523   -0.4065 H   0  0  0  0  0  0  0  0  0  0  0  0
    5.0645   -0.3745   -2.8991 H   0  0  0  0  0  0  0  0  0  0  0  0
   -5.4284   -2.0619   -2.7344 H   0  0  0  0  0  0  0  0  0  0  0  0
    5.4373   -2.2453   -1.3128 H   0  0  0  0  0  0  0  0  0  0  0  0
  1 17  1  0  0  0  0
  1 25  1  0  0  0  0
  2 23  1  0  0  0  0
  3 13  1  0  0  0  0
  3 21  1  0  0  0  0
  4 13  2  0  0  0  0
  5 14  2  0  0  0  0
  6 15  2  0  0  0  0
  7  9  1  0  0  0  0
  7 11  1  0  0  0  0
  7 14  1  0  0  0  0
  8 10  1  0  0  0  0
  8 12  1  0  0  0  0
  8 15  1  0  0  0  0
  9 10  1  0  0  0  0
  9 13  1  0  0  0  0
  9 27  1  0  0  0  0
 10 28  1  0  0  0  0
 10 29  1  0  0  0  0
 11 12  1  0  0  0  0
 11 30  1  0  0  0  0
 11 31  1  0  0  0  0
 12 32  1  0  0  0  0
 12 33  1  0  0  0  0
 14 17  1  0  0  0  0
 15 16  1  0  0  0  0
 16 18  2  0  0  0  0
 16 19  1  0  0  0  0
 17 20  2  0  0  0  0
 18 23  1  0  0  0  0
 18 34  1  0  0  0  0
 19 24  2  0  0  0  0
 19 35  1  0  0  0  0
 20 22  1  0  0  0  0
 20 36  1  0  0  0  0
 21 37  1  0  0  0  0
 21 38  1  0  0  0  0
 21 39  1  0  0  0  0
 22 25  2  0  0  0  0
 22 40  1  0  0  0  0
 23 26  2  0  0  0  0
 24 26  1  0  0  0  0
 24 41  1  0  0  0  0
 25 42  1  0  0  0  0
 26 43  1  0  0  0  0
M  END
> <PUBCHEM_COMPOUND_CID>
7161554

> <PUBCHEM_CONFORMER_RMSD>
0.8

> <PUBCHEM_CONFORMER_DIVERSEORDER>
1
84
283
169
276
106
74
279
287
182
167
312
299
87
140
187
214
319
238
152
180
237
305
60
188
154
291
315
183
200
153
327
45
308
104
264
329
273
72
177
95
65
229
251
181
311
178
295
35
318
76
21
170
129
270
58
138
49
162
28
272
303
151
213
208
25
289
171
225
68
105
192
163
217
250
249
78
69
130
90
166
304
148
11
27
136
222
215
197
210
127
226
36
259
33
268
323
108
77
269
114
286
168
266
86
241
141
260
302
82
54
206
245
261
173
94
247
146
288
313
240
161
254
242
24
134
325
39
262
111
155
53
232
46
131
75
14
300
218
128
157
296
186
26
258
109
121
234
158
18
55
274
100
17
243
298
91
191
135
257
203
122
70
310
119
142
223
37
147
38
317
267
314
322
116
115
48
290
307
271
263
235
19
244
31
132
172
34
201
230
297
252
62
110
227
164
248
150
165
294
47
328
20
144
292
236
205
15
281
73
107
88
280
255
284
101
59
52
118
143
207
145
92
211
79
184
233
156
228
40
278
160
175
179
189
103
6
239
194
98
32
324
81
149
50
277
176
209
63
13
51
330
253
212
256
282
198
196
275
221
216
7
202
64
231
120
56
126
301
185
42
195
41
22
265
159
80
89
316
16
285
306
83
99
44
2
125
199
219
8
12
57
139
113
71
117
326
29
43
320
193
102
4
220
293
93
97
10
321
123
96
190
137
85
133
224
9
309
23
67
30
5
112
3
246
61
174
204
66
124

> <PUBCHEM_MMFF94_PARTIAL_CHARGES>
33
1 -0.08
10 0.3
11 0.3
12 0.3
13 0.66
14 0.71
15 0.54
16 0.09
17 -0.05
18 -0.15
19 -0.15
2 -0.19
20 -0.15
21 0.28
22 -0.15
23 0.19
24 -0.15
25 -0.11
26 -0.15
3 -0.43
34 0.15
35 0.15
36 0.15
4 -0.57
40 0.15
41 0.15
42 0.15
43 0.15
5 -0.57
6 -0.57
7 -0.66
8 -0.66
9 0.36

> <PUBCHEM_EFFECTIVE_ROTOR_COUNT>
7.2

> <PUBCHEM_PHARMACOPHORE_FEATURES>
6
1 4 acceptor
1 5 acceptor
1 6 acceptor
5 1 17 20 22 25 rings
6 16 18 19 23 24 26 rings
6 7 8 9 10 11 12 rings

> <PUBCHEM_HEAVY_ATOM_COUNT>
26

> <PUBCHEM_ATOM_DEF_STEREO_COUNT>
1

> <PUBCHEM_ATOM_UDEF_STEREO_COUNT>
0

> <PUBCHEM_BOND_DEF_STEREO_COUNT>
0

> <PUBCHEM_BOND_UDEF_STEREO_COUNT>
0

> <PUBCHEM_ISOTOPIC_ATOM_COUNT>
0

> <PUBCHEM_COMPONENT_COUNT>
1

> <PUBCHEM_CACTVS_TAUTO_COUNT>
1

> <PUBCHEM_CONFORMER_ID>
006D46D200000001

> <PUBCHEM_MMFF94_ENERGY>
67.4318

> <PUBCHEM_FEATURE_SELFOVERLAP>
30.448

> <PUBCHEM_SHAPE_FINGERPRINT>
10062212 137 18341898467875445017
11405975 8 17918000460084818161
12035759 4 18335973195418464347
12422481 6 17202506479897767303
12969540 114 15574718014392112879
13944108 23 15229010333382372757
14251757 17 18189048866665608043
14848178 5 17489580190948984567
14950920 106 13614245866749269135
15163728 17 15357965730074817655
15239154 128 11097849696694480661
15420108 30 17478904787737230801
16752209 62 18260548866685186976
17349148 13 18410302405853484143
17492 89 18130792303813841503
17857418 61 18411415102967464382
18186145 218 18260547852935833045
19784866 140 18340484565031998583
20645477 70 18270405009175512716
20775438 99 17910654777202419686
22182313 1 17898297344463023585
22393880 68 18261659433721949807
23402539 116 18341616983865493412
23559900 14 18263928907236990940
3459 110 12534761925330917413
392239 28 13830130572600664638
5104073 3 17917997187045282961
59682541 52 17897135015419543263
633830 44 18410015459405202669
6669772 16 18049995889952621680
960060 61 17967252005266079230
9709674 26 18340213010712459776
9849439 229 12759085215855163343

> <PUBCHEM_SHAPE_MULTIPOLES>
498.2
10.94
2.95
1.7
1.75
0.46
0.27
-5.68
5.11
-0.38
-0.96
0.12
-0.64
-1.19

> <PUBCHEM_SHAPE_SELFOVERLAP>
1056.605

> <PUBCHEM_SHAPE_VOLUME>
280.2

> <PUBCHEM_COORDINATE_TYPE>
2
5
10

$$$$
