51137385
  -OEChem-12032416243D

 42 45  0     1  0  0  0  0  0999 V2000
   -0.4869    0.7461   -0.3251 O   0  0  0  0  0  0  0  0  0  0  0  0
    3.3830   -0.1715    0.4898 N   0  0  1  0  0  0  0  0  0  0  0  0
   -0.4414    2.7685    0.6302 N   0  0  0  0  0  0  0  0  0  0  0  0
   -1.6279    2.6533   -0.0697 N   0  0  0  0  0  0  0  0  0  0  0  0
    4.1352   -0.9147   -0.5279 C   0  0  0  0  0  0  0  0  0  0  0  0
    5.2898   -1.6870    0.1435 C   0  0  0  0  0  0  0  0  0  0  0  0
    5.2105    0.0017   -1.1480 C   0  0  0  0  0  0  0  0  0  0  0  0
    6.1923   -1.1796   -1.0003 C   0  0  0  0  0  0  0  0  0  0  0  0
    2.5362    0.8504   -0.1320 C   0  0  0  0  0  0  0  0  0  0  0  0
    1.5356    1.1865    0.9820 C   0  0  2  0  0  0  0  0  0  0  0  0
    2.4506   -1.0541    1.1931 C   0  0  0  0  0  0  0  0  0  0  0  0
    1.4971   -0.0738    1.8640 C   0  0  0  0  0  0  0  0  0  0  0  0
    0.1921    1.6325    0.4531 C   0  0  0  0  0  0  0  0  0  0  0  0
   -1.6114    1.4577   -0.6111 C   0  0  0  0  0  0  0  0  0  0  0  0
   -2.6149    0.8002   -1.4576 C   0  0  0  0  0  0  0  0  0  0  0  0
   -3.4809   -0.2285   -0.7384 C   0  0  0  0  0  0  0  0  0  0  0  0
   -2.9883   -1.5117   -0.5013 C   0  0  0  0  0  0  0  0  0  0  0  0
   -4.7659    0.1139   -0.3178 C   0  0  0  0  0  0  0  0  0  0  0  0
   -3.7807   -2.4527    0.1565 C   0  0  0  0  0  0  0  0  0  0  0  0
   -5.5584   -0.8269    0.3400 C   0  0  0  0  0  0  0  0  0  0  0  0
   -5.0658   -2.1102    0.5770 C   0  0  0  0  0  0  0  0  0  0  0  0
    3.5544   -1.4924   -1.2574 H   0  0  0  0  0  0  0  0  0  0  0  0
    5.1664   -2.7724    0.1948 H   0  0  0  0  0  0  0  0  0  0  0  0
    5.6040   -1.3215    1.1294 H   0  0  0  0  0  0  0  0  0  0  0  0
    5.0220    0.3262   -2.1752 H   0  0  0  0  0  0  0  0  0  0  0  0
    5.5075    0.8737   -0.5516 H   0  0  0  0  0  0  0  0  0  0  0  0
    6.2171   -1.8446   -1.8713 H   0  0  0  0  0  0  0  0  0  0  0  0
    7.2154   -0.9175   -0.7202 H   0  0  0  0  0  0  0  0  0  0  0  0
    2.0289    0.4652   -1.0267 H   0  0  0  0  0  0  0  0  0  0  0  0
    3.1077    1.7386   -0.4228 H   0  0  0  0  0  0  0  0  0  0  0  0
    1.9401    2.0095    1.5875 H   0  0  0  0  0  0  0  0  0  0  0  0
    1.8921   -1.6966    0.4998 H   0  0  0  0  0  0  0  0  0  0  0  0
    2.9530   -1.6901    1.9287 H   0  0  0  0  0  0  0  0  0  0  0  0
    1.8606    0.1756    2.8688 H   0  0  0  0  0  0  0  0  0  0  0  0
    0.4947   -0.5017    1.9708 H   0  0  0  0  0  0  0  0  0  0  0  0
   -3.2632    1.5621   -1.9090 H   0  0  0  0  0  0  0  0  0  0  0  0
   -2.1209    0.3069   -2.3049 H   0  0  0  0  0  0  0  0  0  0  0  0
   -1.9891   -1.7908   -0.8250 H   0  0  0  0  0  0  0  0  0  0  0  0
   -5.1609    1.1107   -0.4945 H   0  0  0  0  0  0  0  0  0  0  0  0
   -3.3972   -3.4519    0.3410 H   0  0  0  0  0  0  0  0  0  0  0  0
   -6.5588   -0.5602    0.6680 H   0  0  0  0  0  0  0  0  0  0  0  0
   -5.6828   -2.8427    1.0893 H   0  0  0  0  0  0  0  0  0  0  0  0
  1 13  1  0  0  0  0
  1 14  1  0  0  0  0
  2  5  1  0  0  0  0
  2  9  1  0  0  0  0
  2 11  1  0  0  0  0
  3  4  1  0  0  0  0
  3 13  2  0  0  0  0
  4 14  2  0  0  0  0
  5  6  1  0  0  0  0
  5  7  1  0  0  0  0
  5 22  1  0  0  0  0
  6  8  1  0  0  0  0
  6 23  1  0  0  0  0
  6 24  1  0  0  0  0
  7  8  1  0  0  0  0
  7 25  1  0  0  0  0
  7 26  1  0  0  0  0
  8 27  1  0  0  0  0
  8 28  1  0  0  0  0
  9 10  1  0  0  0  0
  9 29  1  0  0  0  0
  9 30  1  0  0  0  0
 10 12  1  0  0  0  0
 10 13  1  0  0  0  0
 10 31  1  0  0  0  0
 11 12  1  0  0  0  0
 11 32  1  0  0  0  0
 11 33  1  0  0  0  0
 12 34  1  0  0  0  0
 12 35  1  0  0  0  0
 14 15  1  0  0  0  0
 15 16  1  0  0  0  0
 15 36  1  0  0  0  0
 15 37  1  0  0  0  0
 16 17  2  0  0  0  0
 16 18  1  0  0  0  0
 17 19  1  0  0  0  0
 17 38  1  0  0  0  0
 18 20  2  0  0  0  0
 18 39  1  0  0  0  0
 19 21  2  0  0  0  0
 19 40  1  0  0  0  0
 20 21  1  0  0  0  0
 20 41  1  0  0  0  0
 21 42  1  0  0  0  0
M  END
> <PUBCHEM_COMPOUND_CID>
51137385

> <PUBCHEM_CONFORMER_RMSD>
0.8

> <PUBCHEM_CONFORMER_DIVERSEORDER>
1
42
2
56
64
21
54
60
45
40
19
16
57
49
25
18
55
7
44
15
13
41
43
62
35
63
50
38
58
66
17
33
14
67
32
31
3
59
48
36
37
27
53
11
6
51
39
8
5
52
34
47
24
10
65
28
22
61
26
30
4
12
29
46
20
23
9

> <PUBCHEM_MMFF94_PARTIAL_CHARGES>
22
1 -0.28
10 0.18
11 0.27
13 0.3
14 0.3
15 0.32
16 -0.14
17 -0.15
18 -0.15
19 -0.15
2 -0.75
20 -0.15
21 -0.15
3 -0.34
38 0.15
39 0.15
4 -0.34
40 0.15
41 0.15
42 0.15
5 0.21
9 0.27

> <PUBCHEM_EFFECTIVE_ROTOR_COUNT>
5.8

> <PUBCHEM_PHARMACOPHORE_FEATURES>
5
1 2 cation
4 5 6 7 8 rings
5 1 3 4 13 14 rings
5 2 9 10 11 12 rings
6 16 17 18 19 20 21 rings

> <PUBCHEM_HEAVY_ATOM_COUNT>
21

> <PUBCHEM_ATOM_DEF_STEREO_COUNT>
1

> <PUBCHEM_ATOM_UDEF_STEREO_COUNT>
0

> <PUBCHEM_BOND_DEF_STEREO_COUNT>
0

> <PUBCHEM_BOND_UDEF_STEREO_COUNT>
0

> <PUBCHEM_ISOTOPIC_ATOM_COUNT>
0

> <PUBCHEM_COMPONENT_COUNT>
1

> <PUBCHEM_CACTVS_TAUTO_COUNT>
1

> <PUBCHEM_CONFORMER_ID>
030C4B6900000001

> <PUBCHEM_MMFF94_ENERGY>
44.2949

> <PUBCHEM_FEATURE_SELFOVERLAP>
25.374

> <PUBCHEM_SHAPE_FINGERPRINT>
10042902 136 18191306177144270143
10692045 39 9438863650547400796
10759866 29 17604137121704007514
10928967 22 18338502136350144403
11128504 68 16950284022443592870
11370993 70 9511469935130808067
11961588 58 14490479728871739132
12403259 118 11743830400453547929
12467345 10 17967537908449264686
12553582 1 18337655486837137643
12633257 1 15554164856397938061
12670546 177 17967253070644782774
12714826 92 18114728383519699149
12760667 363 18273494555086760111
12788726 201 18335416807921578497
12969540 114 14634875245104526160
13103583 49 14836400341729011158
13402501 40 18342178868715284231
13533116 47 17909542098138154943
13690498 29 18040995168247301711
13911882 115 18195521713019250808
13941219 33 15626226771732187422
14211702 104 17984985895906022766
14251732 14 18409455782506524230
14251732 17 10447936061444438038
14251757 5 18187369860543826322
14251764 30 18340490057736364559
14420673 8 18411425012190719731
14466204 15 10663820771527796078
14617045 38 18260548909814389979
14951699 99 10231453222017242122
15209294 21 10592038055686663676
15238133 3 13326576293431099730
15527383 91 15985099717537839554
15537594 2 17968094218541566699
16991981 162 15648709568238299279
17909252 39 18413393138025005530
193927 3 18202848734195258820
19784866 135 18272932704523809601
19784866 140 18334856108399150994
20403669 9 18272936011537981350
20567600 254 8718553778706380515
20621476 21 17988651765950321598
20693207 138 18261943128696073021
20871999 31 18187926144744361988
21054139 6 17967530147865574466
21315763 191 18411426089493742405
21591331 117 18338247032614192115
21713013 43 18040704875138229885
2215653 11 18339348739445036279
22393880 68 17749660814598199756
22950370 63 18411422842756948933
2297311 6 18411142424220997487
23379529 103 18340773727488849422
235170 7 14996267112078854763
23559900 14 18337943575816038509
23622692 88 12679461984788967760
238078 22 18334294266726776449
2767999 5 11025798708316487766
2838139 119 14490190497257809102
3004659 81 18186799196865310934
3117164 225 11095884861258486852
328317 168 11458422440422035743
329604 57 18409451380128284862
4058900 60 17120867483458554177
437815 12 18202563990769391763
5104073 3 18059849520657583392
5207 217 14490479707117139529
5486654 36 18202007598920276361
56616090 284 18260833687367230634
6823239 73 18338508746071840883
7918774 8 18059587887881348582
7970288 3 18341609356178526183
8217 86 18260834842391945906

> <PUBCHEM_SHAPE_MULTIPOLES>
411.36
13.74
2.54
1.26
5.48
0.6
0.17
-10.14
-3.11
-1.76
0.3
0.68
0.03
0.82

> <PUBCHEM_SHAPE_SELFOVERLAP>
882.822

> <PUBCHEM_SHAPE_VOLUME>
230.1

> <PUBCHEM_COORDINATE_TYPE>
2
5
10

$$$$
