26743522
  -OEChem-12032416353D

 48 51  0     1  0  0  0  0  0999 V2000
    6.2147   -0.5731    1.2549 O   0  0  0  0  0  0  0  0  0  0  0  0
    1.5893   -1.4419   -1.9606 O   0  0  0  0  0  0  0  0  0  0  0  0
   -3.8548    1.8098    1.6132 O   0  0  0  0  0  0  0  0  0  0  0  0
    3.0625    0.9069    0.4523 N   0  0  1  0  0  0  0  0  0  0  0  0
    0.8556   -1.0777    0.1240 N   0  0  0  0  0  0  0  0  0  0  0  0
    0.3328   -2.0550   -1.8774 N   0  0  0  0  0  0  0  0  0  0  0  0
   -3.0936    2.2204   -0.5801 N   0  0  0  0  0  0  0  0  0  0  0  0
   -2.0880   -2.9452   -0.8961 N   0  0  0  0  0  0  0  0  0  0  0  0
   -2.8085   -2.3769    1.7541 N   0  0  0  0  0  0  0  0  0  0  0  0
    3.1345   -0.1576   -0.5692 C   0  0  1  0  0  0  0  0  0  0  0  0
    4.2743   -1.0795   -0.0975 C   0  0  0  0  0  0  0  0  0  0  0  0
    4.8105   -0.4267    1.1705 C   0  0  2  0  0  0  0  0  0  0  0  0
    4.4039    1.0269    1.0203 C   0  0  0  0  0  0  0  0  0  0  0  0
    2.5740    2.1751   -0.0732 C   0  0  0  0  0  0  0  0  0  0  0  0
    1.8208   -0.8910   -0.7403 C   0  0  0  0  0  0  0  0  0  0  0  0
    1.0744    2.1860   -0.2076 C   0  0  0  0  0  0  0  0  0  0  0  0
    0.4873    2.4125   -1.4525 C   0  0  0  0  0  0  0  0  0  0  0  0
    0.2722    1.9708    0.9130 C   0  0  0  0  0  0  0  0  0  0  0  0
   -0.0351   -1.7966   -0.6189 C   0  0  0  0  0  0  0  0  0  0  0  0
   -0.9019    2.4240   -1.5768 C   0  0  0  0  0  0  0  0  0  0  0  0
   -1.1171    1.9823    0.7888 C   0  0  0  0  0  0  0  0  0  0  0  0
   -1.7041    2.2090   -0.4560 C   0  0  0  0  0  0  0  0  0  0  0  0
   -1.2842   -2.2432   -0.0730 C   0  0  0  0  0  0  0  0  0  0  0  0
   -1.6381   -1.9640    1.2287 C   0  0  0  0  0  0  0  0  0  0  0  0
   -4.0535    2.0260    0.4222 C   0  0  0  0  0  0  0  0  0  0  0  0
   -3.2585   -3.3580   -0.3708 C   0  0  0  0  0  0  0  0  0  0  0  0
   -3.6124   -3.0789    0.9309 C   0  0  0  0  0  0  0  0  0  0  0  0
   -5.4570    2.1156   -0.1228 C   0  0  0  0  0  0  0  0  0  0  0  0
    3.4286    0.2587   -1.5430 H   0  0  0  0  0  0  0  0  0  0  0  0
    3.9455   -2.1037    0.1129 H   0  0  0  0  0  0  0  0  0  0  0  0
    5.0552   -1.1410   -0.8658 H   0  0  0  0  0  0  0  0  0  0  0  0
    4.3481   -0.8702    2.0608 H   0  0  0  0  0  0  0  0  0  0  0  0
    4.4005    1.5404    1.9875 H   0  0  0  0  0  0  0  0  0  0  0  0
    5.0966    1.5599    0.3554 H   0  0  0  0  0  0  0  0  0  0  0  0
    3.0655    2.4400   -1.0186 H   0  0  0  0  0  0  0  0  0  0  0  0
    2.8216    2.9878    0.6242 H   0  0  0  0  0  0  0  0  0  0  0  0
    6.4086   -1.5259    1.2718 H   0  0  0  0  0  0  0  0  0  0  0  0
    1.1000    2.5797   -2.3342 H   0  0  0  0  0  0  0  0  0  0  0  0
    0.7160    1.7974    1.8899 H   0  0  0  0  0  0  0  0  0  0  0  0
   -1.3458    2.6009   -2.5531 H   0  0  0  0  0  0  0  0  0  0  0  0
   -1.6712    1.8073    1.7002 H   0  0  0  0  0  0  0  0  0  0  0  0
   -3.4442    2.3917   -1.5204 H   0  0  0  0  0  0  0  0  0  0  0  0
   -1.0087   -1.4009    1.9085 H   0  0  0  0  0  0  0  0  0  0  0  0
   -3.9050   -3.9220   -1.0317 H   0  0  0  0  0  0  0  0  0  0  0  0
   -5.6019    1.3595   -0.8995 H   0  0  0  0  0  0  0  0  0  0  0  0
   -5.6271    3.1104   -0.5440 H   0  0  0  0  0  0  0  0  0  0  0  0
   -6.1783    1.9414    0.6804 H   0  0  0  0  0  0  0  0  0  0  0  0
   -4.5532   -3.4107    1.3522 H   0  0  0  0  0  0  0  0  0  0  0  0
  1 12  1  0  0  0  0
  1 37  1  0  0  0  0
  2  6  1  0  0  0  0
  2 15  1  0  0  0  0
  3 25  2  0  0  0  0
  4 10  1  0  0  0  0
  4 13  1  0  0  0  0
  4 14  1  0  0  0  0
  5 15  2  0  0  0  0
  5 19  1  0  0  0  0
  6 19  2  0  0  0  0
  7 22  1  0  0  0  0
  7 25  1  0  0  0  0
  7 42  1  0  0  0  0
  8 23  2  0  0  0  0
  8 26  1  0  0  0  0
  9 24  2  0  0  0  0
  9 27  1  0  0  0  0
 10 11  1  0  0  0  0
 10 15  1  0  0  0  0
 10 29  1  0  0  0  0
 11 12  1  0  0  0  0
 11 30  1  0  0  0  0
 11 31  1  0  0  0  0
 12 13  1  0  0  0  0
 12 32  1  0  0  0  0
 13 33  1  0  0  0  0
 13 34  1  0  0  0  0
 14 16  1  0  0  0  0
 14 35  1  0  0  0  0
 14 36  1  0  0  0  0
 16 17  2  0  0  0  0
 16 18  1  0  0  0  0
 17 20  1  0  0  0  0
 17 38  1  0  0  0  0
 18 21  2  0  0  0  0
 18 39  1  0  0  0  0
 19 23  1  0  0  0  0
 20 22  2  0  0  0  0
 20 40  1  0  0  0  0
 21 22  1  0  0  0  0
 21 41  1  0  0  0  0
 23 24  1  0  0  0  0
 24 43  1  0  0  0  0
 25 28  1  0  0  0  0
 26 27  2  0  0  0  0
 26 44  1  0  0  0  0
 27 48  1  0  0  0  0
 28 45  1  0  0  0  0
 28 46  1  0  0  0  0
 28 47  1  0  0  0  0
M  END
> <PUBCHEM_COMPOUND_CID>
26743522

> <PUBCHEM_CONFORMER_RMSD>
0.8

> <PUBCHEM_CONFORMER_DIVERSEORDER>
1
159
66
211
4
3
175
223
230
124
168
270
167
219
269
88
17
202
209
139
6
37
193
145
189
177
184
137
277
126
275
169
9
195
248
200
96
84
194
138
271
186
276
2
197
238
185
62
250
235
258
214
266
99
24
182
130
181
265
97
21
122
201
83
259
165
273
198
192
61
104
160
29
74
151
217
179
220
218
55
41
176
174
10
207
239
111
108
45
254
263
129
106
213
13
187
128
180
190
113
172
77
191
268
161
225
28
255
44
228
118
76
262
178
86
135
78
240
40
7
102
131
100
212
245
110
221
42
156
69
36
183
43
30
173
85
34
199
257
231
51
152
82
249
39
143
205
50
224
140
120
125
261
163
91
47
188
31
107
147
251
14
94
33
149
54
206
57
246
242
23
164
146
162
244
16
272
103
98
215
116
48
210
166
260
154
95
142
5
123
87
208
253
233
89
134
49
121
72
67
133
236
144
136
153
114
19
141
105
216
12
234
148
117
264
274
25
171
15
92
252
267
158
155
26
58
79
93
157
22
237
38
90
226
127
8
115
68
256
101
150
20
11
52
64
241
75
229
227
53
170
71
247
56
59
63
27
109
60
196
70
18
232
73
119
132
204
46
222
32
81
112
65
80
35
203
243

> <PUBCHEM_MMFF94_PARTIAL_CHARGES>
36
1 -0.68
10 0.45
12 0.28
13 0.27
14 0.41
15 0.3
16 -0.14
17 -0.15
18 -0.15
19 0.46
2 -0.02
20 -0.15
21 -0.15
22 0.12
23 0.36
24 0.16
25 0.57
26 0.16
27 0.16
28 0.06
3 -0.57
37 0.4
38 0.15
39 0.15
4 -0.81
40 0.15
41 0.15
42 0.37
43 0.15
44 0.15
48 0.15
5 -0.57
6 -0.41
7 -0.55
8 -0.62
9 -0.62

> <PUBCHEM_EFFECTIVE_ROTOR_COUNT>
7

> <PUBCHEM_PHARMACOPHORE_FEATURES>
12
1 1 acceptor
1 1 donor
1 3 acceptor
1 4 cation
1 7 donor
1 8 acceptor
1 9 acceptor
3 5 6 19 cation
5 2 5 6 15 19 rings
5 4 10 11 12 13 rings
6 16 17 18 20 21 22 rings
6 8 9 23 24 26 27 rings

> <PUBCHEM_HEAVY_ATOM_COUNT>
28

> <PUBCHEM_ATOM_DEF_STEREO_COUNT>
2

> <PUBCHEM_ATOM_UDEF_STEREO_COUNT>
0

> <PUBCHEM_BOND_DEF_STEREO_COUNT>
0

> <PUBCHEM_BOND_UDEF_STEREO_COUNT>
0

> <PUBCHEM_ISOTOPIC_ATOM_COUNT>
0

> <PUBCHEM_COMPONENT_COUNT>
1

> <PUBCHEM_CACTVS_TAUTO_COUNT>
2

> <PUBCHEM_CONFORMER_ID>
019812E200000001

> <PUBCHEM_MMFF94_ENERGY>
65.3765

> <PUBCHEM_FEATURE_SELFOVERLAP>
60.901

> <PUBCHEM_SHAPE_FINGERPRINT>
104564 63 18123481728157462053
10688039 33 18043803401836740095
108634 29 18340495473726710695
1100329 8 18410289203150643104
12035758 1 18337401452401401857
12422481 6 18196681625236379931
12633257 1 18335701620104052640
13140716 1 18410852187859454744
13402501 40 18341613685758066265
13692114 37 18201422702342939335
13726171 33 18050321260023560468
13965767 371 17843993453194969290
14787075 74 17916574346090290033
14790565 3 16895394490619969612
14866123 147 18261944163941590194
17357779 13 18197484319567820815
20905425 154 18052840305454494039
21033648 29 17703207595450320650
21041028 32 18121775290342732974
21133410 90 17345754239430665569
21197605 99 18342178908181645543
21304304 249 18263079912091903828
22182313 1 17988376901007218782
24893992 56 17968649541477653663
3052486 1 18261972819910037276
4340502 62 18200876167364802129
5104073 3 18267280159213166064
5283268 108 18193006030161743115

> <PUBCHEM_SHAPE_MULTIPOLES>
528.73
9.37
4.55
1.54
4.76
1.28
0.17
-0.17
-4.05
-5.81
0.43
0.05
0.26
0.37

> <PUBCHEM_SHAPE_SELFOVERLAP>
1146.017

> <PUBCHEM_SHAPE_VOLUME>
289.4

> <PUBCHEM_COORDINATE_TYPE>
2
5
10

$$$$
