38027244
  -OEChem-12032416143D

 73 75  0     1  0  0  0  0  0999 V2000
    1.1134   -3.2121    1.8935 S   0  0  0  0  0  0  0  0  0  0  0  0
    1.6595    4.1955   -0.6449 O   0  0  0  0  0  0  0  0  0  0  0  0
    1.1967   -2.9831    3.3235 O   0  0  0  0  0  0  0  0  0  0  0  0
    1.2082   -4.5589    1.3638 O   0  0  0  0  0  0  0  0  0  0  0  0
   -4.5055   -2.1845   -1.9828 O   0  0  0  0  0  0  0  0  0  0  0  0
    0.0499    3.3527    0.8042 N   0  0  0  0  0  0  0  0  0  0  0  0
    2.2464   -2.2186    1.0985 N   0  0  0  0  0  0  0  0  0  0  0  0
   -4.0441   -0.9466   -0.0299 N   0  0  0  0  0  0  0  0  0  0  0  0
    1.8253   -0.4825   -1.3074 C   0  0  1  0  0  0  0  0  0  0  0  0
    3.0965   -1.3173   -1.0119 C   0  0  1  0  0  0  0  0  0  0  0  0
    2.2058    0.9547   -1.6947 C   0  0  0  0  0  0  0  0  0  0  0  0
    3.0087    1.6633   -0.5876 C   0  0  2  0  0  0  0  0  0  0  0  0
    0.9771   -1.1115   -2.4172 C   0  0  0  0  0  0  0  0  0  0  0  0
    4.1247    0.7884   -0.0535 C   0  0  0  0  0  0  0  0  0  0  0  0
    4.1542   -0.5394   -0.2646 C   0  0  0  0  0  0  0  0  0  0  0  0
    2.0903    2.1339    0.5458 C   0  0  0  0  0  0  0  0  0  0  0  0
    2.7527   -2.5912   -0.2317 C   0  0  0  0  0  0  0  0  0  0  0  0
   -0.3161   -0.3255   -2.6087 C   0  0  0  0  0  0  0  0  0  0  0  0
    1.7684   -1.1766   -3.7195 C   0  0  0  0  0  0  0  0  0  0  0  0
   -0.9336    4.3911    0.6196 C   0  0  0  0  0  0  0  0  0  0  0  0
    5.2316    1.4821    0.6907 C   0  0  0  0  0  0  0  0  0  0  0  0
    1.2734    3.3433    0.1505 C   0  0  0  0  0  0  0  0  0  0  0  0
   -1.8185    4.5523    1.8491 C   0  0  0  0  0  0  0  0  0  0  0  0
   -1.9351    4.0378   -0.4735 C   0  0  0  0  0  0  0  0  0  0  0  0
   -2.8715    3.4564    1.7102 C   0  0  0  0  0  0  0  0  0  0  0  0
   -2.9761    3.1565    0.2146 C   0  0  0  0  0  0  0  0  0  0  0  0
   -0.4181   -2.5393    1.3223 C   0  0  0  0  0  0  0  0  0  0  0  0
   -1.0091   -3.0379    0.1612 C   0  0  0  0  0  0  0  0  0  0  0  0
   -1.0358   -1.5098    2.0325 C   0  0  0  0  0  0  0  0  0  0  0  0
   -2.2176   -2.5070   -0.2895 C   0  0  0  0  0  0  0  0  0  0  0  0
   -2.2443   -0.9791    1.5818 C   0  0  0  0  0  0  0  0  0  0  0  0
   -2.8353   -1.4776    0.4209 C   0  0  0  0  0  0  0  0  0  0  0  0
   -4.7817   -1.3144   -1.1633 C   0  0  0  0  0  0  0  0  0  0  0  0
   -6.0402   -0.4949   -1.3016 C   0  0  0  0  0  0  0  0  0  0  0  0
    1.2037   -0.4333   -0.4057 H   0  0  0  0  0  0  0  0  0  0  0  0
    3.5912   -1.6277   -1.9356 H   0  0  0  0  0  0  0  0  0  0  0  0
    1.3286    1.5615   -1.9370 H   0  0  0  0  0  0  0  0  0  0  0  0
    2.8416    0.9566   -2.5880 H   0  0  0  0  0  0  0  0  0  0  0  0
    3.4799    2.5380   -1.0568 H   0  0  0  0  0  0  0  0  0  0  0  0
    0.6979   -2.1317   -2.1358 H   0  0  0  0  0  0  0  0  0  0  0  0
    5.0043   -1.1111    0.1028 H   0  0  0  0  0  0  0  0  0  0  0  0
    2.6731    2.4520    1.4187 H   0  0  0  0  0  0  0  0  0  0  0  0
    1.4413    1.3215    0.8901 H   0  0  0  0  0  0  0  0  0  0  0  0
    3.6496   -3.2070   -0.0941 H   0  0  0  0  0  0  0  0  0  0  0  0
    2.0246   -3.1968   -0.7768 H   0  0  0  0  0  0  0  0  0  0  0  0
   -0.1647    0.6119   -3.1532 H   0  0  0  0  0  0  0  0  0  0  0  0
   -0.7970   -0.0962   -1.6527 H   0  0  0  0  0  0  0  0  0  0  0  0
   -1.0259   -0.9163   -3.1992 H   0  0  0  0  0  0  0  0  0  0  0  0
    2.0576   -0.1978   -4.1100 H   0  0  0  0  0  0  0  0  0  0  0  0
    1.1334   -1.6255   -4.4946 H   0  0  0  0  0  0  0  0  0  0  0  0
    2.6512   -1.8161   -3.6682 H   0  0  0  0  0  0  0  0  0  0  0  0
   -0.4115    5.3247    0.3839 H   0  0  0  0  0  0  0  0  0  0  0  0
    5.6614    2.2796    0.0759 H   0  0  0  0  0  0  0  0  0  0  0  0
    6.0447    0.7958    0.9509 H   0  0  0  0  0  0  0  0  0  0  0  0
    4.8634    1.9204    1.6226 H   0  0  0  0  0  0  0  0  0  0  0  0
   -2.3124    5.5315    1.8234 H   0  0  0  0  0  0  0  0  0  0  0  0
   -1.2703    4.4757    2.7935 H   0  0  0  0  0  0  0  0  0  0  0  0
   -1.4825    3.5370   -1.3354 H   0  0  0  0  0  0  0  0  0  0  0  0
   -2.4232    4.9516   -0.8345 H   0  0  0  0  0  0  0  0  0  0  0  0
   -3.8323    3.7690    2.1316 H   0  0  0  0  0  0  0  0  0  0  0  0
   -2.5568    2.5546    2.2482 H   0  0  0  0  0  0  0  0  0  0  0  0
   -2.7620    2.0973    0.0315 H   0  0  0  0  0  0  0  0  0  0  0  0
   -3.9811    3.3574   -0.1705 H   0  0  0  0  0  0  0  0  0  0  0  0
   -0.1914    2.5760    1.4130 H   0  0  0  0  0  0  0  0  0  0  0  0
    2.8575   -1.6320    1.6794 H   0  0  0  0  0  0  0  0  0  0  0  0
   -0.5423   -3.8351   -0.4103 H   0  0  0  0  0  0  0  0  0  0  0  0
   -0.5884   -1.1019    2.9344 H   0  0  0  0  0  0  0  0  0  0  0  0
   -2.6119   -2.9416   -1.1974 H   0  0  0  0  0  0  0  0  0  0  0  0
   -2.7133   -0.1753    2.1436 H   0  0  0  0  0  0  0  0  0  0  0  0
   -4.4295   -0.1981    0.5422 H   0  0  0  0  0  0  0  0  0  0  0  0
   -5.7890    0.5690   -1.3391 H   0  0  0  0  0  0  0  0  0  0  0  0
   -6.6991   -0.6853   -0.4499 H   0  0  0  0  0  0  0  0  0  0  0  0
   -6.5610   -0.7680   -2.2235 H   0  0  0  0  0  0  0  0  0  0  0  0
  1  3  2  0  0  0  0
  1  4  2  0  0  0  0
  1  7  1  0  0  0  0
  1 27  1  0  0  0  0
  2 22  2  0  0  0  0
  5 33  2  0  0  0  0
  6 20  1  0  0  0  0
  6 22  1  0  0  0  0
  6 64  1  0  0  0  0
  7 17  1  0  0  0  0
  7 65  1  0  0  0  0
  8 32  1  0  0  0  0
  8 33  1  0  0  0  0
  8 70  1  0  0  0  0
  9 10  1  0  0  0  0
  9 11  1  0  0  0  0
  9 13  1  0  0  0  0
  9 35  1  0  0  0  0
 10 15  1  0  0  0  0
 10 17  1  0  0  0  0
 10 36  1  0  0  0  0
 11 12  1  0  0  0  0
 11 37  1  0  0  0  0
 11 38  1  0  0  0  0
 12 14  1  0  0  0  0
 12 16  1  0  0  0  0
 12 39  1  0  0  0  0
 13 18  1  0  0  0  0
 13 19  1  0  0  0  0
 13 40  1  0  0  0  0
 14 15  2  0  0  0  0
 14 21  1  0  0  0  0
 15 41  1  0  0  0  0
 16 22  1  0  0  0  0
 16 42  1  0  0  0  0
 16 43  1  0  0  0  0
 17 44  1  0  0  0  0
 17 45  1  0  0  0  0
 18 46  1  0  0  0  0
 18 47  1  0  0  0  0
 18 48  1  0  0  0  0
 19 49  1  0  0  0  0
 19 50  1  0  0  0  0
 19 51  1  0  0  0  0
 20 23  1  0  0  0  0
 20 24  1  0  0  0  0
 20 52  1  0  0  0  0
 21 53  1  0  0  0  0
 21 54  1  0  0  0  0
 21 55  1  0  0  0  0
 23 25  1  0  0  0  0
 23 56  1  0  0  0  0
 23 57  1  0  0  0  0
 24 26  1  0  0  0  0
 24 58  1  0  0  0  0
 24 59  1  0  0  0  0
 25 26  1  0  0  0  0
 25 60  1  0  0  0  0
 25 61  1  0  0  0  0
 26 62  1  0  0  0  0
 26 63  1  0  0  0  0
 27 28  2  0  0  0  0
 27 29  1  0  0  0  0
 28 30  1  0  0  0  0
 28 66  1  0  0  0  0
 29 31  2  0  0  0  0
 29 67  1  0  0  0  0
 30 32  2  0  0  0  0
 30 68  1  0  0  0  0
 31 32  1  0  0  0  0
 31 69  1  0  0  0  0
 33 34  1  0  0  0  0
 34 71  1  0  0  0  0
 34 72  1  0  0  0  0
 34 73  1  0  0  0  0
M  END
> <PUBCHEM_COMPOUND_CID>
38027244

> <PUBCHEM_CONFORMER_RMSD>
1.4

> <PUBCHEM_CONFORMER_DIVERSEORDER>
1
138
24
38
58
154
3
143
110
119
47
128
147
31
142
103
150
13
168
90
37
64
114
81
145
82
61
96
12
21
65
57
101
91
53
170
111
98
46
42
27
48
67
44
141
39
28
11
74
123
50
85
60
33
116
118
157
132
152
108
124
165
25
160
51
94
161
40
49
45
155
84
92
140
10
139
78
95
22
93
121
164
156
129
89
41
171
146
88
6
66
163
130
75
113
69
70
73
136
167
23
80
169
117
52
151
126
62
35
18
158
5
105
97
16
15
43
153
36
102
137
34
115
87
54
32
148
29
83
56
120
14
59
77
122
8
20
149
2
106
100
162
71
68
76
26
30
109
63
107
104
17
19
55
166
7
144
9
79
134
131
125
135
72
4
112
127
86
133
99
159

> <PUBCHEM_MMFF94_PARTIAL_CHARGES>
33
1 1.45
10 0.14
12 0.14
14 -0.28
15 -0.29
16 0.06
17 0.36
2 -0.57
20 0.3
21 0.14
22 0.57
27 -0.01
28 -0.15
29 -0.15
3 -0.65
30 -0.15
31 -0.15
32 0.12
33 0.57
34 0.06
4 -0.65
41 0.15
5 -0.57
6 -0.73
64 0.37
65 0.42
66 0.15
67 0.15
68 0.15
69 0.15
7 -0.91
70 0.37
8 -0.55

> <PUBCHEM_EFFECTIVE_ROTOR_COUNT>
12.8

> <PUBCHEM_PHARMACOPHORE_FEATURES>
11
1 2 acceptor
1 3 acceptor
1 4 acceptor
1 5 acceptor
1 6 donor
1 7 donor
1 8 donor
3 13 18 19 hydrophobe
5 20 23 24 25 26 rings
6 27 28 29 30 31 32 rings
6 9 10 11 12 14 15 rings

> <PUBCHEM_HEAVY_ATOM_COUNT>
34

> <PUBCHEM_ATOM_DEF_STEREO_COUNT>
3

> <PUBCHEM_ATOM_UDEF_STEREO_COUNT>
0

> <PUBCHEM_BOND_DEF_STEREO_COUNT>
0

> <PUBCHEM_BOND_UDEF_STEREO_COUNT>
0

> <PUBCHEM_ISOTOPIC_ATOM_COUNT>
0

> <PUBCHEM_COMPONENT_COUNT>
1

> <PUBCHEM_CACTVS_TAUTO_COUNT>
4

> <PUBCHEM_CONFORMER_ID>
02443FEC00000001

> <PUBCHEM_MMFF94_ENERGY>
61.6686

> <PUBCHEM_FEATURE_SELFOVERLAP>
55.84

> <PUBCHEM_SHAPE_FINGERPRINT>
10032420 55 18411422851563817400
10675989 125 18336261344822254529
11828532 37 17971752431583134543
12107698 1 18343582911146788438
12156800 1 16983444146375890904
12633257 1 18047195430053496642
12788726 201 18336833091005497552
13642711 20 18121753262056592391
14725015 67 18267573775377080721
15351339 4 18263064584007836801
20764821 26 18337126587031465969
21860390 5 18125146380108351710
35225 105 18189594125437968053
354706 35 17689433115213887285
57527306 92 17987222512371058010
57527452 28 16056047998458147629
5895379 119 17838044906531432351
6004065 56 17839165660829720213
6287921 2 16180447393018654513
9896288 288 15457888990752830122

> <PUBCHEM_SHAPE_MULTIPOLES>
665.13
8.25
6.91
2.76
4.69
6.02
0.88
-0.38
2.39
2.9
-3.59
-0.3
-2.14
-2.14

> <PUBCHEM_SHAPE_SELFOVERLAP>
1360.976

> <PUBCHEM_SHAPE_VOLUME>
385.7

> <PUBCHEM_COORDINATE_TYPE>
2
5
10

$$$$
