56774005
  -OEChem-12032416323D

 49 50  0     1  0  0  0  0  0999 V2000
    4.9278    0.7844    0.1571 O   0  0  0  0  0  0  0  0  0  0  0  0
   -4.0132    0.6870    1.1329 O   0  0  0  0  0  0  0  0  0  0  0  0
    4.6664   -2.8810    0.8279 O   0  0  0  0  0  0  0  0  0  0  0  0
   -2.2953   -0.6283    0.2986 N   0  0  0  0  0  0  0  0  0  0  0  0
    3.8225    1.6259    0.1937 N   0  0  0  0  0  0  0  0  0  0  0  0
   -4.4801   -1.1641   -0.1890 N   0  0  0  0  0  0  0  0  0  0  0  0
   -0.9044    1.5120    0.2492 C   0  0  0  0  0  0  0  0  0  0  0  0
    0.5963    1.1952    0.4174 C   0  0  1  0  0  0  0  0  0  0  0  0
   -1.1880    0.1391    0.8932 C   0  0  2  0  0  0  0  0  0  0  0  0
    0.2051   -0.2972    0.3939 C   0  0  0  0  0  0  0  0  0  0  0  0
    1.5236    1.6259   -0.6948 C   0  0  0  0  0  0  0  0  0  0  0  0
   -1.3578    2.7240    1.0328 C   0  0  0  0  0  0  0  0  0  0  0  0
   -1.4035    1.6029   -1.1812 C   0  0  0  0  0  0  0  0  0  0  0  0
    2.8843    0.9953   -0.5184 C   0  0  0  0  0  0  0  0  0  0  0  0
   -3.6340   -0.2803    0.4738 C   0  0  0  0  0  0  0  0  0  0  0  0
    3.3357   -0.2361   -1.0239 C   0  0  0  0  0  0  0  0  0  0  0  0
    4.6255   -0.3210   -0.5708 C   0  0  0  0  0  0  0  0  0  0  0  0
   -5.9175   -1.0299   -0.1688 C   0  0  0  0  0  0  0  0  0  0  0  0
    5.6885   -1.3232   -0.7125 C   0  0  0  0  0  0  0  0  0  0  0  0
   -6.5783   -2.4001   -0.2457 C   0  0  0  0  0  0  0  0  0  0  0  0
   -6.3862   -0.1264   -1.3025 C   0  0  0  0  0  0  0  0  0  0  0  0
    5.8825   -2.2041    0.5371 C   0  0  0  0  0  0  0  0  0  0  0  0
    0.9818    1.4990    1.4033 H   0  0  0  0  0  0  0  0  0  0  0  0
   -1.2569    0.1565    1.9889 H   0  0  0  0  0  0  0  0  0  0  0  0
    0.2140   -0.7704   -0.5955 H   0  0  0  0  0  0  0  0  0  0  0  0
    0.7644   -0.9366    1.0839 H   0  0  0  0  0  0  0  0  0  0  0  0
    1.6242    2.7182   -0.7010 H   0  0  0  0  0  0  0  0  0  0  0  0
    1.1517    1.3381   -1.6847 H   0  0  0  0  0  0  0  0  0  0  0  0
   -2.4465    2.8362    1.0097 H   0  0  0  0  0  0  0  0  0  0  0  0
   -0.9216    3.6426    0.6246 H   0  0  0  0  0  0  0  0  0  0  0  0
   -1.0597    2.6604    2.0853 H   0  0  0  0  0  0  0  0  0  0  0  0
   -2.4946    1.6971   -1.2221 H   0  0  0  0  0  0  0  0  0  0  0  0
   -1.1296    0.7377   -1.7948 H   0  0  0  0  0  0  0  0  0  0  0  0
   -1.0006    2.4925   -1.6801 H   0  0  0  0  0  0  0  0  0  0  0  0
   -2.0997   -1.4543   -0.2607 H   0  0  0  0  0  0  0  0  0  0  0  0
    2.8039   -0.9566   -1.6277 H   0  0  0  0  0  0  0  0  0  0  0  0
   -4.0665   -1.8869   -0.7702 H   0  0  0  0  0  0  0  0  0  0  0  0
   -6.2032   -0.5630    0.7816 H   0  0  0  0  0  0  0  0  0  0  0  0
    6.6372   -0.8285   -0.9509 H   0  0  0  0  0  0  0  0  0  0  0  0
    5.4456   -1.9738   -1.5621 H   0  0  0  0  0  0  0  0  0  0  0  0
   -7.6685   -2.3128   -0.1953 H   0  0  0  0  0  0  0  0  0  0  0  0
   -6.2505   -3.0361    0.5839 H   0  0  0  0  0  0  0  0  0  0  0  0
   -6.3199   -2.9154   -1.1777 H   0  0  0  0  0  0  0  0  0  0  0  0
   -7.4740   -0.0036   -1.2813 H   0  0  0  0  0  0  0  0  0  0  0  0
   -5.9327    0.8678   -1.2244 H   0  0  0  0  0  0  0  0  0  0  0  0
   -6.1076   -0.5384   -2.2790 H   0  0  0  0  0  0  0  0  0  0  0  0
    6.1570   -1.5945    1.4044 H   0  0  0  0  0  0  0  0  0  0  0  0
    6.6660   -2.9468    0.3578 H   0  0  0  0  0  0  0  0  0  0  0  0
    4.8258   -3.4265    1.6169 H   0  0  0  0  0  0  0  0  0  0  0  0
  1  5  1  0  0  0  0
  1 17  1  0  0  0  0
  2 15  2  0  0  0  0
  3 22  1  0  0  0  0
  3 49  1  0  0  0  0
  4  9  1  0  0  0  0
  4 15  1  0  0  0  0
  4 35  1  0  0  0  0
  5 14  2  0  0  0  0
  6 15  1  0  0  0  0
  6 18  1  0  0  0  0
  6 37  1  0  0  0  0
  7  8  1  0  0  0  0
  7  9  1  0  0  0  0
  7 12  1  0  0  0  0
  7 13  1  0  0  0  0
  8 10  1  0  0  0  0
  8 11  1  0  0  0  0
  8 23  1  0  0  0  0
  9 10  1  0  0  0  0
  9 24  1  0  0  0  0
 10 25  1  0  0  0  0
 10 26  1  0  0  0  0
 11 14  1  0  0  0  0
 11 27  1  0  0  0  0
 11 28  1  0  0  0  0
 12 29  1  0  0  0  0
 12 30  1  0  0  0  0
 12 31  1  0  0  0  0
 13 32  1  0  0  0  0
 13 33  1  0  0  0  0
 13 34  1  0  0  0  0
 14 16  1  0  0  0  0
 16 17  2  0  0  0  0
 16 36  1  0  0  0  0
 17 19  1  0  0  0  0
 18 20  1  0  0  0  0
 18 21  1  0  0  0  0
 18 38  1  0  0  0  0
 19 22  1  0  0  0  0
 19 39  1  0  0  0  0
 19 40  1  0  0  0  0
 20 41  1  0  0  0  0
 20 42  1  0  0  0  0
 20 43  1  0  0  0  0
 21 44  1  0  0  0  0
 21 45  1  0  0  0  0
 21 46  1  0  0  0  0
 22 47  1  0  0  0  0
 22 48  1  0  0  0  0
M  END
> <PUBCHEM_COMPOUND_CID>
56774005

> <PUBCHEM_CONFORMER_RMSD>
1

> <PUBCHEM_CONFORMER_DIVERSEORDER>
1
71
94
168
30
106
142
83
60
103
163
139
116
9
15
65
173
137
87
169
11
122
95
73
135
155
143
35
29
125
133
147
72
101
45
111
10
127
117
104
145
93
4
160
14
158
152
77
89
78
100
171
38
115
81
96
113
85
174
27
159
17
26
164
53
64
41
82
16
166
167
12
146
90
107
172
97
121
34
58
47
3
126
2
31
151
23
149
130
57
22
119
134
153
28
37
44
39
56
128
21
98
59
140
110
162
50
19
154
92
75
74
52
156
20
36
5
114
32
120
24
51
144
141
112
67
161
48
18
40
123
150
109
68
157
13
46
91
79
62
69
66
25
54
102
55
132
61
80
70
43
131
88
6
129
105
33
170
63
84
118
86
108
8
124
165
49
138
76
99
148
7
136
42

> <PUBCHEM_MMFF94_PARTIAL_CHARGES>
19
1 -0.02
11 0.18
14 0.11
15 0.69
16 -0.15
17 -0.04
18 0.3
19 0.18
2 -0.57
22 0.28
3 -0.68
35 0.37
36 0.15
37 0.37
4 -0.65
49 0.4
5 -0.41
6 -0.73
9 0.22

> <PUBCHEM_EFFECTIVE_ROTOR_COUNT>
8.8

> <PUBCHEM_PHARMACOPHORE_FEATURES>
10
1 2 acceptor
1 3 acceptor
1 3 donor
1 4 donor
1 5 acceptor
1 6 donor
3 18 20 21 hydrophobe
3 7 12 13 hydrophobe
4 7 8 9 10 rings
5 1 5 14 16 17 rings

> <PUBCHEM_HEAVY_ATOM_COUNT>
22

> <PUBCHEM_ATOM_DEF_STEREO_COUNT>
2

> <PUBCHEM_ATOM_UDEF_STEREO_COUNT>
0

> <PUBCHEM_BOND_DEF_STEREO_COUNT>
0

> <PUBCHEM_BOND_UDEF_STEREO_COUNT>
0

> <PUBCHEM_ISOTOPIC_ATOM_COUNT>
0

> <PUBCHEM_COMPONENT_COUNT>
1

> <PUBCHEM_CACTVS_TAUTO_COUNT>
3

> <PUBCHEM_CONFORMER_ID>
03624D7500000001

> <PUBCHEM_MMFF94_ENERGY>
30.2523

> <PUBCHEM_FEATURE_SELFOVERLAP>
50.796

> <PUBCHEM_SHAPE_FINGERPRINT>
10 15 11600004362550813591
10447042 23 18342455963093663868
106641 1 11599999973357805919
10693767 8 18335411396411355155
10753850 27 18411701002119283355
12236239 1 18272093824865760161
12555020 224 18187368744247669419
12596602 18 11959735971261719719
12670543 26 17894909620679073597
12760667 363 18410297990732553411
12839892 36 17775288226954313438
12954195 1 18115018603092380045
13533116 47 18411421730719225968
13685833 64 18342744069974808143
13862211 1 18413673521573815259
14251740 57 17845098381240748822
14251752 14 18261949666274126845
14251764 30 18334852866279500839
14347332 77 18262514793232648120
14931854 50 17822583694697760834
15183329 4 17167856448573526671
15188451 53 18343297033881184154
16760501 71 10807923890555730570
17492 89 18128261086766954582
17857418 61 18337112272295429778
18785283 64 13829552298093304387
19784866 140 18261108578190731427
200 152 18341897393669546805
20028762 73 18201721730498503214
20621476 66 8286206054595514175
20621476 91 15554439717636625039
21315764 119 17022621948934036375
21521239 73 18334852866158376147
21585483 132 18126829707285603151
21637258 2 17988920089699754391
21641784 216 15285625578554477991
22079108 93 13326852236247333476
2215653 11 17749111092943628794
23402539 116 18273219690423855569
23522609 53 18050607047184469692
23559900 14 18114190795390468848
23622692 118 18338235964731351016
2838139 119 11025797643017015662
2871803 45 18040716965755881000
2916195 48 10663827369013858999
293599 30 10665223774218706725
29717793 49 17458345238957416668
3004659 81 18187362138455917226
3472631 163 8574423236438868498
4340502 62 13973974202626256885
465052 167 18131357452669231487
5104073 3 13326036342595285103
559249 180 18342741789315304587
5718773 13 18337952290837542422
59755656 215 17530678792801803267
59755656 520 18118401744568458021
76465 3 18410013204684099948
8988823 20 17845934138525560696

> <PUBCHEM_SHAPE_MULTIPOLES>
420.2
16.44
2.61
1.09
6.85
0.48
-0.1
14.1
-2.62
-0.95
0.5
0.31
-0.16
-0.96

> <PUBCHEM_SHAPE_SELFOVERLAP>
854.068

> <PUBCHEM_SHAPE_VOLUME>
247.1

> <PUBCHEM_COORDINATE_TYPE>
2
5
10

$$$$
