75536171
  -OEChem-12032416303D

 63 65  0     1  0  0  0  0  0999 V2000
   -3.7538    0.3145   -1.8141 O   0  0  0  0  0  0  0  0  0  0  0  0
   -4.5315    4.9327    0.1032 O   0  0  0  0  0  0  0  0  0  0  0  0
   -4.2272    3.6258    1.9356 O   0  0  0  0  0  0  0  0  0  0  0  0
   -3.3973   -1.0573    0.0302 N   0  0  0  0  0  0  0  0  0  0  0  0
    3.1731   -0.2004    1.6430 N   0  0  0  0  0  0  0  0  0  0  0  0
    1.9917    0.8407    0.0746 N   0  0  0  0  0  0  0  0  0  0  0  0
   -0.6859   -1.9303   -0.9339 C   0  0  1  0  0  0  0  0  0  0  0  0
   -1.7982   -2.8534   -0.3766 C   0  0  1  0  0  0  0  0  0  0  0  0
    0.6647   -2.2647   -0.2826 C   0  0  0  0  0  0  0  0  0  0  0  0
    0.6262   -2.1123    1.2498 C   0  0  2  0  0  0  0  0  0  0  0  0
   -0.5678   -2.0379   -2.4574 C   0  0  0  0  0  0  0  0  0  0  0  0
   -0.5973   -2.7741    1.8509 C   0  0  0  0  0  0  0  0  0  0  0  0
   -1.6656   -3.1102    1.1062 C   0  0  0  0  0  0  0  0  0  0  0  0
   -3.1902   -2.2839   -0.6737 C   0  0  0  0  0  0  0  0  0  0  0  0
    0.7102   -0.6381    1.6605 C   0  0  0  0  0  0  0  0  0  0  0  0
    0.0484   -0.7674   -3.0344 C   0  0  0  0  0  0  0  0  0  0  0  0
    0.2569   -3.2620   -2.8419 C   0  0  0  0  0  0  0  0  0  0  0  0
   -0.5464   -3.0827    3.3214 C   0  0  0  0  0  0  0  0  0  0  0  0
    1.9383    0.0189    1.0987 C   0  0  0  0  0  0  0  0  0  0  0  0
   -3.6659    0.1593   -0.5990 C   0  0  0  0  0  0  0  0  0  0  0  0
    4.0839    0.5280    0.9219 C   0  0  0  0  0  0  0  0  0  0  0  0
    3.3220    1.1691   -0.0510 C   0  0  0  0  0  0  0  0  0  0  0  0
   -3.8388    1.2916    0.3973 C   0  0  0  0  0  0  0  0  0  0  0  0
    3.9609    2.0125   -0.9755 C   0  0  0  0  0  0  0  0  0  0  0  0
    5.4667    0.6770    1.0338 C   0  0  0  0  0  0  0  0  0  0  0  0
   -4.1326    2.6257   -0.2812 C   0  0  0  0  0  0  0  0  0  0  0  0
    5.3484    2.1770   -0.8822 C   0  0  0  0  0  0  0  0  0  0  0  0
    6.0861    1.5201    0.1054 C   0  0  0  0  0  0  0  0  0  0  0  0
    3.2164    2.7368   -2.0493 C   0  0  0  0  0  0  0  0  0  0  0  0
   -4.2954    3.7452    0.7202 C   0  0  0  0  0  0  0  0  0  0  0  0
   -0.9289   -0.8910   -0.6816 H   0  0  0  0  0  0  0  0  0  0  0  0
   -1.7379   -3.8351   -0.8630 H   0  0  0  0  0  0  0  0  0  0  0  0
    1.4831   -1.6905   -0.7247 H   0  0  0  0  0  0  0  0  0  0  0  0
    0.9153   -3.3198   -0.4590 H   0  0  0  0  0  0  0  0  0  0  0  0
    1.5141   -2.6334    1.6359 H   0  0  0  0  0  0  0  0  0  0  0  0
   -1.5590   -2.1411   -2.9109 H   0  0  0  0  0  0  0  0  0  0  0  0
   -2.4969   -3.6262    1.5828 H   0  0  0  0  0  0  0  0  0  0  0  0
   -3.9645   -2.9789   -0.3268 H   0  0  0  0  0  0  0  0  0  0  0  0
   -3.3549   -2.1432   -1.7453 H   0  0  0  0  0  0  0  0  0  0  0  0
    0.7372   -0.5421    2.7531 H   0  0  0  0  0  0  0  0  0  0  0  0
   -0.1749   -0.0821    1.3276 H   0  0  0  0  0  0  0  0  0  0  0  0
    0.0989   -0.8291   -4.1271 H   0  0  0  0  0  0  0  0  0  0  0  0
    1.0650   -0.5938   -2.6682 H   0  0  0  0  0  0  0  0  0  0  0  0
   -0.5566    0.1105   -2.7830 H   0  0  0  0  0  0  0  0  0  0  0  0
   -0.1001   -4.1793   -2.3645 H   0  0  0  0  0  0  0  0  0  0  0  0
    0.1753   -3.4249   -3.9238 H   0  0  0  0  0  0  0  0  0  0  0  0
    1.3265   -3.1421   -2.6400 H   0  0  0  0  0  0  0  0  0  0  0  0
    0.3325   -3.6938    3.5512 H   0  0  0  0  0  0  0  0  0  0  0  0
   -1.4292   -3.6376    3.6568 H   0  0  0  0  0  0  0  0  0  0  0  0
   -0.4946   -2.1618    3.9095 H   0  0  0  0  0  0  0  0  0  0  0  0
   -3.4027   -1.0845    1.0460 H   0  0  0  0  0  0  0  0  0  0  0  0
    3.3804   -0.7942    2.4352 H   0  0  0  0  0  0  0  0  0  0  0  0
   -4.6558    1.0279    1.0801 H   0  0  0  0  0  0  0  0  0  0  0  0
   -2.9216    1.3659    0.9945 H   0  0  0  0  0  0  0  0  0  0  0  0
    6.0370    0.1661    1.8012 H   0  0  0  0  0  0  0  0  0  0  0  0
   -5.0565    2.5520   -0.8659 H   0  0  0  0  0  0  0  0  0  0  0  0
   -3.3107    2.8879   -0.9572 H   0  0  0  0  0  0  0  0  0  0  0  0
    5.8691    2.8241   -1.5847 H   0  0  0  0  0  0  0  0  0  0  0  0
    7.1624    1.6663    0.1543 H   0  0  0  0  0  0  0  0  0  0  0  0
    3.5928    2.4441   -3.0349 H   0  0  0  0  0  0  0  0  0  0  0  0
    2.1454    2.5123   -2.0205 H   0  0  0  0  0  0  0  0  0  0  0  0
    3.3361    3.8185   -1.9296 H   0  0  0  0  0  0  0  0  0  0  0  0
   -4.6378    5.6645    0.7478 H   0  0  0  0  0  0  0  0  0  0  0  0
  1 20  2  0  0  0  0
  2 30  1  0  0  0  0
  2 63  1  0  0  0  0
  3 30  2  0  0  0  0
  4 14  1  0  0  0  0
  4 20  1  0  0  0  0
  4 51  1  0  0  0  0
  5 19  1  0  0  0  0
  5 21  1  0  0  0  0
  5 52  1  0  0  0  0
  6 19  2  0  0  0  0
  6 22  1  0  0  0  0
  7  8  1  0  0  0  0
  7  9  1  0  0  0  0
  7 11  1  0  0  0  0
  7 31  1  0  0  0  0
  8 13  1  0  0  0  0
  8 14  1  0  0  0  0
  8 32  1  0  0  0  0
  9 10  1  0  0  0  0
  9 33  1  0  0  0  0
  9 34  1  0  0  0  0
 10 12  1  0  0  0  0
 10 15  1  0  0  0  0
 10 35  1  0  0  0  0
 11 16  1  0  0  0  0
 11 17  1  0  0  0  0
 11 36  1  0  0  0  0
 12 13  2  0  0  0  0
 12 18  1  0  0  0  0
 13 37  1  0  0  0  0
 14 38  1  0  0  0  0
 14 39  1  0  0  0  0
 15 19  1  0  0  0  0
 15 40  1  0  0  0  0
 15 41  1  0  0  0  0
 16 42  1  0  0  0  0
 16 43  1  0  0  0  0
 16 44  1  0  0  0  0
 17 45  1  0  0  0  0
 17 46  1  0  0  0  0
 17 47  1  0  0  0  0
 18 48  1  0  0  0  0
 18 49  1  0  0  0  0
 18 50  1  0  0  0  0
 20 23  1  0  0  0  0
 21 22  1  0  0  0  0
 21 25  2  0  0  0  0
 22 24  2  0  0  0  0
 23 26  1  0  0  0  0
 23 53  1  0  0  0  0
 23 54  1  0  0  0  0
 24 27  1  0  0  0  0
 24 29  1  0  0  0  0
 25 28  1  0  0  0  0
 25 55  1  0  0  0  0
 26 30  1  0  0  0  0
 26 56  1  0  0  0  0
 26 57  1  0  0  0  0
 27 28  2  0  0  0  0
 27 58  1  0  0  0  0
 28 59  1  0  0  0  0
 29 60  1  0  0  0  0
 29 61  1  0  0  0  0
 29 62  1  0  0  0  0
M  END
> <PUBCHEM_COMPOUND_CID>
75536171

> <PUBCHEM_CONFORMER_RMSD>
1

> <PUBCHEM_CONFORMER_DIVERSEORDER>
1
96
139
78
138
55
136
129
23
87
117
89
109
53
98
113
77
92
83
101
88
76
29
103
52
50
123
3
90
99
72
112
85
132
131
122
57
46
51
104
62
141
75
86
118
95
80
100
111
17
22
91
79
47
20
48
108
37
137
69
120
84
32
74
70
94
105
5
30
116
13
102
133
45
124
58
8
43
114
41
11
64
106
128
59
61
93
38
127
67
82
71
35
110
25
2
107
31
44
140
81
16
68
135
97
134
27
36
119
56
34
6
121
9
63
40
115
126
15
4
7
125
49
18
12
42
28
19
73
24
39
54
10
66
33
65
130
14
60
21
26

> <PUBCHEM_MMFF94_PARTIAL_CHARGES>
32
1 -0.57
10 0.14
12 -0.28
13 -0.29
14 0.3
15 0.18
18 0.14
19 0.01
2 -0.65
20 0.57
21 -0.15
22 0.23
23 0.06
24 -0.14
25 -0.15
26 0.06
27 -0.15
28 -0.15
29 0.14
3 -0.57
30 0.66
37 0.15
4 -0.73
5 0.03
51 0.37
52 0.27
55 0.15
58 0.15
59 0.15
6 -0.57
63 0.5
8 0.14

> <PUBCHEM_EFFECTIVE_ROTOR_COUNT>
9.8

> <PUBCHEM_PHARMACOPHORE_FEATURES>
11
1 1 acceptor
1 2 acceptor
1 3 acceptor
1 4 donor
1 5 donor
3 11 16 17 hydrophobe
3 2 3 30 anion
3 5 6 19 cation
5 5 6 19 21 22 rings
6 21 22 24 25 27 28 rings
6 7 8 9 10 12 13 rings

> <PUBCHEM_HEAVY_ATOM_COUNT>
30

> <PUBCHEM_ATOM_DEF_STEREO_COUNT>
3

> <PUBCHEM_ATOM_UDEF_STEREO_COUNT>
0

> <PUBCHEM_BOND_DEF_STEREO_COUNT>
0

> <PUBCHEM_BOND_UDEF_STEREO_COUNT>
0

> <PUBCHEM_ISOTOPIC_ATOM_COUNT>
0

> <PUBCHEM_COMPONENT_COUNT>
1

> <PUBCHEM_CACTVS_TAUTO_COUNT>
6

> <PUBCHEM_CONFORMER_ID>
0480972B00000001

> <PUBCHEM_MMFF94_ENERGY>
50.267

> <PUBCHEM_FEATURE_SELFOVERLAP>
55.985

> <PUBCHEM_SHAPE_FINGERPRINT>
11552529 35 17173768741977813234
11578080 2 17770260225164393223
11763715 3 17253441604699045590
12104220 4 18116449054376434836
12107183 9 18189038816790425634
12156800 1 17391118950240411391
12788726 201 18264771154454647563
14251764 75 18268715996286508905
14279260 333 18334287700555146490
14713325 29 18199472232602411875
15163728 17 18201444640555982343
15439362 3 18125163732151020856
16067690 210 18193842771543387725
20600515 1 13335295295890438583
21033650 10 18265630934193543062
44802255 64 17773599510934036918
4616759 239 17174041416645629888
469060 322 14129612362898112155
50150288 127 17687504490103951013
5283173 99 18200870803151084200
550186 7 18340775939180352375
6201320 77 14565051686843431120

> <PUBCHEM_SHAPE_MULTIPOLES>
584.83
10.91
5.53
2.78
9.99
4.39
-0.74
14.02
0.84
-8.47
1.07
-0.3
-2.34
-2.15

> <PUBCHEM_SHAPE_SELFOVERLAP>
1226.238

> <PUBCHEM_SHAPE_VOLUME>
329.8

> <PUBCHEM_COORDINATE_TYPE>
2
5
10

$$$$
