26744515
  -OEChem-12032416283D

 37 39  0     1  0  0  0  0  0999 V2000
   -6.8387    0.6729    0.2666 F   0  0  0  0  0  0  0  0  0  0  0  0
   -4.9482    1.1834    1.2369 F   0  0  0  0  0  0  0  0  0  0  0  0
   -5.4982    2.1065   -0.6944 F   0  0  0  0  0  0  0  0  0  0  0  0
    5.8276    2.6799    0.9205 O   0  0  0  0  0  0  0  0  0  0  0  0
    2.3168   -2.0723    0.8061 O   0  0  0  0  0  0  0  0  0  0  0  0
   -4.9300   -0.1086   -0.6503 O   0  0  0  0  0  0  0  0  0  0  0  0
    4.4023    0.0617   -1.0506 N   0  0  1  0  0  0  0  0  0  0  0  0
    1.4460   -0.1771   -0.0104 N   0  0  0  0  0  0  0  0  0  0  0  0
    0.9319   -2.2733    0.7483 N   0  0  0  0  0  0  0  0  0  0  0  0
    3.9745   -0.3486    0.3022 C   0  0  1  0  0  0  0  0  0  0  0  0
    4.2258    0.8870    1.1865 C   0  0  0  0  0  0  0  0  0  0  0  0
    4.8375    1.9231    0.2517 C   0  0  2  0  0  0  0  0  0  0  0  0
    5.4283    1.0866   -0.8671 C   0  0  0  0  0  0  0  0  0  0  0  0
    2.5341   -0.8139    0.3419 C   0  0  0  0  0  0  0  0  0  0  0  0
    4.8767   -1.0496   -1.8648 C   0  0  0  0  0  0  0  0  0  0  0  0
    0.4888   -1.1123    0.2568 C   0  0  0  0  0  0  0  0  0  0  0  0
   -0.9026   -0.8542    0.0226 C   0  0  0  0  0  0  0  0  0  0  0  0
   -1.3073    0.3779   -0.4910 C   0  0  0  0  0  0  0  0  0  0  0  0
   -1.8513   -1.8357    0.3098 C   0  0  0  0  0  0  0  0  0  0  0  0
   -2.6605    0.6288   -0.7171 C   0  0  0  0  0  0  0  0  0  0  0  0
   -3.2046   -1.5849    0.0839 C   0  0  0  0  0  0  0  0  0  0  0  0
   -3.6093   -0.3526   -0.4295 C   0  0  0  0  0  0  0  0  0  0  0  0
   -5.5399    0.9754    0.0414 C   0  0  0  0  0  0  0  0  0  0  0  0
    4.6176   -1.1575    0.6770 H   0  0  0  0  0  0  0  0  0  0  0  0
    3.3166    1.2848    1.6515 H   0  0  0  0  0  0  0  0  0  0  0  0
    4.9200    0.6364    1.9984 H   0  0  0  0  0  0  0  0  0  0  0  0
    4.0662    2.6008   -0.1344 H   0  0  0  0  0  0  0  0  0  0  0  0
    5.5835    1.6839   -1.7717 H   0  0  0  0  0  0  0  0  0  0  0  0
    6.3977    0.6658   -0.5690 H   0  0  0  0  0  0  0  0  0  0  0  0
    4.0824   -1.7895   -2.0104 H   0  0  0  0  0  0  0  0  0  0  0  0
    5.7397   -1.5553   -1.4168 H   0  0  0  0  0  0  0  0  0  0  0  0
    5.1661   -0.6957   -2.8603 H   0  0  0  0  0  0  0  0  0  0  0  0
    5.3968    3.1290    1.6677 H   0  0  0  0  0  0  0  0  0  0  0  0
   -0.5921    1.1622   -0.7262 H   0  0  0  0  0  0  0  0  0  0  0  0
   -1.5739   -2.8072    0.7110 H   0  0  0  0  0  0  0  0  0  0  0  0
   -2.9616    1.5902   -1.1238 H   0  0  0  0  0  0  0  0  0  0  0  0
   -3.9395   -2.3528    0.3098 H   0  0  0  0  0  0  0  0  0  0  0  0
  1 23  1  0  0  0  0
  2 23  1  0  0  0  0
  3 23  1  0  0  0  0
  4 12  1  0  0  0  0
  4 33  1  0  0  0  0
  5  9  1  0  0  0  0
  5 14  1  0  0  0  0
  6 22  1  0  0  0  0
  6 23  1  0  0  0  0
  7 10  1  0  0  0  0
  7 13  1  0  0  0  0
  7 15  1  0  0  0  0
  8 14  2  0  0  0  0
  8 16  1  0  0  0  0
  9 16  2  0  0  0  0
 10 11  1  0  0  0  0
 10 14  1  0  0  0  0
 10 24  1  0  0  0  0
 11 12  1  0  0  0  0
 11 25  1  0  0  0  0
 11 26  1  0  0  0  0
 12 13  1  0  0  0  0
 12 27  1  0  0  0  0
 13 28  1  0  0  0  0
 13 29  1  0  0  0  0
 15 30  1  0  0  0  0
 15 31  1  0  0  0  0
 15 32  1  0  0  0  0
 16 17  1  0  0  0  0
 17 18  2  0  0  0  0
 17 19  1  0  0  0  0
 18 20  1  0  0  0  0
 18 34  1  0  0  0  0
 19 21  2  0  0  0  0
 19 35  1  0  0  0  0
 20 22  2  0  0  0  0
 20 36  1  0  0  0  0
 21 22  1  0  0  0  0
 21 37  1  0  0  0  0
M  END
> <PUBCHEM_COMPOUND_CID>
26744515

> <PUBCHEM_CONFORMER_RMSD>
0.8

> <PUBCHEM_CONFORMER_DIVERSEORDER>
1
3
18
10
2
5
9
12
16
13
17
7
6
19
8
11
4
15
14

> <PUBCHEM_MMFF94_PARTIAL_CHARGES>
27
1 -0.34
10 0.45
12 0.28
13 0.27
14 0.3
15 0.27
16 0.46
17 0.05
18 -0.15
19 -0.15
2 -0.34
20 -0.15
21 -0.15
22 0.08
23 1.3
3 -0.34
33 0.4
34 0.15
35 0.15
36 0.15
37 0.15
4 -0.68
5 -0.02
6 -0.36
7 -0.81
8 -0.57
9 -0.41

> <PUBCHEM_EFFECTIVE_ROTOR_COUNT>
5

> <PUBCHEM_PHARMACOPHORE_FEATURES>
8
1 4 acceptor
1 4 donor
1 6 acceptor
1 7 cation
3 8 9 16 cation
5 5 8 9 14 16 rings
5 7 10 11 12 13 rings
6 17 18 19 20 21 22 rings

> <PUBCHEM_HEAVY_ATOM_COUNT>
23

> <PUBCHEM_ATOM_DEF_STEREO_COUNT>
2

> <PUBCHEM_ATOM_UDEF_STEREO_COUNT>
0

> <PUBCHEM_BOND_DEF_STEREO_COUNT>
0

> <PUBCHEM_BOND_UDEF_STEREO_COUNT>
0

> <PUBCHEM_ISOTOPIC_ATOM_COUNT>
0

> <PUBCHEM_COMPONENT_COUNT>
1

> <PUBCHEM_CACTVS_TAUTO_COUNT>
1

> <PUBCHEM_CONFORMER_ID>
019816C300000001

> <PUBCHEM_MMFF94_ENERGY>
53.2871

> <PUBCHEM_FEATURE_SELFOVERLAP>
40.596

> <PUBCHEM_SHAPE_FINGERPRINT>
10 15 17530966907882290945
10378564 45 18059580148772020870
10498660 4 18408602582873914160
10670039 82 17822582586410874972
11796584 16 13542454375978831388
11858739 19 9727633899571004281
12390115 104 18410583906895553587
12403259 415 18339090396935575082
12555020 224 11527943457230503765
12596602 18 12829485952341725324
12633257 1 15719389581548760022
12730499 353 18410019814301730194
12788726 201 17774160085491248001
13533116 47 10665233648417131286
13955234 65 18116145585083243442
1420 369 9511466627937203886
14251752 14 13542471921690433547
14347332 77 10447937161251458499
14366163 111 18202845461366804090
14528608 73 18341890805236986239
14790565 3 18408324397446649805
14848160 23 7853577893892880207
15183329 4 15123798366114157465
15188451 53 11241966001535634183
17349148 13 9367348166911821091
17857418 61 9007053565472056961
18222031 100 11024110958184109738
19377110 9 16732983158595514955
193927 3 11023827309600422142
200 152 9151167658632043043
20281389 69 18261390031703297817
20397935 70 11386368136571935560
21033648 29 18268985557028526624
21150785 3 16200146633920136341
21315763 87 11169920502015141300
21792934 111 17677598792507089725
22079108 93 16298110895119564979
221357 26 17988647372272552200
22224240 67 18113902646519643435
22289505 5 17988926699992383896
23198884 109 17203331092169876273
23559900 14 18265041449753683186
25122255 55 10159691426260156365
2838139 119 18410282597448302277
2916195 48 18268707380444196136
293599 30 18410012135052724383
29717793 49 17203335481457745502
3004659 81 12607406607091262546
3014063 24 7925628886983215345
312425 54 11314299534195108093
3472631 163 18341049709159638572
34797466 226 17988928898329636031
350125 39 18115301169069599234
3545911 37 18187085035539662126
3680242 22 18113612391981186480
4340502 62 16226046673910215435
465052 167 11097845273437517064
5104073 3 18113332016036153787
542803 24 18202281398895546831
543368 44 18342453768682081225
5718773 13 9871208128464967492
59682541 52 17131834213958837628
633830 44 18341044194617160062
8988823 20 12179852718711431278
960060 61 15698283322034870702

> <PUBCHEM_SHAPE_MULTIPOLES>
418.96
15.88
2.2
1.12
6.99
0.24
0.21
10.55
1.15
-1
-0.47
-1.21
-0.01
0.92

> <PUBCHEM_SHAPE_SELFOVERLAP>
903.424

> <PUBCHEM_SHAPE_VOLUME>
233.8

> <PUBCHEM_COORDINATE_TYPE>
2
5
10

$$$$
