71693227
  -OEChem-12032416233D

 35 36  0     1  0  0  0  0  0999 V2000
   -2.1142    1.4487    0.4440 O   0  0  0  0  0  0  0  0  0  0  0  0
   -2.3248   -2.7156    0.3826 O   0  0  0  0  0  0  0  0  0  0  0  0
   -5.6277    0.7770    0.1758 O   0  0  0  0  0  0  0  0  0  0  0  0
    4.9406   -0.6065    1.3066 O   0  0  0  0  0  0  0  0  0  0  0  0
   -3.8361   -0.4710   -0.5312 N   0  0  0  0  0  0  0  0  0  0  0  0
    3.9911    0.3999   -0.6024 N   0  0  0  0  0  0  0  0  0  0  0  0
   -2.3992   -0.6123   -0.7483 C   0  0  1  0  0  0  0  0  0  0  0  0
   -1.6174    0.1072    0.3619 C   0  0  1  0  0  0  0  0  0  0  0  0
   -0.1280    0.1845    0.1052 C   0  0  0  0  0  0  0  0  0  0  0  0
   -2.0373   -2.0920   -0.8552 C   0  0  0  0  0  0  0  0  0  0  0  0
   -3.4512    1.4785    0.8986 C   0  0  0  0  0  0  0  0  0  0  0  0
   -4.4124    0.5879    0.1350 C   0  0  0  0  0  0  0  0  0  0  0  0
    0.7685   -0.3243    1.0451 C   0  0  0  0  0  0  0  0  0  0  0  0
    0.3484    0.7647   -1.0704 C   0  0  0  0  0  0  0  0  0  0  0  0
    2.1414   -0.2526    0.8094 C   0  0  0  0  0  0  0  0  0  0  0  0
    1.7214    0.8363   -1.3061 C   0  0  0  0  0  0  0  0  0  0  0  0
    2.6178    0.3277   -0.3662 C   0  0  0  0  0  0  0  0  0  0  0  0
    5.0346   -0.0522    0.2163 C   0  0  0  0  0  0  0  0  0  0  0  0
    6.3847    0.2142   -0.4008 C   0  0  0  0  0  0  0  0  0  0  0  0
   -2.2232   -0.1329   -1.7185 H   0  0  0  0  0  0  0  0  0  0  0  0
   -1.7924   -0.3744    1.3339 H   0  0  0  0  0  0  0  0  0  0  0  0
   -4.4565   -1.0855   -1.0502 H   0  0  0  0  0  0  0  0  0  0  0  0
   -0.9778   -2.2343   -1.0884 H   0  0  0  0  0  0  0  0  0  0  0  0
   -2.6311   -2.5824   -1.6342 H   0  0  0  0  0  0  0  0  0  0  0  0
   -3.8049    2.5111    0.8144 H   0  0  0  0  0  0  0  0  0  0  0  0
   -3.4834    1.1959    1.9570 H   0  0  0  0  0  0  0  0  0  0  0  0
    0.4112   -0.7795    1.9649 H   0  0  0  0  0  0  0  0  0  0  0  0
   -0.3316    1.1780   -1.8099 H   0  0  0  0  0  0  0  0  0  0  0  0
    2.7730   -0.6674    1.5826 H   0  0  0  0  0  0  0  0  0  0  0  0
    2.0787    1.2937   -2.2253 H   0  0  0  0  0  0  0  0  0  0  0  0
   -2.0882   -3.6544    0.2928 H   0  0  0  0  0  0  0  0  0  0  0  0
    4.2581    0.8375   -1.4818 H   0  0  0  0  0  0  0  0  0  0  0  0
    7.1746   -0.1235    0.2757 H   0  0  0  0  0  0  0  0  0  0  0  0
    6.4713   -0.3269   -1.3471 H   0  0  0  0  0  0  0  0  0  0  0  0
    6.5061    1.2862   -0.5799 H   0  0  0  0  0  0  0  0  0  0  0  0
  1  8  1  0  0  0  0
  1 11  1  0  0  0  0
  2 10  1  0  0  0  0
  2 31  1  0  0  0  0
  3 12  2  0  0  0  0
  4 18  2  0  0  0  0
  5  7  1  0  0  0  0
  5 12  1  0  0  0  0
  5 22  1  0  0  0  0
  6 17  1  0  0  0  0
  6 18  1  0  0  0  0
  6 32  1  0  0  0  0
  7  8  1  0  0  0  0
  7 10  1  0  0  0  0
  7 20  1  0  0  0  0
  8  9  1  0  0  0  0
  8 21  1  0  0  0  0
  9 13  2  0  0  0  0
  9 14  1  0  0  0  0
 10 23  1  0  0  0  0
 10 24  1  0  0  0  0
 11 12  1  0  0  0  0
 11 25  1  0  0  0  0
 11 26  1  0  0  0  0
 13 15  1  0  0  0  0
 13 27  1  0  0  0  0
 14 16  2  0  0  0  0
 14 28  1  0  0  0  0
 15 17  2  0  0  0  0
 15 29  1  0  0  0  0
 16 17  1  0  0  0  0
 16 30  1  0  0  0  0
 18 19  1  0  0  0  0
 19 33  1  0  0  0  0
 19 34  1  0  0  0  0
 19 35  1  0  0  0  0
M  END
> <PUBCHEM_COMPOUND_CID>
71693227

> <PUBCHEM_CONFORMER_RMSD>
0.6

> <PUBCHEM_CONFORMER_DIVERSEORDER>
1
20
10
21
4
11
22
19
3
9
13
12
5
23
8
18
14
6
24
17
7
2
16
15

> <PUBCHEM_MMFF94_PARTIAL_CHARGES>
26
1 -0.56
10 0.28
11 0.34
12 0.57
13 -0.15
14 -0.15
15 -0.15
16 -0.15
17 0.12
18 0.57
19 0.06
2 -0.68
22 0.37
27 0.15
28 0.15
29 0.15
3 -0.57
30 0.15
31 0.4
32 0.37
4 -0.57
5 -0.73
6 -0.55
7 0.3
8 0.42
9 -0.14

> <PUBCHEM_EFFECTIVE_ROTOR_COUNT>
5

> <PUBCHEM_PHARMACOPHORE_FEATURES>
9
1 1 acceptor
1 2 acceptor
1 2 donor
1 3 acceptor
1 4 acceptor
1 5 donor
1 6 donor
6 1 5 7 8 11 12 rings
6 9 13 14 15 16 17 rings

> <PUBCHEM_HEAVY_ATOM_COUNT>
19

> <PUBCHEM_ATOM_DEF_STEREO_COUNT>
2

> <PUBCHEM_ATOM_UDEF_STEREO_COUNT>
0

> <PUBCHEM_BOND_DEF_STEREO_COUNT>
0

> <PUBCHEM_BOND_UDEF_STEREO_COUNT>
0

> <PUBCHEM_ISOTOPIC_ATOM_COUNT>
0

> <PUBCHEM_COMPONENT_COUNT>
1

> <PUBCHEM_CACTVS_TAUTO_COUNT>
9

> <PUBCHEM_CONFORMER_ID>
0445F3AB00000001

> <PUBCHEM_MMFF94_ENERGY>
53.2517

> <PUBCHEM_FEATURE_SELFOVERLAP>
45.675

> <PUBCHEM_SHAPE_FINGERPRINT>
10062212 137 18187926230849624650
11045977 3 17846775248062336344
11315181 36 17203332225777537608
11405975 8 18341610473027544560
12236239 1 18259984864274672673
124424 183 17418378016551121362
12500047 106 18130785659367688903
13533116 47 17560522777228252790
13583140 156 17346876771756151370
13760787 19 18343581841821237614
13760787 5 17167580510173631478
14386348 63 16558752325422634222
15375358 24 16988846081172735526
15788980 27 17418374709985479196
1813 80 17385732340097642406
19141452 34 18334012800387687622
19489759 90 17775284949952086920
200 152 17530962475402188437
20279233 1 16702308965796896044
20645476 183 18333730234963972351
20645477 56 18273216382829324945
20645477 70 15430305894601542312
20681677 155 18410009944276538259
21033648 29 15769482145951957162
23402539 116 18131063836247463725
23557571 272 17703800180361845488
23559900 14 18201996672918919032
23598288 3 18194411214976290975
23622692 88 18407760339460108349
300161 21 18408880746520412916
34797466 226 17703518782937119900
3545911 37 18131635564923912820
5104073 3 18338799038764220368
542803 24 18259703398056688616
573450 72 18411975875731195042
67856867 119 18267021846425954380

> <PUBCHEM_SHAPE_MULTIPOLES>
357.57
11.83
1.55
1.11
9.75
1
0.02
-1.46
-0.8
-2.06
-0.02
0.47
-0.01
-0.91

> <PUBCHEM_SHAPE_SELFOVERLAP>
748.843

> <PUBCHEM_SHAPE_VOLUME>
200.2

> <PUBCHEM_COORDINATE_TYPE>
2
5
10

$$$$
