100630278
  -OEChem-12032416223D

 74 78  0     1  0  0  0  0  0999 V2000
   -4.6194   -1.2640    1.9188 O   0  0  0  0  0  0  0  0  0  0  0  0
   -0.1702    3.8039    0.9443 O   0  0  0  0  0  0  0  0  0  0  0  0
   -9.2209   -0.6163    0.2257 O   0  0  0  0  0  0  0  0  0  0  0  0
    1.1807   -0.9521   -0.9819 O   0  0  0  0  0  0  0  0  0  0  0  0
    9.3049   -0.4004    0.9791 O   0  0  0  0  0  0  0  0  0  0  0  0
   -1.5271    2.3885   -0.2858 N   0  0  0  0  0  0  0  0  0  0  0  0
   -6.4445   -1.0077    0.5067 N   0  0  0  0  0  0  0  0  0  0  0  0
    1.4747    1.9317   -1.2271 N   0  0  0  0  0  0  0  0  0  0  0  0
    6.5423   -0.5504    0.4846 N   0  0  0  0  0  0  0  0  0  0  0  0
   -2.7656   -0.1706    0.3560 C   0  0  1  0  0  0  0  0  0  0  0  0
   -1.6729    0.0013   -0.7407 C   0  0  2  0  0  0  0  0  0  0  0  0
   -2.6244    0.9669    1.3949 C   0  0  0  0  0  0  0  0  0  0  0  0
   -1.7364    1.4107   -1.3594 C   0  0  0  0  0  0  0  0  0  0  0  0
   -2.5648    2.3533    0.7479 C   0  0  0  0  0  0  0  0  0  0  0  0
   -4.2021   -0.2378   -0.1773 C   0  0  0  0  0  0  0  0  0  0  0  0
   -1.6946   -1.0641   -1.8042 C   0  0  0  0  0  0  0  0  0  0  0  0
   -5.0993   -0.8845    0.8477 C   0  0  0  0  0  0  0  0  0  0  0  0
   -0.3677    3.1349   -0.0770 C   0  0  0  0  0  0  0  0  0  0  0  0
   -0.7258   -1.9296   -2.1490 C   0  0  0  0  0  0  0  0  0  0  0  0
    0.6885    3.1606   -1.1664 C   0  0  0  0  0  0  0  0  0  0  0  0
   -7.3849   -1.6191    1.4457 C   0  0  0  0  0  0  0  0  0  0  0  0
   -7.0239   -0.6848   -0.8016 C   0  0  0  0  0  0  0  0  0  0  0  0
    0.6882   -2.1042   -1.6562 C   0  0  0  0  0  0  0  0  0  0  0  0
   -8.6618   -0.7949    1.5298 C   0  0  0  0  0  0  0  0  0  0  0  0
   -8.3200    0.0968   -0.6258 C   0  0  0  0  0  0  0  0  0  0  0  0
    2.0884    1.5258    0.0353 C   0  0  0  0  0  0  0  0  0  0  0  0
    2.9906    0.3157   -0.1388 C   0  0  0  0  0  0  0  0  0  0  0  0
    2.5088   -0.9166   -0.6378 C   0  0  0  0  0  0  0  0  0  0  0  0
    5.1997   -0.6714    0.1116 C   0  0  0  0  0  0  0  0  0  0  0  0
    4.3411    0.4198    0.2326 C   0  0  0  0  0  0  0  0  0  0  0  0
    7.3686    0.4453   -0.2118 C   0  0  0  0  0  0  0  0  0  0  0  0
    7.2686   -1.7192    0.9927 C   0  0  0  0  0  0  0  0  0  0  0  0
    3.3795   -2.0074   -0.7484 C   0  0  0  0  0  0  0  0  0  0  0  0
    4.7188   -1.8820   -0.3765 C   0  0  0  0  0  0  0  0  0  0  0  0
    8.5886    0.7859    0.6364 C   0  0  0  0  0  0  0  0  0  0  0  0
    8.4946   -1.2635    1.7761 C   0  0  0  0  0  0  0  0  0  0  0  0
   -2.5293   -1.1156    0.8659 H   0  0  0  0  0  0  0  0  0  0  0  0
   -0.7290   -0.0637   -0.1929 H   0  0  0  0  0  0  0  0  0  0  0  0
   -1.6916    0.8054    1.9521 H   0  0  0  0  0  0  0  0  0  0  0  0
   -3.4314    0.9477    2.1343 H   0  0  0  0  0  0  0  0  0  0  0  0
   -0.9871    1.5175   -2.1460 H   0  0  0  0  0  0  0  0  0  0  0  0
   -2.7125    1.6106   -1.8173 H   0  0  0  0  0  0  0  0  0  0  0  0
   -3.5175    2.6151    0.2754 H   0  0  0  0  0  0  0  0  0  0  0  0
   -2.3711    3.1073    1.5176 H   0  0  0  0  0  0  0  0  0  0  0  0
   -4.2570   -0.8637   -1.0713 H   0  0  0  0  0  0  0  0  0  0  0  0
   -4.5863    0.7557   -0.4247 H   0  0  0  0  0  0  0  0  0  0  0  0
   -2.6140   -1.1403   -2.3819 H   0  0  0  0  0  0  0  0  0  0  0  0
   -0.9877   -2.6343   -2.9395 H   0  0  0  0  0  0  0  0  0  0  0  0
    0.2080    3.3508   -2.1317 H   0  0  0  0  0  0  0  0  0  0  0  0
    1.3517    4.0146   -0.9816 H   0  0  0  0  0  0  0  0  0  0  0  0
   -6.9362   -1.7306    2.4374 H   0  0  0  0  0  0  0  0  0  0  0  0
   -7.6053   -2.6204    1.0572 H   0  0  0  0  0  0  0  0  0  0  0  0
   -7.2276   -1.6445   -1.2913 H   0  0  0  0  0  0  0  0  0  0  0  0
   -6.3368   -0.1246   -1.4372 H   0  0  0  0  0  0  0  0  0  0  0  0
    0.7154   -2.9739   -0.9894 H   0  0  0  0  0  0  0  0  0  0  0  0
    1.3112   -2.3009   -2.5378 H   0  0  0  0  0  0  0  0  0  0  0  0
   -9.4037   -1.3121    2.1461 H   0  0  0  0  0  0  0  0  0  0  0  0
   -8.4755    0.1870    1.9808 H   0  0  0  0  0  0  0  0  0  0  0  0
   -8.1321    1.0903   -0.2016 H   0  0  0  0  0  0  0  0  0  0  0  0
   -8.8105    0.2334   -1.5946 H   0  0  0  0  0  0  0  0  0  0  0  0
    2.1996    2.0471   -1.9357 H   0  0  0  0  0  0  0  0  0  0  0  0
    1.3273    1.2622    0.7793 H   0  0  0  0  0  0  0  0  0  0  0  0
    2.6665    2.3627    0.4459 H   0  0  0  0  0  0  0  0  0  0  0  0
    4.7133    1.3604    0.6336 H   0  0  0  0  0  0  0  0  0  0  0  0
    7.6902    0.0206   -1.1709 H   0  0  0  0  0  0  0  0  0  0  0  0
    6.8175    1.3683   -0.4223 H   0  0  0  0  0  0  0  0  0  0  0  0
    6.6365   -2.3251    1.6527 H   0  0  0  0  0  0  0  0  0  0  0  0
    7.5906   -2.3396    0.1472 H   0  0  0  0  0  0  0  0  0  0  0  0
    3.0461   -2.9715   -1.1202 H   0  0  0  0  0  0  0  0  0  0  0  0
    5.3617   -2.7501   -0.4935 H   0  0  0  0  0  0  0  0  0  0  0  0
    8.3030    1.3171    1.5524 H   0  0  0  0  0  0  0  0  0  0  0  0
    9.2653    1.4361    0.0730 H   0  0  0  0  0  0  0  0  0  0  0  0
    8.2087   -0.7448    2.6992 H   0  0  0  0  0  0  0  0  0  0  0  0
    9.1013   -2.1301    2.0576 H   0  0  0  0  0  0  0  0  0  0  0  0
  1 17  2  0  0  0  0
  2 18  2  0  0  0  0
  3 24  1  0  0  0  0
  3 25  1  0  0  0  0
  4 23  1  0  0  0  0
  4 28  1  0  0  0  0
  5 35  1  0  0  0  0
  5 36  1  0  0  0  0
  6 13  1  0  0  0  0
  6 14  1  0  0  0  0
  6 18  1  0  0  0  0
  7 17  1  0  0  0  0
  7 21  1  0  0  0  0
  7 22  1  0  0  0  0
  8 20  1  0  0  0  0
  8 26  1  0  0  0  0
  8 61  1  0  0  0  0
  9 29  1  0  0  0  0
  9 31  1  0  0  0  0
  9 32  1  0  0  0  0
 10 11  1  0  0  0  0
 10 12  1  0  0  0  0
 10 15  1  0  0  0  0
 10 37  1  0  0  0  0
 11 13  1  0  0  0  0
 11 16  1  0  0  0  0
 11 38  1  0  0  0  0
 12 14  1  0  0  0  0
 12 39  1  0  0  0  0
 12 40  1  0  0  0  0
 13 41  1  0  0  0  0
 13 42  1  0  0  0  0
 14 43  1  0  0  0  0
 14 44  1  0  0  0  0
 15 17  1  0  0  0  0
 15 45  1  0  0  0  0
 15 46  1  0  0  0  0
 16 19  2  0  0  0  0
 16 47  1  0  0  0  0
 18 20  1  0  0  0  0
 19 23  1  0  0  0  0
 19 48  1  0  0  0  0
 20 49  1  0  0  0  0
 20 50  1  0  0  0  0
 21 24  1  0  0  0  0
 21 51  1  0  0  0  0
 21 52  1  0  0  0  0
 22 25  1  0  0  0  0
 22 53  1  0  0  0  0
 22 54  1  0  0  0  0
 23 55  1  0  0  0  0
 23 56  1  0  0  0  0
 24 57  1  0  0  0  0
 24 58  1  0  0  0  0
 25 59  1  0  0  0  0
 25 60  1  0  0  0  0
 26 27  1  0  0  0  0
 26 62  1  0  0  0  0
 26 63  1  0  0  0  0
 27 28  2  0  0  0  0
 27 30  1  0  0  0  0
 28 33  1  0  0  0  0
 29 30  2  0  0  0  0
 29 34  1  0  0  0  0
 30 64  1  0  0  0  0
 31 35  1  0  0  0  0
 31 65  1  0  0  0  0
 31 66  1  0  0  0  0
 32 36  1  0  0  0  0
 32 67  1  0  0  0  0
 32 68  1  0  0  0  0
 33 34  2  0  0  0  0
 33 69  1  0  0  0  0
 34 70  1  0  0  0  0
 35 71  1  0  0  0  0
 35 72  1  0  0  0  0
 36 73  1  0  0  0  0
 36 74  1  0  0  0  0
M  END
> <PUBCHEM_COMPOUND_CID>
100630278

> <PUBCHEM_CONFORMER_RMSD>
1.2

> <PUBCHEM_CONFORMER_DIVERSEORDER>
1
26
104
28
76
29
18
93
80
108
27
61
111
83
8
44
69
90
30
17
95
77
105
66
114
49
113
47
73
54
98
59
31
91
102
63
9
86
3
24
110
94
112
89
41
96
39
23
25
35
33
107
51
72
42
38
34
5
48
87
45
37
7
68
10
60
79
82
13
55
70
100
92
52
75
58
36
12
99
40
74
22
64
16
20
57
65
50
71
103
97
109
62
78
43
88
67
101
6
4
85
32
53
106
19
2
81
56
15
11
21
14
46
84

> <PUBCHEM_MMFF94_PARTIAL_CHARGES>
40
1 -0.57
11 0.14
13 0.3
14 0.3
15 0.06
16 -0.29
17 0.57
18 0.57
19 -0.29
2 -0.57
20 0.33
21 0.3
22 0.3
23 0.42
24 0.28
25 0.28
26 0.41
27 -0.14
28 0.08
29 0.1
3 -0.56
30 -0.15
31 0.37
32 0.37
33 -0.15
34 -0.15
35 0.28
36 0.28
4 -0.36
47 0.15
48 0.15
5 -0.56
6 -0.66
61 0.36
64 0.15
69 0.15
7 -0.66
70 0.15
8 -0.9
9 -0.84

> <PUBCHEM_EFFECTIVE_ROTOR_COUNT>
8.2

> <PUBCHEM_PHARMACOPHORE_FEATURES>
12
1 1 acceptor
1 2 acceptor
1 3 acceptor
1 4 acceptor
1 5 acceptor
1 8 cation
1 8 donor
1 9 cation
6 27 28 29 30 33 34 rings
6 3 7 21 22 24 25 rings
6 5 9 31 32 35 36 rings
6 6 10 11 12 13 14 rings

> <PUBCHEM_HEAVY_ATOM_COUNT>
36

> <PUBCHEM_ATOM_DEF_STEREO_COUNT>
2

> <PUBCHEM_ATOM_UDEF_STEREO_COUNT>
0

> <PUBCHEM_BOND_DEF_STEREO_COUNT>
1

> <PUBCHEM_BOND_UDEF_STEREO_COUNT>
0

> <PUBCHEM_ISOTOPIC_ATOM_COUNT>
0

> <PUBCHEM_COMPONENT_COUNT>
1

> <PUBCHEM_CACTVS_TAUTO_COUNT>
2

> <PUBCHEM_CONFORMER_ID>
05FF7F0600000001

> <PUBCHEM_MMFF94_ENERGY>
114.6205

> <PUBCHEM_FEATURE_SELFOVERLAP>
60.899

> <PUBCHEM_SHAPE_FINGERPRINT>
10 15 18342174471275044494
10165383 225 17132114645301037310
10190206 1 10953726799564642767
10369192 42 15410894050302476364
10483366 6 10665225956004077742
10674148 151 14418129617237551247
10904742 90 11167942458947920520
11146851 88 18412831313195201659
11211813 128 18343586214546389846
11297750 10 18261100894321471453
11456790 92 18336279998497737409
11828532 37 17605291751164194739
12107698 1 18335139790999874096
12202916 173 18334579044491848227
12539745 222 17531240613273492420
12741549 16 17458339745573439860
12857493 111 18334576829017003341
13150687 139 8286204967884801760
13811026 1 18335701624235125815
13947947 19 18130224977114646509
14068700 675 16225768523275271335
14117953 113 18343872117201652351
14150022 121 17845940632869852681
14664723 55 10663817516269861258
14725015 67 18334010596800387681
15183329 4 12251901521320705575
15347590 135 18409446956233290954
15840311 113 14117800237331393472
18393751 57 18202844353165820982
20105231 36 18340491055287466750
20721686 146 15410347538238735537
22149856 69 18059586733051759768
23559900 14 17677618730140929565
23576562 1 10519398819950572691
24771293 8 17632300064884116551
25019877 29 17060621092148352239
3178227 256 18413107277791817670
444735 79 18343021077963764038
4461854 278 18202286922424820678
5776283 40 9799400122812242150
6081469 158 17240481411838414223
6126387 218 18412262822992243145
6691757 9 16630528479719978951
9689198 14 13973968696531099346
9962374 69 18340199808383626255

> <PUBCHEM_SHAPE_MULTIPOLES>
691.59
26.83
2.96
1.64
2.37
2.79
-0.07
-13.37
14.59
0.39
-0.39
-0.86
-0.61
0.2

> <PUBCHEM_SHAPE_SELFOVERLAP>
1452

> <PUBCHEM_SHAPE_VOLUME>
382.9

> <PUBCHEM_COORDINATE_TYPE>
2
5
10

$$$$
