71693193
  -OEChem-12032416403D

 75 78  0     1  0  0  0  0  0999 V2000
   -4.9258    1.4030    1.5421 O   0  0  0  0  0  0  0  0  0  0  0  0
   -5.2519    1.5205   -0.7337 O   0  0  0  0  0  0  0  0  0  0  0  0
   -2.8595   -3.5418   -2.5028 O   0  0  0  0  0  0  0  0  0  0  0  0
    2.2957   -2.0257    2.0942 N   0  0  0  0  0  0  0  0  0  0  0  0
   -0.0023    1.5841   -1.8646 N   0  0  0  0  0  0  0  0  0  0  0  0
    0.9820    2.6344   -0.1712 N   0  0  0  0  0  0  0  0  0  0  0  0
   -3.3842   -1.9877   -0.8093 N   0  0  0  0  0  0  0  0  0  0  0  0
    3.8898   -0.9809   -0.1267 C   0  0  1  0  0  0  0  0  0  0  0  0
    3.7949   -0.2755    1.2462 C   0  0  1  0  0  0  0  0  0  0  0  0
    3.0863   -0.2106   -1.1839 C   0  0  0  0  0  0  0  0  0  0  0  0
    3.5246    1.2622   -1.3320 C   0  0  2  0  0  0  0  0  0  0  0  0
    5.3501   -1.1621   -0.5628 C   0  0  0  0  0  0  0  0  0  0  0  0
    3.8519    1.9227   -0.0013 C   0  0  0  0  0  0  0  0  0  0  0  0
    3.9566    1.2197    1.1414 C   0  0  0  0  0  0  0  0  0  0  0  0
    2.4733   -0.5908    1.9543 C   0  0  0  0  0  0  0  0  0  0  0  0
    2.4483    2.0160   -2.1232 C   0  0  0  0  0  0  0  0  0  0  0  0
    6.0077   -2.2850    0.2332 C   0  0  0  0  0  0  0  0  0  0  0  0
    5.4271   -1.4434   -2.0599 C   0  0  0  0  0  0  0  0  0  0  0  0
    4.1182    3.4030   -0.0074 C   0  0  0  0  0  0  0  0  0  0  0  0
    1.1591    2.0962   -1.3569 C   0  0  0  0  0  0  0  0  0  0  0  0
    1.0354   -2.3362    2.7583 C   0  0  0  0  0  0  0  0  0  0  0  0
   -0.9951    1.8065   -0.9451 C   0  0  0  0  0  0  0  0  0  0  0  0
   -0.3556    2.4634    0.1025 C   0  0  0  0  0  0  0  0  0  0  0  0
   -0.1336   -2.2438    1.8140 C   0  0  0  0  0  0  0  0  0  0  0  0
   -2.3560    1.4990   -0.9401 C   0  0  0  0  0  0  0  0  0  0  0  0
   -1.1026    2.8435    1.2302 C   0  0  0  0  0  0  0  0  0  0  0  0
   -1.1818   -1.3646    2.0862 C   0  0  0  0  0  0  0  0  0  0  0  0
   -0.1688   -3.0372    0.6673 C   0  0  0  0  0  0  0  0  0  0  0  0
   -3.0843    1.8847    0.1903 C   0  0  0  0  0  0  0  0  0  0  0  0
   -2.4707    2.5452    1.2572 C   0  0  0  0  0  0  0  0  0  0  0  0
   -2.2652   -1.2790    1.2121 C   0  0  0  0  0  0  0  0  0  0  0  0
   -1.2523   -2.9518   -0.2069 C   0  0  0  0  0  0  0  0  0  0  0  0
   -2.3005   -2.0727    0.0654 C   0  0  0  0  0  0  0  0  0  0  0  0
   -4.5081    1.5916    0.2532 C   0  0  0  0  0  0  0  0  0  0  0  0
   -3.5937   -2.6981   -1.9987 C   0  0  0  0  0  0  0  0  0  0  0  0
   -6.3130    1.1065    1.7350 C   0  0  0  0  0  0  0  0  0  0  0  0
   -4.8960   -2.3157   -2.6564 C   0  0  0  0  0  0  0  0  0  0  0  0
    3.4492   -1.9846   -0.0761 H   0  0  0  0  0  0  0  0  0  0  0  0
    4.6017   -0.6315    1.8973 H   0  0  0  0  0  0  0  0  0  0  0  0
    3.0760   -0.7079   -2.1600 H   0  0  0  0  0  0  0  0  0  0  0  0
    2.0371   -0.2628   -0.8668 H   0  0  0  0  0  0  0  0  0  0  0  0
    4.4441    1.3011   -1.9283 H   0  0  0  0  0  0  0  0  0  0  0  0
    5.9243   -0.2463   -0.3752 H   0  0  0  0  0  0  0  0  0  0  0  0
    4.1930    1.7384    2.0680 H   0  0  0  0  0  0  0  0  0  0  0  0
    1.6394   -0.1486    1.3958 H   0  0  0  0  0  0  0  0  0  0  0  0
    2.4758   -0.1176    2.9457 H   0  0  0  0  0  0  0  0  0  0  0  0
    2.2843    1.5169   -3.0870 H   0  0  0  0  0  0  0  0  0  0  0  0
    2.7781    3.0336   -2.3639 H   0  0  0  0  0  0  0  0  0  0  0  0
    5.4793   -3.2348    0.0946 H   0  0  0  0  0  0  0  0  0  0  0  0
    6.0439   -2.0719    1.3046 H   0  0  0  0  0  0  0  0  0  0  0  0
    7.0423   -2.4333   -0.0959 H   0  0  0  0  0  0  0  0  0  0  0  0
    4.7744   -2.2743   -2.3505 H   0  0  0  0  0  0  0  0  0  0  0  0
    6.4487   -1.7368   -2.3311 H   0  0  0  0  0  0  0  0  0  0  0  0
    5.2013   -0.5756   -2.6830 H   0  0  0  0  0  0  0  0  0  0  0  0
    4.8749    3.6445   -0.7616 H   0  0  0  0  0  0  0  0  0  0  0  0
    4.5027    3.7536    0.9568 H   0  0  0  0  0  0  0  0  0  0  0  0
    3.2171    3.9816   -0.2239 H   0  0  0  0  0  0  0  0  0  0  0  0
    3.0657   -2.4007    2.6484 H   0  0  0  0  0  0  0  0  0  0  0  0
    0.8895   -1.7167    3.6522 H   0  0  0  0  0  0  0  0  0  0  0  0
    1.0782   -3.3712    3.1211 H   0  0  0  0  0  0  0  0  0  0  0  0
   -0.1131    1.1212   -2.7570 H   0  0  0  0  0  0  0  0  0  0  0  0
   -2.8161    0.9847   -1.7770 H   0  0  0  0  0  0  0  0  0  0  0  0
   -0.6349    3.3587    2.0631 H   0  0  0  0  0  0  0  0  0  0  0  0
   -1.1714   -0.7458    2.9794 H   0  0  0  0  0  0  0  0  0  0  0  0
    0.6389   -3.7299    0.4451 H   0  0  0  0  0  0  0  0  0  0  0  0
   -3.0383    2.8570    2.1311 H   0  0  0  0  0  0  0  0  0  0  0  0
   -3.0912   -0.6238    1.4626 H   0  0  0  0  0  0  0  0  0  0  0  0
   -1.2088   -3.5974   -1.0728 H   0  0  0  0  0  0  0  0  0  0  0  0
   -4.1078   -1.3240   -0.5407 H   0  0  0  0  0  0  0  0  0  0  0  0
   -6.4894    0.9854    2.8069 H   0  0  0  0  0  0  0  0  0  0  0  0
   -6.9297    1.9315    1.3666 H   0  0  0  0  0  0  0  0  0  0  0  0
   -6.5722    0.1728    1.2270 H   0  0  0  0  0  0  0  0  0  0  0  0
   -4.9961   -2.8374   -3.6122 H   0  0  0  0  0  0  0  0  0  0  0  0
   -4.9186   -1.2373   -2.8381 H   0  0  0  0  0  0  0  0  0  0  0  0
   -5.7313   -2.5944   -2.0080 H   0  0  0  0  0  0  0  0  0  0  0  0
  1 34  1  0  0  0  0
  1 36  1  0  0  0  0
  2 34  2  0  0  0  0
  3 35  2  0  0  0  0
  4 15  1  0  0  0  0
  4 21  1  0  0  0  0
  4 58  1  0  0  0  0
  5 20  1  0  0  0  0
  5 22  1  0  0  0  0
  5 61  1  0  0  0  0
  6 20  2  0  0  0  0
  6 23  1  0  0  0  0
  7 33  1  0  0  0  0
  7 35  1  0  0  0  0
  7 69  1  0  0  0  0
  8  9  1  0  0  0  0
  8 10  1  0  0  0  0
  8 12  1  0  0  0  0
  8 38  1  0  0  0  0
  9 14  1  0  0  0  0
  9 15  1  0  0  0  0
  9 39  1  0  0  0  0
 10 11  1  0  0  0  0
 10 40  1  0  0  0  0
 10 41  1  0  0  0  0
 11 13  1  0  0  0  0
 11 16  1  0  0  0  0
 11 42  1  0  0  0  0
 12 17  1  0  0  0  0
 12 18  1  0  0  0  0
 12 43  1  0  0  0  0
 13 14  2  0  0  0  0
 13 19  1  0  0  0  0
 14 44  1  0  0  0  0
 15 45  1  0  0  0  0
 15 46  1  0  0  0  0
 16 20  1  0  0  0  0
 16 47  1  0  0  0  0
 16 48  1  0  0  0  0
 17 49  1  0  0  0  0
 17 50  1  0  0  0  0
 17 51  1  0  0  0  0
 18 52  1  0  0  0  0
 18 53  1  0  0  0  0
 18 54  1  0  0  0  0
 19 55  1  0  0  0  0
 19 56  1  0  0  0  0
 19 57  1  0  0  0  0
 21 24  1  0  0  0  0
 21 59  1  0  0  0  0
 21 60  1  0  0  0  0
 22 23  2  0  0  0  0
 22 25  1  0  0  0  0
 23 26  1  0  0  0  0
 24 27  2  0  0  0  0
 24 28  1  0  0  0  0
 25 29  2  0  0  0  0
 25 62  1  0  0  0  0
 26 30  2  0  0  0  0
 26 63  1  0  0  0  0
 27 31  1  0  0  0  0
 27 64  1  0  0  0  0
 28 32  2  0  0  0  0
 28 65  1  0  0  0  0
 29 30  1  0  0  0  0
 29 34  1  0  0  0  0
 30 66  1  0  0  0  0
 31 33  2  0  0  0  0
 31 67  1  0  0  0  0
 32 33  1  0  0  0  0
 32 68  1  0  0  0  0
 35 37  1  0  0  0  0
 36 70  1  0  0  0  0
 36 71  1  0  0  0  0
 36 72  1  0  0  0  0
 37 73  1  0  0  0  0
 37 74  1  0  0  0  0
 37 75  1  0  0  0  0
M  END
> <PUBCHEM_COMPOUND_CID>
71693193

> <PUBCHEM_CONFORMER_RMSD>
1.2

> <PUBCHEM_CONFORMER_DIVERSEORDER>
8
52
68
74
67
43
39
14
58
16
21
33
66
31
29
70
3
63
42
6
27
55
20
30
75
19
65
56
44
37
24
61
36
47
34
57
9
60
71
48
64
50
40
38
25
26
11
49
59
10
76
22
69
13
32
46
35
12
51
53
73
2
5
28
23
7
41
62
54
72
1
15
45
18
17
4

> <PUBCHEM_MMFF94_PARTIAL_CHARGES>
43
1 -0.43
11 0.14
13 -0.28
14 -0.29
15 0.27
16 0.18
19 0.14
2 -0.57
20 0.01
21 0.41
22 -0.15
23 0.23
24 -0.14
25 -0.15
26 -0.15
27 -0.15
28 -0.15
29 0.09
3 -0.57
30 -0.15
31 -0.15
32 -0.15
33 0.12
34 0.63
35 0.57
36 0.28
37 0.06
4 -0.9
44 0.15
5 0.03
58 0.36
6 -0.57
61 0.27
62 0.15
63 0.15
64 0.15
65 0.15
66 0.15
67 0.15
68 0.15
69 0.37
7 -0.55
9 0.14

> <PUBCHEM_EFFECTIVE_ROTOR_COUNT>
11.8

> <PUBCHEM_PHARMACOPHORE_FEATURES>
12
1 2 acceptor
1 3 acceptor
1 4 cation
1 4 donor
1 5 donor
1 7 donor
3 12 17 18 hydrophobe
3 5 6 20 cation
5 5 6 20 22 23 rings
6 22 23 25 26 29 30 rings
6 24 27 28 31 32 33 rings
6 8 9 10 11 13 14 rings

> <PUBCHEM_HEAVY_ATOM_COUNT>
37

> <PUBCHEM_ATOM_DEF_STEREO_COUNT>
3

> <PUBCHEM_ATOM_UDEF_STEREO_COUNT>
0

> <PUBCHEM_BOND_DEF_STEREO_COUNT>
0

> <PUBCHEM_BOND_UDEF_STEREO_COUNT>
0

> <PUBCHEM_ISOTOPIC_ATOM_COUNT>
0

> <PUBCHEM_COMPONENT_COUNT>
1

> <PUBCHEM_CACTVS_TAUTO_COUNT>
21

> <PUBCHEM_CONFORMER_ID>
0445F38900000008

> <PUBCHEM_MMFF94_ENERGY>
86.9158

> <PUBCHEM_FEATURE_SELFOVERLAP>
61.003

> <PUBCHEM_SHAPE_FINGERPRINT>
10816530 23 17846215613285999760
11513181 2 18270407204099129390
11578080 2 17988919024901345472
12107698 1 18412254065416932526
12156800 1 17631716266969607655
12422481 6 17899451729257891393
12788726 201 18197490929838876773
13636023 20 16764216117664241575
13642711 20 15430856779607109401
14295343 760 17704349983372628847
14395042 70 16404531238419634793
14840074 17 18262799541539122545
15001296 14 18261387888382865473
15297060 5 17916022357135683603
15968369 153 18337678623899905689
17809404 112 17900256709071368602
20737093 15 17689110620007022309
20764821 26 18412266133995186486
21792938 131 17838927861813163061
3298306 158 17968093054510671877
338550 245 17967824876388654192
35225 105 18193824952008425902
354706 35 16676114488550152079
463206 1 18260830414323050337
469060 322 16370730378180463683
563151 248 18272662229559652579
6287921 2 17623288265429277275
9896288 288 17543907907203294432

> <PUBCHEM_SHAPE_MULTIPOLES>
723.91
11.9
4.71
2.59
0.09
0.58
-0.28
0.8
-2.03
1.34
-0.52
1.05
1.66
-2.98

> <PUBCHEM_SHAPE_SELFOVERLAP>
1543.21

> <PUBCHEM_SHAPE_VOLUME>
401.7

> <PUBCHEM_COORDINATE_TYPE>
2
5
10

$$$$
