7144095
  -OEChem-12032416113D

 51 55  0     1  0  0  0  0  0999 V2000
    2.6809    3.3200   -1.7638 O   0  0  0  0  0  0  0  0  0  0  0  0
    3.8143   -0.9312   -0.4139 O   0  0  0  0  0  0  0  0  0  0  0  0
    1.4671   -3.2792    0.5324 O   0  0  0  0  0  0  0  0  0  0  0  0
   -5.6313   -1.1943    0.3444 O   0  0  0  0  0  0  0  0  0  0  0  0
    1.4321    2.1358   -0.1750 N   0  0  0  0  0  0  0  0  0  0  0  0
    2.1464   -0.6183    1.1944 N   0  0  0  0  0  0  0  0  0  0  0  0
    2.3561    1.6542    2.1697 C   0  0  2  0  0  0  0  0  0  0  0  0
    0.1379    0.8093    1.5227 C   0  0  2  0  0  0  0  0  0  0  0  0
    0.8914    1.6158    2.5796 C   0  0  0  0  0  0  0  0  0  0  0  0
    2.4673    2.3961    0.8363 C   0  0  0  0  0  0  0  0  0  0  0  0
    2.9329    0.2307    2.0870 C   0  0  0  0  0  0  0  0  0  0  0  0
    0.7022   -0.6272    1.4701 C   0  0  0  0  0  0  0  0  0  0  0  0
    0.2362    1.4605    0.1409 C   0  0  0  0  0  0  0  0  0  0  0  0
   -0.7593    1.3789   -0.7801 C   0  0  0  0  0  0  0  0  0  0  0  0
    1.6626    2.7088   -1.4382 C   0  0  0  0  0  0  0  0  0  0  0  0
    2.7824   -1.2930    0.1495 C   0  0  0  0  0  0  0  0  0  0  0  0
   -0.5553    1.9544   -2.0957 C   0  0  0  0  0  0  0  0  0  0  0  0
    0.5770    2.5700   -2.4354 C   0  0  0  0  0  0  0  0  0  0  0  0
   -2.0409    0.7015   -0.4838 C   0  0  0  0  0  0  0  0  0  0  0  0
    2.1753   -2.5331   -0.3479 C   0  0  0  0  0  0  0  0  0  0  0  0
   -2.1755   -0.6611   -0.7311 C   0  0  0  0  0  0  0  0  0  0  0  0
   -3.1030    1.4323    0.0398 C   0  0  0  0  0  0  0  0  0  0  0  0
    2.1875   -3.1082   -1.5896 C   0  0  0  0  0  0  0  0  0  0  0  0
   -3.3842   -1.2992   -0.4523 C   0  0  0  0  0  0  0  0  0  0  0  0
   -4.3116    0.7943    0.3188 C   0  0  0  0  0  0  0  0  0  0  0  0
   -4.4522   -0.5715    0.0727 C   0  0  0  0  0  0  0  0  0  0  0  0
    1.4312   -4.2986   -1.4705 C   0  0  0  0  0  0  0  0  0  0  0  0
    1.0149   -4.3571   -0.1608 C   0  0  0  0  0  0  0  0  0  0  0  0
   -6.6820   -0.3908    0.8798 C   0  0  0  0  0  0  0  0  0  0  0  0
    2.9352    2.2032    2.9223 H   0  0  0  0  0  0  0  0  0  0  0  0
   -0.9058    0.7545    1.8515 H   0  0  0  0  0  0  0  0  0  0  0  0
    0.4829    2.6311    2.6585 H   0  0  0  0  0  0  0  0  0  0  0  0
    0.7831    1.1485    3.5661 H   0  0  0  0  0  0  0  0  0  0  0  0
    2.4179    3.4760    1.0340 H   0  0  0  0  0  0  0  0  0  0  0  0
    3.4517    2.2203    0.3841 H   0  0  0  0  0  0  0  0  0  0  0  0
    3.9801    0.2562    1.7665 H   0  0  0  0  0  0  0  0  0  0  0  0
    2.9103   -0.2402    3.0773 H   0  0  0  0  0  0  0  0  0  0  0  0
    0.5586   -1.1289    2.4345 H   0  0  0  0  0  0  0  0  0  0  0  0
    0.1764   -1.2092    0.7120 H   0  0  0  0  0  0  0  0  0  0  0  0
   -1.3539    1.8635   -2.8261 H   0  0  0  0  0  0  0  0  0  0  0  0
    0.7230    2.9919   -3.4226 H   0  0  0  0  0  0  0  0  0  0  0  0
   -1.3562   -1.2404   -1.1494 H   0  0  0  0  0  0  0  0  0  0  0  0
   -3.0064    2.4973    0.2368 H   0  0  0  0  0  0  0  0  0  0  0  0
    2.6747   -2.7269   -2.4756 H   0  0  0  0  0  0  0  0  0  0  0  0
   -3.4883   -2.3630   -0.6479 H   0  0  0  0  0  0  0  0  0  0  0  0
   -5.0996    1.4189    0.7253 H   0  0  0  0  0  0  0  0  0  0  0  0
    1.2156   -5.0228   -2.2427 H   0  0  0  0  0  0  0  0  0  0  0  0
    0.4225   -5.0612    0.4048 H   0  0  0  0  0  0  0  0  0  0  0  0
   -6.9948    0.3856    0.1733 H   0  0  0  0  0  0  0  0  0  0  0  0
   -6.4142    0.0218    1.8584 H   0  0  0  0  0  0  0  0  0  0  0  0
   -7.5441   -1.0477    1.0351 H   0  0  0  0  0  0  0  0  0  0  0  0
  1 15  2  0  0  0  0
  2 16  2  0  0  0  0
  3 20  1  0  0  0  0
  3 28  1  0  0  0  0
  4 26  1  0  0  0  0
  4 29  1  0  0  0  0
  5 10  1  0  0  0  0
  5 13  1  0  0  0  0
  5 15  1  0  0  0  0
  6 11  1  0  0  0  0
  6 12  1  0  0  0  0
  6 16  1  0  0  0  0
  7  9  1  0  0  0  0
  7 10  1  0  0  0  0
  7 11  1  0  0  0  0
  7 30  1  0  0  0  0
  8  9  1  0  0  0  0
  8 12  1  0  0  0  0
  8 13  1  0  0  0  0
  8 31  1  0  0  0  0
  9 32  1  0  0  0  0
  9 33  1  0  0  0  0
 10 34  1  0  0  0  0
 10 35  1  0  0  0  0
 11 36  1  0  0  0  0
 11 37  1  0  0  0  0
 12 38  1  0  0  0  0
 12 39  1  0  0  0  0
 13 14  2  0  0  0  0
 14 17  1  0  0  0  0
 14 19  1  0  0  0  0
 15 18  1  0  0  0  0
 16 20  1  0  0  0  0
 17 18  2  0  0  0  0
 17 40  1  0  0  0  0
 18 41  1  0  0  0  0
 19 21  2  0  0  0  0
 19 22  1  0  0  0  0
 20 23  2  0  0  0  0
 21 24  1  0  0  0  0
 21 42  1  0  0  0  0
 22 25  2  0  0  0  0
 22 43  1  0  0  0  0
 23 27  1  0  0  0  0
 23 44  1  0  0  0  0
 24 26  2  0  0  0  0
 24 45  1  0  0  0  0
 25 26  1  0  0  0  0
 25 46  1  0  0  0  0
 27 28  2  0  0  0  0
 27 47  1  0  0  0  0
 28 48  1  0  0  0  0
 29 49  1  0  0  0  0
 29 50  1  0  0  0  0
 29 51  1  0  0  0  0
M  END
> <PUBCHEM_COMPOUND_CID>
7144095

> <PUBCHEM_CONFORMER_RMSD>
0.8

> <PUBCHEM_CONFORMER_DIVERSEORDER>
1
4
5
8
7
3
2
6

> <PUBCHEM_MMFF94_PARTIAL_CHARGES>
36
1 -0.57
10 0.3
11 0.3
12 0.3
13 -0.03
14 -0.03
15 0.62
16 0.71
17 -0.15
18 -0.14
19 0.03
2 -0.57
20 0.05
21 -0.15
22 -0.15
23 -0.15
24 -0.15
25 -0.15
26 0.08
27 -0.15
28 -0.01
29 0.28
3 -0.28
4 -0.36
40 0.15
41 0.15
42 0.15
43 0.15
44 0.15
45 0.15
46 0.15
47 0.15
48 0.15
5 -0.47
6 -0.66
8 0.14

> <PUBCHEM_EFFECTIVE_ROTOR_COUNT>
5

> <PUBCHEM_PHARMACOPHORE_FEATURES>
9
1 1 acceptor
1 2 acceptor
1 3 acceptor
1 4 acceptor
5 3 20 23 27 28 rings
6 19 21 22 24 25 26 rings
6 5 13 14 15 17 18 rings
6 5 7 8 9 10 13 rings
6 6 7 8 9 11 12 rings

> <PUBCHEM_HEAVY_ATOM_COUNT>
29

> <PUBCHEM_ATOM_DEF_STEREO_COUNT>
2

> <PUBCHEM_ATOM_UDEF_STEREO_COUNT>
0

> <PUBCHEM_BOND_DEF_STEREO_COUNT>
0

> <PUBCHEM_BOND_UDEF_STEREO_COUNT>
0

> <PUBCHEM_ISOTOPIC_ATOM_COUNT>
0

> <PUBCHEM_COMPONENT_COUNT>
1

> <PUBCHEM_CACTVS_TAUTO_COUNT>
1

> <PUBCHEM_CONFORMER_ID>
006D029F00000001

> <PUBCHEM_MMFF94_ENERGY>
88.1931

> <PUBCHEM_FEATURE_SELFOVERLAP>
47.258

> <PUBCHEM_SHAPE_FINGERPRINT>
10064457 181 17984404506886865880
10764073 3 15186571396204647841
11421498 54 18271263680291158777
12035758 1 18127665254802112362
12128747 34 17914322490837786105
12156800 1 15047553694132299822
12422481 6 18193526000867849704
12778500 126 17917161503027440433
13135754 10 16123602774827559094
13533116 47 18202282503451338691
13583140 156 17702925007871689369
14863182 85 18339641256070683625
15324884 4 17758910989070305808
15392192 104 18117857710283478659
15664445 248 18113622235586929189
17492 54 17823441408023780166
17974551 9 17128158435224072737
1813 80 18041565728634688821
1979834 28 18410288151368491363
20578428 11 16299817410939953335
20600515 1 17623023295711250669
20775530 9 18053381002940508663
21756936 100 16551397898736421568
22149856 69 18268444593783372891
23466295 7 17117771245486553278
23559900 14 18408608046304384455
25222932 49 17058914753999032975
3117164 225 17985559849522601281
35225 105 17053019300703519974
3737641 26 18056765329747834830
38695281 34 18118412975195222052
46194498 28 18260556627754050167
469060 322 17976559225557061910
57527585 103 16544126299749334823
6287921 2 18411979191309011959

> <PUBCHEM_SHAPE_MULTIPOLES>
563.37
8.04
4.83
2.21
17.24
4.69
0.03
2.67
2.28
-5.26
-2.5
-1.65
-1.66
0.78

> <PUBCHEM_SHAPE_SELFOVERLAP>
1248.849

> <PUBCHEM_SHAPE_VOLUME>
296.8

> <PUBCHEM_COORDINATE_TYPE>
2
5
10

$$$$
