26743428
  -OEChem-12032416383D

 53 55  0     1  0  0  0  0  0999 V2000
    7.2099    0.1224   -1.1507 S   0  0  0  0  0  0  0  0  0  0  0  0
   -8.3073   -0.1413    0.0430 F   0  0  0  0  0  0  0  0  0  0  0  0
   -7.7045    1.1754   -1.5790 F   0  0  0  0  0  0  0  0  0  0  0  0
   -7.7989   -0.9669   -1.9032 F   0  0  0  0  0  0  0  0  0  0  0  0
    4.9870    2.1735   -1.8735 O   0  0  0  0  0  0  0  0  0  0  0  0
    5.6889   -3.4171   -0.6367 O   0  0  0  0  0  0  0  0  0  0  0  0
    7.7448   -2.7716   -1.3588 O   0  0  0  0  0  0  0  0  0  0  0  0
    4.2779    1.8675    0.3198 N   0  0  0  0  0  0  0  0  0  0  0  0
   -2.0247   -0.5235    0.6945 N   0  0  0  0  0  0  0  0  0  0  0  0
   -1.6162   -1.6576    1.2888 N   0  0  0  0  0  0  0  0  0  0  0  0
    1.4627    0.4699    1.2151 C   0  0  2  0  0  0  0  0  0  0  0  0
    2.0592    0.8750   -0.1488 C   0  0  0  0  0  0  0  0  0  0  0  0
    2.8811    2.1430    0.1131 C   0  0  1  0  0  0  0  0  0  0  0  0
    0.0869   -0.1465    1.1062 C   0  0  0  0  0  0  0  0  0  0  0  0
    1.5145    1.7578    1.9846 C   0  0  0  0  0  0  0  0  0  0  0  0
    2.2912    2.6643    1.3821 C   0  0  0  0  0  0  0  0  0  0  0  0
   -1.0426    0.4135    0.5610 C   0  0  0  0  0  0  0  0  0  0  0  0
   -0.3254   -1.4214    1.5379 C   0  0  0  0  0  0  0  0  0  0  0  0
   -1.2613    1.7342   -0.0631 C   0  0  0  0  0  0  0  0  0  0  0  0
    0.4864   -2.4584    2.1988 C   0  0  0  0  0  0  0  0  0  0  0  0
   -3.3516   -0.3976    0.2816 C   0  0  0  0  0  0  0  0  0  0  0  0
    5.2244    1.9052   -0.6970 C   0  0  0  0  0  0  0  0  0  0  0  0
    6.6179    1.5602   -0.2267 C   0  0  0  0  0  0  0  0  0  0  0  0
   -4.3850   -0.4925    1.2138 C   0  0  0  0  0  0  0  0  0  0  0  0
   -3.6444   -0.1810   -1.0648 C   0  0  0  0  0  0  0  0  0  0  0  0
   -5.7112   -0.3705    0.7995 C   0  0  0  0  0  0  0  0  0  0  0  0
   -4.9707   -0.0591   -1.4791 C   0  0  0  0  0  0  0  0  0  0  0  0
   -6.0041   -0.1537   -0.5470 C   0  0  0  0  0  0  0  0  0  0  0  0
   -7.4224   -0.0240   -0.9894 C   0  0  0  0  0  0  0  0  0  0  0  0
    6.3521   -1.1684   -0.2188 C   0  0  0  0  0  0  0  0  0  0  0  0
    6.6855   -2.5110   -0.8031 C   0  0  0  0  0  0  0  0  0  0  0  0
    2.1393   -0.2402    1.7083 H   0  0  0  0  0  0  0  0  0  0  0  0
    2.6609    0.0609   -0.5713 H   0  0  0  0  0  0  0  0  0  0  0  0
    1.2817    1.0970   -0.8892 H   0  0  0  0  0  0  0  0  0  0  0  0
    2.7613    2.8547   -0.7104 H   0  0  0  0  0  0  0  0  0  0  0  0
    1.0149    1.9220    2.9291 H   0  0  0  0  0  0  0  0  0  0  0  0
    2.4850    3.6521    1.7757 H   0  0  0  0  0  0  0  0  0  0  0  0
    4.5760    1.5891    1.2508 H   0  0  0  0  0  0  0  0  0  0  0  0
   -1.2159    1.6579   -1.1542 H   0  0  0  0  0  0  0  0  0  0  0  0
   -2.2317    2.1588    0.2149 H   0  0  0  0  0  0  0  0  0  0  0  0
   -0.5116    2.4665    0.2445 H   0  0  0  0  0  0  0  0  0  0  0  0
    0.8885   -2.0853    3.1464 H   0  0  0  0  0  0  0  0  0  0  0  0
   -0.0986   -3.3584    2.4162 H   0  0  0  0  0  0  0  0  0  0  0  0
    1.3264   -2.7530    1.5613 H   0  0  0  0  0  0  0  0  0  0  0  0
    6.6680    1.3744    0.8498 H   0  0  0  0  0  0  0  0  0  0  0  0
    7.2645    2.4160   -0.4455 H   0  0  0  0  0  0  0  0  0  0  0  0
   -4.1744   -0.6576    2.2677 H   0  0  0  0  0  0  0  0  0  0  0  0
   -2.8555   -0.1197   -1.8102 H   0  0  0  0  0  0  0  0  0  0  0  0
   -6.5013   -0.4465    1.5414 H   0  0  0  0  0  0  0  0  0  0  0  0
   -5.1894    0.1061   -2.5307 H   0  0  0  0  0  0  0  0  0  0  0  0
    5.2733   -1.0056   -0.2965 H   0  0  0  0  0  0  0  0  0  0  0  0
    6.6576   -1.1594    0.8309 H   0  0  0  0  0  0  0  0  0  0  0  0
    5.9217   -4.2911   -1.0165 H   0  0  0  0  0  0  0  0  0  0  0  0
  1 23  1  0  0  0  0
  1 30  1  0  0  0  0
  2 29  1  0  0  0  0
  3 29  1  0  0  0  0
  4 29  1  0  0  0  0
  5 22  2  0  0  0  0
  6 31  1  0  0  0  0
  6 53  1  0  0  0  0
  7 31  2  0  0  0  0
  8 13  1  0  0  0  0
  8 22  1  0  0  0  0
  8 38  1  0  0  0  0
  9 10  1  0  0  0  0
  9 17  1  0  0  0  0
  9 21  1  0  0  0  0
 10 18  2  0  0  0  0
 11 12  1  0  0  0  0
 11 14  1  0  0  0  0
 11 15  1  0  0  0  0
 11 32  1  0  0  0  0
 12 13  1  0  0  0  0
 12 33  1  0  0  0  0
 12 34  1  0  0  0  0
 13 16  1  0  0  0  0
 13 35  1  0  0  0  0
 14 17  2  0  0  0  0
 14 18  1  0  0  0  0
 15 16  2  0  0  0  0
 15 36  1  0  0  0  0
 16 37  1  0  0  0  0
 17 19  1  0  0  0  0
 18 20  1  0  0  0  0
 19 39  1  0  0  0  0
 19 40  1  0  0  0  0
 19 41  1  0  0  0  0
 20 42  1  0  0  0  0
 20 43  1  0  0  0  0
 20 44  1  0  0  0  0
 21 24  2  0  0  0  0
 21 25  1  0  0  0  0
 22 23  1  0  0  0  0
 23 45  1  0  0  0  0
 23 46  1  0  0  0  0
 24 26  1  0  0  0  0
 24 47  1  0  0  0  0
 25 27  2  0  0  0  0
 25 48  1  0  0  0  0
 26 28  2  0  0  0  0
 26 49  1  0  0  0  0
 27 28  1  0  0  0  0
 27 50  1  0  0  0  0
 28 29  1  0  0  0  0
 30 31  1  0  0  0  0
 30 51  1  0  0  0  0
 30 52  1  0  0  0  0
M  END
> <PUBCHEM_COMPOUND_CID>
26743428

> <PUBCHEM_CONFORMER_RMSD>
1

> <PUBCHEM_CONFORMER_DIVERSEORDER>
1
58
28
2
67
18
65
50
30
34
51
5
14
22
44
27
29
31
23
35
49
16
41
54
42
19
45
48
33
26
7
60
37
15
53
62
46
43
66
17
39
20
55
59
25
21
36
38
52
56
8
68
6
63
13
40
9
47
57
32
24
4
61
11
64
10
3
12

> <PUBCHEM_MMFF94_PARTIAL_CHARGES>
38
1 -0.46
10 -0.71
11 0.32
13 0.44
14 -0.18
15 -0.29
16 -0.29
17 -0.33
18 0.11
19 0.18
2 -0.34
20 0.18
21 -0.02
22 0.57
23 0.29
24 -0.15
25 -0.15
26 -0.15
27 -0.15
28 -0.14
29 1.16
3 -0.34
30 0.29
31 0.66
36 0.15
37 0.15
38 0.37
4 -0.34
47 0.15
48 0.15
49 0.15
5 -0.57
50 0.15
53 0.5
6 -0.65
7 -0.57
8 -0.73
9 0.59

> <PUBCHEM_EFFECTIVE_ROTOR_COUNT>
9.6

> <PUBCHEM_PHARMACOPHORE_FEATURES>
9
1 10 acceptor
1 5 acceptor
1 6 acceptor
1 7 acceptor
1 8 donor
3 6 7 31 anion
5 11 12 13 15 16 rings
5 9 10 14 17 18 rings
6 21 24 25 26 27 28 rings

> <PUBCHEM_HEAVY_ATOM_COUNT>
31

> <PUBCHEM_ATOM_DEF_STEREO_COUNT>
2

> <PUBCHEM_ATOM_UDEF_STEREO_COUNT>
0

> <PUBCHEM_BOND_DEF_STEREO_COUNT>
0

> <PUBCHEM_BOND_UDEF_STEREO_COUNT>
0

> <PUBCHEM_ISOTOPIC_ATOM_COUNT>
0

> <PUBCHEM_COMPONENT_COUNT>
1

> <PUBCHEM_CACTVS_TAUTO_COUNT>
2

> <PUBCHEM_CONFORMER_ID>
0198128400000001

> <PUBCHEM_MMFF94_ENERGY>
68.7828

> <PUBCHEM_FEATURE_SELFOVERLAP>
45.73

> <PUBCHEM_SHAPE_FINGERPRINT>
10 15 15502364639785955609
106641 1 8646773296275070405
10670039 82 18334010588722766217
10693767 8 18272363174854875750
10908659 184 10518840178583267646
10930396 42 13254506514708434126
11374522 175 18337391518264040394
11720765 8 18272931665606740576
11828042 291 18191280742306174495
11973864 48 18114192982104414283
12516196 113 12031797975935550481
12838863 1 18265329509748890186
13383665 225 16661480694066289237
13383668 362 11311185782043151029
13533116 47 18201725051103438216
14068700 675 16917072144398023496
14347332 77 18131356267627964504
14910700 183 10303816479965782692
15119646 104 17918000451547364686
15183329 4 17704078420816374765
15188451 53 15267071345806176488
15961568 22 16443335477970395365
18393751 57 8790888466944593624
190975 80 11024105456056735845
19301676 85 18339652131540891438
19958102 18 18261119569381573184
20554085 129 16298387950812695138
20567600 234 10665224860808593804
21315764 119 18113623417156713540
21344244 78 14045743729698593834
21458453 9 9583224029652700268
21521239 73 18343018895999285786
21792938 169 10518828173911193963
21792964 463 13624084228159340156
22224240 67 7997975665089908913
23559900 14 18336269054404128024
23569943 247 18201443527859441427
3418910 222 14057001590722058071
3633792 109 18334296444243631664
3711267 37 14996283604315091276
3729539 64 18409173190770095794
394071 54 8430316844761950578
4098825 35 18338516344075046917
4403749 210 17692532630931613040
4625314 4 10665218267833666144
5758199 1 13551465990455203681
59682541 35 10519983781479224725
59682541 52 18412265047595190236
6438161 24 17846493742762339462
6636798 310 17059212524414500338
9689198 14 16298389092915279480

> <PUBCHEM_SHAPE_MULTIPOLES>
587.44
23.71
2.87
1.83
10.14
1.14
0.19
6.44
-16.38
-7.51
0.15
0.69
0.23
1.58

> <PUBCHEM_SHAPE_SELFOVERLAP>
1240.01

> <PUBCHEM_SHAPE_VOLUME>
334.3

> <PUBCHEM_COORDINATE_TYPE>
2
5
10

$$$$
