11885156
  -OEChem-12032416213D

 54 59  0     1  0  0  0  0  0999 V2000
    4.1950   -1.2882   -0.9295 S   0  0  0  0  0  0  0  0  0  0  0  0
    1.6331   -2.6166   -0.4607 S   0  0  0  0  0  0  0  0  0  0  0  0
    5.5601   -1.4376   -0.4687 O   0  0  0  0  0  0  0  0  0  0  0  0
    3.8178   -1.5461   -2.3034 O   0  0  0  0  0  0  0  0  0  0  0  0
   -0.9176    1.9771   -1.5701 O   0  0  0  0  0  0  0  0  0  0  0  0
    3.6326    0.2621   -0.4735 N   0  0  2  0  0  0  0  0  0  0  0  0
    0.9672    1.9359   -0.1972 N   0  0  0  0  0  0  0  0  0  0  0  0
    3.2813    2.6754   -1.0086 C   0  0  1  0  0  0  0  0  0  0  0  0
    2.9934    1.8847    1.2986 C   0  0  2  0  0  0  0  0  0  0  0  0
    3.5215    3.0386    0.4508 C   0  0  0  0  0  0  0  0  0  0  0  0
    4.0287    1.3824   -1.3739 C   0  0  0  0  0  0  0  0  0  0  0  0
    3.7821    0.6035    0.9728 C   0  0  0  0  0  0  0  0  0  0  0  0
    1.7711    2.5678   -1.2526 C   0  0  0  0  0  0  0  0  0  0  0  0
    1.5107    1.6664    1.0610 C   0  0  0  0  0  0  0  0  0  0  0  0
    0.7283    1.1972    2.0459 C   0  0  0  0  0  0  0  0  0  0  0  0
   -0.3949    1.7185   -0.4845 C   0  0  0  0  0  0  0  0  0  0  0  0
   -1.2388    1.1578    0.6285 C   0  0  0  0  0  0  0  0  0  0  0  0
   -0.6648    0.9348    1.8203 C   0  0  0  0  0  0  0  0  0  0  0  0
    3.2626   -2.4954    0.0064 C   0  0  0  0  0  0  0  0  0  0  0  0
   -2.6645    0.8480    0.4239 C   0  0  0  0  0  0  0  0  0  0  0  0
    3.6097   -3.3307    1.0170 C   0  0  0  0  0  0  0  0  0  0  0  0
   -3.0479   -0.4174   -0.0231 C   0  0  0  0  0  0  0  0  0  0  0  0
   -3.6307    1.8179    0.6772 C   0  0  0  0  0  0  0  0  0  0  0  0
    2.4970   -4.1142    1.4393 C   0  0  0  0  0  0  0  0  0  0  0  0
    1.3586   -3.8267    0.7191 C   0  0  0  0  0  0  0  0  0  0  0  0
   -4.4031   -0.7279   -0.2226 C   0  0  0  0  0  0  0  0  0  0  0  0
   -4.9816    1.5268    0.4848 C   0  0  0  0  0  0  0  0  0  0  0  0
   -5.3844    0.2586    0.0353 C   0  0  0  0  0  0  0  0  0  0  0  0
   -4.8056   -1.9962   -0.6718 C   0  0  0  0  0  0  0  0  0  0  0  0
   -6.7395   -0.0519   -0.1643 C   0  0  0  0  0  0  0  0  0  0  0  0
   -6.1564   -2.2874   -0.8647 C   0  0  0  0  0  0  0  0  0  0  0  0
   -7.1214   -1.3171   -0.6116 C   0  0  0  0  0  0  0  0  0  0  0  0
    3.6743    3.4729   -1.6516 H   0  0  0  0  0  0  0  0  0  0  0  0
    3.1637    2.1341    2.3543 H   0  0  0  0  0  0  0  0  0  0  0  0
    3.0107    3.9757    0.7056 H   0  0  0  0  0  0  0  0  0  0  0  0
    4.5911    3.1949    0.6367 H   0  0  0  0  0  0  0  0  0  0  0  0
    5.1109    1.5412   -1.2920 H   0  0  0  0  0  0  0  0  0  0  0  0
    3.8028    1.1177   -2.4127 H   0  0  0  0  0  0  0  0  0  0  0  0
    3.4110   -0.2185    1.5937 H   0  0  0  0  0  0  0  0  0  0  0  0
    4.8445    0.7475    1.2042 H   0  0  0  0  0  0  0  0  0  0  0  0
    1.5694    2.0533   -2.2006 H   0  0  0  0  0  0  0  0  0  0  0  0
    1.3624    3.5813   -1.3673 H   0  0  0  0  0  0  0  0  0  0  0  0
    1.1265    0.9724    3.0299 H   0  0  0  0  0  0  0  0  0  0  0  0
   -1.2278    0.5297    2.6561 H   0  0  0  0  0  0  0  0  0  0  0  0
    4.6004   -3.3937    1.4474 H   0  0  0  0  0  0  0  0  0  0  0  0
   -2.2871   -1.1720   -0.2202 H   0  0  0  0  0  0  0  0  0  0  0  0
   -3.3482    2.8087    1.0250 H   0  0  0  0  0  0  0  0  0  0  0  0
    2.5299   -4.8509    2.2314 H   0  0  0  0  0  0  0  0  0  0  0  0
    0.3785   -4.2689    0.8297 H   0  0  0  0  0  0  0  0  0  0  0  0
   -5.7187    2.3006    0.6890 H   0  0  0  0  0  0  0  0  0  0  0  0
   -4.0686   -2.7701   -0.8760 H   0  0  0  0  0  0  0  0  0  0  0  0
   -7.5109    0.6911    0.0274 H   0  0  0  0  0  0  0  0  0  0  0  0
   -6.4544   -3.2722   -1.2127 H   0  0  0  0  0  0  0  0  0  0  0  0
   -8.1727   -1.5444   -0.7621 H   0  0  0  0  0  0  0  0  0  0  0  0
  1  3  2  0  0  0  0
  1  4  2  0  0  0  0
  1  6  1  0  0  0  0
  1 19  1  0  0  0  0
  2 19  1  0  0  0  0
  2 25  1  0  0  0  0
  5 16  2  0  0  0  0
  6 11  1  0  0  0  0
  6 12  1  0  0  0  0
  7 13  1  0  0  0  0
  7 14  1  0  0  0  0
  7 16  1  0  0  0  0
  8 10  1  0  0  0  0
  8 11  1  0  0  0  0
  8 13  1  0  0  0  0
  8 33  1  0  0  0  0
  9 10  1  0  0  0  0
  9 12  1  0  0  0  0
  9 14  1  0  0  0  0
  9 34  1  0  0  0  0
 10 35  1  0  0  0  0
 10 36  1  0  0  0  0
 11 37  1  0  0  0  0
 11 38  1  0  0  0  0
 12 39  1  0  0  0  0
 12 40  1  0  0  0  0
 13 41  1  0  0  0  0
 13 42  1  0  0  0  0
 14 15  2  0  0  0  0
 15 18  1  0  0  0  0
 15 43  1  0  0  0  0
 16 17  1  0  0  0  0
 17 18  2  0  0  0  0
 17 20  1  0  0  0  0
 18 44  1  0  0  0  0
 19 21  2  0  0  0  0
 20 22  2  0  0  0  0
 20 23  1  0  0  0  0
 21 24  1  0  0  0  0
 21 45  1  0  0  0  0
 22 26  1  0  0  0  0
 22 46  1  0  0  0  0
 23 27  2  0  0  0  0
 23 47  1  0  0  0  0
 24 25  2  0  0  0  0
 24 48  1  0  0  0  0
 25 49  1  0  0  0  0
 26 28  1  0  0  0  0
 26 29  2  0  0  0  0
 27 28  1  0  0  0  0
 27 50  1  0  0  0  0
 28 30  2  0  0  0  0
 29 31  1  0  0  0  0
 29 51  1  0  0  0  0
 30 32  1  0  0  0  0
 30 52  1  0  0  0  0
 31 32  2  0  0  0  0
 31 53  1  0  0  0  0
 32 54  1  0  0  0  0
M  END
> <PUBCHEM_COMPOUND_CID>
11885156

> <PUBCHEM_CONFORMER_RMSD>
0.8

> <PUBCHEM_CONFORMER_DIVERSEORDER>
1
34
29
11
30
26
6
32
23
31
7
24
12
19
25
22
4
16
28
35
14
20
9
33
2
27
17
5
13
8
18
10
15
3
21

> <PUBCHEM_MMFF94_PARTIAL_CHARGES>
40
1 1.5
11 0.36
12 0.36
13 0.3
14 -0.03
15 -0.15
16 0.62
17 -0.01
18 -0.15
19 -0.02
2 -0.08
20 0.03
21 -0.15
22 -0.15
23 -0.15
24 -0.15
25 -0.11
27 -0.15
29 -0.15
3 -0.65
30 -0.15
31 -0.15
32 -0.15
4 -0.65
43 0.15
44 0.15
45 0.15
46 0.15
47 0.15
48 0.15
49 0.15
5 -0.57
50 0.15
51 0.15
52 0.15
53 0.15
54 0.15
6 -0.85
7 -0.47
9 0.14

> <PUBCHEM_EFFECTIVE_ROTOR_COUNT>
4

> <PUBCHEM_PHARMACOPHORE_FEATURES>
9
1 3 acceptor
1 4 acceptor
1 5 acceptor
5 2 19 21 24 25 rings
6 20 22 23 26 27 28 rings
6 26 28 29 30 31 32 rings
6 6 8 9 10 11 12 rings
6 7 14 15 16 17 18 rings
6 7 8 9 10 13 14 rings

> <PUBCHEM_HEAVY_ATOM_COUNT>
32

> <PUBCHEM_ATOM_DEF_STEREO_COUNT>
2

> <PUBCHEM_ATOM_UDEF_STEREO_COUNT>
0

> <PUBCHEM_BOND_DEF_STEREO_COUNT>
0

> <PUBCHEM_BOND_UDEF_STEREO_COUNT>
0

> <PUBCHEM_ISOTOPIC_ATOM_COUNT>
0

> <PUBCHEM_COMPONENT_COUNT>
1

> <PUBCHEM_CACTVS_TAUTO_COUNT>
1

> <PUBCHEM_CONFORMER_ID>
00B55A6400000001

> <PUBCHEM_MMFF94_ENERGY>
80.8694

> <PUBCHEM_FEATURE_SELFOVERLAP>
47.302

> <PUBCHEM_SHAPE_FINGERPRINT>
11186622 123 18270955860259315167
117089 54 17272875112074460382
11796584 16 18059299747168187085
11963148 33 18123740122903914927
12107183 9 18052823542545882249
12236239 1 18115016528929104753
12522641 33 18337388374463634592
13150687 139 17898309414408556316
13533116 47 18271807955911016121
1361 2 18261958556313402700
13617811 41 18264761229402671389
13782708 43 17131551760758198925
14068700 675 18270402681619580394
14347332 77 18411416186106604065
15001296 14 18271801384706213511
15183329 4 18335983151527157581
15250474 111 18341892979076013355
15799311 1 18340782519740013531
16114785 44 15689797523737434592
17138139 8 17915457418200966790
17492 54 18116738303987002366
18365409 1 17833273403749310926
19026451 147 18337952269188698058
19315092 285 18273210885123415552
19319366 153 18268983348882975942
19958102 18 18335972130814811911
20028762 73 18343585118871248622
20567600 247 18410293584127613275
20775438 99 18261666077583702619
20775530 9 17755307768980074858
21703447 108 18273205400545734832
23516275 137 17200831983090817575
23559900 14 18271518707207082273
23569914 152 17322353071453225879
25222932 49 17345461772931225149
3004659 81 18342740701902543257
338550 245 18340484559887627374
4073 2 18338237201761001905
4340502 62 17987792050947320960
439807 62 18413110567884621847
444735 86 18128804412883016215
4573279 79 15505155071237432210
46194498 28 17822009843362637581
463206 1 18341895224721605474
484989 97 18264223563368405330
5104073 3 17203616995105317937
5309563 4 18337954476701134956
5326457 24 18411700993866841793
6086070 43 17203605983389445625
7970288 3 17769667399407892678

> <PUBCHEM_SHAPE_MULTIPOLES>
638.67
14.47
4.61
1.57
24.29
3.65
0.04
5.69
-3.69
-5.37
0.64
-1.41
-0.16
-1.5

> <PUBCHEM_SHAPE_SELFOVERLAP>
1400.061

> <PUBCHEM_SHAPE_VOLUME>
345.4

> <PUBCHEM_COORDINATE_TYPE>
2
5
10

$$$$
