25314937
  -OEChem-12032416413D

 54 57  0     1  0  0  0  0  0999 V2000
    2.3578    0.7784   -1.6412 O   0  0  0  0  0  0  0  0  0  0  0  0
    4.1014    1.5252   -0.3060 O   0  0  0  0  0  0  0  0  0  0  0  0
    2.4774    1.6725    2.0693 O   0  0  0  0  0  0  0  0  0  0  0  0
    1.4988   -4.1927   -0.0111 O   0  0  0  0  0  0  0  0  0  0  0  0
   -1.4912    2.3243    1.3214 O   0  0  0  0  0  0  0  0  0  0  0  0
    1.8543   -1.3757    0.1874 N   0  0  0  0  0  0  0  0  0  0  0  0
   -0.2141    1.2978   -0.3207 N   0  0  0  0  0  0  0  0  0  0  0  0
   -2.4852    0.9689   -0.2802 N   0  0  0  0  0  0  0  0  0  0  0  0
    2.6267   -0.1895    0.5511 C   0  0  2  0  0  0  0  0  0  0  0  0
    1.0655    1.8207    0.1075 C   0  0  1  0  0  0  0  0  0  0  0  0
    1.6973    0.8843    1.1608 C   0  0  2  0  0  0  0  0  0  0  0  0
    1.9715    2.0536   -1.1192 C   0  0  1  0  0  0  0  0  0  0  0  0
    3.3487    0.3631   -0.6915 C   0  0  1  0  0  0  0  0  0  0  0  0
    3.3309    2.6382   -0.7846 C   0  0  0  0  0  0  0  0  0  0  0  0
    1.5758   -2.2003    1.3714 C   0  0  0  0  0  0  0  0  0  0  0  0
    2.5644   -2.1707   -0.8241 C   0  0  0  0  0  0  0  0  0  0  0  0
   -3.8474    1.1027    0.1865 C   0  0  0  0  0  0  0  0  0  0  0  0
    0.7805   -3.4379    0.9654 C   0  0  0  0  0  0  0  0  0  0  0  0
    1.7449   -3.4082   -1.1786 C   0  0  0  0  0  0  0  0  0  0  0  0
   -1.4047    1.5981    0.3321 C   0  0  0  0  0  0  0  0  0  0  0  0
   -4.8386    1.0321   -0.9800 C   0  0  0  0  0  0  0  0  0  0  0  0
   -4.1698    0.0516    1.2540 C   0  0  0  0  0  0  0  0  0  0  0  0
   -4.9601   -0.3772   -1.5597 C   0  0  0  0  0  0  0  0  0  0  0  0
   -4.2924   -1.3560    0.6705 C   0  0  0  0  0  0  0  0  0  0  0  0
   -5.2924   -1.4033   -0.4807 C   0  0  0  0  0  0  0  0  0  0  0  0
    3.4075   -0.4435    1.2828 H   0  0  0  0  0  0  0  0  0  0  0  0
    0.8757    2.7999    0.5660 H   0  0  0  0  0  0  0  0  0  0  0  0
    0.9171    0.4380    1.7857 H   0  0  0  0  0  0  0  0  0  0  0  0
    1.4521    2.6344   -1.8884 H   0  0  0  0  0  0  0  0  0  0  0  0
    4.0734   -0.3143   -1.1501 H   0  0  0  0  0  0  0  0  0  0  0  0
    3.8301    3.0092   -1.6862 H   0  0  0  0  0  0  0  0  0  0  0  0
    3.3030    3.4375   -0.0393 H   0  0  0  0  0  0  0  0  0  0  0  0
   -0.2329    0.6257   -1.0818 H   0  0  0  0  0  0  0  0  0  0  0  0
    0.9943   -1.6544    2.1203 H   0  0  0  0  0  0  0  0  0  0  0  0
    2.5154   -2.5185    1.8423 H   0  0  0  0  0  0  0  0  0  0  0  0
    3.5495   -2.4843   -0.4543 H   0  0  0  0  0  0  0  0  0  0  0  0
    2.6790   -1.6551   -1.7814 H   0  0  0  0  0  0  0  0  0  0  0  0
    1.8776    2.3067    2.4978 H   0  0  0  0  0  0  0  0  0  0  0  0
   -3.9349    2.0939    0.6487 H   0  0  0  0  0  0  0  0  0  0  0  0
    0.6253   -4.0835    1.8357 H   0  0  0  0  0  0  0  0  0  0  0  0
   -0.2073   -3.1717    0.5694 H   0  0  0  0  0  0  0  0  0  0  0  0
    0.7896   -3.1417   -1.6476 H   0  0  0  0  0  0  0  0  0  0  0  0
    2.2983   -4.0332   -1.8871 H   0  0  0  0  0  0  0  0  0  0  0  0
   -4.5417    1.7273   -1.7744 H   0  0  0  0  0  0  0  0  0  0  0  0
   -5.8269    1.3546   -0.6280 H   0  0  0  0  0  0  0  0  0  0  0  0
   -5.1193    0.3155    1.7372 H   0  0  0  0  0  0  0  0  0  0  0  0
   -3.4046    0.0527    2.0395 H   0  0  0  0  0  0  0  0  0  0  0  0
   -2.2922    0.3326   -1.0473 H   0  0  0  0  0  0  0  0  0  0  0  0
   -4.0269   -0.6602   -2.0606 H   0  0  0  0  0  0  0  0  0  0  0  0
   -5.7427   -0.3886   -2.3271 H   0  0  0  0  0  0  0  0  0  0  0  0
   -4.6051   -2.0524    1.4569 H   0  0  0  0  0  0  0  0  0  0  0  0
   -3.3113   -1.6970    0.3178 H   0  0  0  0  0  0  0  0  0  0  0  0
   -6.3012   -1.2117   -0.0945 H   0  0  0  0  0  0  0  0  0  0  0  0
   -5.3043   -2.4080   -0.9181 H   0  0  0  0  0  0  0  0  0  0  0  0
  1 12  1  0  0  0  0
  1 13  1  0  0  0  0
  2 13  1  0  0  0  0
  2 14  1  0  0  0  0
  3 11  1  0  0  0  0
  3 38  1  0  0  0  0
  4 18  1  0  0  0  0
  4 19  1  0  0  0  0
  5 20  2  0  0  0  0
  6  9  1  0  0  0  0
  6 15  1  0  0  0  0
  6 16  1  0  0  0  0
  7 10  1  0  0  0  0
  7 20  1  0  0  0  0
  7 33  1  0  0  0  0
  8 17  1  0  0  0  0
  8 20  1  0  0  0  0
  8 48  1  0  0  0  0
  9 11  1  0  0  0  0
  9 13  1  0  0  0  0
  9 26  1  0  0  0  0
 10 11  1  0  0  0  0
 10 12  1  0  0  0  0
 10 27  1  0  0  0  0
 11 28  1  0  0  0  0
 12 14  1  0  0  0  0
 12 29  1  0  0  0  0
 13 30  1  0  0  0  0
 14 31  1  0  0  0  0
 14 32  1  0  0  0  0
 15 18  1  0  0  0  0
 15 34  1  0  0  0  0
 15 35  1  0  0  0  0
 16 19  1  0  0  0  0
 16 36  1  0  0  0  0
 16 37  1  0  0  0  0
 17 21  1  0  0  0  0
 17 22  1  0  0  0  0
 17 39  1  0  0  0  0
 18 40  1  0  0  0  0
 18 41  1  0  0  0  0
 19 42  1  0  0  0  0
 19 43  1  0  0  0  0
 21 23  1  0  0  0  0
 21 44  1  0  0  0  0
 21 45  1  0  0  0  0
 22 24  1  0  0  0  0
 22 46  1  0  0  0  0
 22 47  1  0  0  0  0
 23 25  1  0  0  0  0
 23 49  1  0  0  0  0
 23 50  1  0  0  0  0
 24 25  1  0  0  0  0
 24 51  1  0  0  0  0
 24 52  1  0  0  0  0
 25 53  1  0  0  0  0
 25 54  1  0  0  0  0
M  END
> <PUBCHEM_COMPOUND_CID>
25314937

> <PUBCHEM_CONFORMER_RMSD>
1

> <PUBCHEM_CONFORMER_DIVERSEORDER>
1
16
25
9
26
33
10
21
34
29
3
31
7
30
8
19
27
18
24
28
6
22
13
14
35
23
17
15
2
5
12
11
20
32
4

> <PUBCHEM_MMFF94_PARTIAL_CHARGES>
23
1 -0.56
10 0.3
11 0.28
12 0.28
13 0.56
14 0.28
15 0.27
16 0.27
17 0.3
18 0.28
19 0.28
2 -0.56
20 0.69
3 -0.68
33 0.37
38 0.4
4 -0.56
48 0.37
5 -0.57
6 -0.81
7 -0.73
8 -0.73
9 0.27

> <PUBCHEM_EFFECTIVE_ROTOR_COUNT>
8.6

> <PUBCHEM_PHARMACOPHORE_FEATURES>
12
1 1 acceptor
1 2 acceptor
1 3 acceptor
1 3 donor
1 4 acceptor
1 5 acceptor
1 6 cation
1 7 donor
1 8 donor
6 17 21 22 23 24 25 rings
6 4 6 15 16 18 19 rings
8 1 2 9 10 11 12 13 14 rings

> <PUBCHEM_HEAVY_ATOM_COUNT>
25

> <PUBCHEM_ATOM_DEF_STEREO_COUNT>
5

> <PUBCHEM_ATOM_UDEF_STEREO_COUNT>
0

> <PUBCHEM_BOND_DEF_STEREO_COUNT>
0

> <PUBCHEM_BOND_UDEF_STEREO_COUNT>
0

> <PUBCHEM_ISOTOPIC_ATOM_COUNT>
0

> <PUBCHEM_COMPONENT_COUNT>
1

> <PUBCHEM_CACTVS_TAUTO_COUNT>
3

> <PUBCHEM_CONFORMER_ID>
0182467900000001

> <PUBCHEM_MMFF94_ENERGY>
53.2224

> <PUBCHEM_FEATURE_SELFOVERLAP>
60.999

> <PUBCHEM_SHAPE_FINGERPRINT>
10074138 170 17191181711673592688
11069576 57 18269537391448726839
11315621 136 18410015411954840887
11370993 70 18115026419536556733
11421498 54 18130518469394527224
12553582 1 17542233354276322115
12788726 201 17631182883671760449
13150687 139 18044390541785114020
13224815 77 18342177782599637365
13402501 40 17972048195689329403
13533116 47 18271804576346513849
13583140 156 18059558179925273885
14251757 17 18113337484278334547
14844126 61 16241521986750060074
14863182 85 18411692205983920368
14950920 106 10303249244082510517
15238133 3 11527678508844738984
15537594 2 18201724007189105895
17134984 74 18055044801100242591
17138139 8 17841414136576362383
17492 54 17970089798092177446
17818456 19 17626386723630643281
18681886 176 18189332540861324632
20028762 73 18342455937646230574
20567600 347 18410290341559323002
20645477 70 18334010579994863221
20775530 9 17978795605884435499
21054139 6 18340761654018697845
21285901 2 17895174594766096973
21315764 371 17987224707088757771
235170 7 17748820826606479733
23559900 14 18335977559015351869
238 59 18334869315429049610
25222932 49 18058159704498496591
3052486 1 17977375359041567802
3060560 45 18187085083306665452
4280585 95 17829884339677816290
463206 1 18269549602341396399
9709674 26 18261958449287061643

> <PUBCHEM_SHAPE_MULTIPOLES>
470.2
9.74
4.14
1.51
14.75
4.21
0.16
-0.89
-2.28
-3.83
-0.09
-0.09
-0.07
-0.2

> <PUBCHEM_SHAPE_SELFOVERLAP>
984.014

> <PUBCHEM_SHAPE_VOLUME>
260.7

> <PUBCHEM_COORDINATE_TYPE>
2
5
10

$$$$
