7142707
  -OEChem-12032416113D

 59 62  0     1  0  0  0  0  0999 V2000
    8.2858   -0.7594    1.0525 F   0  0  0  0  0  0  0  0  0  0  0  0
   -3.8238   -1.4671    1.6934 O   0  0  0  0  0  0  0  0  0  0  0  0
    0.5138    1.6689    1.8647 O   0  0  0  0  0  0  0  0  0  0  0  0
    2.6928   -0.6674   -1.7823 O   0  0  0  0  0  0  0  0  0  0  0  0
   -3.9970    0.2656    0.1549 N   0  0  0  0  0  0  0  0  0  0  0  0
   -1.2448    1.8823    0.3408 N   0  0  0  0  0  0  0  0  0  0  0  0
    2.2884    0.8512   -0.0674 N   0  0  0  0  0  0  0  0  0  0  0  0
   -3.6093    2.5686    1.0417 C   0  0  1  0  0  0  0  0  0  0  0  0
   -3.1309    2.0738   -1.3190 C   0  0  2  0  0  0  0  0  0  0  0  0
   -3.7184    3.1203   -0.3745 C   0  0  0  0  0  0  0  0  0  0  0  0
   -4.3887    1.2479    1.1675 C   0  0  0  0  0  0  0  0  0  0  0  0
   -3.9523    0.7731   -1.2246 C   0  0  0  0  0  0  0  0  0  0  0  0
   -2.1270    2.3990    1.3955 C   0  0  0  0  0  0  0  0  0  0  0  0
   -1.6782    1.7907   -0.9857 C   0  0  0  0  0  0  0  0  0  0  0  0
   -3.7819   -1.0610    0.5292 C   0  0  0  0  0  0  0  0  0  0  0  0
   -0.8201    1.4262   -1.9534 C   0  0  0  0  0  0  0  0  0  0  0  0
    0.0818    1.5861    0.7141 C   0  0  0  0  0  0  0  0  0  0  0  0
   -3.4740   -2.0345   -0.5802 C   0  0  0  0  0  0  0  0  0  0  0  0
   -3.3051   -3.4798   -0.0778 C   0  0  0  0  0  0  0  0  0  0  0  0
    0.9996    1.1598   -0.3896 C   0  0  0  0  0  0  0  0  0  0  0  0
    0.5446    1.1038   -1.6459 C   0  0  0  0  0  0  0  0  0  0  0  0
   -2.1583   -3.5827    0.9423 C   0  0  0  0  0  0  0  0  0  0  0  0
   -3.0393   -4.4460   -1.2448 C   0  0  0  0  0  0  0  0  0  0  0  0
   -4.6166   -3.8953    0.6147 C   0  0  0  0  0  0  0  0  0  0  0  0
    3.0623   -0.0489   -0.7871 C   0  0  0  0  0  0  0  0  0  0  0  0
    4.4524   -0.2389   -0.2972 C   0  0  0  0  0  0  0  0  0  0  0  0
    5.4271   -0.6240   -1.1937 C   0  0  0  0  0  0  0  0  0  0  0  0
    4.7233   -0.0227    1.0378 C   0  0  0  0  0  0  0  0  0  0  0  0
    6.7323   -0.8011   -0.7343 C   0  0  0  0  0  0  0  0  0  0  0  0
    6.0285   -0.1996    1.4972 C   0  0  0  0  0  0  0  0  0  0  0  0
    7.0330   -0.5889    0.6112 C   0  0  0  0  0  0  0  0  0  0  0  0
   -4.0513    3.2816    1.7487 H   0  0  0  0  0  0  0  0  0  0  0  0
   -3.2074    2.4578   -2.3446 H   0  0  0  0  0  0  0  0  0  0  0  0
   -4.7664    3.3212   -0.6281 H   0  0  0  0  0  0  0  0  0  0  0  0
   -3.1783    4.0713   -0.4619 H   0  0  0  0  0  0  0  0  0  0  0  0
   -4.2709    0.8342    2.1747 H   0  0  0  0  0  0  0  0  0  0  0  0
   -5.4600    1.4351    1.0233 H   0  0  0  0  0  0  0  0  0  0  0  0
   -4.9907    0.9619   -1.5241 H   0  0  0  0  0  0  0  0  0  0  0  0
   -3.5542    0.0309   -1.9198 H   0  0  0  0  0  0  0  0  0  0  0  0
   -1.7171    3.3813    1.6677 H   0  0  0  0  0  0  0  0  0  0  0  0
   -2.0138    1.7684    2.2864 H   0  0  0  0  0  0  0  0  0  0  0  0
   -1.1345    1.3411   -2.9884 H   0  0  0  0  0  0  0  0  0  0  0  0
   -4.2849   -1.9943   -1.3178 H   0  0  0  0  0  0  0  0  0  0  0  0
   -2.5461   -1.7162   -1.0709 H   0  0  0  0  0  0  0  0  0  0  0  0
    1.1579    0.8645   -2.5060 H   0  0  0  0  0  0  0  0  0  0  0  0
   -1.9170   -4.6354    1.1356 H   0  0  0  0  0  0  0  0  0  0  0  0
   -2.3688   -3.1478    1.9212 H   0  0  0  0  0  0  0  0  0  0  0  0
   -1.2479   -3.1131    0.5523 H   0  0  0  0  0  0  0  0  0  0  0  0
   -3.8556   -4.4148   -1.9751 H   0  0  0  0  0  0  0  0  0  0  0  0
   -2.1139   -4.1793   -1.7674 H   0  0  0  0  0  0  0  0  0  0  0  0
   -2.9408   -5.4806   -0.8978 H   0  0  0  0  0  0  0  0  0  0  0  0
   -4.6348   -4.9833    0.7598 H   0  0  0  0  0  0  0  0  0  0  0  0
   -4.7721   -3.4747    1.6101 H   0  0  0  0  0  0  0  0  0  0  0  0
   -5.4888   -3.6471   -0.0014 H   0  0  0  0  0  0  0  0  0  0  0  0
    2.6069    1.2104    0.8259 H   0  0  0  0  0  0  0  0  0  0  0  0
    5.2110   -0.7878   -2.2452 H   0  0  0  0  0  0  0  0  0  0  0  0
    3.9713    0.2371    1.7742 H   0  0  0  0  0  0  0  0  0  0  0  0
    7.5150   -1.1028   -1.4241 H   0  0  0  0  0  0  0  0  0  0  0  0
    6.2617   -0.0442    2.5465 H   0  0  0  0  0  0  0  0  0  0  0  0
  1 31  1  0  0  0  0
  2 15  2  0  0  0  0
  3 17  2  0  0  0  0
  4 25  2  0  0  0  0
  5 11  1  0  0  0  0
  5 12  1  0  0  0  0
  5 15  1  0  0  0  0
  6 13  1  0  0  0  0
  6 14  1  0  0  0  0
  6 17  1  0  0  0  0
  7 20  1  0  0  0  0
  7 25  1  0  0  0  0
  7 55  1  0  0  0  0
  8 10  1  0  0  0  0
  8 11  1  0  0  0  0
  8 13  1  0  0  0  0
  8 32  1  0  0  0  0
  9 10  1  0  0  0  0
  9 12  1  0  0  0  0
  9 14  1  0  0  0  0
  9 33  1  0  0  0  0
 10 34  1  0  0  0  0
 10 35  1  0  0  0  0
 11 36  1  0  0  0  0
 11 37  1  0  0  0  0
 12 38  1  0  0  0  0
 12 39  1  0  0  0  0
 13 40  1  0  0  0  0
 13 41  1  0  0  0  0
 14 16  2  0  0  0  0
 15 18  1  0  0  0  0
 16 21  1  0  0  0  0
 16 42  1  0  0  0  0
 17 20  1  0  0  0  0
 18 19  1  0  0  0  0
 18 43  1  0  0  0  0
 18 44  1  0  0  0  0
 19 22  1  0  0  0  0
 19 23  1  0  0  0  0
 19 24  1  0  0  0  0
 20 21  2  0  0  0  0
 21 45  1  0  0  0  0
 22 46  1  0  0  0  0
 22 47  1  0  0  0  0
 22 48  1  0  0  0  0
 23 49  1  0  0  0  0
 23 50  1  0  0  0  0
 23 51  1  0  0  0  0
 24 52  1  0  0  0  0
 24 53  1  0  0  0  0
 24 54  1  0  0  0  0
 25 26  1  0  0  0  0
 26 27  2  0  0  0  0
 26 28  1  0  0  0  0
 27 29  1  0  0  0  0
 27 56  1  0  0  0  0
 28 30  2  0  0  0  0
 28 57  1  0  0  0  0
 29 31  2  0  0  0  0
 29 58  1  0  0  0  0
 30 31  1  0  0  0  0
 30 59  1  0  0  0  0
M  END
> <PUBCHEM_COMPOUND_CID>
7142707

> <PUBCHEM_CONFORMER_RMSD>
0.8

> <PUBCHEM_CONFORMER_DIVERSEORDER>
1
15
20
7
24
4
22
16
23
9
14
21
13
2
18
12
25
17
6
11
5
19
10
8
3

> <PUBCHEM_MMFF94_PARTIAL_CHARGES>
32
1 -0.19
11 0.3
12 0.3
13 0.3
14 -0.03
15 0.57
16 -0.15
17 0.62
18 0.06
2 -0.57
20 0.12
21 -0.15
25 0.54
26 0.09
27 -0.15
28 -0.15
29 -0.15
3 -0.57
30 -0.15
31 0.19
4 -0.57
42 0.15
45 0.15
5 -0.66
55 0.37
56 0.15
57 0.15
58 0.15
59 0.15
6 -0.47
7 -0.54
9 0.14

> <PUBCHEM_EFFECTIVE_ROTOR_COUNT>
7

> <PUBCHEM_PHARMACOPHORE_FEATURES>
9
1 2 acceptor
1 3 acceptor
1 4 acceptor
1 7 donor
4 19 22 23 24 hydrophobe
6 26 27 28 29 30 31 rings
6 5 8 9 10 11 12 rings
6 6 14 16 17 20 21 rings
6 6 8 9 10 13 14 rings

> <PUBCHEM_HEAVY_ATOM_COUNT>
31

> <PUBCHEM_ATOM_DEF_STEREO_COUNT>
2

> <PUBCHEM_ATOM_UDEF_STEREO_COUNT>
0

> <PUBCHEM_BOND_DEF_STEREO_COUNT>
0

> <PUBCHEM_BOND_UDEF_STEREO_COUNT>
0

> <PUBCHEM_ISOTOPIC_ATOM_COUNT>
0

> <PUBCHEM_COMPONENT_COUNT>
1

> <PUBCHEM_CACTVS_TAUTO_COUNT>
2

> <PUBCHEM_CONFORMER_ID>
006CFD3300000001

> <PUBCHEM_MMFF94_ENERGY>
96.1127

> <PUBCHEM_FEATURE_SELFOVERLAP>
47.234

> <PUBCHEM_SHAPE_FINGERPRINT>
10319688 45 18334011691996274092
10483366 6 18336247021902654815
10622 236 18043531813843570639
11135609 149 17336161129491577215
11445158 3 14563972137890875111
11524674 6 18339923715074641205
12523318 42 18411699876574081641
12712778 12 18411421730091705742
12990986 174 18340490083537492047
13009979 54 18189907585357430709
13631057 29 18408600392055744178
14020679 6 17702675345722885761
14068700 675 18262517125795827799
14114206 34 16660911275464987741
14114207 22 17533200991568206351
14251751 18 18409166645144575008
14659021 117 18263358264495853227
14725015 67 18267020738324521907
14844126 61 18411702114737606139
14856354 85 18341896277368499100
15021287 119 16877667851134951310
15183329 4 12107790696900038744
15320294 125 18186807971805945223
15348495 7 18272928332806427488
15484559 13 13634724017597863726
17780758 139 18412545413953399777
17913733 40 16845856776541765606
19611394 137 18131348640329939000
20775530 9 17834973231963123599
22956985 138 17908980251047310833
23402539 116 16081376206998892996
23428019 142 17676488397132032154
23516275 137 17755320984620786962
23559900 14 18339354266287964736
23569943 247 14763235411271620884
249057 3 18187643570631226709
2838139 119 8646501678248128870
3383291 50 18342461456964068111
397830 11 18270952557898599608
4073 2 18201158763717678582
4403749 210 18272076219984711468
484985 159 18333724745922175319
49967989 163 18042425667467683686
5080951 261 18187632596804402060
5364581 5 18200867495899789064
68570916 9 18260830423983733620
9953998 17 18412260615094229400

> <PUBCHEM_SHAPE_MULTIPOLES>
598.14
15.83
4.48
1.74
37.39
4.98
0.09
7.19
-3.54
-10.38
-0.07
0.08
-0.36
0.11

> <PUBCHEM_SHAPE_SELFOVERLAP>
1294.205

> <PUBCHEM_SHAPE_VOLUME>
327.1

> <PUBCHEM_COORDINATE_TYPE>
2
5
10

$$$$
