45783893
  -OEChem-12032416273D

 64 67  0     1  0  0  0  0  0999 V2000
    5.7324    1.1117   -0.1299 O   0  0  0  0  0  0  0  0  0  0  0  0
   -1.4607   -0.7372    0.6205 N   0  0  0  0  0  0  0  0  0  0  0  0
   -4.1755    0.1116    0.3580 N   0  0  0  0  0  0  0  0  0  0  0  0
    4.3067    2.2941    1.1247 N   0  0  0  0  0  0  0  0  0  0  0  0
    5.0346    3.1813    0.3539 N   0  0  0  0  0  0  0  0  0  0  0  0
   -6.3164   -0.2610   -0.4978 N   0  0  0  0  0  0  0  0  0  0  0  0
   -5.7391    1.8372    0.5375 N   0  0  0  0  0  0  0  0  0  0  0  0
    1.1170   -0.8065   -0.7739 C   0  0  1  0  0  0  0  0  0  0  0  0
    0.6007   -1.9786    0.0928 C   0  0  2  0  0  0  0  0  0  0  0  0
    2.2545   -0.0669   -0.0558 C   0  0  0  0  0  0  0  0  0  0  0  0
    3.4366   -0.9843    0.3240 C   0  0  2  0  0  0  0  0  0  0  0  0
    1.5585   -1.2894   -2.1622 C   0  0  0  0  0  0  0  0  0  0  0  0
   -0.3480   -1.4934    1.1937 C   0  0  0  0  0  0  0  0  0  0  0  0
    1.7190   -2.7736    0.7171 C   0  0  0  0  0  0  0  0  0  0  0  0
    2.9932   -2.3527    0.8189 C   0  0  0  0  0  0  0  0  0  0  0  0
    4.3258   -0.2450    1.3316 C   0  0  0  0  0  0  0  0  0  0  0  0
    2.4484   -0.2461   -2.8300 C   0  0  0  0  0  0  0  0  0  0  0  0
    0.3425   -1.5984   -3.0297 C   0  0  0  0  0  0  0  0  0  0  0  0
   -2.4733   -1.6476    0.0714 C   0  0  0  0  0  0  0  0  0  0  0  0
   -2.0688    0.1328    1.6344 C   0  0  0  0  0  0  0  0  0  0  0  0
    4.0493   -3.2633    1.3827 C   0  0  0  0  0  0  0  0  0  0  0  0
   -3.6161   -0.8675   -0.5824 C   0  0  0  0  0  0  0  0  0  0  0  0
   -3.1991    0.9720    1.0334 C   0  0  0  0  0  0  0  0  0  0  0  0
    4.7472    1.0986    0.8092 C   0  0  0  0  0  0  0  0  0  0  0  0
   -5.4709    0.5847    0.1215 C   0  0  0  0  0  0  0  0  0  0  0  0
    5.8539    2.4473   -0.3621 C   0  0  0  0  0  0  0  0  0  0  0  0
    6.8570    2.8592   -1.3519 C   0  0  0  0  0  0  0  0  0  0  0  0
   -7.5561    0.2273   -0.7103 C   0  0  0  0  0  0  0  0  0  0  0  0
   -6.9966    2.2611    0.2935 C   0  0  0  0  0  0  0  0  0  0  0  0
   -7.9567    1.4926   -0.3329 C   0  0  0  0  0  0  0  0  0  0  0  0
    0.3222   -0.0674   -0.9351 H   0  0  0  0  0  0  0  0  0  0  0  0
    0.0587   -2.6890   -0.5389 H   0  0  0  0  0  0  0  0  0  0  0  0
    2.5825    0.8105   -0.6218 H   0  0  0  0  0  0  0  0  0  0  0  0
    1.8349    0.3611    0.8663 H   0  0  0  0  0  0  0  0  0  0  0  0
    4.0385   -1.1703   -0.5746 H   0  0  0  0  0  0  0  0  0  0  0  0
    2.1469   -2.2118   -2.0801 H   0  0  0  0  0  0  0  0  0  0  0  0
    0.2196   -0.8569    1.8860 H   0  0  0  0  0  0  0  0  0  0  0  0
   -0.7104   -2.3354    1.8002 H   0  0  0  0  0  0  0  0  0  0  0  0
    1.4521   -3.7618    1.0858 H   0  0  0  0  0  0  0  0  0  0  0  0
    5.2334   -0.8201    1.5503 H   0  0  0  0  0  0  0  0  0  0  0  0
    3.7992   -0.1069    2.2843 H   0  0  0  0  0  0  0  0  0  0  0  0
    3.4419   -0.1628   -2.3846 H   0  0  0  0  0  0  0  0  0  0  0  0
    2.6234   -0.5226   -3.8771 H   0  0  0  0  0  0  0  0  0  0  0  0
    1.9756    0.7425   -2.8420 H   0  0  0  0  0  0  0  0  0  0  0  0
    0.6555   -1.9068   -4.0336 H   0  0  0  0  0  0  0  0  0  0  0  0
   -0.2631   -2.4128   -2.6238 H   0  0  0  0  0  0  0  0  0  0  0  0
   -0.3025   -0.7199   -3.1415 H   0  0  0  0  0  0  0  0  0  0  0  0
   -2.0461   -2.3011   -0.6958 H   0  0  0  0  0  0  0  0  0  0  0  0
   -2.8808   -2.2955    0.8596 H   0  0  0  0  0  0  0  0  0  0  0  0
   -2.4560   -0.4624    2.4726 H   0  0  0  0  0  0  0  0  0  0  0  0
   -1.3179    0.8213    2.0411 H   0  0  0  0  0  0  0  0  0  0  0  0
    4.4070   -2.8910    2.3476 H   0  0  0  0  0  0  0  0  0  0  0  0
    3.6750   -4.2803    1.5420 H   0  0  0  0  0  0  0  0  0  0  0  0
    4.8978   -3.3333    0.6941 H   0  0  0  0  0  0  0  0  0  0  0  0
   -3.2566   -0.3461   -1.4789 H   0  0  0  0  0  0  0  0  0  0  0  0
   -4.3645   -1.6002   -0.9062 H   0  0  0  0  0  0  0  0  0  0  0  0
   -3.6639    1.5304    1.8552 H   0  0  0  0  0  0  0  0  0  0  0  0
   -2.7948    1.7005    0.3192 H   0  0  0  0  0  0  0  0  0  0  0  0
    7.8559    2.5346   -1.0457 H   0  0  0  0  0  0  0  0  0  0  0  0
    6.6348    2.4217   -2.3297 H   0  0  0  0  0  0  0  0  0  0  0  0
    6.8707    3.9478   -1.4607 H   0  0  0  0  0  0  0  0  0  0  0  0
   -8.2415   -0.4495   -1.2091 H   0  0  0  0  0  0  0  0  0  0  0  0
   -7.2187    3.2694    0.6264 H   0  0  0  0  0  0  0  0  0  0  0  0
   -8.9581    1.8584   -0.5159 H   0  0  0  0  0  0  0  0  0  0  0  0
  1 24  1  0  0  0  0
  1 26  1  0  0  0  0
  2 13  1  0  0  0  0
  2 19  1  0  0  0  0
  2 20  1  0  0  0  0
  3 22  1  0  0  0  0
  3 23  1  0  0  0  0
  3 25  1  0  0  0  0
  4  5  1  0  0  0  0
  4 24  2  0  0  0  0
  5 26  2  0  0  0  0
  6 25  2  0  0  0  0
  6 28  1  0  0  0  0
  7 25  1  0  0  0  0
  7 29  2  0  0  0  0
  8  9  1  0  0  0  0
  8 10  1  0  0  0  0
  8 12  1  0  0  0  0
  8 31  1  0  0  0  0
  9 13  1  0  0  0  0
  9 14  1  0  0  0  0
  9 32  1  0  0  0  0
 10 11  1  0  0  0  0
 10 33  1  0  0  0  0
 10 34  1  0  0  0  0
 11 15  1  0  0  0  0
 11 16  1  0  0  0  0
 11 35  1  0  0  0  0
 12 17  1  0  0  0  0
 12 18  1  0  0  0  0
 12 36  1  0  0  0  0
 13 37  1  0  0  0  0
 13 38  1  0  0  0  0
 14 15  2  0  0  0  0
 14 39  1  0  0  0  0
 15 21  1  0  0  0  0
 16 24  1  0  0  0  0
 16 40  1  0  0  0  0
 16 41  1  0  0  0  0
 17 42  1  0  0  0  0
 17 43  1  0  0  0  0
 17 44  1  0  0  0  0
 18 45  1  0  0  0  0
 18 46  1  0  0  0  0
 18 47  1  0  0  0  0
 19 22  1  0  0  0  0
 19 48  1  0  0  0  0
 19 49  1  0  0  0  0
 20 23  1  0  0  0  0
 20 50  1  0  0  0  0
 20 51  1  0  0  0  0
 21 52  1  0  0  0  0
 21 53  1  0  0  0  0
 21 54  1  0  0  0  0
 22 55  1  0  0  0  0
 22 56  1  0  0  0  0
 23 57  1  0  0  0  0
 23 58  1  0  0  0  0
 26 27  1  0  0  0  0
 27 59  1  0  0  0  0
 27 60  1  0  0  0  0
 27 61  1  0  0  0  0
 28 30  2  0  0  0  0
 28 62  1  0  0  0  0
 29 30  1  0  0  0  0
 29 63  1  0  0  0  0
 30 64  1  0  0  0  0
M  END
> <PUBCHEM_COMPOUND_CID>
45783893

> <PUBCHEM_CONFORMER_RMSD>
1

> <PUBCHEM_CONFORMER_DIVERSEORDER>
9
123
1
100
138
157
25
80
120
27
139
159
50
147
75
55
23
174
168
173
146
45
154
40
68
90
152
177
14
169
87
2
36
26
165
35
84
94
31
175
103
99
76
108
166
82
170
141
66
32
89
135
110
171
160
79
107
126
29
98
172
24
58
54
39
164
83
132
111
151
143
130
6
46
167
7
142
38
28
20
71
119
104
41
19
117
81
57
102
161
85
73
115
47
93
48
69
12
144
149
22
21
125
16
8
105
128
97
37
114
88
15
155
17
11
124
176
92
56
59
127
18
113
118
163
134
60
148
136
63
33
70
5
74
53
137
67
91
43
156
109
145
49
131
4
10
121
3
133
34
62
13
30
78
101
64
44
150
42
86
162
72
96
153
116
51
61
140
112
106
77
122
129
158
52
65
95

> <PUBCHEM_MMFF94_PARTIAL_CHARGES>
29
1 -0.28
11 0.14
13 0.27
14 -0.29
15 -0.28
16 0.18
19 0.27
2 -0.81
20 0.27
21 0.14
22 0.37
23 0.37
24 0.3
25 0.72
26 0.3
27 0.18
28 0.16
29 0.16
3 -0.84
30 -0.15
39 0.15
4 -0.34
5 -0.34
6 -0.62
62 0.15
63 0.15
64 0.15
7 -0.62
9 0.14

> <PUBCHEM_EFFECTIVE_ROTOR_COUNT>
8

> <PUBCHEM_PHARMACOPHORE_FEATURES>
8
1 2 cation
1 7 acceptor
3 12 17 18 hydrophobe
4 3 6 7 25 cation
5 1 4 5 24 26 rings
6 2 3 19 20 22 23 rings
6 6 7 25 28 29 30 rings
6 8 9 10 11 14 15 rings

> <PUBCHEM_HEAVY_ATOM_COUNT>
30

> <PUBCHEM_ATOM_DEF_STEREO_COUNT>
3

> <PUBCHEM_ATOM_UDEF_STEREO_COUNT>
0

> <PUBCHEM_BOND_DEF_STEREO_COUNT>
0

> <PUBCHEM_BOND_UDEF_STEREO_COUNT>
0

> <PUBCHEM_ISOTOPIC_ATOM_COUNT>
0

> <PUBCHEM_COMPONENT_COUNT>
1

> <PUBCHEM_CACTVS_TAUTO_COUNT>
1

> <PUBCHEM_CONFORMER_ID>
02BA9B5500000009

> <PUBCHEM_MMFF94_ENERGY>
69.4275

> <PUBCHEM_FEATURE_SELFOVERLAP>
40.597

> <PUBCHEM_SHAPE_FINGERPRINT>
10006869 2 18411975845993744332
10165383 225 17967818250393469678
10319926 262 12396294864410661647
10411042 1 17832137231067693106
10693767 8 11743845750751346140
10906281 52 17918002655192791243
11297750 10 16952798460162147242
11443803 9 17774996917425251416
12035758 1 15574708114440118543
12236239 1 18338792309310362619
12422481 6 16515956082312774206
12633257 1 15357701923976728611
13533116 47 18114742607892539259
13878862 14 18262780896642829676
14142895 15 18409444822166696469
14400156 96 17894629279199222094
14931854 50 18059585710665563808
15082195 135 17346602949788514251
15183329 4 17917992763878048385
15198563 99 17479452791204637670
15537594 2 14836108937410443485
15840311 113 18261109647305525663
15961568 22 18342181063427806437
17492 54 17846221085189990330
17980427 23 17458907174866481310
20157964 124 18408884010120753267
20642791 268 17676770997785358326
20691028 202 17973727171636408028
21033648 29 17458351852785293498
21298829 104 18335423478212296533
21304303 94 11239703193815857988
21315764 268 18189890920805441017
21344244 181 12967128341160944828
21521239 73 14045751426222101764
21792965 106 17458626636762808917
22149856 69 17824287955269136953
23522609 53 17845666850511566865
23559900 14 17096382639565953203
23569943 247 11311789366814691685
249057 25 17988363637668167731
27425 322 18411980264903662894
2838139 119 18200870790038945096
3103668 31 16556481958766555879
3411729 13 18260545632917717818
3472631 163 18342457041056725119
34797466 226 17917715661240717957
397830 11 17894923940464218019
4073 2 18113901585162029483
44555599 121 18199470957450754537
513532 50 18340216197652001606
56638632 10 17971464359067211740
57359948 33 17201921423906337801

> <PUBCHEM_SHAPE_MULTIPOLES>
581.63
19.63
3.39
1.94
28.56
0.72
1.73
19.12
0.19
-6.05
-0.57
-1.72
-0.71
-1.5

> <PUBCHEM_SHAPE_SELFOVERLAP>
1219.875

> <PUBCHEM_SHAPE_VOLUME>
326.1

> <PUBCHEM_COORDINATE_TYPE>
2
5
10

$$$$
