40777636
  -OEChem-12032416173D

 57 60  0     1  0  0  0  0  0999 V2000
    3.6971    1.9654   -1.5078 O   0  0  0  0  0  0  0  0  0  0  0  0
    8.5968   -1.2678    0.8562 O   0  0  0  0  0  0  0  0  0  0  0  0
    2.6512    0.9528    0.2984 N   0  0  0  0  0  0  0  0  0  0  0  0
   -3.8304   -0.4157   -1.0042 N   0  0  0  0  0  0  0  0  0  0  0  0
   -3.6349   -1.7381   -0.8653 N   0  0  0  0  0  0  0  0  0  0  0  0
   -0.3931   -0.2347    0.2495 C   0  0  2  0  0  0  0  0  0  0  0  0
    0.4523    0.5590   -0.7681 C   0  0  0  0  0  0  0  0  0  0  0  0
    1.3394    1.4943    0.0629 C   0  0  1  0  0  0  0  0  0  0  0  0
   -1.7860   -0.5482   -0.2465 C   0  0  0  0  0  0  0  0  0  0  0  0
   -0.3427    0.6443    1.4654 C   0  0  0  0  0  0  0  0  0  0  0  0
    0.6050    1.5819    1.3602 C   0  0  0  0  0  0  0  0  0  0  0  0
   -2.7531    0.3411   -0.6470 C   0  0  0  0  0  0  0  0  0  0  0  0
   -2.3844   -1.8128   -0.4023 C   0  0  0  0  0  0  0  0  0  0  0  0
   -2.7508    1.8144   -0.7213 C   0  0  0  0  0  0  0  0  0  0  0  0
   -5.1021    0.0614   -1.4958 C   0  0  0  0  0  0  0  0  0  0  0  0
   -1.7940   -3.1328   -0.1183 C   0  0  0  0  0  0  0  0  0  0  0  0
    3.7387    1.2376   -0.5192 C   0  0  0  0  0  0  0  0  0  0  0  0
   -6.1893    0.0509   -0.4502 C   0  0  0  0  0  0  0  0  0  0  0  0
    5.0198    0.5786   -0.1565 C   0  0  0  0  0  0  0  0  0  0  0  0
   -6.8200   -1.1461   -0.1112 C   0  0  0  0  0  0  0  0  0  0  0  0
   -6.5639    1.2387    0.1777 C   0  0  0  0  0  0  0  0  0  0  0  0
    5.9743    0.3207   -1.1403 C   0  0  0  0  0  0  0  0  0  0  0  0
    5.2673    0.2162    1.1675 C   0  0  0  0  0  0  0  0  0  0  0  0
   -7.8255   -1.1553    0.8557 C   0  0  0  0  0  0  0  0  0  0  0  0
   -7.5691    1.2296    1.1447 C   0  0  0  0  0  0  0  0  0  0  0  0
   -8.2001    0.0325    1.4836 C   0  0  0  0  0  0  0  0  0  0  0  0
    7.1763   -0.2999   -0.8003 C   0  0  0  0  0  0  0  0  0  0  0  0
    6.4693   -0.4044    1.5077 C   0  0  0  0  0  0  0  0  0  0  0  0
    7.4237   -0.6624    0.5238 C   0  0  0  0  0  0  0  0  0  0  0  0
    9.5284   -1.5011   -0.1991 C   0  0  0  0  0  0  0  0  0  0  0  0
    0.1230   -1.1720    0.4946 H   0  0  0  0  0  0  0  0  0  0  0  0
   -0.1678    1.1559   -1.4471 H   0  0  0  0  0  0  0  0  0  0  0  0
    1.0347   -0.1184   -1.4048 H   0  0  0  0  0  0  0  0  0  0  0  0
    1.4210    2.4739   -0.4196 H   0  0  0  0  0  0  0  0  0  0  0  0
   -0.9702    0.5142    2.3359 H   0  0  0  0  0  0  0  0  0  0  0  0
    0.8270    2.3067    2.1307 H   0  0  0  0  0  0  0  0  0  0  0  0
    2.7437    0.2665    1.0407 H   0  0  0  0  0  0  0  0  0  0  0  0
   -1.8668    2.2610   -0.2622 H   0  0  0  0  0  0  0  0  0  0  0  0
   -3.6156    2.2359   -0.2001 H   0  0  0  0  0  0  0  0  0  0  0  0
   -2.7803    2.1465   -1.7644 H   0  0  0  0  0  0  0  0  0  0  0  0
   -4.9739    1.0632   -1.9196 H   0  0  0  0  0  0  0  0  0  0  0  0
   -5.3903   -0.5804   -2.3386 H   0  0  0  0  0  0  0  0  0  0  0  0
   -1.5147   -3.2095    0.9375 H   0  0  0  0  0  0  0  0  0  0  0  0
   -2.4914   -3.9480   -0.3386 H   0  0  0  0  0  0  0  0  0  0  0  0
   -0.8955   -3.2901   -0.7238 H   0  0  0  0  0  0  0  0  0  0  0  0
   -6.5433   -2.0783   -0.5959 H   0  0  0  0  0  0  0  0  0  0  0  0
   -6.0846    2.1794   -0.0782 H   0  0  0  0  0  0  0  0  0  0  0  0
    5.7971    0.5916   -2.1779 H   0  0  0  0  0  0  0  0  0  0  0  0
    4.5646    0.4264    1.9684 H   0  0  0  0  0  0  0  0  0  0  0  0
   -8.3177   -2.0871    1.1187 H   0  0  0  0  0  0  0  0  0  0  0  0
   -7.8613    2.1545    1.6331 H   0  0  0  0  0  0  0  0  0  0  0  0
   -8.9832    0.0256    2.2361 H   0  0  0  0  0  0  0  0  0  0  0  0
    7.8730   -0.4715   -1.6137 H   0  0  0  0  0  0  0  0  0  0  0  0
    6.6598   -0.6787    2.5418 H   0  0  0  0  0  0  0  0  0  0  0  0
   10.4030   -1.9886    0.2439 H   0  0  0  0  0  0  0  0  0  0  0  0
    9.8764   -0.5625   -0.6435 H   0  0  0  0  0  0  0  0  0  0  0  0
    9.1236   -2.1902   -0.9481 H   0  0  0  0  0  0  0  0  0  0  0  0
  1 17  2  0  0  0  0
  2 29  1  0  0  0  0
  2 30  1  0  0  0  0
  3  8  1  0  0  0  0
  3 17  1  0  0  0  0
  3 37  1  0  0  0  0
  4  5  1  0  0  0  0
  4 12  1  0  0  0  0
  4 15  1  0  0  0  0
  5 13  2  0  0  0  0
  6  7  1  0  0  0  0
  6  9  1  0  0  0  0
  6 10  1  0  0  0  0
  6 31  1  0  0  0  0
  7  8  1  0  0  0  0
  7 32  1  0  0  0  0
  7 33  1  0  0  0  0
  8 11  1  0  0  0  0
  8 34  1  0  0  0  0
  9 12  2  0  0  0  0
  9 13  1  0  0  0  0
 10 11  2  0  0  0  0
 10 35  1  0  0  0  0
 11 36  1  0  0  0  0
 12 14  1  0  0  0  0
 13 16  1  0  0  0  0
 14 38  1  0  0  0  0
 14 39  1  0  0  0  0
 14 40  1  0  0  0  0
 15 18  1  0  0  0  0
 15 41  1  0  0  0  0
 15 42  1  0  0  0  0
 16 43  1  0  0  0  0
 16 44  1  0  0  0  0
 16 45  1  0  0  0  0
 17 19  1  0  0  0  0
 18 20  2  0  0  0  0
 18 21  1  0  0  0  0
 19 22  2  0  0  0  0
 19 23  1  0  0  0  0
 20 24  1  0  0  0  0
 20 46  1  0  0  0  0
 21 25  2  0  0  0  0
 21 47  1  0  0  0  0
 22 27  1  0  0  0  0
 22 48  1  0  0  0  0
 23 28  2  0  0  0  0
 23 49  1  0  0  0  0
 24 26  2  0  0  0  0
 24 50  1  0  0  0  0
 25 26  1  0  0  0  0
 25 51  1  0  0  0  0
 26 52  1  0  0  0  0
 27 29  2  0  0  0  0
 27 53  1  0  0  0  0
 28 29  1  0  0  0  0
 28 54  1  0  0  0  0
 30 55  1  0  0  0  0
 30 56  1  0  0  0  0
 30 57  1  0  0  0  0
M  END
> <PUBCHEM_COMPOUND_CID>
40777636

> <PUBCHEM_CONFORMER_RMSD>
1

> <PUBCHEM_CONFORMER_DIVERSEORDER>
2
64
7
14
12
39
25
60
20
42
21
35
16
53
46
63
24
58
44
33
11
48
41
27
40
61
19
36
51
34
31
8
32
23
55
6
52
38
17
13
9
56
62
22
50
5
57
18
30
26
4
54
43
1
59
3
29
15
10
37
49
47
28
45

> <PUBCHEM_MMFF94_PARTIAL_CHARGES>
41
1 -0.57
10 -0.29
11 -0.29
12 -0.33
13 0.11
14 0.18
15 0.4
16 0.18
17 0.54
18 -0.14
19 0.09
2 -0.36
20 -0.15
21 -0.15
22 -0.15
23 -0.15
24 -0.15
25 -0.15
26 -0.15
27 -0.15
28 -0.15
29 0.08
3 -0.73
30 0.28
35 0.15
36 0.15
37 0.37
4 0.31
46 0.15
47 0.15
48 0.15
49 0.15
5 -0.71
50 0.15
51 0.15
52 0.15
53 0.15
54 0.15
6 0.32
8 0.44
9 -0.18

> <PUBCHEM_EFFECTIVE_ROTOR_COUNT>
7.6

> <PUBCHEM_PHARMACOPHORE_FEATURES>
8
1 1 acceptor
1 2 acceptor
1 3 donor
1 5 acceptor
5 4 5 9 12 13 rings
5 6 7 8 10 11 rings
6 18 20 21 24 25 26 rings
6 19 22 23 27 28 29 rings

> <PUBCHEM_HEAVY_ATOM_COUNT>
30

> <PUBCHEM_ATOM_DEF_STEREO_COUNT>
2

> <PUBCHEM_ATOM_UDEF_STEREO_COUNT>
0

> <PUBCHEM_BOND_DEF_STEREO_COUNT>
0

> <PUBCHEM_BOND_UDEF_STEREO_COUNT>
0

> <PUBCHEM_ISOTOPIC_ATOM_COUNT>
0

> <PUBCHEM_COMPONENT_COUNT>
1

> <PUBCHEM_CACTVS_TAUTO_COUNT>
2

> <PUBCHEM_CONFORMER_ID>
026E37A400000002

> <PUBCHEM_MMFF94_ENERGY>
74.5837

> <PUBCHEM_FEATURE_SELFOVERLAP>
40.598

> <PUBCHEM_SHAPE_FINGERPRINT>
10 15 10015865384225185820
10076449 9 13623534554350762741
10299344 5 18186521016128496655
10429389 143 11095891445559506755
10670039 82 18272929406954686593
10674148 151 18272368672428514778
11135609 201 10231746779063166294
11135926 11 18059566967132638471
11456790 92 18131636689952261001
11796584 16 18340768251795579878
12144603 126 18409453622512793556
12166972 35 16950565501689430453
12664476 115 11386368154311331718
12758862 56 18412258458756552368
13914758 101 16128661851164853299
14028597 1 18059579044812679379
14279260 333 17846783966919832475
14344974 52 13984956143173467030
14394314 77 15841549673874700517
14444916 359 18334014986463270523
1454969 45 7997972370981147041
14856354 85 16805605906606726339
14955137 171 17749676306957005013
150020 25 14345793864227743497
15183329 4 18334004004009439263
15188451 53 18060698378320836280
15461852 350 11386370339821508953
15728490 51 9295279547872718557
16664035 1 18273496767728452528
17324776 126 17547854518377675507
1754911 235 8214144062215747690
1818759 1 18409732838104552222
20105231 36 17603588529968590875
20511986 3 13614519658325041917
21095086 128 17530966904104028691
21150785 3 13551191082762485168
21267235 1 18040152915969390428
21365058 27 16225765220703864307
21756936 100 17775284964039548031
21781051 124 18187091697086868011
21781055 127 18059032608786996764
21792934 111 16343701019832200720
21792965 169 18186524331906722580
23559900 14 18268982266973203928
23576562 1 12757734061080403758
24771293 8 8142091982847613079
249057 3 18187080676622246630
3004659 81 18260542343193983420
3009799 131 15339123450770132481
328311 84 17385723599264142377
3383291 50 18273214222682814831
3633792 109 13542197064926087933
4339292 15 15266766837705465495
44317340 157 17386296514196169596
444769 64 18412543224026649975
45377200 153 16081663282844813929
5028188 123 15430038768799616299
5381727 24 17775284985588581807
54039377 194 18186522090181739100
563151 40 17749110041046517915
57035037 87 13254803417212921523
58260988 521 17894921741678618075
59755656 520 16877940568568077715
6009941 240 14764343860435792317
6126387 218 15985103002955920274
6201320 215 16414924020251974113
6523845 18 14562525211075447096
6673363 416 13479136774512391110
6703917 75 14201402655377695352

> <PUBCHEM_SHAPE_MULTIPOLES>
590.7
28.48
2
1.38
19.97
0.85
-0.16
7.43
-5.91
-0.84
0.12
-0.06
-0.26
-0.94

> <PUBCHEM_SHAPE_SELFOVERLAP>
1278.006

> <PUBCHEM_SHAPE_VOLUME>
326.6

> <PUBCHEM_COORDINATE_TYPE>
2
5
10

$$$$
