45783468
  -OEChem-12032416263D

 60 63  0     1  0  0  0  0  0999 V2000
   -1.3874    2.6337   -1.7347 O   0  0  0  0  0  0  0  0  0  0  0  0
   -3.5018   -5.0040    0.5631 O   0  0  0  0  0  0  0  0  0  0  0  0
    7.7533   -1.6820    0.2292 O   0  0  0  0  0  0  0  0  0  0  0  0
   -3.5453    1.1385    0.8369 N   0  0  1  0  0  0  0  0  0  0  0  0
   -3.6555   -2.8989   -0.4077 N   0  0  0  0  0  0  0  0  0  0  0  0
   -0.6833    1.5652    0.1036 N   0  0  0  0  0  0  0  0  0  0  0  0
   -0.0161    2.4118   -1.9144 N   0  0  0  0  0  0  0  0  0  0  0  0
    3.9678    1.1844   -1.2549 N   0  0  0  0  0  0  0  0  0  0  0  0
    5.5728    0.1281    0.1537 N   0  0  0  0  0  0  0  0  0  0  0  0
   -3.9787   -0.0767    0.1514 C   0  0  0  0  0  0  0  0  0  0  0  0
   -3.1450    2.2173   -0.0883 C   0  0  1  0  0  0  0  0  0  0  0  0
   -4.5964    1.6940    1.6896 C   0  0  0  0  0  0  0  0  0  0  0  0
   -3.4356    3.5196    0.6803 C   0  0  0  0  0  0  0  0  0  0  0  0
   -4.3672   -1.1495    1.1769 C   0  0  0  0  0  0  0  0  0  0  0  0
   -2.8612   -0.5911   -0.7654 C   0  0  0  0  0  0  0  0  0  0  0  0
   -4.0526    3.0742    1.9985 C   0  0  0  0  0  0  0  0  0  0  0  0
   -4.7322   -2.4604    0.4827 C   0  0  0  0  0  0  0  0  0  0  0  0
   -3.2557   -1.9144   -1.4210 C   0  0  0  0  0  0  0  0  0  0  0  0
   -1.6985    2.1051   -0.5223 C   0  0  0  0  0  0  0  0  0  0  0  0
   -3.1237   -4.1811   -0.2746 C   0  0  0  0  0  0  0  0  0  0  0  0
   -2.0163   -4.5555   -1.2272 C   0  0  0  0  0  0  0  0  0  0  0  0
    0.3265    1.7776   -0.7891 C   0  0  0  0  0  0  0  0  0  0  0  0
    1.6684    1.3445   -0.5255 C   0  0  0  0  0  0  0  0  0  0  0  0
    1.9903    0.6882    0.6575 C   0  0  0  0  0  0  0  0  0  0  0  0
    2.6843    1.5664   -1.4411 C   0  0  0  0  0  0  0  0  0  0  0  0
    3.2998    0.2798    0.8853 C   0  0  0  0  0  0  0  0  0  0  0  0
    4.2428    0.5493   -0.0935 C   0  0  0  0  0  0  0  0  0  0  0  0
    5.9570   -0.5476    1.3500 C   0  0  0  0  0  0  0  0  0  0  0  0
    7.4490   -0.8335    1.3291 C   0  0  0  0  0  0  0  0  0  0  0  0
    9.1406   -1.9831    0.1718 C   0  0  0  0  0  0  0  0  0  0  0  0
   -4.8596    0.1381   -0.4709 H   0  0  0  0  0  0  0  0  0  0  0  0
   -3.7817    2.2152   -0.9846 H   0  0  0  0  0  0  0  0  0  0  0  0
   -4.7374    1.1337    2.6186 H   0  0  0  0  0  0  0  0  0  0  0  0
   -5.5566    1.7739    1.1644 H   0  0  0  0  0  0  0  0  0  0  0  0
   -2.5483    4.1376    0.8553 H   0  0  0  0  0  0  0  0  0  0  0  0
   -4.1610    4.1235    0.1215 H   0  0  0  0  0  0  0  0  0  0  0  0
   -5.2303   -0.8431    1.7777 H   0  0  0  0  0  0  0  0  0  0  0  0
   -3.5323   -1.3292    1.8674 H   0  0  0  0  0  0  0  0  0  0  0  0
   -2.6565    0.0948   -1.5914 H   0  0  0  0  0  0  0  0  0  0  0  0
   -1.9385   -0.7525   -0.1943 H   0  0  0  0  0  0  0  0  0  0  0  0
   -4.8283    3.7632    2.3455 H   0  0  0  0  0  0  0  0  0  0  0  0
   -3.2767    3.0165    2.7721 H   0  0  0  0  0  0  0  0  0  0  0  0
   -4.9532   -3.2259    1.2333 H   0  0  0  0  0  0  0  0  0  0  0  0
   -5.6325   -2.3333   -0.1303 H   0  0  0  0  0  0  0  0  0  0  0  0
   -4.1156   -1.7699   -2.0863 H   0  0  0  0  0  0  0  0  0  0  0  0
   -2.4297   -2.2738   -2.0373 H   0  0  0  0  0  0  0  0  0  0  0  0
   -1.1631   -3.8843   -1.0975 H   0  0  0  0  0  0  0  0  0  0  0  0
   -2.3775   -4.5237   -2.2584 H   0  0  0  0  0  0  0  0  0  0  0  0
   -1.6825   -5.5757   -1.0141 H   0  0  0  0  0  0  0  0  0  0  0  0
    1.2412    0.4817    1.4177 H   0  0  0  0  0  0  0  0  0  0  0  0
    2.5166    2.0712   -2.3879 H   0  0  0  0  0  0  0  0  0  0  0  0
    3.5157   -0.2302    1.8165 H   0  0  0  0  0  0  0  0  0  0  0  0
    6.2521    0.3279   -0.5715 H   0  0  0  0  0  0  0  0  0  0  0  0
    5.7396    0.0617    2.2349 H   0  0  0  0  0  0  0  0  0  0  0  0
    5.4228   -1.5020    1.4309 H   0  0  0  0  0  0  0  0  0  0  0  0
    8.0140    0.1021    1.2362 H   0  0  0  0  0  0  0  0  0  0  0  0
    7.7392   -1.3280    2.2633 H   0  0  0  0  0  0  0  0  0  0  0  0
    9.7268   -1.0684    0.0406 H   0  0  0  0  0  0  0  0  0  0  0  0
    9.4575   -2.5076    1.0785 H   0  0  0  0  0  0  0  0  0  0  0  0
    9.3159   -2.6356   -0.6877 H   0  0  0  0  0  0  0  0  0  0  0  0
  1  7  1  0  0  0  0
  1 19  1  0  0  0  0
  2 20  2  0  0  0  0
  3 29  1  0  0  0  0
  3 30  1  0  0  0  0
  4 10  1  0  0  0  0
  4 11  1  0  0  0  0
  4 12  1  0  0  0  0
  5 17  1  0  0  0  0
  5 18  1  0  0  0  0
  5 20  1  0  0  0  0
  6 19  2  0  0  0  0
  6 22  1  0  0  0  0
  7 22  2  0  0  0  0
  8 25  1  0  0  0  0
  8 27  2  0  0  0  0
  9 27  1  0  0  0  0
  9 28  1  0  0  0  0
  9 53  1  0  0  0  0
 10 14  1  0  0  0  0
 10 15  1  0  0  0  0
 10 31  1  0  0  0  0
 11 13  1  0  0  0  0
 11 19  1  0  0  0  0
 11 32  1  0  0  0  0
 12 16  1  0  0  0  0
 12 33  1  0  0  0  0
 12 34  1  0  0  0  0
 13 16  1  0  0  0  0
 13 35  1  0  0  0  0
 13 36  1  0  0  0  0
 14 17  1  0  0  0  0
 14 37  1  0  0  0  0
 14 38  1  0  0  0  0
 15 18  1  0  0  0  0
 15 39  1  0  0  0  0
 15 40  1  0  0  0  0
 16 41  1  0  0  0  0
 16 42  1  0  0  0  0
 17 43  1  0  0  0  0
 17 44  1  0  0  0  0
 18 45  1  0  0  0  0
 18 46  1  0  0  0  0
 20 21  1  0  0  0  0
 21 47  1  0  0  0  0
 21 48  1  0  0  0  0
 21 49  1  0  0  0  0
 22 23  1  0  0  0  0
 23 24  1  0  0  0  0
 23 25  2  0  0  0  0
 24 26  2  0  0  0  0
 24 50  1  0  0  0  0
 25 51  1  0  0  0  0
 26 27  1  0  0  0  0
 26 52  1  0  0  0  0
 28 29  1  0  0  0  0
 28 54  1  0  0  0  0
 28 55  1  0  0  0  0
 29 56  1  0  0  0  0
 29 57  1  0  0  0  0
 30 58  1  0  0  0  0
 30 59  1  0  0  0  0
 30 60  1  0  0  0  0
M  END
> <PUBCHEM_COMPOUND_CID>
45783468

> <PUBCHEM_CONFORMER_RMSD>
1

> <PUBCHEM_CONFORMER_DIVERSEORDER>
1
37
57
75
80
53
34
39
50
76
78
90
43
23
2
86
88
33
89
48
81
60
85
77
20
35
46
55
74
82
22
9
59
52
87
31
61
79
32
38
40
28
13
83
62
66
12
65
69
27
58
36
72
6
41
54
73
67
56
70
29
25
17
11
3
8
30
10
51
26
44
47
24
45
42
4
64
49
68
18
21
7
71
63
14
19
84
16
15
5

> <PUBCHEM_MMFF94_PARTIAL_CHARGES>
30
1 -0.02
10 0.27
11 0.45
12 0.27
17 0.3
18 0.3
19 0.3
2 -0.57
20 0.57
21 0.06
22 0.46
23 0.05
24 -0.15
25 0.16
26 -0.15
27 0.41
28 0.37
29 0.28
3 -0.56
30 0.28
4 -0.81
5 -0.66
50 0.15
51 0.15
52 0.15
53 0.4
6 -0.57
7 -0.41
8 -0.62
9 -0.87

> <PUBCHEM_EFFECTIVE_ROTOR_COUNT>
10.2

> <PUBCHEM_PHARMACOPHORE_FEATURES>
10
1 2 acceptor
1 3 acceptor
1 4 cation
1 9 donor
3 6 7 22 cation
3 8 9 27 cation
5 1 6 7 19 22 rings
5 4 11 12 13 16 rings
6 5 10 14 15 17 18 rings
6 8 23 24 25 26 27 rings

> <PUBCHEM_HEAVY_ATOM_COUNT>
30

> <PUBCHEM_ATOM_DEF_STEREO_COUNT>
1

> <PUBCHEM_ATOM_UDEF_STEREO_COUNT>
0

> <PUBCHEM_BOND_DEF_STEREO_COUNT>
0

> <PUBCHEM_BOND_UDEF_STEREO_COUNT>
0

> <PUBCHEM_ISOTOPIC_ATOM_COUNT>
0

> <PUBCHEM_COMPONENT_COUNT>
1

> <PUBCHEM_CACTVS_TAUTO_COUNT>
8

> <PUBCHEM_CONFORMER_ID>
02BA99AC00000001

> <PUBCHEM_MMFF94_ENERGY>
63.7779

> <PUBCHEM_FEATURE_SELFOVERLAP>
50.747

> <PUBCHEM_SHAPE_FINGERPRINT>
10319688 45 18335414660480836204
10319926 262 18059582360601329876
10622 236 18117556447247716127
10917259 128 9295013411099786134
11036077 4 18412547583297292169
11227150 75 16624586872943449927
11552529 35 18341894134127102745
11963148 33 18042395839136091514
12174731 88 18335135422928846530
12422481 6 18272091552812665430
12523318 42 18272933838590634137
12633257 1 15839879649251662167
12717326 25 16630529493221075582
13009979 54 18194126441622562469
13782708 43 18335692837734481888
14344974 204 18343018926397250246
14705955 166 17131847434638347665
14844126 61 18412263956705107161
14856354 85 18272369750718968060
14950920 106 18272928349554059504
15021287 119 17749396944866774884
15250474 111 18335421287762501558
15289351 153 9871453303111055790
15320294 125 18334019380488341215
15348495 7 18059849563607574400
15439362 3 17688867537379232101
15728490 83 18116719718994567763
16728300 4 17972623223486296315
16988056 13 8637015113641263243
17324776 126 17627488760409695974
17780758 139 18342454833248668225
17913733 40 16128377060863644318
18603816 31 18335700503797515834
18927931 339 17240769423882469384
20775530 9 17764313138684073943
208703 8 18115023133702602571
21033648 29 16415208831923004641
21774942 28 9439405736282524506
229767 44 18411705370127676387
23522609 53 17971787456936484780
2838139 119 9943512034634289282
397830 11 18270947034755364408
4017518 198 18267579118405814679
4169191 19 13110378210350635050
484985 159 18261660524585744223
5104073 3 18272086128353665464
6009941 240 17845934014266863016
6058803 2 18118704320197326181
6691757 9 18270966739669971545
68570916 9 18410012161640550032
7970288 3 18190175882942655458
9953998 17 18342452608988320128

> <PUBCHEM_SHAPE_MULTIPOLES>
569.89
17.85
5.52
1.61
51.36
6.67
0.07
10.97
-7.71
-10.29
0.51
-0.47
-0.8
-2.51

> <PUBCHEM_SHAPE_SELFOVERLAP>
1200.293

> <PUBCHEM_SHAPE_VOLUME>
320.4

> <PUBCHEM_COORDINATE_TYPE>
2
5
10

$$$$
