25338219
  -OEChem-12032416193D

 54 57  0     1  0  0  0  0  0999 V2000
   -3.0144    0.8896    1.6091 O   0  0  0  0  0  0  0  0  0  0  0  0
   -4.2686    2.2229    0.1842 O   0  0  0  0  0  0  0  0  0  0  0  0
   -2.3032    2.1588   -1.9214 O   0  0  0  0  0  0  0  0  0  0  0  0
    1.5158    1.6086   -0.5909 O   0  0  0  0  0  0  0  0  0  0  0  0
    6.0995    0.6723   -1.1955 O   0  0  0  0  0  0  0  0  0  0  0  0
   -2.7988   -1.1208   -0.4287 N   0  0  0  0  0  0  0  0  0  0  0  0
   -0.2187    0.8102    0.7117 N   0  0  0  0  0  0  0  0  0  0  0  0
    1.8527   -0.1454    0.9325 N   0  0  0  0  0  0  0  0  0  0  0  0
   -3.1699    0.2648   -0.7149 C   0  0  2  0  0  0  0  0  0  0  0  0
   -1.9092    1.0964   -1.0432 C   0  0  2  0  0  0  0  0  0  0  0  0
   -1.2340    1.7079    0.2040 C   0  0  1  0  0  0  0  0  0  0  0  0
   -3.9138    0.8646    0.4924 C   0  0  1  0  0  0  0  0  0  0  0  0
   -2.2332    2.0549    1.3270 C   0  0  1  0  0  0  0  0  0  0  0  0
   -3.3234    3.0239    0.9099 C   0  0  0  0  0  0  0  0  0  0  0  0
   -2.5588   -1.8572   -1.6777 C   0  0  0  0  0  0  0  0  0  0  0  0
   -3.8362   -1.7738    0.3820 C   0  0  0  0  0  0  0  0  0  0  0  0
   -2.1216   -3.2955   -1.3952 C   0  0  0  0  0  0  0  0  0  0  0  0
   -3.4410   -3.2092    0.7318 C   0  0  0  0  0  0  0  0  0  0  0  0
   -3.1377   -4.0223   -0.5217 C   0  0  0  0  0  0  0  0  0  0  0  0
    1.1053    0.8298    0.2662 C   0  0  0  0  0  0  0  0  0  0  0  0
    3.2250   -0.4479    0.7711 C   0  0  0  0  0  0  0  0  0  0  0  0
    3.9949    0.2703   -0.1438 C   0  0  0  0  0  0  0  0  0  0  0  0
    3.8084   -1.4647    1.5274 C   0  0  0  0  0  0  0  0  0  0  0  0
    5.3481   -0.0283   -0.3027 C   0  0  0  0  0  0  0  0  0  0  0  0
    5.1616   -1.7631    1.3684 C   0  0  0  0  0  0  0  0  0  0  0  0
    5.9314   -1.0449    0.4534 C   0  0  0  0  0  0  0  0  0  0  0  0
    5.4395    1.6983   -1.9355 C   0  0  0  0  0  0  0  0  0  0  0  0
   -3.8625    0.3129   -1.5678 H   0  0  0  0  0  0  0  0  0  0  0  0
   -1.1800    0.5198   -1.6210 H   0  0  0  0  0  0  0  0  0  0  0  0
   -0.7265    2.6381   -0.0826 H   0  0  0  0  0  0  0  0  0  0  0  0
   -4.8555    0.3749    0.7531 H   0  0  0  0  0  0  0  0  0  0  0  0
   -1.7114    2.3870    2.2303 H   0  0  0  0  0  0  0  0  0  0  0  0
   -3.8475    3.4237    1.7847 H   0  0  0  0  0  0  0  0  0  0  0  0
   -2.9709    3.8566    0.2955 H   0  0  0  0  0  0  0  0  0  0  0  0
   -1.7694   -1.3888   -2.2739 H   0  0  0  0  0  0  0  0  0  0  0  0
   -3.4636   -1.8722   -2.3002 H   0  0  0  0  0  0  0  0  0  0  0  0
   -4.8053   -1.7786   -0.1344 H   0  0  0  0  0  0  0  0  0  0  0  0
   -3.9633   -1.3199    1.3686 H   0  0  0  0  0  0  0  0  0  0  0  0
   -1.1450   -3.2906   -0.8942 H   0  0  0  0  0  0  0  0  0  0  0  0
   -1.9938   -3.8362   -2.3397 H   0  0  0  0  0  0  0  0  0  0  0  0
   -4.2481   -3.6906    1.2960 H   0  0  0  0  0  0  0  0  0  0  0  0
   -2.5569   -3.2006    1.3824 H   0  0  0  0  0  0  0  0  0  0  0  0
   -4.0632   -4.1787   -1.0893 H   0  0  0  0  0  0  0  0  0  0  0  0
   -2.7574   -5.0118   -0.2458 H   0  0  0  0  0  0  0  0  0  0  0  0
   -0.5005    0.0844    1.3636 H   0  0  0  0  0  0  0  0  0  0  0  0
   -1.4993    2.6434   -2.1756 H   0  0  0  0  0  0  0  0  0  0  0  0
    1.3581   -0.7103    1.6182 H   0  0  0  0  0  0  0  0  0  0  0  0
    3.5514    1.0547   -0.7289 H   0  0  0  0  0  0  0  0  0  0  0  0
    3.2198   -2.0320    2.2438 H   0  0  0  0  0  0  0  0  0  0  0  0
    5.6160   -2.5547    1.9571 H   0  0  0  0  0  0  0  0  0  0  0  0
    6.9850   -1.2821    0.3340 H   0  0  0  0  0  0  0  0  0  0  0  0
    6.1878    2.1494   -2.5957 H   0  0  0  0  0  0  0  0  0  0  0  0
    5.0732    2.4972   -1.2816 H   0  0  0  0  0  0  0  0  0  0  0  0
    4.6542    1.2903   -2.5812 H   0  0  0  0  0  0  0  0  0  0  0  0
  1 12  1  0  0  0  0
  1 13  1  0  0  0  0
  2 12  1  0  0  0  0
  2 14  1  0  0  0  0
  3 10  1  0  0  0  0
  3 46  1  0  0  0  0
  4 20  2  0  0  0  0
  5 24  1  0  0  0  0
  5 27  1  0  0  0  0
  6  9  1  0  0  0  0
  6 15  1  0  0  0  0
  6 16  1  0  0  0  0
  7 11  1  0  0  0  0
  7 20  1  0  0  0  0
  7 45  1  0  0  0  0
  8 20  1  0  0  0  0
  8 21  1  0  0  0  0
  8 47  1  0  0  0  0
  9 10  1  0  0  0  0
  9 12  1  0  0  0  0
  9 28  1  0  0  0  0
 10 11  1  0  0  0  0
 10 29  1  0  0  0  0
 11 13  1  0  0  0  0
 11 30  1  0  0  0  0
 12 31  1  0  0  0  0
 13 14  1  0  0  0  0
 13 32  1  0  0  0  0
 14 33  1  0  0  0  0
 14 34  1  0  0  0  0
 15 17  1  0  0  0  0
 15 35  1  0  0  0  0
 15 36  1  0  0  0  0
 16 18  1  0  0  0  0
 16 37  1  0  0  0  0
 16 38  1  0  0  0  0
 17 19  1  0  0  0  0
 17 39  1  0  0  0  0
 17 40  1  0  0  0  0
 18 19  1  0  0  0  0
 18 41  1  0  0  0  0
 18 42  1  0  0  0  0
 19 43  1  0  0  0  0
 19 44  1  0  0  0  0
 21 22  2  0  0  0  0
 21 23  1  0  0  0  0
 22 24  1  0  0  0  0
 22 48  1  0  0  0  0
 23 25  2  0  0  0  0
 23 49  1  0  0  0  0
 24 26  2  0  0  0  0
 25 26  1  0  0  0  0
 25 50  1  0  0  0  0
 26 51  1  0  0  0  0
 27 52  1  0  0  0  0
 27 53  1  0  0  0  0
 27 54  1  0  0  0  0
M  END
> <PUBCHEM_COMPOUND_CID>
25338219

> <PUBCHEM_CONFORMER_RMSD>
1

> <PUBCHEM_CONFORMER_DIVERSEORDER>
1
50
28
53
26
48
17
13
38
27
52
44
37
46
16
42
54
23
51
39
15
30
22
24
20
33
47
3
32
35
14
7
41
29
2
36
49
21
45
5
8
18
43
12
34
31
9
40
10
6
19
4
25
11

> <PUBCHEM_MMFF94_PARTIAL_CHARGES>
31
1 -0.56
10 0.28
11 0.3
12 0.56
13 0.28
14 0.28
15 0.27
16 0.27
2 -0.56
20 0.69
21 0.12
22 -0.15
23 -0.15
24 0.08
25 -0.15
26 -0.15
27 0.28
3 -0.68
4 -0.57
45 0.37
46 0.4
47 0.37
48 0.15
49 0.15
5 -0.36
50 0.15
51 0.15
6 -0.81
7 -0.73
8 -0.55
9 0.27

> <PUBCHEM_EFFECTIVE_ROTOR_COUNT>
8.4

> <PUBCHEM_PHARMACOPHORE_FEATURES>
12
1 1 acceptor
1 2 acceptor
1 3 acceptor
1 3 donor
1 4 acceptor
1 5 acceptor
1 6 cation
1 7 donor
1 8 donor
6 21 22 23 24 25 26 rings
6 6 15 16 17 18 19 rings
8 1 2 9 10 11 12 13 14 rings

> <PUBCHEM_HEAVY_ATOM_COUNT>
27

> <PUBCHEM_ATOM_DEF_STEREO_COUNT>
5

> <PUBCHEM_ATOM_UDEF_STEREO_COUNT>
0

> <PUBCHEM_BOND_DEF_STEREO_COUNT>
0

> <PUBCHEM_BOND_UDEF_STEREO_COUNT>
0

> <PUBCHEM_ISOTOPIC_ATOM_COUNT>
0

> <PUBCHEM_COMPONENT_COUNT>
1

> <PUBCHEM_CACTVS_TAUTO_COUNT>
3

> <PUBCHEM_CONFORMER_ID>
0182A16B00000001

> <PUBCHEM_MMFF94_ENERGY>
82.7736

> <PUBCHEM_FEATURE_SELFOVERLAP>
60.999

> <PUBCHEM_SHAPE_FINGERPRINT>
10928967 22 18057596762797944950
11315621 246 18410866464509653558
11370993 144 13901915513804041668
11524674 6 17775281630369752375
11552529 35 18341604949435922466
12616971 3 17895473636100869554
12633257 1 17345487053435848515
12788726 201 18339644567580594130
12969540 37 17259049127201602607
13167823 11 18407759223116634314
13631057 29 18265612259443871674
13726171 33 17985853603315509968
14251757 5 18272373061668631016
14844126 61 18272078431471499539
15021287 119 17822567193522632290
15250474 111 18335693936761267522
15484559 13 15151613536633560300
15537594 2 18334304183779817946
15799311 1 18271261430213292990
17844677 252 17704067413416588840
20511986 3 18188198824113522848
20775530 9 18122617525230343063
21315763 191 18410008806827648850
235170 7 14345792704433892138
23559900 14 18270668887603140225
23598288 3 18200598119813750405
23728640 28 18343295947391842427
238078 22 18341051903729826912
3383291 50 18130495406227457127
338550 245 18339923706759864014
3737641 26 17836366317141914251
44880168 125 17345769606143993678
469060 322 14057296345257885723
484985 159 18411408532269453407
497634 4 18259985997998196789
508706 21 17917996096086946126
5364581 5 17843374488668029248
574716 61 18040715892056235766
602551 16 18059850662950149842
7237137 82 18337673117519599822
90127 26 16056878005721208400

> <PUBCHEM_SHAPE_MULTIPOLES>
511.36
13.32
3.94
1.64
22.02
2.65
0.39
1.94
0.6
-6.35
0.3
0.57
-0.13
-2.85

> <PUBCHEM_SHAPE_SELFOVERLAP>
1088.53

> <PUBCHEM_SHAPE_VOLUME>
280.7

> <PUBCHEM_COORDINATE_TYPE>
2
5
10

$$$$
