11879864
  -OEChem-12032416363D

 68 73  0     1  0  0  0  0  0999 V2000
    2.9807   -3.4733    0.2963 S   0  0  0  0  0  0  0  0  0  0  0  0
    1.8155   -0.2714    2.5586 O   0  0  0  0  0  0  0  0  0  0  0  0
    0.0923    1.0735   -2.5606 O   0  0  0  0  0  0  0  0  0  0  0  0
    3.7603   -3.3364   -0.9187 O   0  0  0  0  0  0  0  0  0  0  0  0
    2.8710   -4.7424    0.9898 O   0  0  0  0  0  0  0  0  0  0  0  0
   -3.8974   -3.3762    0.0768 O   0  0  0  0  0  0  0  0  0  0  0  0
    0.8424    2.8435   -1.2265 N   0  0  0  0  0  0  0  0  0  0  0  0
    2.5170    1.3390    1.0083 N   0  0  0  0  0  0  0  0  0  0  0  0
    3.4294   -2.2677    1.4151 N   0  0  0  0  0  0  0  0  0  0  0  0
   -2.5411   -2.2220   -1.4682 N   0  0  0  0  0  0  0  0  0  0  0  0
    1.6044    3.7310    0.9706 C   0  0  1  0  0  0  0  0  0  0  0  0
    3.2637    3.0277   -0.7072 C   0  0  2  0  0  0  0  0  0  0  0  0
    2.9523    4.0845    0.3514 C   0  0  0  0  0  0  0  0  0  0  0  0
    0.5041    3.7209   -0.1063 C   0  0  0  0  0  0  0  0  0  0  0  0
    1.7276    2.3783    1.6828 C   0  0  0  0  0  0  0  0  0  0  0  0
    2.1795    3.0597   -1.8028 C   0  0  0  0  0  0  0  0  0  0  0  0
    3.3293    1.6416   -0.0933 C   0  0  0  0  0  0  0  0  0  0  0  0
    4.1321    0.7028   -0.6272 C   0  0  0  0  0  0  0  0  0  0  0  0
    2.4937    0.0514    1.5841 C   0  0  0  0  0  0  0  0  0  0  0  0
   -0.0775    1.8806   -1.6485 C   0  0  0  0  0  0  0  0  0  0  0  0
    3.3813   -0.9467    0.9362 C   0  0  0  0  0  0  0  0  0  0  0  0
    4.1608   -0.6343   -0.0996 C   0  0  0  0  0  0  0  0  0  0  0  0
   -1.3748    1.8249   -0.9666 C   0  0  0  0  0  0  0  0  0  0  0  0
   -1.5336    1.0152    0.1554 C   0  0  0  0  0  0  0  0  0  0  0  0
   -2.4384    2.5810   -1.4435 C   0  0  0  0  0  0  0  0  0  0  0  0
   -2.7693    0.9513    0.8196 C   0  0  0  0  0  0  0  0  0  0  0  0
   -3.6730    2.5299   -0.7958 C   0  0  0  0  0  0  0  0  0  0  0  0
   -3.8551    1.7201    0.3371 C   0  0  0  0  0  0  0  0  0  0  0  0
    1.3107   -3.0955   -0.2375 C   0  0  0  0  0  0  0  0  0  0  0  0
   -2.9511    0.1417    1.9527 C   0  0  0  0  0  0  0  0  0  0  0  0
   -5.0909    1.6561    1.0014 C   0  0  0  0  0  0  0  0  0  0  0  0
    0.2652   -3.6312    0.4705 C   0  0  0  0  0  0  0  0  0  0  0  0
    1.1464   -2.2856   -1.3322 C   0  0  0  0  0  0  0  0  0  0  0  0
   -4.1857    0.0901    2.6003 C   0  0  0  0  0  0  0  0  0  0  0  0
   -5.2535    0.8457    2.1254 C   0  0  0  0  0  0  0  0  0  0  0  0
   -1.0336   -3.3368    0.0553 C   0  0  0  0  0  0  0  0  0  0  0  0
   -0.1522   -1.9913   -1.7473 C   0  0  0  0  0  0  0  0  0  0  0  0
   -1.2423   -2.5169   -1.0535 C   0  0  0  0  0  0  0  0  0  0  0  0
   -3.7488   -2.6527   -0.9027 C   0  0  0  0  0  0  0  0  0  0  0  0
   -4.9413   -2.1101   -1.6499 C   0  0  0  0  0  0  0  0  0  0  0  0
    1.3339    4.4903    1.7149 H   0  0  0  0  0  0  0  0  0  0  0  0
    4.2290    3.2756   -1.1672 H   0  0  0  0  0  0  0  0  0  0  0  0
    3.7358    4.1096    1.1191 H   0  0  0  0  0  0  0  0  0  0  0  0
    2.9152    5.0822   -0.1027 H   0  0  0  0  0  0  0  0  0  0  0  0
   -0.4487    3.5035    0.3760 H   0  0  0  0  0  0  0  0  0  0  0  0
    0.4048    4.7295   -0.5285 H   0  0  0  0  0  0  0  0  0  0  0  0
    2.2245    2.5392    2.6496 H   0  0  0  0  0  0  0  0  0  0  0  0
    0.7376    1.9738    1.9235 H   0  0  0  0  0  0  0  0  0  0  0  0
    2.3661    2.3015   -2.5715 H   0  0  0  0  0  0  0  0  0  0  0  0
    2.1640    4.0371   -2.2995 H   0  0  0  0  0  0  0  0  0  0  0  0
    4.7609    0.9148   -1.4856 H   0  0  0  0  0  0  0  0  0  0  0  0
    4.8751   -1.3085   -0.5546 H   0  0  0  0  0  0  0  0  0  0  0  0
    3.0360   -2.3849    2.3583 H   0  0  0  0  0  0  0  0  0  0  0  0
   -0.6924    0.4260    0.5159 H   0  0  0  0  0  0  0  0  0  0  0  0
   -2.3210    3.2151   -2.3182 H   0  0  0  0  0  0  0  0  0  0  0  0
   -4.4938    3.1293   -1.1844 H   0  0  0  0  0  0  0  0  0  0  0  0
   -2.1303   -0.4586    2.3401 H   0  0  0  0  0  0  0  0  0  0  0  0
   -5.9394    2.2380    0.6477 H   0  0  0  0  0  0  0  0  0  0  0  0
    0.4100   -4.2613    1.3415 H   0  0  0  0  0  0  0  0  0  0  0  0
    1.9774   -1.8683   -1.8897 H   0  0  0  0  0  0  0  0  0  0  0  0
   -4.3132   -0.5412    3.4748 H   0  0  0  0  0  0  0  0  0  0  0  0
   -6.2146    0.8046    2.6295 H   0  0  0  0  0  0  0  0  0  0  0  0
   -1.8260   -3.7769    0.6444 H   0  0  0  0  0  0  0  0  0  0  0  0
   -0.3040   -1.3785   -2.6302 H   0  0  0  0  0  0  0  0  0  0  0  0
   -2.6096   -1.6160   -2.2832 H   0  0  0  0  0  0  0  0  0  0  0  0
   -4.9110   -1.0168   -1.6529 H   0  0  0  0  0  0  0  0  0  0  0  0
   -5.8640   -2.4371   -1.1629 H   0  0  0  0  0  0  0  0  0  0  0  0
   -4.9313   -2.4793   -2.6791 H   0  0  0  0  0  0  0  0  0  0  0  0
  1  4  2  0  0  0  0
  1  5  2  0  0  0  0
  1  9  1  0  0  0  0
  1 29  1  0  0  0  0
  2 19  2  0  0  0  0
  3 20  2  0  0  0  0
  6 39  2  0  0  0  0
  7 14  1  0  0  0  0
  7 16  1  0  0  0  0
  7 20  1  0  0  0  0
  8 15  1  0  0  0  0
  8 17  1  0  0  0  0
  8 19  1  0  0  0  0
  9 21  1  0  0  0  0
  9 53  1  0  0  0  0
 10 38  1  0  0  0  0
 10 39  1  0  0  0  0
 10 65  1  0  0  0  0
 11 13  1  0  0  0  0
 11 14  1  0  0  0  0
 11 15  1  0  0  0  0
 11 41  1  0  0  0  0
 12 13  1  0  0  0  0
 12 16  1  0  0  0  0
 12 17  1  0  0  0  0
 12 42  1  0  0  0  0
 13 43  1  0  0  0  0
 13 44  1  0  0  0  0
 14 45  1  0  0  0  0
 14 46  1  0  0  0  0
 15 47  1  0  0  0  0
 15 48  1  0  0  0  0
 16 49  1  0  0  0  0
 16 50  1  0  0  0  0
 17 18  2  0  0  0  0
 18 22  1  0  0  0  0
 18 51  1  0  0  0  0
 19 21  1  0  0  0  0
 20 23  1  0  0  0  0
 21 22  2  0  0  0  0
 22 52  1  0  0  0  0
 23 24  2  0  0  0  0
 23 25  1  0  0  0  0
 24 26  1  0  0  0  0
 24 54  1  0  0  0  0
 25 27  2  0  0  0  0
 25 55  1  0  0  0  0
 26 28  1  0  0  0  0
 26 30  2  0  0  0  0
 27 28  1  0  0  0  0
 27 56  1  0  0  0  0
 28 31  2  0  0  0  0
 29 32  2  0  0  0  0
 29 33  1  0  0  0  0
 30 34  1  0  0  0  0
 30 57  1  0  0  0  0
 31 35  1  0  0  0  0
 31 58  1  0  0  0  0
 32 36  1  0  0  0  0
 32 59  1  0  0  0  0
 33 37  2  0  0  0  0
 33 60  1  0  0  0  0
 34 35  2  0  0  0  0
 34 61  1  0  0  0  0
 35 62  1  0  0  0  0
 36 38  2  0  0  0  0
 36 63  1  0  0  0  0
 37 38  1  0  0  0  0
 37 64  1  0  0  0  0
 39 40  1  0  0  0  0
 40 66  1  0  0  0  0
 40 67  1  0  0  0  0
 40 68  1  0  0  0  0
M  END
> <PUBCHEM_COMPOUND_CID>
11879864

> <PUBCHEM_CONFORMER_RMSD>
1

> <PUBCHEM_CONFORMER_DIVERSEORDER>
2
123
57
139
128
18
22
183
178
109
188
89
64
20
104
152
149
179
90
83
62
68
120
122
127
168
79
150
106
45
42
138
113
38
10
13
132
70
86
119
59
112
154
161
66
98
105
159
77
36
137
126
108
58
71
114
61
144
176
174
142
51
92
67
145
185
136
53
23
55
155
116
151
125
148
187
84
31
170
143
141
6
82
172
175
177
103
146
167
189
15
74
153
131
76
80
135
184
130
5
102
107
33
21
182
91
140
52
181
50
99
160
3
69
54
110
12
97
37
60
75
81
56
49
44
115
171
118
134
65
129
117
46
48
26
169
133
32
43
47
11
186
162
73
35
1
95
24
157
100
124
88
85
9
25
173
14
94
17
111
78
96
93
40
19
63
147
165
72
166
41
34
29
158
121
16
39
27
87
156
164
180
101
4
28
30
163
7
8

> <PUBCHEM_MMFF94_PARTIAL_CHARGES>
51
1 1.45
10 -0.55
12 0.14
14 0.3
15 0.3
16 0.3
17 -0.03
18 -0.15
19 0.62
2 -0.57
20 0.54
21 0.21
22 -0.15
23 0.09
24 -0.15
25 -0.15
27 -0.15
29 -0.01
3 -0.57
30 -0.15
31 -0.15
32 -0.15
33 -0.15
34 -0.15
35 -0.15
36 -0.15
37 -0.15
38 0.12
39 0.57
4 -0.65
40 0.06
5 -0.65
51 0.15
52 0.15
53 0.42
54 0.15
55 0.15
56 0.15
57 0.15
58 0.15
59 0.15
6 -0.57
60 0.15
61 0.15
62 0.15
63 0.15
64 0.15
65 0.37
7 -0.66
8 -0.47
9 -0.75

> <PUBCHEM_EFFECTIVE_ROTOR_COUNT>
8

> <PUBCHEM_PHARMACOPHORE_FEATURES>
13
1 10 donor
1 2 acceptor
1 3 acceptor
1 4 acceptor
1 5 acceptor
1 6 acceptor
1 9 donor
6 23 24 25 26 27 28 rings
6 26 28 30 31 34 35 rings
6 29 32 33 36 37 38 rings
6 7 11 12 13 14 16 rings
6 8 11 12 13 15 17 rings
6 8 17 18 19 21 22 rings

> <PUBCHEM_HEAVY_ATOM_COUNT>
40

> <PUBCHEM_ATOM_DEF_STEREO_COUNT>
2

> <PUBCHEM_ATOM_UDEF_STEREO_COUNT>
0

> <PUBCHEM_BOND_DEF_STEREO_COUNT>
0

> <PUBCHEM_BOND_UDEF_STEREO_COUNT>
0

> <PUBCHEM_ISOTOPIC_ATOM_COUNT>
0

> <PUBCHEM_COMPONENT_COUNT>
1

> <PUBCHEM_CACTVS_TAUTO_COUNT>
2

> <PUBCHEM_CONFORMER_ID>
00B545B800000002

> <PUBCHEM_MMFF94_ENERGY>
115.6622

> <PUBCHEM_FEATURE_SELFOVERLAP>
67.6

> <PUBCHEM_SHAPE_FINGERPRINT>
10190206 1 16963530092997343676
10675989 125 17765690796593681333
11828532 37 17387156216530254057
12156800 1 17055883271323086862
12422481 6 18340219552759853315
12788726 201 17627235894425238113
13122387 1 18339067212496025820
1361 2 17905305361613037821
14840074 17 18193002741081594145
15001296 14 18193556890272635245
150020 26 18335708186903430737
151778 21 18411708689789230464
15297060 5 17838623609944412906
15975801 100 18187662305114743124
16112460 7 18269274745671788832
17921350 177 18261950743772893528
20764821 26 18193264204935851815
21133410 38 18199756997586998115
3027735 51 18196647617732562007
35225 105 17630328773014952989
45266715 3 16833720633571633863
463206 1 18124860283862940284
469060 322 18261938704916642239
5265222 85 17974036078242061356
5309563 4 18050851018036506169
563151 40 17902535979665152476
57527452 28 13527914198485869730
6004065 56 17978504231852178693

> <PUBCHEM_SHAPE_MULTIPOLES>
777.76
9.12
6.54
2.19
6.99
2.64
0.37
0.24
2.5
-3.65
-0.89
1.21
-0.35
-1.62

> <PUBCHEM_SHAPE_SELFOVERLAP>
1711.735

> <PUBCHEM_SHAPE_VOLUME>
417.9

> <PUBCHEM_COORDINATE_TYPE>
2
5
10

$$$$
