75536539
  -OEChem-12032416303D

 43 45  0     1  0  0  0  0  0999 V2000
    2.0189   -1.1273    1.3898 O   0  0  0  0  0  0  0  0  0  0  0  0
    0.6429   -2.7455   -1.5074 O   0  0  0  0  0  0  0  0  0  0  0  0
    4.5205    0.5751    1.1089 O   0  0  0  0  0  0  0  0  0  0  0  0
    3.5500   -0.2468   -0.8434 N   0  0  0  0  0  0  0  0  0  0  0  0
   -1.2869   -0.7224   -0.0725 N   0  0  0  0  0  0  0  0  0  0  0  0
    4.0475    2.1116   -0.6085 C   0  0  0  0  0  0  0  0  0  0  0  0
    2.7471    2.6580   -1.0963 C   0  0  0  0  0  0  0  0  0  0  0  0
    3.3729    3.2043    0.1520 C   0  0  0  0  0  0  0  0  0  0  0  0
    2.1627   -1.9483    0.2188 C   0  0  1  0  0  0  0  0  0  0  0  0
    0.9427   -1.6638   -0.6468 C   0  0  2  0  0  0  0  0  0  0  0  0
   -0.1222   -1.4452    0.4120 C   0  0  1  0  0  0  0  0  0  0  0  0
    3.4767   -1.6306   -0.4726 C   0  0  0  0  0  0  0  0  0  0  0  0
    0.6557   -0.6749    1.4664 C   0  0  0  0  0  0  0  0  0  0  0  0
    4.0677    0.7410   -0.0176 C   0  0  0  0  0  0  0  0  0  0  0  0
   -2.4001   -0.8329    0.8627 C   0  0  0  0  0  0  0  0  0  0  0  0
   -3.6108   -0.0762    0.3850 C   0  0  0  0  0  0  0  0  0  0  0  0
   -3.7836    1.2610    0.7424 C   0  0  0  0  0  0  0  0  0  0  0  0
   -4.5597   -0.7125   -0.4150 C   0  0  0  0  0  0  0  0  0  0  0  0
   -4.9056    1.9619    0.2999 C   0  0  0  0  0  0  0  0  0  0  0  0
   -5.6817   -0.0118   -0.8576 C   0  0  0  0  0  0  0  0  0  0  0  0
   -5.8547    1.3255   -0.5002 C   0  0  0  0  0  0  0  0  0  0  0  0
    4.9431    2.3835   -1.1572 H   0  0  0  0  0  0  0  0  0  0  0  0
    1.8449    2.0692   -0.9826 H   0  0  0  0  0  0  0  0  0  0  0  0
    2.7619    3.2812   -1.9822 H   0  0  0  0  0  0  0  0  0  0  0  0
    3.8069    4.1957    0.1058 H   0  0  0  0  0  0  0  0  0  0  0  0
    2.8951    2.9704    1.0956 H   0  0  0  0  0  0  0  0  0  0  0  0
    2.1780   -2.9962    0.5435 H   0  0  0  0  0  0  0  0  0  0  0  0
    1.0633   -0.7613   -1.2565 H   0  0  0  0  0  0  0  0  0  0  0  0
   -0.4210   -2.4288    0.8012 H   0  0  0  0  0  0  0  0  0  0  0  0
    3.5955   -2.2285   -1.3817 H   0  0  0  0  0  0  0  0  0  0  0  0
    4.3130   -1.8509    0.2000 H   0  0  0  0  0  0  0  0  0  0  0  0
    0.6634    0.4042    1.2731 H   0  0  0  0  0  0  0  0  0  0  0  0
    0.2752   -0.8413    2.4786 H   0  0  0  0  0  0  0  0  0  0  0  0
    3.2167    0.0128   -1.7673 H   0  0  0  0  0  0  0  0  0  0  0  0
   -1.5704   -1.1128   -0.9717 H   0  0  0  0  0  0  0  0  0  0  0  0
    0.5172   -3.5423   -0.9646 H   0  0  0  0  0  0  0  0  0  0  0  0
   -2.1171   -0.4477    1.8505 H   0  0  0  0  0  0  0  0  0  0  0  0
   -2.6764   -1.8850    1.0129 H   0  0  0  0  0  0  0  0  0  0  0  0
   -3.0506    1.7686    1.3637 H   0  0  0  0  0  0  0  0  0  0  0  0
   -4.4356   -1.7534   -0.7018 H   0  0  0  0  0  0  0  0  0  0  0  0
   -5.0401    3.0032    0.5778 H   0  0  0  0  0  0  0  0  0  0  0  0
   -6.4204   -0.5071   -1.4810 H   0  0  0  0  0  0  0  0  0  0  0  0
   -6.7281    1.8711   -0.8450 H   0  0  0  0  0  0  0  0  0  0  0  0
  1  9  1  0  0  0  0
  1 13  1  0  0  0  0
  2 10  1  0  0  0  0
  2 36  1  0  0  0  0
  3 14  2  0  0  0  0
  4 12  1  0  0  0  0
  4 14  1  0  0  0  0
  4 34  1  0  0  0  0
  5 11  1  0  0  0  0
  5 15  1  0  0  0  0
  5 35  1  0  0  0  0
  6  7  1  0  0  0  0
  6  8  1  0  0  0  0
  6 14  1  0  0  0  0
  6 22  1  0  0  0  0
  7  8  1  0  0  0  0
  7 23  1  0  0  0  0
  7 24  1  0  0  0  0
  8 25  1  0  0  0  0
  8 26  1  0  0  0  0
  9 10  1  0  0  0  0
  9 12  1  0  0  0  0
  9 27  1  0  0  0  0
 10 11  1  0  0  0  0
 10 28  1  0  0  0  0
 11 13  1  0  0  0  0
 11 29  1  0  0  0  0
 12 30  1  0  0  0  0
 12 31  1  0  0  0  0
 13 32  1  0  0  0  0
 13 33  1  0  0  0  0
 15 16  1  0  0  0  0
 15 37  1  0  0  0  0
 15 38  1  0  0  0  0
 16 17  2  0  0  0  0
 16 18  1  0  0  0  0
 17 19  1  0  0  0  0
 17 39  1  0  0  0  0
 18 20  2  0  0  0  0
 18 40  1  0  0  0  0
 19 21  2  0  0  0  0
 19 41  1  0  0  0  0
 20 21  1  0  0  0  0
 20 42  1  0  0  0  0
 21 43  1  0  0  0  0
M  END
> <PUBCHEM_COMPOUND_CID>
75536539

> <PUBCHEM_CONFORMER_RMSD>
0.8

> <PUBCHEM_CONFORMER_DIVERSEORDER>
1
120
136
141
87
177
52
94
30
129
175
63
132
173
92
10
155
167
130
107
161
40
169
16
174
91
71
84
48
149
160
164
4
17
145
96
89
37
134
122
158
106
142
153
54
60
111
133
80
165
25
45
61
127
103
100
99
38
179
18
159
97
49
72
58
176
113
79
152
56
146
42
118
116
65
135
131
102
156
150
119
115
55
144
2
166
139
29
11
21
126
27
62
90
50
108
76
73
7
43
15
74
148
26
101
109
12
162
124
178
83
34
128
163
82
6
147
8
39
151
168
81
31
20
117
98
57
125
64
157
105
172
41
69
32
93
75
77
68
112
36
121
24
13
138
23
9
78
28
44
137
143
70
35
110
170
67
114
104
51
3
22
171
154
123
53
140
59
33
5
66
86
19
85
46
88
95
14
47

> <PUBCHEM_MMFF94_PARTIAL_CHARGES>
34
1 -0.56
10 0.28
11 0.27
12 0.3
13 0.28
14 0.63
15 0.41
16 -0.14
17 -0.15
18 -0.15
19 -0.15
2 -0.68
20 -0.15
21 -0.15
22 0.1
23 0.1
24 0.1
25 0.1
26 0.1
3 -0.57
34 0.37
35 0.36
36 0.4
39 0.15
4 -0.73
40 0.15
41 0.15
42 0.15
43 0.15
5 -0.9
6 -0.1
7 -0.2
8 -0.2
9 0.28

> <PUBCHEM_EFFECTIVE_ROTOR_COUNT>
8.6

> <PUBCHEM_PHARMACOPHORE_FEATURES>
9
1 1 acceptor
1 2 acceptor
1 2 donor
1 3 acceptor
1 4 donor
1 5 cation
1 5 donor
5 1 9 10 11 13 rings
6 16 17 18 19 20 21 rings

> <PUBCHEM_HEAVY_ATOM_COUNT>
21

> <PUBCHEM_ATOM_DEF_STEREO_COUNT>
3

> <PUBCHEM_ATOM_UDEF_STEREO_COUNT>
0

> <PUBCHEM_BOND_DEF_STEREO_COUNT>
0

> <PUBCHEM_BOND_UDEF_STEREO_COUNT>
0

> <PUBCHEM_ISOTOPIC_ATOM_COUNT>
0

> <PUBCHEM_COMPONENT_COUNT>
1

> <PUBCHEM_CACTVS_TAUTO_COUNT>
2

> <PUBCHEM_CONFORMER_ID>
0480989B00000001

> <PUBCHEM_MMFF94_ENERGY>
42.6613

> <PUBCHEM_FEATURE_SELFOVERLAP>
45.672

> <PUBCHEM_SHAPE_FINGERPRINT>
10763959 59 18335427850620112948
11089746 13 18186799153947682723
11595378 159 15357967924566106189
11796584 16 11239730630024805047
12403259 118 18263917903351093202
12596602 18 13118295771068449397
12633257 1 17386273389870350896
12769317 202 18409725166580883088
12824470 246 9510920157831696518
13103583 49 11314298422136220655
1420 369 10159697993169679961
14251751 18 10807667653043831804
14251764 30 10810158047372076432
14251764 38 18043539510635883453
14251764 75 18192726754224904780
14528608 73 18413107268911577069
14848178 96 18261116304483897565
15142526 21 18041839643983610384
15238133 3 17895198857242248636
15961568 22 18260267451616836701
17810953 82 18408888442627631972
17834072 32 18410578387872971579
17844677 252 18338807723684003411
17959699 21 18409730651570410377
20715895 44 18411697673282395144
21315763 129 18408039593901777333
21315763 76 18410288107965676793
21475661 188 17968379060540515284
21503847 285 18334860489508431330
21709351 56 18341892931399045199
21860390 5 18409738352367716324
22950370 63 9439414531304479621
23227448 37 18337674225705662223
235170 7 15267072431847645577
23559900 14 18338519625309092339
245318 6 17896898744235274685
2838139 119 18338797935253179748
33382 64 10303812103119145367
3472631 163 18335698287910687301
34797466 226 18130795564174054055
474 4 18334576858141692162
56616090 13 18261954175530890730

> <PUBCHEM_SHAPE_MULTIPOLES>
404.6
12.94
3.11
1.19
13.54
1.5
-0.07
7.71
1.66
-3.39
0.65
-0.3
-0.26
-0.35

> <PUBCHEM_SHAPE_SELFOVERLAP>
842.409

> <PUBCHEM_SHAPE_VOLUME>
230.8

> <PUBCHEM_COORDINATE_TYPE>
2
5
10

$$$$
