75537110
  -OEChem-12032416383D

 34 36  0     1  0  0  0  0  0999 V2000
    4.3040    1.0829   -0.0978 O   0  0  0  0  0  0  0  0  0  0  0  0
    2.0074    0.6245   -0.2835 N   0  0  0  0  0  0  0  0  0  0  0  0
   -0.7607    0.8633    0.1540 N   0  0  2  0  0  0  0  0  0  0  0  0
    3.4222   -1.1044   -0.0529 N   0  0  0  0  0  0  0  0  0  0  0  0
   -3.7844    0.5361   -0.7615 N   0  0  0  0  0  0  0  0  0  0  0  0
   -3.5400   -1.0144    0.8096 N   0  0  0  0  0  0  0  0  0  0  0  0
    1.1712   -0.5498   -0.4194 C   0  0  2  0  0  0  0  0  0  0  0  0
   -0.0805   -0.4146    0.4472 C   0  0  0  0  0  0  0  0  0  0  0  0
    2.0977   -1.7012   -0.0337 C   0  0  0  0  0  0  0  0  0  0  0  0
    1.4099    1.9380   -0.4046 C   0  0  0  0  0  0  0  0  0  0  0  0
    0.1292    2.0092    0.4308 C   0  0  0  0  0  0  0  0  0  0  0  0
    3.3636    0.3009   -0.1435 C   0  0  0  0  0  0  0  0  0  0  0  0
   -1.9927    0.9751    0.9345 C   0  0  0  0  0  0  0  0  0  0  0  0
    4.6194   -1.8891    0.1536 C   0  0  0  0  0  0  0  0  0  0  0  0
   -3.1018    0.1383    0.3543 C   0  0  0  0  0  0  0  0  0  0  0  0
   -4.7173   -0.4242   -1.0350 C   0  0  0  0  0  0  0  0  0  0  0  0
   -4.5472   -1.3705   -0.0521 C   0  0  0  0  0  0  0  0  0  0  0  0
    0.8970   -0.6271   -1.4798 H   0  0  0  0  0  0  0  0  0  0  0  0
   -0.7355   -1.2672    0.2341 H   0  0  0  0  0  0  0  0  0  0  0  0
    0.1877   -0.4638    1.5114 H   0  0  0  0  0  0  0  0  0  0  0  0
    1.9081   -2.0802    0.9758 H   0  0  0  0  0  0  0  0  0  0  0  0
    2.0485   -2.5265   -0.7502 H   0  0  0  0  0  0  0  0  0  0  0  0
    1.1871    2.0972   -1.4659 H   0  0  0  0  0  0  0  0  0  0  0  0
    2.1310    2.6996   -0.0913 H   0  0  0  0  0  0  0  0  0  0  0  0
    0.3906    2.0336    1.4972 H   0  0  0  0  0  0  0  0  0  0  0  0
   -0.3801    2.9512    0.1947 H   0  0  0  0  0  0  0  0  0  0  0  0
   -2.3504    2.0140    0.9330 H   0  0  0  0  0  0  0  0  0  0  0  0
   -1.8345    0.7084    1.9875 H   0  0  0  0  0  0  0  0  0  0  0  0
    4.5719   -2.3478    1.1448 H   0  0  0  0  0  0  0  0  0  0  0  0
    5.5053   -1.2522    0.0905 H   0  0  0  0  0  0  0  0  0  0  0  0
    4.6689   -2.6669   -0.6126 H   0  0  0  0  0  0  0  0  0  0  0  0
   -3.6284    1.3845   -1.2896 H   0  0  0  0  0  0  0  0  0  0  0  0
   -5.3923   -0.3478   -1.8750 H   0  0  0  0  0  0  0  0  0  0  0  0
   -5.0985   -2.2901    0.0789 H   0  0  0  0  0  0  0  0  0  0  0  0
  1 12  2  0  0  0  0
  2  7  1  0  0  0  0
  2 10  1  0  0  0  0
  2 12  1  0  0  0  0
  3  8  1  0  0  0  0
  3 11  1  0  0  0  0
  3 13  1  0  0  0  0
  4  9  1  0  0  0  0
  4 12  1  0  0  0  0
  4 14  1  0  0  0  0
  5 15  1  0  0  0  0
  5 16  1  0  0  0  0
  5 32  1  0  0  0  0
  6 15  2  0  0  0  0
  6 17  1  0  0  0  0
  7  8  1  0  0  0  0
  7  9  1  0  0  0  0
  7 18  1  0  0  0  0
  8 19  1  0  0  0  0
  8 20  1  0  0  0  0
  9 21  1  0  0  0  0
  9 22  1  0  0  0  0
 10 11  1  0  0  0  0
 10 23  1  0  0  0  0
 10 24  1  0  0  0  0
 11 25  1  0  0  0  0
 11 26  1  0  0  0  0
 13 15  1  0  0  0  0
 13 27  1  0  0  0  0
 13 28  1  0  0  0  0
 14 29  1  0  0  0  0
 14 30  1  0  0  0  0
 14 31  1  0  0  0  0
 16 17  2  0  0  0  0
 16 33  1  0  0  0  0
 17 34  1  0  0  0  0
M  END
> <PUBCHEM_COMPOUND_CID>
75537110

> <PUBCHEM_CONFORMER_RMSD>
0.6

> <PUBCHEM_CONFORMER_DIVERSEORDER>
1
5
2
16
11
6
10
14
4
7
13
3
15
8
9
12
17

> <PUBCHEM_MMFF94_PARTIAL_CHARGES>
20
1 -0.57
10 0.3
11 0.27
12 0.69
13 0.45
14 0.3
15 0.01
16 -0.3
17 0.08
2 -0.66
3 -0.81
32 0.27
33 0.15
34 0.15
4 -0.66
5 0.03
6 -0.57
7 0.3
8 0.27
9 0.3

> <PUBCHEM_EFFECTIVE_ROTOR_COUNT>
3.2

> <PUBCHEM_PHARMACOPHORE_FEATURES>
7
1 1 acceptor
1 3 cation
1 5 donor
3 5 6 15 cation
5 2 4 7 9 12 rings
5 5 6 15 16 17 rings
6 2 3 7 8 10 11 rings

> <PUBCHEM_HEAVY_ATOM_COUNT>
17

> <PUBCHEM_ATOM_DEF_STEREO_COUNT>
1

> <PUBCHEM_ATOM_UDEF_STEREO_COUNT>
0

> <PUBCHEM_BOND_DEF_STEREO_COUNT>
0

> <PUBCHEM_BOND_UDEF_STEREO_COUNT>
0

> <PUBCHEM_ISOTOPIC_ATOM_COUNT>
0

> <PUBCHEM_COMPONENT_COUNT>
1

> <PUBCHEM_CACTVS_TAUTO_COUNT>
1

> <PUBCHEM_CONFORMER_ID>
04809AD600000001

> <PUBCHEM_MMFF94_ENERGY>
27.3606

> <PUBCHEM_FEATURE_SELFOVERLAP>
35.619

> <PUBCHEM_SHAPE_FINGERPRINT>
10062212 137 18272090470385558257
10447042 23 18341603828391312886
11471102 20 18408039628366893892
11543360 7 16298966345051501446
11806522 49 18413108385249834329
12032990 46 18411141303345081842
13690532 89 18411136926525630290
13705890 14 18333733528422971712
13862211 1 18410573947246344898
14251717 144 18410293631314205070
14252887 29 17632307778007083268
14289901 80 15841279176665586609
14576447 43 18271241728665199247
15196674 1 18411139121280149425
15477762 27 18410013264317912892
17834072 14 18334293158377235808
1798214 20 18412542115571386991
18186145 218 17458063768228219849
19050596 39 18130514032740269753
193927 3 18201450129397884950
19433438 38 18113332033737728879
200 152 18343581841588875641
20261772 1 17847057800448461286
20281475 54 18411144623254964745
20645477 70 18334295391791891163
20671657 53 18411704296406808457
21250096 35 18343299262684348153
21267235 1 18340778065347614086
21501925 9 18412824677148508264
221490 88 18190749828302037251
22485316 2 18413107260290097613
22646028 1 18202282502665263975
22646028 28 18201721764841487791
23402539 116 18339640027836539834
23402655 69 18410011031283046277
23559900 14 18333731321326610056
2871803 45 18334293141260709018
3286 77 17774996856863179904
4921388 177 16660652894807113275
5104073 3 18342178838575861752
5283173 99 18115578224066364645
602551 16 15338827716090523615
6430166 295 8214145140004345963
76465 3 18262232197633834034
9709674 26 18188214324545025043

> <PUBCHEM_SHAPE_MULTIPOLES>
319.08
9.8
1.97
0.83
3.29
0.2
0.01
-4.48
1.23
-1.31
-0.09
0.62
0.03
-0.27

> <PUBCHEM_SHAPE_SELFOVERLAP>
673.418

> <PUBCHEM_SHAPE_VOLUME>
180.1

> <PUBCHEM_COORDINATE_TYPE>
2
5
10

$$$$
