45783947
  -OEChem-12032416283D

 63 65  0     1  0  0  0  0  0999 V2000
    3.8274   -1.5660    0.9484 S   0  0  0  0  0  0  0  0  0  0  0  0
   -6.1768   -0.0149    0.2860 F   0  0  0  0  0  0  0  0  0  0  0  0
   -2.0629    0.3391    0.7831 O   0  0  0  0  0  0  0  0  0  0  0  0
    3.1106   -2.5159    0.1202 O   0  0  0  0  0  0  0  0  0  0  0  0
    3.8129   -1.6831    2.3939 O   0  0  0  0  0  0  0  0  0  0  0  0
    3.3732    0.0261    0.5265 N   0  0  0  0  0  0  0  0  0  0  0  0
   -2.9528    2.3666    1.1030 N   0  0  0  0  0  0  0  0  0  0  0  0
   -3.9818    1.4886    0.8179 N   0  0  0  0  0  0  0  0  0  0  0  0
    1.1209    0.8898   -1.2514 C   0  0  1  0  0  0  0  0  0  0  0  0
    2.5286    1.5349   -1.2052 C   0  0  1  0  0  0  0  0  0  0  0  0
    0.0326    1.9720   -1.1843 C   0  0  0  0  0  0  0  0  0  0  0  0
    0.1370    2.8248    0.0942 C   0  0  2  0  0  0  0  0  0  0  0  0
    0.9272    0.0366   -2.5088 C   0  0  0  0  0  0  0  0  0  0  0  0
    1.5593    3.2784    0.3540 C   0  0  0  0  0  0  0  0  0  0  0  0
    2.6142    2.6989   -0.2460 C   0  0  0  0  0  0  0  0  0  0  0  0
    3.6005    0.4989   -0.8479 C   0  0  0  0  0  0  0  0  0  0  0  0
   -0.4301    2.0761    1.3054 C   0  0  0  0  0  0  0  0  0  0  0  0
    0.5610    0.9181   -3.6985 C   0  0  0  0  0  0  0  0  0  0  0  0
   -0.1426   -1.0247   -2.2723 C   0  0  0  0  0  0  0  0  0  0  0  0
    1.7385    4.4447    1.2854 C   0  0  0  0  0  0  0  0  0  0  0  0
   -1.8519    1.6524    1.0721 C   0  0  0  0  0  0  0  0  0  0  0  0
    5.5292   -1.5659    0.4328 C   0  0  0  0  0  0  0  0  0  0  0  0
    6.1898   -2.9073    0.7040 C   0  0  0  0  0  0  0  0  0  0  0  0
   -3.4162    0.3179    0.6383 C   0  0  0  0  0  0  0  0  0  0  0  0
    7.6497   -2.9035    0.2824 C   0  0  0  0  0  0  0  0  0  0  0  0
   -3.9930   -0.9559    0.3198 C   0  0  0  0  0  0  0  0  0  0  0  0
   -5.3723   -1.0797    0.1533 C   0  0  0  0  0  0  0  0  0  0  0  0
   -3.1703   -2.0733    0.1777 C   0  0  0  0  0  0  0  0  0  0  0  0
   -5.9289   -2.3208   -0.1556 C   0  0  0  0  0  0  0  0  0  0  0  0
   -3.7269   -3.3146   -0.1310 C   0  0  0  0  0  0  0  0  0  0  0  0
   -5.1062   -3.4383   -0.2977 C   0  0  0  0  0  0  0  0  0  0  0  0
    1.0019    0.2395   -0.3755 H   0  0  0  0  0  0  0  0  0  0  0  0
    2.7805    1.9355   -2.1952 H   0  0  0  0  0  0  0  0  0  0  0  0
    0.1585    2.6824   -2.0130 H   0  0  0  0  0  0  0  0  0  0  0  0
   -0.9690    1.5517   -1.3076 H   0  0  0  0  0  0  0  0  0  0  0  0
   -0.4790    3.7193   -0.0781 H   0  0  0  0  0  0  0  0  0  0  0  0
    1.8502   -0.4975   -2.7558 H   0  0  0  0  0  0  0  0  0  0  0  0
    3.6097    3.0968   -0.0582 H   0  0  0  0  0  0  0  0  0  0  0  0
    4.5969    0.9540   -0.8992 H   0  0  0  0  0  0  0  0  0  0  0  0
    3.5851   -0.3365   -1.5522 H   0  0  0  0  0  0  0  0  0  0  0  0
   -0.4206    2.7211    2.1923 H   0  0  0  0  0  0  0  0  0  0  0  0
    0.1792    1.1991    1.5553 H   0  0  0  0  0  0  0  0  0  0  0  0
    1.2567    1.7509   -3.8376 H   0  0  0  0  0  0  0  0  0  0  0  0
    0.6078    0.3197   -4.6169 H   0  0  0  0  0  0  0  0  0  0  0  0
   -0.4619    1.3060   -3.6492 H   0  0  0  0  0  0  0  0  0  0  0  0
   -0.2514   -1.6618   -3.1569 H   0  0  0  0  0  0  0  0  0  0  0  0
    0.1275   -1.6734   -1.4320 H   0  0  0  0  0  0  0  0  0  0  0  0
   -1.1229   -0.5865   -2.0618 H   0  0  0  0  0  0  0  0  0  0  0  0
    1.1551    5.3029    0.9365 H   0  0  0  0  0  0  0  0  0  0  0  0
    2.7844    4.7632    1.3507 H   0  0  0  0  0  0  0  0  0  0  0  0
    1.4100    4.1874    2.2967 H   0  0  0  0  0  0  0  0  0  0  0  0
    3.5464    0.7410    1.2453 H   0  0  0  0  0  0  0  0  0  0  0  0
    6.0381   -0.7649    0.9786 H   0  0  0  0  0  0  0  0  0  0  0  0
    5.5628   -1.3529   -0.6392 H   0  0  0  0  0  0  0  0  0  0  0  0
    6.1250   -3.1511    1.7708 H   0  0  0  0  0  0  0  0  0  0  0  0
    5.6615   -3.7036    0.1668 H   0  0  0  0  0  0  0  0  0  0  0  0
    7.7483   -2.7002   -0.7887 H   0  0  0  0  0  0  0  0  0  0  0  0
    8.2143   -2.1425    0.8304 H   0  0  0  0  0  0  0  0  0  0  0  0
    8.1059   -3.8773    0.4865 H   0  0  0  0  0  0  0  0  0  0  0  0
   -2.0916   -2.0178    0.3003 H   0  0  0  0  0  0  0  0  0  0  0  0
   -7.0028   -2.4170   -0.2854 H   0  0  0  0  0  0  0  0  0  0  0  0
   -3.0866   -4.1848   -0.2418 H   0  0  0  0  0  0  0  0  0  0  0  0
   -5.5396   -4.4047   -0.5381 H   0  0  0  0  0  0  0  0  0  0  0  0
  1  4  2  0  0  0  0
  1  5  2  0  0  0  0
  1  6  1  0  0  0  0
  1 22  1  0  0  0  0
  2 27  1  0  0  0  0
  3 21  1  0  0  0  0
  3 24  1  0  0  0  0
  6 16  1  0  0  0  0
  6 52  1  0  0  0  0
  7  8  1  0  0  0  0
  7 21  2  0  0  0  0
  8 24  2  0  0  0  0
  9 10  1  0  0  0  0
  9 11  1  0  0  0  0
  9 13  1  0  0  0  0
  9 32  1  0  0  0  0
 10 15  1  0  0  0  0
 10 16  1  0  0  0  0
 10 33  1  0  0  0  0
 11 12  1  0  0  0  0
 11 34  1  0  0  0  0
 11 35  1  0  0  0  0
 12 14  1  0  0  0  0
 12 17  1  0  0  0  0
 12 36  1  0  0  0  0
 13 18  1  0  0  0  0
 13 19  1  0  0  0  0
 13 37  1  0  0  0  0
 14 15  2  0  0  0  0
 14 20  1  0  0  0  0
 15 38  1  0  0  0  0
 16 39  1  0  0  0  0
 16 40  1  0  0  0  0
 17 21  1  0  0  0  0
 17 41  1  0  0  0  0
 17 42  1  0  0  0  0
 18 43  1  0  0  0  0
 18 44  1  0  0  0  0
 18 45  1  0  0  0  0
 19 46  1  0  0  0  0
 19 47  1  0  0  0  0
 19 48  1  0  0  0  0
 20 49  1  0  0  0  0
 20 50  1  0  0  0  0
 20 51  1  0  0  0  0
 22 23  1  0  0  0  0
 22 53  1  0  0  0  0
 22 54  1  0  0  0  0
 23 25  1  0  0  0  0
 23 55  1  0  0  0  0
 23 56  1  0  0  0  0
 24 26  1  0  0  0  0
 25 57  1  0  0  0  0
 25 58  1  0  0  0  0
 25 59  1  0  0  0  0
 26 27  1  0  0  0  0
 26 28  2  0  0  0  0
 27 29  2  0  0  0  0
 28 30  1  0  0  0  0
 28 60  1  0  0  0  0
 29 31  1  0  0  0  0
 29 61  1  0  0  0  0
 30 31  2  0  0  0  0
 30 62  1  0  0  0  0
 31 63  1  0  0  0  0
M  END
> <PUBCHEM_COMPOUND_CID>
45783947

> <PUBCHEM_CONFORMER_RMSD>
1.2

> <PUBCHEM_CONFORMER_DIVERSEORDER>
1
71
67
43
72
76
39
96
12
24
60
59
62
19
51
9
61
77
93
63
97
68
35
32
89
42
36
18
87
31
58
56
38
88
13
50
37
46
86
55
80
52
75
69
81
91
70
98
95
22
74
30
28
17
27
16
47
26
40
78
79
7
65
44
41
92
64
84
34
83
14
94
25
29
90
73
4
21
99
2
3
20
33
5
57
48
85
82
23
8
6
15
45
10
54
66
11
53
49

> <PUBCHEM_MMFF94_PARTIAL_CHARGES>
30
1 1.33
10 0.14
12 0.14
14 -0.28
15 -0.29
16 0.36
17 0.18
2 -0.19
20 0.14
21 0.3
22 0.11
24 0.43
26 0.05
27 0.19
28 -0.15
29 -0.15
3 -0.28
30 -0.15
31 -0.15
38 0.15
4 -0.65
5 -0.65
52 0.42
6 -0.91
60 0.15
61 0.15
62 0.15
63 0.15
7 -0.34
8 -0.34

> <PUBCHEM_EFFECTIVE_ROTOR_COUNT>
9.8

> <PUBCHEM_PHARMACOPHORE_FEATURES>
8
1 25 hydrophobe
1 4 acceptor
1 5 acceptor
1 6 donor
3 13 18 19 hydrophobe
5 3 7 8 21 24 rings
6 26 27 28 29 30 31 rings
6 9 10 11 12 14 15 rings

> <PUBCHEM_HEAVY_ATOM_COUNT>
31

> <PUBCHEM_ATOM_DEF_STEREO_COUNT>
3

> <PUBCHEM_ATOM_UDEF_STEREO_COUNT>
0

> <PUBCHEM_BOND_DEF_STEREO_COUNT>
0

> <PUBCHEM_BOND_UDEF_STEREO_COUNT>
0

> <PUBCHEM_ISOTOPIC_ATOM_COUNT>
0

> <PUBCHEM_COMPONENT_COUNT>
1

> <PUBCHEM_CACTVS_TAUTO_COUNT>
1

> <PUBCHEM_CONFORMER_ID>
02BA9B8B00000001

> <PUBCHEM_MMFF94_ENERGY>
45.7434

> <PUBCHEM_FEATURE_SELFOVERLAP>
40.612

> <PUBCHEM_SHAPE_FINGERPRINT>
10042902 136 18409167676021297778
11552529 35 17975970969740430186
11963148 33 17479729868361501743
12166972 35 18040719194712571567
12422481 6 17060341842207306287
12633257 1 18270977747227954937
131258 38 18263633130209056314
13165053 137 14437781923385808851
13533116 47 18263362658679763859
14068700 675 18335703789647762040
14114206 34 14562805508998887735
14117953 113 18340767027508497543
14705955 166 16915663570817791817
15728490 51 18410854365982600986
17492 89 18339079418772319907
18336668 15 18186807937150398286
18681886 176 17202221791806198596
19319366 153 17693655231090210228
20775530 9 18040150699834681890
208703 8 18409163333345852299
21033648 29 16343430505121223456
21795232 338 17846202355882766302
23559900 14 18340760542028512657
25222932 49 17550389978730321071
2838139 119 10015280444134589362
3680242 22 18341344382977246035
463206 1 18334868211538032739
484985 159 17756412773955242734
5104073 3 17916320505486582817
66674814 147 17748830713173406514
6823239 73 17487371263340871837
7970288 3 18338233752792149346
9709674 26 17773343251795171301
9896288 288 17769657495666208672

> <PUBCHEM_SHAPE_MULTIPOLES>
601.99
14.15
5.09
2.09
1.8
0.93
-2.05
-19.57
4.55
2.64
1.73
1.2
0.65
-2.14

> <PUBCHEM_SHAPE_SELFOVERLAP>
1242.641

> <PUBCHEM_SHAPE_VOLUME>
348.3

> <PUBCHEM_COORDINATE_TYPE>
2
5
10

$$$$
