40781585
  -OEChem-12032416173D

 54 56  0     1  0  0  0  0  0999 V2000
   -3.7652    3.4141    0.0661 S   0  0  0  0  0  0  0  0  0  0  0  0
   -3.1393   -0.5907   -0.7818 O   0  0  0  0  0  0  0  0  0  0  0  0
   -3.4193   -3.3173    1.5391 O   0  0  0  0  0  0  0  0  0  0  0  0
   -5.2535   -2.7509   -0.4316 O   0  0  0  0  0  0  0  0  0  0  0  0
   -0.6083   -1.8288   -1.8583 O   0  0  0  0  0  0  0  0  0  0  0  0
   -3.7880    4.4612   -0.9364 O   0  0  0  0  0  0  0  0  0  0  0  0
   -2.5472    3.1078    0.7913 O   0  0  0  0  0  0  0  0  0  0  0  0
    1.1263   -1.1282   -0.4798 N   0  0  0  0  0  0  0  0  0  0  0  0
    3.8594   -0.2628   -0.0781 N   0  0  0  0  0  0  0  0  0  0  0  0
   -4.3796    1.9656   -0.5956 N   0  0  0  0  0  0  0  0  0  0  0  0
    5.9323   -0.4199    1.0423 N   0  0  0  0  0  0  0  0  0  0  0  0
   -2.5699   -1.7009   -0.0662 C   0  0  2  0  0  0  0  0  0  0  0  0
   -3.5288   -1.9880    1.0768 C   0  0  1  0  0  0  0  0  0  0  0  0
   -4.8664   -1.6844    0.4343 C   0  0  1  0  0  0  0  0  0  0  0  0
   -4.5362   -0.4710   -0.4279 C   0  0  1  0  0  0  0  0  0  0  0  0
   -1.1687   -1.3457    0.3980 C   0  0  0  0  0  0  0  0  0  0  0  0
   -4.7191    0.8500    0.3070 C   0  0  0  0  0  0  0  0  0  0  0  0
   -0.2013   -1.4580   -0.7548 C   0  0  0  0  0  0  0  0  0  0  0  0
    2.1247   -1.2161   -1.5423 C   0  0  0  0  0  0  0  0  0  0  0  0
    1.6059   -0.6776    0.8287 C   0  0  0  0  0  0  0  0  0  0  0  0
    3.2152   -0.1578   -1.3904 C   0  0  0  0  0  0  0  0  0  0  0  0
    3.1087   -0.8887    1.0132 C   0  0  0  0  0  0  0  0  0  0  0  0
    5.1632    0.1887    0.1120 C   0  0  0  0  0  0  0  0  0  0  0  0
   -5.0215    3.7815    1.2697 C   0  0  0  0  0  0  0  0  0  0  0  0
    5.5892    1.2460   -0.6757 C   0  0  0  0  0  0  0  0  0  0  0  0
    6.8884    1.7081   -0.4972 C   0  0  0  0  0  0  0  0  0  0  0  0
    7.1891    0.0565    1.1876 C   0  0  0  0  0  0  0  0  0  0  0  0
    7.7101    1.1074    0.4501 C   0  0  0  0  0  0  0  0  0  0  0  0
   -2.5530   -2.5665   -0.7416 H   0  0  0  0  0  0  0  0  0  0  0  0
   -3.3471   -1.3048    1.9152 H   0  0  0  0  0  0  0  0  0  0  0  0
   -5.6720   -1.5292    1.1576 H   0  0  0  0  0  0  0  0  0  0  0  0
   -5.1078   -0.4659   -1.3634 H   0  0  0  0  0  0  0  0  0  0  0  0
   -0.8545   -2.0527    1.1732 H   0  0  0  0  0  0  0  0  0  0  0  0
   -1.1383   -0.3239    0.7917 H   0  0  0  0  0  0  0  0  0  0  0  0
   -4.0642    0.8828    1.1840 H   0  0  0  0  0  0  0  0  0  0  0  0
   -5.7581    0.9611    0.6337 H   0  0  0  0  0  0  0  0  0  0  0  0
    1.6425   -1.1209   -2.5210 H   0  0  0  0  0  0  0  0  0  0  0  0
    2.5575   -2.2227   -1.4881 H   0  0  0  0  0  0  0  0  0  0  0  0
    1.0696   -1.1921    1.6300 H   0  0  0  0  0  0  0  0  0  0  0  0
    1.3623    0.3896    0.9005 H   0  0  0  0  0  0  0  0  0  0  0  0
    3.9410   -0.3090   -2.1990 H   0  0  0  0  0  0  0  0  0  0  0  0
    2.7754    0.8410   -1.5020 H   0  0  0  0  0  0  0  0  0  0  0  0
    3.4009   -0.4618    1.9804 H   0  0  0  0  0  0  0  0  0  0  0  0
    3.3400   -1.9605    1.0375 H   0  0  0  0  0  0  0  0  0  0  0  0
   -4.1342   -3.4619    2.1820 H   0  0  0  0  0  0  0  0  0  0  0  0
   -6.0949   -2.4966   -0.8476 H   0  0  0  0  0  0  0  0  0  0  0  0
   -5.0330    2.0668   -1.3837 H   0  0  0  0  0  0  0  0  0  0  0  0
   -4.7779    4.7466    1.7203 H   0  0  0  0  0  0  0  0  0  0  0  0
   -5.9876    3.8476    0.7656 H   0  0  0  0  0  0  0  0  0  0  0  0
   -5.0296    3.0131    2.0438 H   0  0  0  0  0  0  0  0  0  0  0  0
    4.9592    1.7416   -1.4060 H   0  0  0  0  0  0  0  0  0  0  0  0
    7.2590    2.5378   -1.0918 H   0  0  0  0  0  0  0  0  0  0  0  0
    7.7890   -0.4457    1.9394 H   0  0  0  0  0  0  0  0  0  0  0  0
    8.7258    1.4518    0.6071 H   0  0  0  0  0  0  0  0  0  0  0  0
  1  6  2  0  0  0  0
  1  7  2  0  0  0  0
  1 10  1  0  0  0  0
  1 24  1  0  0  0  0
  2 12  1  0  0  0  0
  2 15  1  0  0  0  0
  3 13  1  0  0  0  0
  3 45  1  0  0  0  0
  4 14  1  0  0  0  0
  4 46  1  0  0  0  0
  5 18  2  0  0  0  0
  8 18  1  0  0  0  0
  8 19  1  0  0  0  0
  8 20  1  0  0  0  0
  9 21  1  0  0  0  0
  9 22  1  0  0  0  0
  9 23  1  0  0  0  0
 10 17  1  0  0  0  0
 10 47  1  0  0  0  0
 11 23  1  0  0  0  0
 11 27  2  0  0  0  0
 12 13  1  0  0  0  0
 12 16  1  0  0  0  0
 12 29  1  0  0  0  0
 13 14  1  0  0  0  0
 13 30  1  0  0  0  0
 14 15  1  0  0  0  0
 14 31  1  0  0  0  0
 15 17  1  0  0  0  0
 15 32  1  0  0  0  0
 16 18  1  0  0  0  0
 16 33  1  0  0  0  0
 16 34  1  0  0  0  0
 17 35  1  0  0  0  0
 17 36  1  0  0  0  0
 19 21  1  0  0  0  0
 19 37  1  0  0  0  0
 19 38  1  0  0  0  0
 20 22  1  0  0  0  0
 20 39  1  0  0  0  0
 20 40  1  0  0  0  0
 21 41  1  0  0  0  0
 21 42  1  0  0  0  0
 22 43  1  0  0  0  0
 22 44  1  0  0  0  0
 23 25  2  0  0  0  0
 24 48  1  0  0  0  0
 24 49  1  0  0  0  0
 24 50  1  0  0  0  0
 25 26  1  0  0  0  0
 25 51  1  0  0  0  0
 26 28  2  0  0  0  0
 26 52  1  0  0  0  0
 27 28  1  0  0  0  0
 27 53  1  0  0  0  0
 28 54  1  0  0  0  0
M  END
> <PUBCHEM_COMPOUND_CID>
40781585

> <PUBCHEM_CONFORMER_RMSD>
1

> <PUBCHEM_CONFORMER_DIVERSEORDER>
1
54
36
152
181
161
15
98
187
140
147
183
123
95
19
145
167
143
28
164
53
182
81
173
124
171
172
99
144
43
16
25
119
88
18
26
30
158
112
39
150
117
175
177
13
85
141
184
29
79
27
154
120
157
151
178
136
159
64
107
77
96
170
68
169
186
93
48
52
31
185
82
14
166
111
160
83
149
62
40
132
165
33
137
100
156
59
66
6
135
179
153
118
91
122
97
45
131
114
109
42
101
78
63
125
94
84
57
71
168
61
133
142
90
37
17
44
104
163
47
46
60
74
51
148
38
176
126
50
34
80
70
138
9
2
76
21
56
58
55
106
69
110
41
20
72
24
127
86
139
134
108
105
32
7
67
180
8
4
130
22
128
116
10
113
75
73
89
23
129
11
103
49
155
162
92
12
115
3
5
121
102
146
65
174
87
35

> <PUBCHEM_MMFF94_PARTIAL_CHARGES>
35
1 1.33
10 -0.91
11 -0.62
12 0.28
13 0.28
14 0.28
15 0.28
16 0.06
17 0.36
18 0.57
19 0.3
2 -0.56
20 0.3
21 0.37
22 0.37
23 0.41
24 0.11
25 -0.15
26 -0.15
27 0.16
28 -0.15
3 -0.68
4 -0.68
45 0.4
46 0.4
47 0.42
5 -0.57
51 0.15
52 0.15
53 0.15
54 0.15
6 -0.65
7 -0.65
8 -0.66
9 -0.84

> <PUBCHEM_EFFECTIVE_ROTOR_COUNT>
9.2

> <PUBCHEM_PHARMACOPHORE_FEATURES>
14
1 10 donor
1 11 acceptor
1 2 acceptor
1 3 acceptor
1 3 donor
1 4 acceptor
1 4 donor
1 5 acceptor
1 6 acceptor
1 7 acceptor
1 9 cation
5 2 12 13 14 15 rings
6 11 23 25 26 27 28 rings
6 8 9 19 20 21 22 rings

> <PUBCHEM_HEAVY_ATOM_COUNT>
28

> <PUBCHEM_ATOM_DEF_STEREO_COUNT>
4

> <PUBCHEM_ATOM_UDEF_STEREO_COUNT>
0

> <PUBCHEM_BOND_DEF_STEREO_COUNT>
0

> <PUBCHEM_BOND_UDEF_STEREO_COUNT>
0

> <PUBCHEM_ISOTOPIC_ATOM_COUNT>
0

> <PUBCHEM_COMPONENT_COUNT>
1

> <PUBCHEM_CACTVS_TAUTO_COUNT>
1

> <PUBCHEM_CONFORMER_ID>
026E471100000001

> <PUBCHEM_MMFF94_ENERGY>
78.4057

> <PUBCHEM_FEATURE_SELFOVERLAP>
71.08

> <PUBCHEM_SHAPE_FINGERPRINT>
100830 39 18409164390297891688
10087517 78 18408603664805006093
10291535 26 18409451384512793083
10670039 82 18412820304687515904
10675989 125 17113535918502499457
10816530 145 17530963614006164181
10883706 163 18260829267788913429
11135609 149 15983720840284990092
11315181 36 17676766586664300355
11761917 142 18270954649337455984
11796584 16 8574444127302077604
12107183 9 17828472579553357626
12107698 1 18337107985548718712
12236239 1 18187924015184563698
12596602 18 17894908572722981690
13073987 5 18335421248849800978
13167372 99 18407757033026295640
13257819 101 17918273134625631764
13726171 33 18271814475276129776
13911987 19 16917067746267401535
13947920 24 18131634452248101329
14251764 75 17694510248058872209
14289585 56 14548740560535870688
14347329 18 18272363131746674992
14395042 24 18262536857667103889
14598715 104 17917134079651043824
14739800 52 18336817624521959010
14849402 71 17314799709964698516
14856354 85 18267869565052768126
15119646 57 16629693816965472961
15328684 2 18114165420839853232
15338160 23 18409449176367275173
15347590 135 18041292044977152315
15419008 145 18261660525129745016
15484559 13 14464923474758274795
155225 5 18268430135573481008
15604295 49 18128812131730979816
15876981 60 18261394520081266383
16126227 98 18199475372861900265
19309040 13 17343785881441513173
20281389 69 18059573637733670122
20505436 4 13110428748814919743
21033648 29 17917700305999600506
21307412 95 9150876237012404385
21401589 2 18267310833495203041
21859007 373 18271529676790556798
22122407 14 18189064238849783440
22956985 138 17035300710268257291
23522609 53 17168727275295355996
24771750 20 9652534997054119827
249057 25 17822297924383755540
2838139 119 18201429299223035700
3418910 222 17971209233430038188
3633792 109 17313365839301723559
3663271 9 17967809488227435450
4144715 1 18334866008810926002
44249763 50 17560221605399172956
445580 37 18409176523812247988
44802255 64 17846215592080261118
5104073 3 18113900412229743034
6299153 45 18189610541477771738
6376802 137 17534079733081234587
7808743 9 18338796702724153409
9849439 229 17975979765802485685
9981440 41 18336271146069434779

> <PUBCHEM_SHAPE_MULTIPOLES>
524.94
19.25
4.2
1.35
29.12
4.69
-0.11
9.18
3.73
-10.62
0.43
0.31
-0.32
-0.08

> <PUBCHEM_SHAPE_SELFOVERLAP>
1079.502

> <PUBCHEM_SHAPE_VOLUME>
303.6

> <PUBCHEM_COORDINATE_TYPE>
2
5
10

$$$$
