75536940
  -OEChem-12032416343D

 37 38  0     1  0  0  0  0  0999 V2000
    3.4057   -1.4842    0.2645 O   0  0  0  0  0  0  0  0  0  0  0  0
    2.6075    1.9633    0.9233 O   0  0  0  0  0  0  0  0  0  0  0  0
   -3.4786    1.0365    0.5487 O   0  0  0  0  0  0  0  0  0  0  0  0
    0.4987   -0.7258   -0.5721 N   0  0  2  0  0  0  0  0  0  0  0  0
   -3.5689   -0.2329    1.1068 N   0  0  0  0  0  0  0  0  0  0  0  0
    0.9962    0.6132   -0.2377 C   0  0  0  0  0  0  0  0  0  0  0  0
    2.4664    0.7456    0.1901 C   0  0  2  0  0  0  0  0  0  0  0  0
    1.4682   -1.5740   -1.2669 C   0  0  0  0  0  0  0  0  0  0  0  0
   -0.7561   -0.6243   -1.3182 C   0  0  0  0  0  0  0  0  0  0  0  0
    2.9702   -0.3924    1.0675 C   0  0  0  0  0  0  0  0  0  0  0  0
    2.3563   -2.2921   -0.2500 C   0  0  0  0  0  0  0  0  0  0  0  0
   -1.8972   -0.1861   -0.4391 C   0  0  0  0  0  0  0  0  0  0  0  0
   -2.4795    1.0518   -0.3705 C   0  0  0  0  0  0  0  0  0  0  0  0
   -2.6146   -0.9454    0.5013 C   0  0  0  0  0  0  0  0  0  0  0  0
    2.6992    3.0804    0.0537 C   0  0  0  0  0  0  0  0  0  0  0  0
   -2.2477    2.3278   -1.0603 C   0  0  0  0  0  0  0  0  0  0  0  0
   -2.4258   -2.3613    0.8591 C   0  0  0  0  0  0  0  0  0  0  0  0
    0.3735    1.0229    0.5684 H   0  0  0  0  0  0  0  0  0  0  0  0
    0.8538    1.2856   -1.0946 H   0  0  0  0  0  0  0  0  0  0  0  0
    3.1006    0.7786   -0.7071 H   0  0  0  0  0  0  0  0  0  0  0  0
    2.0565   -1.0057   -1.9972 H   0  0  0  0  0  0  0  0  0  0  0  0
    0.9480   -2.3647   -1.8220 H   0  0  0  0  0  0  0  0  0  0  0  0
   -0.6583    0.0295   -2.1944 H   0  0  0  0  0  0  0  0  0  0  0  0
   -1.0452   -1.6078   -1.7137 H   0  0  0  0  0  0  0  0  0  0  0  0
    3.8449   -0.0554    1.6359 H   0  0  0  0  0  0  0  0  0  0  0  0
    2.2285   -0.7143    1.8088 H   0  0  0  0  0  0  0  0  0  0  0  0
    1.7726   -2.7181    0.5759 H   0  0  0  0  0  0  0  0  0  0  0  0
    2.8414   -3.1362   -0.7531 H   0  0  0  0  0  0  0  0  0  0  0  0
    2.8730    3.9702    0.6656 H   0  0  0  0  0  0  0  0  0  0  0  0
    1.7700    3.2338   -0.5016 H   0  0  0  0  0  0  0  0  0  0  0  0
    3.5427    2.9744   -0.6357 H   0  0  0  0  0  0  0  0  0  0  0  0
   -3.1389    2.9627   -1.0308 H   0  0  0  0  0  0  0  0  0  0  0  0
   -1.4259    2.8733   -0.5867 H   0  0  0  0  0  0  0  0  0  0  0  0
   -1.9903    2.1651   -2.1114 H   0  0  0  0  0  0  0  0  0  0  0  0
   -2.5427   -3.0001   -0.0223 H   0  0  0  0  0  0  0  0  0  0  0  0
   -3.1512   -2.6934    1.6094 H   0  0  0  0  0  0  0  0  0  0  0  0
   -1.4237   -2.5237    1.2693 H   0  0  0  0  0  0  0  0  0  0  0  0
  1 10  1  0  0  0  0
  1 11  1  0  0  0  0
  2  7  1  0  0  0  0
  2 15  1  0  0  0  0
  3  5  1  0  0  0  0
  3 13  1  0  0  0  0
  4  6  1  0  0  0  0
  4  8  1  0  0  0  0
  4  9  1  0  0  0  0
  5 14  2  0  0  0  0
  6  7  1  0  0  0  0
  6 18  1  0  0  0  0
  6 19  1  0  0  0  0
  7 10  1  0  0  0  0
  7 20  1  0  0  0  0
  8 11  1  0  0  0  0
  8 21  1  0  0  0  0
  8 22  1  0  0  0  0
  9 12  1  0  0  0  0
  9 23  1  0  0  0  0
  9 24  1  0  0  0  0
 10 25  1  0  0  0  0
 10 26  1  0  0  0  0
 11 27  1  0  0  0  0
 11 28  1  0  0  0  0
 12 13  2  0  0  0  0
 12 14  1  0  0  0  0
 13 16  1  0  0  0  0
 14 17  1  0  0  0  0
 15 29  1  0  0  0  0
 15 30  1  0  0  0  0
 15 31  1  0  0  0  0
 16 32  1  0  0  0  0
 16 33  1  0  0  0  0
 16 34  1  0  0  0  0
 17 35  1  0  0  0  0
 17 36  1  0  0  0  0
 17 37  1  0  0  0  0
M  END
> <PUBCHEM_COMPOUND_CID>
75536940

> <PUBCHEM_CONFORMER_RMSD>
0.6

> <PUBCHEM_CONFORMER_DIVERSEORDER>
1
29
5
32
78
83
14
18
69
71
99
90
59
46
88
100
17
25
53
22
98
81
77
73
10
97
102
76
86
82
65
79
41
13
37
89
36
93
58
52
44
84
9
23
95
75
61
62
42
31
38
63
94
40
70
43
26
6
4
2
49
56
91
24
68
54
67
15
16
35
80
66
28
87
34
51
57
11
8
33
47
74
72
45
30
64
7
3
85
103
48
27
50
92
101
55
19
21
20
39
96
12
60

> <PUBCHEM_MMFF94_PARTIAL_CHARGES>
17
1 -0.56
10 0.28
11 0.28
12 -0.18
13 -0.04
14 0.11
15 0.28
16 0.18
17 0.18
2 -0.56
3 -0.02
4 -0.81
5 -0.41
6 0.27
7 0.28
8 0.27
9 0.45

> <PUBCHEM_EFFECTIVE_ROTOR_COUNT>
4.4

> <PUBCHEM_PHARMACOPHORE_FEATURES>
6
1 1 acceptor
1 2 acceptor
1 4 cation
1 5 acceptor
5 3 5 12 13 14 rings
7 1 4 6 7 8 10 11 rings

> <PUBCHEM_HEAVY_ATOM_COUNT>
17

> <PUBCHEM_ATOM_DEF_STEREO_COUNT>
1

> <PUBCHEM_ATOM_UDEF_STEREO_COUNT>
0

> <PUBCHEM_BOND_DEF_STEREO_COUNT>
0

> <PUBCHEM_BOND_UDEF_STEREO_COUNT>
0

> <PUBCHEM_ISOTOPIC_ATOM_COUNT>
0

> <PUBCHEM_COMPONENT_COUNT>
1

> <PUBCHEM_CACTVS_TAUTO_COUNT>
1

> <PUBCHEM_CONFORMER_ID>
04809A2C00000001

> <PUBCHEM_MMFF94_ENERGY>
38.2944

> <PUBCHEM_FEATURE_SELFOVERLAP>
30.447

> <PUBCHEM_SHAPE_FINGERPRINT>
10366900 7 18335144197599487455
10608611 8 18409727344155532973
1100329 8 15023303694614558671
11578080 2 15792006822478209855
11640471 11 15841263740806546663
12251169 10 18411417302011909619
12400796 359 17829337134815707731
12500047 106 18042400223189131855
12633257 1 18408038489910514563
12670545 47 18409451371084728191
12696612 119 18342174453704356694
13004483 165 18125425652369252839
14026960 21 18266738167729431408
14223421 5 18335983167873290857
14648413 74 18411694357662276172
14866123 147 15888843693354774579
15375462 6 18337107998349120548
15653759 3 18261958440264629791
16945 1 18341327803759736334
17804303 29 18262529073941274847
19049666 15 18048599222607420151
20361792 2 15430040971785621015
20681677 274 18334011735008997090
20681677 76 18409156719290700245
21475661 188 17625562094252212665
21501502 16 18341893034493960767
21524375 3 17914046766642247908
22169311 14 18335422331160070675
23388829 49 17835520801459043695
23559900 14 18260278433990208463
6049 1 18335989679117668837
7097593 13 18187912942284127842
81228 2 18040724679759763653
8809292 202 18264209114781202122
9709674 26 18410853252816113335

> <PUBCHEM_SHAPE_MULTIPOLES>
322.28
6.38
2.97
1.17
0.67
1.09
0.11
0.66
-2
-1.39
0.06
0.18
-0.17
1.11

> <PUBCHEM_SHAPE_SELFOVERLAP>
653.764

> <PUBCHEM_SHAPE_VOLUME>
188.9

> <PUBCHEM_COORDINATE_TYPE>
2
5
10

$$$$
