75368468
  -OEChem-12032416383D

 52 55  0     1  0  0  0  0  0999 V2000
    8.4051    2.5203    0.0087 F   0  0  0  0  0  0  0  0  0  0  0  0
   -2.9169   -3.1942    0.1763 O   0  0  0  0  0  0  0  0  0  0  0  0
    3.7794   -1.8858    1.2787 O   0  0  0  0  0  0  0  0  0  0  0  0
   -6.5458    2.7443    1.4918 O   0  0  0  0  0  0  0  0  0  0  0  0
   -0.7966   -2.2163   -0.0865 N   0  0  0  0  0  0  0  0  0  0  0  0
   -2.5253   -1.3345   -1.2195 N   0  0  0  0  0  0  0  0  0  0  0  0
    1.6713   -1.1753    0.6559 N   0  0  0  0  0  0  0  0  0  0  0  0
    3.5907   -0.2138   -0.3184 N   0  0  0  0  0  0  0  0  0  0  0  0
   -0.2006   -1.1878   -0.9242 C   0  0  1  0  0  0  0  0  0  0  0  0
   -1.4047   -0.4585   -1.5140 C   0  0  0  0  0  0  0  0  0  0  0  0
    0.7338   -0.3141   -0.0941 C   0  0  0  0  0  0  0  0  0  0  0  0
    0.0452   -3.0243    0.7797 C   0  0  0  0  0  0  0  0  0  0  0  0
    1.0093   -2.1300    1.5596 C   0  0  0  0  0  0  0  0  0  0  0  0
   -2.1722   -2.3572   -0.3168 C   0  0  0  0  0  0  0  0  0  0  0  0
   -3.8590   -1.0620   -1.7081 C   0  0  0  0  0  0  0  0  0  0  0  0
    3.0793   -1.1366    0.5928 C   0  0  0  0  0  0  0  0  0  0  0  0
   -4.5731   -0.0513   -0.8579 C   0  0  0  0  0  0  0  0  0  0  0  0
   -4.7266    1.2584   -1.3129 C   0  0  0  0  0  0  0  0  0  0  0  0
   -5.0827   -0.4214    0.3867 C   0  0  0  0  0  0  0  0  0  0  0  0
    4.8210    0.4846   -0.2350 C   0  0  0  0  0  0  0  0  0  0  0  0
   -5.3897    2.1977   -0.5234 C   0  0  0  0  0  0  0  0  0  0  0  0
   -5.7458    0.5179    1.1763 C   0  0  0  0  0  0  0  0  0  0  0  0
   -5.8994    1.8275    0.7211 C   0  0  0  0  0  0  0  0  0  0  0  0
    5.1844    1.3799   -1.2410 C   0  0  0  0  0  0  0  0  0  0  0  0
    5.6685    0.2769    0.8532 C   0  0  0  0  0  0  0  0  0  0  0  0
    6.3953    2.0672   -1.1590 C   0  0  0  0  0  0  0  0  0  0  0  0
    6.8795    0.9641    0.9353 C   0  0  0  0  0  0  0  0  0  0  0  0
    7.2429    1.8594   -0.0707 C   0  0  0  0  0  0  0  0  0  0  0  0
   -6.6672    4.0650    0.9654 C   0  0  0  0  0  0  0  0  0  0  0  0
    0.3589   -1.7067   -1.7129 H   0  0  0  0  0  0  0  0  0  0  0  0
   -1.3104   -0.3214   -2.5954 H   0  0  0  0  0  0  0  0  0  0  0  0
   -1.5846    0.5104   -1.0371 H   0  0  0  0  0  0  0  0  0  0  0  0
    1.2337    0.4215   -0.7248 H   0  0  0  0  0  0  0  0  0  0  0  0
    0.1694    0.2515    0.6586 H   0  0  0  0  0  0  0  0  0  0  0  0
    0.6026   -3.7095    0.1310 H   0  0  0  0  0  0  0  0  0  0  0  0
   -0.5783   -3.6212    1.4522 H   0  0  0  0  0  0  0  0  0  0  0  0
    0.4625   -1.5384    2.3036 H   0  0  0  0  0  0  0  0  0  0  0  0
    1.7376   -2.7450    2.0962 H   0  0  0  0  0  0  0  0  0  0  0  0
   -4.4318   -1.9974   -1.7021 H   0  0  0  0  0  0  0  0  0  0  0  0
   -3.7889   -0.7382   -2.7527 H   0  0  0  0  0  0  0  0  0  0  0  0
    3.0287    0.0171   -1.1307 H   0  0  0  0  0  0  0  0  0  0  0  0
   -4.3319    1.5594   -2.2798 H   0  0  0  0  0  0  0  0  0  0  0  0
   -4.9772   -1.4386    0.7527 H   0  0  0  0  0  0  0  0  0  0  0  0
   -5.4729    3.1969   -0.9373 H   0  0  0  0  0  0  0  0  0  0  0  0
   -6.1418    0.2235    2.1444 H   0  0  0  0  0  0  0  0  0  0  0  0
    4.5331    1.5512   -2.0943 H   0  0  0  0  0  0  0  0  0  0  0  0
    5.4301   -0.3837    1.6776 H   0  0  0  0  0  0  0  0  0  0  0  0
    6.6785    2.7645   -1.9419 H   0  0  0  0  0  0  0  0  0  0  0  0
    7.5375    0.8077    1.7851 H   0  0  0  0  0  0  0  0  0  0  0  0
   -7.2076    4.6606    1.7084 H   0  0  0  0  0  0  0  0  0  0  0  0
   -7.2654    4.0791    0.0480 H   0  0  0  0  0  0  0  0  0  0  0  0
   -5.6876    4.5357    0.8296 H   0  0  0  0  0  0  0  0  0  0  0  0
  1 28  1  0  0  0  0
  2 14  2  0  0  0  0
  3 16  2  0  0  0  0
  4 23  1  0  0  0  0
  4 29  1  0  0  0  0
  5  9  1  0  0  0  0
  5 12  1  0  0  0  0
  5 14  1  0  0  0  0
  6 10  1  0  0  0  0
  6 14  1  0  0  0  0
  6 15  1  0  0  0  0
  7 11  1  0  0  0  0
  7 13  1  0  0  0  0
  7 16  1  0  0  0  0
  8 16  1  0  0  0  0
  8 20  1  0  0  0  0
  8 41  1  0  0  0  0
  9 10  1  0  0  0  0
  9 11  1  0  0  0  0
  9 30  1  0  0  0  0
 10 31  1  0  0  0  0
 10 32  1  0  0  0  0
 11 33  1  0  0  0  0
 11 34  1  0  0  0  0
 12 13  1  0  0  0  0
 12 35  1  0  0  0  0
 12 36  1  0  0  0  0
 13 37  1  0  0  0  0
 13 38  1  0  0  0  0
 15 17  1  0  0  0  0
 15 39  1  0  0  0  0
 15 40  1  0  0  0  0
 17 18  2  0  0  0  0
 17 19  1  0  0  0  0
 18 21  1  0  0  0  0
 18 42  1  0  0  0  0
 19 22  2  0  0  0  0
 19 43  1  0  0  0  0
 20 24  2  0  0  0  0
 20 25  1  0  0  0  0
 21 23  2  0  0  0  0
 21 44  1  0  0  0  0
 22 23  1  0  0  0  0
 22 45  1  0  0  0  0
 24 26  1  0  0  0  0
 24 46  1  0  0  0  0
 25 27  2  0  0  0  0
 25 47  1  0  0  0  0
 26 28  2  0  0  0  0
 26 48  1  0  0  0  0
 27 28  1  0  0  0  0
 27 49  1  0  0  0  0
 29 50  1  0  0  0  0
 29 51  1  0  0  0  0
 29 52  1  0  0  0  0
M  END
> <PUBCHEM_COMPOUND_CID>
75368468

> <PUBCHEM_CONFORMER_RMSD>
0.8

> <PUBCHEM_CONFORMER_DIVERSEORDER>
1
135
140
221
127
40
21
219
146
148
144
166
13
161
128
185
32
229
61
56
238
147
151
75
66
194
182
187
114
217
170
215
155
205
73
195
177
235
100
59
145
33
105
115
239
16
231
175
109
47
91
110
68
67
220
216
120
204
153
58
242
62
14
158
212
87
76
179
104
138
214
123
30
85
11
199
164
29
28
10
225
27
7
218
208
213
163
230
198
69
57
157
84
143
237
95
201
48
65
81
46
192
172
77
39
226
156
189
102
196
193
17
82
125
12
152
49
107
178
92
169
41
184
202
167
180
210
45
88
131
132
23
36
206
113
116
136
162
117
83
197
209
228
38
168
207
53
52
129
111
165
122
24
191
223
137
118
51
134
89
101
173
159
154
174
142
72
97
150
203
99
160
119
6
8
108
86
5
232
186
20
224
141
233
149
35
103
63
54
130
19
43
90
74
42
70
78
133
26
64
80
44
15
176
227
71
126
188
222
234
171
37
96
25
183
124
211
94
98
200
18
93
236
241
181
106
22
34
3
139
31
60
112
79
50
55
9
240
121
4
190
2

> <PUBCHEM_MMFF94_PARTIAL_CHARGES>
38
1 -0.19
10 0.3
11 0.3
12 0.3
13 0.3
14 0.69
15 0.44
16 0.69
17 -0.14
18 -0.15
19 -0.15
2 -0.57
20 0.12
21 -0.15
22 -0.15
23 0.08
24 -0.15
25 -0.15
26 -0.15
27 -0.15
28 0.19
29 0.28
3 -0.57
4 -0.36
41 0.37
42 0.15
43 0.15
44 0.15
45 0.15
46 0.15
47 0.15
48 0.15
49 0.15
5 -0.66
6 -0.66
7 -0.66
8 -0.55
9 0.3

> <PUBCHEM_EFFECTIVE_ROTOR_COUNT>
7.2

> <PUBCHEM_PHARMACOPHORE_FEATURES>
8
1 2 acceptor
1 3 acceptor
1 4 acceptor
1 8 donor
5 5 6 9 10 14 rings
6 17 18 19 21 22 23 rings
6 20 24 25 26 27 28 rings
6 5 7 9 11 12 13 rings

> <PUBCHEM_HEAVY_ATOM_COUNT>
29

> <PUBCHEM_ATOM_DEF_STEREO_COUNT>
1

> <PUBCHEM_ATOM_UDEF_STEREO_COUNT>
0

> <PUBCHEM_BOND_DEF_STEREO_COUNT>
0

> <PUBCHEM_BOND_UDEF_STEREO_COUNT>
0

> <PUBCHEM_ISOTOPIC_ATOM_COUNT>
0

> <PUBCHEM_COMPONENT_COUNT>
1

> <PUBCHEM_CACTVS_TAUTO_COUNT>
2

> <PUBCHEM_CONFORMER_ID>
047E081400000001

> <PUBCHEM_MMFF94_ENERGY>
87.5093

> <PUBCHEM_FEATURE_SELFOVERLAP>
40.695

> <PUBCHEM_SHAPE_FINGERPRINT>
10 15 17240478121809147254
10554248 39 17915728795572557935
10693767 8 9871163031043965853
10906281 52 18261961838280177958
10917259 128 18201706333467534760
10930396 42 16588024590264060349
11135609 201 18334293197348790771
11181472 205 18408042940968938060
11475781 23 17418371385849584312
11963148 33 10087102734210965364
12013929 29 18263368161172012108
12390115 104 18334297603726955183
12975358 362 18050869731964512937
13690498 29 17058074752300206415
13782708 43 10809337845893040966
13885169 86 18261115179255077413
14150022 121 18189062052785263891
14211702 104 11169908351400030928
14251764 75 18408042892257462074
14344974 204 7781521429754196552
14394314 77 18410294700772754653
14765038 42 18335139782341302973
14790565 3 18334292058854954829
15183329 4 16200155387021255278
15188451 53 11314025785806611495
15338160 23 18335425703437573763
15840311 113 18262239898504563901
16126227 98 18410296925875887611
16992727 255 18343023276750325376
16994733 274 18343295990257041704
1768 23 17749685068431482036
17913733 40 16805316682770444994
18222031 100 11815898951127654230
18603816 31 13190620607627060451
19309040 13 18272367555563353998
19315092 285 11314319333905022918
19958102 18 12823286897226050549
20691028 202 18411979131417015617
21223535 225 18059847394221951608
21298829 104 18335699477569616740
21424621 283 18412827988573659250
21756936 100 18341331171568224671
21774942 28 18343018913727911036
21781055 127 18409727354032488304
23522609 53 17750814305670533372
255183 313 15502378954020293755
2838139 119 18201151139454486968
312425 54 13407339725800687541
3680242 22 17677038110712781024
392239 28 16153432770165178035
397830 11 16226047799196979754
406291 66 8646477519089347865
437795 70 16200152071195779329
445580 204 18342174488370335768
44802255 64 17060339673069467868
4756326 101 16879903043186914237
5104073 3 17676480666475579858
5718773 13 8286193942392197945
57724786 102 18124312697746300655
5874358 3 11239720700282632676
5911458 16 18411985745202603096
6036956 94 17910676467552590785
6328613 192 18412259536477111097
636775 72 18268707393567202472
7226269 152 18273216404293884645
9689198 14 18271535229576686197

> <PUBCHEM_SHAPE_MULTIPOLES>
552
22.05
3.81
1.49
19.05
0.9
-0.11
26.73
3.2
-3.85
1.09
-0.9
0.06
-3.21

> <PUBCHEM_SHAPE_SELFOVERLAP>
1186.08

> <PUBCHEM_SHAPE_VOLUME>
305.6

> <PUBCHEM_COORDINATE_TYPE>
2
5
10

$$$$
