38027148
  -OEChem-12032416253D

 69 70  0     1  0  0  0  0  0999 V2000
   -2.0054    2.5000    0.7639 O   0  0  0  0  0  0  0  0  0  0  0  0
    3.2211   -2.2480   -1.5994 O   0  0  0  0  0  0  0  0  0  0  0  0
    3.6258   -0.7030    0.0887 N   0  0  0  0  0  0  0  0  0  0  0  0
   -2.4239    0.4574    1.7798 N   0  0  0  0  0  0  0  0  0  0  0  0
    2.8165   -2.8042    0.6166 N   0  0  0  0  0  0  0  0  0  0  0  0
    1.7675    1.3340   -1.1117 C   0  0  1  0  0  0  0  0  0  0  0  0
    3.1974    1.6031   -0.5798 C   0  0  1  0  0  0  0  0  0  0  0  0
    0.7885    2.3895   -0.5756 C   0  0  0  0  0  0  0  0  0  0  0  0
    0.7405    2.4111    0.9638 C   0  0  2  0  0  0  0  0  0  0  0  0
    1.7242    1.3165   -2.6429 C   0  0  0  0  0  0  0  0  0  0  0  0
    2.1290    2.4060    1.5706 C   0  0  0  0  0  0  0  0  0  0  0  0
    3.2166    2.0548    0.8617 C   0  0  0  0  0  0  0  0  0  0  0  0
    4.0888    0.3662   -0.7392 C   0  0  0  0  0  0  0  0  0  0  0  0
   -0.0998    1.2499    1.5066 C   0  0  0  0  0  0  0  0  0  0  0  0
    0.5368    0.4936   -3.1323 C   0  0  0  0  0  0  0  0  0  0  0  0
    1.6586    2.7391   -3.1894 C   0  0  0  0  0  0  0  0  0  0  0  0
    2.2451    2.8580    2.9997 C   0  0  0  0  0  0  0  0  0  0  0  0
   -1.5874    1.4750    1.3088 C   0  0  0  0  0  0  0  0  0  0  0  0
    3.2197   -1.9491   -0.4059 C   0  0  0  0  0  0  0  0  0  0  0  0
   -3.8789    0.5233    1.6648 C   0  0  0  0  0  0  0  0  0  0  0  0
   -1.9067   -0.7455    2.4207 C   0  0  0  0  0  0  0  0  0  0  0  0
    2.3514   -4.1495    0.3739 C   0  0  0  0  0  0  0  0  0  0  0  0
   -4.3729   -0.1249    0.4040 C   0  0  0  0  0  0  0  0  0  0  0  0
    0.8494   -4.1529    0.1211 C   0  0  0  0  0  0  0  0  0  0  0  0
    2.7171   -5.0601    1.5395 C   0  0  0  0  0  0  0  0  0  0  0  0
   -4.5090    0.6294   -0.7616 C   0  0  0  0  0  0  0  0  0  0  0  0
   -4.6960   -1.4818    0.3981 C   0  0  0  0  0  0  0  0  0  0  0  0
   -4.9681    0.0267   -1.9328 C   0  0  0  0  0  0  0  0  0  0  0  0
   -5.1549   -2.0845   -0.7732 C   0  0  0  0  0  0  0  0  0  0  0  0
   -5.2911   -1.3302   -1.9385 C   0  0  0  0  0  0  0  0  0  0  0  0
    1.4374    0.3527   -0.7517 H   0  0  0  0  0  0  0  0  0  0  0  0
    3.6580    2.4128   -1.1596 H   0  0  0  0  0  0  0  0  0  0  0  0
   -0.2143    2.2390   -0.9868 H   0  0  0  0  0  0  0  0  0  0  0  0
    1.1031    3.3975   -0.8756 H   0  0  0  0  0  0  0  0  0  0  0  0
    0.2681    3.3613    1.2503 H   0  0  0  0  0  0  0  0  0  0  0  0
    2.6244    0.8406   -3.0450 H   0  0  0  0  0  0  0  0  0  0  0  0
    4.1945    2.1150    1.3355 H   0  0  0  0  0  0  0  0  0  0  0  0
    5.1116    0.5933   -0.4146 H   0  0  0  0  0  0  0  0  0  0  0  0
    4.1573    0.0425   -1.7812 H   0  0  0  0  0  0  0  0  0  0  0  0
    0.0599    1.1692    2.5875 H   0  0  0  0  0  0  0  0  0  0  0  0
    0.1906    0.3019    1.0431 H   0  0  0  0  0  0  0  0  0  0  0  0
    0.5260    0.4517   -4.2271 H   0  0  0  0  0  0  0  0  0  0  0  0
    0.5967   -0.5367   -2.7652 H   0  0  0  0  0  0  0  0  0  0  0  0
   -0.4217    0.9126   -2.8105 H   0  0  0  0  0  0  0  0  0  0  0  0
    2.4392    3.3864   -2.7789 H   0  0  0  0  0  0  0  0  0  0  0  0
    1.8166    2.7146   -4.2749 H   0  0  0  0  0  0  0  0  0  0  0  0
    0.6819    3.2121   -3.0425 H   0  0  0  0  0  0  0  0  0  0  0  0
    1.7919    3.8470    3.1239 H   0  0  0  0  0  0  0  0  0  0  0  0
    3.2891    2.9350    3.3221 H   0  0  0  0  0  0  0  0  0  0  0  0
    1.7459    2.1583    3.6759 H   0  0  0  0  0  0  0  0  0  0  0  0
    3.6527   -0.5822    1.0966 H   0  0  0  0  0  0  0  0  0  0  0  0
   -4.1836    1.5774    1.6713 H   0  0  0  0  0  0  0  0  0  0  0  0
   -4.3422    0.0717    2.5503 H   0  0  0  0  0  0  0  0  0  0  0  0
   -0.8577   -0.6927    2.7073 H   0  0  0  0  0  0  0  0  0  0  0  0
   -2.0270   -1.5858    1.7308 H   0  0  0  0  0  0  0  0  0  0  0  0
   -2.4828   -0.9425    3.3305 H   0  0  0  0  0  0  0  0  0  0  0  0
    2.7769   -2.4387    1.5634 H   0  0  0  0  0  0  0  0  0  0  0  0
    2.8515   -4.5258   -0.5267 H   0  0  0  0  0  0  0  0  0  0  0  0
    0.3005   -3.7633    0.9859 H   0  0  0  0  0  0  0  0  0  0  0  0
    0.5948   -3.5237   -0.7389 H   0  0  0  0  0  0  0  0  0  0  0  0
    0.4889   -5.1661   -0.0842 H   0  0  0  0  0  0  0  0  0  0  0  0
    2.2460   -4.7243    2.4701 H   0  0  0  0  0  0  0  0  0  0  0  0
    3.8005   -5.0654    1.7021 H   0  0  0  0  0  0  0  0  0  0  0  0
    2.3980   -6.0897    1.3475 H   0  0  0  0  0  0  0  0  0  0  0  0
   -4.2631    1.6876   -0.7721 H   0  0  0  0  0  0  0  0  0  0  0  0
   -4.5970   -2.0804    1.2997 H   0  0  0  0  0  0  0  0  0  0  0  0
   -5.0743    0.6139   -2.8403 H   0  0  0  0  0  0  0  0  0  0  0  0
   -5.4067   -3.1409   -0.7777 H   0  0  0  0  0  0  0  0  0  0  0  0
   -5.6486   -1.7995   -2.8504 H   0  0  0  0  0  0  0  0  0  0  0  0
  1 18  2  0  0  0  0
  2 19  2  0  0  0  0
  3 13  1  0  0  0  0
  3 19  1  0  0  0  0
  3 51  1  0  0  0  0
  4 18  1  0  0  0  0
  4 20  1  0  0  0  0
  4 21  1  0  0  0  0
  5 19  1  0  0  0  0
  5 22  1  0  0  0  0
  5 57  1  0  0  0  0
  6  7  1  0  0  0  0
  6  8  1  0  0  0  0
  6 10  1  0  0  0  0
  6 31  1  0  0  0  0
  7 12  1  0  0  0  0
  7 13  1  0  0  0  0
  7 32  1  0  0  0  0
  8  9  1  0  0  0  0
  8 33  1  0  0  0  0
  8 34  1  0  0  0  0
  9 11  1  0  0  0  0
  9 14  1  0  0  0  0
  9 35  1  0  0  0  0
 10 15  1  0  0  0  0
 10 16  1  0  0  0  0
 10 36  1  0  0  0  0
 11 12  2  0  0  0  0
 11 17  1  0  0  0  0
 12 37  1  0  0  0  0
 13 38  1  0  0  0  0
 13 39  1  0  0  0  0
 14 18  1  0  0  0  0
 14 40  1  0  0  0  0
 14 41  1  0  0  0  0
 15 42  1  0  0  0  0
 15 43  1  0  0  0  0
 15 44  1  0  0  0  0
 16 45  1  0  0  0  0
 16 46  1  0  0  0  0
 16 47  1  0  0  0  0
 17 48  1  0  0  0  0
 17 49  1  0  0  0  0
 17 50  1  0  0  0  0
 20 23  1  0  0  0  0
 20 52  1  0  0  0  0
 20 53  1  0  0  0  0
 21 54  1  0  0  0  0
 21 55  1  0  0  0  0
 21 56  1  0  0  0  0
 22 24  1  0  0  0  0
 22 25  1  0  0  0  0
 22 58  1  0  0  0  0
 23 26  2  0  0  0  0
 23 27  1  0  0  0  0
 24 59  1  0  0  0  0
 24 60  1  0  0  0  0
 24 61  1  0  0  0  0
 25 62  1  0  0  0  0
 25 63  1  0  0  0  0
 25 64  1  0  0  0  0
 26 28  1  0  0  0  0
 26 65  1  0  0  0  0
 27 29  2  0  0  0  0
 27 66  1  0  0  0  0
 28 30  2  0  0  0  0
 28 67  1  0  0  0  0
 29 30  1  0  0  0  0
 29 68  1  0  0  0  0
 30 69  1  0  0  0  0
M  END
> <PUBCHEM_COMPOUND_CID>
38027148

> <PUBCHEM_CONFORMER_RMSD>
1.2

> <PUBCHEM_CONFORMER_DIVERSEORDER>
1
29
131
137
121
174
38
119
61
178
82
22
18
113
32
175
106
56
185
3
102
129
162
78
110
100
163
153
99
89
28
150
65
122
34
170
75
66
114
145
142
109
101
55
37
36
81
48
135
12
94
53
108
52
187
23
128
33
26
181
146
8
127
70
132
104
93
191
31
154
190
58
95
125
67
20
30
69
13
87
133
73
57
184
152
186
124
172
155
84
180
111
49
96
189
136
148
45
15
83
25
79
35
144
107
151
164
156
134
103
88
141
40
169
27
6
166
17
42
5
165
19
64
161
179
139
60
92
72
115
160
168
116
188
7
50
51
46
41
138
176
130
177
14
44
39
90
16
149
47
10
117
173
112
24
2
54
9
105
183
68
62
76
158
120
63
98
182
21
97
11
80
171
86
140
74
91
157
167
143
43
71
159
77
118
59
126
147
85
123
4

> <PUBCHEM_MMFF94_PARTIAL_CHARGES>
31
1 -0.57
11 -0.28
12 -0.29
13 0.3
14 0.06
17 0.14
18 0.57
19 0.69
2 -0.57
20 0.44
21 0.3
22 0.3
23 -0.14
26 -0.15
27 -0.15
28 -0.15
29 -0.15
3 -0.73
30 -0.15
37 0.15
4 -0.66
5 -0.73
51 0.37
57 0.37
65 0.15
66 0.15
67 0.15
68 0.15
69 0.15
7 0.14
9 0.14

> <PUBCHEM_EFFECTIVE_ROTOR_COUNT>
11.8

> <PUBCHEM_PHARMACOPHORE_FEATURES>
8
1 1 acceptor
1 2 acceptor
1 3 donor
1 5 donor
3 10 15 16 hydrophobe
3 22 24 25 hydrophobe
6 23 26 27 28 29 30 rings
6 6 7 8 9 11 12 rings

> <PUBCHEM_HEAVY_ATOM_COUNT>
30

> <PUBCHEM_ATOM_DEF_STEREO_COUNT>
3

> <PUBCHEM_ATOM_UDEF_STEREO_COUNT>
0

> <PUBCHEM_BOND_DEF_STEREO_COUNT>
0

> <PUBCHEM_BOND_UDEF_STEREO_COUNT>
0

> <PUBCHEM_ISOTOPIC_ATOM_COUNT>
0

> <PUBCHEM_COMPONENT_COUNT>
1

> <PUBCHEM_CACTVS_TAUTO_COUNT>
3

> <PUBCHEM_CONFORMER_ID>
02443F8C00000001

> <PUBCHEM_MMFF94_ENERGY>
61.8749

> <PUBCHEM_FEATURE_SELFOVERLAP>
40.644

> <PUBCHEM_SHAPE_FINGERPRINT>
11069576 57 18410016503050587886
11513181 2 17984436135063756086
12156800 1 16303978799714463546
14251757 17 17168156585236165171
14674994 50 17109311603322443262
17138139 8 17916023640935324302
19315092 285 18131055044190757547
20764821 26 18051980508773775163
20775530 9 17902526882665501850
25222932 49 17629188596995560703
25265897 201 16443645565871694171
46194498 28 16952279700356555485
463206 1 18342752801036802867
5081480 168 17459754714232880301
66674814 147 18260553303223094626
6669772 16 17841698901117856081

> <PUBCHEM_SHAPE_MULTIPOLES>
590.7
10.15
5.31
3.1
15.31
8.33
-1.07
3.48
-2.67
-6.84
1.73
-0.39
-2.2
-0.85

> <PUBCHEM_SHAPE_SELFOVERLAP>
1198.86

> <PUBCHEM_SHAPE_VOLUME>
343.4

> <PUBCHEM_COORDINATE_TYPE>
2
5
10

$$$$
