11884463
  -OEChem-12032416223D

 60 64  0     1  0  0  0  0  0999 V2000
    1.9787    1.1916    0.5166 S   0  0  0  0  0  0  0  0  0  0  0  0
    2.2291    1.0757    1.9385 O   0  0  0  0  0  0  0  0  0  0  0  0
    1.2432    2.3059   -0.0435 O   0  0  0  0  0  0  0  0  0  0  0  0
   -2.9789   -2.1338    1.7416 O   0  0  0  0  0  0  0  0  0  0  0  0
   -5.5172    1.1322   -0.7761 O   0  0  0  0  0  0  0  0  0  0  0  0
   -7.3980    2.5621    0.8415 O   0  0  0  0  0  0  0  0  0  0  0  0
    1.2872   -0.2732   -0.0361 N   0  0  2  0  0  0  0  0  0  0  0  0
   -1.4236   -1.8986    0.0136 N   0  0  0  0  0  0  0  0  0  0  0  0
   -4.9540   -0.8305    0.3441 N   0  0  0  0  0  0  0  0  0  0  0  0
    4.5592    0.1892    1.6224 N   0  0  0  0  0  0  0  0  0  0  0  0
    0.9880   -2.7412    0.1935 C   0  0  1  0  0  0  0  0  0  0  0  0
    0.2421   -1.6090   -1.8545 C   0  0  2  0  0  0  0  0  0  0  0  0
    0.9038   -2.8766   -1.3211 C   0  0  0  0  0  0  0  0  0  0  0  0
    1.8328   -1.5163    0.5803 C   0  0  0  0  0  0  0  0  0  0  0  0
    1.1177   -0.3890   -1.5155 C   0  0  0  0  0  0  0  0  0  0  0  0
   -0.4327   -2.6777    0.7680 C   0  0  0  0  0  0  0  0  0  0  0  0
   -1.1509   -1.4367   -1.2779 C   0  0  0  0  0  0  0  0  0  0  0  0
   -2.1100   -0.8254   -1.9934 C   0  0  0  0  0  0  0  0  0  0  0  0
   -2.6877   -1.7308    0.6145 C   0  0  0  0  0  0  0  0  0  0  0  0
   -3.7213   -1.0239   -0.2066 C   0  0  0  0  0  0  0  0  0  0  0  0
    3.6021    1.3327   -0.2229 C   0  0  0  0  0  0  0  0  0  0  0  0
   -3.4196   -0.6150   -1.4434 C   0  0  0  0  0  0  0  0  0  0  0  0
    4.6905    0.8080    0.4337 C   0  0  0  0  0  0  0  0  0  0  0  0
    3.6707    1.9779   -1.4426 C   0  0  0  0  0  0  0  0  0  0  0  0
    5.9442    0.9497   -0.1971 C   0  0  0  0  0  0  0  0  0  0  0  0
    4.9088    2.1139   -2.0583 C   0  0  0  0  0  0  0  0  0  0  0  0
    6.0445    1.6012   -1.4381 C   0  0  0  0  0  0  0  0  0  0  0  0
   -5.7810    0.2400    0.0260 C   0  0  0  0  0  0  0  0  0  0  0  0
    7.0712    0.4244    0.4492 C   0  0  0  0  0  0  0  0  0  0  0  0
   -7.0875    0.1801    0.8032 C   0  0  0  0  0  0  0  0  0  0  0  0
    5.6717   -0.3039    2.2131 C   0  0  0  0  0  0  0  0  0  0  0  0
    6.9390   -0.2137    1.6742 C   0  0  0  0  0  0  0  0  0  0  0  0
   -8.0227    1.3361    0.4834 C   0  0  0  0  0  0  0  0  0  0  0  0
   -8.2392    3.6746    0.5695 C   0  0  0  0  0  0  0  0  0  0  0  0
    1.4849   -3.6261    0.6107 H   0  0  0  0  0  0  0  0  0  0  0  0
    0.1792   -1.6936   -2.9474 H   0  0  0  0  0  0  0  0  0  0  0  0
    1.9051   -2.9986   -1.7520 H   0  0  0  0  0  0  0  0  0  0  0  0
    0.3241   -3.7659   -1.5986 H   0  0  0  0  0  0  0  0  0  0  0  0
    2.8638   -1.6676    0.2408 H   0  0  0  0  0  0  0  0  0  0  0  0
    1.8401   -1.4228    1.6713 H   0  0  0  0  0  0  0  0  0  0  0  0
    0.6477    0.5202   -1.9070 H   0  0  0  0  0  0  0  0  0  0  0  0
    2.0986   -0.4996   -1.9919 H   0  0  0  0  0  0  0  0  0  0  0  0
   -0.4147   -2.3124    1.8026 H   0  0  0  0  0  0  0  0  0  0  0  0
   -0.8361   -3.6985    0.8166 H   0  0  0  0  0  0  0  0  0  0  0  0
   -1.9215   -0.4541   -2.9953 H   0  0  0  0  0  0  0  0  0  0  0  0
   -4.1284   -0.1476   -2.1165 H   0  0  0  0  0  0  0  0  0  0  0  0
    2.7960    2.3731   -1.9483 H   0  0  0  0  0  0  0  0  0  0  0  0
   -5.1739   -1.3719    1.1766 H   0  0  0  0  0  0  0  0  0  0  0  0
    4.9902    2.6139   -3.0186 H   0  0  0  0  0  0  0  0  0  0  0  0
    7.0088    1.7123   -1.9290 H   0  0  0  0  0  0  0  0  0  0  0  0
    8.0586    0.5096    0.0013 H   0  0  0  0  0  0  0  0  0  0  0  0
   -7.5827   -0.7711    0.5785 H   0  0  0  0  0  0  0  0  0  0  0  0
   -6.8358    0.1975    1.8706 H   0  0  0  0  0  0  0  0  0  0  0  0
    5.5067   -0.7920    3.1680 H   0  0  0  0  0  0  0  0  0  0  0  0
    7.7996   -0.6257    2.1877 H   0  0  0  0  0  0  0  0  0  0  0  0
   -8.2607    1.3455   -0.5868 H   0  0  0  0  0  0  0  0  0  0  0  0
   -8.9532    1.2195    1.0507 H   0  0  0  0  0  0  0  0  0  0  0  0
   -7.7108    4.5855    0.8633 H   0  0  0  0  0  0  0  0  0  0  0  0
   -8.4656    3.7319   -0.4996 H   0  0  0  0  0  0  0  0  0  0  0  0
   -9.1654    3.6061    1.1483 H   0  0  0  0  0  0  0  0  0  0  0  0
  1  2  2  0  0  0  0
  1  3  2  0  0  0  0
  1  7  1  0  0  0  0
  1 21  1  0  0  0  0
  4 19  2  0  0  0  0
  5 28  2  0  0  0  0
  6 33  1  0  0  0  0
  6 34  1  0  0  0  0
  7 14  1  0  0  0  0
  7 15  1  0  0  0  0
  8 16  1  0  0  0  0
  8 17  1  0  0  0  0
  8 19  1  0  0  0  0
  9 20  1  0  0  0  0
  9 28  1  0  0  0  0
  9 48  1  0  0  0  0
 10 23  1  0  0  0  0
 10 31  2  0  0  0  0
 11 13  1  0  0  0  0
 11 14  1  0  0  0  0
 11 16  1  0  0  0  0
 11 35  1  0  0  0  0
 12 13  1  0  0  0  0
 12 15  1  0  0  0  0
 12 17  1  0  0  0  0
 12 36  1  0  0  0  0
 13 37  1  0  0  0  0
 13 38  1  0  0  0  0
 14 39  1  0  0  0  0
 14 40  1  0  0  0  0
 15 41  1  0  0  0  0
 15 42  1  0  0  0  0
 16 43  1  0  0  0  0
 16 44  1  0  0  0  0
 17 18  2  0  0  0  0
 18 22  1  0  0  0  0
 18 45  1  0  0  0  0
 19 20  1  0  0  0  0
 20 22  2  0  0  0  0
 21 23  1  0  0  0  0
 21 24  2  0  0  0  0
 22 46  1  0  0  0  0
 23 25  2  0  0  0  0
 24 26  1  0  0  0  0
 24 47  1  0  0  0  0
 25 27  1  0  0  0  0
 25 29  1  0  0  0  0
 26 27  2  0  0  0  0
 26 49  1  0  0  0  0
 27 50  1  0  0  0  0
 28 30  1  0  0  0  0
 29 32  2  0  0  0  0
 29 51  1  0  0  0  0
 30 33  1  0  0  0  0
 30 52  1  0  0  0  0
 30 53  1  0  0  0  0
 31 32  1  0  0  0  0
 31 54  1  0  0  0  0
 32 55  1  0  0  0  0
 33 56  1  0  0  0  0
 33 57  1  0  0  0  0
 34 58  1  0  0  0  0
 34 59  1  0  0  0  0
 34 60  1  0  0  0  0
M  END
> <PUBCHEM_COMPOUND_CID>
11884463

> <PUBCHEM_CONFORMER_RMSD>
1

> <PUBCHEM_CONFORMER_DIVERSEORDER>
1
18
69
42
34
65
57
37
20
54
55
16
50
45
51
8
39
56
27
4
47
33
68
30
73
48
35
46
36
41
5
25
6
32
43
3
26
53
62
38
52
19
71
74
13
2
66
67
21
75
70
12
61
9
49
76
28
44
58
10
60
7
23
72
17
15
40
22
64
14
29
63
59
24
11
31

> <PUBCHEM_MMFF94_PARTIAL_CHARGES>
40
1 1.45
10 -0.62
12 0.14
14 0.36
15 0.36
16 0.3
17 -0.03
18 -0.15
19 0.62
2 -0.65
20 0.12
21 -0.01
22 -0.15
23 0.31
24 -0.15
26 -0.15
27 -0.15
28 0.57
29 -0.15
3 -0.65
30 0.06
31 0.16
32 -0.15
33 0.28
34 0.28
4 -0.57
45 0.15
46 0.15
47 0.15
48 0.37
49 0.15
5 -0.57
50 0.15
51 0.15
54 0.15
55 0.15
6 -0.56
7 -0.85
8 -0.47
9 -0.54

> <PUBCHEM_EFFECTIVE_ROTOR_COUNT>
8

> <PUBCHEM_PHARMACOPHORE_FEATURES>
12
1 10 acceptor
1 2 acceptor
1 3 acceptor
1 4 acceptor
1 5 acceptor
1 6 acceptor
1 9 donor
6 10 23 25 29 31 32 rings
6 21 23 24 25 26 27 rings
6 7 11 12 13 14 15 rings
6 8 11 12 13 16 17 rings
6 8 17 18 19 20 22 rings

> <PUBCHEM_HEAVY_ATOM_COUNT>
34

> <PUBCHEM_ATOM_DEF_STEREO_COUNT>
2

> <PUBCHEM_ATOM_UDEF_STEREO_COUNT>
0

> <PUBCHEM_BOND_DEF_STEREO_COUNT>
0

> <PUBCHEM_BOND_UDEF_STEREO_COUNT>
0

> <PUBCHEM_ISOTOPIC_ATOM_COUNT>
0

> <PUBCHEM_COMPONENT_COUNT>
1

> <PUBCHEM_CACTVS_TAUTO_COUNT>
2

> <PUBCHEM_CONFORMER_ID>
00B557AF00000001

> <PUBCHEM_MMFF94_ENERGY>
89.3497

> <PUBCHEM_FEATURE_SELFOVERLAP>
62.553

> <PUBCHEM_SHAPE_FINGERPRINT>
10190108 129 16298384626481347872
10533779 1 18129093417497118473
10674148 151 18341617040681587916
11578080 2 18334871515149092035
12107183 9 18041272240629371642
12778500 126 17894631470228797524
12788726 201 18339367457050123028
13383668 40 17632293416776162446
13944108 23 18269844133639262009
13947930 73 11891634437499212585
14341114 176 16877935075194012742
15238133 3 18341047510226033976
15301273 46 15285346323986337095
15350500 55 18341609253948363973
15721738 202 13479136800017651644
16991971 28 11314312719691900442
17349148 13 12102748413915871126
19302320 297 18187656812242292277
19958102 18 15338854074378697908
20511986 3 14979668936475309670
21033648 29 18200025278265634136
21223535 225 17632286866260341765
21774942 28 16917076507758040897
21859007 373 17704066300571874104
22122407 14 18262528098994313441
23522609 53 17895770619645590316
24893992 56 18342457093419181203
2747138 104 13479131306675579349
2838139 119 18201994465353045485
3411729 13 18409732828961015759
3633792 109 14261085285269194686
3918712 181 18201722863895212945
4093350 32 17775005644076734374
4461854 278 14635161105317200633
5104073 3 17677884828912804450
5283173 99 14332869105154604482
5385378 56 18412542076880433518

> <PUBCHEM_SHAPE_MULTIPOLES>
654.28
21.01
3.23
1.93
24.68
0.41
0.17
19.77
-7.22
3.75
0.16
-2.14
-0.13
-2.22

> <PUBCHEM_SHAPE_SELFOVERLAP>
1417.666

> <PUBCHEM_SHAPE_VOLUME>
356.8

> <PUBCHEM_COORDINATE_TYPE>
2
5
10

$$$$
