38029291
  -OEChem-12032416133D

 60 61  0     1  0  0  0  0  0999 V2000
    2.9832   -2.8521    1.4842 S   0  0  0  0  0  0  0  0  0  0  0  0
   -0.9244    3.3853    0.0290 O   0  0  0  0  0  0  0  0  0  0  0  0
    1.7731   -3.4727    0.9819 O   0  0  0  0  0  0  0  0  0  0  0  0
    3.1576   -2.6074    2.9031 O   0  0  0  0  0  0  0  0  0  0  0  0
    3.2788   -1.3961    0.6405 N   0  0  0  0  0  0  0  0  0  0  0  0
   -1.0435    1.9799    1.8760 N   0  0  0  0  0  0  0  0  0  0  0  0
   -5.7616   -2.8699   -1.4537 N   0  0  0  0  0  0  0  0  0  0  0  0
    1.4480    0.0463   -1.2429 C   0  0  1  0  0  0  0  0  0  0  0  0
    2.9780   -0.1160   -1.4235 C   0  0  1  0  0  0  0  0  0  0  0  0
    1.0354    1.5109   -1.4546 C   0  0  0  0  0  0  0  0  0  0  0  0
    1.7463    2.4639   -0.4752 C   0  0  2  0  0  0  0  0  0  0  0  0
    0.6633   -0.8570   -2.1995 C   0  0  0  0  0  0  0  0  0  0  0  0
    3.2334    2.1843   -0.3970 C   0  0  0  0  0  0  0  0  0  0  0  0
    3.7673    1.0314   -0.8379 C   0  0  0  0  0  0  0  0  0  0  0  0
    3.4695   -1.4356   -0.8178 C   0  0  0  0  0  0  0  0  0  0  0  0
    1.1034    2.4073    0.9151 C   0  0  0  0  0  0  0  0  0  0  0  0
   -0.7258   -1.1458   -1.6396 C   0  0  0  0  0  0  0  0  0  0  0  0
    0.5676   -0.2145   -3.5796 C   0  0  0  0  0  0  0  0  0  0  0  0
    4.1001    3.2800    0.1586 C   0  0  0  0  0  0  0  0  0  0  0  0
   -0.3859    2.6632    0.8636 C   0  0  0  0  0  0  0  0  0  0  0  0
    4.3656   -3.8293    0.9402 C   0  0  0  0  0  0  0  0  0  0  0  0
   -2.4741    2.0413    2.0694 C   0  0  0  0  0  0  0  0  0  0  0  0
   -3.1915    0.9696    1.3007 C   0  0  0  0  0  0  0  0  0  0  0  0
   -4.1432    1.3174    0.3420 C   0  0  0  0  0  0  0  0  0  0  0  0
   -2.9064   -0.3737    1.5453 C   0  0  0  0  0  0  0  0  0  0  0  0
   -4.8097    0.3218   -0.3722 C   0  0  0  0  0  0  0  0  0  0  0  0
   -3.5729   -1.3693    0.8310 C   0  0  0  0  0  0  0  0  0  0  0  0
   -4.5244   -1.0216   -0.1278 C   0  0  0  0  0  0  0  0  0  0  0  0
   -5.2072   -2.0415   -0.8594 C   0  0  0  0  0  0  0  0  0  0  0  0
    1.1821   -0.2311   -0.2149 H   0  0  0  0  0  0  0  0  0  0  0  0
    3.2201   -0.1389   -2.4934 H   0  0  0  0  0  0  0  0  0  0  0  0
   -0.0504    1.6238   -1.4178 H   0  0  0  0  0  0  0  0  0  0  0  0
    1.3380    1.8482   -2.4553 H   0  0  0  0  0  0  0  0  0  0  0  0
    1.6110    3.4786   -0.8755 H   0  0  0  0  0  0  0  0  0  0  0  0
    1.1641   -1.8239   -2.3115 H   0  0  0  0  0  0  0  0  0  0  0  0
    4.8476    0.9041   -0.8004 H   0  0  0  0  0  0  0  0  0  0  0  0
    4.5377   -1.5723   -1.0250 H   0  0  0  0  0  0  0  0  0  0  0  0
    2.9409   -2.2868   -1.2539 H   0  0  0  0  0  0  0  0  0  0  0  0
    1.5316    3.1769    1.5689 H   0  0  0  0  0  0  0  0  0  0  0  0
    1.3066    1.4395    1.3898 H   0  0  0  0  0  0  0  0  0  0  0  0
   -1.3245   -0.2373   -1.5238 H   0  0  0  0  0  0  0  0  0  0  0  0
   -0.6574   -1.6363   -0.6627 H   0  0  0  0  0  0  0  0  0  0  0  0
   -1.2758   -1.8187   -2.3067 H   0  0  0  0  0  0  0  0  0  0  0  0
   -0.1234    0.6345   -3.6128 H   0  0  0  0  0  0  0  0  0  0  0  0
    0.1700   -0.9490   -4.2910 H   0  0  0  0  0  0  0  0  0  0  0  0
    1.5412    0.0965   -3.9697 H   0  0  0  0  0  0  0  0  0  0  0  0
    3.9512    4.2057   -0.4067 H   0  0  0  0  0  0  0  0  0  0  0  0
    5.1651    3.0301    0.1062 H   0  0  0  0  0  0  0  0  0  0  0  0
    3.8583    3.4696    1.2086 H   0  0  0  0  0  0  0  0  0  0  0  0
    3.8894   -0.7220    1.1207 H   0  0  0  0  0  0  0  0  0  0  0  0
   -0.5101    1.4027    2.5196 H   0  0  0  0  0  0  0  0  0  0  0  0
    5.2903   -3.2955    1.1675 H   0  0  0  0  0  0  0  0  0  0  0  0
    4.3433   -4.7726    1.4911 H   0  0  0  0  0  0  0  0  0  0  0  0
    4.2770   -4.0322   -0.1278 H   0  0  0  0  0  0  0  0  0  0  0  0
   -2.8259    3.0384    1.7814 H   0  0  0  0  0  0  0  0  0  0  0  0
   -2.6715    1.9198    3.1404 H   0  0  0  0  0  0  0  0  0  0  0  0
   -4.3749    2.3598    0.1400 H   0  0  0  0  0  0  0  0  0  0  0  0
   -2.1694   -0.6592    2.2913 H   0  0  0  0  0  0  0  0  0  0  0  0
   -5.5485    0.6086   -1.1167 H   0  0  0  0  0  0  0  0  0  0  0  0
   -3.3393   -2.4120    1.0326 H   0  0  0  0  0  0  0  0  0  0  0  0
  1  3  2  0  0  0  0
  1  4  2  0  0  0  0
  1  5  1  0  0  0  0
  1 21  1  0  0  0  0
  2 20  2  0  0  0  0
  5 15  1  0  0  0  0
  5 50  1  0  0  0  0
  6 20  1  0  0  0  0
  6 22  1  0  0  0  0
  6 51  1  0  0  0  0
  7 29  3  0  0  0  0
  8  9  1  0  0  0  0
  8 10  1  0  0  0  0
  8 12  1  0  0  0  0
  8 30  1  0  0  0  0
  9 14  1  0  0  0  0
  9 15  1  0  0  0  0
  9 31  1  0  0  0  0
 10 11  1  0  0  0  0
 10 32  1  0  0  0  0
 10 33  1  0  0  0  0
 11 13  1  0  0  0  0
 11 16  1  0  0  0  0
 11 34  1  0  0  0  0
 12 17  1  0  0  0  0
 12 18  1  0  0  0  0
 12 35  1  0  0  0  0
 13 14  2  0  0  0  0
 13 19  1  0  0  0  0
 14 36  1  0  0  0  0
 15 37  1  0  0  0  0
 15 38  1  0  0  0  0
 16 20  1  0  0  0  0
 16 39  1  0  0  0  0
 16 40  1  0  0  0  0
 17 41  1  0  0  0  0
 17 42  1  0  0  0  0
 17 43  1  0  0  0  0
 18 44  1  0  0  0  0
 18 45  1  0  0  0  0
 18 46  1  0  0  0  0
 19 47  1  0  0  0  0
 19 48  1  0  0  0  0
 19 49  1  0  0  0  0
 21 52  1  0  0  0  0
 21 53  1  0  0  0  0
 21 54  1  0  0  0  0
 22 23  1  0  0  0  0
 22 55  1  0  0  0  0
 22 56  1  0  0  0  0
 23 24  2  0  0  0  0
 23 25  1  0  0  0  0
 24 26  1  0  0  0  0
 24 57  1  0  0  0  0
 25 27  2  0  0  0  0
 25 58  1  0  0  0  0
 26 28  2  0  0  0  0
 26 59  1  0  0  0  0
 27 28  1  0  0  0  0
 27 60  1  0  0  0  0
 28 29  1  0  0  0  0
M  END
> <PUBCHEM_COMPOUND_CID>
38029291

> <PUBCHEM_CONFORMER_RMSD>
1

> <PUBCHEM_CONFORMER_DIVERSEORDER>
1
174
75
172
216
170
73
52
107
157
181
184
173
132
46
209
164
59
225
37
49
33
152
142
200
226
228
183
131
119
221
148
220
93
139
224
214
196
43
54
65
136
151
234
100
238
149
194
199
29
82
205
110
231
230
162
53
23
215
85
125
171
69
12
187
159
98
71
45
102
94
207
15
223
103
241
227
28
76
175
165
128
27
201
180
35
150
83
19
130
97
145
80
133
190
211
13
50
40
168
14
115
32
138
20
111
169
240
81
109
47
158
222
147
68
185
140
179
26
104
245
66
55
203
141
146
114
212
17
123
153
235
38
106
177
78
74
86
84
42
58
91
44
117
92
8
11
63
34
120
87
163
218
127
72
247
182
160
16
237
2
236
60
101
219
178
3
202
244
70
24
129
77
134
30
56
95
112
213
64
9
88
233
143
243
176
154
206
239
144
208
108
57
39
193
232
116
25
188
210
191
36
10
22
48
67
31
89
61
197
90
156
105
204
41
195
155
126
186
135
217
121
5
96
198
62
122
189
124
118
167
161
4
242
99
246
113
229
166
51
6
137
21
192
18
79
7

> <PUBCHEM_MMFF94_PARTIAL_CHARGES>
31
1 1.33
11 0.14
13 -0.28
14 -0.29
15 0.36
16 0.06
19 0.14
2 -0.57
20 0.57
21 0.11
22 0.44
23 -0.14
24 -0.15
25 -0.15
26 -0.15
27 -0.15
28 0.07
29 0.48
3 -0.65
36 0.15
4 -0.65
5 -0.91
50 0.42
51 0.37
57 0.15
58 0.15
59 0.15
6 -0.73
60 0.15
7 -0.56
9 0.14

> <PUBCHEM_EFFECTIVE_ROTOR_COUNT>
9.8

> <PUBCHEM_PHARMACOPHORE_FEATURES>
9
1 2 acceptor
1 3 acceptor
1 4 acceptor
1 5 donor
1 6 donor
1 7 acceptor
3 12 17 18 hydrophobe
6 23 24 25 26 27 28 rings
6 8 9 10 11 13 14 rings

> <PUBCHEM_HEAVY_ATOM_COUNT>
29

> <PUBCHEM_ATOM_DEF_STEREO_COUNT>
3

> <PUBCHEM_ATOM_UDEF_STEREO_COUNT>
0

> <PUBCHEM_BOND_DEF_STEREO_COUNT>
0

> <PUBCHEM_BOND_UDEF_STEREO_COUNT>
0

> <PUBCHEM_ISOTOPIC_ATOM_COUNT>
0

> <PUBCHEM_COMPONENT_COUNT>
1

> <PUBCHEM_CACTVS_TAUTO_COUNT>
2

> <PUBCHEM_CONFORMER_ID>
024447EB00000001

> <PUBCHEM_MMFF94_ENERGY>
51.0991

> <PUBCHEM_FEATURE_SELFOVERLAP>
45.689

> <PUBCHEM_SHAPE_FINGERPRINT>
12156800 1 16328151567473237989
12633257 1 18055088570315370417
131258 38 17769355455669186967
13533116 47 18187366545525269315
13583140 156 18334867159619061455
14674994 50 17031054997118403670
19315092 285 18262501685183066279
19319366 153 18052533558848236468
20626108 58 18201719561423200841
20775530 9 17678744436220369122
23559900 14 17630345037929567613
25222932 49 18125168383796177387
46194498 28 15071201079609869768
463206 1 17971773089615608800
484985 159 17323217235346823682

> <PUBCHEM_SHAPE_MULTIPOLES>
568.1
10.4
4.69
2.56
10.45
1.06
-0.75
6.1
0.34
-4.04
2.27
-0.67
1.11
-3.65

> <PUBCHEM_SHAPE_SELFOVERLAP>
1152.74

> <PUBCHEM_SHAPE_VOLUME>
332

> <PUBCHEM_COORDINATE_TYPE>
2
5
10

$$$$
