40779189
  -OEChem-12032416163D

 52 55  0     1  0  0  0  0  0999 V2000
   -2.5016    3.5619    0.1609 S   0  0  0  0  0  0  0  0  0  0  0  0
   -3.0170    4.6547   -0.6406 O   0  0  0  0  0  0  0  0  0  0  0  0
   -1.0779    3.2921    0.2196 O   0  0  0  0  0  0  0  0  0  0  0  0
   -3.2817   -1.5668    0.6115 N   0  0  2  0  0  0  0  0  0  0  0  0
    1.3885   -2.4692    0.7594 N   0  0  0  0  0  0  0  0  0  0  0  0
   -3.3127    2.1146   -0.2454 N   0  0  0  0  0  0  0  0  0  0  0  0
    2.5901   -1.8697    0.8132 N   0  0  0  0  0  0  0  0  0  0  0  0
   -1.7143   -1.8568   -1.4482 C   0  0  2  0  0  0  0  0  0  0  0  0
   -0.9744   -2.2556   -0.1413 C   0  0  2  0  0  0  0  0  0  0  0  0
   -3.2978   -0.3326   -0.2173 C   0  0  2  0  0  0  0  0  0  0  0  0
   -2.2233   -0.4052   -1.3235 C   0  0  0  0  0  0  0  0  0  0  0  0
   -2.9575   -2.7662   -1.5512 C   0  0  0  0  0  0  0  0  0  0  0  0
   -1.8958   -1.8666    1.0500 C   0  0  0  0  0  0  0  0  0  0  0  0
   -3.7520   -2.6890   -0.2357 C   0  0  0  0  0  0  0  0  0  0  0  0
   -3.1635    0.9373    0.6257 C   0  0  0  0  0  0  0  0  0  0  0  0
    0.4551   -1.7702    0.0519 C   0  0  0  0  0  0  0  0  0  0  0  0
    1.0901   -0.6342   -0.3873 C   0  0  0  0  0  0  0  0  0  0  0  0
    2.4017   -0.7494    0.1110 C   0  0  0  0  0  0  0  0  0  0  0  0
    1.2023   -3.7375    1.4254 C   0  0  0  0  0  0  0  0  0  0  0  0
    3.4770    0.1909   -0.0696 C   0  0  0  0  0  0  0  0  0  0  0  0
   -3.0672    3.7940    1.8307 C   0  0  0  0  0  0  0  0  0  0  0  0
    3.1975    1.5500   -0.2122 C   0  0  0  0  0  0  0  0  0  0  0  0
    4.7976   -0.2567   -0.1021 C   0  0  0  0  0  0  0  0  0  0  0  0
    4.2386    2.4616   -0.3876 C   0  0  0  0  0  0  0  0  0  0  0  0
    5.8388    0.6548   -0.2774 C   0  0  0  0  0  0  0  0  0  0  0  0
    5.5593    2.0139   -0.4201 C   0  0  0  0  0  0  0  0  0  0  0  0
   -1.0712   -1.9712   -2.3271 H   0  0  0  0  0  0  0  0  0  0  0  0
   -0.9163   -3.3542   -0.1651 H   0  0  0  0  0  0  0  0  0  0  0  0
   -4.2824   -0.2714   -0.7050 H   0  0  0  0  0  0  0  0  0  0  0  0
   -1.4032    0.2869   -1.1277 H   0  0  0  0  0  0  0  0  0  0  0  0
   -2.6692   -0.0967   -2.2777 H   0  0  0  0  0  0  0  0  0  0  0  0
   -2.6591   -3.8029   -1.7457 H   0  0  0  0  0  0  0  0  0  0  0  0
   -3.5848   -2.4461   -2.3920 H   0  0  0  0  0  0  0  0  0  0  0  0
   -1.9266   -2.6991    1.7655 H   0  0  0  0  0  0  0  0  0  0  0  0
   -1.4844   -1.0266    1.6211 H   0  0  0  0  0  0  0  0  0  0  0  0
   -4.8210   -2.5727   -0.4523 H   0  0  0  0  0  0  0  0  0  0  0  0
   -3.6656   -3.6334    0.3168 H   0  0  0  0  0  0  0  0  0  0  0  0
   -2.1909    0.9697    1.1260 H   0  0  0  0  0  0  0  0  0  0  0  0
   -3.9466    0.9662    1.3917 H   0  0  0  0  0  0  0  0  0  0  0  0
    0.6818    0.1583   -0.9945 H   0  0  0  0  0  0  0  0  0  0  0  0
   -4.2578    2.2176   -0.6383 H   0  0  0  0  0  0  0  0  0  0  0  0
    1.0230   -4.5031    0.6669 H   0  0  0  0  0  0  0  0  0  0  0  0
    2.1032   -3.9857    1.9932 H   0  0  0  0  0  0  0  0  0  0  0  0
    0.3542   -3.6558    2.1086 H   0  0  0  0  0  0  0  0  0  0  0  0
   -2.6702    4.7478    2.1865 H   0  0  0  0  0  0  0  0  0  0  0  0
   -4.1583    3.8289    1.8344 H   0  0  0  0  0  0  0  0  0  0  0  0
   -2.6939    2.9883    2.4642 H   0  0  0  0  0  0  0  0  0  0  0  0
    2.1798    1.9312   -0.1805 H   0  0  0  0  0  0  0  0  0  0  0  0
    5.0467   -1.3104   -0.0022 H   0  0  0  0  0  0  0  0  0  0  0  0
    4.0215    3.5202   -0.4963 H   0  0  0  0  0  0  0  0  0  0  0  0
    6.8672    0.3065   -0.3046 H   0  0  0  0  0  0  0  0  0  0  0  0
    6.3701    2.7237   -0.5564 H   0  0  0  0  0  0  0  0  0  0  0  0
  1  2  2  0  0  0  0
  1  3  2  0  0  0  0
  1  6  1  0  0  0  0
  1 21  1  0  0  0  0
  4 10  1  0  0  0  0
  4 13  1  0  0  0  0
  4 14  1  0  0  0  0
  5  7  1  0  0  0  0
  5 16  1  0  0  0  0
  5 19  1  0  0  0  0
  6 15  1  0  0  0  0
  6 41  1  0  0  0  0
  7 18  2  0  0  0  0
  8  9  1  0  0  0  0
  8 11  1  0  0  0  0
  8 12  1  0  0  0  0
  8 27  1  0  0  0  0
  9 13  1  0  0  0  0
  9 16  1  0  0  0  0
  9 28  1  0  0  0  0
 10 11  1  0  0  0  0
 10 15  1  0  0  0  0
 10 29  1  0  0  0  0
 11 30  1  0  0  0  0
 11 31  1  0  0  0  0
 12 14  1  0  0  0  0
 12 32  1  0  0  0  0
 12 33  1  0  0  0  0
 13 34  1  0  0  0  0
 13 35  1  0  0  0  0
 14 36  1  0  0  0  0
 14 37  1  0  0  0  0
 15 38  1  0  0  0  0
 15 39  1  0  0  0  0
 16 17  2  0  0  0  0
 17 18  1  0  0  0  0
 17 40  1  0  0  0  0
 18 20  1  0  0  0  0
 19 42  1  0  0  0  0
 19 43  1  0  0  0  0
 19 44  1  0  0  0  0
 20 22  2  0  0  0  0
 20 23  1  0  0  0  0
 21 45  1  0  0  0  0
 21 46  1  0  0  0  0
 21 47  1  0  0  0  0
 22 24  1  0  0  0  0
 22 48  1  0  0  0  0
 23 25  2  0  0  0  0
 23 49  1  0  0  0  0
 24 26  2  0  0  0  0
 24 50  1  0  0  0  0
 25 26  1  0  0  0  0
 25 51  1  0  0  0  0
 26 52  1  0  0  0  0
M  END
> <PUBCHEM_COMPOUND_CID>
40779189

> <PUBCHEM_CONFORMER_RMSD>
0.8

> <PUBCHEM_CONFORMER_DIVERSEORDER>
1
67
51
46
57
58
60
53
68
64
63
42
16
21
43
30
62
38
28
35
45
52
15
36
44
47
26
59
54
49
40
50
25
65
2
55
27
18
6
41
3
24
10
61
4
34
66
32
39
69
37
9
11
5
29
22
31
56
48
23
14
12
8
33
13
17
19
20
7

> <PUBCHEM_MMFF94_PARTIAL_CHARGES>
30
1 1.33
10 0.27
13 0.27
14 0.27
15 0.36
16 -0.33
17 -0.15
18 0.23
19 0.26
2 -0.65
20 0.05
21 0.11
22 -0.15
23 -0.15
24 -0.15
25 -0.15
26 -0.15
3 -0.65
4 -0.81
40 0.15
41 0.42
48 0.15
49 0.15
5 0.31
50 0.15
51 0.15
52 0.15
6 -0.91
7 -0.71
9 0.18

> <PUBCHEM_EFFECTIVE_ROTOR_COUNT>
6.2

> <PUBCHEM_PHARMACOPHORE_FEATURES>
8
1 2 acceptor
1 3 acceptor
1 4 cation
1 6 donor
1 7 acceptor
5 5 7 16 17 18 rings
6 20 22 23 24 25 26 rings
8 4 8 9 10 11 12 13 14 rings

> <PUBCHEM_HEAVY_ATOM_COUNT>
26

> <PUBCHEM_ATOM_DEF_STEREO_COUNT>
3

> <PUBCHEM_ATOM_UDEF_STEREO_COUNT>
0

> <PUBCHEM_BOND_DEF_STEREO_COUNT>
0

> <PUBCHEM_BOND_UDEF_STEREO_COUNT>
0

> <PUBCHEM_ISOTOPIC_ATOM_COUNT>
0

> <PUBCHEM_COMPONENT_COUNT>
1

> <PUBCHEM_CACTVS_TAUTO_COUNT>
1

> <PUBCHEM_CONFORMER_ID>
026E3DB500000001

> <PUBCHEM_MMFF94_ENERGY>
58.2107

> <PUBCHEM_FEATURE_SELFOVERLAP>
40.614

> <PUBCHEM_SHAPE_FINGERPRINT>
10006869 2 18338797811179020179
10087517 78 18269269239761247880
10670039 82 18336836394035925412
10871710 139 18339927112166957733
11045977 3 12252170923049311166
11513181 2 17986387793745392415
12107183 9 18120365459434465746
12788726 201 18337948025797445480
12978246 48 18194682562050989041
13761468 95 17844554152653800208
14117953 113 17329984699392945748
14251751 93 18341897389727883932
14251764 75 17982741774702676033
14394314 77 18122918791622400377
14466204 15 18409721843040866536
14790565 3 18334581235594256678
19930381 70 17113815748415830795
20739085 24 17749391404559150342
21033648 29 17680404918000672916
21033650 10 18197243480078460036
21857420 4 14611460315978219950
21864079 5 18407758127557413762
221357 26 18199749313921913734
22907989 373 18200579333827030263
283562 15 18336260249093195954
392239 28 18044673111593233131
469060 322 18041292057503051673
5048184 11 18338799988015795792
5252454 2 18272091543758546505
7226269 152 18192703674003618392
7288768 16 17749678398004223817
7808743 9 18341895156081068145

> <PUBCHEM_SHAPE_MULTIPOLES>
507.25
10.36
5.63
1.23
14.4
5.33
0.09
4.81
-1.33
-6.02
1.23
-0.94
-0.32
-2

> <PUBCHEM_SHAPE_SELFOVERLAP>
1073.047

> <PUBCHEM_SHAPE_VOLUME>
287.5

> <PUBCHEM_COORDINATE_TYPE>
2
5
10

$$$$
