71694054
  -OEChem-12032416273D

 48 50  0     1  0  0  0  0  0999 V2000
    4.4804   -3.6640   -0.5158 F   0  0  0  0  0  0  0  0  0  0  0  0
    5.7136   -2.6782    0.9711 F   0  0  0  0  0  0  0  0  0  0  0  0
    5.8669   -2.1018   -1.1198 F   0  0  0  0  0  0  0  0  0  0  0  0
    1.1300    3.5822   -1.6450 O   0  0  0  0  0  0  0  0  0  0  0  0
    0.8459    5.1319    0.6349 O   0  0  0  0  0  0  0  0  0  0  0  0
   -6.8838   -1.7308    0.5290 O   0  0  0  0  0  0  0  0  0  0  0  0
   -1.4090    1.3595   -0.3199 N   0  0  0  0  0  0  0  0  0  0  0  0
    2.9783   -1.6658    0.9855 N   0  0  0  0  0  0  0  0  0  0  0  0
   -0.0253    1.7633   -0.5790 C   0  0  2  0  0  0  0  0  0  0  0  0
    0.8508    1.4594    0.6756 C   0  0  2  0  0  0  0  0  0  0  0  0
    0.0493    3.2877   -0.7610 C   0  0  1  0  0  0  0  0  0  0  0  0
    1.3732    2.8243    1.1645 C   0  0  0  0  0  0  0  0  0  0  0  0
    0.3406    3.8123    0.6417 C   0  0  1  0  0  0  0  0  0  0  0  0
    1.9536    0.4522    0.4294 C   0  0  0  0  0  0  0  0  0  0  0  0
   -1.5697   -0.0783   -0.4830 C   0  0  0  0  0  0  0  0  0  0  0  0
    2.9316    0.6812   -0.5323 C   0  0  0  0  0  0  0  0  0  0  0  0
    2.0210   -0.7261    1.1550 C   0  0  0  0  0  0  0  0  0  0  0  0
   -2.9841   -0.5186   -0.2132 C   0  0  0  0  0  0  0  0  0  0  0  0
    3.9328   -0.2621   -0.7360 C   0  0  0  0  0  0  0  0  0  0  0  0
    3.9116   -1.4086    0.0418 C   0  0  0  0  0  0  0  0  0  0  0  0
   -3.4480   -0.6108    1.0990 C   0  0  0  0  0  0  0  0  0  0  0  0
   -3.8306   -0.8338   -1.2760 C   0  0  0  0  0  0  0  0  0  0  0  0
    4.9702   -2.4432   -0.1497 C   0  0  0  0  0  0  0  0  0  0  0  0
   -4.7584   -1.0185    1.3485 C   0  0  0  0  0  0  0  0  0  0  0  0
   -5.1411   -1.2416   -1.0267 C   0  0  0  0  0  0  0  0  0  0  0  0
   -5.6049   -1.3338    0.2856 C   0  0  0  0  0  0  0  0  0  0  0  0
   -7.6949   -2.0380   -0.6041 C   0  0  0  0  0  0  0  0  0  0  0  0
    0.3460    1.2656   -1.4837 H   0  0  0  0  0  0  0  0  0  0  0  0
    0.2125    1.0689    1.4821 H   0  0  0  0  0  0  0  0  0  0  0  0
   -0.8500    3.7431   -1.1884 H   0  0  0  0  0  0  0  0  0  0  0  0
    1.4512    2.8628    2.2569 H   0  0  0  0  0  0  0  0  0  0  0  0
    2.3704    3.0684    0.7785 H   0  0  0  0  0  0  0  0  0  0  0  0
   -0.5661    3.7826    1.2579 H   0  0  0  0  0  0  0  0  0  0  0  0
   -2.0253    1.8327   -0.9813 H   0  0  0  0  0  0  0  0  0  0  0  0
    0.9019    3.2159   -2.5165 H   0  0  0  0  0  0  0  0  0  0  0  0
   -0.9155   -0.6343    0.1987 H   0  0  0  0  0  0  0  0  0  0  0  0
   -1.2829   -0.3824   -1.4982 H   0  0  0  0  0  0  0  0  0  0  0  0
    1.0898    5.3562    1.5491 H   0  0  0  0  0  0  0  0  0  0  0  0
    2.9315    1.5858   -1.1324 H   0  0  0  0  0  0  0  0  0  0  0  0
    1.2882   -0.9644    1.9196 H   0  0  0  0  0  0  0  0  0  0  0  0
    4.6957   -0.0844   -1.4859 H   0  0  0  0  0  0  0  0  0  0  0  0
   -2.7974   -0.3681    1.9352 H   0  0  0  0  0  0  0  0  0  0  0  0
   -3.4824   -0.7639   -2.3032 H   0  0  0  0  0  0  0  0  0  0  0  0
   -5.1142   -1.0884    2.3728 H   0  0  0  0  0  0  0  0  0  0  0  0
   -5.7447   -1.4706   -1.8983 H   0  0  0  0  0  0  0  0  0  0  0  0
   -8.6785   -2.3356   -0.2262 H   0  0  0  0  0  0  0  0  0  0  0  0
   -7.2966   -2.8904   -1.1649 H   0  0  0  0  0  0  0  0  0  0  0  0
   -7.8490   -1.1588   -1.2389 H   0  0  0  0  0  0  0  0  0  0  0  0
  1 23  1  0  0  0  0
  2 23  1  0  0  0  0
  3 23  1  0  0  0  0
  4 11  1  0  0  0  0
  4 35  1  0  0  0  0
  5 13  1  0  0  0  0
  5 38  1  0  0  0  0
  6 26  1  0  0  0  0
  6 27  1  0  0  0  0
  7  9  1  0  0  0  0
  7 15  1  0  0  0  0
  7 34  1  0  0  0  0
  8 17  1  0  0  0  0
  8 20  2  0  0  0  0
  9 10  1  0  0  0  0
  9 11  1  0  0  0  0
  9 28  1  0  0  0  0
 10 12  1  0  0  0  0
 10 14  1  0  0  0  0
 10 29  1  0  0  0  0
 11 13  1  0  0  0  0
 11 30  1  0  0  0  0
 12 13  1  0  0  0  0
 12 31  1  0  0  0  0
 12 32  1  0  0  0  0
 13 33  1  0  0  0  0
 14 16  1  0  0  0  0
 14 17  2  0  0  0  0
 15 18  1  0  0  0  0
 15 36  1  0  0  0  0
 15 37  1  0  0  0  0
 16 19  2  0  0  0  0
 16 39  1  0  0  0  0
 17 40  1  0  0  0  0
 18 21  2  0  0  0  0
 18 22  1  0  0  0  0
 19 20  1  0  0  0  0
 19 41  1  0  0  0  0
 20 23  1  0  0  0  0
 21 24  1  0  0  0  0
 21 42  1  0  0  0  0
 22 25  2  0  0  0  0
 22 43  1  0  0  0  0
 24 26  2  0  0  0  0
 24 44  1  0  0  0  0
 25 26  1  0  0  0  0
 25 45  1  0  0  0  0
 27 46  1  0  0  0  0
 27 47  1  0  0  0  0
 27 48  1  0  0  0  0
M  END
> <PUBCHEM_COMPOUND_CID>
71694054

> <PUBCHEM_CONFORMER_RMSD>
0.8

> <PUBCHEM_CONFORMER_DIVERSEORDER>
2
36
60
55
61
41
46
42
59
66
27
25
74
39
22
49
65
68
45
33
40
51
16
50
23
11
73
63
52
48
72
24
14
67
17
54
57
71
4
69
34
43
30
70
62
20
64
56
15
75
26
10
21
8
28
58
44
53
47
29
32
38
6
13
7
31
9
5
37
19
18
35
3
1
12

> <PUBCHEM_MMFF94_PARTIAL_CHARGES>
36
1 -0.34
10 0.14
11 0.28
13 0.28
14 -0.14
15 0.41
16 -0.15
17 0.16
18 -0.14
19 -0.15
2 -0.34
20 0.17
21 -0.15
22 -0.15
23 1.16
24 -0.15
25 -0.15
26 0.08
27 0.28
3 -0.34
34 0.36
35 0.4
38 0.4
39 0.15
4 -0.68
40 0.15
41 0.15
42 0.15
43 0.15
44 0.15
45 0.15
5 -0.68
6 -0.36
7 -0.9
8 -0.62
9 0.27

> <PUBCHEM_EFFECTIVE_ROTOR_COUNT>
7

> <PUBCHEM_PHARMACOPHORE_FEATURES>
11
1 4 acceptor
1 4 donor
1 5 acceptor
1 5 donor
1 6 acceptor
1 7 cation
1 7 donor
1 8 acceptor
5 9 10 11 12 13 rings
6 18 21 22 24 25 26 rings
6 8 14 16 17 19 20 rings

> <PUBCHEM_HEAVY_ATOM_COUNT>
27

> <PUBCHEM_ATOM_DEF_STEREO_COUNT>
4

> <PUBCHEM_ATOM_UDEF_STEREO_COUNT>
0

> <PUBCHEM_BOND_DEF_STEREO_COUNT>
0

> <PUBCHEM_BOND_UDEF_STEREO_COUNT>
0

> <PUBCHEM_ISOTOPIC_ATOM_COUNT>
0

> <PUBCHEM_COMPONENT_COUNT>
1

> <PUBCHEM_CACTVS_TAUTO_COUNT>
1

> <PUBCHEM_CONFORMER_ID>
0445F6E600000002

> <PUBCHEM_MMFF94_ENERGY>
77.8068

> <PUBCHEM_FEATURE_SELFOVERLAP>
55.831

> <PUBCHEM_SHAPE_FINGERPRINT>
10411042 1 18411698751550950562
114674 6 18115859857840216859
11809386 21 17974002843874587098
11954058 11 18341613758793680903
11991303 11 17683812007961647333
12107183 9 18272100344932311585
12166972 35 18201439212076042507
12516196 113 18411417310649408002
12553582 1 18411409614057502954
12633257 1 15913318104807463414
12788726 201 17902500498312007489
13533116 47 18266459992020755785
13540713 4 18265872736062345192
13631057 29 18264209115604310442
13673619 4 18040434391468139279
13911852 28 18412263900507015663
13955234 65 18124879220622272425
14068700 675 18131918152355091683
14251764 30 18409450271631486247
14866123 147 18123470467307184265
15042514 8 18196376909590652313
17349148 13 17560524010268371439
17492 89 18195248811467636734
17980427 23 12822997738784826625
1813 80 18271538532295754413
20505436 4 17269200849309993629
20554085 129 11530764863832663070
20775438 99 17904465656599366795
20775530 9 18337943515628019430
20832881 197 18408040711020438537
21120745 212 18267317434686337612
21130935 74 18121507010898805075
21344244 78 17987789834759917233
21365058 113 18113624503809865869
21716022 299 18188229670436995636
221357 26 18187363233809760203
2215653 11 17968087677739066391
22950370 63 18411144605927084138
23559900 14 17677332857149180823
283562 15 18190462654188633170
3004659 81 17894347761479027490
314194 84 18411704330360215638
3388396 114 17388857199757863564
3421961 26 18340766039154192928
345986 75 17846504737557254241
34797466 226 16588590919601980015
437815 12 18408603643751857311
46194498 28 17458906067060000109
463206 1 18408886256341896986
465052 167 18342180003008383703
5219985 9 18410015412038742914
5309563 4 18411417272195480639
57527585 21 14854449778803805854
6695519 79 16555614247104453714
6823239 73 16443625830602249493
70251023 43 18410014295716550314
77188 2 18412262835223601696
7970288 3 18411699872374819943
9962374 69 18269547411992705591

> <PUBCHEM_SHAPE_MULTIPOLES>
506.26
14.89
4.93
1.27
20.32
5.29
0
-20.53
1.02
-6.98
-0.01
0.22
0.17
0.11

> <PUBCHEM_SHAPE_SELFOVERLAP>
1082.762

> <PUBCHEM_SHAPE_VOLUME>
283.7

> <PUBCHEM_COORDINATE_TYPE>
2
5
10

$$$$
