45360760
  -OEChem-12032416383D

 67 69  0     1  0  0  0  0  0999 V2000
   -0.4508   -4.9654   -0.5049 O   0  0  0  0  0  0  0  0  0  0  0  0
   -5.0882    1.4841    1.8912 O   0  0  0  0  0  0  0  0  0  0  0  0
   -1.9208   -1.6323   -0.2741 N   0  0  1  0  0  0  0  0  0  0  0  0
   -1.9830   -4.1494    0.9644 N   0  0  0  0  0  0  0  0  0  0  0  0
    1.4927   -0.4219   -0.1387 N   0  0  0  0  0  0  0  0  0  0  0  0
   -5.1597    2.4853   -0.1997 N   0  0  0  0  0  0  0  0  0  0  0  0
    7.5389    1.4754    0.7077 N   0  0  0  0  0  0  0  0  0  0  0  0
   -1.2436   -2.7444   -0.9531 C   0  0  1  0  0  0  0  0  0  0  0  0
    0.1870   -0.8057   -0.6506 C   0  0  1  0  0  0  0  0  0  0  0  0
   -3.1057   -2.0224    0.4817 C   0  0  1  0  0  0  0  0  0  0  0  0
    0.1673   -2.2123   -1.2498 C   0  0  0  0  0  0  0  0  0  0  0  0
   -0.8929   -0.8612    0.4212 C   0  0  0  0  0  0  0  0  0  0  0  0
   -2.7591   -3.0695    1.5286 C   0  0  0  0  0  0  0  0  0  0  0  0
   -1.1725   -4.0330   -0.1389 C   0  0  0  0  0  0  0  0  0  0  0  0
   -3.8247   -0.8304    1.1147 C   0  0  0  0  0  0  0  0  0  0  0  0
   -4.1362    0.2417    0.0753 C   0  0  0  0  0  0  0  0  0  0  0  0
    2.3742    0.0029   -1.2188 C   0  0  0  0  0  0  0  0  0  0  0  0
   -4.8355    1.4503    0.6840 C   0  0  0  0  0  0  0  0  0  0  0  0
    3.7371    0.3915   -0.7104 C   0  0  0  0  0  0  0  0  0  0  0  0
    3.9197    1.6183   -0.0721 C   0  0  0  0  0  0  0  0  0  0  0  0
    4.8171   -0.4754   -0.8774 C   0  0  0  0  0  0  0  0  0  0  0  0
   -5.8397    3.6723    0.3036 C   0  0  0  0  0  0  0  0  0  0  0  0
   -4.8812    2.4903   -1.6339 C   0  0  0  0  0  0  0  0  0  0  0  0
    5.1823    1.9783    0.3988 C   0  0  0  0  0  0  0  0  0  0  0  0
    6.0796   -0.1154   -0.4065 C   0  0  0  0  0  0  0  0  0  0  0  0
    6.2623    1.1114    0.2316 C   0  0  0  0  0  0  0  0  0  0  0  0
   -7.3451    3.5171    0.2417 C   0  0  0  0  0  0  0  0  0  0  0  0
   -3.5244    3.0933   -1.9332 C   0  0  0  0  0  0  0  0  0  0  0  0
    7.7390    2.7479    1.3721 C   0  0  0  0  0  0  0  0  0  0  0  0
    8.6659    0.5785    0.5458 C   0  0  0  0  0  0  0  0  0  0  0  0
   -1.7705   -2.9803   -1.8851 H   0  0  0  0  0  0  0  0  0  0  0  0
   -0.1459   -0.0845   -1.4126 H   0  0  0  0  0  0  0  0  0  0  0  0
   -3.8059   -2.4782   -0.2332 H   0  0  0  0  0  0  0  0  0  0  0  0
    0.3586   -2.1692   -2.3282 H   0  0  0  0  0  0  0  0  0  0  0  0
    0.9449   -2.8415   -0.7996 H   0  0  0  0  0  0  0  0  0  0  0  0
   -1.2180    0.1460    0.6988 H   0  0  0  0  0  0  0  0  0  0  0  0
   -0.5294   -1.3720    1.3212 H   0  0  0  0  0  0  0  0  0  0  0  0
   -2.1761   -2.6512    2.3564 H   0  0  0  0  0  0  0  0  0  0  0  0
   -3.6670   -3.5105    1.9542 H   0  0  0  0  0  0  0  0  0  0  0  0
   -4.7588   -1.1739    1.5784 H   0  0  0  0  0  0  0  0  0  0  0  0
   -3.2233   -0.4006    1.9262 H   0  0  0  0  0  0  0  0  0  0  0  0
   -1.9424   -5.0198    1.4857 H   0  0  0  0  0  0  0  0  0  0  0  0
    1.3781    0.3498    0.5189 H   0  0  0  0  0  0  0  0  0  0  0  0
   -4.7975   -0.1919   -0.6832 H   0  0  0  0  0  0  0  0  0  0  0  0
   -3.2266    0.5950   -0.4147 H   0  0  0  0  0  0  0  0  0  0  0  0
    1.9488    0.8627   -1.7535 H   0  0  0  0  0  0  0  0  0  0  0  0
    2.4843   -0.7973   -1.9614 H   0  0  0  0  0  0  0  0  0  0  0  0
    3.0858    2.3022    0.0627 H   0  0  0  0  0  0  0  0  0  0  0  0
    4.6884   -1.4352   -1.3708 H   0  0  0  0  0  0  0  0  0  0  0  0
   -5.5431    3.8409    1.3450 H   0  0  0  0  0  0  0  0  0  0  0  0
   -5.5167    4.5495   -0.2676 H   0  0  0  0  0  0  0  0  0  0  0  0
   -4.9156    1.4708   -2.0260 H   0  0  0  0  0  0  0  0  0  0  0  0
   -5.6681    3.0494   -2.1526 H   0  0  0  0  0  0  0  0  0  0  0  0
    5.2726    2.9430    0.8880 H   0  0  0  0  0  0  0  0  0  0  0  0
    6.8871   -0.8243   -0.5605 H   0  0  0  0  0  0  0  0  0  0  0  0
   -7.8367    4.4118    0.6361 H   0  0  0  0  0  0  0  0  0  0  0  0
   -7.6785    2.6570    0.8319 H   0  0  0  0  0  0  0  0  0  0  0  0
   -7.6882    3.3665   -0.7869 H   0  0  0  0  0  0  0  0  0  0  0  0
   -3.3286    3.0707   -3.0099 H   0  0  0  0  0  0  0  0  0  0  0  0
   -3.4750    4.1364   -1.6038 H   0  0  0  0  0  0  0  0  0  0  0  0
   -2.7170    2.5530   -1.4305 H   0  0  0  0  0  0  0  0  0  0  0  0
    8.7818    2.8844    1.6800 H   0  0  0  0  0  0  0  0  0  0  0  0
    7.1339    2.8185    2.2828 H   0  0  0  0  0  0  0  0  0  0  0  0
    7.4998    3.5844    0.7060 H   0  0  0  0  0  0  0  0  0  0  0  0
    9.5842    1.0019    0.9679 H   0  0  0  0  0  0  0  0  0  0  0  0
    8.8704    0.3868   -0.5135 H   0  0  0  0  0  0  0  0  0  0  0  0
    8.4940   -0.3711    1.0647 H   0  0  0  0  0  0  0  0  0  0  0  0
  1 14  2  0  0  0  0
  2 18  2  0  0  0  0
  3  8  1  0  0  0  0
  3 10  1  0  0  0  0
  3 12  1  0  0  0  0
  4 13  1  0  0  0  0
  4 14  1  0  0  0  0
  4 42  1  0  0  0  0
  5  9  1  0  0  0  0
  5 17  1  0  0  0  0
  5 43  1  0  0  0  0
  6 18  1  0  0  0  0
  6 22  1  0  0  0  0
  6 23  1  0  0  0  0
  7 26  1  0  0  0  0
  7 29  1  0  0  0  0
  7 30  1  0  0  0  0
  8 11  1  0  0  0  0
  8 14  1  0  0  0  0
  8 31  1  0  0  0  0
  9 11  1  0  0  0  0
  9 12  1  0  0  0  0
  9 32  1  0  0  0  0
 10 13  1  0  0  0  0
 10 15  1  0  0  0  0
 10 33  1  0  0  0  0
 11 34  1  0  0  0  0
 11 35  1  0  0  0  0
 12 36  1  0  0  0  0
 12 37  1  0  0  0  0
 13 38  1  0  0  0  0
 13 39  1  0  0  0  0
 15 16  1  0  0  0  0
 15 40  1  0  0  0  0
 15 41  1  0  0  0  0
 16 18  1  0  0  0  0
 16 44  1  0  0  0  0
 16 45  1  0  0  0  0
 17 19  1  0  0  0  0
 17 46  1  0  0  0  0
 17 47  1  0  0  0  0
 19 20  2  0  0  0  0
 19 21  1  0  0  0  0
 20 24  1  0  0  0  0
 20 48  1  0  0  0  0
 21 25  2  0  0  0  0
 21 49  1  0  0  0  0
 22 27  1  0  0  0  0
 22 50  1  0  0  0  0
 22 51  1  0  0  0  0
 23 28  1  0  0  0  0
 23 52  1  0  0  0  0
 23 53  1  0  0  0  0
 24 26  2  0  0  0  0
 24 54  1  0  0  0  0
 25 26  1  0  0  0  0
 25 55  1  0  0  0  0
 27 56  1  0  0  0  0
 27 57  1  0  0  0  0
 27 58  1  0  0  0  0
 28 59  1  0  0  0  0
 28 60  1  0  0  0  0
 28 61  1  0  0  0  0
 29 62  1  0  0  0  0
 29 63  1  0  0  0  0
 29 64  1  0  0  0  0
 30 65  1  0  0  0  0
 30 66  1  0  0  0  0
 30 67  1  0  0  0  0
M  END
> <PUBCHEM_COMPOUND_CID>
45360760

> <PUBCHEM_CONFORMER_RMSD>
1

> <PUBCHEM_CONFORMER_DIVERSEORDER>
1
32
100
239
21
182
36
141
154
217
68
142
130
147
132
168
67
15
57
38
231
171
138
225
228
124
96
241
237
209
195
146
122
52
44
240
194
114
230
27
43
77
80
247
62
178
198
213
176
219
163
4
17
216
108
133
99
45
226
111
190
158
204
127
201
214
125
140
59
107
6
208
66
199
35
183
30
105
143
200
55
223
233
211
72
53
156
155
164
152
192
218
224
121
73
196
205
85
135
109
126
22
120
220
181
246
169
113
245
71
193
151
94
173
25
110
244
170
76
79
232
165
5
34
136
202
47
90
210
234
215
84
118
23
153
166
103
129
222
97
148
13
49
179
75
235
37
229
117
82
101
197
144
104
69
236
206
238
115
87
134
92
14
10
26
83
221
93
86
242
19
174
191
51
243
78
95
31
123
248
2
39
189
3
41
184
172
20
162
7
145
46
227
29
131
12
212
177
150
40
60
137
185
28
58
175
91
88
56
128
167
112
149
24
11
102
188
98
180
9
157
116
70
187
50
161
61
159
207
89
203
139
74
106
48
64
65
42
81
16
119
63
186
160
18
33
8
54

> <PUBCHEM_MMFF94_PARTIAL_CHARGES>
32
1 -0.57
10 0.27
12 0.27
13 0.3
14 0.57
16 0.06
17 0.41
18 0.57
19 -0.14
2 -0.57
20 -0.15
21 -0.15
22 0.3
23 0.3
24 -0.15
25 -0.15
26 0.1
29 0.37
3 -0.81
30 0.37
4 -0.73
42 0.37
43 0.36
48 0.15
49 0.15
5 -0.9
54 0.15
55 0.15
6 -0.66
7 -0.84
8 0.33
9 0.27

> <PUBCHEM_EFFECTIVE_ROTOR_COUNT>
11.2

> <PUBCHEM_PHARMACOPHORE_FEATURES>
10
1 1 acceptor
1 2 acceptor
1 3 cation
1 4 donor
1 5 cation
1 5 donor
1 7 cation
5 3 8 9 11 12 rings
6 19 20 21 24 25 26 rings
6 3 4 8 10 13 14 rings

> <PUBCHEM_HEAVY_ATOM_COUNT>
30

> <PUBCHEM_ATOM_DEF_STEREO_COUNT>
3

> <PUBCHEM_ATOM_UDEF_STEREO_COUNT>
0

> <PUBCHEM_BOND_DEF_STEREO_COUNT>
0

> <PUBCHEM_BOND_UDEF_STEREO_COUNT>
0

> <PUBCHEM_ISOTOPIC_ATOM_COUNT>
0

> <PUBCHEM_COMPONENT_COUNT>
1

> <PUBCHEM_CACTVS_TAUTO_COUNT>
3

> <PUBCHEM_CONFORMER_ID>
02B4267800000001

> <PUBCHEM_MMFF94_ENERGY>
76.4552

> <PUBCHEM_FEATURE_SELFOVERLAP>
50.934

> <PUBCHEM_SHAPE_FINGERPRINT>
10074138 170 17968105265244996139
105312 117 18410858759032433919
10554248 39 15841565085246571940
11135609 201 18337951200105363617
11227688 84 8213868011856884025
11297750 10 17413579890064304243
12107183 9 18333449855093002948
12988421 55 18340215102756814897
13631057 29 10087641498485332364
13673619 4 12107791813211299252
14950920 106 16154569708090660897
15021287 119 17095524041158887116
15326921 28 18261377906599755941
16114785 44 18341326786269809999
19053607 189 17461740398053105653
19304671 126 17700986440038816797
21033648 29 18409454665150525548
21133410 32 15410033210482061119
21196832 93 9367340453794583848
21859007 373 18335984164944241508
22288116 15 10159707919393093176
23522609 53 17532389728333398372
25019877 29 18130521824708432735
397638 26 18408602539803305392
4112364 45 18115866300444317163
4144715 1 18193282008445134048
437815 12 9727337027701397349
4938544 92 18337672031119668638
5104073 3 18335416911702913618
5219985 13 18409735023873439823
6086070 43 16702009925184712026
636775 8 7925633332743936616
6371380 46 18267035968368237782
9896288 288 18188216514688949811
9981440 41 18336277777604415395
999808 66 12179838403701562664

> <PUBCHEM_SHAPE_MULTIPOLES>
580.74
21.36
5.73
1.42
32.9
4
0.08
-28.29
-6.27
-9.74
-0.11
-0.94
-0.32
2.73

> <PUBCHEM_SHAPE_SELFOVERLAP>
1193.706

> <PUBCHEM_SHAPE_VOLUME>
335.9

> <PUBCHEM_COORDINATE_TYPE>
2
5
10

$$$$
