75536560
  -OEChem-12032416313D

 49 51  0     1  0  0  0  0  0999 V2000
   -8.6709   -0.0184    0.6919 F   0  0  0  0  0  0  0  0  0  0  0  0
    0.9643   -1.2189   -0.2866 O   0  0  0  0  0  0  0  0  0  0  0  0
    0.0145    2.1587    0.4847 O   0  0  0  0  0  0  0  0  0  0  0  0
    4.6120    1.3958   -0.0243 O   0  0  0  0  0  0  0  0  0  0  0  0
    3.5596   -0.5341    0.7467 N   0  0  0  0  0  0  0  0  0  0  0  0
   -2.3801    0.1655    0.0733 N   0  0  0  0  0  0  0  0  0  0  0  0
    1.2918    0.1172    0.1298 C   0  0  1  0  0  0  0  0  0  0  0  0
   -0.0168    0.7483    0.5859 C   0  0  2  0  0  0  0  0  0  0  0  0
    5.7550   -0.6900   -0.2202 C   0  0  0  0  0  0  0  0  0  0  0  0
   -0.9998    0.1134   -0.3803 C   0  0  1  0  0  0  0  0  0  0  0  0
    6.7581   -0.7765    0.9357 C   0  0  0  0  0  0  0  0  0  0  0  0
    6.5162   -0.0898   -1.4033 C   0  0  0  0  0  0  0  0  0  0  0  0
    8.0951   -0.3197    0.3617 C   0  0  0  0  0  0  0  0  0  0  0  0
    7.7126    0.6105   -0.7753 C   0  0  0  0  0  0  0  0  0  0  0  0
   -0.4597   -1.3044   -0.4705 C   0  0  0  0  0  0  0  0  0  0  0  0
    2.3479    0.0709    1.2196 C   0  0  0  0  0  0  0  0  0  0  0  0
    4.5974    0.1816    0.1606 C   0  0  0  0  0  0  0  0  0  0  0  0
   -3.3021   -0.1412   -1.0137 C   0  0  0  0  0  0  0  0  0  0  0  0
   -4.7367   -0.1083   -0.5581 C   0  0  0  0  0  0  0  0  0  0  0  0
   -5.3393   -1.2669   -0.0680 C   0  0  0  0  0  0  0  0  0  0  0  0
   -5.4632    1.0806   -0.6259 C   0  0  0  0  0  0  0  0  0  0  0  0
   -6.6684   -1.2368    0.3540 C   0  0  0  0  0  0  0  0  0  0  0  0
   -6.7923    1.1107   -0.2039 C   0  0  0  0  0  0  0  0  0  0  0  0
   -7.3949   -0.0480    0.2861 C   0  0  0  0  0  0  0  0  0  0  0  0
    1.6922    0.6436   -0.7467 H   0  0  0  0  0  0  0  0  0  0  0  0
   -0.2486    0.4732    1.6224 H   0  0  0  0  0  0  0  0  0  0  0  0
   -0.8996    0.6219   -1.3498 H   0  0  0  0  0  0  0  0  0  0  0  0
    5.3860   -1.6855   -0.4946 H   0  0  0  0  0  0  0  0  0  0  0  0
    6.8331   -1.7976    1.3249 H   0  0  0  0  0  0  0  0  0  0  0  0
    6.4711   -0.1315    1.7750 H   0  0  0  0  0  0  0  0  0  0  0  0
    6.8752   -0.9006   -2.0500 H   0  0  0  0  0  0  0  0  0  0  0  0
    5.9262    0.5869   -2.0294 H   0  0  0  0  0  0  0  0  0  0  0  0
    8.6479   -1.1828   -0.0283 H   0  0  0  0  0  0  0  0  0  0  0  0
    8.7218    0.1721    1.1112 H   0  0  0  0  0  0  0  0  0  0  0  0
    7.4221    1.5924   -0.3844 H   0  0  0  0  0  0  0  0  0  0  0  0
    8.5301    0.7533   -1.4878 H   0  0  0  0  0  0  0  0  0  0  0  0
   -0.8495   -1.9503    0.3248 H   0  0  0  0  0  0  0  0  0  0  0  0
   -0.6725   -1.7774   -1.4340 H   0  0  0  0  0  0  0  0  0  0  0  0
    2.0068   -0.5410    2.0619 H   0  0  0  0  0  0  0  0  0  0  0  0
    2.5677    1.0788    1.5873 H   0  0  0  0  0  0  0  0  0  0  0  0
    3.6529   -1.5400    0.8540 H   0  0  0  0  0  0  0  0  0  0  0  0
   -2.5804    1.1033    0.4223 H   0  0  0  0  0  0  0  0  0  0  0  0
    0.2190    2.3948   -0.4359 H   0  0  0  0  0  0  0  0  0  0  0  0
   -3.0930   -1.1341   -1.4319 H   0  0  0  0  0  0  0  0  0  0  0  0
   -3.1766    0.5708   -1.8402 H   0  0  0  0  0  0  0  0  0  0  0  0
   -4.7835   -2.1990   -0.0083 H   0  0  0  0  0  0  0  0  0  0  0  0
   -5.0046    1.9904   -1.0040 H   0  0  0  0  0  0  0  0  0  0  0  0
   -7.1377   -2.1385    0.7362 H   0  0  0  0  0  0  0  0  0  0  0  0
   -7.3582    2.0362   -0.2560 H   0  0  0  0  0  0  0  0  0  0  0  0
  1 24  1  0  0  0  0
  2  7  1  0  0  0  0
  2 15  1  0  0  0  0
  3  8  1  0  0  0  0
  3 43  1  0  0  0  0
  4 17  2  0  0  0  0
  5 16  1  0  0  0  0
  5 17  1  0  0  0  0
  5 41  1  0  0  0  0
  6 10  1  0  0  0  0
  6 18  1  0  0  0  0
  6 42  1  0  0  0  0
  7  8  1  0  0  0  0
  7 16  1  0  0  0  0
  7 25  1  0  0  0  0
  8 10  1  0  0  0  0
  8 26  1  0  0  0  0
  9 11  1  0  0  0  0
  9 12  1  0  0  0  0
  9 17  1  0  0  0  0
  9 28  1  0  0  0  0
 10 15  1  0  0  0  0
 10 27  1  0  0  0  0
 11 13  1  0  0  0  0
 11 29  1  0  0  0  0
 11 30  1  0  0  0  0
 12 14  1  0  0  0  0
 12 31  1  0  0  0  0
 12 32  1  0  0  0  0
 13 14  1  0  0  0  0
 13 33  1  0  0  0  0
 13 34  1  0  0  0  0
 14 35  1  0  0  0  0
 14 36  1  0  0  0  0
 15 37  1  0  0  0  0
 15 38  1  0  0  0  0
 16 39  1  0  0  0  0
 16 40  1  0  0  0  0
 18 19  1  0  0  0  0
 18 44  1  0  0  0  0
 18 45  1  0  0  0  0
 19 20  2  0  0  0  0
 19 21  1  0  0  0  0
 20 22  1  0  0  0  0
 20 46  1  0  0  0  0
 21 23  2  0  0  0  0
 21 47  1  0  0  0  0
 22 24  2  0  0  0  0
 22 48  1  0  0  0  0
 23 24  1  0  0  0  0
 23 49  1  0  0  0  0
M  END
> <PUBCHEM_COMPOUND_CID>
75536560

> <PUBCHEM_CONFORMER_RMSD>
1

> <PUBCHEM_CONFORMER_DIVERSEORDER>
1
69
143
113
108
127
158
42
155
9
150
117
95
6
66
82
74
80
132
73
115
13
77
106
5
139
100
34
114
17
47
140
14
121
63
152
109
12
105
85
138
135
89
94
30
59
56
147
126
161
53
10
40
122
2
29
145
32
28
18
103
84
142
148
119
36
65
123
134
96
130
90
153
61
37
97
78
35
62
26
70
154
21
102
99
41
124
107
131
144
79
149
93
39
136
46
3
68
110
104
27
116
19
22
16
31
50
137
51
33
43
133
156
128
120
11
71
49
54
44
92
88
48
129
52
86
160
45
55
67
25
76
125
57
111
24
91
146
7
87
38
81
72
58
4
60
83
23
141
75
101
151
15
157
20
159
98
118
64
8
112

> <PUBCHEM_MMFF94_PARTIAL_CHARGES>
27
1 -0.19
10 0.27
15 0.28
16 0.3
17 0.57
18 0.41
19 -0.14
2 -0.56
20 -0.15
21 -0.15
22 -0.15
23 -0.15
24 0.19
3 -0.68
4 -0.57
41 0.37
42 0.36
43 0.4
46 0.15
47 0.15
48 0.15
49 0.15
5 -0.73
6 -0.9
7 0.28
8 0.28
9 0.06

> <PUBCHEM_EFFECTIVE_ROTOR_COUNT>
9

> <PUBCHEM_PHARMACOPHORE_FEATURES>
10
1 2 acceptor
1 3 acceptor
1 3 donor
1 4 acceptor
1 5 donor
1 6 cation
1 6 donor
5 2 7 8 10 15 rings
5 9 11 12 13 14 rings
6 19 20 21 22 23 24 rings

> <PUBCHEM_HEAVY_ATOM_COUNT>
24

> <PUBCHEM_ATOM_DEF_STEREO_COUNT>
3

> <PUBCHEM_ATOM_UDEF_STEREO_COUNT>
0

> <PUBCHEM_BOND_DEF_STEREO_COUNT>
0

> <PUBCHEM_BOND_UDEF_STEREO_COUNT>
0

> <PUBCHEM_ISOTOPIC_ATOM_COUNT>
0

> <PUBCHEM_COMPONENT_COUNT>
1

> <PUBCHEM_CACTVS_TAUTO_COUNT>
2

> <PUBCHEM_CONFORMER_ID>
048098B000000001

> <PUBCHEM_MMFF94_ENERGY>
45.2094

> <PUBCHEM_FEATURE_SELFOVERLAP>
50.747

> <PUBCHEM_SHAPE_FINGERPRINT>
10050765 1 18051412868525512590
10299344 5 18040433291429062059
10319688 140 16557637322423543950
106641 1 17022907861181130147
11315181 36 17530965783634515941
11524674 6 17632856451832715279
11638347 137 12396292652450133176
12091667 2 15864067659796550951
12166972 35 17822012025338165644
12236239 1 18040432183733493182
13533116 47 17168412771814430082
14123256 10 14996281422540106382
14251764 18 17967531276597694279
14251764 46 18342738516360340479
14849402 71 16950856893634728092
14856354 85 18409731785832348767
14933364 13 18334857220869650597
15183329 4 15626224610825690382
15419008 47 17418086598994829064
15716309 27 17530682104770026107
15849732 13 18343582957927114116
18006028 8 15841550773491855896
18335252 98 17967534553784504274
20157964 124 16370724817173423858
21095086 128 16877940533791653194
21150785 3 17748828522860786892
21267235 1 18413672409045429848
21315763 28 16805318873498898158
21792961 116 18338508643346085765
22224240 67 14562531786506814832
23035841 295 18409164420072200651
23559900 14 15769477833478101218
246663 6 18343867722838217003
249057 3 16630802235721910580
28498 318 15482675658569346076
335352 9 18201716280141825421
34797466 226 16732987513913983422
4325135 7 16515684446457343615
5283156 175 18410572860877802706
5758199 1 17022620870870312875
59682541 35 15213024864258503565
59755656 215 17775568606698422318
59755656 520 18040710394224628059
6394761 36 15267345119289054716
67123 10 17676207982932348330

> <PUBCHEM_SHAPE_MULTIPOLES>
459.07
27.09
1.29
0.99
0.69
0.2
0.06
-1.18
0.3
0.72
-0.05
-0.81
0
-0.13

> <PUBCHEM_SHAPE_SELFOVERLAP>
960.383

> <PUBCHEM_SHAPE_VOLUME>
262.1

> <PUBCHEM_COORDINATE_TYPE>
2
5
10

$$$$
