7142358
  -OEChem-12032416163D

 60 64  0     1  0  0  0  0  0999 V2000
   -5.8786   -0.2367   -2.0367 O   0  0  0  0  0  0  0  0  0  0  0  0
   -3.1522   -1.7958    0.3521 O   0  0  0  0  0  0  0  0  0  0  0  0
    0.4203    2.0635    0.8836 O   0  0  0  0  0  0  0  0  0  0  0  0
    7.0439    2.1108    0.4386 O   0  0  0  0  0  0  0  0  0  0  0  0
    8.5282    0.4360   -0.4556 O   0  0  0  0  0  0  0  0  0  0  0  0
   -4.1565    0.7607   -0.8353 N   0  0  0  0  0  0  0  0  0  0  0  0
   -1.3620    0.9392   -0.0706 N   0  0  0  0  0  0  0  0  0  0  0  0
   -0.8954   -1.8981    0.6278 N   0  0  0  0  0  0  0  0  0  0  0  0
   -1.8379   -0.1811   -0.8703 C   0  0  2  0  0  0  0  0  0  0  0  0
   -3.1088    0.1545   -1.6610 C   0  0  0  0  0  0  0  0  0  0  0  0
   -3.7151    1.6285    0.2601 C   0  0  0  0  0  0  0  0  0  0  0  0
   -2.2692    2.0746    0.1009 C   0  0  0  0  0  0  0  0  0  0  0  0
   -7.3680    0.1475    0.5631 C   0  0  0  0  0  0  0  0  0  0  0  0
   -6.5123    1.1573   -0.2217 C   0  0  0  0  0  0  0  0  0  0  0  0
   -5.4968    0.4916   -1.1179 C   0  0  0  0  0  0  0  0  0  0  0  0
   -2.0376   -1.3314    0.1038 C   0  0  0  0  0  0  0  0  0  0  0  0
   -0.0473    1.0439    0.3737 C   0  0  0  0  0  0  0  0  0  0  0  0
    0.8473   -0.1391    0.2620 C   0  0  0  0  0  0  0  0  0  0  0  0
   -8.1434   -0.7811   -0.3869 C   0  0  0  0  0  0  0  0  0  0  0  0
   -8.3576    0.8647    1.4972 C   0  0  0  0  0  0  0  0  0  0  0  0
   -6.4174   -0.7096    1.4198 C   0  0  0  0  0  0  0  0  0  0  0  0
    0.4389   -1.4642    0.4844 C   0  0  0  0  0  0  0  0  0  0  0  0
    2.2164    0.1413    0.0975 C   0  0  0  0  0  0  0  0  0  0  0  0
    1.4175   -2.4662    0.6071 C   0  0  0  0  0  0  0  0  0  0  0  0
    3.1699   -0.8730    0.1732 C   0  0  0  0  0  0  0  0  0  0  0  0
    2.7714   -2.1758    0.4420 C   0  0  0  0  0  0  0  0  0  0  0  0
    4.5725   -0.5655   -0.0030 C   0  0  0  0  0  0  0  0  0  0  0  0
    5.0549    0.6984    0.3459 C   0  0  0  0  0  0  0  0  0  0  0  0
    5.4391   -1.5424   -0.5249 C   0  0  0  0  0  0  0  0  0  0  0  0
    6.3996    0.9451    0.1593 C   0  0  0  0  0  0  0  0  0  0  0  0
    7.2472   -0.0112   -0.3514 C   0  0  0  0  0  0  0  0  0  0  0  0
    6.7968   -1.2669   -0.7037 C   0  0  0  0  0  0  0  0  0  0  0  0
    8.3922    1.7807    0.0472 C   0  0  0  0  0  0  0  0  0  0  0  0
   -1.0619   -0.4705   -1.5899 H   0  0  0  0  0  0  0  0  0  0  0  0
   -2.8752    0.8875   -2.4433 H   0  0  0  0  0  0  0  0  0  0  0  0
   -3.4969   -0.7388   -2.1631 H   0  0  0  0  0  0  0  0  0  0  0  0
   -3.8514    1.0769    1.1961 H   0  0  0  0  0  0  0  0  0  0  0  0
   -4.3226    2.5363    0.2888 H   0  0  0  0  0  0  0  0  0  0  0  0
   -2.1562    2.7072   -0.7883 H   0  0  0  0  0  0  0  0  0  0  0  0
   -1.9617    2.6722    0.9659 H   0  0  0  0  0  0  0  0  0  0  0  0
   -7.1578    1.7556   -0.8794 H   0  0  0  0  0  0  0  0  0  0  0  0
   -6.0991    1.8702    0.4877 H   0  0  0  0  0  0  0  0  0  0  0  0
   -1.0258   -2.7932    1.0933 H   0  0  0  0  0  0  0  0  0  0  0  0
   -8.8924   -1.3600    0.1672 H   0  0  0  0  0  0  0  0  0  0  0  0
   -7.5035   -1.5165   -0.8831 H   0  0  0  0  0  0  0  0  0  0  0  0
   -8.6779   -0.2085   -1.1528 H   0  0  0  0  0  0  0  0  0  0  0  0
   -9.0537    1.4862    0.9232 H   0  0  0  0  0  0  0  0  0  0  0  0
   -8.9489    0.1497    2.0801 H   0  0  0  0  0  0  0  0  0  0  0  0
   -7.8328    1.5168    2.2043 H   0  0  0  0  0  0  0  0  0  0  0  0
   -5.8115   -0.0881    2.0880 H   0  0  0  0  0  0  0  0  0  0  0  0
   -5.7421   -1.3172    0.8101 H   0  0  0  0  0  0  0  0  0  0  0  0
   -6.9856   -1.4050    2.0493 H   0  0  0  0  0  0  0  0  0  0  0  0
    2.5081    1.1680   -0.1127 H   0  0  0  0  0  0  0  0  0  0  0  0
    1.1292   -3.4959    0.8115 H   0  0  0  0  0  0  0  0  0  0  0  0
    3.4757   -2.9944    0.5597 H   0  0  0  0  0  0  0  0  0  0  0  0
    4.4377    1.4768    0.7808 H   0  0  0  0  0  0  0  0  0  0  0  0
    5.0877   -2.5231   -0.8353 H   0  0  0  0  0  0  0  0  0  0  0  0
    7.4669   -2.0147   -1.1125 H   0  0  0  0  0  0  0  0  0  0  0  0
    9.0489    1.8983    0.9169 H   0  0  0  0  0  0  0  0  0  0  0  0
    8.7124    2.4811   -0.7327 H   0  0  0  0  0  0  0  0  0  0  0  0
  1 15  2  0  0  0  0
  2 16  2  0  0  0  0
  3 17  2  0  0  0  0
  4 30  1  0  0  0  0
  4 33  1  0  0  0  0
  5 31  1  0  0  0  0
  5 33  1  0  0  0  0
  6 10  1  0  0  0  0
  6 11  1  0  0  0  0
  6 15  1  0  0  0  0
  7  9  1  0  0  0  0
  7 12  1  0  0  0  0
  7 17  1  0  0  0  0
  8 16  1  0  0  0  0
  8 22  1  0  0  0  0
  8 43  1  0  0  0  0
  9 10  1  0  0  0  0
  9 16  1  0  0  0  0
  9 34  1  0  0  0  0
 10 35  1  0  0  0  0
 10 36  1  0  0  0  0
 11 12  1  0  0  0  0
 11 37  1  0  0  0  0
 11 38  1  0  0  0  0
 12 39  1  0  0  0  0
 12 40  1  0  0  0  0
 13 14  1  0  0  0  0
 13 19  1  0  0  0  0
 13 20  1  0  0  0  0
 13 21  1  0  0  0  0
 14 15  1  0  0  0  0
 14 41  1  0  0  0  0
 14 42  1  0  0  0  0
 17 18  1  0  0  0  0
 18 22  2  0  0  0  0
 18 23  1  0  0  0  0
 19 44  1  0  0  0  0
 19 45  1  0  0  0  0
 19 46  1  0  0  0  0
 20 47  1  0  0  0  0
 20 48  1  0  0  0  0
 20 49  1  0  0  0  0
 21 50  1  0  0  0  0
 21 51  1  0  0  0  0
 21 52  1  0  0  0  0
 22 24  1  0  0  0  0
 23 25  2  0  0  0  0
 23 53  1  0  0  0  0
 24 26  2  0  0  0  0
 24 54  1  0  0  0  0
 25 26  1  0  0  0  0
 25 27  1  0  0  0  0
 26 55  1  0  0  0  0
 27 28  2  0  0  0  0
 27 29  1  0  0  0  0
 28 30  1  0  0  0  0
 28 56  1  0  0  0  0
 29 32  2  0  0  0  0
 29 57  1  0  0  0  0
 30 31  2  0  0  0  0
 31 32  1  0  0  0  0
 32 58  1  0  0  0  0
 33 59  1  0  0  0  0
 33 60  1  0  0  0  0
M  END
> <PUBCHEM_COMPOUND_CID>
7142358

> <PUBCHEM_CONFORMER_RMSD>
0.8

> <PUBCHEM_CONFORMER_DIVERSEORDER>
7
4
16
17
23
20
28
1
27
36
10
19
24
26
3
30
13
12
2
34
37
15
21
9
5
31
29
25
6
8
35
11
14
33
18
22
32

> <PUBCHEM_MMFF94_PARTIAL_CHARGES>
34
1 -0.57
10 0.3
11 0.3
12 0.3
14 0.06
15 0.57
16 0.57
17 0.54
18 0.09
2 -0.57
22 0.12
23 -0.15
24 -0.15
26 -0.15
28 -0.15
29 -0.15
3 -0.57
30 0.08
31 0.08
32 -0.15
33 0.56
4 -0.36
43 0.37
5 -0.36
53 0.15
54 0.15
55 0.15
56 0.15
57 0.15
58 0.15
6 -0.66
7 -0.66
8 -0.55
9 0.36

> <PUBCHEM_EFFECTIVE_ROTOR_COUNT>
5.6

> <PUBCHEM_PHARMACOPHORE_FEATURES>
12
1 1 acceptor
1 2 acceptor
1 3 acceptor
1 4 acceptor
1 5 acceptor
1 8 donor
4 13 19 20 21 hydrophobe
5 4 5 30 31 33 rings
6 18 22 23 24 25 26 rings
6 27 28 29 30 31 32 rings
6 6 7 9 10 11 12 rings
7 7 8 9 16 17 18 22 rings

> <PUBCHEM_HEAVY_ATOM_COUNT>
33

> <PUBCHEM_ATOM_DEF_STEREO_COUNT>
1

> <PUBCHEM_ATOM_UDEF_STEREO_COUNT>
0

> <PUBCHEM_BOND_DEF_STEREO_COUNT>
0

> <PUBCHEM_BOND_UDEF_STEREO_COUNT>
0

> <PUBCHEM_ISOTOPIC_ATOM_COUNT>
0

> <PUBCHEM_COMPONENT_COUNT>
1

> <PUBCHEM_CACTVS_TAUTO_COUNT>
3

> <PUBCHEM_CONFORMER_ID>
006CFBD600000007

> <PUBCHEM_MMFF94_ENERGY>
123.0557

> <PUBCHEM_FEATURE_SELFOVERLAP>
61.082

> <PUBCHEM_SHAPE_FINGERPRINT>
10 15 17822008713780599826
10076449 9 18409453596373497057
10299344 5 17561081401721864741
106641 1 17385446527187923489
10674148 151 15913323590055960342
11007060 377 18334301937733650433
11181472 205 16271660991735538722
12013929 94 18342738559975158567
13914758 101 10519988153871774903
14251764 18 17704070694607896749
14347424 109 10665235856679343422
14394314 77 18339647724640480993
14849402 71 18342176691704838041
14856354 85 16415473866502865037
15064981 194 18267036135876385692
15064986 266 18340216184978017672
15131766 46 13971675210197272682
15183329 4 16487255456429101571
15276724 80 18273211963229102988
15347591 1 18045214943323821441
15849732 13 18113057133976238157
16087824 20 18337393730868211969
16992787 43 18412265042773137640
18335252 98 17967256381975293531
18365409 1 18336547239273132950
18608769 82 18334577971066028395
19611394 137 17822587100173635001
20105231 36 18272095984987046623
21033648 29 18337943619545738648
21049683 271 18408884057534906309
21150785 3 17704069603722977558
21267235 1 18343303630423358629
21365058 27 17489870436639830255
21403212 168 8358260341266232348
21521721 280 18411699893822477426
21792961 116 18187927231777601266
21792965 270 18042977655836234873
22224240 67 17748545939582300882
23516275 137 17059516057425813935
23559900 14 18340760546677147864
249057 25 12324529679772340479
2747138 104 17967823725495628981
3178227 256 18335708243170229833
335352 9 18411699915555731151
34797466 226 18060704966542153958
3552219 110 18060427897896674833
4073 2 18259988206455860314
4093350 32 17704073980336967302
4098825 35 17131840811012682286
4112364 45 17313394473826711022
4258327 124 17168726222706699182
4339292 15 16443352031428410435
437795 51 18410291423548086545
5028188 123 16917343766419375101
5758199 1 18409167701490434043
59682541 35 18040443200556735915
6394761 36 12895353287483393293
6691757 9 13695880190191808993
9953998 17 17894355476025768225

> <PUBCHEM_SHAPE_MULTIPOLES>
634.83
26.1
2.16
1.13
5.13
0.2
0.23
-7.2
0.05
1.74
-0.45
-2.01
0.02
0.39

> <PUBCHEM_SHAPE_SELFOVERLAP>
1397.922

> <PUBCHEM_SHAPE_VOLUME>
339.4

> <PUBCHEM_COORDINATE_TYPE>
2
5
10

$$$$
