45784013
  -OEChem-12032416363D

 43 45  0     1  0  0  0  0  0999 V2000
    3.5273   -0.0299    1.8075 O   0  0  0  0  0  0  0  0  0  0  0  0
    2.2130   -0.9765    0.1658 N   0  0  0  0  0  0  0  0  0  0  0  0
   -2.3170   -1.6035   -0.0562 N   0  0  0  0  0  0  0  0  0  0  0  0
   -1.0068    0.1473    0.3410 N   0  0  0  0  0  0  0  0  0  0  0  0
    4.0033    0.4206   -0.4029 N   0  0  0  0  0  0  0  0  0  0  0  0
    0.1280   -2.1167    0.2494 C   0  0  1  0  0  0  0  0  0  0  0  0
    0.7671   -2.3215   -1.1324 C   0  0  0  0  0  0  0  0  0  0  0  0
    1.3302   -1.6748    1.0929 C   0  0  0  0  0  0  0  0  0  0  0  0
    1.8222   -1.2250   -1.2190 C   0  0  0  0  0  0  0  0  0  0  0  0
   -1.0475   -1.1569    0.1844 C   0  0  0  0  0  0  0  0  0  0  0  0
    3.2687   -0.1841    0.6108 C   0  0  0  0  0  0  0  0  0  0  0  0
   -3.1511   -0.5150   -0.0546 C   0  0  0  0  0  0  0  0  0  0  0  0
   -2.3096    0.5653    0.1953 C   0  0  0  0  0  0  0  0  0  0  0  0
    5.1324    1.2809   -0.1340 C   0  0  0  0  0  0  0  0  0  0  0  0
   -4.5274   -0.3867   -0.2447 C   0  0  0  0  0  0  0  0  0  0  0  0
   -2.8563    1.8580    0.2631 C   0  0  0  0  0  0  0  0  0  0  0  0
   -5.0546    0.9069   -0.1739 C   0  0  0  0  0  0  0  0  0  0  0  0
   -4.2358    2.0108    0.0753 C   0  0  0  0  0  0  0  0  0  0  0  0
    4.6695    2.7205    0.0488 C   0  0  0  0  0  0  0  0  0  0  0  0
    6.1659    1.1706   -1.2481 C   0  0  0  0  0  0  0  0  0  0  0  0
   -6.5216    1.1097   -0.3684 C   0  0  0  0  0  0  0  0  0  0  0  0
   -0.2526   -3.0703    0.6375 H   0  0  0  0  0  0  0  0  0  0  0  0
    1.2636   -3.3001   -1.1570 H   0  0  0  0  0  0  0  0  0  0  0  0
    0.0609   -2.2829   -1.9676 H   0  0  0  0  0  0  0  0  0  0  0  0
    1.8854   -2.5409    1.4713 H   0  0  0  0  0  0  0  0  0  0  0  0
    1.0682   -1.0301    1.9378 H   0  0  0  0  0  0  0  0  0  0  0  0
    1.4082   -0.2958   -1.6250 H   0  0  0  0  0  0  0  0  0  0  0  0
    2.6852   -1.5272   -1.8194 H   0  0  0  0  0  0  0  0  0  0  0  0
   -2.5942   -2.5640   -0.2096 H   0  0  0  0  0  0  0  0  0  0  0  0
    3.6881    0.3444   -1.3636 H   0  0  0  0  0  0  0  0  0  0  0  0
    5.6014    0.9503    0.8006 H   0  0  0  0  0  0  0  0  0  0  0  0
   -5.1514   -1.2522   -0.4393 H   0  0  0  0  0  0  0  0  0  0  0  0
   -2.2283    2.7219    0.4558 H   0  0  0  0  0  0  0  0  0  0  0  0
   -4.6627    3.0100    0.1252 H   0  0  0  0  0  0  0  0  0  0  0  0
    5.5156    3.3784    0.2726 H   0  0  0  0  0  0  0  0  0  0  0  0
    3.9529    2.8009    0.8734 H   0  0  0  0  0  0  0  0  0  0  0  0
    4.1747    3.0957   -0.8541 H   0  0  0  0  0  0  0  0  0  0  0  0
    7.0405    1.7937   -1.0346 H   0  0  0  0  0  0  0  0  0  0  0  0
    6.5062    0.1352   -1.3599 H   0  0  0  0  0  0  0  0  0  0  0  0
    5.7487    1.4859   -2.2110 H   0  0  0  0  0  0  0  0  0  0  0  0
   -6.8927    1.9233    0.2641 H   0  0  0  0  0  0  0  0  0  0  0  0
   -7.0870    0.2113   -0.0984 H   0  0  0  0  0  0  0  0  0  0  0  0
   -6.7312    1.3524   -1.4149 H   0  0  0  0  0  0  0  0  0  0  0  0
  1 11  2  0  0  0  0
  2  8  1  0  0  0  0
  2  9  1  0  0  0  0
  2 11  1  0  0  0  0
  3 10  1  0  0  0  0
  3 12  1  0  0  0  0
  3 29  1  0  0  0  0
  4 10  2  0  0  0  0
  4 13  1  0  0  0  0
  5 11  1  0  0  0  0
  5 14  1  0  0  0  0
  5 30  1  0  0  0  0
  6  7  1  0  0  0  0
  6  8  1  0  0  0  0
  6 10  1  0  0  0  0
  6 22  1  0  0  0  0
  7  9  1  0  0  0  0
  7 23  1  0  0  0  0
  7 24  1  0  0  0  0
  8 25  1  0  0  0  0
  8 26  1  0  0  0  0
  9 27  1  0  0  0  0
  9 28  1  0  0  0  0
 12 13  2  0  0  0  0
 12 15  1  0  0  0  0
 13 16  1  0  0  0  0
 14 19  1  0  0  0  0
 14 20  1  0  0  0  0
 14 31  1  0  0  0  0
 15 17  2  0  0  0  0
 15 32  1  0  0  0  0
 16 18  2  0  0  0  0
 16 33  1  0  0  0  0
 17 18  1  0  0  0  0
 17 21  1  0  0  0  0
 18 34  1  0  0  0  0
 19 35  1  0  0  0  0
 19 36  1  0  0  0  0
 19 37  1  0  0  0  0
 20 38  1  0  0  0  0
 20 39  1  0  0  0  0
 20 40  1  0  0  0  0
 21 41  1  0  0  0  0
 21 42  1  0  0  0  0
 21 43  1  0  0  0  0
M  END
> <PUBCHEM_COMPOUND_CID>
45784013

> <PUBCHEM_CONFORMER_RMSD>
0.8

> <PUBCHEM_CONFORMER_DIVERSEORDER>
1
12
8
17
19
10
9
13
5
20
14
3
6
21
16
2
18
7
15
4
11

> <PUBCHEM_MMFF94_PARTIAL_CHARGES>
23
1 -0.57
10 0.01
11 0.69
12 -0.15
13 0.23
14 0.3
15 -0.15
16 -0.15
17 -0.14
18 -0.15
2 -0.66
21 0.14
29 0.27
3 0.03
30 0.37
32 0.15
33 0.15
34 0.15
4 -0.57
5 -0.73
6 0.18
8 0.3
9 0.3

> <PUBCHEM_EFFECTIVE_ROTOR_COUNT>
5

> <PUBCHEM_PHARMACOPHORE_FEATURES>
8
1 1 acceptor
1 3 donor
1 5 donor
3 14 19 20 hydrophobe
3 3 4 10 cation
5 2 6 7 8 9 rings
5 3 4 10 12 13 rings
6 12 13 15 16 17 18 rings

> <PUBCHEM_HEAVY_ATOM_COUNT>
21

> <PUBCHEM_ATOM_DEF_STEREO_COUNT>
1

> <PUBCHEM_ATOM_UDEF_STEREO_COUNT>
0

> <PUBCHEM_BOND_DEF_STEREO_COUNT>
0

> <PUBCHEM_BOND_UDEF_STEREO_COUNT>
0

> <PUBCHEM_ISOTOPIC_ATOM_COUNT>
0

> <PUBCHEM_COMPONENT_COUNT>
1

> <PUBCHEM_CACTVS_TAUTO_COUNT>
4

> <PUBCHEM_CONFORMER_ID>
02BA9BCD00000001

> <PUBCHEM_MMFF94_ENERGY>
35.0952

> <PUBCHEM_FEATURE_SELFOVERLAP>
40.703

> <PUBCHEM_SHAPE_FINGERPRINT>
10498660 4 18342742914132753040
10591671 39 18337963388462855703
10670039 82 18270971154806628712
12523318 42 16516263924030281913
12596602 18 17240202148680307464
12760667 363 8574715685083367745
12892183 10 15357965729642424190
13533116 47 16733820870365085203
13685833 64 9655574114915269141
1420 369 9655587313803573568
14251751 18 9943813274475450576
14257110 125 18408042918201235180
14341114 328 17748821934412688184
14528608 73 18272083907396071973
14739800 52 18265878333126899584
14774955 27 18408599253878621053
14790565 3 17983022142263308089
14840074 17 17530971323377957236
15142526 21 17750515259898166432
15183329 4 18341907268912027982
15188451 53 14057297436553994929
15238133 3 18335691785425361472
15342168 16 18408038511359041959
15961568 22 18334016068568039821
17834072 32 18411139173162934152
17980427 23 17895196653307081767
193927 3 10879997994822088108
19784866 140 14836127645365052171
1979834 28 13262672604463122096
20374829 77 9799693692410732527
21637258 2 11743843534400294046
21756936 100 18262516035085098546
221357 26 17131836447674316232
22620623 9 16629383934610855831
23227448 37 18341330097483152061
23253445 4 14201117929479753094
23557571 272 18271814578713936279
23559900 14 17771900524550734999
245318 6 17605853622817197540
270888 7 18335138747787259180
2838139 119 18412258463252219516
3472631 163 18409730676955131509
34797466 226 18131074801504484525
351380 3 11240004442758903820
4340502 62 16950851302404563467
465052 167 9727340368879835929
474 4 18040159525776079908
5104073 3 18114469951031800659
59682541 35 18188221991725845443
59682541 52 16630533886555783524
6327066 14 18339641252155758444
633830 44 18335414665028971958
67856867 119 18264201426779595787
7808743 9 18410853299902153818
7970288 3 10015572905221301765
9981440 41 18334297603737589682

> <PUBCHEM_SHAPE_MULTIPOLES>
406.38
13.92
2.57
1.05
0.77
0.22
0.06
11.43
-2.5
1.1
-0.18
1.16
-0.25
-0.32

> <PUBCHEM_SHAPE_SELFOVERLAP>
864.245

> <PUBCHEM_SHAPE_VOLUME>
228.9

> <PUBCHEM_COORDINATE_TYPE>
2
5
10

$$$$
