44716356
  -OEChem-12032416253D

 62 67  0     1  0  0  0  0  0999 V2000
   -0.3941    3.3181   -0.4120 O   0  0  0  0  0  0  0  0  0  0  0  0
   -4.7784   -0.3268    0.3481 N   0  0  2  0  0  0  0  0  0  0  0  0
   -0.8832   -3.0472    0.6212 N   0  0  0  0  0  0  0  0  0  0  0  0
   -3.2858    3.1327    0.0666 N   0  0  0  0  0  0  0  0  0  0  0  0
    0.4441   -2.9931    0.8246 N   0  0  0  0  0  0  0  0  0  0  0  0
   -3.2414   -1.0011   -1.6434 C   0  0  2  0  0  0  0  0  0  0  0  0
   -2.8616   -1.8027   -0.3676 C   0  0  2  0  0  0  0  0  0  0  0  0
   -4.2198    0.8903   -0.2976 C   0  0  2  0  0  0  0  0  0  0  0  0
   -3.1492    0.5098   -1.3428 C   0  0  0  0  0  0  0  0  0  0  0  0
   -4.7234   -1.3147   -1.9413 C   0  0  0  0  0  0  0  0  0  0  0  0
   -3.6771   -1.2057    0.8147 C   0  0  0  0  0  0  0  0  0  0  0  0
   -5.5588   -1.0656   -0.6734 C   0  0  0  0  0  0  0  0  0  0  0  0
   -3.6878    1.8992    0.7223 C   0  0  0  0  0  0  0  0  0  0  0  0
   -1.3857   -1.9592   -0.0302 C   0  0  0  0  0  0  0  0  0  0  0  0
   -0.3126   -1.1361   -0.2693 C   0  0  0  0  0  0  0  0  0  0  0  0
    0.7871   -1.8234    0.2783 C   0  0  0  0  0  0  0  0  0  0  0  0
   -2.3623    3.8922    0.9005 C   0  0  0  0  0  0  0  0  0  0  0  0
   -1.6227   -4.1961    1.0903 C   0  0  0  0  0  0  0  0  0  0  0  0
    2.1579   -1.3837    0.2913 C   0  0  0  0  0  0  0  0  0  0  0  0
   -0.9604    3.3487    0.8230 C   0  0  0  0  0  0  0  0  0  0  0  0
    2.6381   -0.5679   -0.7336 C   0  0  0  0  0  0  0  0  0  0  0  0
    3.0032   -1.7721    1.3266 C   0  0  0  0  0  0  0  0  0  0  0  0
   -0.0892    2.8557    1.7665 C   0  0  0  0  0  0  0  0  0  0  0  0
    3.9725   -0.1299   -0.7353 C   0  0  0  0  0  0  0  0  0  0  0  0
    4.3316   -1.3462    1.3409 C   0  0  0  0  0  0  0  0  0  0  0  0
    4.8319   -0.5249    0.3174 C   0  0  0  0  0  0  0  0  0  0  0  0
    1.0881    2.4995    1.0662 C   0  0  0  0  0  0  0  0  0  0  0  0
    0.8523    2.8000   -0.2553 C   0  0  0  0  0  0  0  0  0  0  0  0
    4.4727    0.6914   -1.7587 C   0  0  0  0  0  0  0  0  0  0  0  0
    6.1663   -0.0871    0.3156 C   0  0  0  0  0  0  0  0  0  0  0  0
    5.8012    1.1171   -1.7446 C   0  0  0  0  0  0  0  0  0  0  0  0
    6.6465    0.7286   -0.7093 C   0  0  0  0  0  0  0  0  0  0  0  0
   -2.6054   -1.2700   -2.4933 H   0  0  0  0  0  0  0  0  0  0  0  0
   -3.2376   -2.8218   -0.5431 H   0  0  0  0  0  0  0  0  0  0  0  0
   -5.0482    1.3920   -0.8205 H   0  0  0  0  0  0  0  0  0  0  0  0
   -3.3338    1.0725   -2.2669 H   0  0  0  0  0  0  0  0  0  0  0  0
   -2.1484    0.7851   -1.0084 H   0  0  0  0  0  0  0  0  0  0  0  0
   -5.0810   -0.6802   -2.7614 H   0  0  0  0  0  0  0  0  0  0  0  0
   -4.8375   -2.3562   -2.2638 H   0  0  0  0  0  0  0  0  0  0  0  0
   -3.0320   -0.6725    1.5222 H   0  0  0  0  0  0  0  0  0  0  0  0
   -4.1095   -2.0271    1.4014 H   0  0  0  0  0  0  0  0  0  0  0  0
   -5.9097   -2.0180   -0.2559 H   0  0  0  0  0  0  0  0  0  0  0  0
   -6.4666   -0.5054   -0.9293 H   0  0  0  0  0  0  0  0  0  0  0  0
   -4.4601    2.1205    1.4702 H   0  0  0  0  0  0  0  0  0  0  0  0
   -2.8454    1.4547    1.2636 H   0  0  0  0  0  0  0  0  0  0  0  0
   -0.3124   -0.1815   -0.7707 H   0  0  0  0  0  0  0  0  0  0  0  0
   -4.1161    3.6919   -0.1276 H   0  0  0  0  0  0  0  0  0  0  0  0
   -2.3314    4.9241    0.5300 H   0  0  0  0  0  0  0  0  0  0  0  0
   -2.7053    3.9459    1.9408 H   0  0  0  0  0  0  0  0  0  0  0  0
   -2.4382   -3.8531    1.7306 H   0  0  0  0  0  0  0  0  0  0  0  0
   -0.9580   -4.8460    1.6660 H   0  0  0  0  0  0  0  0  0  0  0  0
   -2.0062   -4.7380    0.2226 H   0  0  0  0  0  0  0  0  0  0  0  0
    1.9872   -0.2684   -1.5536 H   0  0  0  0  0  0  0  0  0  0  0  0
    2.6558   -2.3999    2.1437 H   0  0  0  0  0  0  0  0  0  0  0  0
   -0.2774    2.7627    2.8265 H   0  0  0  0  0  0  0  0  0  0  0  0
    4.9741   -1.6603    2.1610 H   0  0  0  0  0  0  0  0  0  0  0  0
    1.9946    2.0757    1.4735 H   0  0  0  0  0  0  0  0  0  0  0  0
    1.4375    2.7088   -1.1586 H   0  0  0  0  0  0  0  0  0  0  0  0
    3.8300    1.0082   -2.5776 H   0  0  0  0  0  0  0  0  0  0  0  0
    6.8448   -0.3784    1.1147 H   0  0  0  0  0  0  0  0  0  0  0  0
    6.1755    1.7524   -2.5421 H   0  0  0  0  0  0  0  0  0  0  0  0
    7.6806    1.0605   -0.6989 H   0  0  0  0  0  0  0  0  0  0  0  0
  1 20  1  0  0  0  0
  1 28  1  0  0  0  0
  2  8  1  0  0  0  0
  2 11  1  0  0  0  0
  2 12  1  0  0  0  0
  3  5  1  0  0  0  0
  3 14  1  0  0  0  0
  3 18  1  0  0  0  0
  4 13  1  0  0  0  0
  4 17  1  0  0  0  0
  4 47  1  0  0  0  0
  5 16  2  0  0  0  0
  6  7  1  0  0  0  0
  6  9  1  0  0  0  0
  6 10  1  0  0  0  0
  6 33  1  0  0  0  0
  7 11  1  0  0  0  0
  7 14  1  0  0  0  0
  7 34  1  0  0  0  0
  8  9  1  0  0  0  0
  8 13  1  0  0  0  0
  8 35  1  0  0  0  0
  9 36  1  0  0  0  0
  9 37  1  0  0  0  0
 10 12  1  0  0  0  0
 10 38  1  0  0  0  0
 10 39  1  0  0  0  0
 11 40  1  0  0  0  0
 11 41  1  0  0  0  0
 12 42  1  0  0  0  0
 12 43  1  0  0  0  0
 13 44  1  0  0  0  0
 13 45  1  0  0  0  0
 14 15  2  0  0  0  0
 15 16  1  0  0  0  0
 15 46  1  0  0  0  0
 16 19  1  0  0  0  0
 17 20  1  0  0  0  0
 17 48  1  0  0  0  0
 17 49  1  0  0  0  0
 18 50  1  0  0  0  0
 18 51  1  0  0  0  0
 18 52  1  0  0  0  0
 19 21  2  0  0  0  0
 19 22  1  0  0  0  0
 20 23  2  0  0  0  0
 21 24  1  0  0  0  0
 21 53  1  0  0  0  0
 22 25  2  0  0  0  0
 22 54  1  0  0  0  0
 23 27  1  0  0  0  0
 23 55  1  0  0  0  0
 24 26  1  0  0  0  0
 24 29  2  0  0  0  0
 25 26  1  0  0  0  0
 25 56  1  0  0  0  0
 26 30  2  0  0  0  0
 27 28  2  0  0  0  0
 27 57  1  0  0  0  0
 28 58  1  0  0  0  0
 29 31  1  0  0  0  0
 29 59  1  0  0  0  0
 30 32  1  0  0  0  0
 30 60  1  0  0  0  0
 31 32  2  0  0  0  0
 31 61  1  0  0  0  0
 32 62  1  0  0  0  0
M  END
> <PUBCHEM_COMPOUND_CID>
44716356

> <PUBCHEM_CONFORMER_RMSD>
1

> <PUBCHEM_CONFORMER_DIVERSEORDER>
1
43
42
21
15
92
37
95
28
74
94
78
8
101
81
44
31
48
56
50
13
82
27
63
51
45
76
58
6
40
72
80
18
14
35
20
39
24
98
86
36
69
60
23
30
57
19
90
71
17
100
96
70
83
88
3
4
32
64
22
46
66
84
29
75
73
52
87
55
25
99
34
65
67
26
68
89
54
41
93
62
11
85
16
59
97
33
47
7
91
38
49
12
79
2
61
77
9
10
53
5

> <PUBCHEM_MMFF94_PARTIAL_CHARGES>
39
1 -0.28
11 0.27
12 0.27
13 0.27
14 -0.33
15 -0.15
16 0.23
17 0.45
18 0.26
19 0.05
2 -0.81
20 -0.04
21 -0.15
22 -0.15
23 -0.15
25 -0.15
27 -0.15
28 -0.01
29 -0.15
3 0.31
30 -0.15
31 -0.15
32 -0.15
4 -0.9
46 0.15
47 0.36
5 -0.71
53 0.15
54 0.15
55 0.15
56 0.15
57 0.15
58 0.15
59 0.15
60 0.15
61 0.15
62 0.15
7 0.18
8 0.27

> <PUBCHEM_EFFECTIVE_ROTOR_COUNT>
7.2

> <PUBCHEM_PHARMACOPHORE_FEATURES>
10
1 1 acceptor
1 2 cation
1 4 cation
1 4 donor
1 5 acceptor
5 1 20 23 27 28 rings
5 3 5 14 15 16 rings
6 19 21 22 24 25 26 rings
6 24 26 29 30 31 32 rings
8 2 6 7 8 9 10 11 12 rings

> <PUBCHEM_HEAVY_ATOM_COUNT>
32

> <PUBCHEM_ATOM_DEF_STEREO_COUNT>
3

> <PUBCHEM_ATOM_UDEF_STEREO_COUNT>
0

> <PUBCHEM_BOND_DEF_STEREO_COUNT>
0

> <PUBCHEM_BOND_UDEF_STEREO_COUNT>
0

> <PUBCHEM_ISOTOPIC_ATOM_COUNT>
0

> <PUBCHEM_COMPONENT_COUNT>
1

> <PUBCHEM_CACTVS_TAUTO_COUNT>
1

> <PUBCHEM_CONFORMER_ID>
02AA514400000001

> <PUBCHEM_MMFF94_ENERGY>
71.8602

> <PUBCHEM_FEATURE_SELFOVERLAP>
50.774

> <PUBCHEM_SHAPE_FINGERPRINT>
10032420 55 18339066125632377737
10670039 82 18339367370897043694
10871710 139 18340771438466004721
11479125 193 15794572086618062932
11513181 2 18128824040503692830
12107698 1 18131063883576188413
12293681 4 18340493356065298838
12788726 201 18413108338358472624
13911987 19 18334851727897090863
14114206 34 18268973359068711717
14117953 113 17472416547903982980
14251757 5 18410017666949346818
14279260 333 18341048520145216486
14394314 77 18412268311438994065
14464042 87 18408603661016155164
14765038 42 17986692384510857673
14790565 3 18336270050562266160
14840074 17 18268728112130632209
14931854 50 18409726257602517925
14932702 115 17985536767466844168
15001296 14 18335982090137823152
15297060 5 17986960656646752248
15968369 153 17916861473576414584
161222 10 18053132560826251756
18336668 15 18333732433285939621
19319366 153 18192150383173039931
20511986 3 18115019680765310320
20721686 56 18267861872755102825
20764821 26 18192153908834638369
20775438 99 16976702199079044503
21033650 10 18128556906717766294
21641784 216 18335148570403884972
3052486 1 18339348665961217384
463206 1 18269279122101103673
469060 322 18261123924114635409
5171179 24 17917136312422458616
6036956 94 18261963937881934749
6608658 132 18342448257901528359
7226269 152 18410012156706805142

> <PUBCHEM_SHAPE_MULTIPOLES>
632.75
13
4.73
1.57
12.23
2.3
-0.34
-0.54
-4.77
-3.86
2.28
0.31
0.02
-1.78

> <PUBCHEM_SHAPE_SELFOVERLAP>
1398.535

> <PUBCHEM_SHAPE_VOLUME>
339

> <PUBCHEM_COORDINATE_TYPE>
2
5
10

$$$$
