11884147
  -OEChem-12032416413D

 56 59  0     1  0  0  0  0  0999 V2000
   -0.6094    1.6508    1.0300 O   0  0  0  0  0  0  0  0  0  0  0  0
   -1.1990    3.6994   -1.1745 O   0  0  0  0  0  0  0  0  0  0  0  0
    1.8587    2.1452   -0.1408 O   0  0  0  0  0  0  0  0  0  0  0  0
   -5.3824    1.9912    1.1000 O   0  0  0  0  0  0  0  0  0  0  0  0
    2.5099    0.4337   -1.5106 O   0  0  0  0  0  0  0  0  0  0  0  0
   -7.4807   -3.8617   -0.0725 O   0  0  0  0  0  0  0  0  0  0  0  0
    8.1527   -3.5486   -0.3071 O   0  0  0  0  0  0  0  0  0  0  0  0
   -3.5222    1.1256    0.0188 N   0  0  0  0  0  0  0  0  0  0  0  0
    3.8019    1.0992    0.3245 N   0  0  0  0  0  0  0  0  0  0  0  0
   -1.6620    2.3470   -0.9776 C   0  0  1  0  0  0  0  0  0  0  0  0
   -0.4996    1.5644   -0.4006 C   0  0  1  0  0  0  0  0  0  0  0  0
   -2.7032    2.3091    0.1166 C   0  0  2  0  0  0  0  0  0  0  0  0
    0.6963    2.3276   -0.9172 C   0  0  1  0  0  0  0  0  0  0  0  0
   -1.8495    2.2883    1.3729 C   0  0  0  0  0  0  0  0  0  0  0  0
    0.2040    3.7568   -0.8779 C   0  0  0  0  0  0  0  0  0  0  0  0
   -4.8123    1.0667    0.5268 C   0  0  0  0  0  0  0  0  0  0  0  0
    2.7217    1.1439   -0.5354 C   0  0  0  0  0  0  0  0  0  0  0  0
   -5.5148   -0.2329    0.3693 C   0  0  0  0  0  0  0  0  0  0  0  0
   -6.5121   -0.6004    1.2727 C   0  0  0  0  0  0  0  0  0  0  0  0
   -5.1778   -1.0853   -0.6822 C   0  0  0  0  0  0  0  0  0  0  0  0
    4.9127    0.2260    0.2820 C   0  0  0  0  0  0  0  0  0  0  0  0
   -7.1723   -1.8200    1.1248 C   0  0  0  0  0  0  0  0  0  0  0  0
   -5.8380   -2.3050   -0.8302 C   0  0  0  0  0  0  0  0  0  0  0  0
   -6.8352   -2.6725    0.0732 C   0  0  0  0  0  0  0  0  0  0  0  0
    5.9178    0.3289    1.2438 C   0  0  0  0  0  0  0  0  0  0  0  0
    5.0043   -0.7376   -0.7223 C   0  0  0  0  0  0  0  0  0  0  0  0
    7.0144   -0.5320    1.2012 C   0  0  0  0  0  0  0  0  0  0  0  0
    6.1010   -1.5984   -0.7649 C   0  0  0  0  0  0  0  0  0  0  0  0
    7.1060   -1.4958    0.1969 C   0  0  0  0  0  0  0  0  0  0  0  0
    8.2492   -2.3934    0.1533 C   0  0  0  0  0  0  0  0  0  0  0  0
   -7.0862   -4.6846   -1.1694 C   0  0  0  0  0  0  0  0  0  0  0  0
    9.6064   -1.9357    0.6765 C   0  0  0  0  0  0  0  0  0  0  0  0
   -2.0034    1.9680   -1.9462 H   0  0  0  0  0  0  0  0  0  0  0  0
   -0.4947    0.5043   -0.6703 H   0  0  0  0  0  0  0  0  0  0  0  0
   -3.3547    3.1897    0.1152 H   0  0  0  0  0  0  0  0  0  0  0  0
    0.8650    2.0706   -1.9722 H   0  0  0  0  0  0  0  0  0  0  0  0
   -2.3081    1.7578    2.2130 H   0  0  0  0  0  0  0  0  0  0  0  0
   -1.6091    3.3062    1.6989 H   0  0  0  0  0  0  0  0  0  0  0  0
    0.7090    4.3915   -1.6123 H   0  0  0  0  0  0  0  0  0  0  0  0
    0.3389    4.2165    0.1076 H   0  0  0  0  0  0  0  0  0  0  0  0
   -3.0803    0.2880   -0.3457 H   0  0  0  0  0  0  0  0  0  0  0  0
    3.8011    1.7766    1.0832 H   0  0  0  0  0  0  0  0  0  0  0  0
   -6.7861    0.0480    2.1008 H   0  0  0  0  0  0  0  0  0  0  0  0
   -4.4295   -0.8227   -1.4243 H   0  0  0  0  0  0  0  0  0  0  0  0
   -7.9479   -2.1014    1.8319 H   0  0  0  0  0  0  0  0  0  0  0  0
   -5.5320   -2.9158   -1.6727 H   0  0  0  0  0  0  0  0  0  0  0  0
    5.8570    1.0738    2.0332 H   0  0  0  0  0  0  0  0  0  0  0  0
    4.2663   -0.8753   -1.5004 H   0  0  0  0  0  0  0  0  0  0  0  0
    7.7760   -0.4382    1.9703 H   0  0  0  0  0  0  0  0  0  0  0  0
    6.1583   -2.3409   -1.5569 H   0  0  0  0  0  0  0  0  0  0  0  0
   -7.2913   -4.2000   -2.1300 H   0  0  0  0  0  0  0  0  0  0  0  0
   -6.0420   -5.0023   -1.0791 H   0  0  0  0  0  0  0  0  0  0  0  0
   -7.7002   -5.5904   -1.1310 H   0  0  0  0  0  0  0  0  0  0  0  0
   10.3953   -2.4576    0.1265 H   0  0  0  0  0  0  0  0  0  0  0  0
    9.7450   -0.8638    0.5113 H   0  0  0  0  0  0  0  0  0  0  0  0
    9.6862   -2.1702    1.7407 H   0  0  0  0  0  0  0  0  0  0  0  0
  1 11  1  0  0  0  0
  1 14  1  0  0  0  0
  2 10  1  0  0  0  0
  2 15  1  0  0  0  0
  3 13  1  0  0  0  0
  3 17  1  0  0  0  0
  4 16  2  0  0  0  0
  5 17  2  0  0  0  0
  6 24  1  0  0  0  0
  6 31  1  0  0  0  0
  7 30  2  0  0  0  0
  8 12  1  0  0  0  0
  8 16  1  0  0  0  0
  8 41  1  0  0  0  0
  9 17  1  0  0  0  0
  9 21  1  0  0  0  0
  9 42  1  0  0  0  0
 10 11  1  0  0  0  0
 10 12  1  0  0  0  0
 10 33  1  0  0  0  0
 11 13  1  0  0  0  0
 11 34  1  0  0  0  0
 12 14  1  0  0  0  0
 12 35  1  0  0  0  0
 13 15  1  0  0  0  0
 13 36  1  0  0  0  0
 14 37  1  0  0  0  0
 14 38  1  0  0  0  0
 15 39  1  0  0  0  0
 15 40  1  0  0  0  0
 16 18  1  0  0  0  0
 18 19  2  0  0  0  0
 18 20  1  0  0  0  0
 19 22  1  0  0  0  0
 19 43  1  0  0  0  0
 20 23  2  0  0  0  0
 20 44  1  0  0  0  0
 21 25  2  0  0  0  0
 21 26  1  0  0  0  0
 22 24  2  0  0  0  0
 22 45  1  0  0  0  0
 23 24  1  0  0  0  0
 23 46  1  0  0  0  0
 25 27  1  0  0  0  0
 25 47  1  0  0  0  0
 26 28  2  0  0  0  0
 26 48  1  0  0  0  0
 27 29  2  0  0  0  0
 27 49  1  0  0  0  0
 28 29  1  0  0  0  0
 28 50  1  0  0  0  0
 29 30  1  0  0  0  0
 30 32  1  0  0  0  0
 31 51  1  0  0  0  0
 31 52  1  0  0  0  0
 31 53  1  0  0  0  0
 32 54  1  0  0  0  0
 32 55  1  0  0  0  0
 32 56  1  0  0  0  0
M  END
> <PUBCHEM_COMPOUND_CID>
11884147

> <PUBCHEM_CONFORMER_RMSD>
1

> <PUBCHEM_CONFORMER_DIVERSEORDER>
1
39
37
60
27
8
33
47
6
50
40
18
45
15
32
10
13
48
28
46
29
2
44
4
55
7
34
24
38
35
53
49
41
58
56
57
59
22
19
16
43
20
11
42
14
3
52
21
54
26
12
62
23
31
5
17
51
61
9
25
30
36

> <PUBCHEM_MMFF94_PARTIAL_CHARGES>
42
1 -0.56
10 0.28
11 0.28
12 0.3
13 0.28
14 0.28
15 0.28
16 0.54
17 0.78
18 0.09
19 -0.15
2 -0.56
20 -0.15
21 0.12
22 -0.15
23 -0.15
24 0.08
25 -0.15
26 -0.15
27 -0.15
28 -0.15
29 0.09
3 -0.43
30 0.42
31 0.28
32 0.06
4 -0.57
41 0.37
42 0.37
43 0.15
44 0.15
45 0.15
46 0.15
47 0.15
48 0.15
49 0.15
5 -0.57
50 0.15
6 -0.36
7 -0.57
8 -0.73
9 -0.55

> <PUBCHEM_EFFECTIVE_ROTOR_COUNT>
10.2

> <PUBCHEM_PHARMACOPHORE_FEATURES>
12
1 1 acceptor
1 2 acceptor
1 4 acceptor
1 5 acceptor
1 6 acceptor
1 7 acceptor
1 8 donor
1 9 donor
5 1 10 11 12 14 rings
5 2 10 11 13 15 rings
6 18 19 20 22 23 24 rings
6 21 25 26 27 28 29 rings

> <PUBCHEM_HEAVY_ATOM_COUNT>
32

> <PUBCHEM_ATOM_DEF_STEREO_COUNT>
4

> <PUBCHEM_ATOM_UDEF_STEREO_COUNT>
0

> <PUBCHEM_BOND_DEF_STEREO_COUNT>
0

> <PUBCHEM_BOND_UDEF_STEREO_COUNT>
0

> <PUBCHEM_ISOTOPIC_ATOM_COUNT>
0

> <PUBCHEM_COMPONENT_COUNT>
1

> <PUBCHEM_CACTVS_TAUTO_COUNT>
18

> <PUBCHEM_CONFORMER_ID>
00B5567300000001

> <PUBCHEM_MMFF94_ENERGY>
105.3308

> <PUBCHEM_FEATURE_SELFOVERLAP>
61.617

> <PUBCHEM_SHAPE_FINGERPRINT>
10100884 174 18335700563848748506
10190206 1 12829483723132314647
10258705 36 18127980698834416286
10533779 1 10879716438246982107
10669705 251 18272093777616670694
10930396 42 15554451795781273219
11463208 1 18054233133780955014
11475781 23 8286201665371033456
11497681 19 18334860520096059396
11963148 33 18189330187266764954
12522641 68 17393311123462068549
13248334 5 17975136757558090101
1361 4 18192152826851078139
13782708 43 18412824689949488504
14344974 204 18412827988310538950
14359421 15 17603580824966366163
14428016 167 18408884031543238258
14671636 106 18409730660751091038
15064981 113 13912595048775224440
15131766 46 10519441658602703323
15145343 39 18262516034890537298
15152005 304 18337402620269489754
15183329 4 13767925698075357468
15347591 1 18410855503754263241
15510800 12 18187094965525215075
16067689 391 18190463960154967683
16067689 68 18131082502307253363
16126227 98 10087639303957198681
16989713 51 18187926123459638156
16992779 147 16772368821229747144
16994733 274 10592040250335759622
18608769 82 18339079285992076910
19303781 99 18261677081901330831
20028762 73 18411140246704525526
2026 5 18407759253303634299
20691028 202 10303808796110281098
208703 8 18336539516968770183
20982279 24 17459764803892691099
21130935 74 18342457049900218560
21424621 283 9943806690106521820
21585481 151 18342463612404290746
21585483 132 18262506126448523083
21781055 127 12679459821159328064
22002106 203 18336820979087212994
229767 44 18059854004097441071
23389318 12 17822018623277675052
23522609 53 18046946789623041356
23569914 152 11965320322337490568
23569943 247 18268154344125562443
23729417 116 18187929409727669036
24983565 74 18190732051734086962
25025965 108 17824251619419240202
25242607 90 18410569608701206834
2748736 6 10159701265792367213
3383291 50 18334295396193140299
3504750 166 18410857638547772593
393628 194 10159689201308971755
397830 11 18201710782436792760
406291 66 18408322215629949067
44280117 145 18336548214472963932
44389302 135 18191299374771031978
44802255 64 12685105769084403497
474113 269 18129373982193333431
4760202 70 18188218701855269428
50009960 94 18128533950555919887
50742298 180 18339927137552893879
5718773 13 18408603677499730933
57634706 229 11312052179551806989
5874358 3 17313925469160153130
5937810 71 11241968153531040943
6289498 60 12247679331961336650
636775 72 9654991365632455722
636775 8 18338805486612619534
6698420 124 11095887077330256172
6712543 237 16702308966361626511
96874 4 18339643451257907639
9962374 69 18186806881606522684
9980921 7 11887953221335227179

> <PUBCHEM_SHAPE_MULTIPOLES>
607.5
29.22
5.15
1.26
27.81
2.08
-0.08
42.36
-5.68
-6.66
1.7
-0.46
-0.2
-1.64

> <PUBCHEM_SHAPE_SELFOVERLAP>
1312.604

> <PUBCHEM_SHAPE_VOLUME>
333.3

> <PUBCHEM_COORDINATE_TYPE>
2
5
10

$$$$
