71693735
  -OEChem-12032416343D

 43 46  0     1  0  0  0  0  0999 V2000
   -0.2106   -2.9795    0.0031 O   0  0  0  0  0  0  0  0  0  0  0  0
   -2.6591   -1.7379   -2.2608 O   0  0  0  0  0  0  0  0  0  0  0  0
    3.8878   -1.2895    1.8498 O   0  0  0  0  0  0  0  0  0  0  0  0
    1.8058   -0.9396    0.8813 N   0  0  0  0  0  0  0  0  0  0  0  0
   -1.5111   -0.5949   -0.5906 N   0  0  0  0  0  0  0  0  0  0  0  0
   -5.6234    0.9039   -0.0352 N   0  0  0  0  0  0  0  0  0  0  0  0
    4.9288    2.3775   -1.3154 N   0  0  0  0  0  0  0  0  0  0  0  0
   -0.5002   -0.6345    0.4587 C   0  0  1  0  0  0  0  0  0  0  0  0
   -0.2834   -2.0225    1.0567 C   0  0  2  0  0  0  0  0  0  0  0  0
    0.8981   -0.2647   -0.0445 C   0  0  0  0  0  0  0  0  0  0  0  0
    1.0910   -1.9096    1.7040 C   0  0  0  0  0  0  0  0  0  0  0  0
   -1.9125   -1.7357   -1.2807 C   0  0  0  0  0  0  0  0  0  0  0  0
   -1.4350   -3.0515   -0.6914 C   0  0  0  0  0  0  0  0  0  0  0  0
   -1.9743    0.7202   -1.0109 C   0  0  0  0  0  0  0  0  0  0  0  0
    3.1593   -0.6960    1.0569 C   0  0  0  0  0  0  0  0  0  0  0  0
   -3.2304    1.1280   -0.2967 C   0  0  0  0  0  0  0  0  0  0  0  0
    3.7710    0.3636    0.2396 C   0  0  0  0  0  0  0  0  0  0  0  0
   -3.1995    2.0699    0.7257 C   0  0  0  0  0  0  0  0  0  0  0  0
   -4.4567    0.5796   -0.6365 C   0  0  0  0  0  0  0  0  0  0  0  0
    3.8052    1.6730    0.7062 C   0  0  0  0  0  0  0  0  0  0  0  0
    4.3151    0.0600   -1.0035 C   0  0  0  0  0  0  0  0  0  0  0  0
   -4.3791    2.4296    1.3680 C   0  0  0  0  0  0  0  0  0  0  0  0
    4.3900    2.6344   -0.1022 C   0  0  0  0  0  0  0  0  0  0  0  0
    4.8772    1.0935   -1.7354 C   0  0  0  0  0  0  0  0  0  0  0  0
   -5.5541    1.8229    0.9539 C   0  0  0  0  0  0  0  0  0  0  0  0
   -0.7966    0.0533    1.2614 H   0  0  0  0  0  0  0  0  0  0  0  0
   -1.0544   -2.3232    1.7746 H   0  0  0  0  0  0  0  0  0  0  0  0
    1.0665    0.8158   -0.0435 H   0  0  0  0  0  0  0  0  0  0  0  0
    1.0985   -0.6487   -1.0514 H   0  0  0  0  0  0  0  0  0  0  0  0
    1.0276   -1.4928    2.7150 H   0  0  0  0  0  0  0  0  0  0  0  0
    1.6464   -2.8521    1.7312 H   0  0  0  0  0  0  0  0  0  0  0  0
   -2.2170   -3.4422   -0.0301 H   0  0  0  0  0  0  0  0  0  0  0  0
   -1.3041   -3.7626   -1.5136 H   0  0  0  0  0  0  0  0  0  0  0  0
   -2.1733    0.7074   -2.0899 H   0  0  0  0  0  0  0  0  0  0  0  0
   -1.1768    1.4570   -0.8599 H   0  0  0  0  0  0  0  0  0  0  0  0
   -2.2634    2.5290    1.0314 H   0  0  0  0  0  0  0  0  0  0  0  0
   -4.5552   -0.1510   -1.4317 H   0  0  0  0  0  0  0  0  0  0  0  0
    3.3889    1.9433    1.6707 H   0  0  0  0  0  0  0  0  0  0  0  0
    4.3037   -0.9509   -1.3969 H   0  0  0  0  0  0  0  0  0  0  0  0
   -4.3789    3.1612    2.1678 H   0  0  0  0  0  0  0  0  0  0  0  0
    4.4415    3.6706    0.2156 H   0  0  0  0  0  0  0  0  0  0  0  0
    5.3145    0.9091   -2.7111 H   0  0  0  0  0  0  0  0  0  0  0  0
   -6.5011    2.0687    1.4229 H   0  0  0  0  0  0  0  0  0  0  0  0
  1  9  1  0  0  0  0
  1 13  1  0  0  0  0
  2 12  2  0  0  0  0
  3 15  2  0  0  0  0
  4 10  1  0  0  0  0
  4 11  1  0  0  0  0
  4 15  1  0  0  0  0
  5  8  1  0  0  0  0
  5 12  1  0  0  0  0
  5 14  1  0  0  0  0
  6 19  1  0  0  0  0
  6 25  2  0  0  0  0
  7 23  2  0  0  0  0
  7 24  1  0  0  0  0
  8  9  1  0  0  0  0
  8 10  1  0  0  0  0
  8 26  1  0  0  0  0
  9 11  1  0  0  0  0
  9 27  1  0  0  0  0
 10 28  1  0  0  0  0
 10 29  1  0  0  0  0
 11 30  1  0  0  0  0
 11 31  1  0  0  0  0
 12 13  1  0  0  0  0
 13 32  1  0  0  0  0
 13 33  1  0  0  0  0
 14 16  1  0  0  0  0
 14 34  1  0  0  0  0
 14 35  1  0  0  0  0
 15 17  1  0  0  0  0
 16 18  1  0  0  0  0
 16 19  2  0  0  0  0
 17 20  2  0  0  0  0
 17 21  1  0  0  0  0
 18 22  2  0  0  0  0
 18 36  1  0  0  0  0
 19 37  1  0  0  0  0
 20 23  1  0  0  0  0
 20 38  1  0  0  0  0
 21 24  2  0  0  0  0
 21 39  1  0  0  0  0
 22 25  1  0  0  0  0
 22 40  1  0  0  0  0
 23 41  1  0  0  0  0
 24 42  1  0  0  0  0
 25 43  1  0  0  0  0
M  END
> <PUBCHEM_COMPOUND_CID>
71693735

> <PUBCHEM_CONFORMER_RMSD>
0.8

> <PUBCHEM_CONFORMER_DIVERSEORDER>
1
71
33
69
48
47
67
78
84
79
36
75
74
38
12
53
65
82
52
66
77
54
16
14
30
43
17
25
39
76
83
20
19
26
18
29
41
9
28
24
49
44
59
32
87
40
46
45
56
15
4
64
86
51
42
13
80
35
72
34
10
7
58
81
57
37
73
2
68
61
22
21
50
23
85
63
5
27
70
31
55
6
11
62
60
3
8

> <PUBCHEM_MMFF94_PARTIAL_CHARGES>
33
1 -0.56
10 0.3
11 0.3
12 0.57
13 0.34
14 0.44
15 0.54
16 -0.14
17 0.09
18 -0.15
19 0.16
2 -0.57
20 -0.15
21 -0.15
22 -0.15
23 0.16
24 0.16
25 0.16
3 -0.57
36 0.15
37 0.15
38 0.15
39 0.15
4 -0.66
40 0.15
41 0.15
42 0.15
43 0.15
5 -0.66
6 -0.62
7 -0.62
8 0.3
9 0.28

> <PUBCHEM_EFFECTIVE_ROTOR_COUNT>
5.2

> <PUBCHEM_PHARMACOPHORE_FEATURES>
9
1 1 acceptor
1 2 acceptor
1 3 acceptor
1 6 acceptor
1 7 acceptor
5 4 8 9 10 11 rings
6 1 5 8 9 12 13 rings
6 6 16 18 19 22 25 rings
6 7 17 20 21 23 24 rings

> <PUBCHEM_HEAVY_ATOM_COUNT>
25

> <PUBCHEM_ATOM_DEF_STEREO_COUNT>
2

> <PUBCHEM_ATOM_UDEF_STEREO_COUNT>
0

> <PUBCHEM_BOND_DEF_STEREO_COUNT>
0

> <PUBCHEM_BOND_UDEF_STEREO_COUNT>
0

> <PUBCHEM_ISOTOPIC_ATOM_COUNT>
0

> <PUBCHEM_COMPONENT_COUNT>
1

> <PUBCHEM_CACTVS_TAUTO_COUNT>
2

> <PUBCHEM_CONFORMER_ID>
0445F5A700000001

> <PUBCHEM_MMFF94_ENERGY>
75.8923

> <PUBCHEM_FEATURE_SELFOVERLAP>
45.875

> <PUBCHEM_SHAPE_FINGERPRINT>
10670039 82 18059018259127609856
10763959 59 17899970543457224748
10794284 68 17612347381751673115
11049842 53 18129927993428780626
12390115 104 18263094334481275059
12403259 118 17972020466910733705
12788726 201 18125428959150932519
13583140 156 13407337634483689876
13828863 39 18114477720332466585
14187579 7 17985263225273694512
14251757 17 14189289288450764681
14251764 75 18188783863121086484
14341114 328 18336832983694553849
14429115 67 9439403523393191524
1454969 45 18342174480381463189
14790565 3 18341616980003802817
14840074 17 18187090546436734797
14848178 5 9439403501691774552
14950920 106 17023461932841591625
14955137 171 17828475869746381914
15021287 119 18044079173429672026
15163728 17 18272098192294008879
15183329 4 13039189178442265689
15342168 16 18113900459246977431
15534591 1 18410290328548008767
15575132 122 18337112263917251957
16991981 162 17987530375316073169
17349148 13 10303815405801445633
17980427 23 18194370430610173258
18222031 100 10665236916649808298
18785283 64 18122063104886987763
20626108 58 12252774498939934729
21033650 10 17203615865127816752
21250096 35 8934706804144585113
21315764 21 17274277066972360542
21458453 9 16445065086796530433
21756936 100 18262243317182441162
21864079 5 18409727404564461784
22620623 9 17274248578175048887
22849341 161 17897711077934291594
23558518 356 17831020491449957300
23559900 14 17917430883202600662
25147074 1 18261095410000772410
2637199 183 18201720604936502489
3004659 81 10952045658816772904
312425 83 17916876853954100108
3459 110 15575288721167396437
3472631 163 18411420647976245004
3729539 64 14548468977037868845
38570 142 18188226346453638740
4098825 35 18130516314006213982
469060 322 16226606432840364655
474 4 18259981565697526496
5104073 3 17822282552890943232
5252454 2 18187080689565690540
5912855 24 18261391208329970595
6034566 193 17242184667393685140
633830 44 18334855017820784382
6523845 18 17168151109406369342
8988823 20 11026093403165488678
960060 61 12823289122224864568
9862260 156 8646479692980356081

> <PUBCHEM_SHAPE_MULTIPOLES>
476.96
12.04
3.32
1.67
0.74
0.76
-0.16
-11.28
-0.86
0.56
0.15
-0.56
0.44
-2.88

> <PUBCHEM_SHAPE_SELFOVERLAP>
1039.099

> <PUBCHEM_SHAPE_VOLUME>
255

> <PUBCHEM_COORDINATE_TYPE>
2
5
10

$$$$
