11912975
  -OEChem-12032416373D

 56 61  0     1  0  0  0  0  0999 V2000
    3.0778    2.7653   -1.2132 S   0  0  0  0  0  0  0  0  0  0  0  0
   -1.0270    2.4236    1.1905 O   0  0  0  0  0  0  0  0  0  0  0  0
    1.1449    0.4046    2.1616 O   0  0  0  0  0  0  0  0  0  0  0  0
    4.0261    3.4587   -0.3624 O   0  0  0  0  0  0  0  0  0  0  0  0
    2.9841    3.0961   -2.6221 O   0  0  0  0  0  0  0  0  0  0  0  0
   -5.3584    0.9538    0.1091 O   0  0  0  0  0  0  0  0  0  0  0  0
    1.5282    2.8577   -0.5250 N   0  0  0  0  0  0  0  0  0  0  0  0
   -1.2867   -1.2177    1.1449 N   0  0  0  0  0  0  0  0  0  0  0  0
   -3.4257   -0.7491    0.3010 N   0  0  0  0  0  0  0  0  0  0  0  0
   -2.3663   -2.8720   -0.1212 N   0  0  0  0  0  0  0  0  0  0  0  0
    0.8445    0.9878    0.8828 C   0  0  1  0  0  0  0  0  0  0  0  0
   -0.6644    1.0949    0.7789 C   0  0  1  0  0  0  0  0  0  0  0  0
    1.3193    2.4222    0.8346 C   0  0  2  0  0  0  0  0  0  0  0  0
   -1.1762    0.0802    1.7739 C   0  0  2  0  0  0  0  0  0  0  0  0
    0.1653    3.1682    1.4805 C   0  0  0  0  0  0  0  0  0  0  0  0
   -0.0812    0.0628    2.8247 C   0  0  0  0  0  0  0  0  0  0  0  0
   -2.3927   -1.6250    0.4200 C   0  0  0  0  0  0  0  0  0  0  0  0
    3.4193    1.0338   -1.1120 C   0  0  0  0  0  0  0  0  0  0  0  0
    4.0441    0.5332    0.0174 C   0  0  0  0  0  0  0  0  0  0  0  0
    3.0565    0.2132   -2.1618 C   0  0  0  0  0  0  0  0  0  0  0  0
    4.3229   -0.8399    0.1128 C   0  0  0  0  0  0  0  0  0  0  0  0
    3.3254   -1.1536   -2.0837 C   0  0  0  0  0  0  0  0  0  0  0  0
    3.9581   -1.6960   -0.9533 C   0  0  0  0  0  0  0  0  0  0  0  0
   -4.4870   -1.1788   -0.4126 C   0  0  0  0  0  0  0  0  0  0  0  0
   -3.4602   -3.2365   -0.8219 C   0  0  0  0  0  0  0  0  0  0  0  0
   -4.5607   -2.4241   -1.0028 C   0  0  0  0  0  0  0  0  0  0  0  0
    4.9552   -1.3823    1.2435 C   0  0  0  0  0  0  0  0  0  0  0  0
    4.2369   -3.0692   -0.8578 C   0  0  0  0  0  0  0  0  0  0  0  0
   -5.5640   -0.2311   -0.5205 C   0  0  0  0  0  0  0  0  0  0  0  0
    5.2246   -2.7490    1.3216 C   0  0  0  0  0  0  0  0  0  0  0  0
    4.8663   -3.5907    0.2729 C   0  0  0  0  0  0  0  0  0  0  0  0
   -6.7929   -0.2504   -1.1331 C   0  0  0  0  0  0  0  0  0  0  0  0
   -7.3842    1.0067   -0.8630 C   0  0  0  0  0  0  0  0  0  0  0  0
   -6.4719    1.7027   -0.1044 C   0  0  0  0  0  0  0  0  0  0  0  0
    1.2349    0.3151    0.1202 H   0  0  0  0  0  0  0  0  0  0  0  0
   -1.0300    0.9623   -0.2445 H   0  0  0  0  0  0  0  0  0  0  0  0
    2.2220    2.5935    1.4301 H   0  0  0  0  0  0  0  0  0  0  0  0
   -2.1234    0.3642    2.2468 H   0  0  0  0  0  0  0  0  0  0  0  0
    0.2749    3.1966    2.5702 H   0  0  0  0  0  0  0  0  0  0  0  0
    0.0469    4.1942    1.1188 H   0  0  0  0  0  0  0  0  0  0  0  0
   -0.2599    0.8284    3.5877 H   0  0  0  0  0  0  0  0  0  0  0  0
    0.0368   -0.9015    3.3286 H   0  0  0  0  0  0  0  0  0  0  0  0
    0.7112    2.8552   -1.1480 H   0  0  0  0  0  0  0  0  0  0  0  0
   -0.5014   -1.8576    1.1816 H   0  0  0  0  0  0  0  0  0  0  0  0
    4.3205    1.1918    0.8374 H   0  0  0  0  0  0  0  0  0  0  0  0
    2.5584    0.5983   -3.0461 H   0  0  0  0  0  0  0  0  0  0  0  0
    3.0341   -1.7934   -2.9142 H   0  0  0  0  0  0  0  0  0  0  0  0
   -3.4262   -4.2334   -1.2483 H   0  0  0  0  0  0  0  0  0  0  0  0
   -5.4135   -2.7667   -1.5749 H   0  0  0  0  0  0  0  0  0  0  0  0
    5.2437   -0.7432    2.0755 H   0  0  0  0  0  0  0  0  0  0  0  0
    3.9654   -3.7459   -1.6653 H   0  0  0  0  0  0  0  0  0  0  0  0
    5.7142   -3.1557    2.2017 H   0  0  0  0  0  0  0  0  0  0  0  0
    5.0762   -4.6545    0.3343 H   0  0  0  0  0  0  0  0  0  0  0  0
   -7.2233   -1.0601   -1.7054 H   0  0  0  0  0  0  0  0  0  0  0  0
   -8.3537    1.3612   -1.1814 H   0  0  0  0  0  0  0  0  0  0  0  0
   -6.4645    2.6878    0.3385 H   0  0  0  0  0  0  0  0  0  0  0  0
  1  4  2  0  0  0  0
  1  5  2  0  0  0  0
  1  7  1  0  0  0  0
  1 18  1  0  0  0  0
  2 12  1  0  0  0  0
  2 15  1  0  0  0  0
  3 11  1  0  0  0  0
  3 16  1  0  0  0  0
  6 29  1  0  0  0  0
  6 34  1  0  0  0  0
  7 13  1  0  0  0  0
  7 43  1  0  0  0  0
  8 14  1  0  0  0  0
  8 17  1  0  0  0  0
  8 44  1  0  0  0  0
  9 17  1  0  0  0  0
  9 24  2  0  0  0  0
 10 17  2  0  0  0  0
 10 25  1  0  0  0  0
 11 12  1  0  0  0  0
 11 13  1  0  0  0  0
 11 35  1  0  0  0  0
 12 14  1  0  0  0  0
 12 36  1  0  0  0  0
 13 15  1  0  0  0  0
 13 37  1  0  0  0  0
 14 16  1  0  0  0  0
 14 38  1  0  0  0  0
 15 39  1  0  0  0  0
 15 40  1  0  0  0  0
 16 41  1  0  0  0  0
 16 42  1  0  0  0  0
 18 19  2  0  0  0  0
 18 20  1  0  0  0  0
 19 21  1  0  0  0  0
 19 45  1  0  0  0  0
 20 22  2  0  0  0  0
 20 46  1  0  0  0  0
 21 23  1  0  0  0  0
 21 27  2  0  0  0  0
 22 23  1  0  0  0  0
 22 47  1  0  0  0  0
 23 28  2  0  0  0  0
 24 26  1  0  0  0  0
 24 29  1  0  0  0  0
 25 26  2  0  0  0  0
 25 48  1  0  0  0  0
 26 49  1  0  0  0  0
 27 30  1  0  0  0  0
 27 50  1  0  0  0  0
 28 31  1  0  0  0  0
 28 51  1  0  0  0  0
 29 32  2  0  0  0  0
 30 31  2  0  0  0  0
 30 52  1  0  0  0  0
 31 53  1  0  0  0  0
 32 33  1  0  0  0  0
 32 54  1  0  0  0  0
 33 34  2  0  0  0  0
 33 55  1  0  0  0  0
 34 56  1  0  0  0  0
M  END
> <PUBCHEM_COMPOUND_CID>
11912975

> <PUBCHEM_CONFORMER_RMSD>
1.2

> <PUBCHEM_CONFORMER_DIVERSEORDER>
1
97
118
76
292
196
16
253
73
246
86
195
10
291
224
216
131
278
237
261
241
296
67
45
137
113
152
301
52
160
90
132
219
102
184
148
281
208
99
258
151
142
282
251
238
248
297
136
8
302
280
78
50
103
63
107
70
161
259
303
271
294
173
265
204
149
129
81
34
284
210
28
69
298
140
48
54
199
209
74
53
169
178
207
203
283
66
138
270
55
252
89
141
59
250
228
247
185
269
275
245
128
273
156
235
94
267
150
188
155
279
197
91
212
130
119
286
92
133
175
186
46
166
268
221
134
200
176
180
293
124
125
114
117
83
233
285
290
143
220
211
77
288
249
276
295
158
2
47
277
307
42
256
206
272
162
168
187
194
109
38
308
144
3
218
122
139
255
101
146
222
21
243
5
201
154
183
239
39
40
33
223
115
120
110
157
112
43
226
227
116
229
26
192
41
6
51
64
300
190
79
217
111
68
88
145
205
165
62
177
126
84
306
37
213
230
108
181
163
12
49
147
304
27
260
299
56
71
85
244
159
82
20
266
231
287
75
123
35
72
57
93
7
254
191
174
240
106
17
58
98
257
121
232
179
170
30
263
19
164
80
29
4
65
95
289
36
264
262
127
100
198
234
214
167
31
202
215
22
189
153
18
61
60
236
96
15
23
305
11
87
171
193
44
14
242
274
105
13
25
9
182
24
135
172
225
32
104

> <PUBCHEM_MMFF94_PARTIAL_CHARGES>
46
1 1.45
10 -0.62
11 0.28
12 0.28
13 0.36
14 0.37
15 0.28
16 0.28
17 0.72
18 -0.01
19 -0.15
2 -0.56
20 -0.15
22 -0.15
24 0.36
25 0.16
26 -0.15
27 -0.15
28 -0.15
29 0.09
3 -0.56
30 -0.15
31 -0.15
32 -0.15
33 -0.15
34 -0.01
4 -0.65
43 0.42
44 0.4
45 0.15
46 0.15
47 0.15
48 0.15
49 0.15
5 -0.65
50 0.15
51 0.15
52 0.15
53 0.15
54 0.15
55 0.15
56 0.15
6 -0.28
7 -0.91
8 -0.87
9 -0.62

> <PUBCHEM_EFFECTIVE_ROTOR_COUNT>
7.2

> <PUBCHEM_PHARMACOPHORE_FEATURES>
15
1 2 acceptor
1 3 acceptor
1 4 acceptor
1 5 acceptor
1 6 acceptor
1 7 donor
1 8 donor
1 9 acceptor
4 8 9 10 17 cation
5 2 11 12 13 15 rings
5 3 11 12 14 16 rings
5 6 29 32 33 34 rings
6 18 19 20 21 22 23 rings
6 21 23 27 28 30 31 rings
6 9 10 17 24 25 26 rings

> <PUBCHEM_HEAVY_ATOM_COUNT>
34

> <PUBCHEM_ATOM_DEF_STEREO_COUNT>
4

> <PUBCHEM_ATOM_UDEF_STEREO_COUNT>
0

> <PUBCHEM_BOND_DEF_STEREO_COUNT>
0

> <PUBCHEM_BOND_UDEF_STEREO_COUNT>
0

> <PUBCHEM_ISOTOPIC_ATOM_COUNT>
0

> <PUBCHEM_COMPONENT_COUNT>
1

> <PUBCHEM_CACTVS_TAUTO_COUNT>
3

> <PUBCHEM_CONFORMER_ID>
00B5C70F00000001

> <PUBCHEM_MMFF94_ENERGY>
77.2208

> <PUBCHEM_FEATURE_SELFOVERLAP>
76.89

> <PUBCHEM_SHAPE_FINGERPRINT>
10675989 125 18407760348050257112
10842051 180 9582933750235411355
10904742 90 10015565226257528986
10974685 15 17261870469347700692
10985338 15 13696449822971417860
11578080 2 15865217834779474734
11720765 8 18409442583703485884
11828532 37 18336547222767645647
12098696 120 18126567822366398441
12373685 5 15481801594697801381
12596602 18 11527946755628035719
13636023 20 17985551297573022212
13636023 51 17273672404017271802
13782708 43 17416682648070602751
13947947 73 18260544498666797311
14068700 675 18340485544200249978
14117953 113 18271245997963581366
14289585 56 17313948481506072437
14347332 77 18058163020361207935
14840074 17 10881693412130335819
15183329 4 18342742914480763181
19309040 13 16807603769861673159
19958102 18 18411973651407803245
20511986 3 18129658737643517756
20715895 44 18412263904775615959
21315764 371 14117802418478519263
21362857 166 17843375597270946415
21458453 9 8646186183120180325
22440779 20 17100625869802203867
23559900 14 18129929162102256451
23572383 38 17561366171144824255
3004659 81 18412267229058937654
3459 83 18410013204710603785
4066623 53 18338506465972441861
437795 163 8934127336523033865
4394409 98 18339359652551416111
460360 51 18338530732336470203
463206 1 18410575089143559442
4918855 1 17096361727396042717
5081480 168 17531235154370143439
57527295 17 18263369263948925667
613672 6 17632302276112097471
6443934 186 9727632817439868287
6523845 18 15285354016188192755
8988823 20 16702013188726809024
9862260 156 18335413522488088723

> <PUBCHEM_SHAPE_MULTIPOLES>
654.28
15.71
4.49
2.08
23.07
0.25
-0.18
-5.87
5.36
-4.22
0.7
-1.73
0.66
-2.01

> <PUBCHEM_SHAPE_SELFOVERLAP>
1447.895

> <PUBCHEM_SHAPE_VOLUME>
351.6

> <PUBCHEM_COORDINATE_TYPE>
2
5
10

$$$$
