56775476
  -OEChem-12032416323D

 48 51  0     0  0  0  0  0  0999 V2000
    6.3144    4.5289    0.3398 F   0  0  0  0  0  0  0  0  0  0  0  0
   -5.0976    2.2042    1.6072 F   0  0  0  0  0  0  0  0  0  0  0  0
   -7.1926    2.5809    1.1122 F   0  0  0  0  0  0  0  0  0  0  0  0
   -5.6281    3.6276    0.0020 F   0  0  0  0  0  0  0  0  0  0  0  0
   -0.3019   -4.6908    1.4873 O   0  0  0  0  0  0  0  0  0  0  0  0
    4.2218   -1.3929    0.3034 O   0  0  0  0  0  0  0  0  0  0  0  0
   -5.9532    1.3914   -0.3520 O   0  0  0  0  0  0  0  0  0  0  0  0
   -0.5848   -1.9363    0.2683 N   0  0  0  0  0  0  0  0  0  0  0  0
    3.4359   -2.5182    0.0864 N   0  0  0  0  0  0  0  0  0  0  0  0
    0.2332   -3.1333    0.1295 C   0  0  0  0  0  0  0  0  0  0  0  0
    0.6525   -3.6052    1.5171 C   0  0  0  0  0  0  0  0  0  0  0  0
   -0.6795   -4.3545    0.1328 C   0  0  0  0  0  0  0  0  0  0  0  0
    1.2990   -3.0052   -0.9671 C   0  0  0  0  0  0  0  0  0  0  0  0
   -1.2049   -1.6100   -1.0137 C   0  0  0  0  0  0  0  0  0  0  0  0
    2.3616   -2.0685   -0.5684 C   0  0  0  0  0  0  0  0  0  0  0  0
   -2.4691   -0.8116   -0.8378 C   0  0  0  0  0  0  0  0  0  0  0  0
    2.4138   -0.6816   -0.7903 C   0  0  0  0  0  0  0  0  0  0  0  0
    3.6026   -0.3055   -0.2232 C   0  0  0  0  0  0  0  0  0  0  0  0
   -3.6423   -1.4437   -0.4257 C   0  0  0  0  0  0  0  0  0  0  0  0
   -2.4669    0.5610   -1.0868 C   0  0  0  0  0  0  0  0  0  0  0  0
    4.3041    0.9464   -0.0766 C   0  0  0  0  0  0  0  0  0  0  0  0
   -4.8132   -0.7035   -0.2627 C   0  0  0  0  0  0  0  0  0  0  0  0
   -3.6378    1.3013   -0.9238 C   0  0  0  0  0  0  0  0  0  0  0  0
   -4.8109    0.6689   -0.5119 C   0  0  0  0  0  0  0  0  0  0  0  0
    3.7502    2.1204   -0.5871 C   0  0  0  0  0  0  0  0  0  0  0  0
    5.5369    0.9828    0.5750 C   0  0  0  0  0  0  0  0  0  0  0  0
    4.4291    3.3306   -0.4464 C   0  0  0  0  0  0  0  0  0  0  0  0
    6.2160    2.1929    0.7156 C   0  0  0  0  0  0  0  0  0  0  0  0
    5.6621    3.3668    0.2050 C   0  0  0  0  0  0  0  0  0  0  0  0
   -5.9505    2.4568    0.5917 C   0  0  0  0  0  0  0  0  0  0  0  0
    0.4659   -2.9302    2.3591 H   0  0  0  0  0  0  0  0  0  0  0  0
    1.6669   -4.0058    1.6089 H   0  0  0  0  0  0  0  0  0  0  0  0
   -0.3937   -5.1568   -0.5561 H   0  0  0  0  0  0  0  0  0  0  0  0
   -1.7604   -4.2006    0.0565 H   0  0  0  0  0  0  0  0  0  0  0  0
    0.8817   -2.7353   -1.9430 H   0  0  0  0  0  0  0  0  0  0  0  0
    1.7517   -3.9938   -1.1314 H   0  0  0  0  0  0  0  0  0  0  0  0
   -0.0978   -1.1187    0.6333 H   0  0  0  0  0  0  0  0  0  0  0  0
   -1.4743   -2.5015   -1.5962 H   0  0  0  0  0  0  0  0  0  0  0  0
   -0.5110   -1.0399   -1.6425 H   0  0  0  0  0  0  0  0  0  0  0  0
    1.6928   -0.0534   -1.2921 H   0  0  0  0  0  0  0  0  0  0  0  0
   -3.6581   -2.5122   -0.2293 H   0  0  0  0  0  0  0  0  0  0  0  0
   -1.5600    1.0669   -1.4072 H   0  0  0  0  0  0  0  0  0  0  0  0
   -5.7240   -1.2013    0.0587 H   0  0  0  0  0  0  0  0  0  0  0  0
   -3.6235    2.3684   -1.1272 H   0  0  0  0  0  0  0  0  0  0  0  0
    2.7915    2.1232   -1.0993 H   0  0  0  0  0  0  0  0  0  0  0  0
    6.0003    0.0895    0.9859 H   0  0  0  0  0  0  0  0  0  0  0  0
    3.9985    4.2450   -0.8438 H   0  0  0  0  0  0  0  0  0  0  0  0
    7.1759    2.2221    1.2226 H   0  0  0  0  0  0  0  0  0  0  0  0
  1 29  1  0  0  0  0
  2 30  1  0  0  0  0
  3 30  1  0  0  0  0
  4 30  1  0  0  0  0
  5 11  1  0  0  0  0
  5 12  1  0  0  0  0
  6  9  1  0  0  0  0
  6 18  1  0  0  0  0
  7 24  1  0  0  0  0
  7 30  1  0  0  0  0
  8 10  1  0  0  0  0
  8 14  1  0  0  0  0
  8 37  1  0  0  0  0
  9 15  2  0  0  0  0
 10 11  1  0  0  0  0
 10 12  1  0  0  0  0
 10 13  1  0  0  0  0
 11 31  1  0  0  0  0
 11 32  1  0  0  0  0
 12 33  1  0  0  0  0
 12 34  1  0  0  0  0
 13 15  1  0  0  0  0
 13 35  1  0  0  0  0
 13 36  1  0  0  0  0
 14 16  1  0  0  0  0
 14 38  1  0  0  0  0
 14 39  1  0  0  0  0
 15 17  1  0  0  0  0
 16 19  2  0  0  0  0
 16 20  1  0  0  0  0
 17 18  2  0  0  0  0
 17 40  1  0  0  0  0
 18 21  1  0  0  0  0
 19 22  1  0  0  0  0
 19 41  1  0  0  0  0
 20 23  2  0  0  0  0
 20 42  1  0  0  0  0
 21 25  2  0  0  0  0
 21 26  1  0  0  0  0
 22 24  2  0  0  0  0
 22 43  1  0  0  0  0
 23 24  1  0  0  0  0
 23 44  1  0  0  0  0
 25 27  1  0  0  0  0
 25 45  1  0  0  0  0
 26 28  2  0  0  0  0
 26 46  1  0  0  0  0
 27 29  2  0  0  0  0
 27 47  1  0  0  0  0
 28 29  1  0  0  0  0
 28 48  1  0  0  0  0
M  END
> <PUBCHEM_COMPOUND_CID>
56775476

> <PUBCHEM_CONFORMER_RMSD>
1

> <PUBCHEM_CONFORMER_DIVERSEORDER>
1
34
53
24
46
18
38
50
33
19
27
45
10
57
32
36
58
44
37
41
21
23
40
52
55
28
30
13
15
48
7
14
16
39
17
20
8
51
54
22
26
35
4
42
49
11
56
5
25
47
29
12
9
2
31
43
6
3

> <PUBCHEM_MMFF94_PARTIAL_CHARGES>
40
1 -0.19
10 0.21
11 0.26
12 0.26
13 0.18
14 0.41
15 0.11
16 -0.14
17 -0.15
18 0.09
19 -0.15
2 -0.34
20 -0.15
21 0.05
22 -0.15
23 -0.15
24 0.08
25 -0.15
26 -0.15
27 -0.15
28 -0.15
29 0.19
3 -0.34
30 1.3
37 0.36
4 -0.34
40 0.15
41 0.15
42 0.15
43 0.15
44 0.15
45 0.15
46 0.15
47 0.15
48 0.15
5 -0.52
6 -0.02
7 -0.36
8 -0.84
9 -0.41

> <PUBCHEM_EFFECTIVE_ROTOR_COUNT>
8.8

> <PUBCHEM_PHARMACOPHORE_FEATURES>
9
1 5 acceptor
1 7 acceptor
1 8 cation
1 8 donor
1 9 acceptor
4 5 10 11 12 rings
5 6 9 15 17 18 rings
6 16 19 20 22 23 24 rings
6 21 25 26 27 28 29 rings

> <PUBCHEM_HEAVY_ATOM_COUNT>
30

> <PUBCHEM_ATOM_DEF_STEREO_COUNT>
0

> <PUBCHEM_ATOM_UDEF_STEREO_COUNT>
0

> <PUBCHEM_BOND_DEF_STEREO_COUNT>
0

> <PUBCHEM_BOND_UDEF_STEREO_COUNT>
0

> <PUBCHEM_ISOTOPIC_ATOM_COUNT>
0

> <PUBCHEM_COMPONENT_COUNT>
1

> <PUBCHEM_CACTVS_TAUTO_COUNT>
1

> <PUBCHEM_CONFORMER_ID>
0362533400000001

> <PUBCHEM_MMFF94_ENERGY>
77.1123

> <PUBCHEM_FEATURE_SELFOVERLAP>
45.672

> <PUBCHEM_SHAPE_FINGERPRINT>
10439779 11 18266731579730264536
10673678 19 18271248231588582963
10675989 125 18341052900341769576
10838868 160 18272645796893725649
11112241 14 18334018259892143985
11135609 201 18340208583096939867
11479125 193 18412552002713210473
12107183 9 18189314893446873786
13955234 65 17972317305233914851
14251764 30 9007064560503828320
14251764 75 18413392025201428361
14429114 114 18413103957429293577
14565420 104 18335139752688111971
14790565 3 18411138009289951125
14849402 71 18264487291724735162
15142526 21 18335421244808034787
15840311 113 18340494344730768477
16112460 7 18341056220462389216
16992779 147 18195543497309582705
19246450 95 17538236780745809232
19309040 13 18131634503956215324
19438510 23 18335978779007493712
20609170 109 16665431539328110545
20715895 44 18412542120272490752
21033648 29 18260275161320210526
21401589 2 18336263560597871130
22122407 14 18052550876605033481
23569914 152 8645657168167458721
2748736 6 18341321271209859620
2838139 119 18270394018560079942
376196 1 18412545409806918302
4144715 1 18118408586841295890
437795 171 18335692802326185341
5104073 3 18259985959628866835
5109719 28 18411710872391927785
5223283 242 17340997502193186959
57091435 61 18339356371027011843
5951187 136 18129107727309043214
636775 72 17982443004541426184
7288768 16 18188203316269707454
7808743 9 18265042725395288882
9849439 229 18408889554886492204

> <PUBCHEM_SHAPE_MULTIPOLES>
560.72
16.97
6.39
1.12
3.92
1.74
0.21
-27.17
3.3
-1.38
2.06
0.66
0.31
-0.81

> <PUBCHEM_SHAPE_SELFOVERLAP>
1222.92

> <PUBCHEM_SHAPE_VOLUME>
307.5

> <PUBCHEM_COORDINATE_TYPE>
2
5
10

$$$$
