7049280
  -OEChem-12032416203D

 48 49  0     1  0  0  0  0  0999 V2000
   -3.9255   -2.6847    0.9367 F   0  0  0  0  0  0  0  0  0  0  0  0
   -8.1550   -1.0252   -0.3818 F   0  0  0  0  0  0  0  0  0  0  0  0
    0.7306    1.7489    2.1920 O   0  0  0  0  0  0  0  0  0  0  0  0
    1.8170    4.2390   -0.2580 O   0  0  0  0  0  0  0  0  0  0  0  0
    4.9775    0.9986   -1.3445 O   0  0  0  0  0  0  0  0  0  0  0  0
   -2.3437    1.8290   -0.7392 O   0  0  0  0  0  0  0  0  0  0  0  0
    4.2398   -3.1732    1.2230 O   0  0  0  0  0  0  0  0  0  0  0  0
   -0.5688    0.5753    0.0499 N   0  0  0  0  0  0  0  0  0  0  0  0
    4.0519   -0.8508   -0.2687 N   0  0  0  0  0  0  0  0  0  0  0  0
   -2.6787   -0.3289    0.1222 N   0  0  0  0  0  0  0  0  0  0  0  0
    6.4773   -3.2797    0.7151 N   0  0  0  0  0  0  0  0  0  0  0  0
    0.6544    2.5062    0.9823 C   0  0  2  0  0  0  0  0  0  0  0  0
    0.4582    1.5536   -0.2126 C   0  0  1  0  0  0  0  0  0  0  0  0
    1.9377    3.3335    0.8372 C   0  0  1  0  0  0  0  0  0  0  0  0
    3.1809    2.4461    0.6535 C   0  0  0  0  0  0  0  0  0  0  0  0
    2.9328    1.2448   -0.2139 C   0  0  0  0  0  0  0  0  0  0  0  0
    1.7192    0.8387   -0.6164 C   0  0  0  0  0  0  0  0  0  0  0  0
    4.0915    0.4725   -0.6718 C   0  0  0  0  0  0  0  0  0  0  0  0
   -1.9218    0.7893   -0.2387 C   0  0  0  0  0  0  0  0  0  0  0  0
    5.0821   -1.8085   -0.6009 C   0  0  2  0  0  0  0  0  0  0  0  0
    4.7692   -2.5177   -1.9091 C   0  0  0  0  0  0  0  0  0  0  0  0
    5.1948   -2.8025    0.5447 C   0  0  0  0  0  0  0  0  0  0  0  0
   -4.0756   -0.5098   -0.0062 C   0  0  0  0  0  0  0  0  0  0  0  0
   -4.6694   -1.7008    0.4116 C   0  0  0  0  0  0  0  0  0  0  0  0
   -4.8597    0.5070   -0.5512 C   0  0  0  0  0  0  0  0  0  0  0  0
   -6.0475   -1.8750    0.2843 C   0  0  0  0  0  0  0  0  0  0  0  0
   -6.2377    0.3326   -0.6786 C   0  0  0  0  0  0  0  0  0  0  0  0
   -6.8316   -0.8584   -0.2609 C   0  0  0  0  0  0  0  0  0  0  0  0
   -0.2197    3.1643    1.0588 H   0  0  0  0  0  0  0  0  0  0  0  0
    0.1419    2.1474   -1.0803 H   0  0  0  0  0  0  0  0  0  0  0  0
    2.0824    3.9429    1.7376 H   0  0  0  0  0  0  0  0  0  0  0  0
    3.9984    3.0422    0.2307 H   0  0  0  0  0  0  0  0  0  0  0  0
    3.5101    2.0849    1.6360 H   0  0  0  0  0  0  0  0  0  0  0  0
    1.6159   -0.0153   -1.2829 H   0  0  0  0  0  0  0  0  0  0  0  0
   -0.3085   -0.2901    0.5141 H   0  0  0  0  0  0  0  0  0  0  0  0
    0.8246    2.3793    2.9263 H   0  0  0  0  0  0  0  0  0  0  0  0
    2.6285    4.7738   -0.2886 H   0  0  0  0  0  0  0  0  0  0  0  0
    3.2650   -1.1796    0.2847 H   0  0  0  0  0  0  0  0  0  0  0  0
    6.0300   -1.2667   -0.7050 H   0  0  0  0  0  0  0  0  0  0  0  0
   -2.1739   -1.1134    0.5270 H   0  0  0  0  0  0  0  0  0  0  0  0
    5.5514   -3.2419   -2.1599 H   0  0  0  0  0  0  0  0  0  0  0  0
    4.6872   -1.8026   -2.7345 H   0  0  0  0  0  0  0  0  0  0  0  0
    3.8206   -3.0632   -1.8467 H   0  0  0  0  0  0  0  0  0  0  0  0
   -4.4754    1.4559   -0.8971 H   0  0  0  0  0  0  0  0  0  0  0  0
    7.2531   -2.9793    0.1337 H   0  0  0  0  0  0  0  0  0  0  0  0
    6.6879   -3.9591    1.4386 H   0  0  0  0  0  0  0  0  0  0  0  0
   -6.5099   -2.8020    0.6098 H   0  0  0  0  0  0  0  0  0  0  0  0
   -6.8499    1.1233   -1.1025 H   0  0  0  0  0  0  0  0  0  0  0  0
  1 24  1  0  0  0  0
  2 28  1  0  0  0  0
  3 12  1  0  0  0  0
  3 36  1  0  0  0  0
  4 14  1  0  0  0  0
  4 37  1  0  0  0  0
  5 18  2  0  0  0  0
  6 19  2  0  0  0  0
  7 22  2  0  0  0  0
  8 13  1  0  0  0  0
  8 19  1  0  0  0  0
  8 35  1  0  0  0  0
  9 18  1  0  0  0  0
  9 20  1  0  0  0  0
  9 38  1  0  0  0  0
 10 19  1  0  0  0  0
 10 23  1  0  0  0  0
 10 40  1  0  0  0  0
 11 22  1  0  0  0  0
 11 45  1  0  0  0  0
 11 46  1  0  0  0  0
 12 13  1  0  0  0  0
 12 14  1  0  0  0  0
 12 29  1  0  0  0  0
 13 17  1  0  0  0  0
 13 30  1  0  0  0  0
 14 15  1  0  0  0  0
 14 31  1  0  0  0  0
 15 16  1  0  0  0  0
 15 32  1  0  0  0  0
 15 33  1  0  0  0  0
 16 17  2  0  0  0  0
 16 18  1  0  0  0  0
 17 34  1  0  0  0  0
 20 21  1  0  0  0  0
 20 22  1  0  0  0  0
 20 39  1  0  0  0  0
 21 41  1  0  0  0  0
 21 42  1  0  0  0  0
 21 43  1  0  0  0  0
 23 24  2  0  0  0  0
 23 25  1  0  0  0  0
 24 26  1  0  0  0  0
 25 27  2  0  0  0  0
 25 44  1  0  0  0  0
 26 28  2  0  0  0  0
 26 47  1  0  0  0  0
 27 28  1  0  0  0  0
 27 48  1  0  0  0  0
M  END
> <PUBCHEM_COMPOUND_CID>
7049280

> <PUBCHEM_CONFORMER_RMSD>
1

> <PUBCHEM_CONFORMER_DIVERSEORDER>
1
247
179
261
25
132
112
242
184
165
227
259
80
97
68
205
174
169
237
204
67
30
108
69
175
228
252
177
137
64
214
54
8
124
128
239
153
248
89
194
250
188
9
222
217
44
232
186
92
147
39
96
215
73
196
109
41
241
60
119
235
95
74
32
256
134
140
213
71
160
107
243
168
159
84
230
229
240
216
6
263
135
87
258
189
238
206
38
24
185
202
101
264
118
5
197
90
129
251
200
113
51
88
42
234
154
111
249
209
145
99
220
149
138
257
3
156
85
246
195
130
166
152
199
173
201
10
163
224
123
58
139
116
47
55
236
77
212
122
28
110
103
190
265
2
127
136
150
144
155
187
57
218
254
12
266
253
82
170
262
171
83
192
115
255
260
70
61
76
11
245
141
17
93
13
207
146
176
244
45
233
43
164
158
79
78
4
125
34
86
65
102
35
183
26
46
133
56
221
208
180
223
23
91
75
53
182
178
36
167
142
226
18
151
106
40
20
211
225
148
219
203
7
66
198
121
59
120
161
81
210
94
162
49
193
143
231
191
27
52
181
100
19
98
50
21
114
72
172
15
16
29
14
22
105
104
131
63
117
31
33
37
157
126
48
62

> <PUBCHEM_MMFF94_PARTIAL_CHARGES>
38
1 -0.19
10 -0.55
11 -0.8
12 0.28
13 0.44
14 0.28
15 0.14
16 -0.12
17 -0.29
18 0.62
19 0.69
2 -0.19
20 0.36
22 0.57
23 0.12
24 0.19
25 -0.15
26 -0.15
27 -0.15
28 0.19
3 -0.68
34 0.15
35 0.37
36 0.4
37 0.4
38 0.37
4 -0.68
40 0.37
44 0.15
45 0.37
46 0.37
47 0.15
48 0.15
5 -0.57
6 -0.57
7 -0.57
8 -0.73
9 -0.73

> <PUBCHEM_EFFECTIVE_ROTOR_COUNT>
8.8

> <PUBCHEM_PHARMACOPHORE_FEATURES>
13
1 10 donor
1 11 donor
1 3 acceptor
1 3 donor
1 4 acceptor
1 4 donor
1 5 acceptor
1 6 acceptor
1 7 acceptor
1 8 donor
1 9 donor
6 12 13 14 15 16 17 rings
6 23 24 25 26 27 28 rings

> <PUBCHEM_HEAVY_ATOM_COUNT>
28

> <PUBCHEM_ATOM_DEF_STEREO_COUNT>
4

> <PUBCHEM_ATOM_UDEF_STEREO_COUNT>
0

> <PUBCHEM_BOND_DEF_STEREO_COUNT>
0

> <PUBCHEM_BOND_UDEF_STEREO_COUNT>
0

> <PUBCHEM_ISOTOPIC_ATOM_COUNT>
0

> <PUBCHEM_COMPONENT_COUNT>
1

> <PUBCHEM_CACTVS_TAUTO_COUNT>
12

> <PUBCHEM_CONFORMER_ID>
006B904000000001

> <PUBCHEM_MMFF94_ENERGY>
59.5524

> <PUBCHEM_FEATURE_SELFOVERLAP>
66.033

> <PUBCHEM_SHAPE_FINGERPRINT>
10673678 19 17825967089434238780
11135609 99 18336825308915589078
117089 54 17913506653194522958
11720765 8 18341046401919510384
12107183 9 18199763453244864321
13533116 47 18272089443756720057
13782708 43 18410008862730802351
13955234 65 18127690654463857440
14866123 147 18196658385079111673
14910302 57 18040708169441352069
15019793 15 18194400232671750323
15183329 4 18186522081591934355
15475509 8 17531248336231624837
15510800 12 18128538167934281470
155225 6 10231169573322986274
15927050 60 17981604076857657510
19304671 126 13768226969078991342
1979834 28 17132119009351684198
20567600 70 18410008832655676530
21033650 10 16515961450737408341
21130935 74 18267589190710889027
21279426 13 18408599237189401365
21315764 119 17894630340541460287
21344244 78 16702302351584469832
23522609 53 18123222110602435421
23559900 14 18335416915818305037
23569943 247 18336826399731846035
3004659 81 18113337484046400898
32027 91 18410852174921597347
3421961 26 18342174492549401512
345986 75 17561370569132981888
34797466 226 17168145693172729365
4073 2 18191026918217021185
439807 62 18261112945856363007
46194498 28 17894912979201809108
465052 167 18202569471021165460
5104073 3 17917997165655160977
6695519 79 17261896844705242273
6697151 62 18199444641690233213
7970288 3 18267020562167481106

> <PUBCHEM_SHAPE_MULTIPOLES>
512.41
18.5
4.35
1.21
22.37
0.57
-0.1
-18.13
2.26
-7.32
-1.17
-1.27
-0.17
0.48

> <PUBCHEM_SHAPE_SELFOVERLAP>
1075.84

> <PUBCHEM_SHAPE_VOLUME>
287.1

> <PUBCHEM_COORDINATE_TYPE>
2
5
10

$$$$
