40779319
  -OEChem-12032416163D

 52 55  0     1  0  0  0  0  0999 V2000
    2.9924    2.2684    0.9113 O   0  0  0  0  0  0  0  0  0  0  0  0
   -1.7350    2.4067    0.5761 O   0  0  0  0  0  0  0  0  0  0  0  0
   -3.2033    4.1829   -0.8157 O   0  0  0  0  0  0  0  0  0  0  0  0
   -2.0819   -2.5911    1.2861 N   0  0  2  0  0  0  0  0  0  0  0  0
    2.4273   -1.9606   -0.7981 N   0  0  0  0  0  0  0  0  0  0  0  0
   -3.4573    0.8416    0.6113 N   0  0  0  0  0  0  0  0  0  0  0  0
    3.3736   -1.0063   -0.7895 N   0  0  0  0  0  0  0  0  0  0  0  0
   -1.0097   -2.4665   -1.0841 C   0  0  2  0  0  0  0  0  0  0  0  0
    0.0927   -2.5447    0.0081 C   0  0  2  0  0  0  0  0  0  0  0  0
   -2.6794   -1.4683    0.5163 C   0  0  2  0  0  0  0  0  0  0  0  0
   -1.9162   -1.2485   -0.8075 C   0  0  0  0  0  0  0  0  0  0  0  0
   -1.8845   -3.7285   -0.9247 C   0  0  0  0  0  0  0  0  0  0  0  0
   -0.6121   -2.4120    1.3884 C   0  0  0  0  0  0  0  0  0  0  0  0
   -2.3445   -3.8445    0.5391 C   0  0  0  0  0  0  0  0  0  0  0  0
    1.2954   -1.6203   -0.1173 C   0  0  0  0  0  0  0  0  0  0  0  0
   -2.7742   -0.1823    1.3401 C   0  0  0  0  0  0  0  0  0  0  0  0
    1.5168   -0.3557    0.3709 C   0  0  0  0  0  0  0  0  0  0  0  0
    2.8116   -0.0284   -0.0741 C   0  0  0  0  0  0  0  0  0  0  0  0
    2.6821   -3.1999   -1.4949 C   0  0  0  0  0  0  0  0  0  0  0  0
   -2.8783    2.0666    0.2838 C   0  0  0  0  0  0  0  0  0  0  0  0
    3.5139    1.2398    0.1923 C   0  0  0  0  0  0  0  0  0  0  0  0
   -3.8258    2.9583   -0.4898 C   0  0  0  0  0  0  0  0  0  0  0  0
    4.7799    1.5504   -0.2472 C   0  0  0  0  0  0  0  0  0  0  0  0
    5.0539    2.8533    0.2330 C   0  0  0  0  0  0  0  0  0  0  0  0
    3.9357    3.2461    0.9314 C   0  0  0  0  0  0  0  0  0  0  0  0
   -4.0733    5.0433   -1.5453 C   0  0  0  0  0  0  0  0  0  0  0  0
   -0.5791   -2.4108   -2.0892 H   0  0  0  0  0  0  0  0  0  0  0  0
    0.4954   -3.5684   -0.0245 H   0  0  0  0  0  0  0  0  0  0  0  0
   -3.7143   -1.7473    0.2670 H   0  0  0  0  0  0  0  0  0  0  0  0
   -1.3042   -0.3399   -0.7832 H   0  0  0  0  0  0  0  0  0  0  0  0
   -2.6346   -1.1298   -1.6281 H   0  0  0  0  0  0  0  0  0  0  0  0
   -1.3198   -4.6238   -1.2097 H   0  0  0  0  0  0  0  0  0  0  0  0
   -2.7532   -3.6664   -1.5913 H   0  0  0  0  0  0  0  0  0  0  0  0
   -0.2117   -3.1819    2.0624 H   0  0  0  0  0  0  0  0  0  0  0  0
   -0.3897   -1.4703    1.8982 H   0  0  0  0  0  0  0  0  0  0  0  0
   -3.4141   -4.0852    0.5753 H   0  0  0  0  0  0  0  0  0  0  0  0
   -1.8380   -4.6844    1.0317 H   0  0  0  0  0  0  0  0  0  0  0  0
   -1.7892    0.1811    1.6473 H   0  0  0  0  0  0  0  0  0  0  0  0
   -3.3560   -0.3633    2.2512 H   0  0  0  0  0  0  0  0  0  0  0  0
    0.8389    0.2494    0.9559 H   0  0  0  0  0  0  0  0  0  0  0  0
   -4.4260    0.6745    0.3543 H   0  0  0  0  0  0  0  0  0  0  0  0
    1.8386   -3.4150   -2.1550 H   0  0  0  0  0  0  0  0  0  0  0  0
    3.5932   -3.1010   -2.0914 H   0  0  0  0  0  0  0  0  0  0  0  0
    2.8089   -3.9913   -0.7522 H   0  0  0  0  0  0  0  0  0  0  0  0
   -4.1234    2.4348   -1.4057 H   0  0  0  0  0  0  0  0  0  0  0  0
   -4.7114    3.1420    0.1295 H   0  0  0  0  0  0  0  0  0  0  0  0
    5.4373    0.9290   -0.8396 H   0  0  0  0  0  0  0  0  0  0  0  0
    5.9535    3.4336    0.0882 H   0  0  0  0  0  0  0  0  0  0  0  0
    3.6683    4.1424    1.4718 H   0  0  0  0  0  0  0  0  0  0  0  0
   -3.5351    5.9690   -1.7657 H   0  0  0  0  0  0  0  0  0  0  0  0
   -4.9587    5.2855   -0.9497 H   0  0  0  0  0  0  0  0  0  0  0  0
   -4.3689    4.5760   -2.4896 H   0  0  0  0  0  0  0  0  0  0  0  0
  1 21  1  0  0  0  0
  1 25  1  0  0  0  0
  2 20  2  0  0  0  0
  3 22  1  0  0  0  0
  3 26  1  0  0  0  0
  4 10  1  0  0  0  0
  4 13  1  0  0  0  0
  4 14  1  0  0  0  0
  5  7  1  0  0  0  0
  5 15  1  0  0  0  0
  5 19  1  0  0  0  0
  6 16  1  0  0  0  0
  6 20  1  0  0  0  0
  6 41  1  0  0  0  0
  7 18  2  0  0  0  0
  8  9  1  0  0  0  0
  8 11  1  0  0  0  0
  8 12  1  0  0  0  0
  8 27  1  0  0  0  0
  9 13  1  0  0  0  0
  9 15  1  0  0  0  0
  9 28  1  0  0  0  0
 10 11  1  0  0  0  0
 10 16  1  0  0  0  0
 10 29  1  0  0  0  0
 11 30  1  0  0  0  0
 11 31  1  0  0  0  0
 12 14  1  0  0  0  0
 12 32  1  0  0  0  0
 12 33  1  0  0  0  0
 13 34  1  0  0  0  0
 13 35  1  0  0  0  0
 14 36  1  0  0  0  0
 14 37  1  0  0  0  0
 15 17  2  0  0  0  0
 16 38  1  0  0  0  0
 16 39  1  0  0  0  0
 17 18  1  0  0  0  0
 17 40  1  0  0  0  0
 18 21  1  0  0  0  0
 19 42  1  0  0  0  0
 19 43  1  0  0  0  0
 19 44  1  0  0  0  0
 20 22  1  0  0  0  0
 21 23  2  0  0  0  0
 22 45  1  0  0  0  0
 22 46  1  0  0  0  0
 23 24  1  0  0  0  0
 23 47  1  0  0  0  0
 24 25  2  0  0  0  0
 24 48  1  0  0  0  0
 25 49  1  0  0  0  0
 26 50  1  0  0  0  0
 26 51  1  0  0  0  0
 26 52  1  0  0  0  0
M  END
> <PUBCHEM_COMPOUND_CID>
40779319

> <PUBCHEM_CONFORMER_RMSD>
1

> <PUBCHEM_CONFORMER_DIVERSEORDER>
2
20
15
24
13
10
7
5
8
26
4
11
6
9
17
21
19
14
12
25
3
16
22
18
23
1

> <PUBCHEM_MMFF94_PARTIAL_CHARGES>
28
1 -0.28
10 0.27
13 0.27
14 0.27
15 -0.33
16 0.3
17 -0.15
18 0.29
19 0.26
2 -0.57
20 0.57
21 0.14
22 0.34
23 -0.15
24 -0.15
25 -0.01
26 0.28
3 -0.56
4 -0.81
40 0.15
41 0.37
47 0.15
48 0.15
49 0.15
5 0.31
6 -0.73
7 -0.71
9 0.18

> <PUBCHEM_EFFECTIVE_ROTOR_COUNT>
8.2

> <PUBCHEM_PHARMACOPHORE_FEATURES>
9
1 1 acceptor
1 2 acceptor
1 3 acceptor
1 4 cation
1 6 donor
1 7 acceptor
5 1 21 23 24 25 rings
5 5 7 15 17 18 rings
8 4 8 9 10 11 12 13 14 rings

> <PUBCHEM_HEAVY_ATOM_COUNT>
26

> <PUBCHEM_ATOM_DEF_STEREO_COUNT>
3

> <PUBCHEM_ATOM_UDEF_STEREO_COUNT>
0

> <PUBCHEM_BOND_DEF_STEREO_COUNT>
0

> <PUBCHEM_BOND_UDEF_STEREO_COUNT>
0

> <PUBCHEM_ISOTOPIC_ATOM_COUNT>
0

> <PUBCHEM_COMPONENT_COUNT>
1

> <PUBCHEM_CACTVS_TAUTO_COUNT>
2

> <PUBCHEM_CONFORMER_ID>
026E3E3700000002

> <PUBCHEM_MMFF94_ENERGY>
45.5713

> <PUBCHEM_FEATURE_SELFOVERLAP>
45.679

> <PUBCHEM_SHAPE_FINGERPRINT>
10670039 82 17977962494584132860
10675989 125 17835794205781813776
10937287 8 18337101251277758701
11045515 52 17693084576155298935
11595378 159 18048298231700055440
12100795 323 18408882914925743860
12107183 9 18189879943406999626
12769317 202 17541941992780729205
12788726 201 18191567826546011473
13944108 23 17109320394947237116
13965767 371 17605548851715572972
14251764 38 18337942390430970821
14466204 15 17761489193006923098
15961568 22 17546167866975242332
16067690 210 17756126140517465632
1768 85 18050296860604586753
17974551 9 17169843167058422211
19246450 95 18196624416799290760
20398071 114 18411135814198133744
20621476 13 18050566235861319461
21049683 118 16229718871840729249
21641784 216 17904214972174311476
21860390 5 17259051897423516221
23559900 14 18131080303590218418
238 59 17981321188688688489
25019877 29 16409596078634974142
3117164 225 18336250259890998154
376196 1 17972032544727885673
469060 322 17833570250324673555
508706 21 18339642342966616564
5939293 188 17616811033560727707
6608658 132 17618509122191207308

> <PUBCHEM_SHAPE_MULTIPOLES>
497.54
9.09
6.96
1.29
9.25
6.1
-0.07
9.79
0.05
-7.19
-2.55
-0.56
-0.18
3.1

> <PUBCHEM_SHAPE_SELFOVERLAP>
1060.067

> <PUBCHEM_SHAPE_VOLUME>
274.9

> <PUBCHEM_COORDINATE_TYPE>
2
5
10

$$$$
