40777592
  -OEChem-12032416183D

 58 61  0     1  0  0  0  0  0999 V2000
   -3.6482   -1.3206    0.7608 O   0  0  0  0  0  0  0  0  0  0  0  0
    6.8125    1.8218   -1.0397 O   0  5  0  0  0  0  0  0  0  0  0  0
    6.4543    1.6766    1.1213 O   0  0  0  0  0  0  0  0  0  0  0  0
   -9.8798   -0.5680   -0.9611 O   0  0  0  0  0  0  0  0  0  0  0  0
   -2.4583    0.6356    1.0859 N   0  0  0  0  0  0  0  0  0  0  0  0
    4.0591   -0.1067   -0.5120 N   0  0  0  0  0  0  0  0  0  0  0  0
    3.9791    0.8116   -1.4900 N   0  0  0  0  0  0  0  0  0  0  0  0
   -4.6728    0.7720    0.4750 N   0  0  0  0  0  0  0  0  0  0  0  0
    6.5803    1.1497   -0.0083 N   0  3  0  0  0  0  0  0  0  0  0  0
    0.6699    1.0618    0.2415 C   0  0  2  0  0  0  0  0  0  0  0  0
   -0.2769   -0.1561    0.2245 C   0  0  0  0  0  0  0  0  0  0  0  0
   -1.2059    0.0182    1.4322 C   0  0  1  0  0  0  0  0  0  0  0  0
    2.0640    0.7419   -0.2470 C   0  0  0  0  0  0  0  0  0  0  0  0
    0.5934    1.5094    1.6724 C   0  0  0  0  0  0  0  0  0  0  0  0
   -0.4321    0.9409    2.3153 C   0  0  0  0  0  0  0  0  0  0  0  0
    2.9379   -0.1882    0.2607 C   0  0  0  0  0  0  0  0  0  0  0  0
    2.7580    1.3266   -1.3230 C   0  0  0  0  0  0  0  0  0  0  0  0
    2.7996   -1.1274    1.3922 C   0  0  0  0  0  0  0  0  0  0  0  0
    2.2904    2.3903   -2.2294 C   0  0  0  0  0  0  0  0  0  0  0  0
    5.2209   -0.8661   -0.3692 C   0  0  0  0  0  0  0  0  0  0  0  0
   -3.6144   -0.0924    0.7683 C   0  0  0  0  0  0  0  0  0  0  0  0
    6.4549   -0.2641   -0.1241 C   0  0  0  0  0  0  0  0  0  0  0  0
    5.1312   -2.2539   -0.4783 C   0  0  0  0  0  0  0  0  0  0  0  0
    7.5995   -1.0498    0.0119 C   0  0  0  0  0  0  0  0  0  0  0  0
    6.2758   -3.0395   -0.3425 C   0  0  0  0  0  0  0  0  0  0  0  0
   -5.9964    0.4312    0.1106 C   0  0  0  0  0  0  0  0  0  0  0  0
    7.5100   -2.4375   -0.0974 C   0  0  0  0  0  0  0  0  0  0  0  0
   -6.9289    1.4357   -0.1493 C   0  0  0  0  0  0  0  0  0  0  0  0
   -6.3690   -0.9091    0.0106 C   0  0  0  0  0  0  0  0  0  0  0  0
   -8.2339    1.0996   -0.5090 C   0  0  0  0  0  0  0  0  0  0  0  0
   -7.6740   -1.2452   -0.3492 C   0  0  0  0  0  0  0  0  0  0  0  0
   -8.6065   -0.2409   -0.6090 C   0  0  0  0  0  0  0  0  0  0  0  0
  -10.1936   -1.9575   -1.0446 C   0  0  0  0  0  0  0  0  0  0  0  0
    0.2430    1.8596   -0.3802 H   0  0  0  0  0  0  0  0  0  0  0  0
   -0.8237   -0.2150   -0.7245 H   0  0  0  0  0  0  0  0  0  0  0  0
    0.2674   -1.1027    0.3234 H   0  0  0  0  0  0  0  0  0  0  0  0
   -1.3881   -0.9457    1.9186 H   0  0  0  0  0  0  0  0  0  0  0  0
    1.2626    2.2307    2.1203 H   0  0  0  0  0  0  0  0  0  0  0  0
   -0.6836    1.1393    3.3476 H   0  0  0  0  0  0  0  0  0  0  0  0
   -2.5022    1.6486    1.0208 H   0  0  0  0  0  0  0  0  0  0  0  0
    2.5097   -2.1213    1.0369 H   0  0  0  0  0  0  0  0  0  0  0  0
    3.7312   -1.2195    1.9603 H   0  0  0  0  0  0  0  0  0  0  0  0
    2.0409   -0.8025    2.1078 H   0  0  0  0  0  0  0  0  0  0  0  0
    2.0571    3.2997   -1.6660 H   0  0  0  0  0  0  0  0  0  0  0  0
    3.0448    2.6478   -2.9804 H   0  0  0  0  0  0  0  0  0  0  0  0
    1.3866    2.0731   -2.7598 H   0  0  0  0  0  0  0  0  0  0  0  0
    4.1840   -2.7451   -0.6869 H   0  0  0  0  0  0  0  0  0  0  0  0
   -4.4766    1.7684    0.5278 H   0  0  0  0  0  0  0  0  0  0  0  0
    8.5687   -0.5954    0.2027 H   0  0  0  0  0  0  0  0  0  0  0  0
    6.2069   -4.1197   -0.4316 H   0  0  0  0  0  0  0  0  0  0  0  0
    8.4012   -3.0493    0.0074 H   0  0  0  0  0  0  0  0  0  0  0  0
   -6.6515    2.4841   -0.0751 H   0  0  0  0  0  0  0  0  0  0  0  0
   -5.7042   -1.7409    0.1961 H   0  0  0  0  0  0  0  0  0  0  0  0
   -8.9559    1.8863   -0.7104 H   0  0  0  0  0  0  0  0  0  0  0  0
   -7.8974   -2.3051   -0.4088 H   0  0  0  0  0  0  0  0  0  0  0  0
  -11.2463   -2.0341   -1.3358 H   0  0  0  0  0  0  0  0  0  0  0  0
  -10.0940   -2.4517   -0.0722 H   0  0  0  0  0  0  0  0  0  0  0  0
   -9.6089   -2.4557   -1.8254 H   0  0  0  0  0  0  0  0  0  0  0  0
  1 21  2  0  0  0  0
  2  9  1  0  0  0  0
  3  9  2  0  0  0  0
  4 32  1  0  0  0  0
  4 33  1  0  0  0  0
  5 12  1  0  0  0  0
  5 21  1  0  0  0  0
  5 40  1  0  0  0  0
  6  7  1  0  0  0  0
  6 16  1  0  0  0  0
  6 20  1  0  0  0  0
  7 17  2  0  0  0  0
  8 21  1  0  0  0  0
  8 26  1  0  0  0  0
  8 48  1  0  0  0  0
  9 22  1  0  0  0  0
 10 11  1  0  0  0  0
 10 13  1  0  0  0  0
 10 14  1  0  0  0  0
 10 34  1  0  0  0  0
 11 12  1  0  0  0  0
 11 35  1  0  0  0  0
 11 36  1  0  0  0  0
 12 15  1  0  0  0  0
 12 37  1  0  0  0  0
 13 16  2  0  0  0  0
 13 17  1  0  0  0  0
 14 15  2  0  0  0  0
 14 38  1  0  0  0  0
 15 39  1  0  0  0  0
 16 18  1  0  0  0  0
 17 19  1  0  0  0  0
 18 41  1  0  0  0  0
 18 42  1  0  0  0  0
 18 43  1  0  0  0  0
 19 44  1  0  0  0  0
 19 45  1  0  0  0  0
 19 46  1  0  0  0  0
 20 22  1  0  0  0  0
 20 23  2  0  0  0  0
 22 24  2  0  0  0  0
 23 25  1  0  0  0  0
 23 47  1  0  0  0  0
 24 27  1  0  0  0  0
 24 49  1  0  0  0  0
 25 27  2  0  0  0  0
 25 50  1  0  0  0  0
 26 28  2  0  0  0  0
 26 29  1  0  0  0  0
 27 51  1  0  0  0  0
 28 30  1  0  0  0  0
 28 52  1  0  0  0  0
 29 31  2  0  0  0  0
 29 53  1  0  0  0  0
 30 32  2  0  0  0  0
 30 54  1  0  0  0  0
 31 32  1  0  0  0  0
 31 55  1  0  0  0  0
 33 56  1  0  0  0  0
 33 57  1  0  0  0  0
 33 58  1  0  0  0  0
M  CHG  2   2  -1   9   1
M  END
> <PUBCHEM_COMPOUND_CID>
40777592

> <PUBCHEM_CONFORMER_RMSD>
1

> <PUBCHEM_CONFORMER_DIVERSEORDER>
1
82
31
101
51
56
71
74
94
72
89
75
15
18
79
10
95
35
83
53
21
55
92
29
97
67
73
22
102
14
42
76
84
98
41
70
99
77
78
58
49
16
91
12
28
61
66
85
65
32
20
86
4
26
93
8
37
2
48
80
96
81
69
46
90
59
47
88
60
43
34
62
24
7
19
54
50
64
100
30
103
39
13
6
23
44
87
36
5
3
25
9
52
45
33
68
57
27
38
40
11
17
63

> <PUBCHEM_MMFF94_PARTIAL_CHARGES>
44
1 -0.57
10 0.32
12 0.44
13 -0.18
14 -0.29
15 -0.29
16 -0.33
17 0.11
18 0.18
19 0.18
2 -0.52
20 -0.02
21 0.69
22 0.13
23 -0.15
24 -0.15
25 -0.15
26 0.12
27 -0.15
28 -0.15
29 -0.15
3 -0.52
30 -0.15
31 -0.15
32 0.08
33 0.28
38 0.15
39 0.15
4 -0.36
40 0.37
47 0.15
48 0.37
49 0.15
5 -0.73
50 0.15
51 0.15
52 0.15
53 0.15
54 0.15
55 0.15
6 0.59
7 -0.71
8 -0.55
9 0.91

> <PUBCHEM_EFFECTIVE_ROTOR_COUNT>
8.6

> <PUBCHEM_PHARMACOPHORE_FEATURES>
12
1 1 acceptor
1 2 acceptor
1 2 anion
1 3 acceptor
1 4 acceptor
1 5 donor
1 7 acceptor
1 8 donor
5 10 11 12 14 15 rings
5 6 7 13 16 17 rings
6 20 22 23 24 25 27 rings
6 26 28 29 30 31 32 rings

> <PUBCHEM_HEAVY_ATOM_COUNT>
33

> <PUBCHEM_ATOM_DEF_STEREO_COUNT>
2

> <PUBCHEM_ATOM_UDEF_STEREO_COUNT>
0

> <PUBCHEM_BOND_DEF_STEREO_COUNT>
0

> <PUBCHEM_BOND_UDEF_STEREO_COUNT>
0

> <PUBCHEM_ISOTOPIC_ATOM_COUNT>
0

> <PUBCHEM_COMPONENT_COUNT>
1

> <PUBCHEM_CACTVS_TAUTO_COUNT>
3

> <PUBCHEM_CONFORMER_ID>
026E377800000001

> <PUBCHEM_MMFF94_ENERGY>
110.6341

> <PUBCHEM_FEATURE_SELFOVERLAP>
61.031

> <PUBCHEM_SHAPE_FINGERPRINT>
10162869 55 18342738512471470880
10670039 82 18260544490852341389
11115154 58 18187931638303640985
11135609 127 18188211038964057428
11297750 10 17560790014394049361
11386260 185 17676208004803286029
11409948 41 18261948544603003626
12082328 90 18341328921411426565
12089408 11 18343584036807819833
12592606 108 18411136922800706671
13177829 20 10592039155351116241
14117953 113 17967822617911174374
14118638 360 16226320409561534373
14400156 350 17823426075608777780
14849402 71 10303513014419030042
15183329 4 17530966864985151361
15198563 99 16950842493041784693
15326923 82 18409165511885144986
15347590 135 13614240339116296366
15840311 113 18342738542425881508
16120349 18 18408885166036908172
1818759 1 16415483774939435431
18335252 114 17749108906821125613
19841028 212 18268711602366458314
2026 5 18059575746621239439
20505436 4 8069736369961933024
22224240 67 13183014103690215572
22956985 138 15695213335657781172
23576562 1 17531817982001967999
249057 25 18340504295685086017
249057 3 17749394775638998635
3004659 81 18335137579376404211
3103668 31 17096079169682029197
3178227 256 12679456487209846738
3633792 109 18334017155199397168
3711267 37 13695876896109831111
439807 62 18131350817161173139
474113 269 17532085009083729226
4874694 18 18335982047636368074
54076057 255 12613043802896004758
5758199 1 11239992347893523933
59521099 67 18410292544941973333
59682541 35 13254792447845127079
6086070 43 16226058815767716345
6126387 218 13830132751325236241
6438161 24 18131347510373971747
9689198 14 7853565820734523449
9953998 17 11024102154191943957
9962374 69 16056585604775184917

> <PUBCHEM_SHAPE_MULTIPOLES>
630.74
31.52
2.34
1.5
56.23
0.8
0.18
14.3
-10.59
-3.35
-0.64
-0.37
-0.77
-1.19

> <PUBCHEM_SHAPE_SELFOVERLAP>
1369.514

> <PUBCHEM_SHAPE_VOLUME>
346.7

> <PUBCHEM_COORDINATE_TYPE>
2
5
10

$$$$
