75536249
  -OEChem-12032416303D

 54 56  0     1  0  0  0  0  0999 V2000
   -6.8414   -0.2486   -0.8166 F   0  0  0  0  0  0  0  0  0  0  0  0
    3.2700   -0.3783    0.7365 O   0  0  0  0  0  0  0  0  0  0  0  0
    6.2152   -0.4294    0.6280 O   0  0  0  0  0  0  0  0  0  0  0  0
   -1.0658   -0.9753    1.5188 O   0  0  0  0  0  0  0  0  0  0  0  0
    0.6160    1.4945   -1.3763 O   0  0  0  0  0  0  0  0  0  0  0  0
    2.1580    2.1719    0.2244 N   0  0  0  0  0  0  0  0  0  0  0  0
    0.2779   -1.3045    1.6494 N   0  0  0  0  0  0  0  0  0  0  0  0
   -0.0995    2.5113    0.5828 N   0  0  0  0  0  0  0  0  0  0  0  0
    4.1124    0.7194    0.3615 C   0  0  1  0  0  0  0  0  0  0  0  0
    2.9070   -1.2584   -0.3301 C   0  0  1  0  0  0  0  0  0  0  0  0
    5.3892    0.2310   -0.3348 C   0  0  2  0  0  0  0  0  0  0  0  0
    4.1521   -1.8618   -0.9783 C   0  0  0  0  0  0  0  0  0  0  0  0
    5.0963   -0.7623   -1.4561 C   0  0  0  0  0  0  0  0  0  0  0  0
    2.0188   -2.3484    0.2572 C   0  0  0  0  0  0  0  0  0  0  0  0
    3.3409    1.7490   -0.4615 C   0  0  0  0  0  0  0  0  0  0  0  0
    0.6125   -1.8610    0.4817 C   0  0  0  0  0  0  0  0  0  0  0  0
   -0.4684   -1.9094   -0.4156 C   0  0  0  0  0  0  0  0  0  0  0  0
    0.8655    2.0126   -0.2886 C   0  0  0  0  0  0  0  0  0  0  0  0
   -1.4988   -1.3404    0.2850 C   0  0  0  0  0  0  0  0  0  0  0  0
   -1.5132    2.4697    0.2914 C   0  0  0  0  0  0  0  0  0  0  0  0
   -2.8761   -1.0599    0.0007 C   0  0  0  0  0  0  0  0  0  0  0  0
   -1.9311    3.7137   -0.4817 C   0  0  0  0  0  0  0  0  0  0  0  0
   -2.3196    2.3209    1.5756 C   0  0  0  0  0  0  0  0  0  0  0  0
   -3.2773   -0.7888   -1.3075 C   0  0  0  0  0  0  0  0  0  0  0  0
   -3.8146   -1.0573    1.0327 C   0  0  0  0  0  0  0  0  0  0  0  0
   -4.6168   -0.5149   -1.5837 C   0  0  0  0  0  0  0  0  0  0  0  0
   -5.1541   -0.7833    0.7566 C   0  0  0  0  0  0  0  0  0  0  0  0
   -5.5551   -0.5120   -0.5516 C   0  0  0  0  0  0  0  0  0  0  0  0
    4.3985    1.1894    1.3113 H   0  0  0  0  0  0  0  0  0  0  0  0
    2.3443   -0.7019   -1.0884 H   0  0  0  0  0  0  0  0  0  0  0  0
    5.9632    1.0819   -0.7180 H   0  0  0  0  0  0  0  0  0  0  0  0
    3.8751   -2.5047   -1.8215 H   0  0  0  0  0  0  0  0  0  0  0  0
    4.6814   -2.4892   -0.2499 H   0  0  0  0  0  0  0  0  0  0  0  0
    6.0242   -1.2220   -1.8157 H   0  0  0  0  0  0  0  0  0  0  0  0
    4.6423   -0.2394   -2.3059 H   0  0  0  0  0  0  0  0  0  0  0  0
    2.4304   -2.7149    1.2064 H   0  0  0  0  0  0  0  0  0  0  0  0
    1.9684   -3.2060   -0.4258 H   0  0  0  0  0  0  0  0  0  0  0  0
    3.0743    1.3646   -1.4500 H   0  0  0  0  0  0  0  0  0  0  0  0
    3.9586    2.6404   -0.6164 H   0  0  0  0  0  0  0  0  0  0  0  0
    7.0384   -0.6889    0.1802 H   0  0  0  0  0  0  0  0  0  0  0  0
    2.2648    2.6529    1.1123 H   0  0  0  0  0  0  0  0  0  0  0  0
   -0.4897   -2.3015   -1.4220 H   0  0  0  0  0  0  0  0  0  0  0  0
    0.2101    2.9866    1.4252 H   0  0  0  0  0  0  0  0  0  0  0  0
   -1.7013    1.6021   -0.3468 H   0  0  0  0  0  0  0  0  0  0  0  0
   -2.9979    3.6817   -0.7264 H   0  0  0  0  0  0  0  0  0  0  0  0
   -1.3725    3.7988   -1.4202 H   0  0  0  0  0  0  0  0  0  0  0  0
   -1.7404    4.6241    0.0976 H   0  0  0  0  0  0  0  0  0  0  0  0
   -3.3880    2.2246    1.3572 H   0  0  0  0  0  0  0  0  0  0  0  0
   -2.0043    1.4395    2.1418 H   0  0  0  0  0  0  0  0  0  0  0  0
   -2.1847    3.1901    2.2293 H   0  0  0  0  0  0  0  0  0  0  0  0
   -2.5633   -0.7795   -2.1275 H   0  0  0  0  0  0  0  0  0  0  0  0
   -3.5312   -1.2714    2.0604 H   0  0  0  0  0  0  0  0  0  0  0  0
   -4.9294   -0.3021   -2.6017 H   0  0  0  0  0  0  0  0  0  0  0  0
   -5.8854   -0.7820    1.5595 H   0  0  0  0  0  0  0  0  0  0  0  0
  1 28  1  0  0  0  0
  2  9  1  0  0  0  0
  2 10  1  0  0  0  0
  3 11  1  0  0  0  0
  3 40  1  0  0  0  0
  4  7  1  0  0  0  0
  4 19  1  0  0  0  0
  5 18  2  0  0  0  0
  6 15  1  0  0  0  0
  6 18  1  0  0  0  0
  6 41  1  0  0  0  0
  7 16  2  0  0  0  0
  8 18  1  0  0  0  0
  8 20  1  0  0  0  0
  8 43  1  0  0  0  0
  9 11  1  0  0  0  0
  9 15  1  0  0  0  0
  9 29  1  0  0  0  0
 10 12  1  0  0  0  0
 10 14  1  0  0  0  0
 10 30  1  0  0  0  0
 11 13  1  0  0  0  0
 11 31  1  0  0  0  0
 12 13  1  0  0  0  0
 12 32  1  0  0  0  0
 12 33  1  0  0  0  0
 13 34  1  0  0  0  0
 13 35  1  0  0  0  0
 14 16  1  0  0  0  0
 14 36  1  0  0  0  0
 14 37  1  0  0  0  0
 15 38  1  0  0  0  0
 15 39  1  0  0  0  0
 16 17  1  0  0  0  0
 17 19  2  0  0  0  0
 17 42  1  0  0  0  0
 19 21  1  0  0  0  0
 20 22  1  0  0  0  0
 20 23  1  0  0  0  0
 20 44  1  0  0  0  0
 21 24  2  0  0  0  0
 21 25  1  0  0  0  0
 22 45  1  0  0  0  0
 22 46  1  0  0  0  0
 22 47  1  0  0  0  0
 23 48  1  0  0  0  0
 23 49  1  0  0  0  0
 23 50  1  0  0  0  0
 24 26  1  0  0  0  0
 24 51  1  0  0  0  0
 25 27  2  0  0  0  0
 25 52  1  0  0  0  0
 26 28  2  0  0  0  0
 26 53  1  0  0  0  0
 27 28  1  0  0  0  0
 27 54  1  0  0  0  0
M  END
> <PUBCHEM_COMPOUND_CID>
75536249

> <PUBCHEM_CONFORMER_RMSD>
1

> <PUBCHEM_CONFORMER_DIVERSEORDER>
1
130
30
72
56
155
44
162
32
94
176
132
146
63
173
163
113
120
111
55
31
168
83
52
71
118
157
104
68
84
89
85
167
102
21
136
79
26
25
135
35
3
169
93
11
74
108
59
109
150
159
153
139
158
38
48
99
137
77
121
98
76
58
164
131
13
81
100
103
148
54
61
24
45
62
154
112
17
65
8
175
91
128
177
127
95
147
115
107
92
178
15
73
129
165
110
170
123
124
51
119
75
105
134
42
34
66
96
80
46
20
40
37
149
7
18
23
64
88
106
172
10
144
160
33
78
16
151
116
53
174
156
70
47
145
122
152
2
82
29
19
28
143
87
67
57
6
27
60
4
141
50
166
117
125
114
39
69
171
126
22
161
133
101
43
90
12
41
138
9
97
36
86
49
140
142
14
5

> <PUBCHEM_MMFF94_PARTIAL_CHARGES>
32
1 -0.19
10 0.28
11 0.28
14 0.18
15 0.3
16 0.11
17 -0.15
18 0.69
19 0.09
2 -0.56
20 0.3
21 0.05
24 -0.15
25 -0.15
26 -0.15
27 -0.15
28 0.19
3 -0.68
4 -0.02
40 0.4
41 0.37
42 0.15
43 0.37
5 -0.57
51 0.15
52 0.15
53 0.15
54 0.15
6 -0.73
7 -0.41
8 -0.73
9 0.28

> <PUBCHEM_EFFECTIVE_ROTOR_COUNT>
9.2

> <PUBCHEM_PHARMACOPHORE_FEATURES>
11
1 2 acceptor
1 3 acceptor
1 3 donor
1 5 acceptor
1 6 donor
1 7 acceptor
1 8 donor
3 20 22 23 hydrophobe
5 4 7 16 17 19 rings
6 2 9 10 11 12 13 rings
6 21 24 25 26 27 28 rings

> <PUBCHEM_HEAVY_ATOM_COUNT>
28

> <PUBCHEM_ATOM_DEF_STEREO_COUNT>
3

> <PUBCHEM_ATOM_UDEF_STEREO_COUNT>
0

> <PUBCHEM_BOND_DEF_STEREO_COUNT>
0

> <PUBCHEM_BOND_UDEF_STEREO_COUNT>
0

> <PUBCHEM_ISOTOPIC_ATOM_COUNT>
0

> <PUBCHEM_COMPONENT_COUNT>
1

> <PUBCHEM_CACTVS_TAUTO_COUNT>
3

> <PUBCHEM_CONFORMER_ID>
0480977900000001

> <PUBCHEM_MMFF94_ENERGY>
42.3615

> <PUBCHEM_FEATURE_SELFOVERLAP>
55.872

> <PUBCHEM_SHAPE_FINGERPRINT>
10670039 82 18336840693223939342
11513181 2 18057887939783634551
11578080 2 16055217674443821913
11646440 116 18410300245616679755
12011746 2 18408327700650884590
12166972 35 17822015357973694063
12236239 1 17561086912371075367
12422481 6 18055384395188968953
12467345 10 18201441350505551309
12596602 18 13262401080930637831
12788726 201 18335978688291194360
13140716 1 18120094133359863298
13402501 40 18187642535268924438
14251751 93 18337114440890313648
14251757 17 18041264505255952733
14464042 87 18343867710401708209
14681490 219 18411694400955139621
14840074 17 18060142058926664407
14931854 50 18335138661359957966
15081414 286 18266186204366137552
17357779 13 18410013238859131068
21236236 1 18339927017878280232
21641784 216 18187941533802335436
221357 26 18341897368321541502
23352939 185 18202566168228244467
23559900 14 18195526124167590792
3014063 31 18410573993794425668
3027735 51 18340493265844248075
338550 245 18335151855521232948
463206 1 18199181969963929623
469060 322 17531257110264098493
508706 21 18335151851436690632
5265222 85 16962964943440326860
59755656 215 18334573534253684591

> <PUBCHEM_SHAPE_MULTIPOLES>
530.53
12.63
3.27
1.35
0.82
2.94
0.01
-3.64
2.96
0.3
-0.13
0.66
-0.13
-0.05

> <PUBCHEM_SHAPE_SELFOVERLAP>
1113.808

> <PUBCHEM_SHAPE_VOLUME>
300.5

> <PUBCHEM_COORDINATE_TYPE>
2
5
10

$$$$
