38027809
  -OEChem-12032416253D

 79 81  0     1  0  0  0  0  0999 V2000
    1.3786   -2.6350   -2.2516 O   0  0  0  0  0  0  0  0  0  0  0  0
    1.2772    3.7240    1.7554 O   0  0  0  0  0  0  0  0  0  0  0  0
   -3.5816   -1.2191    2.0112 O   0  0  0  0  0  0  0  0  0  0  0  0
   -5.9035    0.7260   -1.0888 O   0  0  0  0  0  0  0  0  0  0  0  0
    2.7277   -2.3900   -0.3675 N   0  0  0  0  0  0  0  0  0  0  0  0
   -2.1955   -2.7716    0.9789 N   0  0  0  0  0  0  0  0  0  0  0  0
    0.0495    2.1940    0.5093 N   0  0  0  0  0  0  0  0  0  0  0  0
    3.2994    0.5070   -0.9369 C   0  0  1  0  0  0  0  0  0  0  0  0
    4.3397   -0.5670   -0.5315 C   0  0  1  0  0  0  0  0  0  0  0  0
    3.4910    1.7817   -0.1010 C   0  0  0  0  0  0  0  0  0  0  0  0
    3.3527    1.5139    1.4095 C   0  0  2  0  0  0  0  0  0  0  0  0
    3.3848    0.8470   -2.4282 C   0  0  0  0  0  0  0  0  0  0  0  0
    4.1452    0.2966    1.8406 C   0  0  0  0  0  0  0  0  0  0  0  0
    4.5895   -0.6155    0.9577 C   0  0  0  0  0  0  0  0  0  0  0  0
    3.9209   -1.9567   -1.0245 C   0  0  0  0  0  0  0  0  0  0  0  0
    1.8803    1.3818    1.8146 C   0  0  0  0  0  0  0  0  0  0  0  0
    2.0522    1.3981   -2.9254 C   0  0  0  0  0  0  0  0  0  0  0  0
    4.5111    1.8434   -2.6830 C   0  0  0  0  0  0  0  0  0  0  0  0
    4.4553    0.1748    3.3066 C   0  0  0  0  0  0  0  0  0  0  0  0
    0.4565   -3.1485   -0.1120 C   0  0  0  0  0  0  0  0  0  0  0  0
    1.5446   -2.6966   -1.0362 C   0  0  0  0  0  0  0  0  0  0  0  0
   -0.7975   -3.5082   -0.9132 C   0  0  0  0  0  0  0  0  0  0  0  0
    0.1562   -2.0404    0.9011 C   0  0  0  0  0  0  0  0  0  0  0  0
    1.0613    2.5755    1.3783 C   0  0  0  0  0  0  0  0  0  0  0  0
   -1.9640   -3.8511    0.0112 C   0  0  0  0  0  0  0  0  0  0  0  0
   -1.0287   -2.4131    1.7881 C   0  0  0  0  0  0  0  0  0  0  0  0
   -3.4125   -2.1248    1.1909 C   0  0  0  0  0  0  0  0  0  0  0  0
   -0.8904    3.1285   -0.0662 C   0  0  0  0  0  0  0  0  0  0  0  0
   -4.5761   -2.5816    0.3478 C   0  0  0  0  0  0  0  0  0  0  0  0
   -2.2220    2.4907   -0.3379 C   0  0  0  0  0  0  0  0  0  0  0  0
   -2.3754    1.6334   -1.4277 C   0  0  0  0  0  0  0  0  0  0  0  0
   -3.3060    2.7552    0.4993 C   0  0  0  0  0  0  0  0  0  0  0  0
   -3.6125    1.0404   -1.6800 C   0  0  0  0  0  0  0  0  0  0  0  0
   -4.5432    2.1623    0.2468 C   0  0  0  0  0  0  0  0  0  0  0  0
   -4.6964    1.3049   -0.8428 C   0  0  0  0  0  0  0  0  0  0  0  0
   -6.9686    1.0402   -0.1928 C   0  0  0  0  0  0  0  0  0  0  0  0
    2.2937    0.1217   -0.7289 H   0  0  0  0  0  0  0  0  0  0  0  0
    5.3064   -0.3347   -0.9958 H   0  0  0  0  0  0  0  0  0  0  0  0
    2.8194    2.5826   -0.4234 H   0  0  0  0  0  0  0  0  0  0  0  0
    4.5093    2.1716   -0.2331 H   0  0  0  0  0  0  0  0  0  0  0  0
    3.7696    2.3940    1.9193 H   0  0  0  0  0  0  0  0  0  0  0  0
    3.5908   -0.0546   -3.0142 H   0  0  0  0  0  0  0  0  0  0  0  0
    5.1943   -1.4452    1.3187 H   0  0  0  0  0  0  0  0  0  0  0  0
    4.6971   -2.6933   -0.7840 H   0  0  0  0  0  0  0  0  0  0  0  0
    3.7906   -1.9844   -2.1097 H   0  0  0  0  0  0  0  0  0  0  0  0
    1.7860    1.3258    2.9063 H   0  0  0  0  0  0  0  0  0  0  0  0
    1.4577    0.4509    1.4289 H   0  0  0  0  0  0  0  0  0  0  0  0
    2.1007    1.6047   -4.0002 H   0  0  0  0  0  0  0  0  0  0  0  0
    1.7740    2.3302   -2.4240 H   0  0  0  0  0  0  0  0  0  0  0  0
    1.2452    0.6745   -2.7663 H   0  0  0  0  0  0  0  0  0  0  0  0
    4.2780    2.8555   -2.3357 H   0  0  0  0  0  0  0  0  0  0  0  0
    4.6757    1.9308   -3.7642 H   0  0  0  0  0  0  0  0  0  0  0  0
    5.4640    1.5239   -2.2511 H   0  0  0  0  0  0  0  0  0  0  0  0
    4.9759    1.0705    3.6605 H   0  0  0  0  0  0  0  0  0  0  0  0
    5.0973   -0.6859    3.5224 H   0  0  0  0  0  0  0  0  0  0  0  0
    3.5361    0.0531    3.8873 H   0  0  0  0  0  0  0  0  0  0  0  0
    2.7864   -2.5767    0.6289 H   0  0  0  0  0  0  0  0  0  0  0  0
    0.8098   -4.0428    0.4182 H   0  0  0  0  0  0  0  0  0  0  0  0
   -0.5959   -4.3563   -1.5787 H   0  0  0  0  0  0  0  0  0  0  0  0
   -1.0926   -2.6648   -1.5523 H   0  0  0  0  0  0  0  0  0  0  0  0
   -0.0698   -1.1079    0.3685 H   0  0  0  0  0  0  0  0  0  0  0  0
    1.0181   -1.8424    1.5467 H   0  0  0  0  0  0  0  0  0  0  0  0
   -2.8509   -4.0592   -0.5897 H   0  0  0  0  0  0  0  0  0  0  0  0
   -1.7416   -4.7582    0.5857 H   0  0  0  0  0  0  0  0  0  0  0  0
   -0.7837   -3.2810    2.4118 H   0  0  0  0  0  0  0  0  0  0  0  0
   -1.2613   -1.5817    2.4610 H   0  0  0  0  0  0  0  0  0  0  0  0
    0.0013    1.2292    0.1961 H   0  0  0  0  0  0  0  0  0  0  0  0
   -0.4544    3.4991   -1.0015 H   0  0  0  0  0  0  0  0  0  0  0  0
   -0.9958    3.9965    0.5948 H   0  0  0  0  0  0  0  0  0  0  0  0
   -4.7764   -3.6424    0.5200 H   0  0  0  0  0  0  0  0  0  0  0  0
   -4.3716   -2.3950   -0.7097 H   0  0  0  0  0  0  0  0  0  0  0  0
   -5.4711   -2.0168    0.6269 H   0  0  0  0  0  0  0  0  0  0  0  0
   -1.5376    1.4189   -2.0860 H   0  0  0  0  0  0  0  0  0  0  0  0
   -3.1988    3.4195    1.3528 H   0  0  0  0  0  0  0  0  0  0  0  0
   -3.7254    0.3719   -2.5292 H   0  0  0  0  0  0  0  0  0  0  0  0
   -5.3421    2.4101    0.9373 H   0  0  0  0  0  0  0  0  0  0  0  0
   -7.8527    0.4940   -0.5378 H   0  0  0  0  0  0  0  0  0  0  0  0
   -7.2190    2.1060   -0.2229 H   0  0  0  0  0  0  0  0  0  0  0  0
   -6.7547    0.6920    0.8235 H   0  0  0  0  0  0  0  0  0  0  0  0
  1 21  2  0  0  0  0
  2 24  2  0  0  0  0
  3 27  2  0  0  0  0
  4 35  1  0  0  0  0
  4 36  1  0  0  0  0
  5 15  1  0  0  0  0
  5 21  1  0  0  0  0
  5 57  1  0  0  0  0
  6 25  1  0  0  0  0
  6 26  1  0  0  0  0
  6 27  1  0  0  0  0
  7 24  1  0  0  0  0
  7 28  1  0  0  0  0
  7 67  1  0  0  0  0
  8  9  1  0  0  0  0
  8 10  1  0  0  0  0
  8 12  1  0  0  0  0
  8 37  1  0  0  0  0
  9 14  1  0  0  0  0
  9 15  1  0  0  0  0
  9 38  1  0  0  0  0
 10 11  1  0  0  0  0
 10 39  1  0  0  0  0
 10 40  1  0  0  0  0
 11 13  1  0  0  0  0
 11 16  1  0  0  0  0
 11 41  1  0  0  0  0
 12 17  1  0  0  0  0
 12 18  1  0  0  0  0
 12 42  1  0  0  0  0
 13 14  2  0  0  0  0
 13 19  1  0  0  0  0
 14 43  1  0  0  0  0
 15 44  1  0  0  0  0
 15 45  1  0  0  0  0
 16 24  1  0  0  0  0
 16 46  1  0  0  0  0
 16 47  1  0  0  0  0
 17 48  1  0  0  0  0
 17 49  1  0  0  0  0
 17 50  1  0  0  0  0
 18 51  1  0  0  0  0
 18 52  1  0  0  0  0
 18 53  1  0  0  0  0
 19 54  1  0  0  0  0
 19 55  1  0  0  0  0
 19 56  1  0  0  0  0
 20 21  1  0  0  0  0
 20 22  1  0  0  0  0
 20 23  1  0  0  0  0
 20 58  1  0  0  0  0
 22 25  1  0  0  0  0
 22 59  1  0  0  0  0
 22 60  1  0  0  0  0
 23 26  1  0  0  0  0
 23 61  1  0  0  0  0
 23 62  1  0  0  0  0
 25 63  1  0  0  0  0
 25 64  1  0  0  0  0
 26 65  1  0  0  0  0
 26 66  1  0  0  0  0
 27 29  1  0  0  0  0
 28 30  1  0  0  0  0
 28 68  1  0  0  0  0
 28 69  1  0  0  0  0
 29 70  1  0  0  0  0
 29 71  1  0  0  0  0
 29 72  1  0  0  0  0
 30 31  2  0  0  0  0
 30 32  1  0  0  0  0
 31 33  1  0  0  0  0
 31 73  1  0  0  0  0
 32 34  2  0  0  0  0
 32 74  1  0  0  0  0
 33 35  2  0  0  0  0
 33 75  1  0  0  0  0
 34 35  1  0  0  0  0
 34 76  1  0  0  0  0
 36 77  1  0  0  0  0
 36 78  1  0  0  0  0
 36 79  1  0  0  0  0
M  END
> <PUBCHEM_COMPOUND_CID>
38027809

> <PUBCHEM_CONFORMER_RMSD>
1.2

> <PUBCHEM_CONFORMER_DIVERSEORDER>
1
87
17
98
18
2
64
76
95
39
66
37
75
38
29
22
72
104
92
10
46
115
51
30
3
99
96
111
90
79
53
52
107
114
89
112
35
11
4
54
74
44
85
68
108
50
55
48
91
110
88
118
28
34
59
7
31
102
9
77
36
82
63
78
67
103
20
16
101
81
109
113
57
65
32
61
93
60
117
94
21
80
71
56
33
6
106
83
19
73
116
97
13
24
47
43
26
86
62
42
58
5
84
40
100
27
8
105
12
70
15
23
45
41
49
25
14
69

> <PUBCHEM_MMFF94_PARTIAL_CHARGES>
36
1 -0.57
11 0.14
13 -0.28
14 -0.29
15 0.3
16 0.06
19 0.14
2 -0.57
20 0.06
21 0.57
24 0.57
25 0.3
26 0.3
27 0.57
28 0.44
29 0.06
3 -0.57
30 -0.14
31 -0.15
32 -0.15
33 -0.15
34 -0.15
35 0.08
36 0.28
4 -0.36
43 0.15
5 -0.73
57 0.37
6 -0.66
67 0.37
7 -0.73
73 0.15
74 0.15
75 0.15
76 0.15
9 0.14

> <PUBCHEM_EFFECTIVE_ROTOR_COUNT>
14

> <PUBCHEM_PHARMACOPHORE_FEATURES>
10
1 1 acceptor
1 2 acceptor
1 3 acceptor
1 4 acceptor
1 5 donor
1 7 donor
3 12 17 18 hydrophobe
6 30 31 32 33 34 35 rings
6 6 20 22 23 25 26 rings
6 8 9 10 11 13 14 rings

> <PUBCHEM_HEAVY_ATOM_COUNT>
36

> <PUBCHEM_ATOM_DEF_STEREO_COUNT>
3

> <PUBCHEM_ATOM_UDEF_STEREO_COUNT>
0

> <PUBCHEM_BOND_DEF_STEREO_COUNT>
0

> <PUBCHEM_BOND_UDEF_STEREO_COUNT>
0

> <PUBCHEM_ISOTOPIC_ATOM_COUNT>
0

> <PUBCHEM_COMPONENT_COUNT>
1

> <PUBCHEM_CACTVS_TAUTO_COUNT>
4

> <PUBCHEM_CONFORMER_ID>
0244422100000001

> <PUBCHEM_MMFF94_ENERGY>
79.9882

> <PUBCHEM_FEATURE_SELFOVERLAP>
50.747

> <PUBCHEM_SHAPE_FINGERPRINT>
10316853 100 18411975884637426309
10864689 126 18196931068283608495
11285246 1 16688254707655679247
12156800 1 18265336286652622492
12788726 201 18043258044153895458
13402501 40 18410852140582711323
13561361 72 18407758140457990387
13617811 41 18260264119524256709
13726171 33 18117862077062964340
144659 39 17676785222147440313
15001296 14 17603872255734900869
15406563 5 14634864254831881661
15968369 153 18201150049165854851
15968369 26 18268414768132516525
15975801 100 17387127572813159766
16067690 210 16950281836642979157
161222 619 17415546873226844816
17909252 39 17630326325004939838
20764821 26 18411140263936667957
238918 7 18272078405305771090
24941158 1 16988574467905472582
3052486 1 18261672666110175488
3298306 158 18411696574060716155
354706 132 17901686872586781988
463206 1 18197782102514566761
508706 21 18335700559447720499
66674814 147 17831312605587804126
86090 222 18340762663826622841

> <PUBCHEM_SHAPE_MULTIPOLES>
702.44
11.75
5.15
2.66
10.32
2.56
-0.11
-3.66
-0.53
2.79
0.13
-3.61
-0.77
1.19

> <PUBCHEM_SHAPE_SELFOVERLAP>
1447.512

> <PUBCHEM_SHAPE_VOLUME>
400.6

> <PUBCHEM_COORDINATE_TYPE>
2
5
10

$$$$
