26743734
  -OEChem-12032416213D

 46 49  0     1  0  0  0  0  0999 V2000
    7.1183    0.2201    1.5061 F   0  0  0  0  0  0  0  0  0  0  0  0
    5.4365   -1.0458    0.9190 F   0  0  0  0  0  0  0  0  0  0  0  0
    6.8182   -0.2439   -0.6082 F   0  0  0  0  0  0  0  0  0  0  0  0
   -5.6206    3.3554    0.9656 O   0  0  0  0  0  0  0  0  0  0  0  0
   -1.7497    0.1162   -2.1079 O   0  0  0  0  0  0  0  0  0  0  0  0
    5.3799    1.1906    0.4430 O   0  0  0  0  0  0  0  0  0  0  0  0
   -3.9108    0.2321    0.6611 N   0  0  1  0  0  0  0  0  0  0  0  0
   -0.9936    1.0205   -0.2035 N   0  0  0  0  0  0  0  0  0  0  0  0
   -0.3522    0.0509   -2.1738 N   0  0  0  0  0  0  0  0  0  0  0  0
   -0.7714   -3.6749    0.2536 N   0  0  0  0  0  0  0  0  0  0  0  0
   -3.5125    0.8877   -0.6011 C   0  0  1  0  0  0  0  0  0  0  0  0
   -3.8978    2.3671   -0.4150 C   0  0  0  0  0  0  0  0  0  0  0  0
   -4.5462    2.4356    0.9621 C   0  0  2  0  0  0  0  0  0  0  0  0
   -5.0203    1.0149    1.2020 C   0  0  0  0  0  0  0  0  0  0  0  0
   -4.2611   -1.1723    0.4932 C   0  0  0  0  0  0  0  0  0  0  0  0
   -2.0435    0.7005   -0.9169 C   0  0  0  0  0  0  0  0  0  0  0  0
   -3.0396   -2.0486    0.4093 C   0  0  0  0  0  0  0  0  0  0  0  0
    0.0206    0.6028   -1.0153 C   0  0  0  0  0  0  0  0  0  0  0  0
   -2.8241   -2.8403   -0.7132 C   0  0  0  0  0  0  0  0  0  0  0  0
   -2.1224   -2.0692    1.4542 C   0  0  0  0  0  0  0  0  0  0  0  0
    1.3967    0.7531   -0.6396 C   0  0  0  0  0  0  0  0  0  0  0  0
   -1.6849   -3.6285   -0.7420 C   0  0  0  0  0  0  0  0  0  0  0  0
   -1.0147   -2.8920    1.3287 C   0  0  0  0  0  0  0  0  0  0  0  0
    1.7268    1.3387    0.5826 C   0  0  0  0  0  0  0  0  0  0  0  0
    2.4052    0.3146   -1.4977 C   0  0  0  0  0  0  0  0  0  0  0  0
    3.0652    1.4860    0.9467 C   0  0  0  0  0  0  0  0  0  0  0  0
    3.7436    0.4619   -1.1339 C   0  0  0  0  0  0  0  0  0  0  0  0
    4.0736    1.0476    0.0884 C   0  0  0  0  0  0  0  0  0  0  0  0
    6.1807    0.0193    0.5523 C   0  0  0  0  0  0  0  0  0  0  0  0
   -4.1054    0.5018   -1.4424 H   0  0  0  0  0  0  0  0  0  0  0  0
   -3.0435    3.0518   -0.4672 H   0  0  0  0  0  0  0  0  0  0  0  0
   -4.6058    2.6750   -1.1948 H   0  0  0  0  0  0  0  0  0  0  0  0
   -3.8134    2.7349    1.7215 H   0  0  0  0  0  0  0  0  0  0  0  0
   -5.1813    0.8246    2.2683 H   0  0  0  0  0  0  0  0  0  0  0  0
   -5.9656    0.8243    0.6766 H   0  0  0  0  0  0  0  0  0  0  0  0
   -4.9262   -1.3256   -0.3668 H   0  0  0  0  0  0  0  0  0  0  0  0
   -4.8263   -1.5229    1.3683 H   0  0  0  0  0  0  0  0  0  0  0  0
   -5.2594    4.2273    0.7317 H   0  0  0  0  0  0  0  0  0  0  0  0
   -3.5165   -2.8480   -1.5479 H   0  0  0  0  0  0  0  0  0  0  0  0
   -2.2588   -1.4687    2.3471 H   0  0  0  0  0  0  0  0  0  0  0  0
   -1.4700   -4.2631   -1.5955 H   0  0  0  0  0  0  0  0  0  0  0  0
   -0.2697   -2.9442    2.1156 H   0  0  0  0  0  0  0  0  0  0  0  0
    0.9640    1.6900    1.2729 H   0  0  0  0  0  0  0  0  0  0  0  0
    2.1865   -0.1450   -2.4583 H   0  0  0  0  0  0  0  0  0  0  0  0
    3.3166    1.9425    1.9002 H   0  0  0  0  0  0  0  0  0  0  0  0
    4.5195    0.1224   -1.8146 H   0  0  0  0  0  0  0  0  0  0  0  0
  1 29  1  0  0  0  0
  2 29  1  0  0  0  0
  3 29  1  0  0  0  0
  4 13  1  0  0  0  0
  4 38  1  0  0  0  0
  5  9  1  0  0  0  0
  5 16  1  0  0  0  0
  6 28  1  0  0  0  0
  6 29  1  0  0  0  0
  7 11  1  0  0  0  0
  7 14  1  0  0  0  0
  7 15  1  0  0  0  0
  8 16  2  0  0  0  0
  8 18  1  0  0  0  0
  9 18  2  0  0  0  0
 10 22  2  0  0  0  0
 10 23  1  0  0  0  0
 11 12  1  0  0  0  0
 11 16  1  0  0  0  0
 11 30  1  0  0  0  0
 12 13  1  0  0  0  0
 12 31  1  0  0  0  0
 12 32  1  0  0  0  0
 13 14  1  0  0  0  0
 13 33  1  0  0  0  0
 14 34  1  0  0  0  0
 14 35  1  0  0  0  0
 15 17  1  0  0  0  0
 15 36  1  0  0  0  0
 15 37  1  0  0  0  0
 17 19  2  0  0  0  0
 17 20  1  0  0  0  0
 18 21  1  0  0  0  0
 19 22  1  0  0  0  0
 19 39  1  0  0  0  0
 20 23  2  0  0  0  0
 20 40  1  0  0  0  0
 21 24  2  0  0  0  0
 21 25  1  0  0  0  0
 22 41  1  0  0  0  0
 23 42  1  0  0  0  0
 24 26  1  0  0  0  0
 24 43  1  0  0  0  0
 25 27  2  0  0  0  0
 25 44  1  0  0  0  0
 26 28  2  0  0  0  0
 26 45  1  0  0  0  0
 27 28  1  0  0  0  0
 27 46  1  0  0  0  0
M  END
> <PUBCHEM_COMPOUND_CID>
26743734

> <PUBCHEM_CONFORMER_RMSD>
0.8

> <PUBCHEM_CONFORMER_DIVERSEORDER>
1
54
125
103
95
97
129
138
32
81
63
134
145
48
120
11
123
3
139
62
75
88
21
79
23
124
105
49
51
13
83
55
127
140
113
4
20
6
85
146
60
93
58
136
66
2
43
96
131
109
34
71
29
141
15
9
89
53
143
45
87
110
101
122
40
77
36
8
47
24
42
17
137
112
121
38
118
90
119
128
106
70
116
86
33
14
144
27
16
100
12
108
52
50
94
82
31
84
102
67
25
115
64
35
68
22
18
107
99
30
117
76
41
61
142
91
26
126
56
73
135
37
7
19
114
98
133
65
10
57
46
80
5
111
69
132
59
28
92
72
39
130
78
74
104
44

> <PUBCHEM_MMFF94_PARTIAL_CHARGES>
37
1 -0.34
10 -0.62
11 0.45
13 0.28
14 0.27
15 0.41
16 0.3
17 -0.14
18 0.46
19 -0.15
2 -0.34
20 -0.15
21 0.05
22 0.16
23 0.16
24 -0.15
25 -0.15
26 -0.15
27 -0.15
28 0.08
29 1.3
3 -0.34
38 0.4
39 0.15
4 -0.68
40 0.15
41 0.15
42 0.15
43 0.15
44 0.15
45 0.15
46 0.15
5 -0.02
6 -0.36
7 -0.81
8 -0.57
9 -0.41

> <PUBCHEM_EFFECTIVE_ROTOR_COUNT>
7

> <PUBCHEM_PHARMACOPHORE_FEATURES>
10
1 10 acceptor
1 4 acceptor
1 4 donor
1 6 acceptor
1 7 cation
3 8 9 18 cation
5 5 8 9 16 18 rings
5 7 11 12 13 14 rings
6 10 17 19 20 22 23 rings
6 21 24 25 26 27 28 rings

> <PUBCHEM_HEAVY_ATOM_COUNT>
29

> <PUBCHEM_ATOM_DEF_STEREO_COUNT>
2

> <PUBCHEM_ATOM_UDEF_STEREO_COUNT>
0

> <PUBCHEM_BOND_DEF_STEREO_COUNT>
0

> <PUBCHEM_BOND_UDEF_STEREO_COUNT>
0

> <PUBCHEM_ISOTOPIC_ATOM_COUNT>
0

> <PUBCHEM_COMPONENT_COUNT>
1

> <PUBCHEM_CACTVS_TAUTO_COUNT>
1

> <PUBCHEM_CONFORMER_ID>
019813B600000001

> <PUBCHEM_MMFF94_ENERGY>
70.3706

> <PUBCHEM_FEATURE_SELFOVERLAP>
50.747

> <PUBCHEM_SHAPE_FINGERPRINT>
10319926 262 18342746229910581924
11370993 144 18411981394864208716
11405975 8 18338516443196930496
11524674 6 18341891883247722342
11552529 35 18122340447951490366
12293681 4 18201725054475791880
12422481 6 17749953254310048754
12522641 33 17460854235015360917
12616971 3 16877662383673543564
12633257 1 18336552702228186061
12788726 201 17975995455280347711
13004483 165 17696191783468082887
131258 38 16526962421087689739
13583140 156 17560522918518704278
14840074 17 16950562190274496938
15021287 119 17095241432442880268
15348495 7 18200869686543729664
15537594 2 17240757372599239504
15799311 1 18114194042506830166
16994733 274 16414649147030250953
19438510 23 17487914310938057089
20554085 129 18199175210281693233
21033648 29 17632306656926154141
21403212 168 18188207607664313377
23516275 137 17971775293493683394
23522609 53 17824005436088677436
23728640 28 18262809604552837619
3383291 50 18263084469517312467
338550 245 18041001748026636822
3411729 13 18045508509024088201
4073 2 18341047506548290648
484985 159 18189041153063158927
508706 21 18340496663448995862
5265222 85 18264787604590874206
5364581 5 18054499481597531776
5385378 56 18121792634322988265
5924683 9 18269833288635395143
59755656 520 18411411800812840605
602551 16 18335707199324313172
7226269 152 18131633348494455000
9981440 41 17346323669951587693

> <PUBCHEM_SHAPE_MULTIPOLES>
537.45
13.98
3.66
1.57
23.06
2.83
0.36
-5.98
-5.48
-6.19
-0.75
0.04
0.06
-0.61

> <PUBCHEM_SHAPE_SELFOVERLAP>
1172.91

> <PUBCHEM_SHAPE_VOLUME>
294.3

> <PUBCHEM_COORDINATE_TYPE>
2
5
10

$$$$
