11867040
  -OEChem-12032416123D

 63 66  0     1  0  0  0  0  0999 V2000
    0.4533    3.0563   -0.2186 S   0  0  0  0  0  0  0  0  0  0  0  0
   -6.1751   -1.0797   -0.9825 O   0  0  0  0  0  0  0  0  0  0  0  0
   -6.4506    1.1692   -0.2009 O   0  0  0  0  0  0  0  0  0  0  0  0
    2.3951   -1.3323    2.2297 O   0  0  0  0  0  0  0  0  0  0  0  0
    4.3470    0.7948    1.0093 O   0  0  0  0  0  0  0  0  0  0  0  0
    4.8379   -1.7706   -1.0822 O   0  0  0  0  0  0  0  0  0  0  0  0
    1.4084    0.7786    0.5511 N   0  0  0  0  0  0  0  0  0  0  0  0
    1.6565   -2.5067    0.3651 N   0  0  0  0  0  0  0  0  0  0  0  0
    2.9794    2.5904    0.3083 N   0  0  0  0  0  0  0  0  0  0  0  0
   -2.2147   -0.5252    0.7541 C   0  0  2  0  0  0  0  0  0  0  0  0
   -2.7055    0.4230   -0.4272 C   0  0  1  0  0  0  0  0  0  0  0  0
   -4.2492    0.4223   -0.7514 C   0  0  1  0  0  0  0  0  0  0  0  0
   -0.6324   -0.7027    0.6188 C   0  0  1  0  0  0  0  0  0  0  0  0
   -2.8773   -1.9194    0.6055 C   0  0  0  0  0  0  0  0  0  0  0  0
   -4.7577   -1.0456   -0.8190 C   0  0  1  0  0  0  0  0  0  0  0  0
   -2.0911    1.8479   -0.3054 C   0  0  0  0  0  0  0  0  0  0  0  0
   -4.3860   -1.8677    0.4101 C   0  0  0  0  0  0  0  0  0  0  0  0
   -2.5516    0.0381    2.1567 C   0  0  0  0  0  0  0  0  0  0  0  0
    0.0440    0.6243    0.3884 C   0  0  0  0  0  0  0  0  0  0  0  0
   -5.1086    1.2585    0.2223 C   0  0  0  0  0  0  0  0  0  0  0  0
   -4.4729    1.0542   -2.1545 C   0  0  0  0  0  0  0  0  0  0  0  0
   -0.6261    1.7508   -0.0436 C   0  0  0  0  0  0  0  0  0  0  0  0
    0.0237   -1.4751    1.7712 C   0  0  0  0  0  0  0  0  0  0  0  0
    1.4880   -1.7441    1.5116 C   0  0  0  0  0  0  0  0  0  0  0  0
    1.7345    2.0207    0.2664 C   0  0  0  0  0  0  0  0  0  0  0  0
    2.9519   -2.9143   -0.1288 C   0  0  0  0  0  0  0  0  0  0  0  0
    4.1828    1.9613    0.6678 C   0  0  0  0  0  0  0  0  0  0  0  0
    3.4952   -1.8588   -1.0429 C   0  0  0  0  0  0  0  0  0  0  0  0
    5.3535    2.9101    0.5923 C   0  0  0  0  0  0  0  0  0  0  0  0
    2.8905   -0.9565   -1.8544 C   0  0  0  0  0  0  0  0  0  0  0  0
    3.9465   -0.2344   -2.4597 C   0  0  0  0  0  0  0  0  0  0  0  0
    5.1108   -0.7675   -1.9576 C   0  0  0  0  0  0  0  0  0  0  0  0
   -2.2436   -0.0167   -1.3284 H   0  0  0  0  0  0  0  0  0  0  0  0
   -0.4735   -1.2572   -0.3166 H   0  0  0  0  0  0  0  0  0  0  0  0
   -2.4398   -2.4438   -0.2544 H   0  0  0  0  0  0  0  0  0  0  0  0
   -2.6651   -2.5424    1.4824 H   0  0  0  0  0  0  0  0  0  0  0  0
   -4.3246   -1.5431   -1.6974 H   0  0  0  0  0  0  0  0  0  0  0  0
   -2.5619    2.4077    0.5096 H   0  0  0  0  0  0  0  0  0  0  0  0
   -2.2547    2.4103   -1.2306 H   0  0  0  0  0  0  0  0  0  0  0  0
   -4.7712   -2.8883    0.2890 H   0  0  0  0  0  0  0  0  0  0  0  0
   -4.8888   -1.4803    1.3031 H   0  0  0  0  0  0  0  0  0  0  0  0
   -2.0687    1.0001    2.3501 H   0  0  0  0  0  0  0  0  0  0  0  0
   -3.6189    0.1666    2.3195 H   0  0  0  0  0  0  0  0  0  0  0  0
   -2.2275   -0.6484    2.9467 H   0  0  0  0  0  0  0  0  0  0  0  0
   -5.0846    0.8809    1.2406 H   0  0  0  0  0  0  0  0  0  0  0  0
   -4.8163    2.3130    0.2471 H   0  0  0  0  0  0  0  0  0  0  0  0
   -5.4979    0.9458   -2.5223 H   0  0  0  0  0  0  0  0  0  0  0  0
   -3.8228    0.5833   -2.9012 H   0  0  0  0  0  0  0  0  0  0  0  0
   -4.2502    2.1265   -2.1546 H   0  0  0  0  0  0  0  0  0  0  0  0
   -0.0308   -0.9086    2.7082 H   0  0  0  0  0  0  0  0  0  0  0  0
   -0.4655   -2.4403    1.9384 H   0  0  0  0  0  0  0  0  0  0  0  0
   -6.3770   -0.8522   -1.9051 H   0  0  0  0  0  0  0  0  0  0  0  0
   -6.6076    1.8703   -0.8558 H   0  0  0  0  0  0  0  0  0  0  0  0
    0.8433   -2.8467   -0.1387 H   0  0  0  0  0  0  0  0  0  0  0  0
    3.0122    3.5724    0.0461 H   0  0  0  0  0  0  0  0  0  0  0  0
    3.6274   -3.0799    0.7169 H   0  0  0  0  0  0  0  0  0  0  0  0
    2.8248   -3.8543   -0.6740 H   0  0  0  0  0  0  0  0  0  0  0  0
    5.1748    3.7731    1.2399 H   0  0  0  0  0  0  0  0  0  0  0  0
    6.2643    2.4024    0.9214 H   0  0  0  0  0  0  0  0  0  0  0  0
    5.4868    3.2479   -0.4392 H   0  0  0  0  0  0  0  0  0  0  0  0
    1.8306   -0.8191   -2.0127 H   0  0  0  0  0  0  0  0  0  0  0  0
    3.8686    0.5737   -3.1725 H   0  0  0  0  0  0  0  0  0  0  0  0
    6.1584   -0.5550   -2.1130 H   0  0  0  0  0  0  0  0  0  0  0  0
  1 22  1  0  0  0  0
  1 25  1  0  0  0  0
  2 15  1  0  0  0  0
  2 52  1  0  0  0  0
  3 20  1  0  0  0  0
  3 53  1  0  0  0  0
  4 24  2  0  0  0  0
  5 27  2  0  0  0  0
  6 28  1  0  0  0  0
  6 32  1  0  0  0  0
  7 19  1  0  0  0  0
  7 25  2  0  0  0  0
  8 24  1  0  0  0  0
  8 26  1  0  0  0  0
  8 54  1  0  0  0  0
  9 25  1  0  0  0  0
  9 27  1  0  0  0  0
  9 55  1  0  0  0  0
 10 11  1  0  0  0  0
 10 13  1  0  0  0  0
 10 14  1  0  0  0  0
 10 18  1  0  0  0  0
 11 12  1  0  0  0  0
 11 16  1  0  0  0  0
 11 33  1  0  0  0  0
 12 15  1  0  0  0  0
 12 20  1  0  0  0  0
 12 21  1  0  0  0  0
 13 19  1  0  0  0  0
 13 23  1  0  0  0  0
 13 34  1  0  0  0  0
 14 17  1  0  0  0  0
 14 35  1  0  0  0  0
 14 36  1  0  0  0  0
 15 17  1  0  0  0  0
 15 37  1  0  0  0  0
 16 22  1  0  0  0  0
 16 38  1  0  0  0  0
 16 39  1  0  0  0  0
 17 40  1  0  0  0  0
 17 41  1  0  0  0  0
 18 42  1  0  0  0  0
 18 43  1  0  0  0  0
 18 44  1  0  0  0  0
 19 22  2  0  0  0  0
 20 45  1  0  0  0  0
 20 46  1  0  0  0  0
 21 47  1  0  0  0  0
 21 48  1  0  0  0  0
 21 49  1  0  0  0  0
 23 24  1  0  0  0  0
 23 50  1  0  0  0  0
 23 51  1  0  0  0  0
 26 28  1  0  0  0  0
 26 56  1  0  0  0  0
 26 57  1  0  0  0  0
 27 29  1  0  0  0  0
 28 30  2  0  0  0  0
 29 58  1  0  0  0  0
 29 59  1  0  0  0  0
 29 60  1  0  0  0  0
 30 31  1  0  0  0  0
 30 61  1  0  0  0  0
 31 32  2  0  0  0  0
 31 62  1  0  0  0  0
 32 63  1  0  0  0  0
M  END
> <PUBCHEM_COMPOUND_CID>
11867040

> <PUBCHEM_CONFORMER_RMSD>
1

> <PUBCHEM_CONFORMER_DIVERSEORDER>
1
26
8
6
28
21
18
30
32
22
13
14
5
17
3
25
20
16
29
12
33
2
23
27
24
19
9
31
4
11
7
15
10

> <PUBCHEM_MMFF94_PARTIAL_CHARGES>
32
1 -0.08
13 0.18
15 0.28
16 0.18
19 0.05
2 -0.68
20 0.28
22 -0.14
23 0.06
24 0.57
25 0.44
26 0.48
27 0.57
28 -0.04
29 0.06
3 -0.68
30 -0.15
31 -0.15
32 -0.01
4 -0.57
5 -0.57
52 0.4
53 0.4
54 0.37
55 0.37
6 -0.28
61 0.15
62 0.15
63 0.15
7 -0.57
8 -0.73
9 -0.49

> <PUBCHEM_EFFECTIVE_ROTOR_COUNT>
9.2

> <PUBCHEM_PHARMACOPHORE_FEATURES>
13
1 2 acceptor
1 2 donor
1 3 acceptor
1 3 donor
1 4 acceptor
1 5 acceptor
1 6 acceptor
1 8 donor
1 9 donor
5 1 7 19 22 25 rings
5 6 28 30 31 32 rings
6 10 11 12 14 15 17 rings
6 10 11 13 16 19 22 rings

> <PUBCHEM_HEAVY_ATOM_COUNT>
32

> <PUBCHEM_ATOM_DEF_STEREO_COUNT>
5

> <PUBCHEM_ATOM_UDEF_STEREO_COUNT>
0

> <PUBCHEM_BOND_DEF_STEREO_COUNT>
0

> <PUBCHEM_BOND_UDEF_STEREO_COUNT>
0

> <PUBCHEM_ISOTOPIC_ATOM_COUNT>
0

> <PUBCHEM_COMPONENT_COUNT>
1

> <PUBCHEM_CACTVS_TAUTO_COUNT>
6

> <PUBCHEM_CONFORMER_ID>
00B513A000000001

> <PUBCHEM_MMFF94_ENERGY>
86.3514

> <PUBCHEM_FEATURE_SELFOVERLAP>
66.119

> <PUBCHEM_SHAPE_FINGERPRINT>
10906281 52 18263373653865224008
11578080 2 16590241153036524807
12156800 1 13626306285994568430
12553582 1 18265329517551704275
12788726 201 18121220874895621113
13402501 40 18337672031336264880
13533116 47 17632299003193848505
13617811 41 17458345230684448581
13636023 20 18271796973426166563
13944108 23 16456551315826992213
14931854 50 18117293475375024886
15475509 8 17912941482742138173
15721738 202 16486982769736077260
17492 54 18339381716040651670
17909252 39 18342745074580475994
18608769 82 17677632985121658619
19319366 153 17604150311902300571
20642791 35 18337110060329269617
20645477 70 18342172288972585900
20691752 17 18187094923008090816
20775438 99 18341319097898944790
21033650 10 17531249417946490597
22182313 1 18191038986896139058
22393880 68 18334858329092818063
23559900 14 18411138047649524044
3298306 158 18196378237305051252
3886686 26 11736040223407148468
4093350 32 17632581535001435293
460360 51 18041283179541770729
508706 21 17968664933463536379
513532 50 18342453751486244858
59755656 215 18341050817509386804
6669772 16 18340483482600019670
6823239 73 18341890775319934378

> <PUBCHEM_SHAPE_MULTIPOLES>
618.1
12.67
3.3
1.91
6.35
0.7
0.35
0.71
4.96
-3.17
-0.43
-1.07
-0.62
1.78

> <PUBCHEM_SHAPE_SELFOVERLAP>
1307.929

> <PUBCHEM_SHAPE_VOLUME>
350

> <PUBCHEM_COORDINATE_TYPE>
2
5
10

$$$$
