11865832
  -OEChem-12032416123D

 63 65  0     1  0  0  0  0  0999 V2000
   -5.8853   -3.0103   -1.3811 S   0  0  0  0  0  0  0  0  0  0  0  0
    6.6061    1.4812   -0.2505 F   0  0  0  0  0  0  0  0  0  0  0  0
    8.2197   -2.8184   -1.3864 F   0  0  0  0  0  0  0  0  0  0  0  0
   -2.4362    1.1642    1.5119 O   0  0  0  0  0  0  0  0  0  0  0  0
   -1.1055    4.7979   -0.3682 O   0  0  0  0  0  0  0  0  0  0  0  0
    2.3800   -1.0936    0.8425 O   0  0  0  0  0  0  0  0  0  0  0  0
   -1.2601   -3.2883   -0.2601 O   0  0  0  0  0  0  0  0  0  0  0  0
   -0.5075    2.7748    0.5828 N   0  0  0  0  0  0  0  0  0  0  0  0
    2.0972    1.1649    1.2465 N   0  0  0  0  0  0  0  0  0  0  0  0
   -1.6214   -0.6108    0.2452 N   0  0  0  0  0  0  0  0  0  0  0  0
    4.1225    0.4306    0.4535 N   0  0  0  0  0  0  0  0  0  0  0  0
   -2.9264   -3.7320    1.2575 N   0  0  0  0  0  0  0  0  0  0  0  0
    0.7299    1.0837    1.7034 C   0  0  2  0  0  0  0  0  0  0  0  0
   -0.2539    1.3315    0.5562 C   0  0  1  0  0  0  0  0  0  0  0  0
    0.4138    2.2082    2.6909 C   0  0  0  0  0  0  0  0  0  0  0  0
    0.0389    3.3779    1.7927 C   0  0  0  0  0  0  0  0  0  0  0  0
   -1.5590    0.6434    0.8278 C   0  0  0  0  0  0  0  0  0  0  0  0
   -1.0453    3.5689   -0.4151 C   0  0  0  0  0  0  0  0  0  0  0  0
   -2.7628   -1.4872    0.3758 C   0  0  1  0  0  0  0  0  0  0  0  0
    2.8356    0.0474    0.8417 C   0  0  0  0  0  0  0  0  0  0  0  0
   -1.5803    2.8833   -1.6077 C   0  0  0  0  0  0  0  0  0  0  0  0
   -3.7704   -1.3048   -0.7659 C   0  0  0  0  0  0  0  0  0  0  0  0
   -2.2317   -2.9133    0.3920 C   0  0  0  0  0  0  0  0  0  0  0  0
   -2.8544    2.9580   -2.0284 C   0  0  0  0  0  0  0  0  0  0  0  0
   -5.1459   -1.8138   -0.4044 C   0  0  0  0  0  0  0  0  0  0  0  0
    5.1693   -0.3958   -0.0172 C   0  0  0  0  0  0  0  0  0  0  0  0
   -3.4356    2.2757   -3.2357 C   0  0  0  0  0  0  0  0  0  0  0  0
   -3.8478    3.7905   -1.2593 C   0  0  0  0  0  0  0  0  0  0  0  0
   -5.9470   -1.4420    0.6528 C   0  0  0  0  0  0  0  0  0  0  0  0
    6.4012    0.1610   -0.3609 C   0  0  0  0  0  0  0  0  0  0  0  0
    4.9678   -1.7709   -0.1365 C   0  0  0  0  0  0  0  0  0  0  0  0
   -7.1840   -2.1490    0.6611 C   0  0  0  0  0  0  0  0  0  0  0  0
   -7.2813   -3.0339   -0.3899 C   0  0  0  0  0  0  0  0  0  0  0  0
    7.4316   -0.6573   -0.8238 C   0  0  0  0  0  0  0  0  0  0  0  0
    5.9981   -2.5891   -0.5996 C   0  0  0  0  0  0  0  0  0  0  0  0
    7.2301   -2.0324   -0.9433 C   0  0  0  0  0  0  0  0  0  0  0  0
    0.5844    0.1046    2.1741 H   0  0  0  0  0  0  0  0  0  0  0  0
    0.1418    1.0426   -0.4233 H   0  0  0  0  0  0  0  0  0  0  0  0
    1.2406    2.4526    3.3649 H   0  0  0  0  0  0  0  0  0  0  0  0
   -0.4504    1.9287    3.3057 H   0  0  0  0  0  0  0  0  0  0  0  0
   -0.6946    4.0492    2.2500 H   0  0  0  0  0  0  0  0  0  0  0  0
    0.9190    3.9654    1.5078 H   0  0  0  0  0  0  0  0  0  0  0  0
    2.5236    2.0817    1.1527 H   0  0  0  0  0  0  0  0  0  0  0  0
   -0.8361   -0.9329   -0.3140 H   0  0  0  0  0  0  0  0  0  0  0  0
   -3.2249   -1.2645    1.3452 H   0  0  0  0  0  0  0  0  0  0  0  0
   -0.8749    2.2631   -2.1535 H   0  0  0  0  0  0  0  0  0  0  0  0
   -3.3977   -1.7801   -1.6825 H   0  0  0  0  0  0  0  0  0  0  0  0
   -3.8730   -0.2362   -0.9983 H   0  0  0  0  0  0  0  0  0  0  0  0
    4.3442    1.4213    0.5141 H   0  0  0  0  0  0  0  0  0  0  0  0
   -4.2376    1.5913   -2.9413 H   0  0  0  0  0  0  0  0  0  0  0  0
   -3.8415    3.0147   -3.9338 H   0  0  0  0  0  0  0  0  0  0  0  0
   -2.6762    1.6927   -3.7669 H   0  0  0  0  0  0  0  0  0  0  0  0
   -4.7803    3.2292   -1.1286 H   0  0  0  0  0  0  0  0  0  0  0  0
   -3.5240    4.0698   -0.2535 H   0  0  0  0  0  0  0  0  0  0  0  0
   -4.0787    4.7059   -1.8139 H   0  0  0  0  0  0  0  0  0  0  0  0
   -2.6653   -4.7054    1.3744 H   0  0  0  0  0  0  0  0  0  0  0  0
   -3.7212   -3.4075    1.7988 H   0  0  0  0  0  0  0  0  0  0  0  0
   -5.6671   -0.6964    1.3861 H   0  0  0  0  0  0  0  0  0  0  0  0
    4.0446   -2.2763    0.1086 H   0  0  0  0  0  0  0  0  0  0  0  0
   -7.9632   -2.0144    1.4000 H   0  0  0  0  0  0  0  0  0  0  0  0
   -8.1056   -3.6930   -0.6233 H   0  0  0  0  0  0  0  0  0  0  0  0
    8.3908   -0.2240   -1.0911 H   0  0  0  0  0  0  0  0  0  0  0  0
    5.8430   -3.6601   -0.6929 H   0  0  0  0  0  0  0  0  0  0  0  0
  1 25  1  0  0  0  0
  1 33  1  0  0  0  0
  2 30  1  0  0  0  0
  3 36  1  0  0  0  0
  4 17  2  0  0  0  0
  5 18  2  0  0  0  0
  6 20  2  0  0  0  0
  7 23  2  0  0  0  0
  8 14  1  0  0  0  0
  8 16  1  0  0  0  0
  8 18  1  0  0  0  0
  9 13  1  0  0  0  0
  9 20  1  0  0  0  0
  9 43  1  0  0  0  0
 10 17  1  0  0  0  0
 10 19  1  0  0  0  0
 10 44  1  0  0  0  0
 11 20  1  0  0  0  0
 11 26  1  0  0  0  0
 11 49  1  0  0  0  0
 12 23  1  0  0  0  0
 12 56  1  0  0  0  0
 12 57  1  0  0  0  0
 13 14  1  0  0  0  0
 13 15  1  0  0  0  0
 13 37  1  0  0  0  0
 14 17  1  0  0  0  0
 14 38  1  0  0  0  0
 15 16  1  0  0  0  0
 15 39  1  0  0  0  0
 15 40  1  0  0  0  0
 16 41  1  0  0  0  0
 16 42  1  0  0  0  0
 18 21  1  0  0  0  0
 19 22  1  0  0  0  0
 19 23  1  0  0  0  0
 19 45  1  0  0  0  0
 21 24  2  0  0  0  0
 21 46  1  0  0  0  0
 22 25  1  0  0  0  0
 22 47  1  0  0  0  0
 22 48  1  0  0  0  0
 24 27  1  0  0  0  0
 24 28  1  0  0  0  0
 25 29  2  0  0  0  0
 26 30  2  0  0  0  0
 26 31  1  0  0  0  0
 27 50  1  0  0  0  0
 27 51  1  0  0  0  0
 27 52  1  0  0  0  0
 28 53  1  0  0  0  0
 28 54  1  0  0  0  0
 28 55  1  0  0  0  0
 29 32  1  0  0  0  0
 29 58  1  0  0  0  0
 30 34  1  0  0  0  0
 31 35  2  0  0  0  0
 31 59  1  0  0  0  0
 32 33  2  0  0  0  0
 32 60  1  0  0  0  0
 33 61  1  0  0  0  0
 34 36  2  0  0  0  0
 34 62  1  0  0  0  0
 35 36  1  0  0  0  0
 35 63  1  0  0  0  0
M  END
> <PUBCHEM_COMPOUND_CID>
11865832

> <PUBCHEM_CONFORMER_RMSD>
1.2

> <PUBCHEM_CONFORMER_DIVERSEORDER>
1
22
42
98
33
69
32
85
105
75
10
8
58
31
18
99
92
27
77
104
110
80
35
17
73
41
76
57
47
106
38
49
19
68
25
88
109
63
112
56
48
12
46
95
61
111
11
28
79
20
24
66
108
74
45
16
53
103
29
34
65
89
81
82
70
71
44
55
84
93
6
107
72
67
50
90
59
39
60
86
7
9
94
40
43
21
37
13
26
2
54
62
51
100
23
83
91
52
30
3
36
15
5
14
64
4
96
101
87
97
78
113
102

> <PUBCHEM_MMFF94_PARTIAL_CHARGES>
47
1 -0.08
10 -0.73
11 -0.55
12 -0.8
13 0.3
14 0.36
16 0.3
17 0.57
18 0.62
19 0.36
2 -0.19
20 0.69
21 -0.14
22 0.18
23 0.57
24 -0.28
25 -0.14
26 0.12
27 0.14
28 0.14
29 -0.15
3 -0.19
30 0.19
31 -0.15
32 -0.15
33 -0.11
34 -0.15
35 -0.15
36 0.19
4 -0.57
43 0.37
44 0.37
46 0.15
49 0.37
5 -0.57
56 0.37
57 0.37
58 0.15
59 0.15
6 -0.57
60 0.15
61 0.15
62 0.15
63 0.15
7 -0.57
8 -0.66
9 -0.73

> <PUBCHEM_EFFECTIVE_ROTOR_COUNT>
13

> <PUBCHEM_PHARMACOPHORE_FEATURES>
12
1 10 donor
1 11 donor
1 12 donor
1 4 acceptor
1 5 acceptor
1 6 acceptor
1 7 acceptor
1 9 donor
3 24 27 28 hydrophobe
5 1 25 29 32 33 rings
5 8 13 14 15 16 rings
6 26 30 31 34 35 36 rings

> <PUBCHEM_HEAVY_ATOM_COUNT>
36

> <PUBCHEM_ATOM_DEF_STEREO_COUNT>
3

> <PUBCHEM_ATOM_UDEF_STEREO_COUNT>
0

> <PUBCHEM_BOND_DEF_STEREO_COUNT>
0

> <PUBCHEM_BOND_UDEF_STEREO_COUNT>
0

> <PUBCHEM_ISOTOPIC_ATOM_COUNT>
0

> <PUBCHEM_COMPONENT_COUNT>
1

> <PUBCHEM_CACTVS_TAUTO_COUNT>
12

> <PUBCHEM_CONFORMER_ID>
00B50EE800000001

> <PUBCHEM_MMFF94_ENERGY>
82.5032

> <PUBCHEM_FEATURE_SELFOVERLAP>
60.95

> <PUBCHEM_SHAPE_FINGERPRINT>
12788726 201 18040423395935045979
13248334 5 17698438059484704448
13673619 4 18411696629963745929
13690498 29 18410289203160842023
15198563 99 18259979358480417861
15264996 44 17172350342366509359
15276724 80 18409732906344020212
15448158 6 18200870781138319695
16067689 391 17629187222384863494
16628084 112 18338515227236623146
16994733 274 14273718665098232183
21049683 271 18336830913193191187
21365058 113 17968939829199047093
22899556 56 16056056640787149955
23559900 14 18049718818019276123
255183 451 18048031063455229047
437815 12 18343020038386707771
44880168 125 17989197174819813239
6086070 43 18042120969908031352

> <PUBCHEM_SHAPE_MULTIPOLES>
681.78
19.49
5.91
2
25.92
3.33
-0.37
-24.16
-8.01
-6.41
-1.39
-1.24
1.86
3.5

> <PUBCHEM_SHAPE_SELFOVERLAP>
1426.277

> <PUBCHEM_SHAPE_VOLUME>
387.4

> <PUBCHEM_COORDINATE_TYPE>
2
5
10

$$$$
