7155478
  -OEChem-12032416213D

 61 66  0     1  0  0  0  0  0999 V2000
    0.4867    2.9928    1.0365 O   0  0  0  0  0  0  0  0  0  0  0  0
   -3.6071    0.3418    2.7632 O   0  0  0  0  0  0  0  0  0  0  0  0
    2.3227   -0.8807   -1.2286 O   0  0  0  0  0  0  0  0  0  0  0  0
   -4.1174    1.1169    0.6154 N   0  0  0  0  0  0  0  0  0  0  0  0
   -1.4093    2.5257   -0.2465 N   0  0  0  0  0  0  0  0  0  0  0  0
    2.0753    1.2847   -0.4160 N   0  0  0  0  0  0  0  0  0  0  0  0
    9.3593    0.1508    1.1741 N   0  0  0  0  0  0  0  0  0  0  0  0
   -3.7056    3.5447    0.2547 C   0  0  1  0  0  0  0  0  0  0  0  0
   -3.4474    1.9688   -1.6190 C   0  0  2  0  0  0  0  0  0  0  0  0
   -3.9566    3.3580   -1.2378 C   0  0  0  0  0  0  0  0  0  0  0  0
   -4.4521    2.4684    1.0636 C   0  0  0  0  0  0  0  0  0  0  0  0
   -2.1934    3.5129    0.5092 C   0  0  0  0  0  0  0  0  0  0  0  0
   -4.2326    0.8978   -0.8356 C   0  0  0  0  0  0  0  0  0  0  0  0
   -1.9652    1.8318   -1.3263 C   0  0  0  0  0  0  0  0  0  0  0  0
   -1.1995    1.0208   -2.0754 C   0  0  0  0  0  0  0  0  0  0  0  0
   -0.0513    2.3910    0.1061 C   0  0  0  0  0  0  0  0  0  0  0  0
   -3.7053    0.1645    1.5503 C   0  0  0  0  0  0  0  0  0  0  0  0
    0.7610    1.4568   -0.7363 C   0  0  0  0  0  0  0  0  0  0  0  0
    0.1906    0.8308   -1.7711 C   0  0  0  0  0  0  0  0  0  0  0  0
   -3.3345   -1.1661    1.0578 C   0  0  0  0  0  0  0  0  0  0  0  0
   -2.0154   -1.4279    0.6955 C   0  0  0  0  0  0  0  0  0  0  0  0
   -4.3011   -2.1587    0.9559 C   0  0  0  0  0  0  0  0  0  0  0  0
   -1.6443   -2.6971    0.2223 C   0  0  0  0  0  0  0  0  0  0  0  0
    2.7816    0.1198   -0.6826 C   0  0  0  0  0  0  0  0  0  0  0  0
   -3.9502   -3.4254    0.4883 C   0  0  0  0  0  0  0  0  0  0  0  0
   -2.6261   -3.7109    0.1174 C   0  0  0  0  0  0  0  0  0  0  0  0
   -0.3200   -2.9825   -0.1482 C   0  0  0  0  0  0  0  0  0  0  0  0
    4.2121    0.1271   -0.2803 C   0  0  0  0  0  0  0  0  0  0  0  0
   -2.2549   -4.9801   -0.3558 C   0  0  0  0  0  0  0  0  0  0  0  0
    0.0311   -4.2490   -0.6163 C   0  0  0  0  0  0  0  0  0  0  0  0
   -0.9345   -5.2458   -0.7199 C   0  0  0  0  0  0  0  0  0  0  0  0
    5.0997   -0.6790   -0.9618 C   0  0  0  0  0  0  0  0  0  0  0  0
    4.6056    0.9391    0.7627 C   0  0  0  0  0  0  0  0  0  0  0  0
    6.4422   -0.6728   -0.5830 C   0  0  0  0  0  0  0  0  0  0  0  0
    5.9480    0.9453    1.1415 C   0  0  0  0  0  0  0  0  0  0  0  0
    6.8664    0.1395    0.4685 C   0  0  0  0  0  0  0  0  0  0  0  0
    8.2413    0.1458    0.8577 C   0  0  0  0  0  0  0  0  0  0  0  0
   -4.0882    4.5224    0.5723 H   0  0  0  0  0  0  0  0  0  0  0  0
   -3.6302    1.8188   -2.6910 H   0  0  0  0  0  0  0  0  0  0  0  0
   -3.4409    4.1343   -1.8167 H   0  0  0  0  0  0  0  0  0  0  0  0
   -5.0268    3.4485   -1.4603 H   0  0  0  0  0  0  0  0  0  0  0  0
   -4.2432    2.5853    2.1322 H   0  0  0  0  0  0  0  0  0  0  0  0
   -5.5346    2.5871    0.9320 H   0  0  0  0  0  0  0  0  0  0  0  0
   -1.7721    4.4913    0.2404 H   0  0  0  0  0  0  0  0  0  0  0  0
   -1.9865    3.3797    1.5786 H   0  0  0  0  0  0  0  0  0  0  0  0
   -5.3000    0.9603   -1.0810 H   0  0  0  0  0  0  0  0  0  0  0  0
   -3.9008   -0.1027   -1.1236 H   0  0  0  0  0  0  0  0  0  0  0  0
   -1.6104    0.4638   -2.9111 H   0  0  0  0  0  0  0  0  0  0  0  0
    0.7213    0.1872   -2.4619 H   0  0  0  0  0  0  0  0  0  0  0  0
    2.4748    2.0109    0.1685 H   0  0  0  0  0  0  0  0  0  0  0  0
   -1.2673   -0.6435    0.7910 H   0  0  0  0  0  0  0  0  0  0  0  0
   -5.3323   -1.9608    1.2365 H   0  0  0  0  0  0  0  0  0  0  0  0
   -4.7215   -4.1893    0.4155 H   0  0  0  0  0  0  0  0  0  0  0  0
    0.4498   -2.2211   -0.0632 H   0  0  0  0  0  0  0  0  0  0  0  0
   -2.9930   -5.7745   -0.4448 H   0  0  0  0  0  0  0  0  0  0  0  0
    1.0594   -4.4569   -0.8973 H   0  0  0  0  0  0  0  0  0  0  0  0
   -0.6604   -6.2317   -1.0838 H   0  0  0  0  0  0  0  0  0  0  0  0
    4.7866   -1.3131   -1.7858 H   0  0  0  0  0  0  0  0  0  0  0  0
    3.9248    1.5491    1.3458 H   0  0  0  0  0  0  0  0  0  0  0  0
    7.1463   -1.3057   -1.1178 H   0  0  0  0  0  0  0  0  0  0  0  0
    6.2624    1.5762    1.9697 H   0  0  0  0  0  0  0  0  0  0  0  0
  1 16  2  0  0  0  0
  2 17  2  0  0  0  0
  3 24  2  0  0  0  0
  4 11  1  0  0  0  0
  4 13  1  0  0  0  0
  4 17  1  0  0  0  0
  5 12  1  0  0  0  0
  5 14  1  0  0  0  0
  5 16  1  0  0  0  0
  6 18  1  0  0  0  0
  6 24  1  0  0  0  0
  6 50  1  0  0  0  0
  7 37  3  0  0  0  0
  8 10  1  0  0  0  0
  8 11  1  0  0  0  0
  8 12  1  0  0  0  0
  8 38  1  0  0  0  0
  9 10  1  0  0  0  0
  9 13  1  0  0  0  0
  9 14  1  0  0  0  0
  9 39  1  0  0  0  0
 10 40  1  0  0  0  0
 10 41  1  0  0  0  0
 11 42  1  0  0  0  0
 11 43  1  0  0  0  0
 12 44  1  0  0  0  0
 12 45  1  0  0  0  0
 13 46  1  0  0  0  0
 13 47  1  0  0  0  0
 14 15  2  0  0  0  0
 15 19  1  0  0  0  0
 15 48  1  0  0  0  0
 16 18  1  0  0  0  0
 17 20  1  0  0  0  0
 18 19  2  0  0  0  0
 19 49  1  0  0  0  0
 20 21  2  0  0  0  0
 20 22  1  0  0  0  0
 21 23  1  0  0  0  0
 21 51  1  0  0  0  0
 22 25  2  0  0  0  0
 22 52  1  0  0  0  0
 23 26  1  0  0  0  0
 23 27  2  0  0  0  0
 24 28  1  0  0  0  0
 25 26  1  0  0  0  0
 25 53  1  0  0  0  0
 26 29  2  0  0  0  0
 27 30  1  0  0  0  0
 27 54  1  0  0  0  0
 28 32  2  0  0  0  0
 28 33  1  0  0  0  0
 29 31  1  0  0  0  0
 29 55  1  0  0  0  0
 30 31  2  0  0  0  0
 30 56  1  0  0  0  0
 31 57  1  0  0  0  0
 32 34  1  0  0  0  0
 32 58  1  0  0  0  0
 33 35  2  0  0  0  0
 33 59  1  0  0  0  0
 34 36  2  0  0  0  0
 34 60  1  0  0  0  0
 35 36  1  0  0  0  0
 35 61  1  0  0  0  0
 36 37  1  0  0  0  0
M  END
> <PUBCHEM_COMPOUND_CID>
7155478

> <PUBCHEM_CONFORMER_RMSD>
1

> <PUBCHEM_CONFORMER_DIVERSEORDER>
1
13
6
8
14
11
10
15
7
12
3
9
2
4
5

> <PUBCHEM_MMFF94_PARTIAL_CHARGES>
47
1 -0.57
11 0.3
12 0.3
13 0.3
14 -0.03
15 -0.15
16 0.62
17 0.54
18 0.12
19 -0.15
2 -0.57
20 0.09
21 -0.15
22 -0.15
24 0.54
25 -0.15
27 -0.15
28 0.09
29 -0.15
3 -0.57
30 -0.15
31 -0.15
32 -0.15
33 -0.15
34 -0.15
35 -0.15
36 0.07
37 0.48
4 -0.66
48 0.15
49 0.15
5 -0.47
50 0.37
51 0.15
52 0.15
53 0.15
54 0.15
55 0.15
56 0.15
57 0.15
58 0.15
59 0.15
6 -0.54
60 0.15
61 0.15
7 -0.56
9 0.14

> <PUBCHEM_EFFECTIVE_ROTOR_COUNT>
6

> <PUBCHEM_PHARMACOPHORE_FEATURES>
11
1 1 acceptor
1 2 acceptor
1 3 acceptor
1 6 donor
1 7 acceptor
6 20 21 22 23 25 26 rings
6 23 26 27 29 30 31 rings
6 28 32 33 34 35 36 rings
6 4 8 9 10 11 13 rings
6 5 14 15 16 18 19 rings
6 5 8 9 10 12 14 rings

> <PUBCHEM_HEAVY_ATOM_COUNT>
37

> <PUBCHEM_ATOM_DEF_STEREO_COUNT>
2

> <PUBCHEM_ATOM_UDEF_STEREO_COUNT>
0

> <PUBCHEM_BOND_DEF_STEREO_COUNT>
0

> <PUBCHEM_BOND_UDEF_STEREO_COUNT>
0

> <PUBCHEM_ISOTOPIC_ATOM_COUNT>
0

> <PUBCHEM_COMPONENT_COUNT>
1

> <PUBCHEM_CACTVS_TAUTO_COUNT>
2

> <PUBCHEM_CONFORMER_ID>
006D2F1600000001

> <PUBCHEM_MMFF94_ENERGY>
113.6957

> <PUBCHEM_FEATURE_SELFOVERLAP>
57.432

> <PUBCHEM_SHAPE_FINGERPRINT>
10010297 198 17604979331016883242
10290309 65 18339651023111670894
10483366 6 18337093675799552439
11014199 57 17905613559380781250
11112241 14 18127976312980722677
11135609 187 18119519948094184541
11445158 3 14346379891025051110
11513181 2 18270680840449931831
11524674 6 18336542725040126845
12422481 6 17896325722836380698
12522641 33 18189886519250304245
12608794 3 18269014114292321705
12788726 201 18117011081053746862
14395042 24 18123771978887405267
14659021 117 18342164605360223343
14674994 50 18262506113568142767
14705955 166 17560536052876784739
14725015 67 18264489666820447243
14844126 61 18335702784050609763
14856354 85 18412825798441434932
14904385 31 18339632327466749666
15021287 119 16877948239485254484
15320294 125 18040437689401921510
15439362 3 17760644772672659589
15927050 60 18196372512392818005
15950262 2 15552231799530437531
19611394 137 18272086137302029856
20587220 46 12982393059117025193
20764821 26 18121216485376065855
20766409 102 18048878795953622132
20775530 9 17619366732676153855
229767 44 18339934817159666427
238918 7 18341344300787694919
3383291 50 18411136957213120923
3882209 13 17624395876996940135
397830 11 18268983349922154384
4073 2 18412820275751184534
4403749 210 18335976506954567092
4409770 3 18335693962266918039
484985 159 18261661666820522759
5080951 261 17969198136995464764
5085150 59 18335693910890606591
5265222 85 18190483634576600533
57527295 17 17912335678022653069
653340 110 18411419531284773582
68570916 9 18187364381420791604

> <PUBCHEM_SHAPE_MULTIPOLES>
723.91
15.68
6.19
1.62
47.87
7.18
-0.09
-3.4
-6.22
-10.27
0.83
-0.91
-0.62
1.27

> <PUBCHEM_SHAPE_SELFOVERLAP>
1621.499

> <PUBCHEM_SHAPE_VOLUME>
374.3

> <PUBCHEM_COORDINATE_TYPE>
2
5
10

$$$$
