28961678
  -OEChem-12032416313D

 58 60  0     1  0  0  0  0  0999 V2000
   -0.9904   -1.7437   -0.7215 O   0  0  0  0  0  0  0  0  0  0  0  0
   -3.1751   -1.9846    1.3126 O   0  0  0  0  0  0  0  0  0  0  0  0
   -0.4371   -4.4972   -0.5926 O   0  0  0  0  0  0  0  0  0  0  0  0
    1.5097   -1.0187    0.8958 O   0  0  0  0  0  0  0  0  0  0  0  0
    7.2316    2.0011   -0.5951 O   0  0  0  0  0  0  0  0  0  0  0  0
   -3.9072    0.4106   -0.0936 N   0  0  0  0  0  0  0  0  0  0  0  0
   -5.9619    2.4439   -0.1438 N   0  0  0  0  0  0  0  0  0  0  0  0
    0.2885    0.8349    0.2447 N   0  0  0  0  0  0  0  0  0  0  0  0
    2.5883    0.9039    0.0890 N   0  0  0  0  0  0  0  0  0  0  0  0
   -3.0983   -0.6379   -0.7121 C   0  0  1  0  0  0  0  0  0  0  0  0
   -1.5793   -0.4245   -0.6896 C   0  0  1  0  0  0  0  0  0  0  0  0
   -3.2589   -2.0236   -0.1061 C   0  0  1  0  0  0  0  0  0  0  0  0
   -2.0409   -2.7289   -0.6909 C   0  0  2  0  0  0  0  0  0  0  0  0
   -3.6874    1.7002   -0.7598 C   0  0  0  0  0  0  0  0  0  0  0  0
   -5.3314    0.0552   -0.1214 C   0  0  0  0  0  0  0  0  0  0  0  0
   -1.0082    0.2959    0.5266 C   0  0  0  0  0  0  0  0  0  0  0  0
   -4.5380    2.8000   -0.1152 C   0  0  0  0  0  0  0  0  0  0  0  0
   -6.1810    1.1552    0.5241 C   0  0  0  0  0  0  0  0  0  0  0  0
   -1.5616   -3.9482    0.0755 C   0  0  0  0  0  0  0  0  0  0  0  0
   -6.7718    3.4927    0.4729 C   0  0  0  0  0  0  0  0  0  0  0  0
    1.4848    0.1270    0.4524 C   0  0  0  0  0  0  0  0  0  0  0  0
    3.9565    0.5503    0.1495 C   0  0  0  0  0  0  0  0  0  0  0  0
    4.9312    1.4613   -0.2576 C   0  0  0  0  0  0  0  0  0  0  0  0
    4.3310   -0.7098    0.6164 C   0  0  0  0  0  0  0  0  0  0  0  0
    6.2803    1.1124   -0.1979 C   0  0  0  0  0  0  0  0  0  0  0  0
    5.6802   -1.0586    0.6761 C   0  0  0  0  0  0  0  0  0  0  0  0
    6.6549   -0.1475    0.2689 C   0  0  0  0  0  0  0  0  0  0  0  0
    8.5917    1.5785   -0.5075 C   0  0  0  0  0  0  0  0  0  0  0  0
   -3.3854   -0.7290   -1.7724 H   0  0  0  0  0  0  0  0  0  0  0  0
   -1.2729    0.0972   -1.6053 H   0  0  0  0  0  0  0  0  0  0  0  0
   -4.1916   -2.5219   -0.3897 H   0  0  0  0  0  0  0  0  0  0  0  0
   -2.2260   -2.9986   -1.7386 H   0  0  0  0  0  0  0  0  0  0  0  0
   -3.9472    1.6269   -1.8255 H   0  0  0  0  0  0  0  0  0  0  0  0
   -2.6450    2.0274   -0.7230 H   0  0  0  0  0  0  0  0  0  0  0  0
   -5.5197   -0.8619    0.4469 H   0  0  0  0  0  0  0  0  0  0  0  0
   -5.6737   -0.1192   -1.1506 H   0  0  0  0  0  0  0  0  0  0  0  0
   -0.9157   -0.3938    1.3735 H   0  0  0  0  0  0  0  0  0  0  0  0
   -1.6069    1.1420    0.8656 H   0  0  0  0  0  0  0  0  0  0  0  0
   -4.1967    2.9746    0.9143 H   0  0  0  0  0  0  0  0  0  0  0  0
   -4.3798    3.7303   -0.6742 H   0  0  0  0  0  0  0  0  0  0  0  0
   -7.2367    0.8697    0.4401 H   0  0  0  0  0  0  0  0  0  0  0  0
   -5.9451    1.2237    1.5949 H   0  0  0  0  0  0  0  0  0  0  0  0
   -2.3454   -4.7094    0.1339 H   0  0  0  0  0  0  0  0  0  0  0  0
   -1.2341   -3.6812    1.0853 H   0  0  0  0  0  0  0  0  0  0  0  0
   -3.3904   -2.8727    1.6445 H   0  0  0  0  0  0  0  0  0  0  0  0
    0.3442    1.7742   -0.1368 H   0  0  0  0  0  0  0  0  0  0  0  0
   -7.8368    3.2434    0.4090 H   0  0  0  0  0  0  0  0  0  0  0  0
   -6.6391    4.4423   -0.0572 H   0  0  0  0  0  0  0  0  0  0  0  0
   -6.5167    3.6479    1.5275 H   0  0  0  0  0  0  0  0  0  0  0  0
   -0.1537   -5.2760   -0.0839 H   0  0  0  0  0  0  0  0  0  0  0  0
    2.3926    1.8380   -0.2620 H   0  0  0  0  0  0  0  0  0  0  0  0
    4.6466    2.4454   -0.6228 H   0  0  0  0  0  0  0  0  0  0  0  0
    3.6364   -1.4681    0.9485 H   0  0  0  0  0  0  0  0  0  0  0  0
    5.9722   -2.0398    1.0395 H   0  0  0  0  0  0  0  0  0  0  0  0
    7.6835   -0.4837    0.3417 H   0  0  0  0  0  0  0  0  0  0  0  0
    9.2113    2.4081   -0.8634 H   0  0  0  0  0  0  0  0  0  0  0  0
    8.7913    0.7256   -1.1652 H   0  0  0  0  0  0  0  0  0  0  0  0
    8.8859    1.3815    0.5290 H   0  0  0  0  0  0  0  0  0  0  0  0
  1 11  1  0  0  0  0
  1 13  1  0  0  0  0
  2 12  1  0  0  0  0
  2 45  1  0  0  0  0
  3 19  1  0  0  0  0
  3 50  1  0  0  0  0
  4 21  2  0  0  0  0
  5 25  1  0  0  0  0
  5 28  1  0  0  0  0
  6 10  1  0  0  0  0
  6 14  1  0  0  0  0
  6 15  1  0  0  0  0
  7 17  1  0  0  0  0
  7 18  1  0  0  0  0
  7 20  1  0  0  0  0
  8 16  1  0  0  0  0
  8 21  1  0  0  0  0
  8 46  1  0  0  0  0
  9 21  1  0  0  0  0
  9 22  1  0  0  0  0
  9 51  1  0  0  0  0
 10 11  1  0  0  0  0
 10 12  1  0  0  0  0
 10 29  1  0  0  0  0
 11 16  1  0  0  0  0
 11 30  1  0  0  0  0
 12 13  1  0  0  0  0
 12 31  1  0  0  0  0
 13 19  1  0  0  0  0
 13 32  1  0  0  0  0
 14 17  1  0  0  0  0
 14 33  1  0  0  0  0
 14 34  1  0  0  0  0
 15 18  1  0  0  0  0
 15 35  1  0  0  0  0
 15 36  1  0  0  0  0
 16 37  1  0  0  0  0
 16 38  1  0  0  0  0
 17 39  1  0  0  0  0
 17 40  1  0  0  0  0
 18 41  1  0  0  0  0
 18 42  1  0  0  0  0
 19 43  1  0  0  0  0
 19 44  1  0  0  0  0
 20 47  1  0  0  0  0
 20 48  1  0  0  0  0
 20 49  1  0  0  0  0
 22 23  2  0  0  0  0
 22 24  1  0  0  0  0
 23 25  1  0  0  0  0
 23 52  1  0  0  0  0
 24 26  2  0  0  0  0
 24 53  1  0  0  0  0
 25 27  2  0  0  0  0
 26 27  1  0  0  0  0
 26 54  1  0  0  0  0
 27 55  1  0  0  0  0
 28 56  1  0  0  0  0
 28 57  1  0  0  0  0
 28 58  1  0  0  0  0
M  END
> <PUBCHEM_COMPOUND_CID>
28961678

> <PUBCHEM_CONFORMER_RMSD>
1

> <PUBCHEM_CONFORMER_DIVERSEORDER>
2
29
53
19
35
18
41
13
46
30
9
38
7
42
39
51
37
36
10
48
15
21
12
54
55
34
27
31
33
6
50
25
16
49
5
23
14
32
47
26
20
24
17
52
11
4
45
44
28
43
8
1
40
3
22

> <PUBCHEM_MMFF94_PARTIAL_CHARGES>
36
1 -0.56
10 0.27
11 0.28
12 0.28
13 0.28
14 0.27
15 0.27
16 0.3
17 0.27
18 0.27
19 0.28
2 -0.68
20 0.27
21 0.69
22 0.12
23 -0.15
24 -0.15
25 0.08
26 -0.15
27 -0.15
28 0.28
3 -0.68
4 -0.57
45 0.4
46 0.37
5 -0.36
50 0.4
51 0.37
52 0.15
53 0.15
54 0.15
55 0.15
6 -0.81
7 -0.81
8 -0.73
9 -0.55

> <PUBCHEM_EFFECTIVE_ROTOR_COUNT>
10.2

> <PUBCHEM_PHARMACOPHORE_FEATURES>
14
1 1 acceptor
1 2 acceptor
1 2 donor
1 3 acceptor
1 3 donor
1 4 acceptor
1 5 acceptor
1 6 cation
1 7 cation
1 8 donor
1 9 donor
5 1 10 11 12 13 rings
6 22 23 24 25 26 27 rings
6 6 7 14 15 17 18 rings

> <PUBCHEM_HEAVY_ATOM_COUNT>
28

> <PUBCHEM_ATOM_DEF_STEREO_COUNT>
4

> <PUBCHEM_ATOM_UDEF_STEREO_COUNT>
0

> <PUBCHEM_BOND_DEF_STEREO_COUNT>
0

> <PUBCHEM_BOND_UDEF_STEREO_COUNT>
0

> <PUBCHEM_ISOTOPIC_ATOM_COUNT>
0

> <PUBCHEM_COMPONENT_COUNT>
1

> <PUBCHEM_CACTVS_TAUTO_COUNT>
3

> <PUBCHEM_CONFORMER_ID>
01B9EB8E00000002

> <PUBCHEM_MMFF94_ENERGY>
81.4068

> <PUBCHEM_FEATURE_SELFOVERLAP>
71.104

> <PUBCHEM_SHAPE_FINGERPRINT>
10 15 18334019380572990841
10165383 225 18272374153598178857
10190206 1 18272072925982465455
10369192 42 18409449146866948445
10411042 1 17834957847775871815
10595046 47 18190458445368199844
10940486 97 18264771137116809084
11796584 16 18343302591959456630
12107183 9 18263915545809972410
12166972 35 11743830378789347178
12236239 1 18334292059134756824
12788726 201 17702944717012056361
12895837 130 18261961850685161628
13248334 5 17835522618621262359
13914758 101 13901916583029631851
14251757 5 18341611563743366544
14790565 3 18339359660898295993
14933364 13 18335422370200112456
15183329 4 18412820287676276332
15230672 131 18410292485328927894
15400415 2 18410289212225588518
15604295 49 18270113652128926792
1577012 14 18409444769725405124
15890870 6 18411981317903769069
15927050 60 18341890771316098431
16110190 28 18187366536349675348
17093844 174 18201998880415772288
17844677 252 18266180711398202628
20621476 66 18410855438701129456
20681677 155 18410569604474934482
21033648 29 18272638065472629545
21756936 100 18411978075012796717
23522609 53 17822305629940628876
23559900 14 18201150079178106272
3411729 13 18194118517677121651
4073 2 17968100854487513714
5104073 3 18114451345201819304
5265222 85 18341612671897851578
5385378 56 18197501714955346785
59755656 520 18409441480154743183
6327066 14 18336541617487502589
6328613 192 18410009931539745008
6371380 46 18201429285747511328
7226269 152 17989488507009796569
9981440 41 18409455756985017211

> <PUBCHEM_SHAPE_MULTIPOLES>
526.96
20.84
4.05
0.86
28.01
3.22
-0.04
-19.89
0.26
-6.12
0.38
-0.1
0.15
-1.28

> <PUBCHEM_SHAPE_SELFOVERLAP>
1093.919

> <PUBCHEM_SHAPE_VOLUME>
299.7

> <PUBCHEM_COORDINATE_TYPE>
2
5
10

$$$$
