40777145
  -OEChem-12032416183D

 65 69  0     1  0  0  0  0  0999 V2000
    9.3830    0.0667    1.1226 F   0  0  0  0  0  0  0  0  0  0  0  0
    8.4850    1.6009    2.3747 F   0  0  0  0  0  0  0  0  0  0  0  0
    9.1873    2.0939    0.3768 F   0  0  0  0  0  0  0  0  0  0  0  0
   -5.0858    0.0332    2.3031 O   0  0  0  0  0  0  0  0  0  0  0  0
   -8.3890   -0.6355   -0.0030 O   0  0  0  0  0  0  0  0  0  0  0  0
   -6.2167   -1.2923    0.1256 O   0  0  0  0  0  0  0  0  0  0  0  0
   -1.3096   -2.4227    1.5077 N   0  0  2  0  0  0  0  0  0  0  0  0
   -3.3563    0.6698    0.8929 N   0  0  0  0  0  0  0  0  0  0  0  0
    0.8949   -0.6377   -2.0666 N   0  0  0  0  0  0  0  0  0  0  0  0
    2.9834    0.5646   -2.0791 N   0  0  0  0  0  0  0  0  0  0  0  0
   -0.9963   -2.5501   -1.0747 C   0  0  2  0  0  0  0  0  0  0  0  0
    0.3703   -2.3213   -0.3717 C   0  0  2  0  0  0  0  0  0  0  0  0
   -2.2758   -1.5162    0.8331 C   0  0  2  0  0  0  0  0  0  0  0  0
   -1.9699   -1.4206   -0.6771 C   0  0  0  0  0  0  0  0  0  0  0  0
   -1.5729   -3.8659   -0.5093 C   0  0  0  0  0  0  0  0  0  0  0  0
    0.0788   -2.0555    1.1329 C   0  0  0  0  0  0  0  0  0  0  0  0
   -1.5692   -3.8013    1.0280 C   0  0  0  0  0  0  0  0  0  0  0  0
   -2.3370   -0.1360    1.4910 C   0  0  0  0  0  0  0  0  0  0  0  0
    1.3208   -1.2919   -0.9662 C   0  0  0  0  0  0  0  0  0  0  0  0
    2.5477   -1.0760   -0.3727 C   0  0  0  0  0  0  0  0  0  0  0  0
    3.3454   -0.1267   -0.9784 C   0  0  0  0  0  0  0  0  0  0  0  0
    1.7636    0.2634   -2.5636 C   0  0  0  0  0  0  0  0  0  0  0  0
   -4.6719    0.6920    1.3527 C   0  0  0  0  0  0  0  0  0  0  0  0
    4.6529    0.1915   -0.4562 C   0  0  0  0  0  0  0  0  0  0  0  0
   -5.6168    1.5620    0.6063 C   0  0  0  0  0  0  0  0  0  0  0  0
    1.3289    1.0059   -3.7817 C   0  0  0  0  0  0  0  0  0  0  0  0
    4.7846    0.6815    0.8431 C   0  0  0  0  0  0  0  0  0  0  0  0
    5.7847    0.0083   -1.2506 C   0  0  0  0  0  0  0  0  0  0  0  0
   -6.7494    1.0360   -0.0150 C   0  0  0  0  0  0  0  0  0  0  0  0
   -5.3533    2.9298    0.5338 C   0  0  0  0  0  0  0  0  0  0  0  0
    6.0480    0.9885    1.3481 C   0  0  0  0  0  0  0  0  0  0  0  0
    7.0482    0.3151   -0.7457 C   0  0  0  0  0  0  0  0  0  0  0  0
   -7.6186    1.8779   -0.7088 C   0  0  0  0  0  0  0  0  0  0  0  0
    7.1799    0.8052    0.5536 C   0  0  0  0  0  0  0  0  0  0  0  0
   -6.2225    3.7717   -0.1600 C   0  0  0  0  0  0  0  0  0  0  0  0
   -7.0523   -0.3881    0.0432 C   0  0  0  0  0  0  0  0  0  0  0  0
   -7.3552    3.2458   -0.7814 C   0  0  0  0  0  0  0  0  0  0  0  0
    8.5310    1.1339    1.0930 C   0  0  0  0  0  0  0  0  0  0  0  0
   -0.8932   -2.6145   -2.1630 H   0  0  0  0  0  0  0  0  0  0  0  0
    0.9182   -3.2737   -0.4440 H   0  0  0  0  0  0  0  0  0  0  0  0
   -3.2779   -1.9559    0.9473 H   0  0  0  0  0  0  0  0  0  0  0  0
   -1.5395   -0.4488   -0.9431 H   0  0  0  0  0  0  0  0  0  0  0  0
   -2.9033   -1.5229   -1.2447 H   0  0  0  0  0  0  0  0  0  0  0  0
   -0.9769   -4.7216   -0.8474 H   0  0  0  0  0  0  0  0  0  0  0  0
   -2.5945   -4.0147   -0.8798 H   0  0  0  0  0  0  0  0  0  0  0  0
    0.7767   -2.6439    1.7438 H   0  0  0  0  0  0  0  0  0  0  0  0
    0.2749   -1.0130    1.4088 H   0  0  0  0  0  0  0  0  0  0  0  0
   -2.5298   -4.1594    1.4183 H   0  0  0  0  0  0  0  0  0  0  0  0
   -0.8136   -4.4851    1.4356 H   0  0  0  0  0  0  0  0  0  0  0  0
   -1.3971    0.4137    1.3793 H   0  0  0  0  0  0  0  0  0  0  0  0
   -2.5408   -0.2351    2.5636 H   0  0  0  0  0  0  0  0  0  0  0  0
   -3.1054    1.2361    0.0874 H   0  0  0  0  0  0  0  0  0  0  0  0
    2.8657   -1.6265    0.5049 H   0  0  0  0  0  0  0  0  0  0  0  0
    1.6735    0.4802   -4.6770 H   0  0  0  0  0  0  0  0  0  0  0  0
    0.2380    1.0864   -3.8203 H   0  0  0  0  0  0  0  0  0  0  0  0
    1.7441    2.0186   -3.7871 H   0  0  0  0  0  0  0  0  0  0  0  0
    3.9145    0.8366    1.4768 H   0  0  0  0  0  0  0  0  0  0  0  0
    5.7025   -0.3762   -2.2646 H   0  0  0  0  0  0  0  0  0  0  0  0
   -4.4774    3.3559    1.0165 H   0  0  0  0  0  0  0  0  0  0  0  0
    6.1289    1.3703    2.3620 H   0  0  0  0  0  0  0  0  0  0  0  0
    7.9244    0.1685   -1.3717 H   0  0  0  0  0  0  0  0  0  0  0  0
   -8.5022    1.4980   -1.2151 H   0  0  0  0  0  0  0  0  0  0  0  0
   -6.0177    4.8368   -0.2163 H   0  0  0  0  0  0  0  0  0  0  0  0
   -8.0302    3.9013   -1.3241 H   0  0  0  0  0  0  0  0  0  0  0  0
   -8.5842   -1.5961    0.0366 H   0  0  0  0  0  0  0  0  0  0  0  0
  1 38  1  0  0  0  0
  2 38  1  0  0  0  0
  3 38  1  0  0  0  0
  4 23  2  0  0  0  0
  5 36  1  0  0  0  0
  5 65  1  0  0  0  0
  6 36  2  0  0  0  0
  7 13  1  0  0  0  0
  7 16  1  0  0  0  0
  7 17  1  0  0  0  0
  8 18  1  0  0  0  0
  8 23  1  0  0  0  0
  8 52  1  0  0  0  0
  9 19  2  0  0  0  0
  9 22  1  0  0  0  0
 10 21  1  0  0  0  0
 10 22  2  0  0  0  0
 11 12  1  0  0  0  0
 11 14  1  0  0  0  0
 11 15  1  0  0  0  0
 11 39  1  0  0  0  0
 12 16  1  0  0  0  0
 12 19  1  0  0  0  0
 12 40  1  0  0  0  0
 13 14  1  0  0  0  0
 13 18  1  0  0  0  0
 13 41  1  0  0  0  0
 14 42  1  0  0  0  0
 14 43  1  0  0  0  0
 15 17  1  0  0  0  0
 15 44  1  0  0  0  0
 15 45  1  0  0  0  0
 16 46  1  0  0  0  0
 16 47  1  0  0  0  0
 17 48  1  0  0  0  0
 17 49  1  0  0  0  0
 18 50  1  0  0  0  0
 18 51  1  0  0  0  0
 19 20  1  0  0  0  0
 20 21  2  0  0  0  0
 20 53  1  0  0  0  0
 21 24  1  0  0  0  0
 22 26  1  0  0  0  0
 23 25  1  0  0  0  0
 24 27  2  0  0  0  0
 24 28  1  0  0  0  0
 25 29  1  0  0  0  0
 25 30  2  0  0  0  0
 26 54  1  0  0  0  0
 26 55  1  0  0  0  0
 26 56  1  0  0  0  0
 27 31  1  0  0  0  0
 27 57  1  0  0  0  0
 28 32  2  0  0  0  0
 28 58  1  0  0  0  0
 29 33  2  0  0  0  0
 29 36  1  0  0  0  0
 30 35  1  0  0  0  0
 30 59  1  0  0  0  0
 31 34  2  0  0  0  0
 31 60  1  0  0  0  0
 32 34  1  0  0  0  0
 32 61  1  0  0  0  0
 33 37  1  0  0  0  0
 33 62  1  0  0  0  0
 34 38  1  0  0  0  0
 35 37  2  0  0  0  0
 35 63  1  0  0  0  0
 37 64  1  0  0  0  0
M  END
> <PUBCHEM_COMPOUND_CID>
40777145

> <PUBCHEM_CONFORMER_RMSD>
1

> <PUBCHEM_CONFORMER_DIVERSEORDER>
1
120
29
82
27
91
111
39
100
62
122
85
10
70
110
71
109
45
14
84
17
25
124
67
116
78
21
105
75
18
121
4
44
49
103
99
94
89
68
97
113
129
119
88
73
57
125
131
115
15
66
59
130
83
104
96
38
102
92
64
117
55
5
108
98
40
47
24
80
81
72
76
13
28
12
36
106
53
37
31
77
107
128
86
8
127
2
79
93
58
3
48
60
95
19
101
7
69
123
20
63
26
114
118
54
112
33
90
87
126
43
30
23
16
22
35
65
46
34
52
11
61
42
32
9
56
41
50
74
51
6

> <PUBCHEM_MMFF94_PARTIAL_CHARGES>
45
1 -0.34
10 -0.62
12 0.14
13 0.27
16 0.27
17 0.27
18 0.3
19 0.17
2 -0.34
20 -0.15
21 0.31
22 0.48
23 0.54
25 0.09
26 0.14
27 -0.15
28 -0.15
29 0.09
3 -0.34
30 -0.15
31 -0.15
32 -0.15
33 -0.15
34 -0.14
35 -0.15
36 0.63
37 -0.15
38 1.16
4 -0.57
5 -0.65
52 0.37
53 0.15
57 0.15
58 0.15
59 0.15
6 -0.57
60 0.15
61 0.15
62 0.15
63 0.15
64 0.15
65 0.5
7 -0.81
8 -0.73
9 -0.62

> <PUBCHEM_EFFECTIVE_ROTOR_COUNT>
9.2

> <PUBCHEM_PHARMACOPHORE_FEATURES>
12
1 4 acceptor
1 5 acceptor
1 6 acceptor
1 7 cation
1 8 donor
1 9 acceptor
3 5 6 36 anion
3 9 10 22 cation
6 24 27 28 31 32 34 rings
6 25 29 30 33 35 37 rings
6 9 10 19 20 21 22 rings
8 7 11 12 13 14 15 16 17 rings

> <PUBCHEM_HEAVY_ATOM_COUNT>
38

> <PUBCHEM_ATOM_DEF_STEREO_COUNT>
3

> <PUBCHEM_ATOM_UDEF_STEREO_COUNT>
0

> <PUBCHEM_BOND_DEF_STEREO_COUNT>
0

> <PUBCHEM_BOND_UDEF_STEREO_COUNT>
0

> <PUBCHEM_ISOTOPIC_ATOM_COUNT>
0

> <PUBCHEM_COMPONENT_COUNT>
1

> <PUBCHEM_CACTVS_TAUTO_COUNT>
2

> <PUBCHEM_CONFORMER_ID>
026E35B900000001

> <PUBCHEM_MMFF94_ENERGY>
110.8009

> <PUBCHEM_FEATURE_SELFOVERLAP>
60.958

> <PUBCHEM_SHAPE_FINGERPRINT>
10280341 67 18263358102078899685
10305334 12 16805331011097816923
10533779 1 18115864102244812749
11136131 41 18116712915813681131
11146851 88 18060422447651838768
11505856 67 16340908127470513329
11621639 254 15195284257166111249
117089 54 9367044676360805121
12107183 9 17313390062378579158
12539747 363 15936410057453497756
12677640 9 15865217838879335857
13540713 5 17243593171706379566
13726171 33 17844819088650041985
13911987 19 14836132078435978958
14040221 275 14346907544968642765
14420673 8 9079106757875407817
14767858 380 13758358860260243070
15289351 153 17988361460863410098
15350500 185 18343015571241112969
15444296 7 17560519616369602765
15669420 48 16559031601940494131
18643901 69 7853582313588645794
19053607 189 18043829592922605125
19246450 95 16588298346377041445
19304144 158 18336548219178725349
195137 95 18409445860742148016
20511986 3 18189333473511877477
21033648 29 18335144154886795286
21133410 221 17843951761778479857
21304303 282 18341609352353252455
21403212 168 17603583028110254747
23522609 53 16734416956582337846
2851757 15 18342458132105044978
3103668 31 14834971058001355284
3918712 181 18341608157940679625
393628 179 18341045246541795217
4366758 6 18409166597752631471
4756326 101 18272079483464186728
5372103 7 17775002349742008769
54728670 133 16733805520589728684
6058803 2 16881905544863464758
6201320 215 18272649026455489233
636775 8 8790887402493740000
6371009 1 18113627785434093541
6691757 9 18336837479998130003
6697151 62 16913721829859168942
9555976 147 16516273798207723825
999808 66 12684808918203153024

> <PUBCHEM_SHAPE_MULTIPOLES>
722.67
27.17
3.7
2.22
22.43
1.32
1.34
-26.02
-9.71
-6.36
-0.28
2.41
-0.51
1.92

> <PUBCHEM_SHAPE_SELFOVERLAP>
1586.444

> <PUBCHEM_SHAPE_VOLUME>
389.7

> <PUBCHEM_COORDINATE_TYPE>
2
5
10

$$$$
