38028580
  -OEChem-12032416413D

 63 64  0     1  0  0  0  0  0999 V2000
   -2.7717    1.5299    2.0255 O   0  0  0  0  0  0  0  0  0  0  0  0
    2.5969   -0.9227   -2.2103 O   0  0  0  0  0  0  0  0  0  0  0  0
    3.5807   -5.0867    0.4919 O   0  0  0  0  0  0  0  0  0  0  0  0
    4.0163   -3.3861    1.9328 O   0  0  0  0  0  0  0  0  0  0  0  0
    2.9929    0.8515   -0.7591 N   0  0  0  0  0  0  0  0  0  0  0  0
   -1.6866   -0.5220    2.1398 N   0  0  0  0  0  0  0  0  0  0  0  0
   -2.7522   -2.8190   -1.3418 N   0  0  0  0  0  0  0  0  0  0  0  0
    0.1984    1.9253   -1.0433 C   0  0  1  0  0  0  0  0  0  0  0  0
    1.5061    2.7536   -1.1051 C   0  0  1  0  0  0  0  0  0  0  0  0
   -0.8241    2.6058   -0.1204 C   0  0  0  0  0  0  0  0  0  0  0  0
   -0.2890    2.7809    1.3133 C   0  0  2  0  0  0  0  0  0  0  0  0
   -0.4123    1.7218   -2.4333 C   0  0  0  0  0  0  0  0  0  0  0  0
    1.1157    3.3488    1.3246 C   0  0  0  0  0  0  0  0  0  0  0  0
    1.8982    3.3400    0.2308 C   0  0  0  0  0  0  0  0  0  0  0  0
    2.6660    1.9158   -1.6554 C   0  0  0  0  0  0  0  0  0  0  0  0
   -0.3541    1.4624    2.0920 C   0  0  0  0  0  0  0  0  0  0  0  0
   -1.2898    0.4743   -2.4516 C   0  0  0  0  0  0  0  0  0  0  0  0
   -1.2126    2.9523   -2.8481 C   0  0  0  0  0  0  0  0  0  0  0  0
    1.5849    3.9692    2.6111 C   0  0  0  0  0  0  0  0  0  0  0  0
   -1.7422    0.8628    2.0799 C   0  0  0  0  0  0  0  0  0  0  0  0
    2.9330   -0.4988   -1.1079 C   0  0  0  0  0  0  0  0  0  0  0  0
    3.3333   -1.4042    0.0431 C   0  0  0  0  0  0  0  0  0  0  0  0
   -2.8641   -1.3594    2.1451 C   0  0  0  0  0  0  0  0  0  0  0  0
    3.2709   -2.8820   -0.3285 C   0  0  0  0  0  0  0  0  0  0  0  0
   -3.2866   -1.7438    0.7566 C   0  0  0  0  0  0  0  0  0  0  0  0
    3.6644   -3.7724    0.8269 C   0  0  0  0  0  0  0  0  0  0  0  0
   -4.5452   -1.4061    0.2716 C   0  0  0  0  0  0  0  0  0  0  0  0
   -2.4348   -2.4443   -0.0822 C   0  0  0  0  0  0  0  0  0  0  0  0
   -4.9084   -1.7740   -1.0192 C   0  0  0  0  0  0  0  0  0  0  0  0
   -3.9840   -2.4731   -1.7786 C   0  0  0  0  0  0  0  0  0  0  0  0
    0.4232    0.9390   -0.6191 H   0  0  0  0  0  0  0  0  0  0  0  0
    1.3692    3.6048   -1.7838 H   0  0  0  0  0  0  0  0  0  0  0  0
   -1.7813    2.0798   -0.1372 H   0  0  0  0  0  0  0  0  0  0  0  0
   -1.0353    3.6236   -0.4754 H   0  0  0  0  0  0  0  0  0  0  0  0
   -0.9531    3.5047    1.8066 H   0  0  0  0  0  0  0  0  0  0  0  0
    0.3753    1.5635   -3.1771 H   0  0  0  0  0  0  0  0  0  0  0  0
    2.8810    3.8044    0.2841 H   0  0  0  0  0  0  0  0  0  0  0  0
    3.5670    2.5340   -1.7497 H   0  0  0  0  0  0  0  0  0  0  0  0
    2.4508    1.5240   -2.6531 H   0  0  0  0  0  0  0  0  0  0  0  0
   -0.0912    1.6235    3.1447 H   0  0  0  0  0  0  0  0  0  0  0  0
    0.3730    0.7460    1.6902 H   0  0  0  0  0  0  0  0  0  0  0  0
   -2.1355    0.5507   -1.7615 H   0  0  0  0  0  0  0  0  0  0  0  0
   -0.7101   -0.4150   -2.1821 H   0  0  0  0  0  0  0  0  0  0  0  0
   -1.6984    0.3080   -3.4544 H   0  0  0  0  0  0  0  0  0  0  0  0
   -2.1598    3.0528   -2.3080 H   0  0  0  0  0  0  0  0  0  0  0  0
   -1.4828    2.8647   -3.9079 H   0  0  0  0  0  0  0  0  0  0  0  0
   -0.6415    3.8804   -2.7516 H   0  0  0  0  0  0  0  0  0  0  0  0
    0.8915    4.7544    2.9293 H   0  0  0  0  0  0  0  0  0  0  0  0
    2.5756    4.4256    2.5117 H   0  0  0  0  0  0  0  0  0  0  0  0
    1.6476    3.2170    3.4031 H   0  0  0  0  0  0  0  0  0  0  0  0
    3.3394    1.0943    0.1647 H   0  0  0  0  0  0  0  0  0  0  0  0
   -0.7839   -0.9861    2.1788 H   0  0  0  0  0  0  0  0  0  0  0  0
    4.3503   -1.1363    0.3546 H   0  0  0  0  0  0  0  0  0  0  0  0
    2.6651   -1.1992    0.8887 H   0  0  0  0  0  0  0  0  0  0  0  0
   -3.6696   -0.8331    2.6697 H   0  0  0  0  0  0  0  0  0  0  0  0
   -2.6296   -2.2617    2.7205 H   0  0  0  0  0  0  0  0  0  0  0  0
    3.9491   -3.0861   -1.1648 H   0  0  0  0  0  0  0  0  0  0  0  0
    2.2514   -3.1461   -0.6323 H   0  0  0  0  0  0  0  0  0  0  0  0
   -5.2510   -0.8559    0.8875 H   0  0  0  0  0  0  0  0  0  0  0  0
   -1.4401   -2.7388    0.2385 H   0  0  0  0  0  0  0  0  0  0  0  0
   -5.8838   -1.5208   -1.4186 H   0  0  0  0  0  0  0  0  0  0  0  0
   -4.2181   -2.7825   -2.7919 H   0  0  0  0  0  0  0  0  0  0  0  0
    3.8345   -5.6708    1.2381 H   0  0  0  0  0  0  0  0  0  0  0  0
  1 20  2  0  0  0  0
  2 21  2  0  0  0  0
  3 26  1  0  0  0  0
  3 63  1  0  0  0  0
  4 26  2  0  0  0  0
  5 15  1  0  0  0  0
  5 21  1  0  0  0  0
  5 51  1  0  0  0  0
  6 20  1  0  0  0  0
  6 23  1  0  0  0  0
  6 52  1  0  0  0  0
  7 28  1  0  0  0  0
  7 30  2  0  0  0  0
  8  9  1  0  0  0  0
  8 10  1  0  0  0  0
  8 12  1  0  0  0  0
  8 31  1  0  0  0  0
  9 14  1  0  0  0  0
  9 15  1  0  0  0  0
  9 32  1  0  0  0  0
 10 11  1  0  0  0  0
 10 33  1  0  0  0  0
 10 34  1  0  0  0  0
 11 13  1  0  0  0  0
 11 16  1  0  0  0  0
 11 35  1  0  0  0  0
 12 17  1  0  0  0  0
 12 18  1  0  0  0  0
 12 36  1  0  0  0  0
 13 14  2  0  0  0  0
 13 19  1  0  0  0  0
 14 37  1  0  0  0  0
 15 38  1  0  0  0  0
 15 39  1  0  0  0  0
 16 20  1  0  0  0  0
 16 40  1  0  0  0  0
 16 41  1  0  0  0  0
 17 42  1  0  0  0  0
 17 43  1  0  0  0  0
 17 44  1  0  0  0  0
 18 45  1  0  0  0  0
 18 46  1  0  0  0  0
 18 47  1  0  0  0  0
 19 48  1  0  0  0  0
 19 49  1  0  0  0  0
 19 50  1  0  0  0  0
 21 22  1  0  0  0  0
 22 24  1  0  0  0  0
 22 53  1  0  0  0  0
 22 54  1  0  0  0  0
 23 25  1  0  0  0  0
 23 55  1  0  0  0  0
 23 56  1  0  0  0  0
 24 26  1  0  0  0  0
 24 57  1  0  0  0  0
 24 58  1  0  0  0  0
 25 27  1  0  0  0  0
 25 28  2  0  0  0  0
 27 29  2  0  0  0  0
 27 59  1  0  0  0  0
 28 60  1  0  0  0  0
 29 30  1  0  0  0  0
 29 61  1  0  0  0  0
 30 62  1  0  0  0  0
M  END
> <PUBCHEM_COMPOUND_CID>
38028580

> <PUBCHEM_CONFORMER_RMSD>
1.2

> <PUBCHEM_CONFORMER_DIVERSEORDER>
1
33
48
90
83
92
35
72
10
68
16
66
56
77
15
65
23
50
24
19
93
71
81
36
30
94
54
44
2
43
7
42
79
18
75
14
57
61
69
37
80
53
41
28
84
58
62
8
67
96
88
55
40
20
34
46
13
11
70
51
95
86
74
21
60
47
32
39
6
27
52
78
9
29
38
63
45
5
64
87
17
82
73
25
76
26
22
85
91
89
3
59
49
4
12
31

> <PUBCHEM_MMFF94_PARTIAL_CHARGES>
33
1 -0.57
11 0.14
13 -0.28
14 -0.29
15 0.3
16 0.06
19 0.14
2 -0.57
20 0.57
21 0.57
22 0.06
23 0.44
24 0.06
25 -0.14
26 0.66
27 -0.15
28 0.16
29 -0.15
3 -0.65
30 0.16
37 0.15
4 -0.57
5 -0.73
51 0.37
52 0.37
59 0.15
6 -0.73
60 0.15
61 0.15
62 0.15
63 0.5
7 -0.62
9 0.14

> <PUBCHEM_EFFECTIVE_ROTOR_COUNT>
12.8

> <PUBCHEM_PHARMACOPHORE_FEATURES>
11
1 1 acceptor
1 2 acceptor
1 3 acceptor
1 4 acceptor
1 5 donor
1 6 donor
1 7 acceptor
3 12 17 18 hydrophobe
3 3 4 26 anion
6 7 25 27 28 29 30 rings
6 8 9 10 11 13 14 rings

> <PUBCHEM_HEAVY_ATOM_COUNT>
30

> <PUBCHEM_ATOM_DEF_STEREO_COUNT>
3

> <PUBCHEM_ATOM_UDEF_STEREO_COUNT>
0

> <PUBCHEM_BOND_DEF_STEREO_COUNT>
0

> <PUBCHEM_BOND_UDEF_STEREO_COUNT>
0

> <PUBCHEM_ISOTOPIC_ATOM_COUNT>
0

> <PUBCHEM_COMPONENT_COUNT>
1

> <PUBCHEM_CACTVS_TAUTO_COUNT>
4

> <PUBCHEM_CONFORMER_ID>
0244452400000001

> <PUBCHEM_MMFF94_ENERGY>
53.673

> <PUBCHEM_FEATURE_SELFOVERLAP>
55.88

> <PUBCHEM_SHAPE_FINGERPRINT>
11552529 35 17981046311124895866
12156800 1 17464773980028327539
13165053 137 15591863417044559091
13383668 262 17334184207279348063
14251757 17 17240482563253821671
14674994 50 17829884335382153934
19315092 285 17412149399571747439
20775530 9 18263096430863393074
21315764 21 17458348532786499511
35225 105 17907324068681205735
513532 50 17826764188076965823
550186 7 13487324059925130493

> <PUBCHEM_SHAPE_MULTIPOLES>
578.97
7.74
6.38
3.09
8.49
7.27
-0.12
6.45
-0.64
-8.6
2.11
0.44
-2.11
-0.72

> <PUBCHEM_SHAPE_SELFOVERLAP>
1183.514

> <PUBCHEM_SHAPE_VOLUME>
330.8

> <PUBCHEM_COORDINATE_TYPE>
2
5
10

$$$$
