26742832
  -OEChem-12032416173D

 64 68  0     1  0  0  0  0  0999 V2000
    2.7696    2.7114   -0.5325 O   0  0  0  0  0  0  0  0  0  0  0  0
   -4.9841    1.7077    1.7030 O   0  0  0  0  0  0  0  0  0  0  0  0
    6.7990    0.2697    1.4977 O   0  0  0  0  0  0  0  0  0  0  0  0
    7.1426   -2.1082    1.3112 O   0  0  0  0  0  0  0  0  0  0  0  0
   -2.9576    1.2207    0.6761 N   0  0  0  0  0  0  0  0  0  0  0  0
    1.9943    0.5938   -1.0845 N   0  0  0  0  0  0  0  0  0  0  0  0
   -4.7257   -0.3524    0.7285 N   0  0  0  0  0  0  0  0  0  0  0  0
   -1.2459    0.9128   -1.1224 C   0  0  2  0  0  0  0  0  0  0  0  0
   -0.5946    2.2612   -0.7431 C   0  0  1  0  0  0  0  0  0  0  0  0
   -1.6880    3.1769   -0.1637 C   0  0  0  0  0  0  0  0  0  0  0  0
   -2.0092    0.2773    0.0586 C   0  0  0  0  0  0  0  0  0  0  0  0
   -0.2833   -0.0870   -1.7869 C   0  0  0  0  0  0  0  0  0  0  0  0
    0.5887    2.1397    0.2321 C   0  0  0  0  0  0  0  0  0  0  0  0
   -2.4081    2.5356    1.0167 C   0  0  0  0  0  0  0  0  0  0  0  0
    0.9609   -0.4363   -0.9765 C   0  0  0  0  0  0  0  0  0  0  0  0
    1.8896    1.8482   -0.4915 C   0  0  0  0  0  0  0  0  0  0  0  0
   -4.2727    0.9152    1.0765 C   0  0  0  0  0  0  0  0  0  0  0  0
   -6.0495   -0.8194    1.0758 C   0  0  0  0  0  0  0  0  0  0  0  0
   -7.0702   -0.4304    0.0010 C   0  0  0  0  0  0  0  0  0  0  0  0
   -6.0530   -2.3316    1.3237 C   0  0  0  0  0  0  0  0  0  0  0  0
    3.1750    0.2537   -1.8674 C   0  0  0  0  0  0  0  0  0  0  0  0
   -6.9011   -1.2380   -1.2858 C   0  0  0  0  0  0  0  0  0  0  0  0
   -5.8853   -3.1360    0.0346 C   0  0  0  0  0  0  0  0  0  0  0  0
   -6.9190   -2.7393   -1.0150 C   0  0  0  0  0  0  0  0  0  0  0  0
    4.2304   -0.4118   -1.0323 C   0  0  0  0  0  0  0  0  0  0  0  0
    5.0020    0.3514   -0.1527 C   0  0  0  0  0  0  0  0  0  0  0  0
    4.4311   -1.7992   -1.1411 C   0  0  0  0  0  0  0  0  0  0  0  0
    5.9578   -0.3050    0.5954 C   0  0  0  0  0  0  0  0  0  0  0  0
    5.4056   -2.4393   -0.3718 C   0  0  0  0  0  0  0  0  0  0  0  0
    6.1541   -1.6628    0.4888 C   0  0  0  0  0  0  0  0  0  0  0  0
    7.5465   -0.8787    1.9476 C   0  0  0  0  0  0  0  0  0  0  0  0
   -2.0085    1.1399   -1.8835 H   0  0  0  0  0  0  0  0  0  0  0  0
   -0.2317    2.7336   -1.6666 H   0  0  0  0  0  0  0  0  0  0  0  0
   -2.4209    3.3954   -0.9516 H   0  0  0  0  0  0  0  0  0  0  0  0
   -1.2606    4.1396    0.1400 H   0  0  0  0  0  0  0  0  0  0  0  0
   -2.4890   -0.6345   -0.2924 H   0  0  0  0  0  0  0  0  0  0  0  0
   -1.3268   -0.0290    0.8584 H   0  0  0  0  0  0  0  0  0  0  0  0
    0.0184    0.3069   -2.7663 H   0  0  0  0  0  0  0  0  0  0  0  0
   -0.8362   -1.0135   -1.9879 H   0  0  0  0  0  0  0  0  0  0  0  0
    0.4270    1.3985    1.0195 H   0  0  0  0  0  0  0  0  0  0  0  0
    0.7377    3.0962    0.7507 H   0  0  0  0  0  0  0  0  0  0  0  0
   -1.7245    2.3910    1.8612 H   0  0  0  0  0  0  0  0  0  0  0  0
   -3.2004    3.2082    1.3610 H   0  0  0  0  0  0  0  0  0  0  0  0
    0.7275   -0.5938    0.0803 H   0  0  0  0  0  0  0  0  0  0  0  0
    1.3695   -1.3843   -1.3449 H   0  0  0  0  0  0  0  0  0  0  0  0
   -6.3380   -0.3260    2.0122 H   0  0  0  0  0  0  0  0  0  0  0  0
   -6.9987    0.6390   -0.2305 H   0  0  0  0  0  0  0  0  0  0  0  0
   -8.0811   -0.6019    0.3925 H   0  0  0  0  0  0  0  0  0  0  0  0
   -7.0038   -2.6138    1.7937 H   0  0  0  0  0  0  0  0  0  0  0  0
   -5.2572   -2.6037    2.0277 H   0  0  0  0  0  0  0  0  0  0  0  0
   -4.2033   -0.9317    0.0887 H   0  0  0  0  0  0  0  0  0  0  0  0
    3.5981    1.1684   -2.3020 H   0  0  0  0  0  0  0  0  0  0  0  0
    2.8762   -0.3692   -2.7194 H   0  0  0  0  0  0  0  0  0  0  0  0
   -5.9572   -0.9649   -1.7731 H   0  0  0  0  0  0  0  0  0  0  0  0
   -7.7039   -0.9823   -1.9866 H   0  0  0  0  0  0  0  0  0  0  0  0
   -5.9843   -4.2047    0.2577 H   0  0  0  0  0  0  0  0  0  0  0  0
   -4.8766   -2.9939   -0.3705 H   0  0  0  0  0  0  0  0  0  0  0  0
   -7.9182   -3.0351   -0.6719 H   0  0  0  0  0  0  0  0  0  0  0  0
   -6.7275   -3.2846   -1.9460 H   0  0  0  0  0  0  0  0  0  0  0  0
    4.8799    1.4233   -0.0591 H   0  0  0  0  0  0  0  0  0  0  0  0
    3.8279   -2.3901   -1.8260 H   0  0  0  0  0  0  0  0  0  0  0  0
    5.5633   -3.5088   -0.4526 H   0  0  0  0  0  0  0  0  0  0  0  0
    7.4115   -0.9831    3.0303 H   0  0  0  0  0  0  0  0  0  0  0  0
    8.6093   -0.7089    1.7402 H   0  0  0  0  0  0  0  0  0  0  0  0
  1 16  2  0  0  0  0
  2 17  2  0  0  0  0
  3 28  1  0  0  0  0
  3 31  1  0  0  0  0
  4 30  1  0  0  0  0
  4 31  1  0  0  0  0
  5 11  1  0  0  0  0
  5 14  1  0  0  0  0
  5 17  1  0  0  0  0
  6 15  1  0  0  0  0
  6 16  1  0  0  0  0
  6 21  1  0  0  0  0
  7 17  1  0  0  0  0
  7 18  1  0  0  0  0
  7 51  1  0  0  0  0
  8  9  1  0  0  0  0
  8 11  1  0  0  0  0
  8 12  1  0  0  0  0
  8 32  1  0  0  0  0
  9 10  1  0  0  0  0
  9 13  1  0  0  0  0
  9 33  1  0  0  0  0
 10 14  1  0  0  0  0
 10 34  1  0  0  0  0
 10 35  1  0  0  0  0
 11 36  1  0  0  0  0
 11 37  1  0  0  0  0
 12 15  1  0  0  0  0
 12 38  1  0  0  0  0
 12 39  1  0  0  0  0
 13 16  1  0  0  0  0
 13 40  1  0  0  0  0
 13 41  1  0  0  0  0
 14 42  1  0  0  0  0
 14 43  1  0  0  0  0
 15 44  1  0  0  0  0
 15 45  1  0  0  0  0
 18 19  1  0  0  0  0
 18 20  1  0  0  0  0
 18 46  1  0  0  0  0
 19 22  1  0  0  0  0
 19 47  1  0  0  0  0
 19 48  1  0  0  0  0
 20 23  1  0  0  0  0
 20 49  1  0  0  0  0
 20 50  1  0  0  0  0
 21 25  1  0  0  0  0
 21 52  1  0  0  0  0
 21 53  1  0  0  0  0
 22 24  1  0  0  0  0
 22 54  1  0  0  0  0
 22 55  1  0  0  0  0
 23 24  1  0  0  0  0
 23 56  1  0  0  0  0
 23 57  1  0  0  0  0
 24 58  1  0  0  0  0
 24 59  1  0  0  0  0
 25 26  2  0  0  0  0
 25 27  1  0  0  0  0
 26 28  1  0  0  0  0
 26 60  1  0  0  0  0
 27 29  2  0  0  0  0
 27 61  1  0  0  0  0
 28 30  2  0  0  0  0
 29 30  1  0  0  0  0
 29 62  1  0  0  0  0
 31 63  1  0  0  0  0
 31 64  1  0  0  0  0
M  END
> <PUBCHEM_COMPOUND_CID>
26742832

> <PUBCHEM_CONFORMER_RMSD>
1.2

> <PUBCHEM_CONFORMER_DIVERSEORDER>
1
151
24
118
63
158
117
67
179
80
77
183
162
155
111
16
30
96
55
182
194
138
104
172
86
145
31
36
175
110
139
23
161
56
124
92
164
192
91
3
152
147
5
156
112
99
107
170
95
93
195
51
143
153
79
34
29
58
8
176
140
185
105
33
84
126
83
102
46
43
76
6
127
137
191
17
144
180
103
187
27
15
169
2
94
13
186
74
38
64
68
150
171
49
184
168
113
53
109
189
20
25
62
21
48
178
121
40
39
157
173
119
35
50
106
123
167
131
12
32
174
82
114
14
10
154
108
165
22
142
72
125
7
59
132
45
129
44
135
81
87
98
101
71
60
141
88
122
11
4
116
100
41
163
190
61
148
188
128
73
120
133
177
159
166
65
19
78
54
52
28
134
90
97
85
181
69
136
75
130
160
57
89
146
42
26
70
66
37
18
115
47
9
193
149

> <PUBCHEM_MMFF94_PARTIAL_CHARGES>
26
1 -0.57
11 0.3
13 0.06
14 0.3
15 0.3
16 0.57
17 0.69
18 0.3
2 -0.57
21 0.44
25 -0.14
26 -0.15
27 -0.15
28 0.08
29 -0.15
3 -0.36
30 0.08
31 0.56
4 -0.36
5 -0.66
51 0.37
6 -0.66
60 0.15
61 0.15
62 0.15
7 -0.73

> <PUBCHEM_EFFECTIVE_ROTOR_COUNT>
8.4

> <PUBCHEM_PHARMACOPHORE_FEATURES>
10
1 1 acceptor
1 2 acceptor
1 3 acceptor
1 4 acceptor
1 7 donor
5 3 4 28 30 31 rings
6 18 19 20 22 23 24 rings
6 25 26 27 28 29 30 rings
6 5 8 9 10 11 14 rings
7 6 8 9 12 13 15 16 rings

> <PUBCHEM_HEAVY_ATOM_COUNT>
31

> <PUBCHEM_ATOM_DEF_STEREO_COUNT>
2

> <PUBCHEM_ATOM_UDEF_STEREO_COUNT>
0

> <PUBCHEM_BOND_DEF_STEREO_COUNT>
0

> <PUBCHEM_BOND_UDEF_STEREO_COUNT>
0

> <PUBCHEM_ISOTOPIC_ATOM_COUNT>
0

> <PUBCHEM_COMPONENT_COUNT>
1

> <PUBCHEM_CACTVS_TAUTO_COUNT>
4

> <PUBCHEM_CONFORMER_ID>
0198103000000001

> <PUBCHEM_MMFF94_ENERGY>
66.3558

> <PUBCHEM_FEATURE_SELFOVERLAP>
50.921

> <PUBCHEM_SHAPE_FINGERPRINT>
10 15 17132114636784403358
10369192 42 9655578522353477345
10939801 23 18128819823288354044
11103572 95 18129666271317231599
11136131 41 17549254183203121065
11399510 152 17560231402562837394
1200032 147 11312060954591596148
12390115 104 8358258121279674357
12596602 18 17632300021285850738
13627167 48 11170451523619813023
13782708 43 17894351085598669765
13885169 86 10735871777296947059
14664723 55 10159693624972039354
14747281 78 11098399388253229681
14918687 75 18040991818858977178
14931854 50 11386370293193910656
15188451 53 18113616759983622524
15519825 34 18411692214558570082
16994733 274 11887678355649000783
190975 80 18413105070215453456
20028762 73 18412831278345203902
20105231 36 18271808966368203654
21315763 87 18130512950778120442
21315764 119 12468640508614003074
21424621 283 10952055554516205781
21637258 2 17748548130173948788
21987483 16 17913200151310762035
23522609 53 17973482915886370869
23569914 152 13119651422008847952
25222932 49 18114177494187963914
255183 313 17060333033171418863
2747138 104 17846785083421743576
2838139 119 10447646842562376468
32027 91 18262242256700143649
3383291 50 18334018302167597523
3504750 166 18265899047142276657
38570 142 9186124942329237400
397830 11 17418094304049449814
3986486 107 10665228112821628074
4098825 35 10953734495797279857
4280585 95 18411981382554300293
4403749 210 17346875625173937429
474113 269 18335975407384780839
50009960 94 18268420403562203439
504579 68 13045939092914600878
5080951 261 18271519802919679965
508180 173 11530771409241756559
5104073 3 17986675862061157144
5223283 242 12966865554747539840
5718773 13 18334574663740496875
5874358 3 18262502775909743347
5911458 16 11167941385190610522
59682541 35 18201711869706323736
59682541 52 14345789444637895976
6201320 221 17242144921376750170
6201320 82 12893346778655831826
6703917 75 9439400255609219357
6712543 237 17988652843934390723
9689198 14 11743844681061726939
9953998 17 17417817223626188555
9980921 221 12829484792643130823

> <PUBCHEM_SHAPE_MULTIPOLES>
599.55
22.65
3.41
1.67
0.84
0.27
0.09
-20.81
8.33
-2.76
0.16
0.71
-0.23
-1.66

> <PUBCHEM_SHAPE_SELFOVERLAP>
1277.957

> <PUBCHEM_SHAPE_VOLUME>
327.4

> <PUBCHEM_COORDINATE_TYPE>
2
5
10

$$$$
