71693324
  -OEChem-12032416233D

 51 52  0     1  0  0  0  0  0999 V2000
    1.7328    1.7983    0.7707 O   0  0  0  0  0  0  0  0  0  0  0  0
    2.0296   -0.4492   -2.6977 O   0  0  0  0  0  0  0  0  0  0  0  0
    5.2589    1.7689    0.2619 O   0  0  0  0  0  0  0  0  0  0  0  0
   -5.2948    0.5106   -1.0752 O   0  0  0  0  0  0  0  0  0  0  0  0
   -7.6242   -0.3003   -0.2323 O   0  0  0  0  0  0  0  0  0  0  0  0
    3.6799    0.1660   -0.3469 N   0  0  0  0  0  0  0  0  0  0  0  0
   -4.1320   -0.4130    0.7545 N   0  0  0  0  0  0  0  0  0  0  0  0
    2.2627   -0.2717   -0.3265 C   0  0  1  0  0  0  0  0  0  0  0  0
    1.3069    0.9363   -0.2855 C   0  0  1  0  0  0  0  0  0  0  0  0
    4.7018   -0.8282   -0.6628 C   0  0  0  0  0  0  0  0  0  0  0  0
    5.0137   -1.7424    0.5272 C   0  0  0  0  0  0  0  0  0  0  0  0
    1.9156   -1.1952   -1.5032 C   0  0  0  0  0  0  0  0  0  0  0  0
    4.0856    1.4100    0.1405 C   0  0  0  0  0  0  0  0  0  0  0  0
   -0.1382    0.5771   -0.0092 C   0  0  0  0  0  0  0  0  0  0  0  0
    2.9739    2.3875    0.4661 C   0  0  0  0  0  0  0  0  0  0  0  0
    5.5217   -0.9124    1.7068 C   0  0  0  0  0  0  0  0  0  0  0  0
    6.0431   -2.8141    0.1614 C   0  0  0  0  0  0  0  0  0  0  0  0
   -1.1363    0.9662   -0.9026 C   0  0  0  0  0  0  0  0  0  0  0  0
   -0.4714   -0.1422    1.1385 C   0  0  0  0  0  0  0  0  0  0  0  0
   -2.4674    0.6363   -0.6484 C   0  0  0  0  0  0  0  0  0  0  0  0
   -1.8026   -0.4721    1.3930 C   0  0  0  0  0  0  0  0  0  0  0  0
   -2.8005   -0.0829    0.4995 C   0  0  0  0  0  0  0  0  0  0  0  0
   -5.2614   -0.1122   -0.0183 C   0  0  0  0  0  0  0  0  0  0  0  0
   -6.5356   -0.6471    0.5985 C   0  0  0  0  0  0  0  0  0  0  0  0
   -8.8618   -0.7742    0.2897 C   0  0  0  0  0  0  0  0  0  0  0  0
    2.1725   -0.8462    0.6033 H   0  0  0  0  0  0  0  0  0  0  0  0
    1.3615    1.5032   -1.2252 H   0  0  0  0  0  0  0  0  0  0  0  0
    5.6209   -0.2977   -0.9451 H   0  0  0  0  0  0  0  0  0  0  0  0
    4.4320   -1.3975   -1.5544 H   0  0  0  0  0  0  0  0  0  0  0  0
    4.0972   -2.2570    0.8411 H   0  0  0  0  0  0  0  0  0  0  0  0
    0.8829   -1.5510   -1.4221 H   0  0  0  0  0  0  0  0  0  0  0  0
    2.5423   -2.0886   -1.5573 H   0  0  0  0  0  0  0  0  0  0  0  0
    3.2829    2.9705    1.3400 H   0  0  0  0  0  0  0  0  0  0  0  0
    2.8616    3.0812   -0.3751 H   0  0  0  0  0  0  0  0  0  0  0  0
    4.7453   -0.2580    2.1132 H   0  0  0  0  0  0  0  0  0  0  0  0
    5.8265   -1.5714    2.5282 H   0  0  0  0  0  0  0  0  0  0  0  0
    6.3949   -0.3107    1.4345 H   0  0  0  0  0  0  0  0  0  0  0  0
    6.9944   -2.3635   -0.1414 H   0  0  0  0  0  0  0  0  0  0  0  0
    6.2359   -3.4770    1.0114 H   0  0  0  0  0  0  0  0  0  0  0  0
    5.6802   -3.4298   -0.6682 H   0  0  0  0  0  0  0  0  0  0  0  0
   -0.8909    1.5262   -1.8011 H   0  0  0  0  0  0  0  0  0  0  0  0
    0.2884   -0.4447    1.8536 H   0  0  0  0  0  0  0  0  0  0  0  0
    1.7862   -1.0402   -3.4304 H   0  0  0  0  0  0  0  0  0  0  0  0
   -3.1831    0.9714   -1.3859 H   0  0  0  0  0  0  0  0  0  0  0  0
   -2.0482   -1.0306    2.2927 H   0  0  0  0  0  0  0  0  0  0  0  0
   -4.2931   -0.9391    1.6109 H   0  0  0  0  0  0  0  0  0  0  0  0
   -6.4561   -1.7366    0.6842 H   0  0  0  0  0  0  0  0  0  0  0  0
   -6.6608   -0.2029    1.5923 H   0  0  0  0  0  0  0  0  0  0  0  0
   -9.6602   -0.4755   -0.3947 H   0  0  0  0  0  0  0  0  0  0  0  0
   -9.0568   -0.3313    1.2711 H   0  0  0  0  0  0  0  0  0  0  0  0
   -8.8523   -1.8659    0.3627 H   0  0  0  0  0  0  0  0  0  0  0  0
  1  9  1  0  0  0  0
  1 15  1  0  0  0  0
  2 12  1  0  0  0  0
  2 43  1  0  0  0  0
  3 13  2  0  0  0  0
  4 23  2  0  0  0  0
  5 24  1  0  0  0  0
  5 25  1  0  0  0  0
  6  8  1  0  0  0  0
  6 10  1  0  0  0  0
  6 13  1  0  0  0  0
  7 22  1  0  0  0  0
  7 23  1  0  0  0  0
  7 46  1  0  0  0  0
  8  9  1  0  0  0  0
  8 12  1  0  0  0  0
  8 26  1  0  0  0  0
  9 14  1  0  0  0  0
  9 27  1  0  0  0  0
 10 11  1  0  0  0  0
 10 28  1  0  0  0  0
 10 29  1  0  0  0  0
 11 16  1  0  0  0  0
 11 17  1  0  0  0  0
 11 30  1  0  0  0  0
 12 31  1  0  0  0  0
 12 32  1  0  0  0  0
 13 15  1  0  0  0  0
 14 18  2  0  0  0  0
 14 19  1  0  0  0  0
 15 33  1  0  0  0  0
 15 34  1  0  0  0  0
 16 35  1  0  0  0  0
 16 36  1  0  0  0  0
 16 37  1  0  0  0  0
 17 38  1  0  0  0  0
 17 39  1  0  0  0  0
 17 40  1  0  0  0  0
 18 20  1  0  0  0  0
 18 41  1  0  0  0  0
 19 21  2  0  0  0  0
 19 42  1  0  0  0  0
 20 22  2  0  0  0  0
 20 44  1  0  0  0  0
 21 22  1  0  0  0  0
 21 45  1  0  0  0  0
 23 24  1  0  0  0  0
 24 47  1  0  0  0  0
 24 48  1  0  0  0  0
 25 49  1  0  0  0  0
 25 50  1  0  0  0  0
 25 51  1  0  0  0  0
M  END
> <PUBCHEM_COMPOUND_CID>
71693324

> <PUBCHEM_CONFORMER_RMSD>
1

> <PUBCHEM_CONFORMER_DIVERSEORDER>
1
2
22
16
6
4
21
20
10
8
3
19
24
23
11
15
7
12
18
14
13
5
9
17

> <PUBCHEM_MMFF94_PARTIAL_CHARGES>
28
1 -0.56
10 0.3
12 0.28
13 0.57
14 -0.14
15 0.34
18 -0.15
19 -0.15
2 -0.68
20 -0.15
21 -0.15
22 0.12
23 0.57
24 0.34
25 0.28
3 -0.57
4 -0.57
41 0.15
42 0.15
43 0.4
44 0.15
45 0.15
46 0.37
5 -0.56
6 -0.66
7 -0.55
8 0.3
9 0.42

> <PUBCHEM_EFFECTIVE_ROTOR_COUNT>
9

> <PUBCHEM_PHARMACOPHORE_FEATURES>
10
1 1 acceptor
1 2 acceptor
1 2 donor
1 3 acceptor
1 4 acceptor
1 5 acceptor
1 7 donor
3 11 16 17 hydrophobe
6 1 6 8 9 13 15 rings
6 14 18 19 20 21 22 rings

> <PUBCHEM_HEAVY_ATOM_COUNT>
25

> <PUBCHEM_ATOM_DEF_STEREO_COUNT>
2

> <PUBCHEM_ATOM_UDEF_STEREO_COUNT>
0

> <PUBCHEM_BOND_DEF_STEREO_COUNT>
0

> <PUBCHEM_BOND_UDEF_STEREO_COUNT>
0

> <PUBCHEM_ISOTOPIC_ATOM_COUNT>
0

> <PUBCHEM_COMPONENT_COUNT>
1

> <PUBCHEM_CACTVS_TAUTO_COUNT>
6

> <PUBCHEM_CONFORMER_ID>
0445F40C00000001

> <PUBCHEM_MMFF94_ENERGY>
68.9259

> <PUBCHEM_FEATURE_SELFOVERLAP>
50.759

> <PUBCHEM_SHAPE_FINGERPRINT>
10 15 14836115567964534403
10411042 1 18268149756883068506
106641 1 17988917869676780082
10670039 82 16298663885529104559
11719270 70 17704355459334767599
11796584 16 17603308154888506434
12166972 35 17167866352657673285
12236239 1 16630533942137247565
125118 31 10951780676931431235
12616971 3 17846207865085649709
13533116 47 18413387644429518128
13617811 41 15647051551515462406
13685833 64 18335140890927999403
13782708 43 18260264114337199591
14294032 229 16010142083246671493
15183329 4 15502377798811370111
15475509 35 17895459351108462354
17349148 13 17846783992431088906
18222031 100 18059582352274820894
19377110 9 16917359125501935579
1979834 28 17060623265871210758
20645477 70 18410292493786129602
21150785 3 15574720183651544118
21267235 1 18271247128077419702
21279426 13 18114170887842603157
21304303 94 14707206579194575136
21304304 249 18272092656603780526
21344244 78 17418089889271573792
21781051 124 16226344680875366803
22149856 69 15912784846886547611
22956985 138 17199124214680492750
23536379 177 18273498983794264553
23559900 14 17676213485302386796
23569943 247 18042402418434963947
34797466 226 16950285134892909308
4073 2 18116998986188432091
4340502 62 16917350333471726607
465052 167 18342176640323005142
5104073 3 18201719509873375576
58260988 393 15625947486814667290
59755656 215 17240481377658329531
6438161 24 17531238436099879650
8988823 20 18410575098017537672

> <PUBCHEM_SHAPE_MULTIPOLES>
475.18
19.11
1.91
1.39
35.38
0.01
-0.49
8.89
2.41
-4.2
0.26
-0.93
0.24
0.62

> <PUBCHEM_SHAPE_SELFOVERLAP>
976.316

> <PUBCHEM_SHAPE_VOLUME>
270.1

> <PUBCHEM_COORDINATE_TYPE>
2
5
10

$$$$
