26742987
  -OEChem-12032416183D

 67 70  0     1  0  0  0  0  0999 V2000
   -1.2910    2.3593    1.7620 O   0  0  0  0  0  0  0  0  0  0  0  0
    5.8182   -1.0315    1.6381 O   0  0  0  0  0  0  0  0  0  0  0  0
    2.5295    2.5343   -1.9315 N   0  0  0  0  0  0  0  0  0  0  0  0
   -2.6443    0.8092    0.6825 N   0  0  0  0  0  0  0  0  0  0  0  0
   -5.2449   -0.3217    0.1004 N   0  0  0  0  0  0  0  0  0  0  0  0
    4.5510   -0.5140    1.8778 N   0  0  0  0  0  0  0  0  0  0  0  0
    0.9907    1.8214    0.4831 C   0  0  1  0  0  0  0  0  0  0  0  0
    2.3279    1.1374    0.1115 C   0  0  2  0  0  0  0  0  0  0  0  0
    0.9429    3.2153   -0.1649 C   0  0  0  0  0  0  0  0  0  0  0  0
    2.5803    1.1699   -1.4053 C   0  0  0  0  0  0  0  0  0  0  0  0
   -0.2525    1.0043    0.1115 C   0  0  0  0  0  0  0  0  0  0  0  0
    1.2428    3.1729   -1.6626 C   0  0  0  0  0  0  0  0  0  0  0  0
    2.4381   -0.2919    0.6439 C   0  0  0  0  0  0  0  0  0  0  0  0
   -1.4354    1.4604    0.9300 C   0  0  0  0  0  0  0  0  0  0  0  0
    3.8708   -0.7280    0.7480 C   0  0  0  0  0  0  0  0  0  0  0  0
   -3.8351    1.1901    1.4378 C   0  0  0  0  0  0  0  0  0  0  0  0
   -2.8165   -0.2507   -0.3135 C   0  0  0  0  0  0  0  0  0  0  0  0
   -5.1085    1.0469    0.6072 C   0  0  0  0  0  0  0  0  0  0  0  0
   -4.0329   -1.1337   -0.0342 C   0  0  0  0  0  0  0  0  0  0  0  0
    4.6494   -1.3706   -0.2301 C   0  0  0  0  0  0  0  0  0  0  0  0
    5.8644   -1.5386    0.3797 C   0  0  0  0  0  0  0  0  0  0  0  0
   -6.4984   -0.8435   -0.2094 C   0  0  0  0  0  0  0  0  0  0  0  0
    7.1399   -2.1302   -0.0420 C   0  0  0  0  0  0  0  0  0  0  0  0
   -7.5172    0.0023   -0.6478 C   0  0  0  0  0  0  0  0  0  0  0  0
   -6.7350   -2.2121   -0.0810 C   0  0  0  0  0  0  0  0  0  0  0  0
    8.2028   -1.0730   -0.4171 C   0  0  0  0  0  0  0  0  0  0  0  0
    9.5112   -1.7003   -0.8977 C   0  0  0  0  0  0  0  0  0  0  0  0
   -8.7728   -0.5205   -0.9579 C   0  0  0  0  0  0  0  0  0  0  0  0
   -7.9904   -2.7350   -0.3911 C   0  0  0  0  0  0  0  0  0  0  0  0
   -9.0094   -1.8891   -0.8295 C   0  0  0  0  0  0  0  0  0  0  0  0
   10.5241   -0.6393   -1.2979 C   0  0  0  0  0  0  0  0  0  0  0  0
    1.0169    1.9597    1.5730 H   0  0  0  0  0  0  0  0  0  0  0  0
    3.1201    1.7404    0.5828 H   0  0  0  0  0  0  0  0  0  0  0  0
    1.6882    3.8560    0.3260 H   0  0  0  0  0  0  0  0  0  0  0  0
   -0.0257    3.7011   -0.0053 H   0  0  0  0  0  0  0  0  0  0  0  0
    3.5739    0.7752   -1.6363 H   0  0  0  0  0  0  0  0  0  0  0  0
    1.8564    0.5385   -1.9354 H   0  0  0  0  0  0  0  0  0  0  0  0
   -0.0957   -0.0481    0.3623 H   0  0  0  0  0  0  0  0  0  0  0  0
   -0.4884    1.0706   -0.9540 H   0  0  0  0  0  0  0  0  0  0  0  0
    0.4434    2.6650   -2.2132 H   0  0  0  0  0  0  0  0  0  0  0  0
    1.2789    4.1998   -2.0436 H   0  0  0  0  0  0  0  0  0  0  0  0
    1.8976   -0.9989    0.0026 H   0  0  0  0  0  0  0  0  0  0  0  0
    1.9851   -0.3590    1.6419 H   0  0  0  0  0  0  0  0  0  0  0  0
    2.6921    2.5141   -2.9379 H   0  0  0  0  0  0  0  0  0  0  0  0
   -3.7375    2.2187    1.8012 H   0  0  0  0  0  0  0  0  0  0  0  0
   -3.8755    0.5354    2.3171 H   0  0  0  0  0  0  0  0  0  0  0  0
   -1.9229   -0.8780   -0.3648 H   0  0  0  0  0  0  0  0  0  0  0  0
   -2.9260    0.2477   -1.2845 H   0  0  0  0  0  0  0  0  0  0  0  0
   -5.9593    1.3144    1.2457 H   0  0  0  0  0  0  0  0  0  0  0  0
   -5.0807    1.7454   -0.2381 H   0  0  0  0  0  0  0  0  0  0  0  0
   -4.1246   -1.8460   -0.8633 H   0  0  0  0  0  0  0  0  0  0  0  0
   -3.8756   -1.7045    0.8892 H   0  0  0  0  0  0  0  0  0  0  0  0
    4.3708   -1.6709   -1.2295 H   0  0  0  0  0  0  0  0  0  0  0  0
    7.5318   -2.7665    0.7611 H   0  0  0  0  0  0  0  0  0  0  0  0
    6.9698   -2.7876   -0.9036 H   0  0  0  0  0  0  0  0  0  0  0  0
   -7.3623    1.0704   -0.7729 H   0  0  0  0  0  0  0  0  0  0  0  0
   -5.9693   -2.8967    0.2733 H   0  0  0  0  0  0  0  0  0  0  0  0
    8.4004   -0.4310    0.4510 H   0  0  0  0  0  0  0  0  0  0  0  0
    7.8001   -0.4210   -1.2031 H   0  0  0  0  0  0  0  0  0  0  0  0
    9.9356   -2.3259   -0.1041 H   0  0  0  0  0  0  0  0  0  0  0  0
    9.3165   -2.3531   -1.7564 H   0  0  0  0  0  0  0  0  0  0  0  0
   -9.5653    0.1373   -1.3024 H   0  0  0  0  0  0  0  0  0  0  0  0
   -8.1762   -3.8002   -0.2878 H   0  0  0  0  0  0  0  0  0  0  0  0
   -9.9869   -2.2962   -1.0708 H   0  0  0  0  0  0  0  0  0  0  0  0
   10.1406   -0.0184   -2.1138 H   0  0  0  0  0  0  0  0  0  0  0  0
   11.4522   -1.1102   -1.6367 H   0  0  0  0  0  0  0  0  0  0  0  0
   10.7632    0.0134   -0.4522 H   0  0  0  0  0  0  0  0  0  0  0  0
  1 14  2  0  0  0  0
  2  6  1  0  0  0  0
  2 21  1  0  0  0  0
  3 10  1  0  0  0  0
  3 12  1  0  0  0  0
  3 44  1  0  0  0  0
  4 14  1  0  0  0  0
  4 16  1  0  0  0  0
  4 17  1  0  0  0  0
  5 18  1  0  0  0  0
  5 19  1  0  0  0  0
  5 22  1  0  0  0  0
  6 15  2  0  0  0  0
  7  8  1  0  0  0  0
  7  9  1  0  0  0  0
  7 11  1  0  0  0  0
  7 32  1  0  0  0  0
  8 10  1  0  0  0  0
  8 13  1  0  0  0  0
  8 33  1  0  0  0  0
  9 12  1  0  0  0  0
  9 34  1  0  0  0  0
  9 35  1  0  0  0  0
 10 36  1  0  0  0  0
 10 37  1  0  0  0  0
 11 14  1  0  0  0  0
 11 38  1  0  0  0  0
 11 39  1  0  0  0  0
 12 40  1  0  0  0  0
 12 41  1  0  0  0  0
 13 15  1  0  0  0  0
 13 42  1  0  0  0  0
 13 43  1  0  0  0  0
 15 20  1  0  0  0  0
 16 18  1  0  0  0  0
 16 45  1  0  0  0  0
 16 46  1  0  0  0  0
 17 19  1  0  0  0  0
 17 47  1  0  0  0  0
 17 48  1  0  0  0  0
 18 49  1  0  0  0  0
 18 50  1  0  0  0  0
 19 51  1  0  0  0  0
 19 52  1  0  0  0  0
 20 21  2  0  0  0  0
 20 53  1  0  0  0  0
 21 23  1  0  0  0  0
 22 24  2  0  0  0  0
 22 25  1  0  0  0  0
 23 26  1  0  0  0  0
 23 54  1  0  0  0  0
 23 55  1  0  0  0  0
 24 28  1  0  0  0  0
 24 56  1  0  0  0  0
 25 29  2  0  0  0  0
 25 57  1  0  0  0  0
 26 27  1  0  0  0  0
 26 58  1  0  0  0  0
 26 59  1  0  0  0  0
 27 31  1  0  0  0  0
 27 60  1  0  0  0  0
 27 61  1  0  0  0  0
 28 30  2  0  0  0  0
 28 62  1  0  0  0  0
 29 30  1  0  0  0  0
 29 63  1  0  0  0  0
 30 64  1  0  0  0  0
 31 65  1  0  0  0  0
 31 66  1  0  0  0  0
 31 67  1  0  0  0  0
M  END
> <PUBCHEM_COMPOUND_CID>
26742987

> <PUBCHEM_CONFORMER_RMSD>
1.4

> <PUBCHEM_CONFORMER_DIVERSEORDER>
1
44
76
32
55
54
59
83
79
71
86
74
6
20
62
25
72
56
63
41
12
19
77
53
60
33
88
47
78
81
34
90
8
23
24
14
61
48
87
39
30
4
40
18
66
57
45
85
82
10
75
58
46
80
73
2
38
3
70
15
22
51
16
36
29
28
89
49
21
50
7
11
5
17
37
42
67
27
26
31
52
65
35
64
84
43
13
9
68
69

> <PUBCHEM_MMFF94_PARTIAL_CHARGES>
32
1 -0.57
10 0.27
11 0.06
12 0.27
13 0.18
14 0.57
15 0.11
16 0.3
17 0.3
18 0.37
19 0.37
2 -0.02
20 -0.15
21 -0.04
22 0.1
23 0.18
24 -0.15
25 -0.15
28 -0.15
29 -0.15
3 -0.9
30 -0.15
4 -0.66
44 0.36
5 -0.84
53 0.15
56 0.15
57 0.15
6 -0.41
62 0.15
63 0.15
64 0.15

> <PUBCHEM_EFFECTIVE_ROTOR_COUNT>
11.4

> <PUBCHEM_PHARMACOPHORE_FEATURES>
10
1 1 acceptor
1 3 cation
1 3 donor
1 31 hydrophobe
1 5 cation
1 6 acceptor
5 2 6 15 20 21 rings
6 22 24 25 28 29 30 rings
6 3 7 8 9 10 12 rings
6 4 5 16 17 18 19 rings

> <PUBCHEM_HEAVY_ATOM_COUNT>
31

> <PUBCHEM_ATOM_DEF_STEREO_COUNT>
2

> <PUBCHEM_ATOM_UDEF_STEREO_COUNT>
0

> <PUBCHEM_BOND_DEF_STEREO_COUNT>
0

> <PUBCHEM_BOND_UDEF_STEREO_COUNT>
0

> <PUBCHEM_ISOTOPIC_ATOM_COUNT>
0

> <PUBCHEM_COMPONENT_COUNT>
1

> <PUBCHEM_CACTVS_TAUTO_COUNT>
1

> <PUBCHEM_CONFORMER_ID>
019810CB00000001

> <PUBCHEM_MMFF94_ENERGY>
63.4171

> <PUBCHEM_FEATURE_SELFOVERLAP>
50.746

> <PUBCHEM_SHAPE_FINGERPRINT>
10258705 36 17416982629929868206
10429389 143 13767938936129746438
11135609 99 18130505318204309294
11146851 88 18409167727345263731
11386260 185 17240760739880402725
11497681 19 18267870485241028590
11607047 74 18126279985598915824
11756154 67 18408605885630191271
12013929 94 18202567276767851086
12098696 120 8430321250691676898
12144603 126 18262527983183300576
12166972 35 18408318904315548545
12539745 222 16988566762580994139
12592606 108 18409727370352838543
12645989 146 18186799189162048157
13008946 335 12103844566568401972
13782708 43 18198900513322362535
14040221 8 18040992909548152645
14068700 675 18410855438770019864
14251757 52 8070032181375303899
1454969 45 18261962865067407738
14671636 106 18273496771759597442
15183329 4 17748819710110076795
15188451 53 18202842154336990473
15347590 135 13758080692709459151
15979999 66 17894631452917690516
16991971 28 18408611361876699142
16992752 21 18411989027332849956
1818759 1 18273778241755889279
19841028 212 18410006680391693395
20028762 73 18342174457794394507
20105231 36 16845577483856769222
2026 5 18342733023572903815
21267235 1 18272368672117258491
21304304 249 18201999936492911255
21756936 100 8934705687163509609
23389318 12 18333456435362695758
23559900 14 18266168626003686929
23576562 1 17096378382873352807
255183 451 18334011705076354876
3004659 81 18261104197540341547
3178227 256 13110958730688579890
3383291 50 18343579668763770435
4461854 278 17418095437985082094
4760202 70 18335994121322018340
5028188 123 18200041638708797988
5219985 9 18187365394384207264
54039377 194 18412827992747567175
5718773 13 18342736321663668475
57527293 21 17755869615590722152
57527452 28 17775568632806271206
58260988 521 16415481520108167292
5937810 71 13912872091974005351
59682541 52 16588020203830501627
636775 8 18272655644747423646
636783 126 16916801673397050334
6438161 24 18411130364522386403
9689198 14 7997970210960763497

> <PUBCHEM_SHAPE_MULTIPOLES>
606.3
31.73
3.13
1.43
11.75
1.54
0.03
-32.15
-10.47
-0.17
-0.72
1.23
0.68
-1.86

> <PUBCHEM_SHAPE_SELFOVERLAP>
1262.969

> <PUBCHEM_SHAPE_VOLUME>
342.8

> <PUBCHEM_COORDINATE_TYPE>
2
5
10

$$$$
