11885159
  -OEChem-12032416113D

 56 60  0     1  0  0  0  0  0999 V2000
   -7.2913    1.5804    0.7190 Cl  0  0  0  0  0  0  0  0  0  0  0  0
    3.1508    0.6893    2.1742 O   0  0  0  0  0  0  0  0  0  0  0  0
   -1.6170   -1.6680    1.6175 O   0  0  0  0  0  0  0  0  0  0  0  0
    3.1539   -0.7498    0.3500 N   0  0  0  0  0  0  0  0  0  0  0  0
    0.1766   -1.8852    0.1426 N   0  0  0  0  0  0  0  0  0  0  0  0
    2.3511   -3.0746    0.7846 C   0  0  1  0  0  0  0  0  0  0  0  0
    2.1086   -2.0998   -1.4596 C   0  0  2  0  0  0  0  0  0  0  0  0
    2.4610   -3.3794   -0.7043 C   0  0  0  0  0  0  0  0  0  0  0  0
    3.3206   -1.9462    1.1775 C   0  0  0  0  0  0  0  0  0  0  0  0
    3.1191   -0.9929   -1.1000 C   0  0  0  0  0  0  0  0  0  0  0  0
    0.8950   -2.7234    1.1122 C   0  0  0  0  0  0  0  0  0  0  0  0
    0.7019   -1.6386   -1.1280 C   0  0  0  0  0  0  0  0  0  0  0  0
    3.0349    1.6912    0.0379 C   0  0  0  0  0  0  0  0  0  0  0  0
    3.1206    0.5069    0.9543 C   0  0  0  0  0  0  0  0  0  0  0  0
    3.7514    2.8890    0.6653 C   0  0  0  0  0  0  0  0  0  0  0  0
    1.5695    2.0112   -0.2651 C   0  0  0  0  0  0  0  0  0  0  0  0
   -0.0245   -0.9721   -2.0393 C   0  0  0  0  0  0  0  0  0  0  0  0
    3.6085    4.1441   -0.1915 C   0  0  0  0  0  0  0  0  0  0  0  0
    1.4318    3.2682   -1.1200 C   0  0  0  0  0  0  0  0  0  0  0  0
   -1.1061   -1.4406    0.5193 C   0  0  0  0  0  0  0  0  0  0  0  0
    2.1455    4.4595   -0.4884 C   0  0  0  0  0  0  0  0  0  0  0  0
   -1.8813   -0.6641   -0.5109 C   0  0  0  0  0  0  0  0  0  0  0  0
   -1.3325   -0.4748   -1.7202 C   0  0  0  0  0  0  0  0  0  0  0  0
   -3.2130   -0.1120   -0.2077 C   0  0  0  0  0  0  0  0  0  0  0  0
   -4.3571   -0.8710   -0.4565 C   0  0  0  0  0  0  0  0  0  0  0  0
   -3.3317    1.1711    0.3278 C   0  0  0  0  0  0  0  0  0  0  0  0
   -5.6181   -0.3477   -0.1701 C   0  0  0  0  0  0  0  0  0  0  0  0
   -4.5926    1.6943    0.6143 C   0  0  0  0  0  0  0  0  0  0  0  0
   -5.7358    0.9349    0.3653 C   0  0  0  0  0  0  0  0  0  0  0  0
    2.6280   -3.9645    1.3633 H   0  0  0  0  0  0  0  0  0  0  0  0
    2.1875   -2.3054   -2.5352 H   0  0  0  0  0  0  0  0  0  0  0  0
    1.7831   -4.1959   -0.9831 H   0  0  0  0  0  0  0  0  0  0  0  0
    3.4778   -3.7057   -0.9549 H   0  0  0  0  0  0  0  0  0  0  0  0
    4.3557   -2.2817    1.0373 H   0  0  0  0  0  0  0  0  0  0  0  0
    3.2062   -1.7023    2.2390 H   0  0  0  0  0  0  0  0  0  0  0  0
    2.8740   -0.1033   -1.6795 H   0  0  0  0  0  0  0  0  0  0  0  0
    4.1316   -1.2960   -1.3938 H   0  0  0  0  0  0  0  0  0  0  0  0
    0.8266   -2.2517    2.1007 H   0  0  0  0  0  0  0  0  0  0  0  0
    0.3169   -3.6551    1.1821 H   0  0  0  0  0  0  0  0  0  0  0  0
    3.5800    1.5024   -0.8910 H   0  0  0  0  0  0  0  0  0  0  0  0
    3.3447    3.1048    1.6621 H   0  0  0  0  0  0  0  0  0  0  0  0
    4.8151    2.6609    0.8079 H   0  0  0  0  0  0  0  0  0  0  0  0
    1.0902    1.1800   -0.7809 H   0  0  0  0  0  0  0  0  0  0  0  0
    1.0152    2.1485    0.6727 H   0  0  0  0  0  0  0  0  0  0  0  0
    4.0723    4.9948    0.3204 H   0  0  0  0  0  0  0  0  0  0  0  0
    4.1508    4.0056   -1.1350 H   0  0  0  0  0  0  0  0  0  0  0  0
    1.8491    3.0781   -2.1166 H   0  0  0  0  0  0  0  0  0  0  0  0
    0.3707    3.5048   -1.2581 H   0  0  0  0  0  0  0  0  0  0  0  0
    0.3638   -0.7581   -3.0296 H   0  0  0  0  0  0  0  0  0  0  0  0
    2.0832    5.3244   -1.1584 H   0  0  0  0  0  0  0  0  0  0  0  0
    1.6361    4.7383    0.4422 H   0  0  0  0  0  0  0  0  0  0  0  0
   -1.8485    0.0796   -2.4987 H   0  0  0  0  0  0  0  0  0  0  0  0
   -4.2816   -1.8727   -0.8728 H   0  0  0  0  0  0  0  0  0  0  0  0
   -2.4496    1.7749    0.5279 H   0  0  0  0  0  0  0  0  0  0  0  0
   -6.5002   -0.9510   -0.3691 H   0  0  0  0  0  0  0  0  0  0  0  0
   -4.6691    2.6951    1.0314 H   0  0  0  0  0  0  0  0  0  0  0  0
  1 29  1  0  0  0  0
  2 14  2  0  0  0  0
  3 20  2  0  0  0  0
  4  9  1  0  0  0  0
  4 10  1  0  0  0  0
  4 14  1  0  0  0  0
  5 11  1  0  0  0  0
  5 12  1  0  0  0  0
  5 20  1  0  0  0  0
  6  8  1  0  0  0  0
  6  9  1  0  0  0  0
  6 11  1  0  0  0  0
  6 30  1  0  0  0  0
  7  8  1  0  0  0  0
  7 10  1  0  0  0  0
  7 12  1  0  0  0  0
  7 31  1  0  0  0  0
  8 32  1  0  0  0  0
  8 33  1  0  0  0  0
  9 34  1  0  0  0  0
  9 35  1  0  0  0  0
 10 36  1  0  0  0  0
 10 37  1  0  0  0  0
 11 38  1  0  0  0  0
 11 39  1  0  0  0  0
 12 17  2  0  0  0  0
 13 14  1  0  0  0  0
 13 15  1  0  0  0  0
 13 16  1  0  0  0  0
 13 40  1  0  0  0  0
 15 18  1  0  0  0  0
 15 41  1  0  0  0  0
 15 42  1  0  0  0  0
 16 19  1  0  0  0  0
 16 43  1  0  0  0  0
 16 44  1  0  0  0  0
 17 23  1  0  0  0  0
 17 49  1  0  0  0  0
 18 21  1  0  0  0  0
 18 45  1  0  0  0  0
 18 46  1  0  0  0  0
 19 21  1  0  0  0  0
 19 47  1  0  0  0  0
 19 48  1  0  0  0  0
 20 22  1  0  0  0  0
 21 50  1  0  0  0  0
 21 51  1  0  0  0  0
 22 23  2  0  0  0  0
 22 24  1  0  0  0  0
 23 52  1  0  0  0  0
 24 25  2  0  0  0  0
 24 26  1  0  0  0  0
 25 27  1  0  0  0  0
 25 53  1  0  0  0  0
 26 28  2  0  0  0  0
 26 54  1  0  0  0  0
 27 29  2  0  0  0  0
 27 55  1  0  0  0  0
 28 29  1  0  0  0  0
 28 56  1  0  0  0  0
M  END
> <PUBCHEM_COMPOUND_CID>
11885159

> <PUBCHEM_CONFORMER_RMSD>
0.8

> <PUBCHEM_CONFORMER_DIVERSEORDER>
1
4
8
3
6
9
5
10
11
7
2

> <PUBCHEM_MMFF94_PARTIAL_CHARGES>
28
1 -0.18
10 0.3
11 0.3
12 -0.03
13 0.06
14 0.57
17 -0.15
2 -0.57
20 0.62
22 -0.01
23 -0.15
24 0.03
25 -0.15
26 -0.15
27 -0.15
28 -0.15
29 0.18
3 -0.57
4 -0.66
49 0.15
5 -0.47
52 0.15
53 0.15
54 0.15
55 0.15
56 0.15
7 0.14
9 0.3

> <PUBCHEM_EFFECTIVE_ROTOR_COUNT>
5.2

> <PUBCHEM_PHARMACOPHORE_FEATURES>
7
1 2 acceptor
1 3 acceptor
6 13 15 16 18 19 21 rings
6 24 25 26 27 28 29 rings
6 4 6 7 8 9 10 rings
6 5 12 17 20 22 23 rings
6 5 6 7 8 11 12 rings

> <PUBCHEM_HEAVY_ATOM_COUNT>
29

> <PUBCHEM_ATOM_DEF_STEREO_COUNT>
2

> <PUBCHEM_ATOM_UDEF_STEREO_COUNT>
0

> <PUBCHEM_BOND_DEF_STEREO_COUNT>
0

> <PUBCHEM_BOND_UDEF_STEREO_COUNT>
0

> <PUBCHEM_ISOTOPIC_ATOM_COUNT>
0

> <PUBCHEM_COMPONENT_COUNT>
1

> <PUBCHEM_CACTVS_TAUTO_COUNT>
1

> <PUBCHEM_CONFORMER_ID>
00B55A6700000001

> <PUBCHEM_MMFF94_ENERGY>
71.1569

> <PUBCHEM_FEATURE_SELFOVERLAP>
37.089

> <PUBCHEM_SHAPE_FINGERPRINT>
10165383 225 17967825946436807278
10483366 6 18338816571860154172
10675989 125 18201723998019897601
10937287 8 17978508959941206180
11578080 2 18264510514686440011
11796584 16 12468645989277323635
12422481 6 17910920627498895466
12633257 1 17895457215950481618
12788726 201 17614859409249113438
13761468 95 16969183759858622380
13944108 23 18336837398473249332
13965767 371 17915713463130043674
14251764 38 18341056229273921889
14251764 75 18120944055526926193
14849402 71 18408041810479312080
15439362 3 18268154335097478756
15475509 84 17179957432898896019
21033648 144 17970615505793474285
21315764 268 18264488395868544277
21475661 188 18409732888831555564
21756936 100 17836361919544205092
21860390 5 18413110532896980414
23559900 14 18342184319397898687
23569914 152 10156925983424165761
245318 6 17753338856892279765
3298306 158 18199470050764164049
3411729 13 18413393154857007181
345986 75 17390219334838478346
3493558 16 17771912632295469649
397830 11 18261689151259982649
4409770 3 16755230333264053134
474 4 18411132580182153183
50150288 127 13201378455913820533
5081480 168 17987239936932273756
5104073 3 18337404777444222923
513532 50 17775291551654457540
5895379 119 17343239428092933073
7288768 16 17899969727703699328
9849439 229 17984970746548496032
9896288 288 17541387173242532272
9981440 41 18122066665672585761

> <PUBCHEM_SHAPE_MULTIPOLES>
576.98
11.31
4.93
1.52
24.04
4.05
0.1
6.39
-2.99
-7.51
0.24
-0.79
-0.57
-0.6

> <PUBCHEM_SHAPE_SELFOVERLAP>
1247.572

> <PUBCHEM_SHAPE_VOLUME>
314.5

> <PUBCHEM_COORDINATE_TYPE>
2
5
10

$$$$
