51137884
  -OEChem-12032416283D

 46 49  0     1  0  0  0  0  0999 V2000
   -2.2587    0.3566    0.6710 N   0  0  1  0  0  0  0  0  0  0  0  0
    2.2711   -0.7797    0.8597 N   0  0  0  0  0  0  0  0  0  0  0  0
    1.9168    1.1135   -0.2497 N   0  0  0  0  0  0  0  0  0  0  0  0
   -3.3416    0.0817   -0.2714 C   0  0  0  0  0  0  0  0  0  0  0  0
    0.0247    0.3102    1.2039 C   0  0  2  0  0  0  0  0  0  0  0  0
   -1.0437   -0.4005    0.3621 C   0  0  0  0  0  0  0  0  0  0  0  0
   -1.8444    1.7594    0.6496 C   0  0  0  0  0  0  0  0  0  0  0  0
   -0.5222    1.7342    1.4056 C   0  0  0  0  0  0  0  0  0  0  0  0
   -3.7291   -1.3995   -0.2017 C   0  0  0  0  0  0  0  0  0  0  0  0
   -4.5424    0.9824    0.0379 C   0  0  0  0  0  0  0  0  0  0  0  0
   -4.9112   -1.7093   -1.1186 C   0  0  0  0  0  0  0  0  0  0  0  0
   -5.7232    0.6699   -0.8799 C   0  0  0  0  0  0  0  0  0  0  0  0
   -6.1053   -0.8064   -0.8221 C   0  0  0  0  0  0  0  0  0  0  0  0
    1.4028    0.2407    0.5877 C   0  0  0  0  0  0  0  0  0  0  0  0
    3.4222   -0.5501    0.1505 C   0  0  0  0  0  0  0  0  0  0  0  0
    3.1762    0.6372   -0.5336 C   0  0  0  0  0  0  0  0  0  0  0  0
    2.0244   -1.9017    1.7371 C   0  0  0  0  0  0  0  0  0  0  0  0
    4.6208   -1.2573    0.0520 C   0  0  0  0  0  0  0  0  0  0  0  0
    4.1741    1.1648   -1.3703 C   0  0  0  0  0  0  0  0  0  0  0  0
    5.6029   -0.7179   -0.7853 C   0  0  0  0  0  0  0  0  0  0  0  0
    5.3856    0.4716   -1.4847 C   0  0  0  0  0  0  0  0  0  0  0  0
   -3.0098    0.3011   -1.2969 H   0  0  0  0  0  0  0  0  0  0  0  0
    0.0569   -0.1515    2.2004 H   0  0  0  0  0  0  0  0  0  0  0  0
   -0.7954   -0.3577   -0.7069 H   0  0  0  0  0  0  0  0  0  0  0  0
   -1.1172   -1.4511    0.6614 H   0  0  0  0  0  0  0  0  0  0  0  0
   -1.6805    2.1244   -0.3725 H   0  0  0  0  0  0  0  0  0  0  0  0
   -2.5472    2.4255    1.1594 H   0  0  0  0  0  0  0  0  0  0  0  0
    0.1497    2.5248    1.0567 H   0  0  0  0  0  0  0  0  0  0  0  0
   -0.6998    1.9049    2.4752 H   0  0  0  0  0  0  0  0  0  0  0  0
   -3.9913   -1.6760    0.8281 H   0  0  0  0  0  0  0  0  0  0  0  0
   -2.8994   -2.0465   -0.5074 H   0  0  0  0  0  0  0  0  0  0  0  0
   -4.2999    2.0418   -0.1009 H   0  0  0  0  0  0  0  0  0  0  0  0
   -4.8558    0.8552    1.0825 H   0  0  0  0  0  0  0  0  0  0  0  0
   -4.6062   -1.5793   -2.1643 H   0  0  0  0  0  0  0  0  0  0  0  0
   -5.2049   -2.7584   -0.9998 H   0  0  0  0  0  0  0  0  0  0  0  0
   -6.5847    1.2841   -0.5944 H   0  0  0  0  0  0  0  0  0  0  0  0
   -5.4658    0.9401   -1.9115 H   0  0  0  0  0  0  0  0  0  0  0  0
   -6.9076   -1.0081   -1.5407 H   0  0  0  0  0  0  0  0  0  0  0  0
   -6.5012   -1.0415    0.1736 H   0  0  0  0  0  0  0  0  0  0  0  0
    2.8053   -2.6551    1.6203 H   0  0  0  0  0  0  0  0  0  0  0  0
    1.0624   -2.3493    1.4769 H   0  0  0  0  0  0  0  0  0  0  0  0
    2.0159   -1.5353    2.7667 H   0  0  0  0  0  0  0  0  0  0  0  0
    4.7988   -2.1797    0.5925 H   0  0  0  0  0  0  0  0  0  0  0  0
    4.0150    2.0883   -1.9179 H   0  0  0  0  0  0  0  0  0  0  0  0
    6.5535   -1.2345   -0.8928 H   0  0  0  0  0  0  0  0  0  0  0  0
    6.1682    0.8661   -2.1278 H   0  0  0  0  0  0  0  0  0  0  0  0
  1  4  1  0  0  0  0
  1  6  1  0  0  0  0
  1  7  1  0  0  0  0
  2 14  1  0  0  0  0
  2 15  1  0  0  0  0
  2 17  1  0  0  0  0
  3 14  2  0  0  0  0
  3 16  1  0  0  0  0
  4  9  1  0  0  0  0
  4 10  1  0  0  0  0
  4 22  1  0  0  0  0
  5  6  1  0  0  0  0
  5  8  1  0  0  0  0
  5 14  1  0  0  0  0
  5 23  1  0  0  0  0
  6 24  1  0  0  0  0
  6 25  1  0  0  0  0
  7  8  1  0  0  0  0
  7 26  1  0  0  0  0
  7 27  1  0  0  0  0
  8 28  1  0  0  0  0
  8 29  1  0  0  0  0
  9 11  1  0  0  0  0
  9 30  1  0  0  0  0
  9 31  1  0  0  0  0
 10 12  1  0  0  0  0
 10 32  1  0  0  0  0
 10 33  1  0  0  0  0
 11 13  1  0  0  0  0
 11 34  1  0  0  0  0
 11 35  1  0  0  0  0
 12 13  1  0  0  0  0
 12 36  1  0  0  0  0
 12 37  1  0  0  0  0
 13 38  1  0  0  0  0
 13 39  1  0  0  0  0
 15 16  1  0  0  0  0
 15 18  2  0  0  0  0
 16 19  2  0  0  0  0
 17 40  1  0  0  0  0
 17 41  1  0  0  0  0
 17 42  1  0  0  0  0
 18 20  1  0  0  0  0
 18 43  1  0  0  0  0
 19 21  1  0  0  0  0
 19 44  1  0  0  0  0
 20 21  2  0  0  0  0
 20 45  1  0  0  0  0
 21 46  1  0  0  0  0
M  END
> <PUBCHEM_COMPOUND_CID>
51137884

> <PUBCHEM_CONFORMER_RMSD>
0.6

> <PUBCHEM_CONFORMER_DIVERSEORDER>
1
36
23
11
27
34
32
33
10
19
17
21
31
9
20
25
7
29
12
35
3
26
28
5
8
14
4
30
24
18
16
15
6
13
2
22

> <PUBCHEM_MMFF94_PARTIAL_CHARGES>
19
1 -0.81
14 0.01
15 -0.15
16 0.23
17 0.26
18 -0.15
19 -0.15
2 0.05
20 -0.15
21 -0.15
3 -0.57
4 0.27
43 0.15
44 0.15
45 0.15
46 0.15
5 0.18
6 0.27
7 0.27

> <PUBCHEM_EFFECTIVE_ROTOR_COUNT>
4.2

> <PUBCHEM_PHARMACOPHORE_FEATURES>
6
1 1 cation
3 2 3 14 cation
5 1 5 6 7 8 rings
5 2 3 14 15 16 rings
6 15 16 18 19 20 21 rings
6 4 9 10 11 12 13 rings

> <PUBCHEM_HEAVY_ATOM_COUNT>
21

> <PUBCHEM_ATOM_DEF_STEREO_COUNT>
1

> <PUBCHEM_ATOM_UDEF_STEREO_COUNT>
0

> <PUBCHEM_BOND_DEF_STEREO_COUNT>
0

> <PUBCHEM_BOND_UDEF_STEREO_COUNT>
0

> <PUBCHEM_ISOTOPIC_ATOM_COUNT>
0

> <PUBCHEM_COMPONENT_COUNT>
1

> <PUBCHEM_CACTVS_TAUTO_COUNT>
1

> <PUBCHEM_CONFORMER_ID>
030C4D5C00000001

> <PUBCHEM_MMFF94_ENERGY>
31.8789

> <PUBCHEM_FEATURE_SELFOVERLAP>
30.556

> <PUBCHEM_SHAPE_FINGERPRINT>
10354089 29 10447926183272734738
10670039 82 13407348505057141430
10688039 33 13973970887070221378
10693767 8 18191024500726570146
11128504 68 18187364345984490557
11545043 162 15913329070323051355
11796584 16 17561367257523227359
12236239 1 18410293584206695336
12507557 5 10519987058919177027
12633257 1 12751234826473717933
12670546 177 18334295366000904151
12730499 353 16660369155591216962
12788726 201 18270680849234285129
12892183 10 11671795857294146497
12969540 114 15864345870107765923
13103583 49 12607412108691284607
13288520 33 17846499227641421649
13402501 40 16774083972514604703
13685833 64 16702302382113262535
13690498 29 18338792446854915439
14251752 14 18411415077841297205
14251757 5 18340769363949945175
14386348 63 16630807698925559957
14466204 15 10737275845134817047
14528608 73 17967813868276315206
14576447 43 18411981347667203746
15003188 100 16805891800144559180
15142383 8 13182750207919818995
15183329 4 18334857199447503407
15188451 53 14261055628789223565
15475509 84 9150634352696406334
15537594 2 18412265030431509427
15880784 105 14620500268985764439
16752209 62 18201997681914200987
17138139 8 18339066211574363483
17834072 33 18408605859511851100
17844677 252 17132115749365783913
17870717 6 18060420218784526319
1813 80 14261362370457325208
18222031 100 17131829889174722393
18681886 176 18343295985924955802
18785283 64 14476376280522166482
19141452 34 14979948199137960317
193927 3 16845298267093488497
200 152 18408045104128566473
20374829 77 17917710206162850917
20645477 56 14418139517269173497
20645477 70 17168424866147163706
20739085 24 11743847967175770002
20871999 31 18413672400787752793
21033648 29 14273744000925499844
21054139 6 18409163312187266994
21267235 1 18273214236332068503
212916 134 12468636161659108904
21521239 73 18408609132942140422
21637258 2 16487254361259881461
221357 26 17749104478467348092
22393880 68 18410287004185234469
23016692 55 17917712409465210551
23198884 109 17530683204360573847
23402539 116 18272371949166840069
23402655 69 18113620062275571849
23557571 272 17417814976498774481
23559900 14 18130498729893529241
23622692 88 10303812077264958768
239999 70 17561359613024453880
25147074 1 18191304879520321464
266924 1 18263645065273916648
2767999 5 13767922438273814143
2838139 119 15936401273416798942
2916195 48 14129062538438262269
29717793 49 18412268303085383982
3004659 81 18410289199045352458
312425 54 13758081809463929095
314173 85 16702024175411485537
33382 64 16415209940382737318
3472631 163 13767934545581198342
351380 3 18202280321085777879
44062 13 17845365708679400695
465052 167 17346320444214805749
495365 180 14707198899386913056
542803 24 17312820472521450861
59682541 52 17241031124734667347
59755656 215 17632298943043474454
7495541 125 16773794805831468160
7970288 3 17846776342889393231
960060 61 18335697256401104783

> <PUBCHEM_SHAPE_MULTIPOLES>
417.23
14.52
1.73
1.4
5.57
0.11
0.11
3.19
-8.06
0.58
0.3
-0.79
0.04
-1.53

> <PUBCHEM_SHAPE_SELFOVERLAP>
897.799

> <PUBCHEM_SHAPE_VOLUME>
230.6

> <PUBCHEM_COORDINATE_TYPE>
2
5
10

$$$$
