11885138
  -OEChem-12032416113D

 55 59  0     1  0  0  0  0  0999 V2000
    2.7870   -1.5494   -0.6232 S   0  0  0  0  0  0  0  0  0  0  0  0
    8.3391   -0.3264    0.8581 F   0  0  0  0  0  0  0  0  0  0  0  0
    2.7699   -1.8892   -2.0302 O   0  0  0  0  0  0  0  0  0  0  0  0
    2.2519   -2.4579    0.3689 O   0  0  0  0  0  0  0  0  0  0  0  0
   -2.5958    1.0788   -1.7764 O   0  0  0  0  0  0  0  0  0  0  0  0
   -8.1733   -1.2302   -0.0982 O   0  0  0  0  0  0  0  0  0  0  0  0
    2.0731   -0.0090   -0.4102 N   0  0  2  0  0  0  0  0  0  0  0  0
   -0.7422    1.4249   -0.4039 N   0  0  0  0  0  0  0  0  0  0  0  0
    1.5077    2.2516   -1.3066 C   0  0  1  0  0  0  0  0  0  0  0  0
    1.2505    1.7932    1.0922 C   0  0  2  0  0  0  0  0  0  0  0  0
    1.6845    2.8515    0.0819 C   0  0  0  0  0  0  0  0  0  0  0  0
    2.3798    0.9958   -1.4680 C   0  0  0  0  0  0  0  0  0  0  0  0
    2.1620    0.5588    0.9684 C   0  0  0  0  0  0  0  0  0  0  0  0
    0.0191    1.9648   -1.5390 C   0  0  0  0  0  0  0  0  0  0  0  0
   -0.2003    1.4010    0.8832 C   0  0  0  0  0  0  0  0  0  0  0  0
   -0.9542    1.0127    1.9241 C   0  0  0  0  0  0  0  0  0  0  0  0
   -2.0722    1.0376   -0.6616 C   0  0  0  0  0  0  0  0  0  0  0  0
   -2.8811    0.5727    0.5193 C   0  0  0  0  0  0  0  0  0  0  0  0
   -2.3119    0.5874    1.7339 C   0  0  0  0  0  0  0  0  0  0  0  0
    4.4555   -1.1814   -0.1779 C   0  0  0  0  0  0  0  0  0  0  0  0
   -4.2673    0.1008    0.3571 C   0  0  0  0  0  0  0  0  0  0  0  0
    4.8491   -1.3136    1.1434 C   0  0  0  0  0  0  0  0  0  0  0  0
    5.3426   -0.7671   -1.1576 C   0  0  0  0  0  0  0  0  0  0  0  0
   -5.3281    1.0018    0.4556 C   0  0  0  0  0  0  0  0  0  0  0  0
   -4.5205   -1.2482    0.1053 C   0  0  0  0  0  0  0  0  0  0  0  0
    6.1673   -1.0231    1.4952 C   0  0  0  0  0  0  0  0  0  0  0  0
    6.6608   -0.4766   -0.8059 C   0  0  0  0  0  0  0  0  0  0  0  0
    7.0730   -0.6047    0.5205 C   0  0  0  0  0  0  0  0  0  0  0  0
   -6.6405    0.5545    0.3025 C   0  0  0  0  0  0  0  0  0  0  0  0
   -5.8329   -1.6953   -0.0479 C   0  0  0  0  0  0  0  0  0  0  0  0
   -6.8928   -0.7941    0.0508 C   0  0  0  0  0  0  0  0  0  0  0  0
   -8.3600   -2.6216   -0.3538 C   0  0  0  0  0  0  0  0  0  0  0  0
    1.8362    2.9775   -2.0611 H   0  0  0  0  0  0  0  0  0  0  0  0
    1.3759    2.2138    2.0987 H   0  0  0  0  0  0  0  0  0  0  0  0
    1.0831    3.7631    0.1892 H   0  0  0  0  0  0  0  0  0  0  0  0
    2.7308    3.1360    0.2471 H   0  0  0  0  0  0  0  0  0  0  0  0
    2.1997    0.5643   -2.4583 H   0  0  0  0  0  0  0  0  0  0  0  0
    3.4333    1.2888   -1.4077 H   0  0  0  0  0  0  0  0  0  0  0  0
    3.1898    0.8664    1.1869 H   0  0  0  0  0  0  0  0  0  0  0  0
    1.8604   -0.1959    1.7033 H   0  0  0  0  0  0  0  0  0  0  0  0
   -0.4804    2.9058   -1.8079 H   0  0  0  0  0  0  0  0  0  0  0  0
   -0.1152    1.2969   -2.3992 H   0  0  0  0  0  0  0  0  0  0  0  0
   -0.5559    0.9781    2.9327 H   0  0  0  0  0  0  0  0  0  0  0  0
   -2.8508    0.2611    2.6188 H   0  0  0  0  0  0  0  0  0  0  0  0
    4.1602   -1.6363    1.9179 H   0  0  0  0  0  0  0  0  0  0  0  0
    5.0415   -0.6581   -2.1950 H   0  0  0  0  0  0  0  0  0  0  0  0
   -5.1475    2.0561    0.6505 H   0  0  0  0  0  0  0  0  0  0  0  0
   -3.7040   -1.9619    0.0251 H   0  0  0  0  0  0  0  0  0  0  0  0
    6.4887   -1.1221    2.5278 H   0  0  0  0  0  0  0  0  0  0  0  0
    7.3663   -0.1501   -1.5642 H   0  0  0  0  0  0  0  0  0  0  0  0
   -7.4621    1.2613    0.3803 H   0  0  0  0  0  0  0  0  0  0  0  0
   -5.9575   -2.7552   -0.2417 H   0  0  0  0  0  0  0  0  0  0  0  0
   -7.9079   -2.9201   -1.3057 H   0  0  0  0  0  0  0  0  0  0  0  0
   -9.4378   -2.7917   -0.4447 H   0  0  0  0  0  0  0  0  0  0  0  0
   -8.0089   -3.2350    0.4829 H   0  0  0  0  0  0  0  0  0  0  0  0
  1  3  2  0  0  0  0
  1  4  2  0  0  0  0
  1  7  1  0  0  0  0
  1 20  1  0  0  0  0
  2 28  1  0  0  0  0
  5 17  2  0  0  0  0
  6 31  1  0  0  0  0
  6 32  1  0  0  0  0
  7 12  1  0  0  0  0
  7 13  1  0  0  0  0
  8 14  1  0  0  0  0
  8 15  1  0  0  0  0
  8 17  1  0  0  0  0
  9 11  1  0  0  0  0
  9 12  1  0  0  0  0
  9 14  1  0  0  0  0
  9 33  1  0  0  0  0
 10 11  1  0  0  0  0
 10 13  1  0  0  0  0
 10 15  1  0  0  0  0
 10 34  1  0  0  0  0
 11 35  1  0  0  0  0
 11 36  1  0  0  0  0
 12 37  1  0  0  0  0
 12 38  1  0  0  0  0
 13 39  1  0  0  0  0
 13 40  1  0  0  0  0
 14 41  1  0  0  0  0
 14 42  1  0  0  0  0
 15 16  2  0  0  0  0
 16 19  1  0  0  0  0
 16 43  1  0  0  0  0
 17 18  1  0  0  0  0
 18 19  2  0  0  0  0
 18 21  1  0  0  0  0
 19 44  1  0  0  0  0
 20 22  2  0  0  0  0
 20 23  1  0  0  0  0
 21 24  2  0  0  0  0
 21 25  1  0  0  0  0
 22 26  1  0  0  0  0
 22 45  1  0  0  0  0
 23 27  2  0  0  0  0
 23 46  1  0  0  0  0
 24 29  1  0  0  0  0
 24 47  1  0  0  0  0
 25 30  2  0  0  0  0
 25 48  1  0  0  0  0
 26 28  2  0  0  0  0
 26 49  1  0  0  0  0
 27 28  1  0  0  0  0
 27 50  1  0  0  0  0
 29 31  2  0  0  0  0
 29 51  1  0  0  0  0
 30 31  1  0  0  0  0
 30 52  1  0  0  0  0
 32 53  1  0  0  0  0
 32 54  1  0  0  0  0
 32 55  1  0  0  0  0
M  END
> <PUBCHEM_COMPOUND_CID>
11885138

> <PUBCHEM_CONFORMER_RMSD>
0.8

> <PUBCHEM_CONFORMER_DIVERSEORDER>
1
5
6
7
8
9
4
3
2

> <PUBCHEM_MMFF94_PARTIAL_CHARGES>
40
1 1.45
10 0.14
12 0.36
13 0.36
14 0.3
15 -0.03
16 -0.15
17 0.62
18 -0.01
19 -0.15
2 -0.19
20 -0.01
21 0.03
22 -0.15
23 -0.15
24 -0.15
25 -0.15
26 -0.15
27 -0.15
28 0.19
29 -0.15
3 -0.65
30 -0.15
31 0.08
32 0.28
4 -0.65
43 0.15
44 0.15
45 0.15
46 0.15
47 0.15
48 0.15
49 0.15
5 -0.57
50 0.15
51 0.15
52 0.15
6 -0.36
7 -0.85
8 -0.47

> <PUBCHEM_EFFECTIVE_ROTOR_COUNT>
5

> <PUBCHEM_PHARMACOPHORE_FEATURES>
9
1 3 acceptor
1 4 acceptor
1 5 acceptor
1 6 acceptor
6 20 22 23 26 27 28 rings
6 21 24 25 29 30 31 rings
6 7 9 10 11 12 13 rings
6 8 15 16 17 18 19 rings
6 8 9 10 11 14 15 rings

> <PUBCHEM_HEAVY_ATOM_COUNT>
32

> <PUBCHEM_ATOM_DEF_STEREO_COUNT>
2

> <PUBCHEM_ATOM_UDEF_STEREO_COUNT>
0

> <PUBCHEM_BOND_DEF_STEREO_COUNT>
0

> <PUBCHEM_BOND_UDEF_STEREO_COUNT>
0

> <PUBCHEM_ISOTOPIC_ATOM_COUNT>
0

> <PUBCHEM_COMPONENT_COUNT>
1

> <PUBCHEM_CACTVS_TAUTO_COUNT>
1

> <PUBCHEM_CONFORMER_ID>
00B55A5200000001

> <PUBCHEM_MMFF94_ENERGY>
86.4004

> <PUBCHEM_FEATURE_SELFOVERLAP>
47.276

> <PUBCHEM_SHAPE_FINGERPRINT>
10 15 14979958072945805465
106641 1 16774075185053447874
10670039 82 14851596662283156791
10883706 17 18190745430841744883
10930396 42 17750495417814345632
11135609 99 18201719612889189223
11828532 37 14707794894897661521
11963148 33 18336539439744592978
12107698 1 17749108880856208149
12516196 113 18272371940962027448
12522641 33 17896605188364970532
12623949 98 16987452906058063038
13533116 47 18270685380851926193
13540713 4 16083079509482383721
13540713 5 15121794077045798809
13673619 4 18408884049245210305
13782708 43 18335139804364557571
14068700 675 18409450280005240616
14251751 18 18412263922134267751
14347332 77 18113335280522638477
1454969 45 18334866013469350942
15183329 4 13984661434579525904
15198563 99 15285629946141112070
15274700 256 10953738929433047014
15357212 105 13684858793430937946
15510800 12 18340782519572059251
15728490 51 17775281686172691486
15840311 113 14764338363046419696
15849732 13 17775284954151985534
18335252 114 12396292686224244123
20028762 73 18342742918591764054
20105231 36 16558755611631902430
2026 5 18411981356579833615
20567600 247 18334012783497812939
20567600 70 18341895207620779642
21641784 216 15140947454058858231
23522609 53 17898884316090469077
23559900 14 16515978063343744221
23569943 247 17895469220790483947
23576562 1 14418989526311313943
2747138 104 17917713492076531514
2838139 119 8286192829895370123
3004659 81 18410012156743650627
3009799 131 16298109778887062216
3383291 50 18059859497962407999
4066623 53 16153427255326951020
4098825 35 17313100830759536789
4149490 64 18264774444710982563
437795 51 17632289108422480064
439807 62 17821447963230430487
4461854 278 17203333350854125175
463206 1 18338237175754223827
5758199 1 11527948954419253973
59682541 35 17988916787212905962
59755656 520 10519693467164841928
6004065 56 18409169930473024144
613672 6 17968960599175736586
6438161 24 18408601491994484059
9962374 69 18340764966266995703

> <PUBCHEM_SHAPE_MULTIPOLES>
621.68
21.2
2.52
1.57
13.46
0.09
0.06
-16.35
-1.57
0.8
0.45
-1.28
0.33
-0.69

> <PUBCHEM_SHAPE_SELFOVERLAP>
1355.791

> <PUBCHEM_SHAPE_VOLUME>
342.6

> <PUBCHEM_COORDINATE_TYPE>
2
5
10

$$$$
