11941845
  -OEChem-12032416253D

 54 58  0     1  0  0  0  0  0999 V2000
   -4.6076    2.1243    1.6846 S   0  0  0  0  0  0  0  0  0  0  0  0
    8.2847    2.5806   -0.6545 F   0  0  0  0  0  0  0  0  0  0  0  0
    6.3303    3.5140   -0.7692 F   0  0  0  0  0  0  0  0  0  0  0  0
    7.1356    2.9174    1.1606 F   0  0  0  0  0  0  0  0  0  0  0  0
   -1.3729   -3.7728   -0.1078 O   0  0  0  0  0  0  0  0  0  0  0  0
   -1.7716   -1.4966    1.9889 O   0  0  0  0  0  0  0  0  0  0  0  0
    2.8257   -2.7686    0.0606 O   0  0  0  0  0  0  0  0  0  0  0  0
   -3.4378   -1.7692   -1.2482 N   0  0  0  0  0  0  0  0  0  0  0  0
    1.2132   -1.4962    1.1216 N   0  0  0  0  0  0  0  0  0  0  0  0
    3.2120   -0.5093    0.5677 N   0  0  0  0  0  0  0  0  0  0  0  0
   -4.5042    0.1905   -0.5205 N   0  0  0  0  0  0  0  0  0  0  0  0
   -4.3453   -0.3339   -2.8672 N   0  0  0  0  0  0  0  0  0  0  0  0
   -1.8349   -1.5342    0.5532 C   0  0  1  0  0  0  0  0  0  0  0  0
   -0.7557   -2.4886    0.0802 C   0  0  1  0  0  0  0  0  0  0  0  0
   -3.1234   -2.1808    0.1025 C   0  0  2  0  0  0  0  0  0  0  0  0
    0.2217   -2.5387    1.2322 C   0  0  2  0  0  0  0  0  0  0  0  0
   -2.7830   -3.6595    0.1348 C   0  0  0  0  0  0  0  0  0  0  0  0
   -0.6800   -2.3156    2.4333 C   0  0  0  0  0  0  0  0  0  0  0  0
   -4.1160   -0.6027   -1.5543 C   0  0  0  0  0  0  0  0  0  0  0  0
    2.4678   -1.6918    0.5319 C   0  0  0  0  0  0  0  0  0  0  0  0
    4.5208   -0.2922    0.0774 C   0  0  0  0  0  0  0  0  0  0  0  0
   -5.1622    1.3196   -0.8554 C   0  0  0  0  0  0  0  0  0  0  0  0
   -5.0084    0.8114   -3.1301 C   0  0  0  0  0  0  0  0  0  0  0  0
   -5.4451    1.6853   -2.1557 C   0  0  0  0  0  0  0  0  0  0  0  0
    5.0955    0.9615    0.2089 C   0  0  0  0  0  0  0  0  0  0  0  0
   -5.5606    2.1377    0.2589 C   0  0  0  0  0  0  0  0  0  0  0  0
    5.2020   -1.3384   -0.5232 C   0  0  0  0  0  0  0  0  0  0  0  0
    6.3869    1.1748   -0.2734 C   0  0  0  0  0  0  0  0  0  0  0  0
    6.4933   -1.1250   -1.0055 C   0  0  0  0  0  0  0  0  0  0  0  0
    7.0858    0.1315   -0.8807 C   0  0  0  0  0  0  0  0  0  0  0  0
   -6.6470    2.9817    0.3783 C   0  0  0  0  0  0  0  0  0  0  0  0
    7.0211    2.5182   -0.1395 C   0  0  0  0  0  0  0  0  0  0  0  0
   -6.6951    3.6212    1.6505 C   0  0  0  0  0  0  0  0  0  0  0  0
   -5.6455    3.2446    2.4591 C   0  0  0  0  0  0  0  0  0  0  0  0
   -1.6825   -0.5109    0.1953 H   0  0  0  0  0  0  0  0  0  0  0  0
   -0.3127   -2.1941   -0.8767 H   0  0  0  0  0  0  0  0  0  0  0  0
   -3.9701   -1.9924    0.7726 H   0  0  0  0  0  0  0  0  0  0  0  0
    0.7341   -3.5035    1.3113 H   0  0  0  0  0  0  0  0  0  0  0  0
   -3.3265   -4.2576   -0.6031 H   0  0  0  0  0  0  0  0  0  0  0  0
   -2.9750   -4.0827    1.1271 H   0  0  0  0  0  0  0  0  0  0  0  0
   -1.1063   -3.2619    2.7841 H   0  0  0  0  0  0  0  0  0  0  0  0
   -0.1810   -1.8290    3.2769 H   0  0  0  0  0  0  0  0  0  0  0  0
   -3.1075   -2.3259   -2.0283 H   0  0  0  0  0  0  0  0  0  0  0  0
    0.9658   -0.5597    1.4271 H   0  0  0  0  0  0  0  0  0  0  0  0
    2.7656    0.2967    0.9981 H   0  0  0  0  0  0  0  0  0  0  0  0
   -5.1831    1.0146   -4.1813 H   0  0  0  0  0  0  0  0  0  0  0  0
   -5.9679    2.5955   -2.4212 H   0  0  0  0  0  0  0  0  0  0  0  0
    4.5519    1.7752    0.6823 H   0  0  0  0  0  0  0  0  0  0  0  0
    4.8137   -2.3369   -0.6575 H   0  0  0  0  0  0  0  0  0  0  0  0
    7.0386   -1.9367   -1.4787 H   0  0  0  0  0  0  0  0  0  0  0  0
    8.0923    0.2780   -1.2626 H   0  0  0  0  0  0  0  0  0  0  0  0
   -7.3830    3.1381   -0.4007 H   0  0  0  0  0  0  0  0  0  0  0  0
   -7.4615    4.3209    1.9576 H   0  0  0  0  0  0  0  0  0  0  0  0
   -5.4387    3.5735    3.4678 H   0  0  0  0  0  0  0  0  0  0  0  0
  1 26  1  0  0  0  0
  1 34  1  0  0  0  0
  2 32  1  0  0  0  0
  3 32  1  0  0  0  0
  4 32  1  0  0  0  0
  5 14  1  0  0  0  0
  5 17  1  0  0  0  0
  6 13  1  0  0  0  0
  6 18  1  0  0  0  0
  7 20  2  0  0  0  0
  8 15  1  0  0  0  0
  8 19  1  0  0  0  0
  8 43  1  0  0  0  0
  9 16  1  0  0  0  0
  9 20  1  0  0  0  0
  9 44  1  0  0  0  0
 10 20  1  0  0  0  0
 10 21  1  0  0  0  0
 10 45  1  0  0  0  0
 11 19  1  0  0  0  0
 11 22  2  0  0  0  0
 12 19  2  0  0  0  0
 12 23  1  0  0  0  0
 13 14  1  0  0  0  0
 13 15  1  0  0  0  0
 13 35  1  0  0  0  0
 14 16  1  0  0  0  0
 14 36  1  0  0  0  0
 15 17  1  0  0  0  0
 15 37  1  0  0  0  0
 16 18  1  0  0  0  0
 16 38  1  0  0  0  0
 17 39  1  0  0  0  0
 17 40  1  0  0  0  0
 18 41  1  0  0  0  0
 18 42  1  0  0  0  0
 21 25  1  0  0  0  0
 21 27  2  0  0  0  0
 22 24  1  0  0  0  0
 22 26  1  0  0  0  0
 23 24  2  0  0  0  0
 23 46  1  0  0  0  0
 24 47  1  0  0  0  0
 25 28  2  0  0  0  0
 25 48  1  0  0  0  0
 26 31  2  0  0  0  0
 27 29  1  0  0  0  0
 27 49  1  0  0  0  0
 28 30  1  0  0  0  0
 28 32  1  0  0  0  0
 29 30  2  0  0  0  0
 29 50  1  0  0  0  0
 30 51  1  0  0  0  0
 31 33  1  0  0  0  0
 31 52  1  0  0  0  0
 33 34  2  0  0  0  0
 33 53  1  0  0  0  0
 34 54  1  0  0  0  0
M  END
> <PUBCHEM_COMPOUND_CID>
11941845

> <PUBCHEM_CONFORMER_RMSD>
1.2

> <PUBCHEM_CONFORMER_DIVERSEORDER>
1
13
160
117
47
311
322
321
143
323
251
79
343
67
232
302
275
221
300
65
188
140
141
317
28
333
161
367
219
236
162
342
105
289
68
360
318
365
358
327
168
7
357
277
248
353
258
336
231
330
208
271
291
312
325
216
210
95
282
159
270
78
288
290
305
239
115
267
179
245
127
345
237
324
23
99
86
299
293
329
339
249
234
61
284
122
364
158
351
215
104
350
203
272
340
124
172
331
151
72
334
213
198
197
118
184
227
112
264
62
278
133
212
338
276
30
148
259
241
242
226
146
199
263
306
49
176
19
316
349
307
355
191
238
281
292
174
94
195
356
304
20
114
261
269
332
225
29
287
134
273
255
211
204
260
206
348
200
58
310
103
362
166
63
294
361
153
132
298
169
98
150
93
173
315
186
116
144
17
91
25
301
64
354
183
77
363
347
223
136
9
247
129
359
110
15
207
131
286
346
96
60
149
125
31
187
190
295
113
194
266
233
192
319
45
130
308
66
53
189
41
214
108
224
335
135
55
54
309
18
36
73
50
222
76
246
21
165
297
85
320
38
279
285
171
313
39
201
243
178
22
265
170
257
100
262
52
109
137
337
303
59
268
46
196
352
101
48
283
142
92
128
167
145
296
152
220
81
70
34
120
209
89
4
154
111
43
181
102
87
182
138
228
328
139
180
344
27
107
80
229
69
44
32
250
253
74
274
16
341
155
84
147
121
26
119
6
205
57
177
202
40
164
106
256
56
90
235
123
51
314
88
240
244
254
83
280
163
10
75
11
156
193
230
37
3
35
5
175
185
252
14
326
42
97
24
366
71
12
157
33
126
217
2
8
82
218

> <PUBCHEM_MMFF94_PARTIAL_CHARGES>
46
1 -0.08
10 -0.55
11 -0.62
12 -0.62
13 0.28
14 0.28
15 0.37
16 0.3
17 0.28
18 0.28
19 0.72
2 -0.34
20 0.69
21 0.12
22 0.36
23 0.16
24 -0.15
25 -0.15
26 -0.01
27 -0.15
28 -0.14
29 -0.15
3 -0.34
30 -0.15
31 -0.15
32 1.16
33 -0.15
34 -0.11
4 -0.34
43 0.4
44 0.37
45 0.37
46 0.15
47 0.15
48 0.15
49 0.15
5 -0.56
50 0.15
51 0.15
52 0.15
53 0.15
54 0.15
6 -0.56
7 -0.57
8 -0.87
9 -0.73

> <PUBCHEM_EFFECTIVE_ROTOR_COUNT>
9.2

> <PUBCHEM_PHARMACOPHORE_FEATURES>
13
1 10 donor
1 11 acceptor
1 5 acceptor
1 6 acceptor
1 7 acceptor
1 8 donor
1 9 donor
4 8 11 12 19 cation
5 1 26 31 33 34 rings
5 5 13 14 15 17 rings
5 6 13 14 16 18 rings
6 11 12 19 22 23 24 rings
6 21 25 27 28 29 30 rings

> <PUBCHEM_HEAVY_ATOM_COUNT>
34

> <PUBCHEM_ATOM_DEF_STEREO_COUNT>
4

> <PUBCHEM_ATOM_UDEF_STEREO_COUNT>
0

> <PUBCHEM_BOND_DEF_STEREO_COUNT>
0

> <PUBCHEM_BOND_UDEF_STEREO_COUNT>
0

> <PUBCHEM_ISOTOPIC_ATOM_COUNT>
0

> <PUBCHEM_COMPONENT_COUNT>
1

> <PUBCHEM_CACTVS_TAUTO_COUNT>
9

> <PUBCHEM_CONFORMER_ID>
00B637D500000001

> <PUBCHEM_MMFF94_ENERGY>
85.637

> <PUBCHEM_FEATURE_SELFOVERLAP>
66.731

> <PUBCHEM_SHAPE_FINGERPRINT>
10049733 73 11602808104159401824
10369192 42 18410582764998807035
10675989 125 18265333915841685698
10930396 42 14490753400562988533
11007060 377 18040428906699833391
11135609 201 18113616785880456259
11227150 75 11603695457835756753
11410812 94 17059768915482589282
11476731 99 18060126670334319432
11479125 193 18041555820203464569
11607047 74 10888359652700152207
12013929 29 18270968916759259544
12061779 8 18269276772880977073
13165053 182 18268158728443263320
1361 87 13829838145620710469
13627167 48 18340476756312365165
13782708 43 10303818692084313190
14150022 121 18187940529508020867
14251764 75 18336548218287656059
14664723 55 18200596887269055237
14765038 42 18408889499368785685
14840074 17 18194118522125219129
15119646 57 18411700993703421999
15131766 46 18263353695663545125
15350500 16 13407664168653854809
15513586 35 17171824753420848693
15530120 55 17489296525497047460
15685185 35 18411141350796249761
16112460 7 18409451383796180109
16120349 67 18059579019264414595
16126227 98 18410579483358501841
16728433 281 18263655112162894596
16993427 108 12108658258998420833
17852330 134 18130238043307494462
19304152 47 16660360334308815087
19309040 13 18201157659473689151
19438510 23 18187366519222423922
20691028 202 18409453561423304873
208703 8 9583222925946500445
21223535 225 18131345285027193672
21401589 2 17749108864167066083
21585480 29 8069731984725872934
21774942 28 18343017805636677512
2748736 6 18336255804271699080
2838139 119 18261667061125379406
3610482 184 17703218513314929413
38570 142 18128819638805441035
4258327 124 18194950857102163117
42767 24 11527951136378704296
44575985 347 16900458837511039824
4756326 101 16701151215757746730
50009960 94 12606584069842752772
50677037 204 18408318891309782236
50742298 180 15791732984159670476
58902169 19 17844809175042907870
5937810 71 18187939421422263212
6289498 60 17749380508370383356
6712543 237 12468631686698838305

> <PUBCHEM_SHAPE_MULTIPOLES>
639.22
23.74
5.08
2.31
31.36
0.61
-0.77
30.36
-4.76
-1.38
2.03
-5.21
0.52
-2.73

> <PUBCHEM_SHAPE_SELFOVERLAP>
1390.114

> <PUBCHEM_SHAPE_VOLUME>
351.4

> <PUBCHEM_COORDINATE_TYPE>
2
5
10

$$$$
