45783666
  -OEChem-12032416263D

 53 57  0     1  0  0  0  0  0999 V2000
   -1.3642    2.1215   -1.7857 O   0  0  0  0  0  0  0  0  0  0  0  0
   -3.6208    0.7813    0.7869 N   0  0  1  0  0  0  0  0  0  0  0  0
   -3.7770   -3.3319   -0.2719 N   0  0  0  0  0  0  0  0  0  0  0  0
   -0.7320    1.1093    0.1098 N   0  0  0  0  0  0  0  0  0  0  0  0
    0.0049    1.8594   -1.9219 N   0  0  0  0  0  0  0  0  0  0  0  0
    3.9386    0.5603   -1.1176 N   0  0  0  0  0  0  0  0  0  0  0  0
    5.4603   -0.4638    0.3437 N   0  0  0  0  0  0  0  0  0  0  0  0
    7.6283   -0.8482    0.0548 N   0  0  0  0  0  0  0  0  0  0  0  0
   -4.0682   -0.4491    0.1381 C   0  0  0  0  0  0  0  0  0  0  0  0
   -3.1710    1.8130   -0.1689 C   0  0  1  0  0  0  0  0  0  0  0  0
   -4.6778    1.3953    1.5908 C   0  0  0  0  0  0  0  0  0  0  0  0
   -2.9593   -1.0422   -0.7360 C   0  0  0  0  0  0  0  0  0  0  0  0
   -4.5086   -1.4720    1.1883 C   0  0  0  0  0  0  0  0  0  0  0  0
   -3.4471    3.1512    0.5413 C   0  0  0  0  0  0  0  0  0  0  0  0
   -4.1068    2.7729    1.8598 C   0  0  0  0  0  0  0  0  0  0  0  0
   -3.3879   -2.3872   -1.3282 C   0  0  0  0  0  0  0  0  0  0  0  0
   -4.8869   -2.8029    0.5330 C   0  0  0  0  0  0  0  0  0  0  0  0
   -1.7178    1.6487   -0.5618 C   0  0  0  0  0  0  0  0  0  0  0  0
   -4.1356   -4.6267   -0.8499 C   0  0  0  0  0  0  0  0  0  0  0  0
    0.3042    1.2618   -0.7647 C   0  0  0  0  0  0  0  0  0  0  0  0
    1.6278    0.8069   -0.4509 C   0  0  0  0  0  0  0  0  0  0  0  0
    1.9050    0.1899    0.7641 C   0  0  0  0  0  0  0  0  0  0  0  0
    2.6702    0.9668   -1.3495 C   0  0  0  0  0  0  0  0  0  0  0  0
    3.1977   -0.2419    1.0393 C   0  0  0  0  0  0  0  0  0  0  0  0
    4.1699   -0.0351    0.0739 C   0  0  0  0  0  0  0  0  0  0  0  0
    5.8860   -1.0826    1.4853 C   0  0  0  0  0  0  0  0  0  0  0  0
    6.5408   -0.3448   -0.4855 C   0  0  0  0  0  0  0  0  0  0  0  0
    7.2269   -1.3098    1.2834 C   0  0  0  0  0  0  0  0  0  0  0  0
   -4.9305   -0.2338   -0.5100 H   0  0  0  0  0  0  0  0  0  0  0  0
   -3.7855    1.7908   -1.0803 H   0  0  0  0  0  0  0  0  0  0  0  0
   -5.6227    1.4781    1.0390 H   0  0  0  0  0  0  0  0  0  0  0  0
   -4.8555    0.8748    2.5365 H   0  0  0  0  0  0  0  0  0  0  0  0
   -2.0428   -1.1950   -0.1521 H   0  0  0  0  0  0  0  0  0  0  0  0
   -2.7266   -0.4000   -1.5903 H   0  0  0  0  0  0  0  0  0  0  0  0
   -5.3834   -1.1224    1.7479 H   0  0  0  0  0  0  0  0  0  0  0  0
   -3.7046   -1.6419    1.9173 H   0  0  0  0  0  0  0  0  0  0  0  0
   -4.1433    3.7500   -0.0585 H   0  0  0  0  0  0  0  0  0  0  0  0
   -2.5489    3.7538    0.7145 H   0  0  0  0  0  0  0  0  0  0  0  0
   -4.8729    3.4937    2.1604 H   0  0  0  0  0  0  0  0  0  0  0  0
   -3.3514    2.7266    2.6542 H   0  0  0  0  0  0  0  0  0  0  0  0
   -4.2125   -2.2327   -2.0369 H   0  0  0  0  0  0  0  0  0  0  0  0
   -2.5429   -2.7950   -1.8965 H   0  0  0  0  0  0  0  0  0  0  0  0
   -5.1393   -3.5149    1.3283 H   0  0  0  0  0  0  0  0  0  0  0  0
   -5.7868   -2.6688   -0.0818 H   0  0  0  0  0  0  0  0  0  0  0  0
   -3.2913   -5.0459   -1.4085 H   0  0  0  0  0  0  0  0  0  0  0  0
   -4.9952   -4.5549   -1.5261 H   0  0  0  0  0  0  0  0  0  0  0  0
   -4.3770   -5.3470   -0.0603 H   0  0  0  0  0  0  0  0  0  0  0  0
    1.1331    0.0329    1.5133 H   0  0  0  0  0  0  0  0  0  0  0  0
    2.5379    1.4377   -2.3191 H   0  0  0  0  0  0  0  0  0  0  0  0
    3.3642   -0.7163    1.9978 H   0  0  0  0  0  0  0  0  0  0  0  0
    5.2693   -1.3229    2.3386 H   0  0  0  0  0  0  0  0  0  0  0  0
    6.4937    0.1109   -1.4660 H   0  0  0  0  0  0  0  0  0  0  0  0
    7.9238   -1.7823    1.9601 H   0  0  0  0  0  0  0  0  0  0  0  0
  1  5  1  0  0  0  0
  1 18  1  0  0  0  0
  2  9  1  0  0  0  0
  2 10  1  0  0  0  0
  2 11  1  0  0  0  0
  3 16  1  0  0  0  0
  3 17  1  0  0  0  0
  3 19  1  0  0  0  0
  4 18  2  0  0  0  0
  4 20  1  0  0  0  0
  5 20  2  0  0  0  0
  6 23  1  0  0  0  0
  6 25  2  0  0  0  0
  7 25  1  0  0  0  0
  7 26  1  0  0  0  0
  7 27  1  0  0  0  0
  8 27  2  0  0  0  0
  8 28  1  0  0  0  0
  9 12  1  0  0  0  0
  9 13  1  0  0  0  0
  9 29  1  0  0  0  0
 10 14  1  0  0  0  0
 10 18  1  0  0  0  0
 10 30  1  0  0  0  0
 11 15  1  0  0  0  0
 11 31  1  0  0  0  0
 11 32  1  0  0  0  0
 12 16  1  0  0  0  0
 12 33  1  0  0  0  0
 12 34  1  0  0  0  0
 13 17  1  0  0  0  0
 13 35  1  0  0  0  0
 13 36  1  0  0  0  0
 14 15  1  0  0  0  0
 14 37  1  0  0  0  0
 14 38  1  0  0  0  0
 15 39  1  0  0  0  0
 15 40  1  0  0  0  0
 16 41  1  0  0  0  0
 16 42  1  0  0  0  0
 17 43  1  0  0  0  0
 17 44  1  0  0  0  0
 19 45  1  0  0  0  0
 19 46  1  0  0  0  0
 19 47  1  0  0  0  0
 20 21  1  0  0  0  0
 21 22  1  0  0  0  0
 21 23  2  0  0  0  0
 22 24  2  0  0  0  0
 22 48  1  0  0  0  0
 23 49  1  0  0  0  0
 24 25  1  0  0  0  0
 24 50  1  0  0  0  0
 26 28  2  0  0  0  0
 26 51  1  0  0  0  0
 27 52  1  0  0  0  0
 28 53  1  0  0  0  0
M  END
> <PUBCHEM_COMPOUND_CID>
45783666

> <PUBCHEM_CONFORMER_RMSD>
0.8

> <PUBCHEM_CONFORMER_DIVERSEORDER>
1
44
49
68
27
70
40
55
71
69
62
59
67
64
5
17
20
6
72
25
63
19
77
8
73
74
33
16
38
36
32
26
31
75
58
21
56
66
22
61
28
45
10
39
52
76
29
30
7
53
54
24
50
34
35
23
12
78
42
14
2
9
18
51
48
60
47
3
11
79
65
13
41
15
4
57
43
37
46

> <PUBCHEM_MMFF94_PARTIAL_CHARGES>
30
1 -0.02
10 0.45
11 0.27
16 0.27
17 0.27
18 0.3
19 0.27
2 -0.81
20 0.46
21 0.05
22 -0.15
23 0.16
24 -0.15
25 0.29
26 -0.3
27 0.04
28 0.08
3 -0.81
4 -0.57
48 0.15
49 0.15
5 -0.41
50 0.15
51 0.15
52 0.15
53 0.15
6 -0.62
7 0.33
8 -0.57
9 0.27

> <PUBCHEM_EFFECTIVE_ROTOR_COUNT>
6.2

> <PUBCHEM_PHARMACOPHORE_FEATURES>
10
1 2 cation
1 3 cation
3 4 5 20 cation
3 6 7 25 cation
3 7 8 27 cation
5 1 4 5 18 20 rings
5 2 10 11 14 15 rings
5 7 8 26 27 28 rings
6 3 9 12 13 16 17 rings
6 6 21 22 23 24 25 rings

> <PUBCHEM_HEAVY_ATOM_COUNT>
28

> <PUBCHEM_ATOM_DEF_STEREO_COUNT>
1

> <PUBCHEM_ATOM_UDEF_STEREO_COUNT>
0

> <PUBCHEM_BOND_DEF_STEREO_COUNT>
0

> <PUBCHEM_BOND_UDEF_STEREO_COUNT>
0

> <PUBCHEM_ISOTOPIC_ATOM_COUNT>
0

> <PUBCHEM_COMPONENT_COUNT>
1

> <PUBCHEM_CACTVS_TAUTO_COUNT>
1

> <PUBCHEM_CONFORMER_ID>
02BA9A7200000001

> <PUBCHEM_MMFF94_ENERGY>
46.9657

> <PUBCHEM_FEATURE_SELFOVERLAP>
50.87

> <PUBCHEM_SHAPE_FINGERPRINT>
10305334 12 17749968661264770537
10319688 45 18408319977857146405
10319926 262 18059862757351208468
10622 236 18190176987208030687
11036077 4 18411422783007286545
11089746 13 10807640183065853448
11135926 11 15574992828523557288
11227150 75 16194774583738451887
11524674 6 17846210029849523719
11545043 162 18060132146289708264
11552529 35 18341610430120114961
11607047 403 17477192199576553264
11963148 33 18187919514376083034
12422481 6 18270684165007520830
12523318 42 18201722851399726697
12616971 3 17894922806260723708
12988421 55 17910965634641453993
13009979 54 18337114595962271141
13540713 5 18190758589835342125
13583140 156 17131829854577490249
13782708 43 18410567389026242282
14344974 204 18271806861022326422
14705955 166 17059790927332445801
14844126 61 18412267246745085859
14856354 85 18272652320732822188
14950920 106 18272931643625112024
15021287 119 17676213450805829924
15183329 4 17458063760055380978
15250474 111 18408323293703501230
15289351 153 10158824999315692042
15320294 125 18335146392981968583
15326921 28 17978222755900288529
15348495 7 18060132142295713688
15352257 5 18271529681255004358
15537594 2 17895478029298558072
16110190 28 18265050219807596962
17324776 126 17698705227846783286
17780758 139 18341892987338880913
17913733 40 16272212972817525886
18927931 339 17023474040243498568
20028762 73 18259983778244624250
21033648 29 16630259021391640765
21315759 148 18060700589912664386
21360442 33 17261299819405324039
220451 1 18262239916074744904
22956985 138 17982162637122712273
23522609 53 17971222307885779492
23523787 8 17757787271169913423
23569914 152 12255783802357194794
244849 19 16844751736768424588
24771293 8 18040999575475071780
25147074 1 18187942706565783716
2838139 119 10231747899569770754
312425 54 18201440212592445194
3383291 50 18343869918600785499
397830 11 18130496531592700616
4015057 19 16733278931872249428
4017518 198 18268426846271571775
4073 2 18130508544489665326
4169191 19 13326269517408931250
484985 159 18336536184316859095
4938544 92 18342737373430074265
5104073 3 18343861143581693064
5364581 5 17917137412113402184
5486654 36 18409451409950508377
559249 180 18260830393639049645
58260988 114 17313688022172736081
6009941 240 17774724152151749792
6058803 2 18119269473875035277
6431902 208 17894348886823808442
6691757 9 18271812277165119945
68570916 9 18409449207297066512
7495541 125 18341608235930143728
7970288 3 18191583266616882603
9896288 288 18340217289264498987
9953998 17 18342453721205313328

> <PUBCHEM_SHAPE_MULTIPOLES>
535.49
17.25
3.93
1.6
32.64
3.25
0.02
9.62
-6.29
-9.87
0.39
-0.2
-0.51
-2.7

> <PUBCHEM_SHAPE_SELFOVERLAP>
1166.967

> <PUBCHEM_SHAPE_VOLUME>
294.7

> <PUBCHEM_COORDINATE_TYPE>
2
5
10

$$$$
