11912157
  -OEChem-12032416203D

 41 44  0     1  0  0  0  0  0999 V2000
   -0.3375   -2.0972   -0.2474 O   0  0  0  0  0  0  0  0  0  0  0  0
    2.3123    1.9436   -0.2101 O   0  0  0  0  0  0  0  0  0  0  0  0
   -2.1025   -0.6323    0.2135 N   0  0  0  0  0  0  0  0  0  0  0  0
   -4.3865    0.4927   -1.7260 N   0  0  0  0  0  0  0  0  0  0  0  0
    1.5505   -0.1980    0.2818 N   0  0  0  0  0  0  0  0  0  0  0  0
    6.5072   -0.7060   -0.2128 N   0  0  0  0  0  0  0  0  0  0  0  0
   -4.5661   -1.3049    0.0129 C   0  0  2  0  0  0  0  0  0  0  0  0
   -3.9815    0.9755    0.6926 C   0  0  2  0  0  0  0  0  0  0  0  0
   -4.7857   -0.2577    1.0975 C   0  0  0  0  0  0  0  0  0  0  0  0
   -3.0845   -1.7045    0.0040 C   0  0  0  0  0  0  0  0  0  0  0  0
   -5.0397   -0.7601   -1.3486 C   0  0  0  0  0  0  0  0  0  0  0  0
   -4.4918    1.4991   -0.6667 C   0  0  0  0  0  0  0  0  0  0  0  0
   -2.5011    0.6503    0.6143 C   0  0  0  0  0  0  0  0  0  0  0  0
   -1.5828    1.5890    0.9080 C   0  0  0  0  0  0  0  0  0  0  0  0
   -0.7422   -0.9839    0.0866 C   0  0  0  0  0  0  0  0  0  0  0  0
    0.2222    0.0995    0.4033 C   0  0  0  0  0  0  0  0  0  0  0  0
   -0.1765    1.3090    0.7987 C   0  0  0  0  0  0  0  0  0  0  0  0
    2.5190    0.7478   -0.0192 C   0  0  0  0  0  0  0  0  0  0  0  0
    3.9137    0.2392   -0.0871 C   0  0  0  0  0  0  0  0  0  0  0  0
    4.8230    0.8936   -0.8837 C   0  0  0  0  0  0  0  0  0  0  0  0
    4.2543   -0.8705    0.6491 C   0  0  0  0  0  0  0  0  0  0  0  0
    6.1097    0.3806   -0.9124 C   0  0  0  0  0  0  0  0  0  0  0  0
    5.5666   -1.3047    0.5518 C   0  0  0  0  0  0  0  0  0  0  0  0
   -5.1628   -2.1977    0.2381 H   0  0  0  0  0  0  0  0  0  0  0  0
   -4.1488    1.7547    1.4477 H   0  0  0  0  0  0  0  0  0  0  0  0
   -4.4631   -0.6350    2.0760 H   0  0  0  0  0  0  0  0  0  0  0  0
   -5.8509   -0.0107    1.1825 H   0  0  0  0  0  0  0  0  0  0  0  0
   -2.9123   -2.4245    0.8158 H   0  0  0  0  0  0  0  0  0  0  0  0
   -2.8322   -2.2327   -0.9242 H   0  0  0  0  0  0  0  0  0  0  0  0
   -6.1263   -0.6079   -1.3214 H   0  0  0  0  0  0  0  0  0  0  0  0
   -4.8472   -1.5050   -2.1290 H   0  0  0  0  0  0  0  0  0  0  0  0
   -3.9191    2.3844   -0.9673 H   0  0  0  0  0  0  0  0  0  0  0  0
   -5.5369    1.8196   -0.5694 H   0  0  0  0  0  0  0  0  0  0  0  0
   -4.8030    0.8527   -2.5838 H   0  0  0  0  0  0  0  0  0  0  0  0
   -1.8717    2.5883    1.2168 H   0  0  0  0  0  0  0  0  0  0  0  0
    0.4771    2.1154    1.1048 H   0  0  0  0  0  0  0  0  0  0  0  0
    1.7811   -1.1846    0.1980 H   0  0  0  0  0  0  0  0  0  0  0  0
    4.5698    1.7665   -1.4739 H   0  0  0  0  0  0  0  0  0  0  0  0
    3.5736   -1.3956    1.3081 H   0  0  0  0  0  0  0  0  0  0  0  0
    6.8794    0.8449   -1.5202 H   0  0  0  0  0  0  0  0  0  0  0  0
    5.9083   -2.1702    1.1099 H   0  0  0  0  0  0  0  0  0  0  0  0
  1 15  2  0  0  0  0
  2 18  2  0  0  0  0
  3 10  1  0  0  0  0
  3 13  1  0  0  0  0
  3 15  1  0  0  0  0
  4 11  1  0  0  0  0
  4 12  1  0  0  0  0
  4 34  1  0  0  0  0
  5 16  1  0  0  0  0
  5 18  1  0  0  0  0
  5 37  1  0  0  0  0
  6 22  2  0  0  0  0
  6 23  1  0  0  0  0
  7  9  1  0  0  0  0
  7 10  1  0  0  0  0
  7 11  1  0  0  0  0
  7 24  1  0  0  0  0
  8  9  1  0  0  0  0
  8 12  1  0  0  0  0
  8 13  1  0  0  0  0
  8 25  1  0  0  0  0
  9 26  1  0  0  0  0
  9 27  1  0  0  0  0
 10 28  1  0  0  0  0
 10 29  1  0  0  0  0
 11 30  1  0  0  0  0
 11 31  1  0  0  0  0
 12 32  1  0  0  0  0
 12 33  1  0  0  0  0
 13 14  2  0  0  0  0
 14 17  1  0  0  0  0
 14 35  1  0  0  0  0
 15 16  1  0  0  0  0
 16 17  2  0  0  0  0
 17 36  1  0  0  0  0
 18 19  1  0  0  0  0
 19 20  2  0  0  0  0
 19 21  1  0  0  0  0
 20 22  1  0  0  0  0
 20 38  1  0  0  0  0
 21 23  2  0  0  0  0
 21 39  1  0  0  0  0
 22 40  1  0  0  0  0
 23 41  1  0  0  0  0
M  END
> <PUBCHEM_COMPOUND_CID>
11912157

> <PUBCHEM_CONFORMER_RMSD>
0.6

> <PUBCHEM_CONFORMER_DIVERSEORDER>
2
3
5
4
1
6

> <PUBCHEM_MMFF94_PARTIAL_CHARGES>
29
1 -0.57
10 0.3
11 0.27
12 0.27
13 -0.03
14 -0.15
15 0.62
16 0.12
17 -0.15
18 0.54
19 0.09
2 -0.57
20 -0.15
21 -0.15
22 0.16
23 0.16
3 -0.47
34 0.36
35 0.15
36 0.15
37 0.37
38 0.15
39 0.15
4 -0.9
40 0.15
41 0.15
5 -0.54
6 -0.62
8 0.14

> <PUBCHEM_EFFECTIVE_ROTOR_COUNT>
4

> <PUBCHEM_PHARMACOPHORE_FEATURES>
10
1 1 acceptor
1 2 acceptor
1 4 cation
1 4 donor
1 5 donor
1 6 acceptor
6 3 13 14 15 16 17 rings
6 3 7 8 9 10 13 rings
6 4 7 8 9 11 12 rings
6 6 19 20 21 22 23 rings

> <PUBCHEM_HEAVY_ATOM_COUNT>
23

> <PUBCHEM_ATOM_DEF_STEREO_COUNT>
2

> <PUBCHEM_ATOM_UDEF_STEREO_COUNT>
0

> <PUBCHEM_BOND_DEF_STEREO_COUNT>
0

> <PUBCHEM_BOND_UDEF_STEREO_COUNT>
0

> <PUBCHEM_ISOTOPIC_ATOM_COUNT>
0

> <PUBCHEM_COMPONENT_COUNT>
1

> <PUBCHEM_CACTVS_TAUTO_COUNT>
2

> <PUBCHEM_CONFORMER_ID>
00B5C3DD00000002

> <PUBCHEM_MMFF94_ENERGY>
65.7701

> <PUBCHEM_FEATURE_SELFOVERLAP>
52.294

> <PUBCHEM_SHAPE_FINGERPRINT>
106641 1 7997682130677994005
11089746 13 13334737972528479084
11315181 36 17561083613561574048
11578080 2 17243005762061569119
12107183 9 17615125491141462088
12166972 35 18261115217915343717
12236239 1 18260552212622582952
12516196 113 17704071803004995008
12616971 3 18343311387456399545
13288520 33 18131633400650655825
13533116 47 18201721713782311370
13583140 156 17530972409787917689
13782708 43 16415211014535777948
13862211 1 18273493485376379858
14251731 8 18410293605602410576
14251752 14 17894906305080391524
14573314 32 15647051543051907498
14848160 23 15410894054956133198
15099037 51 18411702092945868462
15183329 4 18260828185635476078
15196674 1 18412546543566878040
15788980 27 18114181938587292105
17093844 174 14333127442836055611
17349148 13 18131919268767175488
17834072 33 18334861627959640464
17844677 252 17022911154761793460
17857418 61 18412542094349816626
18681886 176 18272088331929688304
18927931 339 17917716803280116501
19489759 90 17275106111028473507
200 152 18272088300910213024
2026 5 17129604358447105630
20511986 3 18335127718595585930
21033648 29 16950556726849522597
21150785 3 17749108932432543686
21236236 1 18272091561181014817
21267235 1 18340775931075753395
21709351 56 18333448750801241485
220451 1 18410582777345216610
22061861 79 17894629232392704126
23198884 109 16226045595936590681
23402539 116 18131351899281999937
23522609 53 18055387787586281560
23536379 177 17603303739445457840
23559900 14 18200589310825478248
26918003 58 12391516377452968813
29717793 49 18412831257734640726
300161 21 18259702320425981856
3004659 81 18333733503655435778
335352 9 18342739616151789933
34797466 226 17275116072113213156
4214541 1 18409731759281699497
4340502 62 13398638263803423028
5104073 3 18201726201152380376
531348 171 17822845386474285691
542803 24 13912324581720415792
559249 180 18410571756105908538
59755656 215 18272655606340605694
59755656 520 17458349645673217963
7226269 152 17988929937770023553
7495541 125 17060614517102105984

> <PUBCHEM_SHAPE_MULTIPOLES>
441.67
15.09
1.75
1.09
14.92
0.09
0.23
2.04
3.2
-0.66
-0.05
-0.86
-0.13
-0.7

> <PUBCHEM_SHAPE_SELFOVERLAP>
972.922

> <PUBCHEM_SHAPE_VOLUME>
227.9

> <PUBCHEM_COORDINATE_TYPE>
2
5
10

$$$$
