75536113
  -OEChem-12032416293D

 45 47  0     1  0  0  0  0  0999 V2000
    2.5632    2.3851   -1.7087 O   0  0  0  0  0  0  0  0  0  0  0  0
    3.1001    3.8404    0.5877 O   0  0  0  0  0  0  0  0  0  0  0  0
   -5.7796   -0.2385   -1.0943 O   0  0  0  0  0  0  0  0  0  0  0  0
   -0.3414    1.0117   -0.0295 N   0  0  0  0  0  0  0  0  0  0  0  0
    2.9989   -3.2914    0.6289 N   0  0  0  0  0  0  0  0  0  0  0  0
    1.0496    0.9731   -0.4861 C   0  0  2  0  0  0  0  0  0  0  0  0
    1.9480    0.3533    0.6286 C   0  0  2  0  0  0  0  0  0  0  0  0
    1.5771    2.4040   -0.6776 C   0  0  1  0  0  0  0  0  0  0  0  0
    2.9374    1.4622    1.0363 C   0  0  0  0  0  0  0  0  0  0  0  0
    2.2092    2.7466    0.6680 C   0  0  1  0  0  0  0  0  0  0  0  0
    2.6305   -0.9363    0.2257 C   0  0  0  0  0  0  0  0  0  0  0  0
   -0.9697   -0.2945   -0.1672 C   0  0  0  0  0  0  0  0  0  0  0  0
    3.4888   -0.9817   -0.8673 C   0  0  0  0  0  0  0  0  0  0  0  0
    2.4208   -2.1082    0.9347 C   0  0  0  0  0  0  0  0  0  0  0  0
   -2.3995   -0.2814    0.3045 C   0  0  0  0  0  0  0  0  0  0  0  0
    4.1024   -2.1806   -1.2131 C   0  0  0  0  0  0  0  0  0  0  0  0
    3.8268   -3.2968   -0.4398 C   0  0  0  0  0  0  0  0  0  0  0  0
   -3.4401   -0.2667   -0.6243 C   0  0  0  0  0  0  0  0  0  0  0  0
   -2.6836   -0.2831    1.6702 C   0  0  0  0  0  0  0  0  0  0  0  0
   -4.7648   -0.2539   -0.1875 C   0  0  0  0  0  0  0  0  0  0  0  0
   -4.0083   -0.2701    2.1070 C   0  0  0  0  0  0  0  0  0  0  0  0
   -5.0489   -0.2558    1.1782 C   0  0  0  0  0  0  0  0  0  0  0  0
   -5.4170   -0.2375   -2.4745 C   0  0  0  0  0  0  0  0  0  0  0  0
    1.1164    0.4259   -1.4350 H   0  0  0  0  0  0  0  0  0  0  0  0
    1.3361    0.1462    1.5191 H   0  0  0  0  0  0  0  0  0  0  0  0
    0.8185    3.1371   -0.9706 H   0  0  0  0  0  0  0  0  0  0  0  0
    3.1729    1.4247    2.1060 H   0  0  0  0  0  0  0  0  0  0  0  0
    3.8977    1.3990    0.5101 H   0  0  0  0  0  0  0  0  0  0  0  0
    1.4334    2.9744    1.4089 H   0  0  0  0  0  0  0  0  0  0  0  0
   -0.8609    1.6835   -0.5952 H   0  0  0  0  0  0  0  0  0  0  0  0
   -0.4384   -1.0567    0.4147 H   0  0  0  0  0  0  0  0  0  0  0  0
   -0.9330   -0.6286   -1.2122 H   0  0  0  0  0  0  0  0  0  0  0  0
    2.1135    2.1486   -2.5379 H   0  0  0  0  0  0  0  0  0  0  0  0
    3.5256    3.9353    1.4569 H   0  0  0  0  0  0  0  0  0  0  0  0
    3.6926   -0.0965   -1.4617 H   0  0  0  0  0  0  0  0  0  0  0  0
    1.7626   -2.1393    1.7974 H   0  0  0  0  0  0  0  0  0  0  0  0
    4.7750   -2.2396   -2.0611 H   0  0  0  0  0  0  0  0  0  0  0  0
    4.2801   -4.2559   -0.6678 H   0  0  0  0  0  0  0  0  0  0  0  0
   -3.1637   -0.2625   -1.6734 H   0  0  0  0  0  0  0  0  0  0  0  0
   -1.8812   -0.2948    2.4033 H   0  0  0  0  0  0  0  0  0  0  0  0
   -4.2296   -0.2714    3.1703 H   0  0  0  0  0  0  0  0  0  0  0  0
   -6.0788   -0.2456    1.5244 H   0  0  0  0  0  0  0  0  0  0  0  0
   -6.3470   -0.2256   -3.0524 H   0  0  0  0  0  0  0  0  0  0  0  0
   -4.8816   -1.1521   -2.7510 H   0  0  0  0  0  0  0  0  0  0  0  0
   -4.8623    0.6676   -2.7445 H   0  0  0  0  0  0  0  0  0  0  0  0
  1  8  1  0  0  0  0
  1 33  1  0  0  0  0
  2 10  1  0  0  0  0
  2 34  1  0  0  0  0
  3 20  1  0  0  0  0
  3 23  1  0  0  0  0
  4  6  1  0  0  0  0
  4 12  1  0  0  0  0
  4 30  1  0  0  0  0
  5 14  1  0  0  0  0
  5 17  2  0  0  0  0
  6  7  1  0  0  0  0
  6  8  1  0  0  0  0
  6 24  1  0  0  0  0
  7  9  1  0  0  0  0
  7 11  1  0  0  0  0
  7 25  1  0  0  0  0
  8 10  1  0  0  0  0
  8 26  1  0  0  0  0
  9 10  1  0  0  0  0
  9 27  1  0  0  0  0
  9 28  1  0  0  0  0
 10 29  1  0  0  0  0
 11 13  1  0  0  0  0
 11 14  2  0  0  0  0
 12 15  1  0  0  0  0
 12 31  1  0  0  0  0
 12 32  1  0  0  0  0
 13 16  2  0  0  0  0
 13 35  1  0  0  0  0
 14 36  1  0  0  0  0
 15 18  2  0  0  0  0
 15 19  1  0  0  0  0
 16 17  1  0  0  0  0
 16 37  1  0  0  0  0
 17 38  1  0  0  0  0
 18 20  1  0  0  0  0
 18 39  1  0  0  0  0
 19 21  2  0  0  0  0
 19 40  1  0  0  0  0
 20 22  2  0  0  0  0
 21 22  1  0  0  0  0
 21 41  1  0  0  0  0
 22 42  1  0  0  0  0
 23 43  1  0  0  0  0
 23 44  1  0  0  0  0
 23 45  1  0  0  0  0
M  END
> <PUBCHEM_COMPOUND_CID>
75536113

> <PUBCHEM_CONFORMER_RMSD>
0.8

> <PUBCHEM_CONFORMER_DIVERSEORDER>
4
106
150
105
135
75
34
13
161
188
104
143
81
113
151
111
160
61
167
141
51
164
119
174
89
10
41
180
108
83
117
40
153
55
95
47
71
118
156
80
187
146
88
65
183
29
173
56
85
129
186
14
152
15
148
59
86
139
184
97
37
122
94
62
21
115
158
110
60
140
121
93
92
169
134
82
98
17
157
23
74
130
90
39
177
9
72
73
175
57
99
171
84
132
8
53
176
42
163
126
6
12
166
185
50
142
147
78
172
182
138
155
7
154
77
149
181
67
168
136
38
58
127
124
178
33
103
22
159
96
76
162
165
144
43
31
120
16
133
179
19
44
24
63
145
30
48
54
11
131
79
25
125
107
32
116
102
114
91
70
26
109
28
128
66
101
112
87
52
5
170
123
49
68
36
45
20
27
69
64
46
1
137
35
18
2
100
3

> <PUBCHEM_MMFF94_PARTIAL_CHARGES>
33
1 -0.68
10 0.28
11 -0.14
12 0.41
13 -0.15
14 0.16
15 -0.14
16 -0.15
17 0.16
18 -0.15
19 -0.15
2 -0.68
20 0.08
21 -0.15
22 -0.15
23 0.28
3 -0.36
30 0.36
33 0.4
34 0.4
35 0.15
36 0.15
37 0.15
38 0.15
39 0.15
4 -0.9
40 0.15
41 0.15
42 0.15
5 -0.62
6 0.27
7 0.14
8 0.28

> <PUBCHEM_EFFECTIVE_ROTOR_COUNT>
6

> <PUBCHEM_PHARMACOPHORE_FEATURES>
11
1 1 acceptor
1 1 donor
1 2 acceptor
1 2 donor
1 3 acceptor
1 4 cation
1 4 donor
1 5 acceptor
5 6 7 8 9 10 rings
6 15 18 19 20 21 22 rings
6 5 11 13 14 16 17 rings

> <PUBCHEM_HEAVY_ATOM_COUNT>
23

> <PUBCHEM_ATOM_DEF_STEREO_COUNT>
4

> <PUBCHEM_ATOM_UDEF_STEREO_COUNT>
0

> <PUBCHEM_BOND_DEF_STEREO_COUNT>
0

> <PUBCHEM_BOND_UDEF_STEREO_COUNT>
0

> <PUBCHEM_ISOTOPIC_ATOM_COUNT>
0

> <PUBCHEM_COMPONENT_COUNT>
1

> <PUBCHEM_CACTVS_TAUTO_COUNT>
1

> <PUBCHEM_CONFORMER_ID>
048096F100000004

> <PUBCHEM_MMFF94_ENERGY>
75.4054

> <PUBCHEM_FEATURE_SELFOVERLAP>
55.831

> <PUBCHEM_SHAPE_FINGERPRINT>
11315621 136 18269834370898952447
114674 6 18333168358335819714
11954058 11 17060059207631851278
12107183 9 17913221866696936121
12403259 415 17603308159541746865
12553582 1 18339084765933107458
12596602 18 16630234819177380562
12616971 3 17988931055141787667
12788726 201 17397542009512383520
13533116 47 18339653316950585883
13583140 156 18127406968095044013
13911852 28 18055073151288248134
13955234 65 18340775943601861992
14251764 30 17272866303439355718
14347329 18 16009865005994263213
14739800 52 16558175120689120832
14950920 106 18052857769203224115
15142526 21 17340957172471532424
15188451 53 16701440283466963615
15806764 133 17458356238484881477
17349148 13 17632857512731425655
17818456 19 17702393836286118761
1813 80 18128831741590803702
18222031 100 18201153235393720462
18681886 176 15266504083262953000
20157964 124 18337659923902280021
20369508 70 18408600336210619794
20645477 70 18335699468425462703
20832881 197 18189900812078168427
21033648 29 17675921011083242717
21065201 7 16588026827366417547
21304303 282 17049334854888210452
21728266 224 16558456531758487303
2215653 11 18040997307178106887
22224240 67 18129644423002934392
2255824 54 18342183288615790066
23559900 14 17894354384360367389
25222932 49 16053751153344232583
268830 7 18130798875641630353
312423 11 18271822206702051977
314194 84 18339932515115133438
3421961 26 18411420583757184242
3633792 109 18201144495672810677
46194498 28 17241632643552110887
495365 180 18260540173523388113
573450 72 16988844956593105835
57724786 102 18187378648801183909
59682541 52 18336246991510524327
6823239 73 16805897272027800341
7471813 234 18130506349007139777
7615 1 17632302276428374713
960060 61 18187930542796447151
9841814 1 18334288739335962618
9971528 1 18271805692325860914

> <PUBCHEM_SHAPE_MULTIPOLES>
445.76
11.63
3.49
1.74
15.92
1.08
0.3
-4.81
2.56
-8.03
-0.02
2.23
-0.06
0.26

> <PUBCHEM_SHAPE_SELFOVERLAP>
949.218

> <PUBCHEM_SHAPE_VOLUME>
248.5

> <PUBCHEM_COORDINATE_TYPE>
2
5
10

$$$$
