11865702
  -OEChem-12032416283D

 50 50  0     1  0  0  0  0  0999 V2000
   -0.7850    2.2898    1.6780 O   0  0  0  0  0  0  0  0  0  0  0  0
    0.2994    3.7013   -1.5180 O   0  0  0  0  0  0  0  0  0  0  0  0
   -3.3482    0.5256   -1.2277 O   0  0  0  0  0  0  0  0  0  0  0  0
    4.0300    1.0043   -0.8260 O   0  0  0  0  0  0  0  0  0  0  0  0
    3.3743   -2.9662   -0.1484 O   0  0  0  0  0  0  0  0  0  0  0  0
   -1.5451    0.1003    0.1672 N   0  0  0  0  0  0  0  0  0  0  0  0
   -4.9909   -0.7418    0.5627 N   0  0  0  0  0  0  0  0  0  0  0  0
    3.2259   -0.3761    0.8718 N   0  0  0  0  0  0  0  0  0  0  0  0
    5.6639   -2.7661   -0.2089 N   0  0  0  0  0  0  0  0  0  0  0  0
   -0.6433    1.0649   -0.4134 C   0  0  1  0  0  0  0  0  0  0  0  0
   -0.7790    2.4453    0.2573 C   0  0  2  0  0  0  0  0  0  0  0  0
    0.3766    3.3756   -0.1318 C   0  0  1  0  0  0  0  0  0  0  0  0
    1.7491    2.7596    0.1898 C   0  0  0  0  0  0  0  0  0  0  0  0
    0.7562    0.5142   -0.3629 C   0  0  0  0  0  0  0  0  0  0  0  0
    1.8188    1.2838   -0.0829 C   0  0  0  0  0  0  0  0  0  0  0  0
   -3.5895   -1.1630    0.4975 C   0  0  1  0  0  0  0  0  0  0  0  0
   -3.4568   -2.5781   -0.1132 C   0  0  0  0  0  0  0  0  0  0  0  0
   -2.8393   -0.0922   -0.2937 C   0  0  0  0  0  0  0  0  0  0  0  0
    3.1353    0.6395   -0.0639 C   0  0  0  0  0  0  0  0  0  0  0  0
   -2.0177   -3.1035   -0.1618 C   0  0  0  0  0  0  0  0  0  0  0  0
   -4.0833   -2.6572   -1.5087 C   0  0  0  0  0  0  0  0  0  0  0  0
   -5.1749    0.2697    1.5905 C   0  0  0  0  0  0  0  0  0  0  0  0
    4.4241   -1.1586    1.0741 C   0  0  0  0  0  0  0  0  0  0  0  0
    4.3995   -2.3711    0.1722 C   0  0  0  0  0  0  0  0  0  0  0  0
   -0.9020    1.1692   -1.4754 H   0  0  0  0  0  0  0  0  0  0  0  0
   -1.7408    2.8868   -0.0309 H   0  0  0  0  0  0  0  0  0  0  0  0
    0.2871    4.3189    0.4207 H   0  0  0  0  0  0  0  0  0  0  0  0
    1.9684    2.9121    1.2541 H   0  0  0  0  0  0  0  0  0  0  0  0
    2.5273    3.2766   -0.3842 H   0  0  0  0  0  0  0  0  0  0  0  0
    0.8846   -0.5410   -0.5955 H   0  0  0  0  0  0  0  0  0  0  0  0
   -1.2248   -0.4291    0.9735 H   0  0  0  0  0  0  0  0  0  0  0  0
   -3.1765   -1.2185    1.5142 H   0  0  0  0  0  0  0  0  0  0  0  0
   -4.0188   -3.2679    0.5325 H   0  0  0  0  0  0  0  0  0  0  0  0
   -0.9023    3.1726    2.0683 H   0  0  0  0  0  0  0  0  0  0  0  0
    1.0187    4.3253   -1.7144 H   0  0  0  0  0  0  0  0  0  0  0  0
   -5.5772   -1.5434    0.7958 H   0  0  0  0  0  0  0  0  0  0  0  0
   -2.0018   -4.1531   -0.4745 H   0  0  0  0  0  0  0  0  0  0  0  0
   -1.5493   -3.0431    0.8260 H   0  0  0  0  0  0  0  0  0  0  0  0
   -1.4034   -2.5381   -0.8698 H   0  0  0  0  0  0  0  0  0  0  0  0
   -5.1399   -2.3731   -1.5025 H   0  0  0  0  0  0  0  0  0  0  0  0
   -4.0316   -3.6836   -1.8896 H   0  0  0  0  0  0  0  0  0  0  0  0
   -3.5592   -2.0175   -2.2261 H   0  0  0  0  0  0  0  0  0  0  0  0
    2.4242   -0.5958    1.4562 H   0  0  0  0  0  0  0  0  0  0  0  0
   -4.5867    1.1713    1.3917 H   0  0  0  0  0  0  0  0  0  0  0  0
   -4.9198   -0.1112    2.5851 H   0  0  0  0  0  0  0  0  0  0  0  0
   -6.2270    0.5716    1.6137 H   0  0  0  0  0  0  0  0  0  0  0  0
    4.4456   -1.4914    2.1158 H   0  0  0  0  0  0  0  0  0  0  0  0
    5.3017   -0.5360    0.8733 H   0  0  0  0  0  0  0  0  0  0  0  0
    5.7981   -3.5761   -0.8050 H   0  0  0  0  0  0  0  0  0  0  0  0
    6.5021   -2.2741    0.0838 H   0  0  0  0  0  0  0  0  0  0  0  0
  1 11  1  0  0  0  0
  1 34  1  0  0  0  0
  2 12  1  0  0  0  0
  2 35  1  0  0  0  0
  3 18  2  0  0  0  0
  4 19  2  0  0  0  0
  5 24  2  0  0  0  0
  6 10  1  0  0  0  0
  6 18  1  0  0  0  0
  6 31  1  0  0  0  0
  7 16  1  0  0  0  0
  7 22  1  0  0  0  0
  7 36  1  0  0  0  0
  8 19  1  0  0  0  0
  8 23  1  0  0  0  0
  8 43  1  0  0  0  0
  9 24  1  0  0  0  0
  9 49  1  0  0  0  0
  9 50  1  0  0  0  0
 10 11  1  0  0  0  0
 10 14  1  0  0  0  0
 10 25  1  0  0  0  0
 11 12  1  0  0  0  0
 11 26  1  0  0  0  0
 12 13  1  0  0  0  0
 12 27  1  0  0  0  0
 13 15  1  0  0  0  0
 13 28  1  0  0  0  0
 13 29  1  0  0  0  0
 14 15  2  0  0  0  0
 14 30  1  0  0  0  0
 15 19  1  0  0  0  0
 16 17  1  0  0  0  0
 16 18  1  0  0  0  0
 16 32  1  0  0  0  0
 17 20  1  0  0  0  0
 17 21  1  0  0  0  0
 17 33  1  0  0  0  0
 20 37  1  0  0  0  0
 20 38  1  0  0  0  0
 20 39  1  0  0  0  0
 21 40  1  0  0  0  0
 21 41  1  0  0  0  0
 21 42  1  0  0  0  0
 22 44  1  0  0  0  0
 22 45  1  0  0  0  0
 22 46  1  0  0  0  0
 23 24  1  0  0  0  0
 23 47  1  0  0  0  0
 23 48  1  0  0  0  0
M  END
> <PUBCHEM_COMPOUND_CID>
11865702

> <PUBCHEM_CONFORMER_RMSD>
1

> <PUBCHEM_CONFORMER_DIVERSEORDER>
1
33
37
15
11
23
7
32
9
30
28
12
16
35
41
26
39
31
14
34
36
20
6
29
17
22
13
10
4
40
21
3
42
27
25
8
24
38
19
5
18
2

> <PUBCHEM_MMFF94_PARTIAL_CHARGES>
29
1 -0.68
10 0.44
11 0.28
12 0.28
13 0.14
14 -0.29
15 -0.12
16 0.33
18 0.57
19 0.62
2 -0.68
22 0.27
23 0.36
24 0.57
3 -0.57
30 0.15
31 0.37
34 0.4
35 0.4
36 0.36
4 -0.57
43 0.37
49 0.37
5 -0.57
50 0.37
6 -0.73
7 -0.9
8 -0.73
9 -0.8

> <PUBCHEM_EFFECTIVE_ROTOR_COUNT>
9.8

> <PUBCHEM_PHARMACOPHORE_FEATURES>
14
1 1 acceptor
1 1 donor
1 2 acceptor
1 2 donor
1 3 acceptor
1 4 acceptor
1 5 acceptor
1 6 donor
1 7 cation
1 7 donor
1 8 donor
1 9 donor
3 17 20 21 hydrophobe
6 10 11 12 13 14 15 rings

> <PUBCHEM_HEAVY_ATOM_COUNT>
24

> <PUBCHEM_ATOM_DEF_STEREO_COUNT>
4

> <PUBCHEM_ATOM_UDEF_STEREO_COUNT>
0

> <PUBCHEM_BOND_DEF_STEREO_COUNT>
0

> <PUBCHEM_BOND_UDEF_STEREO_COUNT>
0

> <PUBCHEM_ISOTOPIC_ATOM_COUNT>
0

> <PUBCHEM_COMPONENT_COUNT>
1

> <PUBCHEM_CACTVS_TAUTO_COUNT>
8

> <PUBCHEM_CONFORMER_ID>
00B50E6600000001

> <PUBCHEM_MMFF94_ENERGY>
40.8344

> <PUBCHEM_FEATURE_SELFOVERLAP>
71.055

> <PUBCHEM_SHAPE_FINGERPRINT>
10622 236 17915159438066637855
11135926 11 18263924513601342708
12107183 9 18341623577426445681
12553582 1 18410571807877410254
12633257 1 18342182197825926815
12760667 363 18270957942848351183
12788726 201 18130243574323447329
13004483 165 18408885100931819432
13533116 47 18053659463504070991
13690498 29 18118414951681875606
14866123 147 18051973619598278889
15042514 8 18193843638979309145
15250474 111 18125717031191940207
15352361 1 18410851053887816218
15537594 2 18337402620453047374
17492 89 18194683898223849571
17818456 19 18130804360219928449
1813 80 18040159512870209212
20281475 54 18411698815638031709
20621476 51 18129086987107714495
20775530 9 18333726888809908854
21703447 108 17340676797628200635
2255824 54 17974569409657422788
23559900 14 18048866683290375757
3004659 81 18113335293576020254
3421961 26 18411135878907194112
463206 1 18334860562481385762
5104073 3 18056486273412147387
56633871 153 18343305825495220299
6433294 58 18048876591548325738
7097593 13 18268428117148861023
7808743 9 9438531628353660766

> <PUBCHEM_SHAPE_MULTIPOLES>
444.64
10.7
4.61
1.18
0.89
0.21
0.07
-10.52
1.56
2.35
-0.88
-0.89
0.29
-1.29

> <PUBCHEM_SHAPE_SELFOVERLAP>
892.809

> <PUBCHEM_SHAPE_VOLUME>
258.6

> <PUBCHEM_COORDINATE_TYPE>
2
5
10

$$$$
