75536035
  -OEChem-12032416323D

 73 76  0     1  0  0  0  0  0999 V2000
   -0.7751    3.5573   -0.3398 O   0  0  0  0  0  0  0  0  0  0  0  0
   -4.9693   -5.0548    0.4994 O   0  0  0  0  0  0  0  0  0  0  0  0
    0.5127   -1.9530    1.5809 O   0  0  0  0  0  0  0  0  0  0  0  0
   -1.0319   -2.8290   -1.5997 O   0  0  0  0  0  0  0  0  0  0  0  0
    5.1945   -2.7085   -0.2763 O   0  0  0  0  0  0  0  0  0  0  0  0
    3.8465   -1.7742   -1.8881 O   0  0  0  0  0  0  0  0  0  0  0  0
   -1.7772    1.5012    0.0796 N   0  0  0  0  0  0  0  0  0  0  0  0
   -1.6095   -1.3705    0.0985 N   0  0  0  0  0  0  0  0  0  0  0  0
   -3.1982    6.2877    0.0078 N   0  0  0  0  0  0  0  0  0  0  0  0
   -2.7819   -3.4319   -0.2276 N   0  0  0  0  0  0  0  0  0  0  0  0
    1.9236   -1.0792   -0.0516 N   0  0  0  0  0  0  0  0  0  0  0  0
    3.8165    2.9146    0.4893 N   0  0  0  0  0  0  0  0  0  0  0  0
   -3.1212    3.4291   -0.6433 C   0  0  0  0  0  0  0  0  0  0  0  0
   -0.4104   -0.5491   -0.1142 C   0  0  1  0  0  0  0  0  0  0  0  0
   -0.5266    0.8568    0.4759 C   0  0  0  0  0  0  0  0  0  0  0  0
   -2.9848    0.6700    0.1315 C   0  0  0  0  0  0  0  0  0  0  0  0
   -2.7345   -0.6979    0.7651 C   0  0  0  0  0  0  0  0  0  0  0  0
   -1.7814    2.8465   -0.2916 C   0  0  0  0  0  0  0  0  0  0  0  0
   -3.8247    3.9701    0.6031 C   0  0  0  0  0  0  0  0  0  0  0  0
   -2.9787    4.5192   -1.7077 C   0  0  0  0  0  0  0  0  0  0  0  0
   -3.2234    5.2932    1.0798 C   0  0  0  0  0  0  0  0  0  0  0  0
   -2.4131    5.8192   -1.1337 C   0  0  0  0  0  0  0  0  0  0  0  0
    0.7037   -1.2799    0.5714 C   0  0  0  0  0  0  0  0  0  0  0  0
   -1.7636   -2.5598   -0.6389 C   0  0  0  0  0  0  0  0  0  0  0  0
   -2.9481   -3.8972    1.1547 C   0  0  0  0  0  0  0  0  0  0  0  0
   -3.4350   -4.2866   -1.2171 C   0  0  0  0  0  0  0  0  0  0  0  0
    3.1596   -1.6559    0.4258 C   0  0  2  0  0  0  0  0  0  0  0  0
   -4.4192   -4.1419    1.4551 C   0  0  0  0  0  0  0  0  0  0  0  0
   -4.8874   -4.5263   -0.8274 C   0  0  0  0  0  0  0  0  0  0  0  0
    3.8523   -0.7516    1.4558 C   0  0  0  0  0  0  0  0  0  0  0  0
    4.0926   -2.0386   -0.7157 C   0  0  0  0  0  0  0  0  0  0  0  0
    4.3068    0.5864    0.9178 C   0  0  0  0  0  0  0  0  0  0  0  0
    5.5752    0.7453    0.3708 C   0  0  0  0  0  0  0  0  0  0  0  0
    3.4727    1.6923    0.9534 C   0  0  0  0  0  0  0  0  0  0  0  0
    5.9653    1.9876   -0.1170 C   0  0  0  0  0  0  0  0  0  0  0  0
    6.1163   -3.1213   -1.2905 C   0  0  0  0  0  0  0  0  0  0  0  0
    5.0570    3.0307   -0.0353 C   0  0  0  0  0  0  0  0  0  0  0  0
   -3.7494    2.6572   -1.0975 H   0  0  0  0  0  0  0  0  0  0  0  0
   -0.2322   -0.4907   -1.1950 H   0  0  0  0  0  0  0  0  0  0  0  0
   -0.5153    0.8342    1.5735 H   0  0  0  0  0  0  0  0  0  0  0  0
    0.3295    1.4670    0.1692 H   0  0  0  0  0  0  0  0  0  0  0  0
   -3.3228    0.5320   -0.9026 H   0  0  0  0  0  0  0  0  0  0  0  0
   -3.7741    1.1854    0.6832 H   0  0  0  0  0  0  0  0  0  0  0  0
   -2.4747   -0.5969    1.8249 H   0  0  0  0  0  0  0  0  0  0  0  0
   -3.6506   -1.2879    0.6917 H   0  0  0  0  0  0  0  0  0  0  0  0
   -3.7844    3.2544    1.4313 H   0  0  0  0  0  0  0  0  0  0  0  0
   -4.8866    4.1255    0.3714 H   0  0  0  0  0  0  0  0  0  0  0  0
   -3.9673    4.7246   -2.1397 H   0  0  0  0  0  0  0  0  0  0  0  0
   -2.3413    4.1766   -2.5319 H   0  0  0  0  0  0  0  0  0  0  0  0
   -2.2136    5.1389    1.4783 H   0  0  0  0  0  0  0  0  0  0  0  0
   -3.8312    5.6820    1.9045 H   0  0  0  0  0  0  0  0  0  0  0  0
   -2.4609    6.5864   -1.9156 H   0  0  0  0  0  0  0  0  0  0  0  0
   -1.3567    5.7401   -0.8626 H   0  0  0  0  0  0  0  0  0  0  0  0
   -2.7947    7.1547    0.3613 H   0  0  0  0  0  0  0  0  0  0  0  0
   -2.3842   -4.8348    1.2330 H   0  0  0  0  0  0  0  0  0  0  0  0
   -2.5024   -3.1913    1.8605 H   0  0  0  0  0  0  0  0  0  0  0  0
   -3.3684   -3.8293   -2.2099 H   0  0  0  0  0  0  0  0  0  0  0  0
   -2.8801   -5.2320   -1.2377 H   0  0  0  0  0  0  0  0  0  0  0  0
    1.9685   -0.4808   -0.8716 H   0  0  0  0  0  0  0  0  0  0  0  0
    2.8953   -2.5984    0.9234 H   0  0  0  0  0  0  0  0  0  0  0  0
   -4.5314   -4.5879    2.4481 H   0  0  0  0  0  0  0  0  0  0  0  0
   -4.9972   -3.2109    1.4376 H   0  0  0  0  0  0  0  0  0  0  0  0
   -5.4722   -3.6002   -0.8813 H   0  0  0  0  0  0  0  0  0  0  0  0
   -5.3447   -5.2513   -1.5078 H   0  0  0  0  0  0  0  0  0  0  0  0
    3.1761   -0.5751    2.3034 H   0  0  0  0  0  0  0  0  0  0  0  0
    4.7217   -1.2679    1.8838 H   0  0  0  0  0  0  0  0  0  0  0  0
    6.2710   -0.0874    0.3229 H   0  0  0  0  0  0  0  0  0  0  0  0
    2.4750    1.6339    1.3758 H   0  0  0  0  0  0  0  0  0  0  0  0
    6.9495    2.1349   -0.5467 H   0  0  0  0  0  0  0  0  0  0  0  0
    6.9456   -3.6417   -0.8042 H   0  0  0  0  0  0  0  0  0  0  0  0
    6.5114   -2.2491   -1.8200 H   0  0  0  0  0  0  0  0  0  0  0  0
    5.6294   -3.8100   -1.9874 H   0  0  0  0  0  0  0  0  0  0  0  0
    5.3126    4.0195   -0.4016 H   0  0  0  0  0  0  0  0  0  0  0  0
  1 18  2  0  0  0  0
  2 28  1  0  0  0  0
  2 29  1  0  0  0  0
  3 23  2  0  0  0  0
  4 24  2  0  0  0  0
  5 31  1  0  0  0  0
  5 36  1  0  0  0  0
  6 31  2  0  0  0  0
  7 15  1  0  0  0  0
  7 16  1  0  0  0  0
  7 18  1  0  0  0  0
  8 14  1  0  0  0  0
  8 17  1  0  0  0  0
  8 24  1  0  0  0  0
  9 21  1  0  0  0  0
  9 22  1  0  0  0  0
  9 54  1  0  0  0  0
 10 24  1  0  0  0  0
 10 25  1  0  0  0  0
 10 26  1  0  0  0  0
 11 23  1  0  0  0  0
 11 27  1  0  0  0  0
 11 59  1  0  0  0  0
 12 34  1  0  0  0  0
 12 37  2  0  0  0  0
 13 18  1  0  0  0  0
 13 19  1  0  0  0  0
 13 20  1  0  0  0  0
 13 38  1  0  0  0  0
 14 15  1  0  0  0  0
 14 23  1  0  0  0  0
 14 39  1  0  0  0  0
 15 40  1  0  0  0  0
 15 41  1  0  0  0  0
 16 17  1  0  0  0  0
 16 42  1  0  0  0  0
 16 43  1  0  0  0  0
 17 44  1  0  0  0  0
 17 45  1  0  0  0  0
 19 21  1  0  0  0  0
 19 46  1  0  0  0  0
 19 47  1  0  0  0  0
 20 22  1  0  0  0  0
 20 48  1  0  0  0  0
 20 49  1  0  0  0  0
 21 50  1  0  0  0  0
 21 51  1  0  0  0  0
 22 52  1  0  0  0  0
 22 53  1  0  0  0  0
 25 28  1  0  0  0  0
 25 55  1  0  0  0  0
 25 56  1  0  0  0  0
 26 29  1  0  0  0  0
 26 57  1  0  0  0  0
 26 58  1  0  0  0  0
 27 30  1  0  0  0  0
 27 31  1  0  0  0  0
 27 60  1  0  0  0  0
 28 61  1  0  0  0  0
 28 62  1  0  0  0  0
 29 63  1  0  0  0  0
 29 64  1  0  0  0  0
 30 32  1  0  0  0  0
 30 65  1  0  0  0  0
 30 66  1  0  0  0  0
 32 33  1  0  0  0  0
 32 34  2  0  0  0  0
 33 35  2  0  0  0  0
 33 67  1  0  0  0  0
 34 68  1  0  0  0  0
 35 37  1  0  0  0  0
 35 69  1  0  0  0  0
 36 70  1  0  0  0  0
 36 71  1  0  0  0  0
 36 72  1  0  0  0  0
 37 73  1  0  0  0  0
M  END
> <PUBCHEM_COMPOUND_CID>
75536035

> <PUBCHEM_CONFORMER_RMSD>
1.6

> <PUBCHEM_CONFORMER_DIVERSEORDER>
2
31
39
25
63
12
23
103
88
15
106
79
84
16
80
101
42
62
65
14
99
37
29
35
61
41
24
51
8
81
74
55
67
93
5
50
97
36
71
13
69
98
85
46
43
30
45
54
96
18
66
40
90
70
19
107
82
20
86
68
83
53
57
102
89
9
6
26
95
33
38
28
75
60
49
22
91
77
64
48
3
56
94
4
76
7
73
105
100
34
72
92
78
87
52
58
59
27
1
44
10
11
104
32
17
47
21

> <PUBCHEM_MMFF94_PARTIAL_CHARGES>
41
1 -0.57
10 -0.66
11 -0.73
12 -0.62
13 0.06
14 0.36
15 0.3
16 0.3
17 0.3
18 0.57
2 -0.56
21 0.27
22 0.27
23 0.57
24 0.69
25 0.3
26 0.3
27 0.36
28 0.28
29 0.28
3 -0.57
30 0.14
31 0.66
32 -0.14
33 -0.15
34 0.16
35 -0.15
36 0.28
37 0.16
4 -0.57
5 -0.43
54 0.36
59 0.37
6 -0.57
67 0.15
68 0.15
69 0.15
7 -0.66
73 0.15
8 -0.66
9 -0.9

> <PUBCHEM_EFFECTIVE_ROTOR_COUNT>
14.6

> <PUBCHEM_PHARMACOPHORE_FEATURES>
13
1 1 acceptor
1 11 donor
1 12 acceptor
1 2 acceptor
1 3 acceptor
1 4 acceptor
1 6 acceptor
1 9 cation
1 9 donor
6 12 32 33 34 35 37 rings
6 2 10 25 26 28 29 rings
6 7 8 14 15 16 17 rings
6 9 13 19 20 21 22 rings

> <PUBCHEM_HEAVY_ATOM_COUNT>
37

> <PUBCHEM_ATOM_DEF_STEREO_COUNT>
2

> <PUBCHEM_ATOM_UDEF_STEREO_COUNT>
0

> <PUBCHEM_BOND_DEF_STEREO_COUNT>
0

> <PUBCHEM_BOND_UDEF_STEREO_COUNT>
0

> <PUBCHEM_ISOTOPIC_ATOM_COUNT>
0

> <PUBCHEM_COMPONENT_COUNT>
1

> <PUBCHEM_CACTVS_TAUTO_COUNT>
2

> <PUBCHEM_CONFORMER_ID>
048096A300000002

> <PUBCHEM_MMFF94_ENERGY>
91.6688

> <PUBCHEM_FEATURE_SELFOVERLAP>
65.975

> <PUBCHEM_SHAPE_FINGERPRINT>
102385 1 18410570665780203946
11062273 19 17329150685759035727
11062273 29 17472411531734901765
11763715 3 18191046657544576102
11991303 11 18119539730006635583
12788726 201 18190164866620268322
13540713 4 18131062715693821442
13617811 41 18051418662463366998
13690498 29 18270697423751158806
13692114 37 18265901251093528101
13757389 114 18192166905374235919
13835254 42 18338518654567050222
140371 6 17903644329570388083
14725015 67 16828397347879043654
14790565 3 18122905326825600257
14840074 17 17769941508267731558
14955137 171 17760649565602610155
15200665 1 18337673010340726691
15361156 5 18261973919907338250
15483637 11 18410854356870485264
15484559 13 17549813391733268487
15961568 22 18122345945899960854
17492 89 18412544332260724242
19301679 30 18337673134694941410
19319366 153 17172940427559231514
20238998 120 18194677305812105011
21120745 212 18337389465179352737
21641784 216 18193848260674719468
24180151 248 18198360626668016582
4144715 1 18339082584638139546
5309563 4 18050281775913856696

> <PUBCHEM_SHAPE_MULTIPOLES>
696.34
12.99
10.22
1.37
17.3
7.52
-0.17
-4.21
-0.65
-18.92
-1.66
-0.13
-0.49
2.09

> <PUBCHEM_SHAPE_SELFOVERLAP>
1453.784

> <PUBCHEM_SHAPE_VOLUME>
386.2

> <PUBCHEM_COORDINATE_TYPE>
2
5
10

$$$$
