7663763
  -OEChem-12032416363D

 56 60  0     1  0  0  0  0  0999 V2000
    8.7731   -0.3292    0.6602 Cl  0  0  0  0  0  0  0  0  0  0  0  0
    0.2234    2.2112    1.8505 O   0  0  0  0  0  0  0  0  0  0  0  0
   -3.7077   -1.2770    1.8430 O   0  0  0  0  0  0  0  0  0  0  0  0
   -4.0683    0.2601    0.1513 N   0  0  0  0  0  0  0  0  0  0  0  0
   -1.5004    2.1592    0.2823 N   0  0  0  0  0  0  0  0  0  0  0  0
   -3.2058   -1.8810   -0.3385 N   0  0  0  0  0  0  0  0  0  0  0  0
   -3.9370    2.6423    0.9018 C   0  0  1  0  0  0  0  0  0  0  0  0
   -3.3602    2.0639   -1.4150 C   0  0  2  0  0  0  0  0  0  0  0  0
   -4.0712    3.0972   -0.5456 C   0  0  0  0  0  0  0  0  0  0  0  0
   -4.5843    1.2603    1.0905 C   0  0  0  0  0  0  0  0  0  0  0  0
   -2.4540    2.6426    1.2901 C   0  0  0  0  0  0  0  0  0  0  0  0
   -4.0425    0.6885   -1.2590 C   0  0  0  0  0  0  0  0  0  0  0  0
   -1.8934    1.9515   -1.0416 C   0  0  0  0  0  0  0  0  0  0  0  0
   -0.9812    1.6237   -1.9703 C   0  0  0  0  0  0  0  0  0  0  0  0
   -0.1597    2.0184    0.6951 C   0  0  0  0  0  0  0  0  0  0  0  0
   -3.6531   -0.9973    0.6426 C   0  0  0  0  0  0  0  0  0  0  0  0
    0.8351    1.6221   -0.3628 C   0  0  0  0  0  0  0  0  0  0  0  0
    0.4003    1.4567   -1.6197 C   0  0  0  0  0  0  0  0  0  0  0  0
    2.2222    1.4423   -0.0150 C   0  0  0  0  0  0  0  0  0  0  0  0
   -2.3040   -2.9606   -0.1709 C   0  0  0  0  0  0  0  0  0  0  0  0
    3.0261    0.5825   -0.6527 C   0  0  0  0  0  0  0  0  0  0  0  0
   -2.0339   -3.8097   -1.2407 C   0  0  0  0  0  0  0  0  0  0  0  0
   -1.6918   -3.1658    1.0625 C   0  0  0  0  0  0  0  0  0  0  0  0
    4.4454    0.3572   -0.3279 C   0  0  0  0  0  0  0  0  0  0  0  0
   -1.1451   -4.8720   -1.0759 C   0  0  0  0  0  0  0  0  0  0  0  0
   -0.8029   -4.2280    1.2274 C   0  0  0  0  0  0  0  0  0  0  0  0
   -0.5296   -5.0812    0.1582 C   0  0  0  0  0  0  0  0  0  0  0  0
    5.1383    1.3188    0.3897 C   0  0  0  0  0  0  0  0  0  0  0  0
    5.0602   -0.8116   -0.7471 C   0  0  0  0  0  0  0  0  0  0  0  0
    6.4824    1.1056    0.6964 C   0  0  0  0  0  0  0  0  0  0  0  0
    6.4041   -1.0248   -0.4402 C   0  0  0  0  0  0  0  0  0  0  0  0
    7.1152   -0.0661    0.2815 C   0  0  0  0  0  0  0  0  0  0  0  0
   -4.4638    3.3463    1.5578 H   0  0  0  0  0  0  0  0  0  0  0  0
   -3.4519    2.3780   -2.4630 H   0  0  0  0  0  0  0  0  0  0  0  0
   -3.6286    4.0920   -0.6811 H   0  0  0  0  0  0  0  0  0  0  0  0
   -5.1283    3.1742   -0.8276 H   0  0  0  0  0  0  0  0  0  0  0  0
   -4.4596    0.9276    2.1261 H   0  0  0  0  0  0  0  0  0  0  0  0
   -5.6639    1.3304    0.9077 H   0  0  0  0  0  0  0  0  0  0  0  0
   -2.1501    3.6748    1.5121 H   0  0  0  0  0  0  0  0  0  0  0  0
   -2.2996    2.0773    2.2178 H   0  0  0  0  0  0  0  0  0  0  0  0
   -5.0864    0.7458   -1.5906 H   0  0  0  0  0  0  0  0  0  0  0  0
   -3.5391   -0.0315   -1.9060 H   0  0  0  0  0  0  0  0  0  0  0  0
   -1.2607    1.4475   -3.0038 H   0  0  0  0  0  0  0  0  0  0  0  0
    1.0588    1.1990   -2.4434 H   0  0  0  0  0  0  0  0  0  0  0  0
   -3.5784   -1.7858   -1.2769 H   0  0  0  0  0  0  0  0  0  0  0  0
    2.5722    2.0401    0.8204 H   0  0  0  0  0  0  0  0  0  0  0  0
    2.6466   -0.0443   -1.4566 H   0  0  0  0  0  0  0  0  0  0  0  0
   -2.5066   -3.6569   -2.2075 H   0  0  0  0  0  0  0  0  0  0  0  0
   -1.8338   -2.5186    1.9188 H   0  0  0  0  0  0  0  0  0  0  0  0
   -0.9317   -5.5359   -1.9085 H   0  0  0  0  0  0  0  0  0  0  0  0
   -0.3165   -4.3866    2.1855 H   0  0  0  0  0  0  0  0  0  0  0  0
    0.1642   -5.9069    0.2860 H   0  0  0  0  0  0  0  0  0  0  0  0
    4.6946    2.2548    0.7132 H   0  0  0  0  0  0  0  0  0  0  0  0
    4.5198   -1.5688   -1.3090 H   0  0  0  0  0  0  0  0  0  0  0  0
    7.0259    1.8633    1.2553 H   0  0  0  0  0  0  0  0  0  0  0  0
    6.8842   -1.9427   -0.7697 H   0  0  0  0  0  0  0  0  0  0  0  0
  1 32  1  0  0  0  0
  2 15  2  0  0  0  0
  3 16  2  0  0  0  0
  4 10  1  0  0  0  0
  4 12  1  0  0  0  0
  4 16  1  0  0  0  0
  5 11  1  0  0  0  0
  5 13  1  0  0  0  0
  5 15  1  0  0  0  0
  6 16  1  0  0  0  0
  6 20  1  0  0  0  0
  6 45  1  0  0  0  0
  7  9  1  0  0  0  0
  7 10  1  0  0  0  0
  7 11  1  0  0  0  0
  7 33  1  0  0  0  0
  8  9  1  0  0  0  0
  8 12  1  0  0  0  0
  8 13  1  0  0  0  0
  8 34  1  0  0  0  0
  9 35  1  0  0  0  0
  9 36  1  0  0  0  0
 10 37  1  0  0  0  0
 10 38  1  0  0  0  0
 11 39  1  0  0  0  0
 11 40  1  0  0  0  0
 12 41  1  0  0  0  0
 12 42  1  0  0  0  0
 13 14  2  0  0  0  0
 14 18  1  0  0  0  0
 14 43  1  0  0  0  0
 15 17  1  0  0  0  0
 17 18  2  0  0  0  0
 17 19  1  0  0  0  0
 18 44  1  0  0  0  0
 19 21  2  0  0  0  0
 19 46  1  0  0  0  0
 20 22  2  0  0  0  0
 20 23  1  0  0  0  0
 21 24  1  0  0  0  0
 21 47  1  0  0  0  0
 22 25  1  0  0  0  0
 22 48  1  0  0  0  0
 23 26  2  0  0  0  0
 23 49  1  0  0  0  0
 24 28  2  0  0  0  0
 24 29  1  0  0  0  0
 25 27  2  0  0  0  0
 25 50  1  0  0  0  0
 26 27  1  0  0  0  0
 26 51  1  0  0  0  0
 27 52  1  0  0  0  0
 28 30  1  0  0  0  0
 28 53  1  0  0  0  0
 29 31  2  0  0  0  0
 29 54  1  0  0  0  0
 30 32  2  0  0  0  0
 30 55  1  0  0  0  0
 31 32  1  0  0  0  0
 31 56  1  0  0  0  0
M  END
> <PUBCHEM_COMPOUND_CID>
7663763

> <PUBCHEM_CONFORMER_RMSD>
0.8

> <PUBCHEM_CONFORMER_DIVERSEORDER>
1
16
14
12
15
23
7
17
19
9
22
6
5
11
8
4
10
18
2
20
21
13
3

> <PUBCHEM_MMFF94_PARTIAL_CHARGES>
44
1 -0.18
10 0.3
11 0.3
12 0.3
13 -0.03
14 -0.15
15 0.62
16 0.69
17 0.01
18 -0.15
19 -0.15
2 -0.57
20 0.12
21 -0.18
22 -0.15
23 -0.15
24 0.03
25 -0.15
26 -0.15
27 -0.15
28 -0.15
29 -0.15
3 -0.57
30 -0.15
31 -0.15
32 0.18
4 -0.66
43 0.15
44 0.15
45 0.37
46 0.15
47 0.15
48 0.15
49 0.15
5 -0.47
50 0.15
51 0.15
52 0.15
53 0.15
54 0.15
55 0.15
56 0.15
6 -0.55
8 0.14

> <PUBCHEM_EFFECTIVE_ROTOR_COUNT>
6

> <PUBCHEM_PHARMACOPHORE_FEATURES>
8
1 2 acceptor
1 3 acceptor
1 6 donor
6 20 22 23 25 26 27 rings
6 24 28 29 30 31 32 rings
6 4 7 8 9 10 12 rings
6 5 13 14 15 17 18 rings
6 5 7 8 9 11 13 rings

> <PUBCHEM_HEAVY_ATOM_COUNT>
32

> <PUBCHEM_ATOM_DEF_STEREO_COUNT>
2

> <PUBCHEM_ATOM_UDEF_STEREO_COUNT>
0

> <PUBCHEM_BOND_DEF_STEREO_COUNT>
1

> <PUBCHEM_BOND_UDEF_STEREO_COUNT>
0

> <PUBCHEM_ISOTOPIC_ATOM_COUNT>
0

> <PUBCHEM_COMPONENT_COUNT>
1

> <PUBCHEM_CACTVS_TAUTO_COUNT>
2

> <PUBCHEM_CONFORMER_ID>
0074F09300000001

> <PUBCHEM_MMFF94_ENERGY>
95.9851

> <PUBCHEM_FEATURE_SELFOVERLAP>
42.163

> <PUBCHEM_SHAPE_FINGERPRINT>
10483366 6 18267848649638086487
10864689 126 18122630457830039326
11014199 57 17831583450098983562
11513181 2 18271807861053146759
11524674 6 18411980226390465909
12712778 12 18410861001052958646
14020679 6 17846511304921186633
14028597 1 17702398247734425273
14114207 22 17896586302945162615
14251757 5 18337388344040011794
14659021 117 18196639907543773851
14674994 50 18340774831305675762
14725015 67 18268147737790270027
14844126 61 18338518654740942043
14866123 147 18410011073879830327
15021287 119 17022906761643415148
15183329 4 11674881091860835560
15274700 242 17095790050348625434
15320294 125 18113901571913136686
15439362 3 17757826737588180021
15927050 60 18268989779350390157
16112460 7 18196375810580002786
16120349 306 18335984151552956611
16719943 64 18410015420476281322
16993438 75 18200867474467001294
17627616 140 18263074418713480314
19315092 285 16050128386826877287
19611394 137 18130505336571270784
19958102 18 18335981983037551366
20578428 11 16305663235234780037
20771845 165 17463684287129028805
20775530 9 17547025472932873167
229767 44 18336555987704243651
23516275 137 17973464104551295274
3383291 50 18411702131880889651
4017518 198 18411131399013932647
4073 2 18342171177551696892
4625314 4 18410859881184832620
484985 159 18337942493642341167
5080951 261 18041539413623384184
5265222 85 18335713731901544613
57527295 17 17842251711688395453
68570916 9 18188489194764309300
70634741 139 18337679723807366660

> <PUBCHEM_SHAPE_MULTIPOLES>
633.73
15.38
5.97
1.55
42.58
10.27
0.06
-3.93
-2.66
-7.77
-0.02
-1.25
-0.26
0.34

> <PUBCHEM_SHAPE_SELFOVERLAP>
1381.069

> <PUBCHEM_SHAPE_VOLUME>
341

> <PUBCHEM_COORDINATE_TYPE>
2
5
10

$$$$
