75536808
  -OEChem-12032416393D

 56 57  0     1  0  0  0  0  0999 V2000
    0.9882   -0.0315   -0.3555 O   0  0  0  0  0  0  0  0  0  0  0  0
   -0.6360   -2.7604    1.3239 O   0  0  0  0  0  0  0  0  0  0  0  0
    3.6068   -0.3598   -1.8596 O   0  0  0  0  0  0  0  0  0  0  0  0
   -2.5008   -1.0444   -0.5346 N   0  0  0  0  0  0  0  0  0  0  0  0
   -6.2277    0.8633    0.1969 N   0  0  0  0  0  0  0  0  0  0  0  0
    3.4711   -1.3806    0.2237 N   0  0  0  0  0  0  0  0  0  0  0  0
   -1.2343   -0.7305    0.1066 C   0  0  1  0  0  0  0  0  0  0  0  0
   -3.4734    0.0266   -0.3301 C   0  0  0  0  0  0  0  0  0  0  0  0
   -0.3041   -1.9227    0.2337 C   0  0  1  0  0  0  0  0  0  0  0  0
    1.0358   -1.2288    0.4384 C   0  0  1  0  0  0  0  0  0  0  0  0
   -4.1135   -0.0965    1.0551 C   0  0  0  0  0  0  0  0  0  0  0  0
   -4.5578   -0.0039   -1.4112 C   0  0  0  0  0  0  0  0  0  0  0  0
   -0.3820    0.2307   -0.7057 C   0  0  0  0  0  0  0  0  0  0  0  0
   -5.2067    0.9576    1.2498 C   0  0  0  0  0  0  0  0  0  0  0  0
   -5.6366    1.0469   -1.1359 C   0  0  0  0  0  0  0  0  0  0  0  0
    2.2221   -2.0774    0.0168 C   0  0  0  0  0  0  0  0  0  0  0  0
   -7.2900    1.8424    0.4249 C   0  0  0  0  0  0  0  0  0  0  0  0
    5.2416    1.4347    0.3701 C   0  0  0  0  0  0  0  0  0  0  0  0
    5.3729    0.0357   -0.2777 C   0  0  0  0  0  0  0  0  0  0  0  0
    4.0600   -0.5769   -0.7375 C   0  0  0  0  0  0  0  0  0  0  0  0
    6.6161    1.9814    0.7908 C   0  0  0  0  0  0  0  0  0  0  0  0
    4.6370    2.3906   -0.6769 C   0  0  0  0  0  0  0  0  0  0  0  0
    4.3115    1.4037    1.5939 C   0  0  0  0  0  0  0  0  0  0  0  0
   -1.3877   -0.3268    1.1152 H   0  0  0  0  0  0  0  0  0  0  0  0
   -2.9832    1.0063   -0.4071 H   0  0  0  0  0  0  0  0  0  0  0  0
   -0.3031   -2.5221   -0.6853 H   0  0  0  0  0  0  0  0  0  0  0  0
    1.1626   -0.9218    1.4850 H   0  0  0  0  0  0  0  0  0  0  0  0
   -2.8702   -1.9232   -0.1733 H   0  0  0  0  0  0  0  0  0  0  0  0
   -3.3733    0.0264    1.8531 H   0  0  0  0  0  0  0  0  0  0  0  0
   -4.5541   -1.0947    1.1842 H   0  0  0  0  0  0  0  0  0  0  0  0
   -5.0235   -0.9980   -1.4533 H   0  0  0  0  0  0  0  0  0  0  0  0
   -4.1130    0.1804   -2.3968 H   0  0  0  0  0  0  0  0  0  0  0  0
   -0.4768    0.0617   -1.7846 H   0  0  0  0  0  0  0  0  0  0  0  0
   -0.6110    1.2805   -0.4999 H   0  0  0  0  0  0  0  0  0  0  0  0
   -5.6699    0.7911    2.2300 H   0  0  0  0  0  0  0  0  0  0  0  0
   -4.7548    1.9582    1.2687 H   0  0  0  0  0  0  0  0  0  0  0  0
   -5.2067    2.0521   -1.2384 H   0  0  0  0  0  0  0  0  0  0  0  0
   -6.4139    0.9457   -1.9031 H   0  0  0  0  0  0  0  0  0  0  0  0
    2.1503   -2.3373   -1.0455 H   0  0  0  0  0  0  0  0  0  0  0  0
    2.2643   -3.0033    0.5993 H   0  0  0  0  0  0  0  0  0  0  0  0
   -0.6376   -2.2224    2.1336 H   0  0  0  0  0  0  0  0  0  0  0  0
   -8.0770    1.7393   -0.3304 H   0  0  0  0  0  0  0  0  0  0  0  0
   -6.9170    2.8726    0.3963 H   0  0  0  0  0  0  0  0  0  0  0  0
   -7.7658    1.6746    1.3975 H   0  0  0  0  0  0  0  0  0  0  0  0
    3.9228   -1.4879    1.1271 H   0  0  0  0  0  0  0  0  0  0  0  0
    5.8588   -0.6523    0.4265 H   0  0  0  0  0  0  0  0  0  0  0  0
    6.0342    0.0819   -1.1529 H   0  0  0  0  0  0  0  0  0  0  0  0
    7.0818    1.3312    1.5397 H   0  0  0  0  0  0  0  0  0  0  0  0
    7.2954    2.0418   -0.0668 H   0  0  0  0  0  0  0  0  0  0  0  0
    6.5335    2.9847    1.2235 H   0  0  0  0  0  0  0  0  0  0  0  0
    3.6081    2.1213   -0.9378 H   0  0  0  0  0  0  0  0  0  0  0  0
    5.2304    2.3989   -1.5981 H   0  0  0  0  0  0  0  0  0  0  0  0
    4.6086    3.4183   -0.2956 H   0  0  0  0  0  0  0  0  0  0  0  0
    3.2818    1.1483    1.3240 H   0  0  0  0  0  0  0  0  0  0  0  0
    4.2782    2.3830    2.0856 H   0  0  0  0  0  0  0  0  0  0  0  0
    4.6608    0.6749    2.3336 H   0  0  0  0  0  0  0  0  0  0  0  0
  1 10  1  0  0  0  0
  1 13  1  0  0  0  0
  2  9  1  0  0  0  0
  2 41  1  0  0  0  0
  3 20  2  0  0  0  0
  4  7  1  0  0  0  0
  4  8  1  0  0  0  0
  4 28  1  0  0  0  0
  5 14  1  0  0  0  0
  5 15  1  0  0  0  0
  5 17  1  0  0  0  0
  6 16  1  0  0  0  0
  6 20  1  0  0  0  0
  6 45  1  0  0  0  0
  7  9  1  0  0  0  0
  7 13  1  0  0  0  0
  7 24  1  0  0  0  0
  8 11  1  0  0  0  0
  8 12  1  0  0  0  0
  8 25  1  0  0  0  0
  9 10  1  0  0  0  0
  9 26  1  0  0  0  0
 10 16  1  0  0  0  0
 10 27  1  0  0  0  0
 11 14  1  0  0  0  0
 11 29  1  0  0  0  0
 11 30  1  0  0  0  0
 12 15  1  0  0  0  0
 12 31  1  0  0  0  0
 12 32  1  0  0  0  0
 13 33  1  0  0  0  0
 13 34  1  0  0  0  0
 14 35  1  0  0  0  0
 14 36  1  0  0  0  0
 15 37  1  0  0  0  0
 15 38  1  0  0  0  0
 16 39  1  0  0  0  0
 16 40  1  0  0  0  0
 17 42  1  0  0  0  0
 17 43  1  0  0  0  0
 17 44  1  0  0  0  0
 18 19  1  0  0  0  0
 18 21  1  0  0  0  0
 18 22  1  0  0  0  0
 18 23  1  0  0  0  0
 19 20  1  0  0  0  0
 19 46  1  0  0  0  0
 19 47  1  0  0  0  0
 21 48  1  0  0  0  0
 21 49  1  0  0  0  0
 21 50  1  0  0  0  0
 22 51  1  0  0  0  0
 22 52  1  0  0  0  0
 22 53  1  0  0  0  0
 23 54  1  0  0  0  0
 23 55  1  0  0  0  0
 23 56  1  0  0  0  0
M  END
> <PUBCHEM_COMPOUND_CID>
75536808

> <PUBCHEM_CONFORMER_RMSD>
1

> <PUBCHEM_CONFORMER_DIVERSEORDER>
1
95
86
97
139
76
138
161
39
124
110
24
44
129
3
66
144
90
132
150
87
143
6
62
130
96
155
53
52
73
20
106
92
71
119
23
131
32
122
55
80
157
102
117
42
61
94
45
159
147
98
48
18
115
28
156
63
70
67
136
134
7
50
75
154
78
118
109
121
107
69
40
111
13
128
79
116
22
15
142
8
103
51
83
104
160
43
105
64
16
56
113
99
34
146
41
38
145
100
120
81
112
57
114
29
12
10
127
26
74
65
125
5
140
37
141
108
133
33
19
93
158
35
30
149
11
126
152
54
31
123
153
77
101
49
9
2
17
25
135
148
88
137
72
151
82
60
21
91
68
47
46
85
27
58
59
84
89
36
14
4

> <PUBCHEM_MMFF94_PARTIAL_CHARGES>
20
1 -0.56
10 0.28
13 0.28
14 0.27
15 0.27
16 0.3
17 0.27
19 0.06
2 -0.68
20 0.57
28 0.36
3 -0.57
4 -0.9
41 0.4
45 0.37
5 -0.81
6 -0.73
7 0.27
8 0.27
9 0.28

> <PUBCHEM_EFFECTIVE_ROTOR_COUNT>
9.2

> <PUBCHEM_PHARMACOPHORE_FEATURES>
11
1 1 acceptor
1 2 acceptor
1 2 donor
1 3 acceptor
1 4 cation
1 4 donor
1 5 cation
1 6 donor
4 18 21 22 23 hydrophobe
5 1 7 9 10 13 rings
6 5 8 11 12 14 15 rings

> <PUBCHEM_HEAVY_ATOM_COUNT>
23

> <PUBCHEM_ATOM_DEF_STEREO_COUNT>
3

> <PUBCHEM_ATOM_UDEF_STEREO_COUNT>
0

> <PUBCHEM_BOND_DEF_STEREO_COUNT>
0

> <PUBCHEM_BOND_UDEF_STEREO_COUNT>
0

> <PUBCHEM_ISOTOPIC_ATOM_COUNT>
0

> <PUBCHEM_COMPONENT_COUNT>
1

> <PUBCHEM_CACTVS_TAUTO_COUNT>
2

> <PUBCHEM_CONFORMER_ID>
048099A800000001

> <PUBCHEM_MMFF94_ENERGY>
37.4687

> <PUBCHEM_FEATURE_SELFOVERLAP>
55.821

> <PUBCHEM_SHAPE_FINGERPRINT>
10 15 17240490225364603957
10319926 262 14996555136658846743
10692045 39 17677036955113871954
12236239 1 18201436940096403911
12403259 118 16732984236679779151
13533116 47 18261389984701770586
13668630 136 10303806580160688653
13685833 64 9439401337275845941
13690498 29 16126951122841547631
13782708 43 8285937765284693500
13862211 1 10087644792667174036
13955234 65 18043244648188589642
14211702 104 8141784111371387321
14251740 57 12613023956189687856
14251757 52 18201722800192779329
14251764 18 12829212174199382104
14251764 30 9655579608183845177
14461889 52 17895202125253646499
14528608 73 17774999102645778534
146900 427 18261673683996364803
15183329 4 16487258772254825641
15348495 7 17313390075200229664
15840311 113 18339648850042478461
16079462 125 17822285752551939981
17349148 13 8070026700717439975
17870717 6 14189571941007818575
1813 80 9727635037511089010
18222031 100 10879990250632283862
20281389 69 18261392205167772245
20397935 70 12468639409092033512
20715895 44 18411136970150757520
21033648 29 17968101923148340802
21150785 3 16630521860489072805
21298829 104 18342458162017471840
21424621 283 18411703158261359921
22061861 79 11959726071224763273
2215653 11 12103843462376262133
22224240 67 18040156210979361899
23559900 14 18409173216898790366
25122255 55 9799400153319702797
2748736 6 18410569617280994224
2916195 48 18408604777275187275
293599 30 18334577932068437695
3004659 81 12895069617831128906
3472631 163 18273216408535702150
34797466 226 17632582634602630285
3680242 22 18114173147401296968
4340502 62 16226048868506660818
445580 126 18411409605900000992
465052 167 7997970185090836880
5104073 3 18113616802522495738
5312510 48 18273212027806742944
543368 44 18201718462243843145
59682541 52 16486973964288501989
960060 61 15410899552556554630

> <PUBCHEM_SHAPE_MULTIPOLES>
440.78
18.33
2.36
1.31
9.32
0.25
-0.05
-15.03
0.9
-1.87
0.58
0.17
-0.12
0.43

> <PUBCHEM_SHAPE_SELFOVERLAP>
879.28

> <PUBCHEM_SHAPE_VOLUME>
262.8

> <PUBCHEM_COORDINATE_TYPE>
2
5
10

$$$$
