38027577
  -OEChem-12032416403D

 62 63  0     1  0  0  0  0  0999 V2000
    5.1896    1.3108   -2.0719 F   0  0  0  0  0  0  0  0  0  0  0  0
    0.8742   -3.1791    0.8746 O   0  0  0  0  0  0  0  0  0  0  0  0
   -1.6579    3.4800   -0.5523 O   0  0  0  0  0  0  0  0  0  0  0  0
   -0.8783    3.6677    2.0854 O   0  0  0  0  0  0  0  0  0  0  0  0
   -3.1390    1.7853    0.0414 N   0  0  0  0  0  0  0  0  0  0  0  0
    1.1967   -1.2353    2.1068 N   0  0  0  0  0  0  0  0  0  0  0  0
   -1.4967   -0.3451   -1.3031 C   0  0  1  0  0  0  0  0  0  0  0  0
   -3.0309   -0.1649   -1.4193 C   0  0  1  0  0  0  0  0  0  0  0  0
   -1.1491   -1.8151   -1.0231 C   0  0  0  0  0  0  0  0  0  0  0  0
   -1.8008   -2.3310    0.2738 C   0  0  2  0  0  0  0  0  0  0  0  0
   -0.7711    0.1278   -2.5667 C   0  0  0  0  0  0  0  0  0  0  0  0
   -3.2662   -1.9546    0.3559 C   0  0  0  0  0  0  0  0  0  0  0  0
   -3.8010   -0.9935   -0.4180 C   0  0  0  0  0  0  0  0  0  0  0  0
   -3.4272    1.3089   -1.2750 C   0  0  0  0  0  0  0  0  0  0  0  0
   -1.0379   -1.8392    1.5088 C   0  0  0  0  0  0  0  0  0  0  0  0
   -0.8156   -0.9533   -3.6417 C   0  0  0  0  0  0  0  0  0  0  0  0
    0.6698    0.5088   -2.2418 C   0  0  0  0  0  0  0  0  0  0  0  0
   -4.1143   -2.7405    1.3169 C   0  0  0  0  0  0  0  0  0  0  0  0
    0.4328   -2.1843    1.4434 C   0  0  0  0  0  0  0  0  0  0  0  0
   -2.2688    2.8435    0.3019 C   0  0  0  0  0  0  0  0  0  0  0  0
    2.6360   -1.3107    2.2072 C   0  0  0  0  0  0  0  0  0  0  0  0
   -2.1508    3.1367    1.7824 C   0  0  0  0  0  0  0  0  0  0  0  0
    3.3163   -0.6116    1.0658 C   0  0  0  0  0  0  0  0  0  0  0  0
    3.6236   -1.3145   -0.0993 C   0  0  0  0  0  0  0  0  0  0  0  0
    3.6417    0.7407    1.1709 C   0  0  0  0  0  0  0  0  0  0  0  0
    0.1135    2.6494    2.1802 C   0  0  0  0  0  0  0  0  0  0  0  0
    4.2559   -0.6649   -1.1595 C   0  0  0  0  0  0  0  0  0  0  0  0
    4.2742    1.3903    0.1107 C   0  0  0  0  0  0  0  0  0  0  0  0
    4.5813    0.6875   -1.0544 C   0  0  0  0  0  0  0  0  0  0  0  0
   -1.1332    0.2488   -0.4556 H   0  0  0  0  0  0  0  0  0  0  0  0
   -3.3649   -0.4960   -2.4107 H   0  0  0  0  0  0  0  0  0  0  0  0
   -0.0681   -1.9721   -1.0267 H   0  0  0  0  0  0  0  0  0  0  0  0
   -1.5479   -2.4567   -1.8207 H   0  0  0  0  0  0  0  0  0  0  0  0
   -1.7320   -3.4276    0.2413 H   0  0  0  0  0  0  0  0  0  0  0  0
   -1.2510    1.0259   -2.9688 H   0  0  0  0  0  0  0  0  0  0  0  0
   -4.8694   -0.7979   -0.3499 H   0  0  0  0  0  0  0  0  0  0  0  0
   -4.5081    1.4253   -1.4207 H   0  0  0  0  0  0  0  0  0  0  0  0
   -2.9422    1.9387   -2.0257 H   0  0  0  0  0  0  0  0  0  0  0  0
   -1.4308   -2.3114    2.4175 H   0  0  0  0  0  0  0  0  0  0  0  0
   -1.1692   -0.7571    1.6321 H   0  0  0  0  0  0  0  0  0  0  0  0
   -0.1567   -1.8015   -3.4280 H   0  0  0  0  0  0  0  0  0  0  0  0
   -0.4590   -0.5319   -4.5899 H   0  0  0  0  0  0  0  0  0  0  0  0
   -1.8285   -1.3213   -3.8296 H   0  0  0  0  0  0  0  0  0  0  0  0
    1.2460   -0.3441   -1.8739 H   0  0  0  0  0  0  0  0  0  0  0  0
    0.7069    1.2978   -1.4829 H   0  0  0  0  0  0  0  0  0  0  0  0
    1.1771    0.8878   -3.1358 H   0  0  0  0  0  0  0  0  0  0  0  0
   -4.0435   -3.8109    1.0983 H   0  0  0  0  0  0  0  0  0  0  0  0
   -5.1718   -2.4616    1.2570 H   0  0  0  0  0  0  0  0  0  0  0  0
   -3.7879   -2.5724    2.3475 H   0  0  0  0  0  0  0  0  0  0  0  0
   -3.6437    1.3695    0.8188 H   0  0  0  0  0  0  0  0  0  0  0  0
    0.7402   -0.4396    2.5429 H   0  0  0  0  0  0  0  0  0  0  0  0
    2.9441   -2.3622    2.2484 H   0  0  0  0  0  0  0  0  0  0  0  0
    2.9239   -0.8574    3.1625 H   0  0  0  0  0  0  0  0  0  0  0  0
   -2.9010    3.8975    2.0225 H   0  0  0  0  0  0  0  0  0  0  0  0
   -2.3632    2.2521    2.3936 H   0  0  0  0  0  0  0  0  0  0  0  0
    3.3780   -2.3685   -0.1947 H   0  0  0  0  0  0  0  0  0  0  0  0
    3.4052    1.2999    2.0723 H   0  0  0  0  0  0  0  0  0  0  0  0
    1.0716    3.1262    2.4044 H   0  0  0  0  0  0  0  0  0  0  0  0
    0.2109    2.1045    1.2364 H   0  0  0  0  0  0  0  0  0  0  0  0
   -0.1265    1.9561    2.9922 H   0  0  0  0  0  0  0  0  0  0  0  0
    4.4947   -1.2116   -2.0669 H   0  0  0  0  0  0  0  0  0  0  0  0
    4.5268    2.4434    0.1919 H   0  0  0  0  0  0  0  0  0  0  0  0
  1 29  1  0  0  0  0
  2 19  2  0  0  0  0
  3 20  2  0  0  0  0
  4 22  1  0  0  0  0
  4 26  1  0  0  0  0
  5 14  1  0  0  0  0
  5 20  1  0  0  0  0
  5 50  1  0  0  0  0
  6 19  1  0  0  0  0
  6 21  1  0  0  0  0
  6 51  1  0  0  0  0
  7  8  1  0  0  0  0
  7  9  1  0  0  0  0
  7 11  1  0  0  0  0
  7 30  1  0  0  0  0
  8 13  1  0  0  0  0
  8 14  1  0  0  0  0
  8 31  1  0  0  0  0
  9 10  1  0  0  0  0
  9 32  1  0  0  0  0
  9 33  1  0  0  0  0
 10 12  1  0  0  0  0
 10 15  1  0  0  0  0
 10 34  1  0  0  0  0
 11 16  1  0  0  0  0
 11 17  1  0  0  0  0
 11 35  1  0  0  0  0
 12 13  2  0  0  0  0
 12 18  1  0  0  0  0
 13 36  1  0  0  0  0
 14 37  1  0  0  0  0
 14 38  1  0  0  0  0
 15 19  1  0  0  0  0
 15 39  1  0  0  0  0
 15 40  1  0  0  0  0
 16 41  1  0  0  0  0
 16 42  1  0  0  0  0
 16 43  1  0  0  0  0
 17 44  1  0  0  0  0
 17 45  1  0  0  0  0
 17 46  1  0  0  0  0
 18 47  1  0  0  0  0
 18 48  1  0  0  0  0
 18 49  1  0  0  0  0
 20 22  1  0  0  0  0
 21 23  1  0  0  0  0
 21 52  1  0  0  0  0
 21 53  1  0  0  0  0
 22 54  1  0  0  0  0
 22 55  1  0  0  0  0
 23 24  2  0  0  0  0
 23 25  1  0  0  0  0
 24 27  1  0  0  0  0
 24 56  1  0  0  0  0
 25 28  2  0  0  0  0
 25 57  1  0  0  0  0
 26 58  1  0  0  0  0
 26 59  1  0  0  0  0
 26 60  1  0  0  0  0
 27 29  2  0  0  0  0
 27 61  1  0  0  0  0
 28 29  1  0  0  0  0
 28 62  1  0  0  0  0
M  END
> <PUBCHEM_COMPOUND_CID>
38027577

> <PUBCHEM_CONFORMER_RMSD>
1

> <PUBCHEM_CONFORMER_DIVERSEORDER>
1
12
91
119
93
75
32
11
67
122
59
108
133
110
81
92
49
97
100
129
109
54
57
36
70
134
64
51
6
76
34
136
105
2
73
121
50
78
66
130
117
123
94
35
116
86
101
120
25
72
114
19
103
131
27
5
96
55
44
18
99
118
107
71
128
38
79
15
111
126
102
43
56
132
31
24
84
82
41
40
17
87
89
125
90
80
95
69
74
88
47
14
58
3
30
113
8
53
10
77
46
65
48
29
20
68
127
62
61
106
13
98
85
37
21
22
112
7
16
83
124
52
60
28
39
4
135
42
23
9
26
63
115
104
45
33

> <PUBCHEM_MMFF94_PARTIAL_CHARGES>
31
1 -0.19
10 0.14
12 -0.28
13 -0.29
14 0.3
15 0.06
18 0.14
19 0.57
2 -0.57
20 0.57
21 0.44
22 0.34
23 -0.14
24 -0.15
25 -0.15
26 0.28
27 -0.15
28 -0.15
29 0.19
3 -0.57
36 0.15
4 -0.56
5 -0.73
50 0.37
51 0.37
56 0.15
57 0.15
6 -0.73
61 0.15
62 0.15
8 0.14

> <PUBCHEM_EFFECTIVE_ROTOR_COUNT>
11.8

> <PUBCHEM_PHARMACOPHORE_FEATURES>
8
1 2 acceptor
1 3 acceptor
1 4 acceptor
1 5 donor
1 6 donor
3 11 16 17 hydrophobe
6 23 24 25 27 28 29 rings
6 7 8 9 10 12 13 rings

> <PUBCHEM_HEAVY_ATOM_COUNT>
29

> <PUBCHEM_ATOM_DEF_STEREO_COUNT>
3

> <PUBCHEM_ATOM_UDEF_STEREO_COUNT>
0

> <PUBCHEM_BOND_DEF_STEREO_COUNT>
0

> <PUBCHEM_BOND_UDEF_STEREO_COUNT>
0

> <PUBCHEM_ISOTOPIC_ATOM_COUNT>
0

> <PUBCHEM_COMPONENT_COUNT>
1

> <PUBCHEM_CACTVS_TAUTO_COUNT>
4

> <PUBCHEM_CONFORMER_ID>
0244413900000001

> <PUBCHEM_MMFF94_ENERGY>
55.5868

> <PUBCHEM_FEATURE_SELFOVERLAP>
40.601

> <PUBCHEM_SHAPE_FINGERPRINT>
10708813 3 17894915122184169756
11578080 2 17129333903807446027
12156800 1 17399015586932367993
12539773 59 17766520644019825293
12596599 1 18114744832949069542
12788726 201 18411705412918736872
14279260 333 18268430123711523618
14840074 17 16443355277310791478
15664445 248 16836790344728199407
15721738 202 17532665717992935963
16067690 210 18272101465471019028
20764821 26 17833522954382082704
21623110 236 17385437747826735231
23419403 2 17323176829022120399
3459 83 18048037377289295202
35225 105 18269542862830723508
3524813 1 17897997182363306066
469060 322 16298681593030438602

> <PUBCHEM_SHAPE_MULTIPOLES>
561.96
8.41
4.06
3
8.18
3.02
-1.42
-0.11
-1.43
-3.38
2.87
0.28
0.09
-0.46

> <PUBCHEM_SHAPE_SELFOVERLAP>
1149.623

> <PUBCHEM_SHAPE_VOLUME>
325.7

> <PUBCHEM_COORDINATE_TYPE>
2
5
10

$$$$
