51137598
  -OEChem-12032416223D

 51 54  0     1  0  0  0  0  0999 V2000
    9.2635    0.6352   -0.8242 F   0  0  0  0  0  0  0  0  0  0  0  0
    0.9871    0.0631   -0.1434 O   0  0  0  0  0  0  0  0  0  0  0  0
    3.9540   -0.3802    0.1672 O   0  0  0  0  0  0  0  0  0  0  0  0
   -3.6829   -0.6249   -0.4977 N   0  0  1  0  0  0  0  0  0  0  0  0
   -7.6839    0.8074   -0.5684 N   0  0  0  0  0  0  0  0  0  0  0  0
   -0.0757   -0.3238    1.7867 N   0  0  0  0  0  0  0  0  0  0  0  0
    1.2165    0.0688    2.0818 N   0  0  0  0  0  0  0  0  0  0  0  0
   -4.9587   -0.1031   -0.0131 C   0  0  0  0  0  0  0  0  0  0  0  0
   -2.5574    0.2492   -0.1601 C   0  0  0  0  0  0  0  0  0  0  0  0
   -1.3395   -0.6500   -0.4113 C   0  0  2  0  0  0  0  0  0  0  0  0
   -3.3477   -1.9184    0.0977 C   0  0  0  0  0  0  0  0  0  0  0  0
   -1.8757   -2.0840   -0.2574 C   0  0  0  0  0  0  0  0  0  0  0  0
   -6.0917   -1.0753   -0.3517 C   0  0  0  0  0  0  0  0  0  0  0  0
   -5.2534    1.2730   -0.6174 C   0  0  0  0  0  0  0  0  0  0  0  0
   -7.4496   -0.5002    0.0599 C   0  0  0  0  0  0  0  0  0  0  0  0
   -6.6385    1.7713   -0.1974 C   0  0  0  0  0  0  0  0  0  0  0  0
   -0.1646   -0.3127    0.4772 C   0  0  0  0  0  0  0  0  0  0  0  0
   -9.0048    1.3201   -0.2060 C   0  0  0  0  0  0  0  0  0  0  0  0
    1.7998    0.2837    0.9259 C   0  0  0  0  0  0  0  0  0  0  0  0
    3.1716    0.7208    0.6372 C   0  0  0  0  0  0  0  0  0  0  0  0
    5.2744   -0.1277   -0.0794 C   0  0  0  0  0  0  0  0  0  0  0  0
    5.7910    1.1511    0.1299 C   0  0  0  0  0  0  0  0  0  0  0  0
    6.1055   -1.1487   -0.5400 C   0  0  0  0  0  0  0  0  0  0  0  0
    7.1384    1.4089   -0.1217 C   0  0  0  0  0  0  0  0  0  0  0  0
    7.4531   -0.8911   -0.7917 C   0  0  0  0  0  0  0  0  0  0  0  0
    7.9695    0.3877   -0.5826 C   0  0  0  0  0  0  0  0  0  0  0  0
   -4.9233    0.0085    1.0808 H   0  0  0  0  0  0  0  0  0  0  0  0
   -2.5061    1.1347   -0.8026 H   0  0  0  0  0  0  0  0  0  0  0  0
   -2.5982    0.5796    0.8864 H   0  0  0  0  0  0  0  0  0  0  0  0
   -1.0212   -0.5259   -1.4563 H   0  0  0  0  0  0  0  0  0  0  0  0
   -3.4679   -1.9123    1.1887 H   0  0  0  0  0  0  0  0  0  0  0  0
   -3.9270   -2.7476   -0.3196 H   0  0  0  0  0  0  0  0  0  0  0  0
   -1.7751   -2.6141   -1.2129 H   0  0  0  0  0  0  0  0  0  0  0  0
   -1.3454   -2.6665    0.5034 H   0  0  0  0  0  0  0  0  0  0  0  0
   -6.1008   -1.2922   -1.4285 H   0  0  0  0  0  0  0  0  0  0  0  0
   -5.9690   -2.0317    0.1691 H   0  0  0  0  0  0  0  0  0  0  0  0
   -4.5184    2.0174   -0.2906 H   0  0  0  0  0  0  0  0  0  0  0  0
   -5.2009    1.2272   -1.7136 H   0  0  0  0  0  0  0  0  0  0  0  0
   -7.5013   -0.4234    1.1541 H   0  0  0  0  0  0  0  0  0  0  0  0
   -8.2281   -1.2063   -0.2539 H   0  0  0  0  0  0  0  0  0  0  0  0
   -6.6492    1.9633    0.8838 H   0  0  0  0  0  0  0  0  0  0  0  0
   -6.8230    2.7289   -0.6996 H   0  0  0  0  0  0  0  0  0  0  0  0
   -9.2014    2.2708   -0.7140 H   0  0  0  0  0  0  0  0  0  0  0  0
   -9.1058    1.4784    0.8739 H   0  0  0  0  0  0  0  0  0  0  0  0
   -9.7888    0.6255   -0.5276 H   0  0  0  0  0  0  0  0  0  0  0  0
    3.1310    1.5113   -0.1226 H   0  0  0  0  0  0  0  0  0  0  0  0
    3.5896    1.1136    1.5726 H   0  0  0  0  0  0  0  0  0  0  0  0
    5.2067    1.9947    0.4802 H   0  0  0  0  0  0  0  0  0  0  0  0
    5.7088   -2.1468   -0.7047 H   0  0  0  0  0  0  0  0  0  0  0  0
    7.5418    2.4043    0.0394 H   0  0  0  0  0  0  0  0  0  0  0  0
    8.1004   -1.6858   -1.1505 H   0  0  0  0  0  0  0  0  0  0  0  0
  1 26  1  0  0  0  0
  2 17  1  0  0  0  0
  2 19  1  0  0  0  0
  3 20  1  0  0  0  0
  3 21  1  0  0  0  0
  4  8  1  0  0  0  0
  4  9  1  0  0  0  0
  4 11  1  0  0  0  0
  5 15  1  0  0  0  0
  5 16  1  0  0  0  0
  5 18  1  0  0  0  0
  6  7  1  0  0  0  0
  6 17  2  0  0  0  0
  7 19  2  0  0  0  0
  8 13  1  0  0  0  0
  8 14  1  0  0  0  0
  8 27  1  0  0  0  0
  9 10  1  0  0  0  0
  9 28  1  0  0  0  0
  9 29  1  0  0  0  0
 10 12  1  0  0  0  0
 10 17  1  0  0  0  0
 10 30  1  0  0  0  0
 11 12  1  0  0  0  0
 11 31  1  0  0  0  0
 11 32  1  0  0  0  0
 12 33  1  0  0  0  0
 12 34  1  0  0  0  0
 13 15  1  0  0  0  0
 13 35  1  0  0  0  0
 13 36  1  0  0  0  0
 14 16  1  0  0  0  0
 14 37  1  0  0  0  0
 14 38  1  0  0  0  0
 15 39  1  0  0  0  0
 15 40  1  0  0  0  0
 16 41  1  0  0  0  0
 16 42  1  0  0  0  0
 18 43  1  0  0  0  0
 18 44  1  0  0  0  0
 18 45  1  0  0  0  0
 19 20  1  0  0  0  0
 20 46  1  0  0  0  0
 20 47  1  0  0  0  0
 21 22  2  0  0  0  0
 21 23  1  0  0  0  0
 22 24  1  0  0  0  0
 22 48  1  0  0  0  0
 23 25  2  0  0  0  0
 23 49  1  0  0  0  0
 24 26  2  0  0  0  0
 24 50  1  0  0  0  0
 25 26  1  0  0  0  0
 25 51  1  0  0  0  0
M  END
> <PUBCHEM_COMPOUND_CID>
51137598

> <PUBCHEM_CONFORMER_RMSD>
1.2

> <PUBCHEM_CONFORMER_DIVERSEORDER>
1
7
29
38
47
22
26
21
27
59
33
45
58
35
46
2
18
4
53
14
36
52
23
25
56
37
20
57
31
12
55
5
28
49
42
24
41
32
3
15
8
9
17
54
13
19
10
16
39
6
51
48
30
11
43
40
34
50
44

> <PUBCHEM_MMFF94_PARTIAL_CHARGES>
27
1 -0.19
10 0.18
11 0.27
15 0.27
16 0.27
17 0.3
18 0.27
19 0.3
2 -0.28
20 0.46
21 0.08
22 -0.15
23 -0.15
24 -0.15
25 -0.15
26 0.19
3 -0.36
4 -0.81
48 0.15
49 0.15
5 -0.81
50 0.15
51 0.15
6 -0.34
7 -0.34
8 0.27
9 0.27

> <PUBCHEM_EFFECTIVE_ROTOR_COUNT>
7.2

> <PUBCHEM_PHARMACOPHORE_FEATURES>
7
1 3 acceptor
1 4 cation
1 5 cation
5 2 6 7 17 19 rings
5 4 9 10 11 12 rings
6 21 22 23 24 25 26 rings
6 5 8 13 14 15 16 rings

> <PUBCHEM_HEAVY_ATOM_COUNT>
26

> <PUBCHEM_ATOM_DEF_STEREO_COUNT>
1

> <PUBCHEM_ATOM_UDEF_STEREO_COUNT>
0

> <PUBCHEM_BOND_DEF_STEREO_COUNT>
0

> <PUBCHEM_BOND_UDEF_STEREO_COUNT>
0

> <PUBCHEM_ISOTOPIC_ATOM_COUNT>
0

> <PUBCHEM_COMPONENT_COUNT>
1

> <PUBCHEM_CACTVS_TAUTO_COUNT>
1

> <PUBCHEM_CONFORMER_ID>
030C4C3E00000001

> <PUBCHEM_MMFF94_ENERGY>
46.2927

> <PUBCHEM_FEATURE_SELFOVERLAP>
35.523

> <PUBCHEM_SHAPE_FINGERPRINT>
10 15 12251903698325429024
10066227 112 18413386557486560088
10165383 225 18413388718730387423
10299344 5 18187362125449611538
10369192 42 18408036295952392303
106641 1 13045946806755030905
10670039 82 18059856126381042721
10674148 151 18334572452153989322
10835480 77 18059852930909283808
10883706 142 16732980930039997728
10904742 90 17894910720138376363
11135609 127 18200026382874842288
11135926 11 13542466454244935021
11315181 36 17846503655657765163
11408170 108 14117534116493754636
11638347 137 9223237351650944220
11646440 116 15068340121091609374
11719270 70 17489588944467250558
12838862 33 17132104737655322374
13177829 20 8718825388491144330
13885169 127 18342176669896931719
13964095 4 18343302573877325418
14150022 121 13984932997289079607
14251752 14 18202844340021630722
14251764 18 18040991851904729915
14251764 46 18413952784436490910
14933364 13 18408602565235193557
15183329 4 18202283580522688122
15188451 53 11959731573146395818
15198563 99 17417545626895801168
15247644 1 13973971991921341332
15461852 350 18060132176987625191
15690457 1 11887954345809802732
15716309 27 11097856293801287249
15728490 51 13045951218029576313
1577012 14 17967805042709495635
15849732 13 18334858328939460941
18006028 8 15626226823234780626
20505436 4 17967243192331519355
20721686 146 17896027751628791525
21095123 293 17313105241395791325
21150785 3 18409167709895661304
21365058 27 17167581583757837419
21585482 111 18194401092656895329
21792934 111 17489579057810588146
21792961 116 17846503616697214650
22002106 203 8213269942842703737
22224240 67 14779267514221127929
23559900 14 17631724001925958258
23576562 1 17773300430670575869
249057 3 18341894121236685708
28498 318 17703792505165090678
3004659 81 18273214214677858186
335352 9 18343298176421612813
3711267 37 17749116560685579877
4073 2 18114465660133235378
4098825 35 18413387648349938742
4149490 64 12606820606370117247
5219985 9 15267345119674170946
5385378 56 16008740287398566842
54076057 127 15864346909590033928
5719381 82 12391499920404952973
5758199 1 16805321085190907921
59682541 35 12107790717752052036
6081469 158 18201725025312503172
9663363 56 16271923810307991882
9689198 14 17967534562500720977
9953998 17 13695874735836017969
9980921 7 18041273255429376397

> <PUBCHEM_SHAPE_MULTIPOLES>
496.13
29.56
1.59
1.02
11
0.22
-0.44
-9.46
8.99
-1.48
0.18
0.57
-0.01
0.61

> <PUBCHEM_SHAPE_SELFOVERLAP>
1053.868

> <PUBCHEM_SHAPE_VOLUME>
280.2

> <PUBCHEM_COORDINATE_TYPE>
2
5
10

$$$$
