45783454
  -OEChem-12032416273D

 49 52  0     1  0  0  0  0  0999 V2000
   -2.2294    1.3960    2.8080 S   0  0  0  0  0  0  0  0  0  0  0  0
   -2.5491   -2.1027    0.6979 O   0  0  0  0  0  0  0  0  0  0  0  0
    3.8611   -0.2852   -1.2461 O   0  0  0  0  0  0  0  0  0  0  0  0
    5.3367    1.8851   -0.2665 O   0  0  0  0  0  0  0  0  0  0  0  0
   -3.4170    1.1381   -0.8019 N   0  0  1  0  0  0  0  0  0  0  0  0
   -1.1448   -0.7590   -0.4153 N   0  0  0  0  0  0  0  0  0  0  0  0
   -1.2619   -2.6004    0.9372 N   0  0  0  0  0  0  0  0  0  0  0  0
    1.4604   -2.9107    0.9016 N   0  0  0  0  0  0  0  0  0  0  0  0
   -3.6532   -0.2909   -0.5154 C   0  0  1  0  0  0  0  0  0  0  0  0
   -4.2710   -0.8524   -1.8094 C   0  0  0  0  0  0  0  0  0  0  0  0
   -4.3993    0.3446   -2.7408 C   0  0  0  0  0  0  0  0  0  0  0  0
   -4.4145    1.5305   -1.7975 C   0  0  0  0  0  0  0  0  0  0  0  0
   -3.4693    1.9787    0.3873 C   0  0  0  0  0  0  0  0  0  0  0  0
   -2.3900   -1.0194   -0.1068 C   0  0  0  0  0  0  0  0  0  0  0  0
   -2.1886    1.9141    1.1764 C   0  0  0  0  0  0  0  0  0  0  0  0
   -0.9115    2.2264    0.7650 C   0  0  0  0  0  0  0  0  0  0  0  0
   -0.4895   -1.7553    0.2479 C   0  0  0  0  0  0  0  0  0  0  0  0
    0.0461    2.0379    1.8030 C   0  0  0  0  0  0  0  0  0  0  0  0
   -0.5355    1.5886    2.9681 C   0  0  0  0  0  0  0  0  0  0  0  0
    0.9386   -1.8795    0.2001 C   0  0  0  0  0  0  0  0  0  0  0  0
    1.6947   -0.9775   -0.5310 C   0  0  0  0  0  0  0  0  0  0  0  0
    3.0751   -1.1444   -0.5429 C   0  0  0  0  0  0  0  0  0  0  0  0
    2.8056   -3.0411    0.8665 C   0  0  0  0  0  0  0  0  0  0  0  0
    3.6491   -2.1935    0.1667 C   0  0  0  0  0  0  0  0  0  0  0  0
    3.3922    1.0552   -1.3895 C   0  0  0  0  0  0  0  0  0  0  0  0
    4.5835    1.9904   -1.4686 C   0  0  0  0  0  0  0  0  0  0  0  0
    6.4813    2.7263   -0.2941 C   0  0  0  0  0  0  0  0  0  0  0  0
   -4.3964   -0.4094    0.2857 H   0  0  0  0  0  0  0  0  0  0  0  0
   -3.6770   -1.6461   -2.2754 H   0  0  0  0  0  0  0  0  0  0  0  0
   -5.2671   -1.2591   -1.5959 H   0  0  0  0  0  0  0  0  0  0  0  0
   -5.2980    0.2909   -3.3622 H   0  0  0  0  0  0  0  0  0  0  0  0
   -3.5276    0.3950   -3.4050 H   0  0  0  0  0  0  0  0  0  0  0  0
   -5.4103    1.6492   -1.3517 H   0  0  0  0  0  0  0  0  0  0  0  0
   -4.1417    2.4569   -2.3123 H   0  0  0  0  0  0  0  0  0  0  0  0
   -4.3486    1.7546    1.0051 H   0  0  0  0  0  0  0  0  0  0  0  0
   -3.5796    3.0294    0.0830 H   0  0  0  0  0  0  0  0  0  0  0  0
   -0.6696    2.5734   -0.2316 H   0  0  0  0  0  0  0  0  0  0  0  0
    1.1078    2.2203    1.6994 H   0  0  0  0  0  0  0  0  0  0  0  0
   -0.0464    1.3631    3.9052 H   0  0  0  0  0  0  0  0  0  0  0  0
    1.2133   -0.1873   -1.0971 H   0  0  0  0  0  0  0  0  0  0  0  0
    3.2034   -3.8745    1.4361 H   0  0  0  0  0  0  0  0  0  0  0  0
    4.7225   -2.3474    0.1754 H   0  0  0  0  0  0  0  0  0  0  0  0
    2.7938    1.3610   -0.5215 H   0  0  0  0  0  0  0  0  0  0  0  0
    2.7919    1.1329   -2.3024 H   0  0  0  0  0  0  0  0  0  0  0  0
    5.2217    1.7049   -2.3129 H   0  0  0  0  0  0  0  0  0  0  0  0
    4.2419    3.0224   -1.6049 H   0  0  0  0  0  0  0  0  0  0  0  0
    7.1493    2.4390   -1.1118 H   0  0  0  0  0  0  0  0  0  0  0  0
    6.1850    3.7744   -0.3994 H   0  0  0  0  0  0  0  0  0  0  0  0
    7.0176    2.6089    0.6514 H   0  0  0  0  0  0  0  0  0  0  0  0
  1 15  1  0  0  0  0
  1 19  1  0  0  0  0
  2  7  1  0  0  0  0
  2 14  1  0  0  0  0
  3 22  1  0  0  0  0
  3 25  1  0  0  0  0
  4 26  1  0  0  0  0
  4 27  1  0  0  0  0
  5  9  1  0  0  0  0
  5 12  1  0  0  0  0
  5 13  1  0  0  0  0
  6 14  2  0  0  0  0
  6 17  1  0  0  0  0
  7 17  2  0  0  0  0
  8 20  2  0  0  0  0
  8 23  1  0  0  0  0
  9 10  1  0  0  0  0
  9 14  1  0  0  0  0
  9 28  1  0  0  0  0
 10 11  1  0  0  0  0
 10 29  1  0  0  0  0
 10 30  1  0  0  0  0
 11 12  1  0  0  0  0
 11 31  1  0  0  0  0
 11 32  1  0  0  0  0
 12 33  1  0  0  0  0
 12 34  1  0  0  0  0
 13 15  1  0  0  0  0
 13 35  1  0  0  0  0
 13 36  1  0  0  0  0
 15 16  2  0  0  0  0
 16 18  1  0  0  0  0
 16 37  1  0  0  0  0
 17 20  1  0  0  0  0
 18 19  2  0  0  0  0
 18 38  1  0  0  0  0
 19 39  1  0  0  0  0
 20 21  1  0  0  0  0
 21 22  2  0  0  0  0
 21 40  1  0  0  0  0
 22 24  1  0  0  0  0
 23 24  2  0  0  0  0
 23 41  1  0  0  0  0
 24 42  1  0  0  0  0
 25 26  1  0  0  0  0
 25 43  1  0  0  0  0
 25 44  1  0  0  0  0
 26 45  1  0  0  0  0
 26 46  1  0  0  0  0
 27 47  1  0  0  0  0
 27 48  1  0  0  0  0
 27 49  1  0  0  0  0
M  END
> <PUBCHEM_COMPOUND_CID>
45783454

> <PUBCHEM_CONFORMER_RMSD>
1

> <PUBCHEM_CONFORMER_DIVERSEORDER>
1
52
115
96
136
174
68
46
144
78
42
72
94
157
122
107
123
101
35
162
158
82
80
63
60
89
139
134
92
38
168
20
126
23
148
40
154
17
140
66
146
105
127
58
34
135
2
145
130
43
32
65
95
152
24
119
156
177
137
74
111
67
117
54
165
143
6
69
21
70
161
86
142
36
113
181
8
120
5
118
163
103
14
151
77
104
171
147
99
27
18
62
93
31
9
129
141
125
170
41
76
49
164
22
84
75
176
28
138
150
7
51
178
110
172
149
179
19
4
124
175
159
85
29
102
114
81
64
30
153
116
100
155
121
59
131
91
109
37
128
71
73
79
180
25
16
112
106
50
88
15
55
3
132
83
12
173
57
10
48
169
56
39
160
33
61
45
53
13
133
98
97
166
167
26
44
87
47
11
90
108

> <PUBCHEM_MMFF94_PARTIAL_CHARGES>
31
1 -0.08
12 0.27
13 0.45
14 0.3
15 -0.14
16 -0.15
17 0.46
18 -0.15
19 -0.11
2 -0.02
20 0.36
21 -0.15
22 0.08
23 0.16
24 -0.15
25 0.28
26 0.28
27 0.28
3 -0.36
37 0.15
38 0.15
39 0.15
4 -0.56
40 0.15
41 0.15
42 0.15
5 -0.81
6 -0.57
7 -0.41
8 -0.62
9 0.45

> <PUBCHEM_EFFECTIVE_ROTOR_COUNT>
9

> <PUBCHEM_PHARMACOPHORE_FEATURES>
9
1 3 acceptor
1 4 acceptor
1 5 cation
1 8 acceptor
3 6 7 17 cation
5 1 15 16 18 19 rings
5 2 6 7 14 17 rings
5 5 9 10 11 12 rings
6 8 20 21 22 23 24 rings

> <PUBCHEM_HEAVY_ATOM_COUNT>
27

> <PUBCHEM_ATOM_DEF_STEREO_COUNT>
1

> <PUBCHEM_ATOM_UDEF_STEREO_COUNT>
0

> <PUBCHEM_BOND_DEF_STEREO_COUNT>
0

> <PUBCHEM_BOND_UDEF_STEREO_COUNT>
0

> <PUBCHEM_ISOTOPIC_ATOM_COUNT>
0

> <PUBCHEM_COMPONENT_COUNT>
1

> <PUBCHEM_CACTVS_TAUTO_COUNT>
1

> <PUBCHEM_CONFORMER_ID>
02BA999E00000001

> <PUBCHEM_MMFF94_ENERGY>
52.9204

> <PUBCHEM_FEATURE_SELFOVERLAP>
45.676

> <PUBCHEM_SHAPE_FINGERPRINT>
11582403 64 16660907955123055885
11725454 13 16515966943889341831
12166972 35 18047735027758494282
12788726 201 17631744742202367473
13583140 156 17096951082275812514
14468879 13 17313110751959767325
14931854 50 18343581862742446668
17349148 13 18124588678637322730
17980427 23 18126560116556427778
1813 80 16343122706896649967
192875 21 18121208784151187107
20775438 99 17050149473035933775
21033648 144 18260548909423792622
21033648 29 16732981973221393479
21095088 737 18343309175432145472
212916 134 14273741681885551655
2132832 1 18123173624837157842
22907989 373 17989495099647399979
23557571 272 16772087160915092635
23559900 14 18263074432157531770
394222 165 17894903032215618450
469060 322 17680456586135490283
5265222 85 17407922919645310817
57527295 17 18130210649736710517
6034566 193 17534936222537453908
9981440 41 18114183102919432482

> <PUBCHEM_SHAPE_MULTIPOLES>
521.96
10.75
3.75
2.44
10.59
0.55
-0.45
-6.02
7.65
3.17
-1.53
-2.37
-1.34
-2.17

> <PUBCHEM_SHAPE_SELFOVERLAP>
1103.831

> <PUBCHEM_SHAPE_VOLUME>
296.3

> <PUBCHEM_COORDINATE_TYPE>
2
5
10

$$$$
