51136866
  -OEChem-12032416263D

 58 61  0     1  0  0  0  0  0999 V2000
   -0.7212   -3.7231    0.9349 O   0  0  0  0  0  0  0  0  0  0  0  0
    5.2176    0.8954   -0.0259 O   0  0  0  0  0  0  0  0  0  0  0  0
    7.7737    1.4077   -1.0448 O   0  0  0  0  0  0  0  0  0  0  0  0
   -3.5722   -1.7002   -0.1984 N   0  0  1  0  0  0  0  0  0  0  0  0
   -0.5887   -1.7486   -0.1141 N   0  0  0  0  0  0  0  0  0  0  0  0
    0.6099   -3.3050    1.0585 N   0  0  0  0  0  0  0  0  0  0  0  0
    4.1398   -1.0125    0.7372 N   0  0  0  0  0  0  0  0  0  0  0  0
   -2.8314   -2.9676   -0.0394 C   0  0  1  0  0  0  0  0  0  0  0  0
   -3.0881   -3.7375   -1.3481 C   0  0  0  0  0  0  0  0  0  0  0  0
   -4.6896   -1.9848   -1.0989 C   0  0  0  0  0  0  0  0  0  0  0  0
   -4.0305   -2.8528   -2.1517 C   0  0  0  0  0  0  0  0  0  0  0  0
   -4.0190   -1.1334    1.0676 C   0  0  0  0  0  0  0  0  0  0  0  0
   -1.3574   -2.7502    0.2314 C   0  0  0  0  0  0  0  0  0  0  0  0
   -4.3435    0.3501    0.8994 C   0  0  0  0  0  0  0  0  0  0  0  0
   -3.1089    1.1372    0.4523 C   0  0  0  0  0  0  0  0  0  0  0  0
   -3.4227    2.5971    0.2459 C   0  0  0  0  0  0  0  0  0  0  0  0
    0.6086   -2.1337    0.4152 C   0  0  0  0  0  0  0  0  0  0  0  0
   -3.8440    3.0501   -1.0041 C   0  0  0  0  0  0  0  0  0  0  0  0
   -3.2914    3.4947    1.3053 C   0  0  0  0  0  0  0  0  0  0  0  0
    1.7860   -1.3250    0.2823 C   0  0  0  0  0  0  0  0  0  0  0  0
   -4.1341    4.4012   -1.1949 C   0  0  0  0  0  0  0  0  0  0  0  0
   -3.5815    4.8457    1.1146 C   0  0  0  0  0  0  0  0  0  0  0  0
    1.7483   -0.1116   -0.3956 C   0  0  0  0  0  0  0  0  0  0  0  0
   -4.0028    5.2990   -0.1355 C   0  0  0  0  0  0  0  0  0  0  0  0
    2.9955   -1.7271    0.8256 C   0  0  0  0  0  0  0  0  0  0  0  0
    2.9051    0.6518   -0.5078 C   0  0  0  0  0  0  0  0  0  0  0  0
    4.0645    0.1614    0.0710 C   0  0  0  0  0  0  0  0  0  0  0  0
    6.3790    0.3461    0.5857 C   0  0  0  0  0  0  0  0  0  0  0  0
    7.5497    1.2819    0.3543 C   0  0  0  0  0  0  0  0  0  0  0  0
    8.8493    2.2937   -1.3221 C   0  0  0  0  0  0  0  0  0  0  0  0
   -3.2554   -3.5558    0.7868 H   0  0  0  0  0  0  0  0  0  0  0  0
   -2.1789   -3.9564   -1.9185 H   0  0  0  0  0  0  0  0  0  0  0  0
   -3.5819   -4.6908   -1.1235 H   0  0  0  0  0  0  0  0  0  0  0  0
   -5.4912   -2.5435   -0.5993 H   0  0  0  0  0  0  0  0  0  0  0  0
   -5.1116   -1.0799   -1.5461 H   0  0  0  0  0  0  0  0  0  0  0  0
   -4.7543   -3.4361   -2.7285 H   0  0  0  0  0  0  0  0  0  0  0  0
   -3.4549   -2.2346   -2.8519 H   0  0  0  0  0  0  0  0  0  0  0  0
   -3.2255   -1.2152    1.8218 H   0  0  0  0  0  0  0  0  0  0  0  0
   -4.8864   -1.6697    1.4722 H   0  0  0  0  0  0  0  0  0  0  0  0
   -5.1686    0.4903    0.1905 H   0  0  0  0  0  0  0  0  0  0  0  0
   -4.6996    0.7422    1.8608 H   0  0  0  0  0  0  0  0  0  0  0  0
   -2.6984    0.7369   -0.4830 H   0  0  0  0  0  0  0  0  0  0  0  0
   -2.3073    1.0366    1.1955 H   0  0  0  0  0  0  0  0  0  0  0  0
   -3.9521    2.3599   -1.8366 H   0  0  0  0  0  0  0  0  0  0  0  0
   -2.9656    3.1534    2.2843 H   0  0  0  0  0  0  0  0  0  0  0  0
   -4.4627    4.7541   -2.1681 H   0  0  0  0  0  0  0  0  0  0  0  0
   -3.4797    5.5448    1.9396 H   0  0  0  0  0  0  0  0  0  0  0  0
    0.8326    0.2639   -0.8451 H   0  0  0  0  0  0  0  0  0  0  0  0
   -4.2288    6.3509   -0.2838 H   0  0  0  0  0  0  0  0  0  0  0  0
    3.1094   -2.6600    1.3698 H   0  0  0  0  0  0  0  0  0  0  0  0
    2.8927    1.6006   -1.0330 H   0  0  0  0  0  0  0  0  0  0  0  0
    6.6044   -0.6265    0.1307 H   0  0  0  0  0  0  0  0  0  0  0  0
    6.2195    0.2264    1.6638 H   0  0  0  0  0  0  0  0  0  0  0  0
    7.3200    2.2711    0.7673 H   0  0  0  0  0  0  0  0  0  0  0  0
    8.4479    0.8851    0.8401 H   0  0  0  0  0  0  0  0  0  0  0  0
    8.9791    2.3488   -2.4062 H   0  0  0  0  0  0  0  0  0  0  0  0
    9.7775    1.9213   -0.8779 H   0  0  0  0  0  0  0  0  0  0  0  0
    8.6270    3.2970   -0.9460 H   0  0  0  0  0  0  0  0  0  0  0  0
  1  6  1  0  0  0  0
  1 13  1  0  0  0  0
  2 27  1  0  0  0  0
  2 28  1  0  0  0  0
  3 29  1  0  0  0  0
  3 30  1  0  0  0  0
  4  8  1  0  0  0  0
  4 10  1  0  0  0  0
  4 12  1  0  0  0  0
  5 13  2  0  0  0  0
  5 17  1  0  0  0  0
  6 17  2  0  0  0  0
  7 25  1  0  0  0  0
  7 27  2  0  0  0  0
  8  9  1  0  0  0  0
  8 13  1  0  0  0  0
  8 31  1  0  0  0  0
  9 11  1  0  0  0  0
  9 32  1  0  0  0  0
  9 33  1  0  0  0  0
 10 11  1  0  0  0  0
 10 34  1  0  0  0  0
 10 35  1  0  0  0  0
 11 36  1  0  0  0  0
 11 37  1  0  0  0  0
 12 14  1  0  0  0  0
 12 38  1  0  0  0  0
 12 39  1  0  0  0  0
 14 15  1  0  0  0  0
 14 40  1  0  0  0  0
 14 41  1  0  0  0  0
 15 16  1  0  0  0  0
 15 42  1  0  0  0  0
 15 43  1  0  0  0  0
 16 18  2  0  0  0  0
 16 19  1  0  0  0  0
 17 20  1  0  0  0  0
 18 21  1  0  0  0  0
 18 44  1  0  0  0  0
 19 22  2  0  0  0  0
 19 45  1  0  0  0  0
 20 23  1  0  0  0  0
 20 25  2  0  0  0  0
 21 24  2  0  0  0  0
 21 46  1  0  0  0  0
 22 24  1  0  0  0  0
 22 47  1  0  0  0  0
 23 26  2  0  0  0  0
 23 48  1  0  0  0  0
 24 49  1  0  0  0  0
 25 50  1  0  0  0  0
 26 27  1  0  0  0  0
 26 51  1  0  0  0  0
 28 29  1  0  0  0  0
 28 52  1  0  0  0  0
 28 53  1  0  0  0  0
 29 54  1  0  0  0  0
 29 55  1  0  0  0  0
 30 56  1  0  0  0  0
 30 57  1  0  0  0  0
 30 58  1  0  0  0  0
M  END
> <PUBCHEM_COMPOUND_CID>
51136866

> <PUBCHEM_CONFORMER_RMSD>
1

> <PUBCHEM_CONFORMER_DIVERSEORDER>
1
102
85
32
52
163
188
72
144
8
179
125
83
108
184
9
86
146
66
23
67
183
148
124
180
172
42
186
175
75
61
126
164
63
134
78
60
38
157
176
187
7
109
137
58
174
26
162
27
33
120
98
182
119
81
92
129
65
71
39
20
50
73
195
185
19
142
131
193
76
21
128
17
64
93
41
138
192
49
168
46
114
82
101
53
13
177
103
70
127
74
40
167
43
106
57
116
18
22
84
143
160
153
62
190
77
99
44
16
121
159
2
28
169
94
158
59
25
151
6
139
135
156
189
31
104
24
147
130
155
54
51
112
3
96
4
117
56
166
170
12
88
89
37
95
90
47
145
68
171
34
110
165
194
100
136
118
154
140
14
113
30
107
181
161
105
55
141
10
35
132
152
87
36
115
79
173
122
150
69
15
91
80
48
191
133
29
178
5
123
45
149
97
11
111

> <PUBCHEM_MMFF94_PARTIAL_CHARGES>
35
1 -0.02
10 0.27
12 0.27
13 0.3
15 0.14
16 -0.14
17 0.46
18 -0.15
19 -0.15
2 -0.36
20 0.05
21 -0.15
22 -0.15
23 -0.15
24 -0.15
25 0.16
26 -0.15
27 0.39
28 0.28
29 0.28
3 -0.56
30 0.28
4 -0.81
44 0.15
45 0.15
46 0.15
47 0.15
48 0.15
49 0.15
5 -0.57
50 0.15
51 0.15
6 -0.41
7 -0.62
8 0.45

> <PUBCHEM_EFFECTIVE_ROTOR_COUNT>
11

> <PUBCHEM_PHARMACOPHORE_FEATURES>
7
1 3 acceptor
1 4 cation
3 5 6 17 cation
5 1 5 6 13 17 rings
5 4 8 9 10 11 rings
6 16 18 19 21 22 24 rings
6 7 20 23 25 26 27 rings

> <PUBCHEM_HEAVY_ATOM_COUNT>
30

> <PUBCHEM_ATOM_DEF_STEREO_COUNT>
1

> <PUBCHEM_ATOM_UDEF_STEREO_COUNT>
0

> <PUBCHEM_BOND_DEF_STEREO_COUNT>
0

> <PUBCHEM_BOND_UDEF_STEREO_COUNT>
0

> <PUBCHEM_ISOTOPIC_ATOM_COUNT>
0

> <PUBCHEM_COMPONENT_COUNT>
1

> <PUBCHEM_CACTVS_TAUTO_COUNT>
1

> <PUBCHEM_CONFORMER_ID>
030C496200000001

> <PUBCHEM_MMFF94_ENERGY>
61.8912

> <PUBCHEM_FEATURE_SELFOVERLAP>
35.523

> <PUBCHEM_SHAPE_FINGERPRINT>
100830 39 18410857689886510848
10087517 78 18411417358162774690
10670039 82 18340204193271097834
10871710 139 18411976962906852375
10937287 8 18124309407627129203
10951579 204 18339663174280936428
11408170 253 18265912409414003092
11477941 20 17985812955391125511
11478447 147 16600383946547322197
11607047 403 8427730754901790678
12104220 1 18336825419782326822
12107183 9 17975400335790544370
12788726 201 18337939161143351395
13761468 95 17916602946271720131
14202776 33 18343021137929867620
14251764 75 17981047419031519865
14747282 140 18270415901166194321
15064981 113 17917137317629422470
15183329 4 18115863165783101366
15264996 163 18335697287109584501
15400415 2 17980196392341638608
15448158 71 18263937557037348753
155225 5 18411702058544646960
16120349 189 18189052010265560645
16728433 281 18339941350723094324
16992828 155 18337390444469267957
19304152 47 18188506704343311513
21033650 10 18339380616360387422
21927370 108 18123477343645426883
23516275 100 17694199468008962128
23576562 1 17479729417727552735
23929065 36 18198880656707196416
474 4 17187838724553606449
48014 12 18335148591726090900
563151 97 18407759244687059474
57591035 28 18192406750414751493
6036956 94 18334297604312751821
6058803 2 18191282919364164674
6201320 215 18343016697340086184
6475588 51 18267020751404719396
6608658 132 18269545186571795047
9980921 221 18338531832465757372

> <PUBCHEM_SHAPE_MULTIPOLES>
579.85
17.91
7.21
1.36
50.28
6
-0.38
16.89
-4.77
-14.17
-0.63
-0.86
-0.14
-3.05

> <PUBCHEM_SHAPE_SELFOVERLAP>
1229.588

> <PUBCHEM_SHAPE_VOLUME>
325.5

> <PUBCHEM_COORDINATE_TYPE>
2
5
10

$$$$
