38029310
  -OEChem-12032416243D

 64 66  0     1  0  0  0  0  0999 V2000
    4.1071   -1.9240    0.9414 S   0  0  0  0  0  0  0  0  0  0  0  0
    1.3631   -1.9139    1.9726 S   0  0  0  0  0  0  0  0  0  0  0  0
   -1.5889    3.4681    0.6342 O   0  0  0  0  0  0  0  0  0  0  0  0
    4.4831   -1.7975    2.3365 O   0  0  0  0  0  0  0  0  0  0  0  0
    4.9296   -2.6983    0.0316 O   0  0  0  0  0  0  0  0  0  0  0  0
    3.8566   -0.3723    0.2840 N   0  0  0  0  0  0  0  0  0  0  0  0
   -1.5226    1.6150    2.0350 N   0  0  0  0  0  0  0  0  0  0  0  0
   -6.3891   -2.3681   -2.1267 N   0  0  0  0  0  0  0  0  0  0  0  0
    1.5633    0.5847   -1.3907 C   0  0  1  0  0  0  0  0  0  0  0  0
    3.0474    0.9842   -1.5853 C   0  0  1  0  0  0  0  0  0  0  0  0
    0.6666    1.8321   -1.4005 C   0  0  0  0  0  0  0  0  0  0  0  0
    1.0509    2.8347   -0.2961 C   0  0  2  0  0  0  0  0  0  0  0  0
    1.0937   -0.4001   -2.4660 C   0  0  0  0  0  0  0  0  0  0  0  0
    2.5461    3.0765   -0.2507 C   0  0  0  0  0  0  0  0  0  0  0  0
    3.4220    2.2461   -0.8439 C   0  0  0  0  0  0  0  0  0  0  0  0
    3.9859   -0.1527   -1.1650 C   0  0  0  0  0  0  0  0  0  0  0  0
    0.5270    2.3790    1.0703 C   0  0  0  0  0  0  0  0  0  0  0  0
   -0.3349   -0.8543   -2.1842 C   0  0  0  0  0  0  0  0  0  0  0  0
    1.1970    0.2338   -3.8495 C   0  0  0  0  0  0  0  0  0  0  0  0
    3.0096    4.3209    0.4542 C   0  0  0  0  0  0  0  0  0  0  0  0
   -0.9669    2.5731    1.2000 C   0  0  0  0  0  0  0  0  0  0  0  0
    2.4791   -2.6095    0.8758 C   0  0  0  0  0  0  0  0  0  0  0  0
   -2.9332    1.5589    2.3428 C   0  0  0  0  0  0  0  0  0  0  0  0
    1.9048   -3.6043    0.1153 C   0  0  0  0  0  0  0  0  0  0  0  0
   -3.6875    0.7020    1.3675 C   0  0  0  0  0  0  0  0  0  0  0  0
    0.5304   -3.7978    0.4373 C   0  0  0  0  0  0  0  0  0  0  0  0
    0.1067   -2.9436    1.4315 C   0  0  0  0  0  0  0  0  0  0  0  0
   -4.7229    1.2516    0.6117 C   0  0  0  0  0  0  0  0  0  0  0  0
   -3.3525   -0.6438    1.2173 C   0  0  0  0  0  0  0  0  0  0  0  0
   -5.4235    0.4555   -0.2943 C   0  0  0  0  0  0  0  0  0  0  0  0
   -4.0532   -1.4399    0.3114 C   0  0  0  0  0  0  0  0  0  0  0  0
   -5.0885   -0.8903   -0.4447 C   0  0  0  0  0  0  0  0  0  0  0  0
   -5.8063   -1.7058   -1.3728 C   0  0  0  0  0  0  0  0  0  0  0  0
    1.4421    0.0956   -0.4195 H   0  0  0  0  0  0  0  0  0  0  0  0
    3.2634    1.2113   -2.6321 H   0  0  0  0  0  0  0  0  0  0  0  0
   -0.3921    1.5793   -1.2926 H   0  0  0  0  0  0  0  0  0  0  0  0
    0.7631    2.3676   -2.3525 H   0  0  0  0  0  0  0  0  0  0  0  0
    0.5771    3.7891   -0.5642 H   0  0  0  0  0  0  0  0  0  0  0  0
    1.7249   -1.2953   -2.4463 H   0  0  0  0  0  0  0  0  0  0  0  0
    4.4814    2.4944   -0.8186 H   0  0  0  0  0  0  0  0  0  0  0  0
    5.0283    0.1107   -1.3807 H   0  0  0  0  0  0  0  0  0  0  0  0
    3.7589   -1.0666   -1.7202 H   0  0  0  0  0  0  0  0  0  0  0  0
    0.9669    2.9746    1.8794 H   0  0  0  0  0  0  0  0  0  0  0  0
    0.8023    1.3388    1.2709 H   0  0  0  0  0  0  0  0  0  0  0  0
   -1.0801   -0.0921   -2.4321 H   0  0  0  0  0  0  0  0  0  0  0  0
   -0.4685   -1.1434   -1.1374 H   0  0  0  0  0  0  0  0  0  0  0  0
   -0.5729   -1.7314   -2.7972 H   0  0  0  0  0  0  0  0  0  0  0  0
    0.5619    1.1134   -3.9807 H   0  0  0  0  0  0  0  0  0  0  0  0
    0.8494   -0.4927   -4.5958 H   0  0  0  0  0  0  0  0  0  0  0  0
    2.2173    0.4818   -4.1465 H   0  0  0  0  0  0  0  0  0  0  0  0
    2.5144    5.2024    0.0341 H   0  0  0  0  0  0  0  0  0  0  0  0
    4.0895    4.4729    0.3521 H   0  0  0  0  0  0  0  0  0  0  0  0
    2.7864    4.2723    1.5238 H   0  0  0  0  0  0  0  0  0  0  0  0
    4.1563    0.4200    0.8667 H   0  0  0  0  0  0  0  0  0  0  0  0
   -0.9249    0.9096    2.4559 H   0  0  0  0  0  0  0  0  0  0  0  0
   -3.3304    2.5802    2.3626 H   0  0  0  0  0  0  0  0  0  0  0  0
   -3.0383    1.1458    3.3522 H   0  0  0  0  0  0  0  0  0  0  0  0
    2.4414   -4.1669   -0.6377 H   0  0  0  0  0  0  0  0  0  0  0  0
   -0.1148   -4.5262   -0.0362 H   0  0  0  0  0  0  0  0  0  0  0  0
   -0.8790   -2.8803    1.8691 H   0  0  0  0  0  0  0  0  0  0  0  0
   -4.9943    2.2986    0.7173 H   0  0  0  0  0  0  0  0  0  0  0  0
   -2.5532   -1.0842    1.8059 H   0  0  0  0  0  0  0  0  0  0  0  0
   -6.2280    0.8984   -0.8767 H   0  0  0  0  0  0  0  0  0  0  0  0
   -3.7806   -2.4873    0.2064 H   0  0  0  0  0  0  0  0  0  0  0  0
  1  4  2  0  0  0  0
  1  5  2  0  0  0  0
  1  6  1  0  0  0  0
  1 22  1  0  0  0  0
  2 22  1  0  0  0  0
  2 27  1  0  0  0  0
  3 21  2  0  0  0  0
  6 16  1  0  0  0  0
  6 54  1  0  0  0  0
  7 21  1  0  0  0  0
  7 23  1  0  0  0  0
  7 55  1  0  0  0  0
  8 33  3  0  0  0  0
  9 10  1  0  0  0  0
  9 11  1  0  0  0  0
  9 13  1  0  0  0  0
  9 34  1  0  0  0  0
 10 15  1  0  0  0  0
 10 16  1  0  0  0  0
 10 35  1  0  0  0  0
 11 12  1  0  0  0  0
 11 36  1  0  0  0  0
 11 37  1  0  0  0  0
 12 14  1  0  0  0  0
 12 17  1  0  0  0  0
 12 38  1  0  0  0  0
 13 18  1  0  0  0  0
 13 19  1  0  0  0  0
 13 39  1  0  0  0  0
 14 15  2  0  0  0  0
 14 20  1  0  0  0  0
 15 40  1  0  0  0  0
 16 41  1  0  0  0  0
 16 42  1  0  0  0  0
 17 21  1  0  0  0  0
 17 43  1  0  0  0  0
 17 44  1  0  0  0  0
 18 45  1  0  0  0  0
 18 46  1  0  0  0  0
 18 47  1  0  0  0  0
 19 48  1  0  0  0  0
 19 49  1  0  0  0  0
 19 50  1  0  0  0  0
 20 51  1  0  0  0  0
 20 52  1  0  0  0  0
 20 53  1  0  0  0  0
 22 24  2  0  0  0  0
 23 25  1  0  0  0  0
 23 56  1  0  0  0  0
 23 57  1  0  0  0  0
 24 26  1  0  0  0  0
 24 58  1  0  0  0  0
 25 28  2  0  0  0  0
 25 29  1  0  0  0  0
 26 27  2  0  0  0  0
 26 59  1  0  0  0  0
 27 60  1  0  0  0  0
 28 30  1  0  0  0  0
 28 61  1  0  0  0  0
 29 31  2  0  0  0  0
 29 62  1  0  0  0  0
 30 32  2  0  0  0  0
 30 63  1  0  0  0  0
 31 32  1  0  0  0  0
 31 64  1  0  0  0  0
 32 33  1  0  0  0  0
M  END
> <PUBCHEM_COMPOUND_CID>
38029310

> <PUBCHEM_CONFORMER_RMSD>
1.2

> <PUBCHEM_CONFORMER_DIVERSEORDER>
3
116
82
67
52
150
57
7
89
65
18
149
84
91
129
22
94
83
21
119
147
141
97
30
40
11
132
126
117
146
68
85
130
90
148
76
12
35
138
86
123
4
109
66
72
81
153
38
142
140
9
137
112
95
135
110
33
105
114
74
102
16
58
43
134
56
99
24
8
92
120
32
15
98
136
144
155
111
125
127
36
31
25
106
107
37
152
108
104
41
115
54
20
101
100
93
59
19
1
78
121
53
39
154
88
133
80
71
151
79
143
10
26
75
131
42
70
49
46
60
139
96
50
34
44
77
5
87
47
122
124
23
103
69
73
55
118
27
62
63
28
2
113
128
61
17
13
145
14
48
6
64
51
29
45

> <PUBCHEM_MMFF94_PARTIAL_CHARGES>
38
1 1.5
10 0.14
12 0.14
14 -0.28
15 -0.29
16 0.36
17 0.06
2 -0.08
20 0.14
21 0.57
22 -0.02
23 0.44
24 -0.15
25 -0.14
26 -0.15
27 -0.11
28 -0.15
29 -0.15
3 -0.57
30 -0.15
31 -0.15
32 0.07
33 0.48
4 -0.65
40 0.15
5 -0.65
54 0.42
55 0.37
58 0.15
59 0.15
6 -0.91
60 0.15
61 0.15
62 0.15
63 0.15
64 0.15
7 -0.73
8 -0.56

> <PUBCHEM_EFFECTIVE_ROTOR_COUNT>
10.8

> <PUBCHEM_PHARMACOPHORE_FEATURES>
10
1 3 acceptor
1 4 acceptor
1 5 acceptor
1 6 donor
1 7 donor
1 8 acceptor
3 13 18 19 hydrophobe
5 2 22 24 26 27 rings
6 25 28 29 30 31 32 rings
6 9 10 11 12 14 15 rings

> <PUBCHEM_HEAVY_ATOM_COUNT>
33

> <PUBCHEM_ATOM_DEF_STEREO_COUNT>
3

> <PUBCHEM_ATOM_UDEF_STEREO_COUNT>
0

> <PUBCHEM_BOND_DEF_STEREO_COUNT>
0

> <PUBCHEM_BOND_UDEF_STEREO_COUNT>
0

> <PUBCHEM_ISOTOPIC_ATOM_COUNT>
0

> <PUBCHEM_COMPONENT_COUNT>
1

> <PUBCHEM_CACTVS_TAUTO_COUNT>
2

> <PUBCHEM_CONFORMER_ID>
024447FE00000003

> <PUBCHEM_MMFF94_ENERGY>
57.1081

> <PUBCHEM_FEATURE_SELFOVERLAP>
50.765

> <PUBCHEM_SHAPE_FINGERPRINT>
10816530 23 17027414930472644405
11513181 2 18126296237443959998
12156800 1 15838432721750607400
14068700 675 18339633447714449786
14725015 67 16828118672787662434
15001296 14 18337667633041859755
17138139 8 18342745164399944038
19026451 147 18343013424353719711
19315092 285 18340190982452836191
20764821 26 16896254304538586483
21421861 104 18121808065428319817
35225 105 17177194793832990970
4394409 98 18058143087539144863
46194498 28 15359703061004042985
463206 1 18262816059424135465
469060 322 18192136106480306418
508706 21 15575295292926406571
6669772 16 17839733004635055649
9896288 288 17693095168361893080

> <PUBCHEM_SHAPE_MULTIPOLES>
654.27
11.03
5.14
2.74
15.38
0.34
1.66
-4.47
1.72
-4.37
-1.94
0.11
-0.24
-3.3

> <PUBCHEM_SHAPE_SELFOVERLAP>
1340.484

> <PUBCHEM_SHAPE_VOLUME>
378.1

> <PUBCHEM_COORDINATE_TYPE>
2
5
10

$$$$
