11885142
  -OEChem-12032416213D

 53 58  0     1  0  0  0  0  0999 V2000
   -0.8295   -1.8933    1.5587 O   0  0  0  0  0  0  0  0  0  0  0  0
    2.5228    1.1306    2.1572 O   0  0  0  0  0  0  0  0  0  0  0  0
    4.3612    2.3965   -0.5132 O   0  0  0  0  0  0  0  0  0  0  0  0
    3.6898   -0.0924    0.5712 N   0  0  0  0  0  0  0  0  0  0  0  0
    1.0855   -1.8376    0.2285 N   0  0  0  0  0  0  0  0  0  0  0  0
    3.3968   -2.5021    1.1128 C   0  0  2  0  0  0  0  0  0  0  0  0
    3.1482   -1.7325   -1.2125 C   0  0  2  0  0  0  0  0  0  0  0  0
    3.6942   -2.8609   -0.3393 C   0  0  0  0  0  0  0  0  0  0  0  0
    1.8759   -2.4514    1.3061 C   0  0  0  0  0  0  0  0  0  0  0  0
    4.0739   -1.1699    1.4850 C   0  0  0  0  0  0  0  0  0  0  0  0
    3.8617   -0.4113   -0.8569 C   0  0  0  0  0  0  0  0  0  0  0  0
    1.6526   -1.5678   -1.0196 C   0  0  0  0  0  0  0  0  0  0  0  0
    0.8855   -1.1223   -2.0273 C   0  0  0  0  0  0  0  0  0  0  0  0
   -0.2850   -1.6361    0.4836 C   0  0  0  0  0  0  0  0  0  0  0  0
    3.1302    1.0920    1.0860 C   0  0  0  0  0  0  0  0  0  0  0  0
   -1.1093   -1.0908   -0.6512 C   0  0  0  0  0  0  0  0  0  0  0  0
   -0.5153   -0.8768   -1.8346 C   0  0  0  0  0  0  0  0  0  0  0  0
    3.2683    2.2970    0.2797 C   0  0  0  0  0  0  0  0  0  0  0  0
   -2.5376   -0.7788   -0.4747 C   0  0  0  0  0  0  0  0  0  0  0  0
   -2.9280    0.4901   -0.0444 C   0  0  0  0  0  0  0  0  0  0  0  0
    2.4679    3.4009    0.1635 C   0  0  0  0  0  0  0  0  0  0  0  0
   -3.4997   -1.7501   -0.7379 C   0  0  0  0  0  0  0  0  0  0  0  0
   -4.2862    0.8028    0.1285 C   0  0  0  0  0  0  0  0  0  0  0  0
   -4.8536   -1.4567   -0.5720 C   0  0  0  0  0  0  0  0  0  0  0  0
   -5.2634   -0.1851   -0.1395 C   0  0  0  0  0  0  0  0  0  0  0  0
    3.1118    4.2472   -0.7704 C   0  0  0  0  0  0  0  0  0  0  0  0
    4.2590    3.5914   -1.1524 C   0  0  0  0  0  0  0  0  0  0  0  0
   -4.6959    2.0748    0.5606 C   0  0  0  0  0  0  0  0  0  0  0  0
   -6.6217    0.1278    0.0334 C   0  0  0  0  0  0  0  0  0  0  0  0
   -6.0497    2.3682    0.7270 C   0  0  0  0  0  0  0  0  0  0  0  0
   -7.0106    1.3965    0.4640 C   0  0  0  0  0  0  0  0  0  0  0  0
    3.8038   -3.2771    1.7738 H   0  0  0  0  0  0  0  0  0  0  0  0
    3.3643   -1.9734   -2.2615 H   0  0  0  0  0  0  0  0  0  0  0  0
    3.2290   -3.8186   -0.6042 H   0  0  0  0  0  0  0  0  0  0  0  0
    4.7744   -2.9748   -0.4919 H   0  0  0  0  0  0  0  0  0  0  0  0
    1.6261   -1.9536    2.2515 H   0  0  0  0  0  0  0  0  0  0  0  0
    1.4995   -3.4794    1.3981 H   0  0  0  0  0  0  0  0  0  0  0  0
    3.8434   -0.8967    2.5203 H   0  0  0  0  0  0  0  0  0  0  0  0
    5.1637   -1.2728    1.4144 H   0  0  0  0  0  0  0  0  0  0  0  0
    4.9382   -0.4896   -1.0487 H   0  0  0  0  0  0  0  0  0  0  0  0
    3.4629    0.3895   -1.4859 H   0  0  0  0  0  0  0  0  0  0  0  0
    1.3042   -0.8913   -3.0011 H   0  0  0  0  0  0  0  0  0  0  0  0
   -1.0644   -0.4817   -2.6842 H   0  0  0  0  0  0  0  0  0  0  0  0
   -2.1703    1.2457    0.1607 H   0  0  0  0  0  0  0  0  0  0  0  0
    1.5362    3.5826    0.6802 H   0  0  0  0  0  0  0  0  0  0  0  0
   -3.2118   -2.7437   -1.0730 H   0  0  0  0  0  0  0  0  0  0  0  0
   -5.5874   -2.2317   -0.7836 H   0  0  0  0  0  0  0  0  0  0  0  0
    2.7810    5.2139   -1.1215 H   0  0  0  0  0  0  0  0  0  0  0  0
    5.0637    3.8272   -1.8333 H   0  0  0  0  0  0  0  0  0  0  0  0
   -3.9622    2.8499    0.7722 H   0  0  0  0  0  0  0  0  0  0  0  0
   -7.3901   -0.6162   -0.1665 H   0  0  0  0  0  0  0  0  0  0  0  0
   -6.3533    3.3558    1.0620 H   0  0  0  0  0  0  0  0  0  0  0  0
   -8.0644    1.6256    0.5937 H   0  0  0  0  0  0  0  0  0  0  0  0
  1 14  2  0  0  0  0
  2 15  2  0  0  0  0
  3 18  1  0  0  0  0
  3 27  1  0  0  0  0
  4 10  1  0  0  0  0
  4 11  1  0  0  0  0
  4 15  1  0  0  0  0
  5  9  1  0  0  0  0
  5 12  1  0  0  0  0
  5 14  1  0  0  0  0
  6  8  1  0  0  0  0
  6  9  1  0  0  0  0
  6 10  1  0  0  0  0
  6 32  1  0  0  0  0
  7  8  1  0  0  0  0
  7 11  1  0  0  0  0
  7 12  1  0  0  0  0
  7 33  1  0  0  0  0
  8 34  1  0  0  0  0
  8 35  1  0  0  0  0
  9 36  1  0  0  0  0
  9 37  1  0  0  0  0
 10 38  1  0  0  0  0
 10 39  1  0  0  0  0
 11 40  1  0  0  0  0
 11 41  1  0  0  0  0
 12 13  2  0  0  0  0
 13 17  1  0  0  0  0
 13 42  1  0  0  0  0
 14 16  1  0  0  0  0
 15 18  1  0  0  0  0
 16 17  2  0  0  0  0
 16 19  1  0  0  0  0
 17 43  1  0  0  0  0
 18 21  2  0  0  0  0
 19 20  2  0  0  0  0
 19 22  1  0  0  0  0
 20 23  1  0  0  0  0
 20 44  1  0  0  0  0
 21 26  1  0  0  0  0
 21 45  1  0  0  0  0
 22 24  2  0  0  0  0
 22 46  1  0  0  0  0
 23 25  1  0  0  0  0
 23 28  2  0  0  0  0
 24 25  1  0  0  0  0
 24 47  1  0  0  0  0
 25 29  2  0  0  0  0
 26 27  2  0  0  0  0
 26 48  1  0  0  0  0
 27 49  1  0  0  0  0
 28 30  1  0  0  0  0
 28 50  1  0  0  0  0
 29 31  1  0  0  0  0
 29 51  1  0  0  0  0
 30 31  2  0  0  0  0
 30 52  1  0  0  0  0
 31 53  1  0  0  0  0
M  END
> <PUBCHEM_COMPOUND_CID>
11885142

> <PUBCHEM_CONFORMER_RMSD>
0.8

> <PUBCHEM_CONFORMER_DIVERSEORDER>
1
13
19
21
9
6
8
11
10
5
12
17
14
7
18
15
2
16
3
20
4

> <PUBCHEM_MMFF94_PARTIAL_CHARGES>
39
1 -0.57
10 0.3
11 0.3
12 -0.03
13 -0.15
14 0.62
15 0.71
16 -0.01
17 -0.15
18 0.05
19 0.03
2 -0.57
20 -0.15
21 -0.15
22 -0.15
24 -0.15
26 -0.15
27 -0.01
28 -0.15
29 -0.15
3 -0.28
30 -0.15
31 -0.15
4 -0.66
42 0.15
43 0.15
44 0.15
45 0.15
46 0.15
47 0.15
48 0.15
49 0.15
5 -0.47
50 0.15
51 0.15
52 0.15
53 0.15
7 0.14
9 0.3

> <PUBCHEM_EFFECTIVE_ROTOR_COUNT>
4

> <PUBCHEM_PHARMACOPHORE_FEATURES>
9
1 1 acceptor
1 2 acceptor
1 3 acceptor
5 3 18 21 26 27 rings
6 19 20 22 23 24 25 rings
6 23 25 28 29 30 31 rings
6 4 6 7 8 10 11 rings
6 5 12 13 14 16 17 rings
6 5 6 7 8 9 12 rings

> <PUBCHEM_HEAVY_ATOM_COUNT>
31

> <PUBCHEM_ATOM_DEF_STEREO_COUNT>
2

> <PUBCHEM_ATOM_UDEF_STEREO_COUNT>
0

> <PUBCHEM_BOND_DEF_STEREO_COUNT>
0

> <PUBCHEM_BOND_UDEF_STEREO_COUNT>
0

> <PUBCHEM_ISOTOPIC_ATOM_COUNT>
0

> <PUBCHEM_COMPONENT_COUNT>
1

> <PUBCHEM_CACTVS_TAUTO_COUNT>
1

> <PUBCHEM_CONFORMER_ID>
00B55A5600000001

> <PUBCHEM_MMFF94_ENERGY>
85.625

> <PUBCHEM_FEATURE_SELFOVERLAP>
47.298

> <PUBCHEM_SHAPE_FINGERPRINT>
10165383 225 17749396983880014614
10483366 6 18337971047481658924
10763959 59 17916874508332120759
11070050 100 17167865236050306235
11578080 2 18042703851602062658
11796584 16 11963385203067547331
12166972 35 18129383704701188707
12236239 1 18114751417735535423
12633257 1 17751055072814973106
13150687 139 11382964139437166066
13878862 14 18190158158087028589
13944108 23 18409736162051336044
14251764 38 18411139151767232057
14739800 52 18340769346664145789
14849402 71 18261111876978822092
15142526 21 18117557542532571602
15163728 17 18044667631320022740
15238133 3 18410854352833909378
15475509 84 17468184553475979306
17844677 252 18341898476671387363
20567600 9 18338521944997302540
20715895 44 17987235513501040945
21285901 2 12895068496607606771
21315764 268 18335700486781170133
21475661 188 18409169952090187804
21641784 216 15913057482535253467
21860390 5 18413387627376229790
22122407 14 18410584984995557729
23559900 14 17560527187938256487
23569914 152 11021054161762342713
245318 6 18042979863544208797
249057 3 18130225947762138999
3298306 158 18128255782060337689
3411729 13 18411704317575742172
3472631 163 18341895156824749887
3493558 16 18339931506040295105
394071 54 16588316028366996925
397830 11 18187659041798979651
4058900 60 18043255841289405124
4144715 1 18272377421435690755
474 4 18336822108309624926
5104073 3 18259990383830128219
513532 50 16845574231912449828
53794403 172 18335709380888702885
54076057 255 18263100850442568348
57527585 21 17763455519313819614
57724786 102 18410291423622127813
6086070 43 17827043300251984095

> <PUBCHEM_SHAPE_MULTIPOLES>
610.4
14.35
4.35
1.53
24.35
4.31
-0.02
7.3
-1.71
-6.12
0.33
-1.35
-0.42
-1.91

> <PUBCHEM_SHAPE_SELFOVERLAP>
1376.692

> <PUBCHEM_SHAPE_VOLUME>
316.1

> <PUBCHEM_COORDINATE_TYPE>
2
5
10

$$$$
