40533521
  -OEChem-12032416113D

 51 53  0     1  0  0  0  0  0999 V2000
   -5.1700    0.2611   -0.1830 O   0  0  0  0  0  0  0  0  0  0  0  0
    1.7192   -0.9348    2.4478 O   0  0  0  0  0  0  0  0  0  0  0  0
   -2.9267    0.0240    0.3983 N   0  0  0  0  0  0  0  0  0  0  0  0
    2.4304   -1.6642    0.3591 N   0  0  0  0  0  0  0  0  0  0  0  0
    4.3740    2.4943    0.4631 N   0  0  0  0  0  0  0  0  0  0  0  0
   -1.7905   -1.8535   -0.7486 C   0  0  2  0  0  0  0  0  0  0  0  0
   -0.4152   -1.3132   -0.2827 C   0  0  1  0  0  0  0  0  0  0  0  0
   -4.0758    2.2112    0.4942 C   0  0  0  0  0  0  0  0  0  0  0  0
   -2.9203   -1.4269    0.2004 C   0  0  0  0  0  0  0  0  0  0  0  0
   -5.0570    3.1142   -0.1937 C   0  0  0  0  0  0  0  0  0  0  0  0
   -3.6059    3.1549   -0.5738 C   0  0  0  0  0  0  0  0  0  0  0  0
   -0.5107    0.2083   -0.0656 C   0  0  0  0  0  0  0  0  0  0  0  0
   -1.6598    0.5990    0.8622 C   0  0  0  0  0  0  0  0  0  0  0  0
   -4.1101    0.7449    0.2057 C   0  0  0  0  0  0  0  0  0  0  0  0
   -1.8015   -3.3682   -0.9519 C   0  0  0  0  0  0  0  0  0  0  0  0
    0.1400   -2.0107    0.9642 C   0  0  0  0  0  0  0  0  0  0  0  0
   -0.7519   -3.7922   -1.9575 C   0  0  0  0  0  0  0  0  0  0  0  0
    1.4961   -1.4716    1.3661 C   0  0  0  0  0  0  0  0  0  0  0  0
    3.8086   -1.2447    0.4704 C   0  0  0  0  0  0  0  0  0  0  0  0
    4.0119    0.1556   -0.0315 C   0  0  0  0  0  0  0  0  0  0  0  0
    4.0276    0.4337   -1.3938 C   0  0  0  0  0  0  0  0  0  0  0  0
    4.1881    1.2118    0.8480 C   0  0  0  0  0  0  0  0  0  0  0  0
    4.2163    1.7408   -1.8288 C   0  0  0  0  0  0  0  0  0  0  0  0
    4.3832    2.7259   -0.8689 C   0  0  0  0  0  0  0  0  0  0  0  0
   -2.0026   -1.3858   -1.7220 H   0  0  0  0  0  0  0  0  0  0  0  0
    0.2892   -1.4496   -1.1119 H   0  0  0  0  0  0  0  0  0  0  0  0
   -3.8491    2.4671    1.5252 H   0  0  0  0  0  0  0  0  0  0  0  0
   -3.8856   -1.7582   -0.1976 H   0  0  0  0  0  0  0  0  0  0  0  0
   -2.8074   -1.8898    1.1877 H   0  0  0  0  0  0  0  0  0  0  0  0
   -5.4528    3.9508    0.3696 H   0  0  0  0  0  0  0  0  0  0  0  0
   -5.7489    2.7025   -0.9180 H   0  0  0  0  0  0  0  0  0  0  0  0
   -3.3258    2.7486   -1.5380 H   0  0  0  0  0  0  0  0  0  0  0  0
   -3.0264    4.0163   -0.2653 H   0  0  0  0  0  0  0  0  0  0  0  0
   -0.6837    0.6815   -1.0421 H   0  0  0  0  0  0  0  0  0  0  0  0
    0.4283    0.6298    0.3081 H   0  0  0  0  0  0  0  0  0  0  0  0
   -1.4874    0.2316    1.8797 H   0  0  0  0  0  0  0  0  0  0  0  0
   -1.7138    1.6879    0.9233 H   0  0  0  0  0  0  0  0  0  0  0  0
   -1.6627   -3.9062   -0.0081 H   0  0  0  0  0  0  0  0  0  0  0  0
   -2.7857   -3.6693   -1.3327 H   0  0  0  0  0  0  0  0  0  0  0  0
    0.2659   -3.0859    0.7967 H   0  0  0  0  0  0  0  0  0  0  0  0
   -0.5328   -1.9035    1.8215 H   0  0  0  0  0  0  0  0  0  0  0  0
   -0.8379   -3.2253   -2.8902 H   0  0  0  0  0  0  0  0  0  0  0  0
   -0.8808   -4.8521   -2.2017 H   0  0  0  0  0  0  0  0  0  0  0  0
    0.2648   -3.6762   -1.5720 H   0  0  0  0  0  0  0  0  0  0  0  0
    2.1637   -2.1540   -0.4893 H   0  0  0  0  0  0  0  0  0  0  0  0
    4.4179   -1.9434   -0.1139 H   0  0  0  0  0  0  0  0  0  0  0  0
    4.1288   -1.3336    1.5151 H   0  0  0  0  0  0  0  0  0  0  0  0
    3.8929   -0.3597   -2.1238 H   0  0  0  0  0  0  0  0  0  0  0  0
    4.1838    1.0596    1.9229 H   0  0  0  0  0  0  0  0  0  0  0  0
    4.2318    1.9810   -2.8856 H   0  0  0  0  0  0  0  0  0  0  0  0
    4.5335    3.7614   -1.1562 H   0  0  0  0  0  0  0  0  0  0  0  0
  1 14  2  0  0  0  0
  2 18  2  0  0  0  0
  3  9  1  0  0  0  0
  3 13  1  0  0  0  0
  3 14  1  0  0  0  0
  4 18  1  0  0  0  0
  4 19  1  0  0  0  0
  4 45  1  0  0  0  0
  5 22  1  0  0  0  0
  5 24  2  0  0  0  0
  6  7  1  0  0  0  0
  6  9  1  0  0  0  0
  6 15  1  0  0  0  0
  6 25  1  0  0  0  0
  7 12  1  0  0  0  0
  7 16  1  0  0  0  0
  7 26  1  0  0  0  0
  8 10  1  0  0  0  0
  8 11  1  0  0  0  0
  8 14  1  0  0  0  0
  8 27  1  0  0  0  0
  9 28  1  0  0  0  0
  9 29  1  0  0  0  0
 10 11  1  0  0  0  0
 10 30  1  0  0  0  0
 10 31  1  0  0  0  0
 11 32  1  0  0  0  0
 11 33  1  0  0  0  0
 12 13  1  0  0  0  0
 12 34  1  0  0  0  0
 12 35  1  0  0  0  0
 13 36  1  0  0  0  0
 13 37  1  0  0  0  0
 15 17  1  0  0  0  0
 15 38  1  0  0  0  0
 15 39  1  0  0  0  0
 16 18  1  0  0  0  0
 16 40  1  0  0  0  0
 16 41  1  0  0  0  0
 17 42  1  0  0  0  0
 17 43  1  0  0  0  0
 17 44  1  0  0  0  0
 19 20  1  0  0  0  0
 19 46  1  0  0  0  0
 19 47  1  0  0  0  0
 20 21  1  0  0  0  0
 20 22  2  0  0  0  0
 21 23  2  0  0  0  0
 21 48  1  0  0  0  0
 22 49  1  0  0  0  0
 23 24  1  0  0  0  0
 23 50  1  0  0  0  0
 24 51  1  0  0  0  0
M  END
> <PUBCHEM_COMPOUND_CID>
40533521

> <PUBCHEM_CONFORMER_RMSD>
1.2

> <PUBCHEM_CONFORMER_DIVERSEORDER>
1
54
48
26
22
58
53
61
29
24
51
78
31
57
60
76
75
43
28
65
11
37
77
68
66
44
23
69
33
27
80
49
13
64
7
2
39
55
79
15
47
73
72
35
50
16
42
18
17
8
63
14
71
32
74
21
40
38
41
6
3
67
45
20
36
4
30
19
52
59
10
25
62
34
9
5
56
12
70
46

> <PUBCHEM_MMFF94_PARTIAL_CHARGES>
29
1 -0.57
10 -0.2
11 -0.2
13 0.3
14 0.63
16 0.06
18 0.57
19 0.44
2 -0.57
20 -0.14
21 -0.15
22 0.16
23 -0.15
24 0.16
27 0.1
3 -0.66
30 0.1
31 0.1
32 0.1
33 0.1
4 -0.73
45 0.37
48 0.15
49 0.15
5 -0.62
50 0.15
51 0.15
8 -0.1
9 0.3

> <PUBCHEM_EFFECTIVE_ROTOR_COUNT>
9.8

> <PUBCHEM_PHARMACOPHORE_FEATURES>
7
1 1 acceptor
1 17 hydrophobe
1 2 acceptor
1 4 donor
1 5 acceptor
6 3 6 7 9 12 13 rings
6 5 20 21 22 23 24 rings

> <PUBCHEM_HEAVY_ATOM_COUNT>
24

> <PUBCHEM_ATOM_DEF_STEREO_COUNT>
2

> <PUBCHEM_ATOM_UDEF_STEREO_COUNT>
0

> <PUBCHEM_BOND_DEF_STEREO_COUNT>
0

> <PUBCHEM_BOND_UDEF_STEREO_COUNT>
0

> <PUBCHEM_ISOTOPIC_ATOM_COUNT>
0

> <PUBCHEM_COMPONENT_COUNT>
1

> <PUBCHEM_CACTVS_TAUTO_COUNT>
2

> <PUBCHEM_CONFORMER_ID>
026A7E1100000001

> <PUBCHEM_MMFF94_ENERGY>
49.1969

> <PUBCHEM_FEATURE_SELFOVERLAP>
35.522

> <PUBCHEM_SHAPE_FINGERPRINT>
10498660 4 18201163260200459952
10763959 59 18119530929591576838
10906281 52 18339930321325186115
10937287 8 18408323297898137746
11796584 16 9655576305480348547
12173636 292 18342169020423683950
12403259 118 18262507083850813187
12633257 1 15140968395512537264
12788726 201 18193542588016664019
13617811 41 17910660292140881455
14251757 17 17989209291054307288
14251764 75 18337404776274227864
1454969 45 18341614841816503263
14790565 3 18340488868272990841
14950920 106 17023180496413844905
15142526 21 17821452373660638584
15163728 17 18128269904149683421
15342168 16 17676775374177508974
15575132 122 18410576202119512637
16988056 13 17259904018676794253
17959699 21 18408042887930865936
21864079 5 18260832652454159538
22907989 373 18269534187503357231
23227448 37 18341893047167736260
23366157 5 17765159371864372635
235170 7 17201092619528915246
23559900 14 17911799076943946919
245318 6 18115042821954149725
25222932 49 7852126555771876888
25265897 201 17983894247423563988
312425 83 18199485418594369494
338550 245 18187086135610861972
340366 18 18269838614912118694
474 4 17894353306476498346
633830 44 17894912966632988850
7288768 16 17313956354117153008
7808743 9 18340482356574516936
7970288 3 10446835433737880900
960060 61 14189584052530945200

> <PUBCHEM_SHAPE_MULTIPOLES>
467.23
11.22
4.38
1.53
0.94
0.5
0
-11.72
1.35
-2.68
1.9
1.34
0.68
-1.49

> <PUBCHEM_SHAPE_SELFOVERLAP>
963.805

> <PUBCHEM_SHAPE_VOLUME>
265.2

> <PUBCHEM_COORDINATE_TYPE>
2
5
10

$$$$
