11912821
  -OEChem-12032416283D

 53 57  0     1  0  0  0  0  0999 V2000
   -6.7593   -1.5324   -1.3602 S   0  0  0  0  0  0  0  0  0  0  0  0
   -2.2784    2.9533    1.4562 O   0  0  0  0  0  0  0  0  0  0  0  0
   -0.8694    0.2396    2.0782 O   0  0  0  0  0  0  0  0  0  0  0  0
   -5.6647    0.6081    0.3564 O   0  0  0  0  0  0  0  0  0  0  0  0
    6.1721   -3.2628    1.0234 O   0  0  0  0  0  0  0  0  0  0  0  0
    0.3493    2.8407   -0.1752 N   0  0  0  0  0  0  0  0  0  0  0  0
   -3.6443   -0.3807    0.8229 N   0  0  0  0  0  0  0  0  0  0  0  0
    2.1587    1.3646   -0.4067 N   0  0  0  0  0  0  0  0  0  0  0  0
    1.6628    2.9916   -2.1138 N   0  0  0  0  0  0  0  0  0  0  0  0
   -0.9118    1.0823    0.9144 C   0  0  1  0  0  0  0  0  0  0  0  0
   -2.3108    1.6607    0.8286 C   0  0  1  0  0  0  0  0  0  0  0  0
   -0.0243    2.2890    1.1087 C   0  0  2  0  0  0  0  0  0  0  0  0
   -3.1548    0.7038    1.6391 C   0  0  2  0  0  0  0  0  0  0  0  0
   -0.9314    3.2534    1.8507 C   0  0  0  0  0  0  0  0  0  0  0  0
   -2.1707    0.2065    2.6828 C   0  0  0  0  0  0  0  0  0  0  0  0
    1.4221    2.3853   -0.9209 C   0  0  0  0  0  0  0  0  0  0  0  0
   -4.9021   -0.3505    0.2215 C   0  0  0  0  0  0  0  0  0  0  0  0
   -5.2445   -1.5155   -0.6064 C   0  0  0  0  0  0  0  0  0  0  0  0
    3.1970    0.9460   -1.1597 C   0  0  0  0  0  0  0  0  0  0  0  0
   -4.4814   -2.6042   -0.8477 C   0  0  0  0  0  0  0  0  0  0  0  0
    2.7163    2.5229   -2.8144 C   0  0  0  0  0  0  0  0  0  0  0  0
    3.5264    1.4925   -2.3832 C   0  0  0  0  0  0  0  0  0  0  0  0
    3.9647   -0.1386   -0.5961 C   0  0  0  0  0  0  0  0  0  0  0  0
   -5.1650   -3.5177   -1.7012 C   0  0  0  0  0  0  0  0  0  0  0  0
   -6.4146   -3.0589   -2.0553 C   0  0  0  0  0  0  0  0  0  0  0  0
    5.3261   -0.2575   -0.8838 C   0  0  0  0  0  0  0  0  0  0  0  0
    3.3483   -1.0736    0.2385 C   0  0  0  0  0  0  0  0  0  0  0  0
    6.0674   -1.3065   -0.3398 C   0  0  0  0  0  0  0  0  0  0  0  0
    4.0897   -2.1224    0.7826 C   0  0  0  0  0  0  0  0  0  0  0  0
    5.4492   -2.2388    0.4935 C   0  0  0  0  0  0  0  0  0  0  0  0
    5.4773   -4.1801    1.8670 C   0  0  0  0  0  0  0  0  0  0  0  0
   -0.6580    0.4571    0.0523 H   0  0  0  0  0  0  0  0  0  0  0  0
   -2.6524    1.8047   -0.2016 H   0  0  0  0  0  0  0  0  0  0  0  0
    0.8642    2.0900    1.7189 H   0  0  0  0  0  0  0  0  0  0  0  0
   -4.0052    1.1955    2.1238 H   0  0  0  0  0  0  0  0  0  0  0  0
   -0.8687    3.0942    2.9328 H   0  0  0  0  0  0  0  0  0  0  0  0
   -0.7211    4.3080    1.6474 H   0  0  0  0  0  0  0  0  0  0  0  0
   -2.3791   -0.8064    3.0408 H   0  0  0  0  0  0  0  0  0  0  0  0
   -2.1437    0.8788    3.5475 H   0  0  0  0  0  0  0  0  0  0  0  0
   -0.2237    3.5659   -0.5917 H   0  0  0  0  0  0  0  0  0  0  0  0
   -3.0115   -1.1552    0.6558 H   0  0  0  0  0  0  0  0  0  0  0  0
   -3.4875   -2.7910   -0.4645 H   0  0  0  0  0  0  0  0  0  0  0  0
    2.8933    3.0112   -3.7667 H   0  0  0  0  0  0  0  0  0  0  0  0
    4.3416    1.1502   -3.0075 H   0  0  0  0  0  0  0  0  0  0  0  0
   -4.7609   -4.4635   -2.0382 H   0  0  0  0  0  0  0  0  0  0  0  0
   -7.1416   -3.5470   -2.6889 H   0  0  0  0  0  0  0  0  0  0  0  0
    5.8533    0.4599   -1.5071 H   0  0  0  0  0  0  0  0  0  0  0  0
    2.2880   -1.0173    0.4749 H   0  0  0  0  0  0  0  0  0  0  0  0
    7.1274   -1.3895   -0.5640 H   0  0  0  0  0  0  0  0  0  0  0  0
    3.5466   -2.8123    1.4195 H   0  0  0  0  0  0  0  0  0  0  0  0
    4.6953   -4.7172    1.3195 H   0  0  0  0  0  0  0  0  0  0  0  0
    6.2048   -4.9275    2.2002 H   0  0  0  0  0  0  0  0  0  0  0  0
    5.0911   -3.6871    2.7656 H   0  0  0  0  0  0  0  0  0  0  0  0
  1 18  1  0  0  0  0
  1 25  1  0  0  0  0
  2 11  1  0  0  0  0
  2 14  1  0  0  0  0
  3 10  1  0  0  0  0
  3 15  1  0  0  0  0
  4 17  2  0  0  0  0
  5 30  1  0  0  0  0
  5 31  1  0  0  0  0
  6 12  1  0  0  0  0
  6 16  1  0  0  0  0
  6 40  1  0  0  0  0
  7 13  1  0  0  0  0
  7 17  1  0  0  0  0
  7 41  1  0  0  0  0
  8 16  1  0  0  0  0
  8 19  2  0  0  0  0
  9 16  2  0  0  0  0
  9 21  1  0  0  0  0
 10 11  1  0  0  0  0
 10 12  1  0  0  0  0
 10 32  1  0  0  0  0
 11 13  1  0  0  0  0
 11 33  1  0  0  0  0
 12 14  1  0  0  0  0
 12 34  1  0  0  0  0
 13 15  1  0  0  0  0
 13 35  1  0  0  0  0
 14 36  1  0  0  0  0
 14 37  1  0  0  0  0
 15 38  1  0  0  0  0
 15 39  1  0  0  0  0
 17 18  1  0  0  0  0
 18 20  2  0  0  0  0
 19 22  1  0  0  0  0
 19 23  1  0  0  0  0
 20 24  1  0  0  0  0
 20 42  1  0  0  0  0
 21 22  2  0  0  0  0
 21 43  1  0  0  0  0
 22 44  1  0  0  0  0
 23 26  2  0  0  0  0
 23 27  1  0  0  0  0
 24 25  2  0  0  0  0
 24 45  1  0  0  0  0
 25 46  1  0  0  0  0
 26 28  1  0  0  0  0
 26 47  1  0  0  0  0
 27 29  2  0  0  0  0
 27 48  1  0  0  0  0
 28 30  2  0  0  0  0
 28 49  1  0  0  0  0
 29 30  1  0  0  0  0
 29 50  1  0  0  0  0
 31 51  1  0  0  0  0
 31 52  1  0  0  0  0
 31 53  1  0  0  0  0
M  END
> <PUBCHEM_COMPOUND_CID>
11912821

> <PUBCHEM_CONFORMER_RMSD>
1

> <PUBCHEM_CONFORMER_DIVERSEORDER>
1
27
149
69
40
159
108
73
117
64
101
161
205
173
154
76
204
100
156
91
54
18
75
158
50
192
78
171
142
178
163
153
9
43
187
147
203
8
25
193
162
177
169
128
188
164
111
186
146
82
33
62
72
97
23
93
70
160
157
134
195
165
26
109
102
81
168
182
12
174
141
57
179
191
49
122
118
3
14
114
90
135
167
44
137
58
144
46
127
88
67
105
132
194
28
143
103
37
106
59
92
123
133
51
45
181
83
150
11
84
52
136
138
98
115
19
202
60
201
197
121
119
32
63
21
31
198
172
126
6
130
125
140
189
74
104
22
96
183
7
30
199
120
207
99
42
148
5
116
113
107
86
68
206
55
89
124
94
155
190
112
15
35
110
185
4
79
77
80
95
176
152
175
65
131
39
34
196
145
170
17
200
47
53
56
166
10
24
48
13
129
180
139
38
20
184
151
66
71
85
61
36
16
87
2
41
29

> <PUBCHEM_MMFF94_PARTIAL_CHARGES>
41
1 -0.08
10 0.28
11 0.28
12 0.37
13 0.3
14 0.28
15 0.28
16 0.72
17 0.71
18 -0.05
19 0.31
2 -0.56
20 -0.15
21 0.16
22 -0.15
24 -0.15
25 -0.11
26 -0.15
27 -0.15
28 -0.15
29 -0.15
3 -0.56
30 0.08
31 0.28
4 -0.57
40 0.4
41 0.37
42 0.15
43 0.15
44 0.15
45 0.15
46 0.15
47 0.15
48 0.15
49 0.15
5 -0.36
50 0.15
6 -0.87
7 -0.73
8 -0.62
9 -0.62

> <PUBCHEM_EFFECTIVE_ROTOR_COUNT>
8.2

> <PUBCHEM_PHARMACOPHORE_FEATURES>
13
1 2 acceptor
1 3 acceptor
1 4 acceptor
1 5 acceptor
1 6 donor
1 7 donor
1 8 acceptor
4 6 8 9 16 cation
5 1 18 20 24 25 rings
5 2 10 11 12 14 rings
5 3 10 11 13 15 rings
6 23 26 27 28 29 30 rings
6 8 9 16 19 21 22 rings

> <PUBCHEM_HEAVY_ATOM_COUNT>
31

> <PUBCHEM_ATOM_DEF_STEREO_COUNT>
4

> <PUBCHEM_ATOM_UDEF_STEREO_COUNT>
0

> <PUBCHEM_BOND_DEF_STEREO_COUNT>
0

> <PUBCHEM_BOND_UDEF_STEREO_COUNT>
0

> <PUBCHEM_ISOTOPIC_ATOM_COUNT>
0

> <PUBCHEM_COMPONENT_COUNT>
1

> <PUBCHEM_CACTVS_TAUTO_COUNT>
6

> <PUBCHEM_CONFORMER_ID>
00B5C67500000001

> <PUBCHEM_MMFF94_ENERGY>
94.077

> <PUBCHEM_FEATURE_SELFOVERLAP>
66.68

> <PUBCHEM_SHAPE_FINGERPRINT>
10622 236 18335701607113675250
11069576 57 18334584572430463838
11135609 149 18114445825937008124
11135926 11 17460911542447726452
11497681 19 18339645530639627854
11607047 403 18197761401768940760
11720765 8 18336534023479115973
11796584 16 17703241693132509249
11828042 279 16950865648144510854
12144603 126 18340783584095941289
12166972 35 18335977640271850655
12559416 138 18188781548229056234
12977781 61 18126252373117026233
13761468 95 17969776377508123813
14068700 675 18341327821124104906
14340393 91 17896019010953534783
14415361 349 18337969904841484422
14848178 5 17059792116901567109
15320294 125 18270126712817278069
15419009 47 18043519517906214101
15510800 12 16917077685153807021
15728490 51 18201999967480380452
16120349 67 11674877749626595390
16989713 51 17827919517501296646
19304671 126 16153701081177955869
19315092 285 18273214205787529648
20156587 76 17897976145924570946
20775438 99 18044928215238709066
208703 8 18202566202382605558
21223535 225 16878493558471487853
21458453 9 14763769970673426398
21585480 29 18339913837035599794
23559900 14 17822588178158022864
25222932 49 17773311451219060228
260245 28 18411972559653784071
392239 28 13398631628116107685
4015057 19 17895205436330397001
4017518 198 17187291162481719292
437795 139 18131347544633411987
437795 70 16660634129725531085
4394409 98 18201993314634484311
439807 62 18267586982966011983
46194498 28 15793448333624927452
463206 1 18341341079857193091
50080093 196 18118402830483333139
57527295 17 18197512916093768873
57634706 229 12246522736407876078
59025328 239 18040154020050591428
59682541 52 18040711519816445391
6058803 2 18266767742954450832
613672 6 17603595106212107608
6636735 143 14333135178663369807
6677587 24 16884678564474863213
6691757 9 17771350768800320233
96874 4 18412536609176179751

> <PUBCHEM_SHAPE_MULTIPOLES>
598.41
17.32
4.98
2.57
7.62
1.83
-0.33
22.44
-5.17
-1.92
0.21
-0.05
-0.89
-7.91

> <PUBCHEM_SHAPE_SELFOVERLAP>
1302.268

> <PUBCHEM_SHAPE_VOLUME>
328.3

> <PUBCHEM_COORDINATE_TYPE>
2
5
10

$$$$
