51137187
  -OEChem-12032416253D

 42 44  0     1  0  0  0  0  0999 V2000
   -4.4409    0.4948    0.8699 O   0  0  0  0  0  0  0  0  0  0  0  0
    6.2658   -0.4097    0.2643 O   0  0  0  0  0  0  0  0  0  0  0  0
    0.1255   -0.6763    0.4418 N   0  0  1  0  0  0  0  0  0  0  0  0
    4.1523    0.3189   -0.3680 N   0  0  0  0  0  0  0  0  0  0  0  0
   -3.7995   -0.1367   -1.1780 N   0  0  0  0  0  0  0  0  0  0  0  0
   -5.0807    0.3744   -1.2703 N   0  0  0  0  0  0  0  0  0  0  0  0
    1.3320   -0.3321   -0.3066 C   0  0  0  0  0  0  0  0  0  0  0  0
   -0.9545    0.2911    0.2361 C   0  0  0  0  0  0  0  0  0  0  0  0
   -2.1842   -0.4496    0.7784 C   0  0  2  0  0  0  0  0  0  0  0  0
   -0.4371   -1.9625    0.0307 C   0  0  0  0  0  0  0  0  0  0  0  0
   -1.8257   -1.9410    0.6564 C   0  0  0  0  0  0  0  0  0  0  0  0
    1.8481    1.0448    0.1308 C   0  0  0  0  0  0  0  0  0  0  0  0
    2.4094   -1.4023   -0.0896 C   0  0  0  0  0  0  0  0  0  0  0  0
    3.1634    1.3852   -0.5701 C   0  0  0  0  0  0  0  0  0  0  0  0
    3.7122   -1.0137   -0.7864 C   0  0  0  0  0  0  0  0  0  0  0  0
   -3.4669   -0.0464    0.0884 C   0  0  0  0  0  0  0  0  0  0  0  0
    5.4396    0.4977    0.1374 C   0  0  0  0  0  0  0  0  0  0  0  0
    5.8156    1.8989    0.5485 C   0  0  0  0  0  0  0  0  0  0  0  0
   -5.4145    0.7302   -0.0518 C   0  0  0  0  0  0  0  0  0  0  0  0
   -6.6599    1.3340    0.4383 C   0  0  0  0  0  0  0  0  0  0  0  0
    1.1069   -0.2870   -1.3823 H   0  0  0  0  0  0  0  0  0  0  0  0
   -0.8031    1.2181    0.7994 H   0  0  0  0  0  0  0  0  0  0  0  0
   -1.0787    0.5437   -0.8254 H   0  0  0  0  0  0  0  0  0  0  0  0
   -2.2882   -0.2206    1.8486 H   0  0  0  0  0  0  0  0  0  0  0  0
   -0.5227   -2.0439   -1.0605 H   0  0  0  0  0  0  0  0  0  0  0  0
    0.1274   -2.8204    0.4086 H   0  0  0  0  0  0  0  0  0  0  0  0
   -2.5420   -2.5120    0.0562 H   0  0  0  0  0  0  0  0  0  0  0  0
   -1.7962   -2.3906    1.6569 H   0  0  0  0  0  0  0  0  0  0  0  0
    2.0072    1.0591    1.2173 H   0  0  0  0  0  0  0  0  0  0  0  0
    1.1318    1.8390   -0.1064 H   0  0  0  0  0  0  0  0  0  0  0  0
    2.0999   -2.3753   -0.4863 H   0  0  0  0  0  0  0  0  0  0  0  0
    2.6011   -1.5305    0.9841 H   0  0  0  0  0  0  0  0  0  0  0  0
    3.0064    1.4793   -1.6514 H   0  0  0  0  0  0  0  0  0  0  0  0
    3.5242    2.3511   -0.2126 H   0  0  0  0  0  0  0  0  0  0  0  0
    4.4815   -1.7628   -0.5739 H   0  0  0  0  0  0  0  0  0  0  0  0
    3.5734   -0.9861   -1.8738 H   0  0  0  0  0  0  0  0  0  0  0  0
    6.8402    1.9027    0.9330 H   0  0  0  0  0  0  0  0  0  0  0  0
    5.7727    2.5703   -0.3131 H   0  0  0  0  0  0  0  0  0  0  0  0
    5.1526    2.2504    1.3436 H   0  0  0  0  0  0  0  0  0  0  0  0
   -7.3701    1.4781   -0.3813 H   0  0  0  0  0  0  0  0  0  0  0  0
   -6.4619    2.3091    0.8931 H   0  0  0  0  0  0  0  0  0  0  0  0
   -7.1304    0.6909    1.1879 H   0  0  0  0  0  0  0  0  0  0  0  0
  1 16  1  0  0  0  0
  1 19  1  0  0  0  0
  2 17  2  0  0  0  0
  3  7  1  0  0  0  0
  3  8  1  0  0  0  0
  3 10  1  0  0  0  0
  4 14  1  0  0  0  0
  4 15  1  0  0  0  0
  4 17  1  0  0  0  0
  5  6  1  0  0  0  0
  5 16  2  0  0  0  0
  6 19  2  0  0  0  0
  7 12  1  0  0  0  0
  7 13  1  0  0  0  0
  7 21  1  0  0  0  0
  8  9  1  0  0  0  0
  8 22  1  0  0  0  0
  8 23  1  0  0  0  0
  9 11  1  0  0  0  0
  9 16  1  0  0  0  0
  9 24  1  0  0  0  0
 10 11  1  0  0  0  0
 10 25  1  0  0  0  0
 10 26  1  0  0  0  0
 11 27  1  0  0  0  0
 11 28  1  0  0  0  0
 12 14  1  0  0  0  0
 12 29  1  0  0  0  0
 12 30  1  0  0  0  0
 13 15  1  0  0  0  0
 13 31  1  0  0  0  0
 13 32  1  0  0  0  0
 14 33  1  0  0  0  0
 14 34  1  0  0  0  0
 15 35  1  0  0  0  0
 15 36  1  0  0  0  0
 17 18  1  0  0  0  0
 18 37  1  0  0  0  0
 18 38  1  0  0  0  0
 18 39  1  0  0  0  0
 19 20  1  0  0  0  0
 20 40  1  0  0  0  0
 20 41  1  0  0  0  0
 20 42  1  0  0  0  0
M  END
> <PUBCHEM_COMPOUND_CID>
51137187

> <PUBCHEM_CONFORMER_RMSD>
0.8

> <PUBCHEM_CONFORMER_DIVERSEORDER>
1
31
45
38
13
21
28
8
22
25
35
18
41
16
36
26
37
20
17
7
5
44
14
10
33
46
32
2
39
11
24
23
27
34
15
4
43
3
19
30
29
12
6
40
42
9

> <PUBCHEM_MMFF94_PARTIAL_CHARGES>
17
1 -0.28
10 0.27
14 0.3
15 0.3
16 0.3
17 0.57
18 0.06
19 0.3
2 -0.57
20 0.18
3 -0.81
4 -0.66
5 -0.34
6 -0.34
7 0.27
8 0.27
9 0.18

> <PUBCHEM_EFFECTIVE_ROTOR_COUNT>
5.2

> <PUBCHEM_PHARMACOPHORE_FEATURES>
5
1 2 acceptor
1 3 cation
5 1 5 6 16 19 rings
5 3 8 9 10 11 rings
6 4 7 12 13 14 15 rings

> <PUBCHEM_HEAVY_ATOM_COUNT>
20

> <PUBCHEM_ATOM_DEF_STEREO_COUNT>
1

> <PUBCHEM_ATOM_UDEF_STEREO_COUNT>
0

> <PUBCHEM_BOND_DEF_STEREO_COUNT>
0

> <PUBCHEM_BOND_UDEF_STEREO_COUNT>
0

> <PUBCHEM_ISOTOPIC_ATOM_COUNT>
0

> <PUBCHEM_COMPONENT_COUNT>
1

> <PUBCHEM_CACTVS_TAUTO_COUNT>
1

> <PUBCHEM_CONFORMER_ID>
030C4AA300000001

> <PUBCHEM_MMFF94_ENERGY>
26.622

> <PUBCHEM_FEATURE_SELFOVERLAP>
25.373

> <PUBCHEM_SHAPE_FINGERPRINT>
10 15 17313393356555146089
10014705 185 18338800116853784474
10968037 39 11959728274637977049
11089746 13 17989203763842203936
11315181 36 14836404756828901115
11401426 45 18272370888457422546
117890 112 18412263956525868968
12236239 1 17846498115060171943
12516196 113 9295285032534912391
12616971 3 16371012939683543863
12714333 28 17989487411618672537
13167372 99 18341334383634205712
13288520 33 9439404627642683995
13533116 47 18339638933147744618
13668630 136 10015577307842114529
13740256 8 10879982576074072645
14123256 34 11167932594088575845
14251718 22 14045741530364042378
14251764 18 18041282152944197263
14341114 176 8790885190031564126
14350574 20 9511464420577331842
14528608 73 17346596400380229624
15238133 3 15719393906227302406
15375358 24 18343308084811152062
17834072 8 18408891728841557286
17870717 6 14261351358609310821
18222031 100 13039185896823572314
193927 3 11527950083879536711
200 152 17346600780898757307
20157964 124 18272091573791454062
20281389 69 17967531276613720052
20645477 56 17894347787259147023
20645477 70 18270970046351671222
20871999 31 14476969973461023955
21033648 29 17676761003354216797
21033650 10 16771860730112634352
21150785 3 17561077013088286029
22224240 67 17967537866153504723
2297311 6 8862951597363547698
23035841 295 8718830890328783536
23402539 116 18272367585532691565
23402655 69 18273494576377110119
23536379 177 17489870414636705645
23559900 14 18271803588019031744
2767999 5 18409727369893759584
2838139 119 18335696144110466733
2916195 48 18408040719325594785
293599 30 18334858316028327691
29717793 49 17274830125563299244
300161 21 17989486311975227967
3009799 131 17418373597209310680
335352 9 18408888438907190654
34934 24 18410853287360396530
351380 180 18411982472579480596
351380 3 8862943861816327937
3545911 37 18333735718882737946
4072396 5 18410847751548316394
4340502 62 16732986405453569490
465052 167 10737286840192819080
5104073 3 18041560377153021896
5385378 56 18115027394341652795
542803 24 17918276445655026129
59682541 52 17345771715578759364
59755656 215 18335987476522288414
59755656 520 17749387087922274395

> <PUBCHEM_SHAPE_MULTIPOLES>
379.93
15.69
1.73
0.9
2.57
0.3
-0.11
-8.16
0.17
-0.7
0.19
0.54
-0.01
0.37

> <PUBCHEM_SHAPE_SELFOVERLAP>
789.989

> <PUBCHEM_SHAPE_VOLUME>
217.7

> <PUBCHEM_COORDINATE_TYPE>
2
5
10

$$$$
