75536557
  -OEChem-12032416303D

 52 54  0     1  0  0  0  0  0999 V2000
   -6.8858   -0.2209   -0.9952 F   0  0  0  0  0  0  0  0  0  0  0  0
   -7.3624   -1.5510    0.6578 F   0  0  0  0  0  0  0  0  0  0  0  0
    0.7155    0.5067    1.2240 O   0  0  0  0  0  0  0  0  0  0  0  0
   -0.1797    0.6190   -2.2532 O   0  0  0  0  0  0  0  0  0  0  0  0
    4.2838   -0.4759   -1.3281 O   0  0  0  0  0  0  0  0  0  0  0  0
   -2.5553    1.0996   -0.2528 N   0  0  0  0  0  0  0  0  0  0  0  0
    3.4291    0.8924    0.3523 N   0  0  0  0  0  0  0  0  0  0  0  0
   -1.2709    0.4417   -0.0765 C   0  0  1  0  0  0  0  0  0  0  0  0
   -3.6373    0.2761    0.2840 C   0  0  0  0  0  0  0  0  0  0  0  0
   -0.1558    1.0504   -0.9064 C   0  0  1  0  0  0  0  0  0  0  0  0
    1.0730    0.5375   -0.1678 C   0  0  1  0  0  0  0  0  0  0  0  0
   -4.8448    1.1594    0.6215 C   0  0  0  0  0  0  0  0  0  0  0  0
   -4.0120   -0.8144   -0.7270 C   0  0  0  0  0  0  0  0  0  0  0  0
   -0.7163    0.5940    1.3303 C   0  0  0  0  0  0  0  0  0  0  0  0
   -6.0223    0.3232    1.1192 C   0  0  0  0  0  0  0  0  0  0  0  0
   -5.1891   -1.6516   -0.2297 C   0  0  0  0  0  0  0  0  0  0  0  0
   -6.3780   -0.7784    0.1349 C   0  0  0  0  0  0  0  0  0  0  0  0
    5.4324   -0.3719    0.7612 C   0  0  0  0  0  0  0  0  0  0  0  0
    2.2993    1.4110   -0.3636 C   0  0  0  0  0  0  0  0  0  0  0  0
    6.6188    0.5833    0.5883 C   0  0  0  0  0  0  0  0  0  0  0  0
    5.9659   -1.7746    0.4659 C   0  0  0  0  0  0  0  0  0  0  0  0
    7.8265   -0.3013    0.2976 C   0  0  0  0  0  0  0  0  0  0  0  0
    7.2323   -1.5414   -0.3453 C   0  0  0  0  0  0  0  0  0  0  0  0
    4.3332   -0.0130   -0.1914 C   0  0  0  0  0  0  0  0  0  0  0  0
   -1.3261   -0.6225   -0.3370 H   0  0  0  0  0  0  0  0  0  0  0  0
   -3.3267   -0.2024    1.2224 H   0  0  0  0  0  0  0  0  0  0  0  0
   -0.2011    2.1464   -0.8853 H   0  0  0  0  0  0  0  0  0  0  0  0
    1.3051   -0.4928   -0.4683 H   0  0  0  0  0  0  0  0  0  0  0  0
   -2.7208    1.2904   -1.2405 H   0  0  0  0  0  0  0  0  0  0  0  0
   -5.1574    1.7265   -0.2654 H   0  0  0  0  0  0  0  0  0  0  0  0
   -4.5733    1.8948    1.3889 H   0  0  0  0  0  0  0  0  0  0  0  0
   -3.1737   -1.4907   -0.9246 H   0  0  0  0  0  0  0  0  0  0  0  0
   -4.2833   -0.3605   -1.6896 H   0  0  0  0  0  0  0  0  0  0  0  0
   -0.9481    1.5729    1.7656 H   0  0  0  0  0  0  0  0  0  0  0  0
   -1.0739   -0.1809    2.0149 H   0  0  0  0  0  0  0  0  0  0  0  0
   -6.8912    0.9734    1.2720 H   0  0  0  0  0  0  0  0  0  0  0  0
   -5.7833   -0.1174    2.0946 H   0  0  0  0  0  0  0  0  0  0  0  0
   -4.8858   -2.2442    0.6418 H   0  0  0  0  0  0  0  0  0  0  0  0
   -5.4834   -2.3645   -1.0083 H   0  0  0  0  0  0  0  0  0  0  0  0
    5.0490   -0.3391    1.7881 H   0  0  0  0  0  0  0  0  0  0  0  0
    2.5512    1.4902   -1.4265 H   0  0  0  0  0  0  0  0  0  0  0  0
    2.1222    2.4184    0.0289 H   0  0  0  0  0  0  0  0  0  0  0  0
    6.7858    1.1814    1.4906 H   0  0  0  0  0  0  0  0  0  0  0  0
    6.4609    1.2852   -0.2395 H   0  0  0  0  0  0  0  0  0  0  0  0
    5.2606   -2.4311   -0.0532 H   0  0  0  0  0  0  0  0  0  0  0  0
    6.2317   -2.2657    1.4108 H   0  0  0  0  0  0  0  0  0  0  0  0
    8.3281   -0.5676    1.2357 H   0  0  0  0  0  0  0  0  0  0  0  0
    8.5578    0.1943   -0.3475 H   0  0  0  0  0  0  0  0  0  0  0  0
    6.9861   -1.3467   -1.3955 H   0  0  0  0  0  0  0  0  0  0  0  0
    7.9132   -2.3964   -0.3055 H   0  0  0  0  0  0  0  0  0  0  0  0
    3.5661    1.2140    1.3061 H   0  0  0  0  0  0  0  0  0  0  0  0
   -0.1423   -0.3524   -2.2641 H   0  0  0  0  0  0  0  0  0  0  0  0
  1 17  1  0  0  0  0
  2 17  1  0  0  0  0
  3 11  1  0  0  0  0
  3 14  1  0  0  0  0
  4 10  1  0  0  0  0
  4 52  1  0  0  0  0
  5 24  2  0  0  0  0
  6  8  1  0  0  0  0
  6  9  1  0  0  0  0
  6 29  1  0  0  0  0
  7 19  1  0  0  0  0
  7 24  1  0  0  0  0
  7 51  1  0  0  0  0
  8 10  1  0  0  0  0
  8 14  1  0  0  0  0
  8 25  1  0  0  0  0
  9 12  1  0  0  0  0
  9 13  1  0  0  0  0
  9 26  1  0  0  0  0
 10 11  1  0  0  0  0
 10 27  1  0  0  0  0
 11 19  1  0  0  0  0
 11 28  1  0  0  0  0
 12 15  1  0  0  0  0
 12 30  1  0  0  0  0
 12 31  1  0  0  0  0
 13 16  1  0  0  0  0
 13 32  1  0  0  0  0
 13 33  1  0  0  0  0
 14 34  1  0  0  0  0
 14 35  1  0  0  0  0
 15 17  1  0  0  0  0
 15 36  1  0  0  0  0
 15 37  1  0  0  0  0
 16 17  1  0  0  0  0
 16 38  1  0  0  0  0
 16 39  1  0  0  0  0
 18 20  1  0  0  0  0
 18 21  1  0  0  0  0
 18 24  1  0  0  0  0
 18 40  1  0  0  0  0
 19 41  1  0  0  0  0
 19 42  1  0  0  0  0
 20 22  1  0  0  0  0
 20 43  1  0  0  0  0
 20 44  1  0  0  0  0
 21 23  1  0  0  0  0
 21 45  1  0  0  0  0
 21 46  1  0  0  0  0
 22 23  1  0  0  0  0
 22 47  1  0  0  0  0
 22 48  1  0  0  0  0
 23 49  1  0  0  0  0
 23 50  1  0  0  0  0
M  END
> <PUBCHEM_COMPOUND_CID>
75536557

> <PUBCHEM_CONFORMER_RMSD>
1

> <PUBCHEM_CONFORMER_DIVERSEORDER>
1
8
121
124
36
50
80
151
78
12
19
39
40
74
77
137
143
136
43
72
73
115
105
70
145
46
29
47
102
133
76
127
140
87
126
119
28
98
118
95
85
132
134
117
100
49
83
69
108
129
157
89
111
61
30
9
57
23
116
24
91
52
84
131
113
37
34
97
66
147
106
51
7
155
122
59
99
156
138
53
148
94
139
10
152
104
20
88
63
130
141
25
114
135
16
21
45
42
64
41
5
150
55
90
54
96
44
18
123
32
86
38
110
93
14
17
58
79
4
154
6
103
48
22
92
75
125
35
120
81
67
153
62
27
82
71
112
31
56
11
26
107
109
2
65
146
128
15
144
101
68
149
142
33
60
3
13

> <PUBCHEM_MMFF94_PARTIAL_CHARGES>
19
1 -0.34
10 0.28
11 0.28
14 0.28
17 0.68
18 0.06
19 0.3
2 -0.34
24 0.57
29 0.36
3 -0.56
4 -0.68
5 -0.57
51 0.37
52 0.4
6 -0.9
7 -0.73
8 0.27
9 0.27

> <PUBCHEM_EFFECTIVE_ROTOR_COUNT>
9.2

> <PUBCHEM_PHARMACOPHORE_FEATURES>
10
1 3 acceptor
1 4 acceptor
1 4 donor
1 5 acceptor
1 6 cation
1 6 donor
1 7 donor
5 18 20 21 22 23 rings
5 3 8 10 11 14 rings
6 9 12 13 15 16 17 rings

> <PUBCHEM_HEAVY_ATOM_COUNT>
24

> <PUBCHEM_ATOM_DEF_STEREO_COUNT>
3

> <PUBCHEM_ATOM_UDEF_STEREO_COUNT>
0

> <PUBCHEM_BOND_DEF_STEREO_COUNT>
0

> <PUBCHEM_BOND_UDEF_STEREO_COUNT>
0

> <PUBCHEM_ISOTOPIC_ATOM_COUNT>
0

> <PUBCHEM_COMPONENT_COUNT>
1

> <PUBCHEM_CACTVS_TAUTO_COUNT>
2

> <PUBCHEM_CONFORMER_ID>
048098AD00000001

> <PUBCHEM_MMFF94_ENERGY>
36.3613

> <PUBCHEM_FEATURE_SELFOVERLAP>
50.747

> <PUBCHEM_SHAPE_FINGERPRINT>
10 15 16774076293371372552
10087517 78 10375879567282589787
10299344 5 18411984663276363770
106641 1 14692566646105134183
10670039 82 14273445964312179638
11315181 36 18341895204080160449
11524674 6 16988841696301712631
11646440 116 14405185071339295410
11991303 11 14996294650949994531
12166972 35 18410294722700921240
12516196 113 18410011031578685736
12596602 18 18060418002381006818
13288520 33 18334856121954167109
13533116 47 18409168844379496288
13540713 5 15624226918652784416
13668630 136 17967813855502436427
13673619 4 17894910728654620476
13685833 64 18408603656663100520
13885169 127 18410572847502576105
13968360 50 13551463753489315336
14123256 10 16008465430222770450
14251752 14 14201394993335218136
14251764 18 18060420231031312844
14251764 46 17312822675723635801
14556957 393 15141250871106119118
15048467 5 9871750191184559744
15183329 4 14707207699827363620
15198563 99 15719664360392350574
15348495 7 16629953438541730954
15352257 5 18411981351814932682
15419008 91 18189312684821502636
15690457 1 18342172293410075431
15706992 2 10951768633310135963
15716309 27 18131349721638304053
17093844 174 17632297853129050673
17834072 8 14707209920204084166
18006028 8 17821729433690764228
18222031 100 16950278524775041452
18335252 114 11169909507284114978
20281389 69 11312062041086394210
20735858 18 16415480454069930988
21150785 3 14201116812434854202
21267235 1 17603589647319171273
21424621 283 11311786076615839695
21623969 137 17418379082051333254
22224240 67 14189573039918280677
23035841 295 18040435508006538363
23522609 53 18045252425235499620
23536379 177 18341895186051049697
23559900 14 18263360463798774353
23569943 247 17751070315227178674
23576562 1 14491051513784333087
246663 6 17603871113378789595
2838139 119 9007053565298380139
29717793 49 17095244717997487276
3004659 81 14996284734519184484
3009799 131 13695588849779857062
33532 11 18409446956380886050
4340502 62 17418096511863178470
465052 167 18412547621856578190
5104073 3 15481806026671488546
5385378 56 13614248058026686804
543368 44 10231759985781574647
559249 180 18411136923074506381
5758199 1 12823297900942682685
59682541 35 16845566552305157258
59682541 52 13046217231508870656
5969126 39 17095517375032085797
59755656 215 16515399659833942979
59755656 520 8574426504788272184
999808 66 18260838124448795115

> <PUBCHEM_SHAPE_MULTIPOLES>
451.79
23.32
1.47
1.2
6.73
0.42
0.3
10.56
-3.62
-0.08
-0.02
-0.28
-0.14
-0.19

> <PUBCHEM_SHAPE_SELFOVERLAP>
934.076

> <PUBCHEM_SHAPE_VOLUME>
261.8

> <PUBCHEM_COORDINATE_TYPE>
2
5
10

$$$$
