25389730
  -OEChem-12032416363D

 60 64  0     1  0  0  0  0  0999 V2000
   -3.1340   -2.3288    1.5147 F   0  0  0  0  0  0  0  0  0  0  0  0
    1.1456   -3.0836    1.6494 O   0  0  0  0  0  0  0  0  0  0  0  0
   -0.0113   -1.2034    2.3300 O   0  0  0  0  0  0  0  0  0  0  0  0
   -5.4339    5.1997    0.7432 O   0  0  0  0  0  0  0  0  0  0  0  0
   -0.2589   -0.2915   -0.2375 N   0  0  2  0  0  0  0  0  0  0  0  0
    2.7745    1.8742    0.2277 N   0  0  0  0  0  0  0  0  0  0  0  0
   -2.3325    3.4510   -0.1819 N   0  0  0  0  0  0  0  0  0  0  0  0
    0.4200    0.8822    0.3933 C   0  0  2  0  0  0  0  0  0  0  0  0
   -1.7095   -0.3289    0.0774 C   0  0  1  0  0  0  0  0  0  0  0  0
   -0.2293    2.1971   -0.0659 C   0  0  0  0  0  0  0  0  0  0  0  0
   -1.7162    2.2113    0.2875 C   0  0  2  0  0  0  0  0  0  0  0  0
   -2.4017    0.9940   -0.3312 C   0  0  0  0  0  0  0  0  0  0  0  0
    0.4635   -1.5722   -0.0052 C   0  0  1  0  0  0  0  0  0  0  0  0
    1.8849    0.8475    0.0750 C   0  0  0  0  0  0  0  0  0  0  0  0
    1.8967   -1.5618   -0.5954 C   0  0  0  0  0  0  0  0  0  0  0  0
    2.5795   -0.2606   -0.3586 C   0  0  0  0  0  0  0  0  0  0  0  0
   -2.4646   -1.4724   -0.5958 C   0  0  0  0  0  0  0  0  0  0  0  0
    3.9423    0.1130   -0.5113 C   0  0  0  0  0  0  0  0  0  0  0  0
    4.0370    1.4573   -0.1378 C   0  0  0  0  0  0  0  0  0  0  0  0
    0.4892   -1.9037    1.4603 C   0  0  0  0  0  0  0  0  0  0  0  0
   -3.5657    3.7196    0.5414 C   0  0  0  0  0  0  0  0  0  0  0  0
   -3.1406   -2.4162    0.1772 C   0  0  0  0  0  0  0  0  0  0  0  0
   -2.4782   -1.5713   -1.9871 C   0  0  0  0  0  0  0  0  0  0  0  0
    5.1098   -0.5588   -0.9261 C   0  0  0  0  0  0  0  0  0  0  0  0
    5.2457    2.1625   -0.1608 C   0  0  0  0  0  0  0  0  0  0  0  0
   -4.2277    4.9860    0.0220 C   0  0  0  0  0  0  0  0  0  0  0  0
    6.3243    0.1357   -0.9554 C   0  0  0  0  0  0  0  0  0  0  0  0
   -3.8303   -3.4591   -0.4411 C   0  0  0  0  0  0  0  0  0  0  0  0
   -3.1679   -2.6144   -2.6053 C   0  0  0  0  0  0  0  0  0  0  0  0
    6.3890    1.4755   -0.5784 C   0  0  0  0  0  0  0  0  0  0  0  0
   -3.8440   -3.5582   -1.8324 C   0  0  0  0  0  0  0  0  0  0  0  0
    1.2440   -3.5216    3.0082 C   0  0  0  0  0  0  0  0  0  0  0  0
    0.3288    0.8565    1.4848 H   0  0  0  0  0  0  0  0  0  0  0  0
   -1.8508   -0.4142    1.1604 H   0  0  0  0  0  0  0  0  0  0  0  0
    0.2653    3.0505    0.4164 H   0  0  0  0  0  0  0  0  0  0  0  0
   -0.0904    2.3280   -1.1487 H   0  0  0  0  0  0  0  0  0  0  0  0
   -1.7893    2.1515    1.3825 H   0  0  0  0  0  0  0  0  0  0  0  0
   -2.4043    1.1086   -1.4241 H   0  0  0  0  0  0  0  0  0  0  0  0
   -3.4546    0.9462   -0.0262 H   0  0  0  0  0  0  0  0  0  0  0  0
   -0.0657   -2.3944   -0.5008 H   0  0  0  0  0  0  0  0  0  0  0  0
    1.8260   -1.7060   -1.6818 H   0  0  0  0  0  0  0  0  0  0  0  0
    2.5127   -2.3794   -0.2059 H   0  0  0  0  0  0  0  0  0  0  0  0
    2.5489    2.8030    0.5562 H   0  0  0  0  0  0  0  0  0  0  0  0
   -1.6920    4.2320   -0.0397 H   0  0  0  0  0  0  0  0  0  0  0  0
   -3.3734    3.8345    1.6160 H   0  0  0  0  0  0  0  0  0  0  0  0
   -4.2842    2.8985    0.4417 H   0  0  0  0  0  0  0  0  0  0  0  0
   -1.9493   -0.8533   -2.6079 H   0  0  0  0  0  0  0  0  0  0  0  0
    5.0752   -1.6034   -1.2220 H   0  0  0  0  0  0  0  0  0  0  0  0
    5.2981    3.2053    0.1340 H   0  0  0  0  0  0  0  0  0  0  0  0
   -4.4725    4.8949   -1.0416 H   0  0  0  0  0  0  0  0  0  0  0  0
   -3.5801    5.8576    0.1643 H   0  0  0  0  0  0  0  0  0  0  0  0
    7.2271   -0.3776   -1.2756 H   0  0  0  0  0  0  0  0  0  0  0  0
   -4.3564   -4.1938    0.1611 H   0  0  0  0  0  0  0  0  0  0  0  0
   -3.1763   -2.6931   -3.6885 H   0  0  0  0  0  0  0  0  0  0  0  0
    7.3431    1.9954   -0.6081 H   0  0  0  0  0  0  0  0  0  0  0  0
   -4.3804   -4.3707   -2.3137 H   0  0  0  0  0  0  0  0  0  0  0  0
    1.7865   -4.4706    3.0211 H   0  0  0  0  0  0  0  0  0  0  0  0
    0.2460   -3.6813    3.4275 H   0  0  0  0  0  0  0  0  0  0  0  0
    1.8007   -2.7904    3.6019 H   0  0  0  0  0  0  0  0  0  0  0  0
   -5.8359    6.0124    0.3920 H   0  0  0  0  0  0  0  0  0  0  0  0
  1 22  1  0  0  0  0
  2 20  1  0  0  0  0
  2 32  1  0  0  0  0
  3 20  2  0  0  0  0
  4 26  1  0  0  0  0
  4 60  1  0  0  0  0
  5  8  1  0  0  0  0
  5  9  1  0  0  0  0
  5 13  1  0  0  0  0
  6 14  1  0  0  0  0
  6 19  1  0  0  0  0
  6 43  1  0  0  0  0
  7 11  1  0  0  0  0
  7 21  1  0  0  0  0
  7 44  1  0  0  0  0
  8 10  1  0  0  0  0
  8 14  1  0  0  0  0
  8 33  1  0  0  0  0
  9 12  1  0  0  0  0
  9 17  1  0  0  0  0
  9 34  1  0  0  0  0
 10 11  1  0  0  0  0
 10 35  1  0  0  0  0
 10 36  1  0  0  0  0
 11 12  1  0  0  0  0
 11 37  1  0  0  0  0
 12 38  1  0  0  0  0
 12 39  1  0  0  0  0
 13 15  1  0  0  0  0
 13 20  1  0  0  0  0
 13 40  1  0  0  0  0
 14 16  2  0  0  0  0
 15 16  1  0  0  0  0
 15 41  1  0  0  0  0
 15 42  1  0  0  0  0
 16 18  1  0  0  0  0
 17 22  1  0  0  0  0
 17 23  2  0  0  0  0
 18 19  1  0  0  0  0
 18 24  2  0  0  0  0
 19 25  2  0  0  0  0
 21 26  1  0  0  0  0
 21 45  1  0  0  0  0
 21 46  1  0  0  0  0
 22 28  2  0  0  0  0
 23 29  1  0  0  0  0
 23 47  1  0  0  0  0
 24 27  1  0  0  0  0
 24 48  1  0  0  0  0
 25 30  1  0  0  0  0
 25 49  1  0  0  0  0
 26 50  1  0  0  0  0
 26 51  1  0  0  0  0
 27 30  2  0  0  0  0
 27 52  1  0  0  0  0
 28 31  1  0  0  0  0
 28 53  1  0  0  0  0
 29 31  2  0  0  0  0
 29 54  1  0  0  0  0
 30 55  1  0  0  0  0
 31 56  1  0  0  0  0
 32 57  1  0  0  0  0
 32 58  1  0  0  0  0
 32 59  1  0  0  0  0
M  END
> <PUBCHEM_COMPOUND_CID>
25389730

> <PUBCHEM_CONFORMER_RMSD>
1

> <PUBCHEM_CONFORMER_DIVERSEORDER>
1
2
6
13
3
7
11
9
12
5
4
10
8

> <PUBCHEM_MMFF94_PARTIAL_CHARGES>
40
1 -0.19
11 0.27
13 0.33
14 -0.33
15 0.18
16 -0.18
17 -0.14
19 -0.15
2 -0.43
20 0.66
21 0.27
22 0.19
23 -0.15
24 -0.15
25 -0.15
26 0.28
27 -0.15
28 -0.15
29 -0.15
3 -0.57
30 -0.15
31 -0.15
32 0.28
4 -0.68
43 0.27
44 0.36
47 0.15
48 0.15
49 0.15
5 -0.81
52 0.15
53 0.15
54 0.15
55 0.15
56 0.15
6 0.03
60 0.4
7 -0.9
8 0.45
9 0.41

> <PUBCHEM_EFFECTIVE_ROTOR_COUNT>
7.2

> <PUBCHEM_PHARMACOPHORE_FEATURES>
13
1 3 acceptor
1 4 acceptor
1 4 donor
1 5 cation
1 6 cation
1 6 donor
1 7 cation
1 7 donor
5 6 14 16 18 19 rings
6 17 22 23 28 29 31 rings
6 18 19 24 25 27 30 rings
6 5 8 13 14 15 16 rings
6 5 8 9 10 11 12 rings

> <PUBCHEM_HEAVY_ATOM_COUNT>
32

> <PUBCHEM_ATOM_DEF_STEREO_COUNT>
4

> <PUBCHEM_ATOM_UDEF_STEREO_COUNT>
0

> <PUBCHEM_BOND_DEF_STEREO_COUNT>
0

> <PUBCHEM_BOND_UDEF_STEREO_COUNT>
0

> <PUBCHEM_ISOTOPIC_ATOM_COUNT>
0

> <PUBCHEM_COMPONENT_COUNT>
1

> <PUBCHEM_CACTVS_TAUTO_COUNT>
1

> <PUBCHEM_CONFORMER_ID>
01836AA200000001

> <PUBCHEM_MMFF94_ENERGY>
66.5925

> <PUBCHEM_FEATURE_SELFOVERLAP>
66.166

> <PUBCHEM_SHAPE_FINGERPRINT>
10006869 2 18263363599762612963
10190206 1 18410848859112231317
1100329 8 17974287621638684170
12236239 1 17130441296325845790
12293681 160 18043514221863254435
12788726 201 18263919015974209864
133893 2 16806986772334989610
13540713 5 18262224526801085970
13911987 19 17899416677644744238
140371 6 17974293428281740620
14400156 266 17902477473694297578
14400156 350 17399791601692838405
14790565 3 18052539876940859661
15324884 4 16524949185585719215
15361156 5 18266478661922169780
15439362 3 17911805665560780164
15484559 13 17620198629001853189
15629462 23 18336269049613866715
15927050 60 18337956662433046747
16087824 20 18413389840207715709
16090146 7 17313673766849530706
17349148 13 18188772881057885550
19301676 85 17408543744599673918
23402539 116 18338799047538835670
23558518 356 18334300881071390324
23559900 14 17828485001252631788
283562 15 18262232338887342971
3633792 109 17460004415268726190
38695281 34 18052825749568364549
469060 322 16950569882893181893
5171179 24 17844238742861247145
5252454 2 18263075509877779620
57527295 17 18335711512273961814
59755656 520 18267303131933630429
9658208 31 18130212758028381697

> <PUBCHEM_SHAPE_MULTIPOLES>
618.72
11.4
6.1
1.83
14.16
6.71
0.7
5.57
-4.53
-12.81
1.44
-0.84
-2.71
-2.84

> <PUBCHEM_SHAPE_SELFOVERLAP>
1351.887

> <PUBCHEM_SHAPE_VOLUME>
336.4

> <PUBCHEM_COORDINATE_TYPE>
2
5
10

$$$$
