28960717
  -OEChem-12032416373D

 58 60  0     1  0  0  0  0  0999 V2000
    7.1931    1.3218   -0.4882 F   0  0  0  0  0  0  0  0  0  0  0  0
    5.1007    1.5158   -1.0878 F   0  0  0  0  0  0  0  0  0  0  0  0
    5.7234    2.0145    0.9732 F   0  0  0  0  0  0  0  0  0  0  0  0
   -0.9574   -3.7507   -0.7888 O   0  0  0  0  0  0  0  0  0  0  0  0
   -4.6696    2.0320   -1.7272 O   0  0  0  0  0  0  0  0  0  0  0  0
    0.0447    2.3735    2.1002 O   0  0  0  0  0  0  0  0  0  0  0  0
   -1.8119    1.0749    1.9753 O   0  0  0  0  0  0  0  0  0  0  0  0
    5.7136   -0.1780    0.3217 O   0  0  0  0  0  0  0  0  0  0  0  0
   -3.4285   -2.0413    1.0521 N   0  0  1  0  0  0  0  0  0  0  0  0
   -3.8663    0.7685    0.0462 N   0  0  0  0  0  0  0  0  0  0  0  0
   -0.5037   -1.6746   -0.0809 N   0  0  0  0  0  0  0  0  0  0  0  0
    0.4388   -3.6399   -0.7762 N   0  0  0  0  0  0  0  0  0  0  0  0
   -4.4467   -0.4898   -0.3587 C   0  0  1  0  0  0  0  0  0  0  0  0
   -2.9394   -2.4114   -0.2898 C   0  0  1  0  0  0  0  0  0  0  0  0
   -3.4797   -1.3051   -1.2171 C   0  0  0  0  0  0  0  0  0  0  0  0
   -4.7221   -1.3841    0.8407 C   0  0  0  0  0  0  0  0  0  0  0  0
   -1.4340   -2.5504   -0.3663 C   0  0  0  0  0  0  0  0  0  0  0  0
   -1.8453    3.3032   -0.4621 C   0  0  0  0  0  0  0  0  0  0  0  0
   -3.5378   -3.1791    1.9571 C   0  0  0  0  0  0  0  0  0  0  0  0
   -3.3315    3.1321   -0.0565 C   0  0  0  0  0  0  0  0  0  0  0  0
   -4.0299    1.9351   -0.6820 C   0  0  0  0  0  0  0  0  0  0  0  0
   -0.9669    2.0978   -0.0502 C   0  0  0  0  0  0  0  0  0  0  0  0
   -1.7214    3.4827   -1.9899 C   0  0  0  0  0  0  0  0  0  0  0  0
   -1.3184    4.5949    0.1986 C   0  0  0  0  0  0  0  0  0  0  0  0
    0.6283   -2.3883   -0.3478 C   0  0  0  0  0  0  0  0  0  0  0  0
   -0.9750    1.7820    1.4294 C   0  0  0  0  0  0  0  0  0  0  0  0
    1.9344   -1.8205   -0.1772 C   0  0  0  0  0  0  0  0  0  0  0  0
    3.0313   -2.3844   -0.8287 C   0  0  0  0  0  0  0  0  0  0  0  0
    2.1076   -0.7047    0.6417 C   0  0  0  0  0  0  0  0  0  0  0  0
    4.3014   -1.8328   -0.6611 C   0  0  0  0  0  0  0  0  0  0  0  0
    3.3777   -0.1530    0.8095 C   0  0  0  0  0  0  0  0  0  0  0  0
    4.4745   -0.7170    0.1580 C   0  0  0  0  0  0  0  0  0  0  0  0
    5.9162    1.1760   -0.0670 C   0  0  0  0  0  0  0  0  0  0  0  0
   -5.3704   -0.2814   -0.9104 H   0  0  0  0  0  0  0  0  0  0  0  0
   -3.3959   -3.3602   -0.6071 H   0  0  0  0  0  0  0  0  0  0  0  0
   -2.6926   -0.6829   -1.6583 H   0  0  0  0  0  0  0  0  0  0  0  0
   -4.0303   -1.7726   -2.0434 H   0  0  0  0  0  0  0  0  0  0  0  0
   -5.0420   -0.8216    1.7243 H   0  0  0  0  0  0  0  0  0  0  0  0
   -5.4996   -2.1164    0.5870 H   0  0  0  0  0  0  0  0  0  0  0  0
   -3.3178    0.7834    0.8981 H   0  0  0  0  0  0  0  0  0  0  0  0
   -2.5572   -3.6383    2.1220 H   0  0  0  0  0  0  0  0  0  0  0  0
   -4.2190   -3.9497    1.5786 H   0  0  0  0  0  0  0  0  0  0  0  0
   -3.9020   -2.8513    2.9369 H   0  0  0  0  0  0  0  0  0  0  0  0
   -3.9035    4.0217   -0.3533 H   0  0  0  0  0  0  0  0  0  0  0  0
   -3.4323    3.0698    1.0343 H   0  0  0  0  0  0  0  0  0  0  0  0
    0.0768    2.2704   -0.3469 H   0  0  0  0  0  0  0  0  0  0  0  0
   -1.2581    1.1865   -0.5849 H   0  0  0  0  0  0  0  0  0  0  0  0
   -0.6877    3.7050   -2.2790 H   0  0  0  0  0  0  0  0  0  0  0  0
   -2.3500    4.3074   -2.3443 H   0  0  0  0  0  0  0  0  0  0  0  0
   -2.0227    2.5770   -2.5273 H   0  0  0  0  0  0  0  0  0  0  0  0
   -0.2562    4.7489   -0.0224 H   0  0  0  0  0  0  0  0  0  0  0  0
   -1.8632    5.4742   -0.1643 H   0  0  0  0  0  0  0  0  0  0  0  0
   -1.4342    4.5671    1.2873 H   0  0  0  0  0  0  0  0  0  0  0  0
    0.0243    2.1618    3.0578 H   0  0  0  0  0  0  0  0  0  0  0  0
    2.9296   -3.2499   -1.4788 H   0  0  0  0  0  0  0  0  0  0  0  0
    1.2722   -0.2518    1.1689 H   0  0  0  0  0  0  0  0  0  0  0  0
    5.1522   -2.2751   -1.1723 H   0  0  0  0  0  0  0  0  0  0  0  0
    3.4994    0.7109    1.4570 H   0  0  0  0  0  0  0  0  0  0  0  0
  1 33  1  0  0  0  0
  2 33  1  0  0  0  0
  3 33  1  0  0  0  0
  4 12  1  0  0  0  0
  4 17  1  0  0  0  0
  5 21  2  0  0  0  0
  6 26  1  0  0  0  0
  6 54  1  0  0  0  0
  7 26  2  0  0  0  0
  8 32  1  0  0  0  0
  8 33  1  0  0  0  0
  9 14  1  0  0  0  0
  9 16  1  0  0  0  0
  9 19  1  0  0  0  0
 10 13  1  0  0  0  0
 10 21  1  0  0  0  0
 10 40  1  0  0  0  0
 11 17  2  0  0  0  0
 11 25  1  0  0  0  0
 12 25  2  0  0  0  0
 13 15  1  0  0  0  0
 13 16  1  0  0  0  0
 13 34  1  0  0  0  0
 14 15  1  0  0  0  0
 14 17  1  0  0  0  0
 14 35  1  0  0  0  0
 15 36  1  0  0  0  0
 15 37  1  0  0  0  0
 16 38  1  0  0  0  0
 16 39  1  0  0  0  0
 18 20  1  0  0  0  0
 18 22  1  0  0  0  0
 18 23  1  0  0  0  0
 18 24  1  0  0  0  0
 19 41  1  0  0  0  0
 19 42  1  0  0  0  0
 19 43  1  0  0  0  0
 20 21  1  0  0  0  0
 20 44  1  0  0  0  0
 20 45  1  0  0  0  0
 22 26  1  0  0  0  0
 22 46  1  0  0  0  0
 22 47  1  0  0  0  0
 23 48  1  0  0  0  0
 23 49  1  0  0  0  0
 23 50  1  0  0  0  0
 24 51  1  0  0  0  0
 24 52  1  0  0  0  0
 24 53  1  0  0  0  0
 25 27  1  0  0  0  0
 27 28  2  0  0  0  0
 27 29  1  0  0  0  0
 28 30  1  0  0  0  0
 28 55  1  0  0  0  0
 29 31  2  0  0  0  0
 29 56  1  0  0  0  0
 30 32  2  0  0  0  0
 30 57  1  0  0  0  0
 31 32  1  0  0  0  0
 31 58  1  0  0  0  0
M  END
> <PUBCHEM_COMPOUND_CID>
28960717

> <PUBCHEM_CONFORMER_RMSD>
1.2

> <PUBCHEM_CONFORMER_DIVERSEORDER>
1
78
20
80
86
89
7
96
33
87
38
90
4
73
63
81
36
32
37
93
56
61
26
39
95
40
92
69
21
6
22
34
59
52
47
18
83
64
88
53
25
31
51
75
79
45
67
27
43
72
74
30
62
13
5
94
24
77
8
50
55
85
84
17
82
49
35
91
2
54
16
97
11
42
10
48
65
9
60
15
28
14
71
23
44
57
58
29
76
12
41
70
3
66
19
46
68

> <PUBCHEM_MMFF94_PARTIAL_CHARGES>
35
1 -0.34
10 -0.73
11 -0.57
12 -0.41
13 0.3
14 0.45
16 0.27
17 0.3
19 0.27
2 -0.34
20 0.06
21 0.57
22 0.06
25 0.46
26 0.66
27 0.05
28 -0.15
29 -0.15
3 -0.34
30 -0.15
31 -0.15
32 0.08
33 1.3
4 -0.02
40 0.37
5 -0.57
54 0.5
55 0.15
56 0.15
57 0.15
58 0.15
6 -0.65
7 -0.57
8 -0.36
9 -0.81

> <PUBCHEM_EFFECTIVE_ROTOR_COUNT>
11

> <PUBCHEM_PHARMACOPHORE_FEATURES>
12
1 10 donor
1 5 acceptor
1 6 acceptor
1 7 acceptor
1 8 acceptor
1 9 cation
3 11 12 25 cation
3 18 23 24 hydrophobe
3 6 7 26 anion
5 4 11 12 17 25 rings
5 9 13 14 15 16 rings
6 27 28 29 30 31 32 rings

> <PUBCHEM_HEAVY_ATOM_COUNT>
33

> <PUBCHEM_ATOM_DEF_STEREO_COUNT>
2

> <PUBCHEM_ATOM_UDEF_STEREO_COUNT>
0

> <PUBCHEM_BOND_DEF_STEREO_COUNT>
0

> <PUBCHEM_BOND_UDEF_STEREO_COUNT>
0

> <PUBCHEM_ISOTOPIC_ATOM_COUNT>
0

> <PUBCHEM_COMPONENT_COUNT>
1

> <PUBCHEM_CACTVS_TAUTO_COUNT>
2

> <PUBCHEM_CONFORMER_ID>
01B9E7CD00000001

> <PUBCHEM_MMFF94_ENERGY>
74.9786

> <PUBCHEM_FEATURE_SELFOVERLAP>
60.954

> <PUBCHEM_SHAPE_FINGERPRINT>
10290309 65 18411422791017894639
10670039 82 18339942480161258678
10675989 125 17473819524978641857
12788726 201 18335413604261195018
13402501 40 18341889667603409179
13561361 72 18267009726112550320
1361 2 18192428571825263605
13627167 48 18269016253307334974
13726171 33 18410578357476281777
13947920 24 18341892987301867088
14251757 5 18341328993824399122
14347329 18 18340478989758208338
14363568 33 17832718137603275017
14747282 125 17767700703912540308
14840074 17 18337124426815578705
14932702 115 18272372009681868056
15575132 122 18408606967766400716
16067690 210 18113891654674901416
161222 619 17056359475611379560
16992787 43 18268142068992719477
19611394 137 17827086413287403483
20101258 96 17833835245385911306
21641784 216 18337125561029797508
21792965 270 18115879671316078657
22956985 138 16743417756373295795
3493558 16 17896048787581651350
4173938 77 16327393848926672129
469060 322 18190483618119047363
50150288 127 16270254639223293529
6036956 94 18335422335608805397
6608658 132 18198891685935871174

> <PUBCHEM_SHAPE_MULTIPOLES>
608.03
12.47
5.68
1.49
20.1
1.89
0.35
3.61
-0.87
-4.38
-0.6
-1.09
0.37
1.86

> <PUBCHEM_SHAPE_SELFOVERLAP>
1285.404

> <PUBCHEM_SHAPE_VOLUME>
344

> <PUBCHEM_COORDINATE_TYPE>
2
5
10

$$$$
