11884504
  -OEChem-12032416233D

 53 56  0     1  0  0  0  0  0999 V2000
   -2.1375   -4.7100    0.0067 S   0  0  0  0  0  0  0  0  0  0  0  0
   -4.4687    3.6038    1.1973 F   0  0  0  0  0  0  0  0  0  0  0  0
    1.3518    1.6937    0.1007 O   0  0  0  0  0  0  0  0  0  0  0  0
   -2.8788    0.2057   -1.2775 O   0  0  0  0  0  0  0  0  0  0  0  0
    3.8061    0.6354   -1.4785 O   0  0  0  0  0  0  0  0  0  0  0  0
    2.3721   -0.7687   -0.3343 N   0  0  0  0  0  0  0  0  0  0  0  0
   -1.1359   -1.2876   -1.1344 N   0  0  0  0  0  0  0  0  0  0  0  0
   -0.8014    1.0081   -0.5483 N   0  0  0  0  0  0  0  0  0  0  0  0
    4.6747   -0.8031    0.0985 N   0  0  0  0  0  0  0  0  0  0  0  0
    0.2546   -1.5774   -0.8696 C   0  0  1  0  0  0  0  0  0  0  0  0
    1.1671   -0.3864   -1.0734 C   0  0  1  0  0  0  0  0  0  0  0  0
    0.5614   -2.0058    0.5671 C   0  0  0  0  0  0  0  0  0  0  0  0
    2.0717   -1.8140    0.6480 C   0  0  0  0  0  0  0  0  0  0  0  0
    0.6039    0.8754   -0.4393 C   0  0  0  0  0  0  0  0  0  0  0  0
   -1.6958   -0.0126   -0.9908 C   0  0  0  0  0  0  0  0  0  0  0  0
   -1.9696   -2.4195   -1.5229 C   0  0  0  0  0  0  0  0  0  0  0  0
    3.6316   -0.2481   -0.6346 C   0  0  0  0  0  0  0  0  0  0  0  0
   -1.3799    2.2837   -0.1722 C   0  0  0  0  0  0  0  0  0  0  0  0
   -2.5231   -3.0790   -0.2967 C   0  0  0  0  0  0  0  0  0  0  0  0
    6.0457   -0.3832   -0.0756 C   0  0  0  0  0  0  0  0  0  0  0  0
   -2.6687    2.3245    0.3410 C   0  0  0  0  0  0  0  0  0  0  0  0
   -0.6366    3.4448   -0.3323 C   0  0  0  0  0  0  0  0  0  0  0  0
   -3.3324   -2.5307    0.6572 C   0  0  0  0  0  0  0  0  0  0  0  0
    6.4217    0.7692    0.8480 C   0  0  0  0  0  0  0  0  0  0  0  0
   -3.6509   -3.4752    1.6753 C   0  0  0  0  0  0  0  0  0  0  0  0
   -3.2256    3.5516    0.7014 C   0  0  0  0  0  0  0  0  0  0  0  0
   -1.1935    4.6717    0.0281 C   0  0  0  0  0  0  0  0  0  0  0  0
   -3.0663   -4.7009    1.4451 C   0  0  0  0  0  0  0  0  0  0  0  0
   -2.4879    4.7252    0.5451 C   0  0  0  0  0  0  0  0  0  0  0  0
    6.2901    0.4094    2.3211 C   0  0  0  0  0  0  0  0  0  0  0  0
    0.5810   -2.3746   -1.5522 H   0  0  0  0  0  0  0  0  0  0  0  0
    1.3911   -0.1803   -2.1252 H   0  0  0  0  0  0  0  0  0  0  0  0
    0.0529   -1.3580    1.2918 H   0  0  0  0  0  0  0  0  0  0  0  0
    0.2795   -3.0372    0.7880 H   0  0  0  0  0  0  0  0  0  0  0  0
    2.6058   -2.7235    0.3525 H   0  0  0  0  0  0  0  0  0  0  0  0
    2.4036   -1.5069    1.6441 H   0  0  0  0  0  0  0  0  0  0  0  0
   -1.3908   -3.1011   -2.1562 H   0  0  0  0  0  0  0  0  0  0  0  0
   -2.8077   -2.0618   -2.1332 H   0  0  0  0  0  0  0  0  0  0  0  0
    4.4874   -1.5235    0.7866 H   0  0  0  0  0  0  0  0  0  0  0  0
    6.6783   -1.2548    0.1244 H   0  0  0  0  0  0  0  0  0  0  0  0
    6.2039   -0.0882   -1.1186 H   0  0  0  0  0  0  0  0  0  0  0  0
   -3.2575    1.4403    0.5596 H   0  0  0  0  0  0  0  0  0  0  0  0
    0.3384    3.4747   -0.8063 H   0  0  0  0  0  0  0  0  0  0  0  0
   -3.6944   -1.5114    0.6464 H   0  0  0  0  0  0  0  0  0  0  0  0
    5.7900    1.6401    0.6369 H   0  0  0  0  0  0  0  0  0  0  0  0
    7.4574    1.0649    0.6448 H   0  0  0  0  0  0  0  0  0  0  0  0
   -4.2780   -3.2665    2.5323 H   0  0  0  0  0  0  0  0  0  0  0  0
   -0.6272    5.5881   -0.1115 H   0  0  0  0  0  0  0  0  0  0  0  0
   -3.1402   -5.5917    2.0529 H   0  0  0  0  0  0  0  0  0  0  0  0
   -2.9233    5.6808    0.8217 H   0  0  0  0  0  0  0  0  0  0  0  0
    6.9031   -0.4632    2.5680 H   0  0  0  0  0  0  0  0  0  0  0  0
    6.6250    1.2454    2.9434 H   0  0  0  0  0  0  0  0  0  0  0  0
    5.2520    0.1892    2.5889 H   0  0  0  0  0  0  0  0  0  0  0  0
  1 19  1  0  0  0  0
  1 28  1  0  0  0  0
  2 26  1  0  0  0  0
  3 14  2  0  0  0  0
  4 15  2  0  0  0  0
  5 17  2  0  0  0  0
  6 11  1  0  0  0  0
  6 13  1  0  0  0  0
  6 17  1  0  0  0  0
  7 10  1  0  0  0  0
  7 15  1  0  0  0  0
  7 16  1  0  0  0  0
  8 14  1  0  0  0  0
  8 15  1  0  0  0  0
  8 18  1  0  0  0  0
  9 17  1  0  0  0  0
  9 20  1  0  0  0  0
  9 39  1  0  0  0  0
 10 11  1  0  0  0  0
 10 12  1  0  0  0  0
 10 31  1  0  0  0  0
 11 14  1  0  0  0  0
 11 32  1  0  0  0  0
 12 13  1  0  0  0  0
 12 33  1  0  0  0  0
 12 34  1  0  0  0  0
 13 35  1  0  0  0  0
 13 36  1  0  0  0  0
 16 19  1  0  0  0  0
 16 37  1  0  0  0  0
 16 38  1  0  0  0  0
 18 21  2  0  0  0  0
 18 22  1  0  0  0  0
 19 23  2  0  0  0  0
 20 24  1  0  0  0  0
 20 40  1  0  0  0  0
 20 41  1  0  0  0  0
 21 26  1  0  0  0  0
 21 42  1  0  0  0  0
 22 27  2  0  0  0  0
 22 43  1  0  0  0  0
 23 25  1  0  0  0  0
 23 44  1  0  0  0  0
 24 30  1  0  0  0  0
 24 45  1  0  0  0  0
 24 46  1  0  0  0  0
 25 28  2  0  0  0  0
 25 47  1  0  0  0  0
 26 29  2  0  0  0  0
 27 29  1  0  0  0  0
 27 48  1  0  0  0  0
 28 49  1  0  0  0  0
 29 50  1  0  0  0  0
 30 51  1  0  0  0  0
 30 52  1  0  0  0  0
 30 53  1  0  0  0  0
M  END
> <PUBCHEM_COMPOUND_CID>
11884504

> <PUBCHEM_CONFORMER_RMSD>
1

> <PUBCHEM_CONFORMER_DIVERSEORDER>
1
99
69
47
95
80
81
43
97
29
75
31
98
35
91
32
25
111
113
76
88
24
114
23
118
107
77
33
21
42
46
90
100
41
26
119
60
96
14
6
79
74
84
65
57
67
112
61
116
108
89
54
82
22
71
92
56
85
59
18
73
101
94
87
48
78
7
49
104
44
70
86
63
62
93
53
55
39
102
115
13
66
28
105
64
50
16
51
109
27
52
117
72
30
45
106
40
15
110
58
11
68
103
17
20
12
36
37
10
4
9
83
34
8
19
38
5
2
3

> <PUBCHEM_MMFF94_PARTIAL_CHARGES>
35
1 -0.08
10 0.3
11 0.36
13 0.3
14 0.57
15 0.69
16 0.48
17 0.69
18 0.12
19 -0.14
2 -0.19
20 0.3
21 -0.15
22 -0.15
23 -0.15
25 -0.15
26 0.19
27 -0.15
28 -0.11
29 -0.15
3 -0.57
39 0.37
4 -0.57
42 0.15
43 0.15
44 0.15
47 0.15
48 0.15
49 0.15
5 -0.57
50 0.15
6 -0.66
7 -0.66
8 -0.24
9 -0.73

> <PUBCHEM_EFFECTIVE_ROTOR_COUNT>
8

> <PUBCHEM_PHARMACOPHORE_FEATURES>
9
1 3 acceptor
1 30 hydrophobe
1 4 acceptor
1 5 acceptor
1 9 donor
5 1 19 23 25 28 rings
5 6 10 11 12 13 rings
6 18 21 22 26 27 29 rings
6 7 8 10 11 14 15 rings

> <PUBCHEM_HEAVY_ATOM_COUNT>
30

> <PUBCHEM_ATOM_DEF_STEREO_COUNT>
2

> <PUBCHEM_ATOM_UDEF_STEREO_COUNT>
0

> <PUBCHEM_BOND_DEF_STEREO_COUNT>
0

> <PUBCHEM_BOND_UDEF_STEREO_COUNT>
0

> <PUBCHEM_ISOTOPIC_ATOM_COUNT>
0

> <PUBCHEM_COMPONENT_COUNT>
1

> <PUBCHEM_CACTVS_TAUTO_COUNT>
2

> <PUBCHEM_CONFORMER_ID>
00B557D800000001

> <PUBCHEM_MMFF94_ENERGY>
78.3285

> <PUBCHEM_FEATURE_SELFOVERLAP>
45.862

> <PUBCHEM_SHAPE_FINGERPRINT>
10074138 170 18410284783607846144
10319926 262 18270945862329369698
10411042 1 18196087982898463414
10794284 68 17471350343752511141
1100329 8 18337679723601274725
11115154 58 17841960512746438973
11456790 92 18043541710656685083
12160290 23 18266152007725361279
12293681 160 18121465074051383687
12422481 6 17845096358073021826
12788726 201 18339063922730983695
13009979 54 18188495786879122014
13140716 1 18338517572308716085
13590594 115 18195537118919378011
138480 1 16319784111923114543
13955234 65 17186169665127689337
14028597 1 17894621565417353586
14565420 104 17838622150157276705
14790565 3 18051973615340124220
14955137 171 17546449341598135272
15042514 8 18410019839917968638
15463212 79 18194954145812650241
15475509 84 18120113894841723043
15927050 60 17980485564105049879
15950262 2 15336900113836737411
19246450 95 17036945068608963378
20101258 96 18340208612755268600
21041028 32 18266465497330306263
21796203 349 17685802484864373866
23559900 14 17245819734751428951
23845131 108 18120937209453901873
3418910 222 18118122696701898132
3552219 110 17824278205002349540
376196 1 17627220165970125052
392239 28 18263081175155187130
4058900 60 17619929261242894504
469060 322 18265911300815718274
5104073 3 18337096888324170610
6376802 137 18043529632390581378
7808743 9 18270672066263820448
79837 15 18266183837580122994
9658208 31 18197229048856339990
9896288 288 18411134728209867386
9981440 41 18048324344917092161

> <PUBCHEM_SHAPE_MULTIPOLES>
576.43
10.24
7.24
1.45
22.36
5.34
0.33
-4.3
5.1
-13.11
2.54
0.33
-0.65
0.21

> <PUBCHEM_SHAPE_SELFOVERLAP>
1230.561

> <PUBCHEM_SHAPE_VOLUME>
322.9

> <PUBCHEM_COORDINATE_TYPE>
2
5
10

$$$$
