75536245
  -OEChem-12032416303D

 53 56  0     1  0  0  0  0  0999 V2000
   -6.5619   -0.6951    1.4327 F   0  0  0  0  0  0  0  0  0  0  0  0
    2.6098   -0.7955    0.6575 O   0  0  0  0  0  0  0  0  0  0  0  0
    5.0905   -1.2786    2.1743 O   0  0  0  0  0  0  0  0  0  0  0  0
    1.4104    2.2087   -1.4567 O   0  0  0  0  0  0  0  0  0  0  0  0
   -1.2145   -0.8196   -1.8434 O   0  0  0  0  0  0  0  0  0  0  0  0
    1.6803    1.8714    0.8186 N   0  0  0  0  0  0  0  0  0  0  0  0
    0.1022   -1.0549   -2.2202 N   0  0  0  0  0  0  0  0  0  0  0  0
   -0.5510    2.4298   -0.0327 C   0  0  0  0  0  0  0  0  0  0  0  0
   -0.9192    3.7270    0.7345 C   0  0  0  0  0  0  0  0  0  0  0  0
   -1.4183    2.9803   -1.1947 C   0  0  0  0  0  0  0  0  0  0  0  0
    3.3790    0.2016    1.3424 C   0  0  1  0  0  0  0  0  0  0  0  0
   -2.1793    3.8144   -0.1471 C   0  0  0  0  0  0  0  0  0  0  0  0
    4.8741   -0.1426    1.3331 C   0  0  2  0  0  0  0  0  0  0  0  0
    3.0152   -1.0584   -0.6881 C   0  0  1  0  0  0  0  0  0  0  0  0
    5.3810   -0.4939   -0.0630 C   0  0  0  0  0  0  0  0  0  0  0  0
    4.4709   -1.5201   -0.7319 C   0  0  0  0  0  0  0  0  0  0  0  0
    3.0847    1.5963    0.7942 C   0  0  0  0  0  0  0  0  0  0  0  0
    0.9289    2.1623   -0.3201 C   0  0  0  0  0  0  0  0  0  0  0  0
    2.0884   -2.1325   -1.2444 C   0  0  0  0  0  0  0  0  0  0  0  0
    0.6456   -1.7075   -1.1887 C   0  0  0  0  0  0  0  0  0  0  0  0
   -0.2713   -1.9102   -0.1429 C   0  0  0  0  0  0  0  0  0  0  0  0
   -1.4248   -1.3335   -0.6047 C   0  0  0  0  0  0  0  0  0  0  0  0
   -2.7487   -1.1682   -0.0789 C   0  0  0  0  0  0  0  0  0  0  0  0
   -3.0641   -1.6648    1.1859 C   0  0  0  0  0  0  0  0  0  0  0  0
   -3.7214   -0.5115   -0.8327 C   0  0  0  0  0  0  0  0  0  0  0  0
   -4.3521   -1.5049    1.6967 C   0  0  0  0  0  0  0  0  0  0  0  0
   -5.0095   -0.3517   -0.3221 C   0  0  0  0  0  0  0  0  0  0  0  0
   -5.3248   -0.8484    0.9426 C   0  0  0  0  0  0  0  0  0  0  0  0
   -1.0195    1.5477    0.4285 H   0  0  0  0  0  0  0  0  0  0  0  0
    3.0250    0.1632    2.3807 H   0  0  0  0  0  0  0  0  0  0  0  0
   -0.2162    4.5546    0.5840 H   0  0  0  0  0  0  0  0  0  0  0  0
   -1.1036    3.6080    1.8055 H   0  0  0  0  0  0  0  0  0  0  0  0
   -2.0180    2.2402   -1.7307 H   0  0  0  0  0  0  0  0  0  0  0  0
   -0.8733    3.5901   -1.9248 H   0  0  0  0  0  0  0  0  0  0  0  0
   -2.4736    4.8191   -0.4597 H   0  0  0  0  0  0  0  0  0  0  0  0
   -3.0499    3.3005    0.2764 H   0  0  0  0  0  0  0  0  0  0  0  0
    5.4574    0.6832    1.7552 H   0  0  0  0  0  0  0  0  0  0  0  0
    2.8970   -0.1483   -1.2869 H   0  0  0  0  0  0  0  0  0  0  0  0
    6.3981   -0.8999   -0.0128 H   0  0  0  0  0  0  0  0  0  0  0  0
    5.4224    0.4104   -0.6813 H   0  0  0  0  0  0  0  0  0  0  0  0
    4.7913   -1.6838   -1.7670 H   0  0  0  0  0  0  0  0  0  0  0  0
    4.5737   -2.4767   -0.2041 H   0  0  0  0  0  0  0  0  0  0  0  0
    3.4677    1.7238   -0.2222 H   0  0  0  0  0  0  0  0  0  0  0  0
    3.5708    2.3524    1.4205 H   0  0  0  0  0  0  0  0  0  0  0  0
    2.1900   -3.0563   -0.6596 H   0  0  0  0  0  0  0  0  0  0  0  0
    2.3628   -2.3755   -2.2784 H   0  0  0  0  0  0  0  0  0  0  0  0
    1.2152    1.8841    1.7217 H   0  0  0  0  0  0  0  0  0  0  0  0
    6.0472   -1.4519    2.1937 H   0  0  0  0  0  0  0  0  0  0  0  0
   -0.1066   -2.4043    0.8035 H   0  0  0  0  0  0  0  0  0  0  0  0
   -2.3278   -2.1805    1.7969 H   0  0  0  0  0  0  0  0  0  0  0  0
   -3.5144   -0.1102   -1.8216 H   0  0  0  0  0  0  0  0  0  0  0  0
   -4.5984   -1.8912    2.6813 H   0  0  0  0  0  0  0  0  0  0  0  0
   -5.7673    0.1596   -0.9084 H   0  0  0  0  0  0  0  0  0  0  0  0
  1 28  1  0  0  0  0
  2 11  1  0  0  0  0
  2 14  1  0  0  0  0
  3 13  1  0  0  0  0
  3 48  1  0  0  0  0
  4 18  2  0  0  0  0
  5  7  1  0  0  0  0
  5 22  1  0  0  0  0
  6 17  1  0  0  0  0
  6 18  1  0  0  0  0
  6 47  1  0  0  0  0
  7 20  2  0  0  0  0
  8  9  1  0  0  0  0
  8 10  1  0  0  0  0
  8 18  1  0  0  0  0
  8 29  1  0  0  0  0
  9 12  1  0  0  0  0
  9 31  1  0  0  0  0
  9 32  1  0  0  0  0
 10 12  1  0  0  0  0
 10 33  1  0  0  0  0
 10 34  1  0  0  0  0
 11 13  1  0  0  0  0
 11 17  1  0  0  0  0
 11 30  1  0  0  0  0
 12 35  1  0  0  0  0
 12 36  1  0  0  0  0
 13 15  1  0  0  0  0
 13 37  1  0  0  0  0
 14 16  1  0  0  0  0
 14 19  1  0  0  0  0
 14 38  1  0  0  0  0
 15 16  1  0  0  0  0
 15 39  1  0  0  0  0
 15 40  1  0  0  0  0
 16 41  1  0  0  0  0
 16 42  1  0  0  0  0
 17 43  1  0  0  0  0
 17 44  1  0  0  0  0
 19 20  1  0  0  0  0
 19 45  1  0  0  0  0
 19 46  1  0  0  0  0
 20 21  1  0  0  0  0
 21 22  2  0  0  0  0
 21 49  1  0  0  0  0
 22 23  1  0  0  0  0
 23 24  2  0  0  0  0
 23 25  1  0  0  0  0
 24 26  1  0  0  0  0
 24 50  1  0  0  0  0
 25 27  2  0  0  0  0
 25 51  1  0  0  0  0
 26 28  2  0  0  0  0
 26 52  1  0  0  0  0
 27 28  1  0  0  0  0
 27 53  1  0  0  0  0
M  END
> <PUBCHEM_COMPOUND_CID>
75536245

> <PUBCHEM_CONFORMER_RMSD>
1

> <PUBCHEM_CONFORMER_DIVERSEORDER>
1
8
55
43
71
84
58
38
6
83
47
37
88
51
48
26
86
68
73
24
90
35
16
95
50
114
67
40
119
91
14
25
42
56
87
121
70
65
89
113
5
104
23
21
57
74
100
116
80
13
59
66
125
20
45
60
109
117
108
98
27
118
92
85
102
32
36
111
44
81
46
28
63
77
76
15
49
29
94
93
22
19
101
78
61
75
79
72
10
54
99
120
18
17
106
34
12
110
82
107
123
39
41
7
64
31
112
62
97
115
122
103
33
69
96
11
2
30
52
53
4
124
9
105
3

> <PUBCHEM_MMFF94_PARTIAL_CHARGES>
30
1 -0.19
11 0.28
13 0.28
14 0.28
17 0.3
18 0.58
19 0.18
2 -0.56
20 0.11
21 -0.15
22 0.09
23 0.05
24 -0.15
25 -0.15
26 -0.15
27 -0.15
28 0.19
3 -0.68
4 -0.57
47 0.37
48 0.4
49 0.15
5 -0.02
50 0.15
51 0.15
52 0.15
53 0.15
6 -0.73
7 -0.41
8 0.05

> <PUBCHEM_EFFECTIVE_ROTOR_COUNT>
9

> <PUBCHEM_PHARMACOPHORE_FEATURES>
10
1 2 acceptor
1 3 acceptor
1 3 donor
1 4 acceptor
1 6 donor
1 7 acceptor
4 8 9 10 12 rings
5 5 7 20 21 22 rings
6 2 11 13 14 15 16 rings
6 23 24 25 26 27 28 rings

> <PUBCHEM_HEAVY_ATOM_COUNT>
28

> <PUBCHEM_ATOM_DEF_STEREO_COUNT>
3

> <PUBCHEM_ATOM_UDEF_STEREO_COUNT>
0

> <PUBCHEM_BOND_DEF_STEREO_COUNT>
0

> <PUBCHEM_BOND_UDEF_STEREO_COUNT>
0

> <PUBCHEM_ISOTOPIC_ATOM_COUNT>
0

> <PUBCHEM_COMPONENT_COUNT>
1

> <PUBCHEM_CACTVS_TAUTO_COUNT>
2

> <PUBCHEM_CONFORMER_ID>
0480977500000001

> <PUBCHEM_MMFF94_ENERGY>
49.3601

> <PUBCHEM_FEATURE_SELFOVERLAP>
50.75

> <PUBCHEM_SHAPE_FINGERPRINT>
10006869 2 18050840019273867335
10076449 9 17917444082122320078
10688039 33 18334297556598047661
11370993 70 10447939364353195777
12293681 4 18261682540066188954
12422481 6 18201170858013457169
12596602 18 17385724694871180026
12633257 1 18335422430118768699
12655364 131 16550262081365197680
12788726 201 18335425659981355776
13075007 39 18190474942010880867
13135754 10 18337678507482373796
13140716 1 18267296724058286374
13402501 40 18341889650228549509
13726171 33 18338809927261364672
13965767 371 17632307752163757695
14363568 33 18122356940626407033
14790565 3 17474384059817479344
14840074 17 18272089465194665604
15420108 30 17627786745397738420
15840311 113 17058395608770414171
17357779 13 18341321219516875364
1979834 28 18131081449613010239
21033648 29 18059846234337721059
21304303 94 8069756160922909993
21360443 126 18190459346995743685
22182313 1 17987796290153356006
23419403 2 16914840041198999004
23559900 14 16733550550062351231
24893992 56 18040436591345878473
3052486 1 18189621549014818276
3187 122 18335135354256608932
3472631 163 15052021177849125091
469060 322 18115319872940049537
474 4 17989209278143070039
508706 21 18266740177795569517
513532 50 15984559861433840476
5283268 108 18410863156720255177
56638632 10 16844140507167120688
7097593 13 17904199583179317183
8509985 295 18336271261974879453

> <PUBCHEM_SHAPE_MULTIPOLES>
535.51
11.25
3.82
1.74
2.68
4.96
-0.07
-6.04
-5.96
1.5
0.48
-0.27
-0.56
1.19

> <PUBCHEM_SHAPE_SELFOVERLAP>
1141.297

> <PUBCHEM_SHAPE_VOLUME>
298.8

> <PUBCHEM_COORDINATE_TYPE>
2
5
10

$$$$
