11912492
  -OEChem-12032416363D

 56 60  0     1  0  0  0  0  0999 V2000
    1.2134   -0.3507    1.1342 O   0  0  0  0  0  0  0  0  0  0  0  0
   -0.6018    2.0286    0.4582 O   0  0  0  0  0  0  0  0  0  0  0  0
    2.8754    1.4445   -0.1757 O   0  0  0  0  0  0  0  0  0  0  0  0
    3.1659   -0.2283   -1.7223 O   0  0  0  0  0  0  0  0  0  0  0  0
   -5.3230    1.4801    0.2724 O   0  0  0  0  0  0  0  0  0  0  0  0
   -1.6539   -1.4727    0.7028 N   0  0  0  0  0  0  0  0  0  0  0  0
    4.9546    0.6120   -0.5072 N   0  0  0  0  0  0  0  0  0  0  0  0
   -3.7765   -0.5883    0.2342 N   0  0  0  0  0  0  0  0  0  0  0  0
   -3.2733   -2.9023   -0.2128 N   0  0  0  0  0  0  0  0  0  0  0  0
   -0.6520    0.6427    0.0588 C   0  0  1  0  0  0  0  0  0  0  0  0
    0.7817    0.1872   -0.1264 C   0  0  1  0  0  0  0  0  0  0  0  0
   -1.1607   -0.2062    1.2001 C   0  0  2  0  0  0  0  0  0  0  0  0
    1.4945    1.4763   -0.4576 C   0  0  1  0  0  0  0  0  0  0  0  0
    0.0934   -0.4184    2.0302 C   0  0  0  0  0  0  0  0  0  0  0  0
    0.7603    2.4773    0.4057 C   0  0  0  0  0  0  0  0  0  0  0  0
    5.9973   -0.2169   -1.0702 C   0  0  0  0  0  0  0  0  0  0  0  0
    7.3326    0.5334   -1.1167 C   0  0  0  0  0  0  0  0  0  0  0  0
    6.1279   -1.5361   -0.3014 C   0  0  0  0  0  0  0  0  0  0  0  0
    7.9477    0.7193    0.2703 C   0  0  0  0  0  0  0  0  0  0  0  0
    6.7448   -1.3468    1.0844 C   0  0  0  0  0  0  0  0  0  0  0  0
    8.0777   -0.6081    1.0112 C   0  0  0  0  0  0  0  0  0  0  0  0
    3.6297    0.5350   -0.8815 C   0  0  0  0  0  0  0  0  0  0  0  0
   -2.9398   -1.6600    0.2272 C   0  0  0  0  0  0  0  0  0  0  0  0
   -5.0218   -0.8067   -0.2368 C   0  0  0  0  0  0  0  0  0  0  0  0
   -4.5342   -3.0496   -0.6701 C   0  0  0  0  0  0  0  0  0  0  0  0
   -5.4608   -2.0278   -0.7065 C   0  0  0  0  0  0  0  0  0  0  0  0
   -5.8840    0.3448   -0.2162 C   0  0  0  0  0  0  0  0  0  0  0  0
   -7.1871    0.5665   -0.5887 C   0  0  0  0  0  0  0  0  0  0  0  0
   -7.4465    1.9298   -0.3110 C   0  0  0  0  0  0  0  0  0  0  0  0
   -6.2815    2.4415    0.2113 C   0  0  0  0  0  0  0  0  0  0  0  0
   -1.2425    0.5878   -0.8613 H   0  0  0  0  0  0  0  0  0  0  0  0
    0.8806   -0.6013   -0.8771 H   0  0  0  0  0  0  0  0  0  0  0  0
   -1.9186    0.2910    1.8164 H   0  0  0  0  0  0  0  0  0  0  0  0
    1.3311    1.7375   -1.5119 H   0  0  0  0  0  0  0  0  0  0  0  0
    0.2181    0.3873    2.7621 H   0  0  0  0  0  0  0  0  0  0  0  0
    0.1160   -1.3728    2.5656 H   0  0  0  0  0  0  0  0  0  0  0  0
    1.1591    2.5195    1.4255 H   0  0  0  0  0  0  0  0  0  0  0  0
    0.7976    3.4895   -0.0081 H   0  0  0  0  0  0  0  0  0  0  0  0
   -1.0235   -2.2643    0.6442 H   0  0  0  0  0  0  0  0  0  0  0  0
    5.7007   -0.4521   -2.1001 H   0  0  0  0  0  0  0  0  0  0  0  0
    7.2022    1.5138   -1.5905 H   0  0  0  0  0  0  0  0  0  0  0  0
    8.0368   -0.0307   -1.7415 H   0  0  0  0  0  0  0  0  0  0  0  0
    6.7620   -2.2220   -0.8776 H   0  0  0  0  0  0  0  0  0  0  0  0
    5.1495   -2.0208   -0.1994 H   0  0  0  0  0  0  0  0  0  0  0  0
    7.3388    1.4122    0.8627 H   0  0  0  0  0  0  0  0  0  0  0  0
    8.9375    1.1797    0.1706 H   0  0  0  0  0  0  0  0  0  0  0  0
    6.8930   -2.3250    1.5560 H   0  0  0  0  0  0  0  0  0  0  0  0
    6.0514   -0.7884    1.7250 H   0  0  0  0  0  0  0  0  0  0  0  0
    8.8157   -1.2391    0.5006 H   0  0  0  0  0  0  0  0  0  0  0  0
    8.4570   -0.4298    2.0237 H   0  0  0  0  0  0  0  0  0  0  0  0
    5.1928    1.2603    0.2370 H   0  0  0  0  0  0  0  0  0  0  0  0
   -4.7872   -4.0454   -1.0182 H   0  0  0  0  0  0  0  0  0  0  0  0
   -6.4607   -2.2006   -1.0839 H   0  0  0  0  0  0  0  0  0  0  0  0
   -7.8764   -0.1525   -1.0085 H   0  0  0  0  0  0  0  0  0  0  0  0
   -8.3673    2.4716   -0.4714 H   0  0  0  0  0  0  0  0  0  0  0  0
   -5.9877    3.4175    0.5688 H   0  0  0  0  0  0  0  0  0  0  0  0
  1 11  1  0  0  0  0
  1 14  1  0  0  0  0
  2 10  1  0  0  0  0
  2 15  1  0  0  0  0
  3 13  1  0  0  0  0
  3 22  1  0  0  0  0
  4 22  2  0  0  0  0
  5 27  1  0  0  0  0
  5 30  1  0  0  0  0
  6 12  1  0  0  0  0
  6 23  1  0  0  0  0
  6 39  1  0  0  0  0
  7 16  1  0  0  0  0
  7 22  1  0  0  0  0
  7 51  1  0  0  0  0
  8 23  1  0  0  0  0
  8 24  2  0  0  0  0
  9 23  2  0  0  0  0
  9 25  1  0  0  0  0
 10 11  1  0  0  0  0
 10 12  1  0  0  0  0
 10 31  1  0  0  0  0
 11 13  1  0  0  0  0
 11 32  1  0  0  0  0
 12 14  1  0  0  0  0
 12 33  1  0  0  0  0
 13 15  1  0  0  0  0
 13 34  1  0  0  0  0
 14 35  1  0  0  0  0
 14 36  1  0  0  0  0
 15 37  1  0  0  0  0
 15 38  1  0  0  0  0
 16 17  1  0  0  0  0
 16 18  1  0  0  0  0
 16 40  1  0  0  0  0
 17 19  1  0  0  0  0
 17 41  1  0  0  0  0
 17 42  1  0  0  0  0
 18 20  1  0  0  0  0
 18 43  1  0  0  0  0
 18 44  1  0  0  0  0
 19 21  1  0  0  0  0
 19 45  1  0  0  0  0
 19 46  1  0  0  0  0
 20 21  1  0  0  0  0
 20 47  1  0  0  0  0
 20 48  1  0  0  0  0
 21 49  1  0  0  0  0
 21 50  1  0  0  0  0
 24 26  1  0  0  0  0
 24 27  1  0  0  0  0
 25 26  2  0  0  0  0
 25 52  1  0  0  0  0
 26 53  1  0  0  0  0
 27 28  2  0  0  0  0
 28 29  1  0  0  0  0
 28 54  1  0  0  0  0
 29 30  2  0  0  0  0
 29 55  1  0  0  0  0
 30 56  1  0  0  0  0
M  END
> <PUBCHEM_COMPOUND_CID>
11912492

> <PUBCHEM_CONFORMER_RMSD>
1

> <PUBCHEM_CONFORMER_DIVERSEORDER>
1
207
311
8
223
234
391
235
29
180
250
93
364
284
157
429
194
290
32
392
173
192
380
400
417
57
76
354
370
84
99
159
408
132
44
200
365
213
369
130
17
193
129
383
259
263
90
11
296
247
283
433
279
388
240
83
144
81
225
358
152
178
138
297
142
412
321
257
302
224
378
287
216
343
41
65
399
108
14
423
298
421
47
318
170
140
337
323
349
422
124
92
226
264
410
303
239
125
236
339
379
186
338
260
266
426
217
313
54
164
10
317
310
393
119
289
398
60
328
299
295
205
19
258
293
137
324
182
145
59
280
256
126
110
272
52
50
300
102
403
331
56
143
201
356
262
189
148
75
198
316
396
181
38
277
416
211
401
274
382
305
188
360
320
387
420
53
238
66
229
340
373
33
67
424
169
101
248
123
286
381
301
355
307
63
91
161
332
177
341
197
151
156
195
136
405
109
185
74
273
233
85
418
389
327
34
334
362
376
306
86
64
80
377
158
9
269
107
160
268
171
361
367
342
139
203
411
168
214
146
12
278
397
435
209
111
230
30
271
368
431
333
345
97
218
62
249
155
105
210
434
314
419
112
15
244
104
404
232
23
175
252
131
68
432
386
325
394
359
187
94
121
133
82
430
251
141
374
73
163
246
69
415
335
43
167
227
176
154
45
294
385
267
395
288
120
27
353
153
326
319
366
79
406
183
285
46
304
127
49
36
363
16
237
135
261
165
206
414
243
147
22
28
5
174
409
24
372
309
254
58
166
191
172
55
222
312
31
3
413
265
199
371
282
219
134
106
51
330
220
253
39
98
13
281
103
276
114
384
357
291
162
122
128
308
346
351
245
149
70
329
350
87
221
7
190
25
344
204
242
4
26
255
315
231
352
115
96
100
61
322
117
428
2
40
48
390
270
72
21
208
215
292
336
88
241
78
150
275
427
95
402
347
118
37
20
77
18
6
196
375
212
116
407
89
113
202
425
35
348
184
179
71
228
42

> <PUBCHEM_MMFF94_PARTIAL_CHARGES>
32
1 -0.56
10 0.28
11 0.28
12 0.37
13 0.28
14 0.28
15 0.28
16 0.3
2 -0.56
22 0.78
23 0.72
24 0.36
25 0.16
26 -0.15
27 0.09
28 -0.15
29 -0.15
3 -0.43
30 -0.01
39 0.4
4 -0.57
5 -0.28
51 0.37
52 0.15
53 0.15
54 0.15
55 0.15
56 0.15
6 -0.87
7 -0.73
8 -0.62
9 -0.62

> <PUBCHEM_EFFECTIVE_ROTOR_COUNT>
9.4

> <PUBCHEM_PHARMACOPHORE_FEATURES>
13
1 1 acceptor
1 2 acceptor
1 4 acceptor
1 5 acceptor
1 6 donor
1 7 donor
1 8 acceptor
4 6 8 9 23 cation
5 1 10 11 12 14 rings
5 2 10 11 13 15 rings
5 5 27 28 29 30 rings
6 16 17 18 19 20 21 rings
6 8 9 23 24 25 26 rings

> <PUBCHEM_HEAVY_ATOM_COUNT>
30

> <PUBCHEM_ATOM_DEF_STEREO_COUNT>
4

> <PUBCHEM_ATOM_UDEF_STEREO_COUNT>
0

> <PUBCHEM_BOND_DEF_STEREO_COUNT>
0

> <PUBCHEM_BOND_UDEF_STEREO_COUNT>
0

> <PUBCHEM_ISOTOPIC_ATOM_COUNT>
0

> <PUBCHEM_COMPONENT_COUNT>
1

> <PUBCHEM_CACTVS_TAUTO_COUNT>
6

> <PUBCHEM_CONFORMER_ID>
00B5C52C00000001

> <PUBCHEM_MMFF94_ENERGY>
61.4055

> <PUBCHEM_FEATURE_SELFOVERLAP>
66.701

> <PUBCHEM_SHAPE_FINGERPRINT>
10369192 42 13262397773752935979
10591671 39 8286200561147628926
10613725 11 17967816063268496830
10670039 82 18408879638819978837
11103572 95 18270675369273434802
11273773 118 16805594842570206973
11315181 36 17275108349212791443
11719270 70 17989209235673185862
11724838 91 12391509794080383618
11991303 11 13912619272206327232
12120059 9 17346311583951092902
12144603 126 18186805786368581444
12758862 11 18131912663218413601
13761468 95 18114452354899318957
13914758 101 18334577936595130258
13947920 75 18411702062976348809
14251752 14 18409167705690384167
14294032 229 17968937457570933124
14394314 77 18408319991210825578
1454969 45 11024104343491277897
15021287 119 17458352939665506373
15119646 104 17967808328586557866
15183329 4 18410014325253832903
15328829 1 17895474730679668600
15419008 91 17988348343659274648
15439362 3 18125726682853294615
15444296 9 17968094171054515654
15890870 6 18337387125329862581
16087824 20 18264488396011755005
16628084 112 17532644638309719850
16992727 255 18335143047007545477
21756936 100 17749112201804625811
23559900 14 18131064991609594777
24771293 8 11671785996286995690
249057 3 18412826893610375133
3009799 131 18343868814002516304
335352 9 18410853266175496269
38570 142 17894351073336214787
4098825 35 18113335332162206660
4339292 15 17774432911248330527
444769 64 18333737909753707835
4625314 4 10735887161494943138
5085150 59 18060136531140880175
531348 171 18341051912953140959
559249 180 18412545435803062087
563151 40 14634876378601841065
59755656 520 16587747546970178851
6009941 240 18343023298208759327
6126387 218 18410288121588654416
6328613 192 18335421244844405785
6523845 18 15502375651617593201
9689198 14 13262397769521311158
99344 41 18410854352707835062

> <PUBCHEM_SHAPE_MULTIPOLES>
568.12
24.47
2.63
1.2
18.04
0.65
-0.19
-1.06
3.2
-4.66
0.15
1.25
0.19
-1.15

> <PUBCHEM_SHAPE_SELFOVERLAP>
1230.69

> <PUBCHEM_SHAPE_VOLUME>
308.9

> <PUBCHEM_COORDINATE_TYPE>
2
5
10

$$$$
