11911966
  -OEChem-12032416113D

 51 56  0     1  0  0  0  0  0999 V2000
   -2.8906   -1.0585   -0.4082 S   0  0  0  0  0  0  0  0  0  0  0  0
   -0.8936    1.9033   -1.4431 O   0  0  0  0  0  0  0  0  0  0  0  0
    3.2100   -0.7936   -2.4945 O   0  0  0  0  0  0  0  0  0  0  0  0
    0.9739    1.8187   -0.0468 N   0  0  0  0  0  0  0  0  0  0  0  0
    3.7247    0.3597   -0.5510 N   0  0  0  0  0  0  0  0  0  0  0  0
    1.5577   -1.9664   -0.1377 N   0  0  0  0  0  0  0  0  0  0  0  0
    3.3703   -3.9793    0.5898 N   0  0  0  0  0  0  0  0  0  0  0  0
    3.2446    2.7938   -0.7242 C   0  0  2  0  0  0  0  0  0  0  0  0
    2.9985    1.6496    1.4419 C   0  0  2  0  0  0  0  0  0  0  0  0
    3.4707    2.9415    0.7767 C   0  0  0  0  0  0  0  0  0  0  0  0
    1.7391    2.6540   -0.9843 C   0  0  0  0  0  0  0  0  0  0  0  0
    4.0419    1.5947   -1.2707 C   0  0  0  0  0  0  0  0  0  0  0  0
    3.8311    0.4622    0.9149 C   0  0  0  0  0  0  0  0  0  0  0  0
    1.5282    1.3989    1.1660 C   0  0  0  0  0  0  0  0  0  0  0  0
    0.7769    0.7349    2.0592 C   0  0  0  0  0  0  0  0  0  0  0  0
   -0.3657    1.5458   -0.3888 C   0  0  0  0  0  0  0  0  0  0  0  0
    3.2771   -0.7680   -1.2647 C   0  0  0  0  0  0  0  0  0  0  0  0
   -1.1678    0.7717    0.6201 C   0  0  0  0  0  0  0  0  0  0  0  0
   -0.5946    0.4175    1.7791 C   0  0  0  0  0  0  0  0  0  0  0  0
    2.8556   -1.9235   -0.4849 C   0  0  0  0  0  0  0  0  0  0  0  0
   -2.5278    0.4251    0.3572 C   0  0  0  0  0  0  0  0  0  0  0  0
   -3.6716    1.1421    0.6406 C   0  0  0  0  0  0  0  0  0  0  0  0
    3.7482   -2.9056   -0.1319 C   0  0  0  0  0  0  0  0  0  0  0  0
   -4.8733    0.4743    0.2279 C   0  0  0  0  0  0  0  0  0  0  0  0
   -4.5880   -0.7574   -0.3692 C   0  0  0  0  0  0  0  0  0  0  0  0
   -6.2291    0.8679    0.3357 C   0  0  0  0  0  0  0  0  0  0  0  0
    1.1797   -3.0401    0.5838 C   0  0  0  0  0  0  0  0  0  0  0  0
   -5.6112   -1.5951   -0.8550 C   0  0  0  0  0  0  0  0  0  0  0  0
    2.0700   -4.0287    0.9413 C   0  0  0  0  0  0  0  0  0  0  0  0
   -7.2465    0.0394   -0.1452 C   0  0  0  0  0  0  0  0  0  0  0  0
   -6.9384   -1.1787   -0.7340 C   0  0  0  0  0  0  0  0  0  0  0  0
    3.6025    3.6931   -1.2401 H   0  0  0  0  0  0  0  0  0  0  0  0
    3.1653    1.7390    2.5231 H   0  0  0  0  0  0  0  0  0  0  0  0
    2.9186    3.8053    1.1678 H   0  0  0  0  0  0  0  0  0  0  0  0
    4.5326    3.1157    0.9885 H   0  0  0  0  0  0  0  0  0  0  0  0
    1.2798    3.6506   -0.9323 H   0  0  0  0  0  0  0  0  0  0  0  0
    1.5591    2.2919   -2.0044 H   0  0  0  0  0  0  0  0  0  0  0  0
    3.8601    1.4805   -2.3443 H   0  0  0  0  0  0  0  0  0  0  0  0
    5.1168    1.7709   -1.1424 H   0  0  0  0  0  0  0  0  0  0  0  0
    4.8925    0.6144    1.1467 H   0  0  0  0  0  0  0  0  0  0  0  0
    3.5283   -0.4642    1.4091 H   0  0  0  0  0  0  0  0  0  0  0  0
    1.1892    0.3837    2.9995 H   0  0  0  0  0  0  0  0  0  0  0  0
   -1.1348   -0.1377    2.5404 H   0  0  0  0  0  0  0  0  0  0  0  0
   -3.6577    2.1113    1.1256 H   0  0  0  0  0  0  0  0  0  0  0  0
    4.7947   -2.8715   -0.4105 H   0  0  0  0  0  0  0  0  0  0  0  0
   -6.4862    1.8195    0.7945 H   0  0  0  0  0  0  0  0  0  0  0  0
    0.1353   -3.0796    0.8675 H   0  0  0  0  0  0  0  0  0  0  0  0
   -5.3794   -2.5504   -1.3173 H   0  0  0  0  0  0  0  0  0  0  0  0
    1.7655   -4.8908    1.5218 H   0  0  0  0  0  0  0  0  0  0  0  0
   -8.2829    0.3526   -0.0567 H   0  0  0  0  0  0  0  0  0  0  0  0
   -7.7362   -1.8163   -1.1050 H   0  0  0  0  0  0  0  0  0  0  0  0
  1 21  1  0  0  0  0
  1 25  1  0  0  0  0
  2 16  2  0  0  0  0
  3 17  2  0  0  0  0
  4 11  1  0  0  0  0
  4 14  1  0  0  0  0
  4 16  1  0  0  0  0
  5 12  1  0  0  0  0
  5 13  1  0  0  0  0
  5 17  1  0  0  0  0
  6 20  2  0  0  0  0
  6 27  1  0  0  0  0
  7 23  2  0  0  0  0
  7 29  1  0  0  0  0
  8 10  1  0  0  0  0
  8 11  1  0  0  0  0
  8 12  1  0  0  0  0
  8 32  1  0  0  0  0
  9 10  1  0  0  0  0
  9 13  1  0  0  0  0
  9 14  1  0  0  0  0
  9 33  1  0  0  0  0
 10 34  1  0  0  0  0
 10 35  1  0  0  0  0
 11 36  1  0  0  0  0
 11 37  1  0  0  0  0
 12 38  1  0  0  0  0
 12 39  1  0  0  0  0
 13 40  1  0  0  0  0
 13 41  1  0  0  0  0
 14 15  2  0  0  0  0
 15 19  1  0  0  0  0
 15 42  1  0  0  0  0
 16 18  1  0  0  0  0
 17 20  1  0  0  0  0
 18 19  2  0  0  0  0
 18 21  1  0  0  0  0
 19 43  1  0  0  0  0
 20 23  1  0  0  0  0
 21 22  2  0  0  0  0
 22 24  1  0  0  0  0
 22 44  1  0  0  0  0
 23 45  1  0  0  0  0
 24 25  1  0  0  0  0
 24 26  2  0  0  0  0
 25 28  2  0  0  0  0
 26 30  1  0  0  0  0
 26 46  1  0  0  0  0
 27 29  2  0  0  0  0
 27 47  1  0  0  0  0
 28 31  1  0  0  0  0
 28 48  1  0  0  0  0
 29 49  1  0  0  0  0
 30 31  2  0  0  0  0
 30 50  1  0  0  0  0
 31 51  1  0  0  0  0
M  END
> <PUBCHEM_COMPOUND_CID>
11911966

> <PUBCHEM_CONFORMER_RMSD>
0.8

> <PUBCHEM_CONFORMER_DIVERSEORDER>
1
15
20
14
21
5
11
3
18
10
23
7
13
4
8
22
17
16
12
6
19
24
2
9

> <PUBCHEM_MMFF94_PARTIAL_CHARGES>
38
1 -0.08
11 0.3
12 0.3
13 0.3
14 -0.03
15 -0.15
16 0.62
17 0.54
18 0.06
19 -0.15
2 -0.57
20 0.4
21 -0.01
22 -0.15
23 0.16
25 0.04
26 -0.15
27 0.16
28 -0.15
29 0.16
3 -0.57
30 -0.15
31 -0.15
4 -0.47
42 0.15
43 0.15
44 0.15
45 0.15
46 0.15
47 0.15
48 0.15
49 0.15
5 -0.66
50 0.15
51 0.15
6 -0.62
7 -0.62
9 0.14

> <PUBCHEM_EFFECTIVE_ROTOR_COUNT>
4

> <PUBCHEM_PHARMACOPHORE_FEATURES>
10
1 2 acceptor
1 3 acceptor
1 6 acceptor
1 7 acceptor
5 1 21 22 24 25 rings
6 24 25 26 28 30 31 rings
6 4 14 15 16 18 19 rings
6 4 8 9 10 11 14 rings
6 5 8 9 10 12 13 rings
6 6 7 20 23 27 29 rings

> <PUBCHEM_HEAVY_ATOM_COUNT>
31

> <PUBCHEM_ATOM_DEF_STEREO_COUNT>
2

> <PUBCHEM_ATOM_UDEF_STEREO_COUNT>
0

> <PUBCHEM_BOND_DEF_STEREO_COUNT>
0

> <PUBCHEM_BOND_UDEF_STEREO_COUNT>
0

> <PUBCHEM_ISOTOPIC_ATOM_COUNT>
0

> <PUBCHEM_COMPONENT_COUNT>
1

> <PUBCHEM_CACTVS_TAUTO_COUNT>
1

> <PUBCHEM_CONFORMER_ID>
00B5C31E00000001

> <PUBCHEM_MMFF94_ENERGY>
89.4335

> <PUBCHEM_FEATURE_SELFOVERLAP>
52.41

> <PUBCHEM_SHAPE_FINGERPRINT>
10675989 125 18201441449053157169
11135609 149 18116693145862270719
11186622 123 18129653240207426015
11796584 16 17775008994583234925
11963148 33 18053370283583495719
12107183 9 17910117915539295697
12788726 201 17417821604139227569
13150687 139 17897467171295300580
13533116 47 18343021095164836305
1361 2 18335142054363372989
13617811 41 18261670463583399621
14068700 675 18048317739616294602
14347332 77 18339921516310289993
15001296 14 18200870773075581495
15183329 4 18410856582032842397
15250474 111 18272362088666045527
15324115 91 18334581247793668278
15324884 4 17609530415913148304
15664445 248 18337392741870537116
15799311 1 18338811104044902563
17093844 170 18337952419348275640
17138139 8 17701249480509016695
17492 54 18262822725746148022
19026451 147 18270402681319536538
19315092 285 18201434740313383123
19319366 153 18270392905536114502
19958102 18 18409719665698026447
20511986 3 17988634238204376765
20691752 17 18114188509976906329
20775438 99 18335411409343970331
20775530 9 17828774945361849762
21033650 10 16299228978555337173
21285901 2 17676481748622455685
21641784 216 15864346901290418613
23522609 53 17986979439346366049
23559900 14 18260275156624037219
23569914 152 17324043003713885247
238 59 18335719234123526002
239999 70 18060423529655743820
25222932 49 16987141941745953781
27425 322 16951970771853897808
3004659 81 18060143119794025103
338550 245 18267862959782813743
3411729 13 17988635341604601432
34797466 226 16298681538002965543
4073 2 18338800147562056051
4112364 45 14346647175234533708
4340502 62 17916860343741260784
44280117 145 17330840115984151918
444735 86 17914598695836961775
460360 51 18043797694300353369
46194498 28 17894910750176728381
463206 1 18271239529605260563
484989 97 18191886697698343794
513532 50 17917993897443017086
59682541 52 18334569123765363743
70251023 43 18117842096727034003

> <PUBCHEM_SHAPE_MULTIPOLES>
610.15
13.55
4.03
1.54
29.07
3.61
-0.04
1.66
-2.85
-6.52
0.39
-1.32
-0.29
-0.8

> <PUBCHEM_SHAPE_SELFOVERLAP>
1358.35

> <PUBCHEM_SHAPE_VOLUME>
325.3

> <PUBCHEM_COORDINATE_TYPE>
2
5
10

$$$$
