40586258
  -OEChem-12032416173D

 67 71  0     1  0  0  0  0  0999 V2000
   -0.3994    3.1234    0.1065 S   0  0  0  0  0  0  0  0  0  0  0  0
   -7.2558   -0.6106   -0.7134 O   0  0  0  0  0  0  0  0  0  0  0  0
   -7.2907    1.2957    0.7391 O   0  0  0  0  0  0  0  0  0  0  0  0
    0.4163   -2.3626   -1.3529 O   0  0  0  0  0  0  0  0  0  0  0  0
    3.5678    0.6465   -0.0846 O   0  0  0  0  0  0  0  0  0  0  0  0
    4.4273    4.0721   -0.0025 O   0  0  0  0  0  0  0  0  0  0  0  0
    0.5575    0.7230   -0.0159 N   0  0  0  0  0  0  0  0  0  0  0  0
    1.4831   -2.7135    0.7103 N   0  0  0  0  0  0  0  0  0  0  0  0
    2.1532    2.5288    0.0285 N   0  0  0  0  0  0  0  0  0  0  0  0
   -3.0422   -0.5940    0.4058 C   0  0  2  0  0  0  0  0  0  0  0  0
   -3.6733    0.6657   -0.3360 C   0  0  1  0  0  0  0  0  0  0  0  0
   -5.2474    0.7578   -0.3771 C   0  0  1  0  0  0  0  0  0  0  0  0
   -1.5137   -0.7167   -0.0436 C   0  0  1  0  0  0  0  0  0  0  0  0
   -3.7868   -1.8799   -0.0381 C   0  0  0  0  0  0  0  0  0  0  0  0
   -5.8307   -0.6226   -0.7924 C   0  0  1  0  0  0  0  0  0  0  0  0
   -2.9791    1.9888    0.1001 C   0  0  0  0  0  0  0  0  0  0  0  0
   -5.3025   -1.7770    0.0520 C   0  0  0  0  0  0  0  0  0  0  0  0
   -3.1181   -0.4836    1.9484 C   0  0  0  0  0  0  0  0  0  0  0  0
   -0.8209    0.6203    0.0199 C   0  0  0  0  0  0  0  0  0  0  0  0
   -5.8946    1.2573    0.9335 C   0  0  0  0  0  0  0  0  0  0  0  0
   -5.6669    1.7837   -1.4677 C   0  0  0  0  0  0  0  0  0  0  0  0
   -1.4974    1.8222    0.0657 C   0  0  0  0  0  0  0  0  0  0  0  0
   -0.7158   -1.7982    0.6971 C   0  0  0  0  0  0  0  0  0  0  0  0
    0.4439   -2.3186   -0.1274 C   0  0  0  0  0  0  0  0  0  0  0  0
    0.8923    1.9941    0.0325 C   0  0  0  0  0  0  0  0  0  0  0  0
    2.7366   -3.2525    0.3347 C   0  0  0  0  0  0  0  0  0  0  0  0
    3.4015    1.8602   -0.0278 C   0  0  0  0  0  0  0  0  0  0  0  0
    3.6690   -3.5969    1.3131 C   0  0  0  0  0  0  0  0  0  0  0  0
    3.0396   -3.4393   -1.0140 C   0  0  0  0  0  0  0  0  0  0  0  0
    4.6095    2.7261   -0.0442 C   0  0  0  0  0  0  0  0  0  0  0  0
    4.9047   -4.1280    0.9431 C   0  0  0  0  0  0  0  0  0  0  0  0
    4.2751   -3.9704   -1.3841 C   0  0  0  0  0  0  0  0  0  0  0  0
    5.9500    2.4212   -0.0943 C   0  0  0  0  0  0  0  0  0  0  0  0
    5.2076   -4.3147   -0.4056 C   0  0  0  0  0  0  0  0  0  0  0  0
    6.6353    3.6594   -0.0825 C   0  0  0  0  0  0  0  0  0  0  0  0
    5.6648    4.6327   -0.0262 C   0  0  0  0  0  0  0  0  0  0  0  0
   -3.3869    0.5214   -1.3924 H   0  0  0  0  0  0  0  0  0  0  0  0
   -1.5374   -0.9686   -1.1141 H   0  0  0  0  0  0  0  0  0  0  0  0
   -3.4692   -2.7404    0.5616 H   0  0  0  0  0  0  0  0  0  0  0  0
   -3.5222   -2.1172   -1.0771 H   0  0  0  0  0  0  0  0  0  0  0  0
   -5.5756   -0.8154   -1.8430 H   0  0  0  0  0  0  0  0  0  0  0  0
   -3.2827    2.2750    1.1126 H   0  0  0  0  0  0  0  0  0  0  0  0
   -3.2652    2.8040   -0.5729 H   0  0  0  0  0  0  0  0  0  0  0  0
   -5.7476   -2.7163   -0.3008 H   0  0  0  0  0  0  0  0  0  0  0  0
   -5.6345   -1.6808    1.0917 H   0  0  0  0  0  0  0  0  0  0  0  0
   -2.6033    0.4016    2.3321 H   0  0  0  0  0  0  0  0  0  0  0  0
   -2.6561   -1.3521    2.4308 H   0  0  0  0  0  0  0  0  0  0  0  0
   -4.1388   -0.4614    2.3241 H   0  0  0  0  0  0  0  0  0  0  0  0
   -5.5575    2.2648    1.1957 H   0  0  0  0  0  0  0  0  0  0  0  0
   -5.7077    0.5999    1.7787 H   0  0  0  0  0  0  0  0  0  0  0  0
   -6.7450    1.7686   -1.6629 H   0  0  0  0  0  0  0  0  0  0  0  0
   -5.1711    1.5672   -2.4211 H   0  0  0  0  0  0  0  0  0  0  0  0
   -5.4068    2.8089   -1.1844 H   0  0  0  0  0  0  0  0  0  0  0  0
   -1.3318   -2.6786    0.9062 H   0  0  0  0  0  0  0  0  0  0  0  0
   -0.3618   -1.4132    1.6614 H   0  0  0  0  0  0  0  0  0  0  0  0
   -7.5757   -1.4742   -1.0254 H   0  0  0  0  0  0  0  0  0  0  0  0
   -7.6895    1.6203    1.5643 H   0  0  0  0  0  0  0  0  0  0  0  0
    1.3464   -2.6198    1.7143 H   0  0  0  0  0  0  0  0  0  0  0  0
    2.1771    3.5450    0.0681 H   0  0  0  0  0  0  0  0  0  0  0  0
    3.4458   -3.4562    2.3676 H   0  0  0  0  0  0  0  0  0  0  0  0
    2.3711   -3.1968   -1.8279 H   0  0  0  0  0  0  0  0  0  0  0  0
    5.6308   -4.3959    1.7049 H   0  0  0  0  0  0  0  0  0  0  0  0
    4.5125   -4.1162   -2.4340 H   0  0  0  0  0  0  0  0  0  0  0  0
    6.3842    1.4323   -0.1340 H   0  0  0  0  0  0  0  0  0  0  0  0
    6.1698   -4.7281   -0.6938 H   0  0  0  0  0  0  0  0  0  0  0  0
    7.7030    3.8223   -0.1114 H   0  0  0  0  0  0  0  0  0  0  0  0
    5.6894    5.7123    0.0019 H   0  0  0  0  0  0  0  0  0  0  0  0
  1 22  1  0  0  0  0
  1 25  1  0  0  0  0
  2 15  1  0  0  0  0
  2 56  1  0  0  0  0
  3 20  1  0  0  0  0
  3 57  1  0  0  0  0
  4 24  2  0  0  0  0
  5 27  2  0  0  0  0
  6 30  1  0  0  0  0
  6 36  1  0  0  0  0
  7 19  1  0  0  0  0
  7 25  2  0  0  0  0
  8 24  1  0  0  0  0
  8 26  1  0  0  0  0
  8 58  1  0  0  0  0
  9 25  1  0  0  0  0
  9 27  1  0  0  0  0
  9 59  1  0  0  0  0
 10 11  1  0  0  0  0
 10 13  1  0  0  0  0
 10 14  1  0  0  0  0
 10 18  1  0  0  0  0
 11 12  1  0  0  0  0
 11 16  1  0  0  0  0
 11 37  1  0  0  0  0
 12 15  1  0  0  0  0
 12 20  1  0  0  0  0
 12 21  1  0  0  0  0
 13 19  1  0  0  0  0
 13 23  1  0  0  0  0
 13 38  1  0  0  0  0
 14 17  1  0  0  0  0
 14 39  1  0  0  0  0
 14 40  1  0  0  0  0
 15 17  1  0  0  0  0
 15 41  1  0  0  0  0
 16 22  1  0  0  0  0
 16 42  1  0  0  0  0
 16 43  1  0  0  0  0
 17 44  1  0  0  0  0
 17 45  1  0  0  0  0
 18 46  1  0  0  0  0
 18 47  1  0  0  0  0
 18 48  1  0  0  0  0
 19 22  2  0  0  0  0
 20 49  1  0  0  0  0
 20 50  1  0  0  0  0
 21 51  1  0  0  0  0
 21 52  1  0  0  0  0
 21 53  1  0  0  0  0
 23 24  1  0  0  0  0
 23 54  1  0  0  0  0
 23 55  1  0  0  0  0
 26 28  2  0  0  0  0
 26 29  1  0  0  0  0
 27 30  1  0  0  0  0
 28 31  1  0  0  0  0
 28 60  1  0  0  0  0
 29 32  2  0  0  0  0
 29 61  1  0  0  0  0
 30 33  2  0  0  0  0
 31 34  2  0  0  0  0
 31 62  1  0  0  0  0
 32 34  1  0  0  0  0
 32 63  1  0  0  0  0
 33 35  1  0  0  0  0
 33 64  1  0  0  0  0
 34 65  1  0  0  0  0
 35 36  2  0  0  0  0
 35 66  1  0  0  0  0
 36 67  1  0  0  0  0
M  END
> <PUBCHEM_COMPOUND_CID>
40586258

> <PUBCHEM_CONFORMER_RMSD>
1

> <PUBCHEM_CONFORMER_DIVERSEORDER>
1
21
14
6
11
5
20
26
24
18
25
10
27
19
17
23
15
7
3
16
9
2
13
22
4
8
12

> <PUBCHEM_MMFF94_PARTIAL_CHARGES>
41
1 -0.08
13 0.18
15 0.28
16 0.18
19 0.05
2 -0.68
20 0.28
22 -0.14
23 0.06
24 0.57
25 0.44
26 0.12
27 0.71
28 -0.15
29 -0.15
3 -0.68
30 0.05
31 -0.15
32 -0.15
33 -0.15
34 -0.15
35 -0.15
36 -0.01
4 -0.57
5 -0.57
56 0.4
57 0.4
58 0.37
59 0.37
6 -0.28
60 0.15
61 0.15
62 0.15
63 0.15
64 0.15
65 0.15
66 0.15
67 0.15
7 -0.57
8 -0.55
9 -0.49

> <PUBCHEM_EFFECTIVE_ROTOR_COUNT>
9.2

> <PUBCHEM_PHARMACOPHORE_FEATURES>
14
1 2 acceptor
1 2 donor
1 3 acceptor
1 3 donor
1 4 acceptor
1 5 acceptor
1 6 acceptor
1 8 donor
1 9 donor
5 1 7 19 22 25 rings
5 6 30 33 35 36 rings
6 10 11 12 14 15 17 rings
6 10 11 13 16 19 22 rings
6 26 28 29 31 32 34 rings

> <PUBCHEM_HEAVY_ATOM_COUNT>
36

> <PUBCHEM_ATOM_DEF_STEREO_COUNT>
5

> <PUBCHEM_ATOM_UDEF_STEREO_COUNT>
0

> <PUBCHEM_BOND_DEF_STEREO_COUNT>
0

> <PUBCHEM_BOND_UDEF_STEREO_COUNT>
0

> <PUBCHEM_ISOTOPIC_ATOM_COUNT>
0

> <PUBCHEM_COMPONENT_COUNT>
1

> <PUBCHEM_CACTVS_TAUTO_COUNT>
6

> <PUBCHEM_CONFORMER_ID>
026B4C1200000001

> <PUBCHEM_MMFF94_ENERGY>
108.3349

> <PUBCHEM_FEATURE_SELFOVERLAP>
71.195

> <PUBCHEM_SHAPE_FINGERPRINT>
10050765 1 18338233770098476021
10290309 65 18266467692723511912
11135926 11 18410284852296038069
11136131 41 18334565885423839650
11578080 2 17097464585151326911
11719270 70 18339354271352727536
12788726 201 17756425959389011915
12857493 111 18122899828935541932
12977781 61 17823154439125074035
13540713 4 18187089451536052507
14068700 675 18194680367417340563
14790565 3 18120938575174724892
15001296 14 18409445873548032331
15200665 1 17763744695208881834
15347591 1 18410855439808535021
15400415 2 18122062272169909812
15439362 3 18409167714180053121
15927050 60 18268709592289686814
16067689 302 18338799026855861519
16719943 64 18049440637493263488
167882 2 18410572885761292146
17627616 140 18339078293490985630
20554085 129 17987506173808168608
20721686 56 18336267843107591802
20771845 165 18114734941835099005
21133665 82 18194123156864319628
21344244 246 18410567423164382519
21360443 120 18336266851033267804
21781055 127 16558202489022706971
22311459 1 18122063367406753371
23559900 14 18337946775714120331
244849 19 17895495681772777467
249999 5 18411135840500115840
3411729 13 18409447007524588242
4017518 198 18197787798727495620
4073 2 18336551628834151619
5171179 24 18191584155658619692
5265222 85 17976264856946513332
5385378 56 18410581703466664881
5776283 40 18265913496540824004
6669772 16 18340208591591668974
99344 41 18411133671447082000

> <PUBCHEM_SHAPE_MULTIPOLES>
700.42
17.27
6.84
1.09
8.92
1.16
0.07
-6.03
-1.33
-18.58
-0.27
0.46
0.71
0.12

> <PUBCHEM_SHAPE_SELFOVERLAP>
1504.121

> <PUBCHEM_SHAPE_VOLUME>
388.4

> <PUBCHEM_COORDINATE_TYPE>
2
5
10

$$$$
