75536297
  -OEChem-12032416303D

 55 57  0     1  0  0  0  0  0999 V2000
   -2.4418   -1.0957    0.7775 O   0  0  0  0  0  0  0  0  0  0  0  0
   -4.2964   -3.3844    0.8799 O   0  0  0  0  0  0  0  0  0  0  0  0
   -0.1409    2.6649    1.3345 O   0  0  0  0  0  0  0  0  0  0  0  0
    3.5348   -3.2799   -0.1495 O   0  0  0  0  0  0  0  0  0  0  0  0
    0.1234    5.5136   -0.4906 O   0  0  0  0  0  0  0  0  0  0  0  0
    0.1709   -1.7831   -0.1280 N   0  0  0  0  0  0  0  0  0  0  0  0
   -1.2001    1.8055    1.5997 N   0  0  0  0  0  0  0  0  0  0  0  0
   -2.1584   -2.4233    0.3166 C   0  0  1  0  0  0  0  0  0  0  0  0
   -3.4217   -3.1104   -0.2178 C   0  0  2  0  0  0  0  0  0  0  0  0
   -3.0632   -0.2382   -0.1830 C   0  0  1  0  0  0  0  0  0  0  0  0
   -4.1820   -2.2371   -1.2122 C   0  0  0  0  0  0  0  0  0  0  0  0
   -4.3893   -0.8311   -0.6565 C   0  0  0  0  0  0  0  0  0  0  0  0
   -1.0089   -2.4230   -0.6890 C   0  0  0  0  0  0  0  0  0  0  0  0
   -3.2810    1.1147    0.4836 C   0  0  0  0  0  0  0  0  0  0  0  0
   -2.0097    1.9182    0.5429 C   0  0  0  0  0  0  0  0  0  0  0  0
    1.2730   -1.7905   -1.0814 C   0  0  0  0  0  0  0  0  0  0  0  0
   -1.5180    2.8252   -0.4117 C   0  0  0  0  0  0  0  0  0  0  0  0
    2.5091   -1.1442   -0.5147 C   0  0  0  0  0  0  0  0  0  0  0  0
   -0.3415    3.2663    0.1340 C   0  0  0  0  0  0  0  0  0  0  0  0
    3.5817   -1.9201   -0.0756 C   0  0  0  0  0  0  0  0  0  0  0  0
    2.5740    0.2466   -0.4310 C   0  0  0  0  0  0  0  0  0  0  0  0
    0.6902    4.2136   -0.3049 C   0  0  0  0  0  0  0  0  0  0  0  0
    4.7193   -1.3053    0.4472 C   0  0  0  0  0  0  0  0  0  0  0  0
    3.7116    0.8615    0.0919 C   0  0  0  0  0  0  0  0  0  0  0  0
    4.7843    0.0857    0.5310 C   0  0  0  0  0  0  0  0  0  0  0  0
    4.6759   -3.9938    0.3220 C   0  0  0  0  0  0  0  0  0  0  0  0
    1.1048    6.4448   -0.9152 C   0  0  0  0  0  0  0  0  0  0  0  0
   -1.8302   -2.9709    1.2099 H   0  0  0  0  0  0  0  0  0  0  0  0
   -3.1684   -4.0748   -0.6719 H   0  0  0  0  0  0  0  0  0  0  0  0
   -2.3972   -0.1122   -1.0450 H   0  0  0  0  0  0  0  0  0  0  0  0
   -5.1598   -2.6764   -1.4416 H   0  0  0  0  0  0  0  0  0  0  0  0
   -3.6244   -2.1756   -2.1540 H   0  0  0  0  0  0  0  0  0  0  0  0
   -4.8456   -0.1935   -1.4222 H   0  0  0  0  0  0  0  0  0  0  0  0
   -5.0922   -0.8845    0.1846 H   0  0  0  0  0  0  0  0  0  0  0  0
   -1.2984   -1.9113   -1.6131 H   0  0  0  0  0  0  0  0  0  0  0  0
   -0.7763   -3.4618   -0.9542 H   0  0  0  0  0  0  0  0  0  0  0  0
   -3.6766    0.9876    1.4996 H   0  0  0  0  0  0  0  0  0  0  0  0
   -4.0187    1.7007   -0.0794 H   0  0  0  0  0  0  0  0  0  0  0  0
   -0.0580   -0.8232    0.1302 H   0  0  0  0  0  0  0  0  0  0  0  0
   -5.0679   -3.8612    0.5290 H   0  0  0  0  0  0  0  0  0  0  0  0
    0.9909   -1.2482   -1.9942 H   0  0  0  0  0  0  0  0  0  0  0  0
    1.4917   -2.8165   -1.4005 H   0  0  0  0  0  0  0  0  0  0  0  0
   -1.9522    3.1153   -1.3570 H   0  0  0  0  0  0  0  0  0  0  0  0
    1.7460    0.8627   -0.7712 H   0  0  0  0  0  0  0  0  0  0  0  0
    1.4958    4.2750    0.4365 H   0  0  0  0  0  0  0  0  0  0  0  0
    1.1220    3.8684   -1.2518 H   0  0  0  0  0  0  0  0  0  0  0  0
    5.5901   -1.8418    0.8076 H   0  0  0  0  0  0  0  0  0  0  0  0
    3.7614    1.9445    0.1571 H   0  0  0  0  0  0  0  0  0  0  0  0
    5.6696    0.5657    0.9381 H   0  0  0  0  0  0  0  0  0  0  0  0
    4.8375   -3.8349    1.3936 H   0  0  0  0  0  0  0  0  0  0  0  0
    5.5675   -3.7690   -0.2732 H   0  0  0  0  0  0  0  0  0  0  0  0
    4.4660   -5.0602    0.1880 H   0  0  0  0  0  0  0  0  0  0  0  0
    0.6236    7.4179   -1.0452 H   0  0  0  0  0  0  0  0  0  0  0  0
    1.5364    6.1398   -1.8735 H   0  0  0  0  0  0  0  0  0  0  0  0
    1.8926    6.5448   -0.1622 H   0  0  0  0  0  0  0  0  0  0  0  0
  1  8  1  0  0  0  0
  1 10  1  0  0  0  0
  2  9  1  0  0  0  0
  2 40  1  0  0  0  0
  3  7  1  0  0  0  0
  3 19  1  0  0  0  0
  4 20  1  0  0  0  0
  4 26  1  0  0  0  0
  5 22  1  0  0  0  0
  5 27  1  0  0  0  0
  6 13  1  0  0  0  0
  6 16  1  0  0  0  0
  6 39  1  0  0  0  0
  7 15  2  0  0  0  0
  8  9  1  0  0  0  0
  8 13  1  0  0  0  0
  8 28  1  0  0  0  0
  9 11  1  0  0  0  0
  9 29  1  0  0  0  0
 10 12  1  0  0  0  0
 10 14  1  0  0  0  0
 10 30  1  0  0  0  0
 11 12  1  0  0  0  0
 11 31  1  0  0  0  0
 11 32  1  0  0  0  0
 12 33  1  0  0  0  0
 12 34  1  0  0  0  0
 13 35  1  0  0  0  0
 13 36  1  0  0  0  0
 14 15  1  0  0  0  0
 14 37  1  0  0  0  0
 14 38  1  0  0  0  0
 15 17  1  0  0  0  0
 16 18  1  0  0  0  0
 16 41  1  0  0  0  0
 16 42  1  0  0  0  0
 17 19  2  0  0  0  0
 17 43  1  0  0  0  0
 18 20  1  0  0  0  0
 18 21  2  0  0  0  0
 19 22  1  0  0  0  0
 20 23  2  0  0  0  0
 21 24  1  0  0  0  0
 21 44  1  0  0  0  0
 22 45  1  0  0  0  0
 22 46  1  0  0  0  0
 23 25  1  0  0  0  0
 23 47  1  0  0  0  0
 24 25  2  0  0  0  0
 24 48  1  0  0  0  0
 25 49  1  0  0  0  0
 26 50  1  0  0  0  0
 26 51  1  0  0  0  0
 26 52  1  0  0  0  0
 27 53  1  0  0  0  0
 27 54  1  0  0  0  0
 27 55  1  0  0  0  0
M  END
> <PUBCHEM_COMPOUND_CID>
75536297

> <PUBCHEM_CONFORMER_RMSD>
1

> <PUBCHEM_CONFORMER_DIVERSEORDER>
2
13
133
47
92
135
144
48
26
60
72
54
138
49
16
97
33
90
112
77
128
86
30
126
56
71
111
62
134
132
50
85
102
108
70
113
15
131
82
106
84
89
61
65
147
93
142
103
74
121
149
109
9
27
145
96
117
44
36
123
76
130
20
39
110
101
63
94
28
124
100
46
99
136
120
91
114
139
87
66
19
141
73
29
129
148
25
10
119
116
107
45
35
57
7
78
23
80
104
1
118
58
42
125
34
52
140
17
22
64
137
105
31
43
53
115
51
127
150
79
11
146
95
75
32
6
21
18
122
41
69
12
40
55
143
83
14
24
3
38
4
5
8
68
81
37
88
59
98
67

> <PUBCHEM_MMFF94_PARTIAL_CHARGES>
32
1 -0.56
10 0.28
13 0.27
14 0.18
15 0.11
16 0.41
17 -0.15
18 -0.14
19 -0.04
2 -0.68
20 0.08
21 -0.15
22 0.46
23 -0.15
24 -0.15
25 -0.15
26 0.28
27 0.28
3 -0.02
39 0.36
4 -0.36
40 0.4
43 0.15
44 0.15
47 0.15
48 0.15
49 0.15
5 -0.56
6 -0.9
7 -0.41
8 0.28
9 0.28

> <PUBCHEM_EFFECTIVE_ROTOR_COUNT>
10.2

> <PUBCHEM_PHARMACOPHORE_FEATURES>
11
1 1 acceptor
1 2 acceptor
1 2 donor
1 4 acceptor
1 5 acceptor
1 6 cation
1 6 donor
1 7 acceptor
5 3 7 15 17 19 rings
6 1 8 9 10 11 12 rings
6 18 20 21 23 24 25 rings

> <PUBCHEM_HEAVY_ATOM_COUNT>
27

> <PUBCHEM_ATOM_DEF_STEREO_COUNT>
3

> <PUBCHEM_ATOM_UDEF_STEREO_COUNT>
0

> <PUBCHEM_BOND_DEF_STEREO_COUNT>
0

> <PUBCHEM_BOND_UDEF_STEREO_COUNT>
0

> <PUBCHEM_ISOTOPIC_ATOM_COUNT>
0

> <PUBCHEM_COMPONENT_COUNT>
1

> <PUBCHEM_CACTVS_TAUTO_COUNT>
1

> <PUBCHEM_CONFORMER_ID>
048097A900000002

> <PUBCHEM_MMFF94_ENERGY>
60.231

> <PUBCHEM_FEATURE_SELFOVERLAP>
55.824

> <PUBCHEM_SHAPE_FINGERPRINT>
10256941 240 17541631952230298808
10670039 82 18340220656587326822
11370993 70 17618219507977150492
12107183 9 17834392316066993122
12633257 1 17913219667341162802
138480 1 15096206817315256725
14117953 113 18051981316195887597
14725015 67 17979066094397677897
15420108 30 17038371100108302402
15927050 60 16971682992605764014
15961568 22 18412828019097197532
167882 2 17906164406574480159
17492 89 18411702058661139506
17627616 140 17401484244198433532
19930381 70 17978789335385079643
23559900 14 18194391419555964633
4280585 95 18336811074539109584
469060 322 18339369668435463706
508706 21 17836933295843322070
9981440 41 17255964468424892897

> <PUBCHEM_SHAPE_MULTIPOLES>
516.34
9.29
7.97
1.02
5.11
13.69
0.08
-11.18
0.51
0.48
-1.59
-0.41
0.18
-0.65

> <PUBCHEM_SHAPE_SELFOVERLAP>
1072.955

> <PUBCHEM_SHAPE_VOLUME>
295.1

> <PUBCHEM_COORDINATE_TYPE>
2
5
10

$$$$
