38027918
  -OEChem-12032416263D

 65 66  0     1  0  0  0  0  0999 V2000
   -1.8084    2.8269   -0.3861 O   0  0  0  0  0  0  0  0  0  0  0  0
    2.8901   -2.9096   -0.8311 O   0  0  0  0  0  0  0  0  0  0  0  0
   -2.9994    0.9770    0.3585 N   0  0  0  0  0  0  0  0  0  0  0  0
    2.9706   -1.3441    0.8842 N   0  0  0  0  0  0  0  0  0  0  0  0
   -5.1011   -0.9139   -0.1061 N   0  0  0  0  0  0  0  0  0  0  0  0
    1.6821   -3.2500    1.1204 N   0  0  0  0  0  0  0  0  0  0  0  0
    1.9982    0.8828   -0.8876 C   0  0  1  0  0  0  0  0  0  0  0  0
    3.1936    0.9530    0.0954 C   0  0  1  0  0  0  0  0  0  0  0  0
    1.0944    2.1140   -0.7215 C   0  0  0  0  0  0  0  0  0  0  0  0
    0.5417    2.2420    0.7107 C   0  0  2  0  0  0  0  0  0  0  0  0
    2.4643    0.7741   -2.3428 C   0  0  0  0  0  0  0  0  0  0  0  0
    1.6264    2.0535    1.7517 C   0  0  0  0  0  0  0  0  0  0  0  0
    2.8100    1.4878    1.4553 C   0  0  0  0  0  0  0  0  0  0  0  0
   -0.6183    1.2678    0.9442 C   0  0  0  0  0  0  0  0  0  0  0  0
    3.8596   -0.4183    0.2553 C   0  0  0  0  0  0  0  0  0  0  0  0
    1.3841    0.1223   -3.2002 C   0  0  0  0  0  0  0  0  0  0  0  0
    2.8305    2.1505   -2.8883 C   0  0  0  0  0  0  0  0  0  0  0  0
    1.3368    2.5721    3.1328 C   0  0  0  0  0  0  0  0  0  0  0  0
   -1.8570    1.7679    0.2448 C   0  0  0  0  0  0  0  0  0  0  0  0
   -4.2401    1.3909   -0.2951 C   0  0  0  0  0  0  0  0  0  0  0  0
   -3.1262   -0.2124    1.2060 C   0  0  0  0  0  0  0  0  0  0  0  0
   -4.9023    0.2200   -1.0205 C   0  0  0  0  0  0  0  0  0  0  0  0
   -3.8151   -1.3533    0.4551 C   0  0  0  0  0  0  0  0  0  0  0  0
    2.5435   -2.5381    0.2894 C   0  0  0  0  0  0  0  0  0  0  0  0
   -5.7651   -2.0193   -0.7957 C   0  0  0  0  0  0  0  0  0  0  0  0
    1.0995   -4.5161    0.7431 C   0  0  0  0  0  0  0  0  0  0  0  0
   -0.0927   -4.3274   -0.1719 C   0  0  0  0  0  0  0  0  0  0  0  0
    1.4032   -0.0077   -0.6542 H   0  0  0  0  0  0  0  0  0  0  0  0
    3.9531    1.6394   -0.2994 H   0  0  0  0  0  0  0  0  0  0  0  0
    0.2804    2.0996   -1.4519 H   0  0  0  0  0  0  0  0  0  0  0  0
    1.6610    3.0366   -0.9025 H   0  0  0  0  0  0  0  0  0  0  0  0
    0.1852    3.2760    0.8213 H   0  0  0  0  0  0  0  0  0  0  0  0
    3.3505    0.1351   -2.4132 H   0  0  0  0  0  0  0  0  0  0  0  0
    3.5696    1.4209    2.2319 H   0  0  0  0  0  0  0  0  0  0  0  0
   -0.8564    1.2043    2.0117 H   0  0  0  0  0  0  0  0  0  0  0  0
   -0.3768    0.2620    0.5875 H   0  0  0  0  0  0  0  0  0  0  0  0
    4.7391   -0.3376    0.9055 H   0  0  0  0  0  0  0  0  0  0  0  0
    4.2138   -0.8153   -0.6998 H   0  0  0  0  0  0  0  0  0  0  0  0
    0.4611    0.7096   -3.2256 H   0  0  0  0  0  0  0  0  0  0  0  0
    1.1393   -0.8783   -2.8274 H   0  0  0  0  0  0  0  0  0  0  0  0
    1.7315    0.0114   -4.2333 H   0  0  0  0  0  0  0  0  0  0  0  0
    1.9578    2.7824   -3.0838 H   0  0  0  0  0  0  0  0  0  0  0  0
    3.3337    2.0313   -3.8560 H   0  0  0  0  0  0  0  0  0  0  0  0
    3.5294    2.6894   -2.2419 H   0  0  0  0  0  0  0  0  0  0  0  0
    1.0571    3.6298    3.0910 H   0  0  0  0  0  0  0  0  0  0  0  0
    2.2072    2.4906    3.7929 H   0  0  0  0  0  0  0  0  0  0  0  0
    0.5202    2.0138    3.5992 H   0  0  0  0  0  0  0  0  0  0  0  0
    2.6803   -1.1640    1.8406 H   0  0  0  0  0  0  0  0  0  0  0  0
   -4.0511    2.2045   -1.0030 H   0  0  0  0  0  0  0  0  0  0  0  0
   -4.9019    1.7844    0.4862 H   0  0  0  0  0  0  0  0  0  0  0  0
   -3.7185    0.0817    2.0813 H   0  0  0  0  0  0  0  0  0  0  0  0
   -2.1592   -0.5592    1.5747 H   0  0  0  0  0  0  0  0  0  0  0  0
   -5.8680    0.5584   -1.4144 H   0  0  0  0  0  0  0  0  0  0  0  0
   -4.2823   -0.0787   -1.8764 H   0  0  0  0  0  0  0  0  0  0  0  0
   -3.1520   -1.7191   -0.3405 H   0  0  0  0  0  0  0  0  0  0  0  0
   -3.9757   -2.1809    1.1564 H   0  0  0  0  0  0  0  0  0  0  0  0
   -5.9515   -2.8477   -0.1032 H   0  0  0  0  0  0  0  0  0  0  0  0
   -5.1736   -2.3992   -1.6366 H   0  0  0  0  0  0  0  0  0  0  0  0
   -6.7424   -1.7029   -1.1767 H   0  0  0  0  0  0  0  0  0  0  0  0
    1.4408   -2.8568    2.0249 H   0  0  0  0  0  0  0  0  0  0  0  0
    1.8633   -5.1233    0.2459 H   0  0  0  0  0  0  0  0  0  0  0  0
    0.7969   -5.0259    1.6630 H   0  0  0  0  0  0  0  0  0  0  0  0
   -0.8620   -3.7136    0.3090 H   0  0  0  0  0  0  0  0  0  0  0  0
    0.1942   -3.8286   -1.1035 H   0  0  0  0  0  0  0  0  0  0  0  0
   -0.5358   -5.2951   -0.4262 H   0  0  0  0  0  0  0  0  0  0  0  0
  1 19  2  0  0  0  0
  2 24  2  0  0  0  0
  3 19  1  0  0  0  0
  3 20  1  0  0  0  0
  3 21  1  0  0  0  0
  4 15  1  0  0  0  0
  4 24  1  0  0  0  0
  4 48  1  0  0  0  0
  5 22  1  0  0  0  0
  5 23  1  0  0  0  0
  5 25  1  0  0  0  0
  6 24  1  0  0  0  0
  6 26  1  0  0  0  0
  6 60  1  0  0  0  0
  7  8  1  0  0  0  0
  7  9  1  0  0  0  0
  7 11  1  0  0  0  0
  7 28  1  0  0  0  0
  8 13  1  0  0  0  0
  8 15  1  0  0  0  0
  8 29  1  0  0  0  0
  9 10  1  0  0  0  0
  9 30  1  0  0  0  0
  9 31  1  0  0  0  0
 10 12  1  0  0  0  0
 10 14  1  0  0  0  0
 10 32  1  0  0  0  0
 11 16  1  0  0  0  0
 11 17  1  0  0  0  0
 11 33  1  0  0  0  0
 12 13  2  0  0  0  0
 12 18  1  0  0  0  0
 13 34  1  0  0  0  0
 14 19  1  0  0  0  0
 14 35  1  0  0  0  0
 14 36  1  0  0  0  0
 15 37  1  0  0  0  0
 15 38  1  0  0  0  0
 16 39  1  0  0  0  0
 16 40  1  0  0  0  0
 16 41  1  0  0  0  0
 17 42  1  0  0  0  0
 17 43  1  0  0  0  0
 17 44  1  0  0  0  0
 18 45  1  0  0  0  0
 18 46  1  0  0  0  0
 18 47  1  0  0  0  0
 20 22  1  0  0  0  0
 20 49  1  0  0  0  0
 20 50  1  0  0  0  0
 21 23  1  0  0  0  0
 21 51  1  0  0  0  0
 21 52  1  0  0  0  0
 22 53  1  0  0  0  0
 22 54  1  0  0  0  0
 23 55  1  0  0  0  0
 23 56  1  0  0  0  0
 25 57  1  0  0  0  0
 25 58  1  0  0  0  0
 25 59  1  0  0  0  0
 26 27  1  0  0  0  0
 26 61  1  0  0  0  0
 26 62  1  0  0  0  0
 27 63  1  0  0  0  0
 27 64  1  0  0  0  0
 27 65  1  0  0  0  0
M  END
> <PUBCHEM_COMPOUND_CID>
38027918

> <PUBCHEM_CONFORMER_RMSD>
1

> <PUBCHEM_CONFORMER_DIVERSEORDER>
1
141
128
104
103
159
53
130
96
91
81
140
156
155
154
40
50
88
59
39
27
47
20
152
37
143
127
9
55
89
86
145
122
58
132
51
157
7
125
109
133
4
77
61
15
71
110
148
101
129
120
54
97
136
66
131
41
31
56
45
149
83
76
121
28
119
43
114
153
147
21
34
116
95
160
13
52
63
23
105
73
57
75
12
98
26
94
144
108
85
16
72
25
126
134
78
19
38
135
92
64
24
106
117
48
33
29
124
35
93
82
137
102
3
60
111
118
142
44
113
68
32
74
90
49
115
18
69
158
36
6
79
80
150
65
146
62
99
8
2
139
70
100
151
14
10
42
84
22
138
123
5
87
46
30
11
17
112
107
67

> <PUBCHEM_MMFF94_PARTIAL_CHARGES>
24
1 -0.57
10 0.14
12 -0.28
13 -0.29
14 0.06
15 0.3
18 0.14
19 0.57
2 -0.57
20 0.3
21 0.3
22 0.27
23 0.27
24 0.69
25 0.27
26 0.3
3 -0.66
34 0.15
4 -0.73
48 0.37
5 -0.81
6 -0.73
60 0.37
8 0.14

> <PUBCHEM_EFFECTIVE_ROTOR_COUNT>
11

> <PUBCHEM_PHARMACOPHORE_FEATURES>
8
1 1 acceptor
1 2 acceptor
1 4 donor
1 5 cation
1 6 donor
3 11 16 17 hydrophobe
6 3 5 20 21 22 23 rings
6 7 8 9 10 12 13 rings

> <PUBCHEM_HEAVY_ATOM_COUNT>
27

> <PUBCHEM_ATOM_DEF_STEREO_COUNT>
3

> <PUBCHEM_ATOM_UDEF_STEREO_COUNT>
0

> <PUBCHEM_BOND_DEF_STEREO_COUNT>
0

> <PUBCHEM_BOND_UDEF_STEREO_COUNT>
0

> <PUBCHEM_ISOTOPIC_ATOM_COUNT>
0

> <PUBCHEM_COMPONENT_COUNT>
1

> <PUBCHEM_CACTVS_TAUTO_COUNT>
3

> <PUBCHEM_CONFORMER_ID>
0244428E00000001

> <PUBCHEM_MMFF94_ENERGY>
45.5576

> <PUBCHEM_FEATURE_SELFOVERLAP>
40.642

> <PUBCHEM_SHAPE_FINGERPRINT>
10064457 181 18336822121542718902
114674 6 18270673281069269355
12156800 1 17472142155792417284
12969540 37 18121208780452390370
13122387 1 18122343471777765651
13150687 139 17825125937326961796
13583140 156 18128797725460609173
14863182 85 18335138713200238912
16114785 44 15831105701176551800
18681886 176 18042123322754024612
20764821 26 17544194234939570703
20775530 9 18047195141763608915
21304303 282 16307408632170459036
23559900 14 18334568011010390989
238 59 18188790451215225146
25222932 49 17987222508076188591
3052486 1 17831583450251126362
35225 105 17903090158672564047
46194498 28 17458349628234762397
463206 1 18412262861240974731
6433294 58 18340760468935193867
6823239 73 17059793142670815732
9896288 288 17341525242853573810

> <PUBCHEM_SHAPE_MULTIPOLES>
523.98
9
4.92
2.49
15.61
7.02
-1.13
1.57
-2.08
-2.08
1.49
-2.75
-1.82
-0.4

> <PUBCHEM_SHAPE_SELFOVERLAP>
1048.463

> <PUBCHEM_SHAPE_VOLUME>
308

> <PUBCHEM_COORDINATE_TYPE>
2
5
10

$$$$
