11913371
  -OEChem-12032416383D

 64 68  0     1  0  0  0  0  0999 V2000
    4.1988   -2.9393    2.7446 F   0  0  0  0  0  0  0  0  0  0  0  0
    0.4413    1.6696    2.0618 O   0  0  0  0  0  0  0  0  0  0  0  0
   -0.8070    3.7145    0.0626 O   0  0  0  0  0  0  0  0  0  0  0  0
   -4.5574    1.6023    0.7425 O   0  0  0  0  0  0  0  0  0  0  0  0
   -6.7869    0.3857   -0.8042 O   0  0  0  0  0  0  0  0  0  0  0  0
   -7.0550   -1.8570   -0.5236 O   0  0  0  0  0  0  0  0  0  0  0  0
   -2.5191    0.8575    1.5754 N   0  0  0  0  0  0  0  0  0  0  0  0
    1.5588    2.3095   -1.3544 N   0  0  0  0  0  0  0  0  0  0  0  0
    3.1709    0.7386   -0.7841 N   0  0  0  0  0  0  0  0  0  0  0  0
    2.5882    1.1534   -3.0853 N   0  0  0  0  0  0  0  0  0  0  0  0
   -4.0446   -1.5339   -0.0248 C   0  0  0  0  0  0  0  0  0  0  0  0
   -1.0312    2.3164    0.3091 C   0  0  1  0  0  0  0  0  0  0  0  0
    0.3133    1.6935    0.6301 C   0  0  1  0  0  0  0  0  0  0  0  0
   -1.8356    2.1282    1.5751 C   0  0  2  0  0  0  0  0  0  0  0  0
   -4.3487   -3.0268    0.1623 C   0  0  0  0  0  0  0  0  0  0  0  0
   -2.5560   -1.5647   -0.3976 C   0  0  0  0  0  0  0  0  0  0  0  0
    1.3165    2.6502    0.0304 C   0  0  2  0  0  0  0  0  0  0  0  0
   -4.2866   -0.7442    1.2631 C   0  0  0  0  0  0  0  0  0  0  0  0
   -3.5466   -3.7347   -0.9272 C   0  0  0  0  0  0  0  0  0  0  0  0
   -2.3946   -2.7962   -1.2860 C   0  0  0  0  0  0  0  0  0  0  0  0
   -0.7650    2.1776    2.6505 C   0  0  0  0  0  0  0  0  0  0  0  0
   -4.8912   -0.9293   -1.1567 C   0  0  0  0  0  0  0  0  0  0  0  0
    0.6011    3.9854    0.1252 C   0  0  0  0  0  0  0  0  0  0  0  0
   -3.8337    0.7003    1.1555 C   0  0  0  0  0  0  0  0  0  0  0  0
   -6.3467   -0.8987   -0.7932 C   0  0  0  0  0  0  0  0  0  0  0  0
    2.4793    1.3590   -1.7589 C   0  0  0  0  0  0  0  0  0  0  0  0
    4.0594   -0.1814   -1.2137 C   0  0  0  0  0  0  0  0  0  0  0  0
    3.4946    0.2207   -3.4442 C   0  0  0  0  0  0  0  0  0  0  0  0
    4.2658   -0.4853   -2.5438 C   0  0  0  0  0  0  0  0  0  0  0  0
    4.8020   -0.8494   -0.1719 C   0  0  0  0  0  0  0  0  0  0  0  0
    4.1281   -1.5861    0.8023 C   0  0  0  0  0  0  0  0  0  0  0  0
    6.1934   -0.7585   -0.1391 C   0  0  0  0  0  0  0  0  0  0  0  0
    4.8457   -2.2318    1.8090 C   0  0  0  0  0  0  0  0  0  0  0  0
    6.9112   -1.4042    0.8677 C   0  0  0  0  0  0  0  0  0  0  0  0
    6.2372   -2.1408    1.8417 C   0  0  0  0  0  0  0  0  0  0  0  0
   -1.4953    1.8957   -0.5888 H   0  0  0  0  0  0  0  0  0  0  0  0
    0.3950    0.6593    0.2804 H   0  0  0  0  0  0  0  0  0  0  0  0
   -2.5737    2.9226    1.7298 H   0  0  0  0  0  0  0  0  0  0  0  0
   -3.9686   -3.3630    1.1368 H   0  0  0  0  0  0  0  0  0  0  0  0
   -5.3993   -3.3149    0.1342 H   0  0  0  0  0  0  0  0  0  0  0  0
   -2.2131   -0.6590   -0.9082 H   0  0  0  0  0  0  0  0  0  0  0  0
   -1.9321   -1.7053    0.4937 H   0  0  0  0  0  0  0  0  0  0  0  0
    2.2587    2.7092    0.5874 H   0  0  0  0  0  0  0  0  0  0  0  0
   -5.3408   -0.7473    1.5638 H   0  0  0  0  0  0  0  0  0  0  0  0
   -3.7556   -1.2161    2.1011 H   0  0  0  0  0  0  0  0  0  0  0  0
   -3.1829   -4.7083   -0.5829 H   0  0  0  0  0  0  0  0  0  0  0  0
   -4.1712   -3.9133   -1.8099 H   0  0  0  0  0  0  0  0  0  0  0  0
   -2.4567   -2.5170   -2.3441 H   0  0  0  0  0  0  0  0  0  0  0  0
   -1.4205   -3.2718   -1.1319 H   0  0  0  0  0  0  0  0  0  0  0  0
   -0.5662    3.2103    2.9576 H   0  0  0  0  0  0  0  0  0  0  0  0
   -1.0072    1.5934    3.5435 H   0  0  0  0  0  0  0  0  0  0  0  0
   -4.8091   -1.5038   -2.0871 H   0  0  0  0  0  0  0  0  0  0  0  0
   -4.5443    0.0793   -1.4115 H   0  0  0  0  0  0  0  0  0  0  0  0
    0.8694    4.6913   -0.6668 H   0  0  0  0  0  0  0  0  0  0  0  0
    0.7951    4.4647    1.0911 H   0  0  0  0  0  0  0  0  0  0  0  0
   -1.9916    0.0418    1.8715 H   0  0  0  0  0  0  0  0  0  0  0  0
    0.9978    2.7423   -2.0793 H   0  0  0  0  0  0  0  0  0  0  0  0
   -7.7372    0.4485   -0.5688 H   0  0  0  0  0  0  0  0  0  0  0  0
    3.5857    0.0497   -4.5116 H   0  0  0  0  0  0  0  0  0  0  0  0
    4.9780   -1.2291   -2.8793 H   0  0  0  0  0  0  0  0  0  0  0  0
    3.0439   -1.6710    0.7920 H   0  0  0  0  0  0  0  0  0  0  0  0
    6.7379   -0.1847   -0.8855 H   0  0  0  0  0  0  0  0  0  0  0  0
    7.9946   -1.3323    0.8941 H   0  0  0  0  0  0  0  0  0  0  0  0
    6.7956   -2.6435    2.6259 H   0  0  0  0  0  0  0  0  0  0  0  0
  1 33  1  0  0  0  0
  2 13  1  0  0  0  0
  2 21  1  0  0  0  0
  3 12  1  0  0  0  0
  3 23  1  0  0  0  0
  4 24  2  0  0  0  0
  5 25  1  0  0  0  0
  5 58  1  0  0  0  0
  6 25  2  0  0  0  0
  7 14  1  0  0  0  0
  7 24  1  0  0  0  0
  7 56  1  0  0  0  0
  8 17  1  0  0  0  0
  8 26  1  0  0  0  0
  8 57  1  0  0  0  0
  9 26  1  0  0  0  0
  9 27  2  0  0  0  0
 10 26  2  0  0  0  0
 10 28  1  0  0  0  0
 11 15  1  0  0  0  0
 11 16  1  0  0  0  0
 11 18  1  0  0  0  0
 11 22  1  0  0  0  0
 12 13  1  0  0  0  0
 12 14  1  0  0  0  0
 12 36  1  0  0  0  0
 13 17  1  0  0  0  0
 13 37  1  0  0  0  0
 14 21  1  0  0  0  0
 14 38  1  0  0  0  0
 15 19  1  0  0  0  0
 15 39  1  0  0  0  0
 15 40  1  0  0  0  0
 16 20  1  0  0  0  0
 16 41  1  0  0  0  0
 16 42  1  0  0  0  0
 17 23  1  0  0  0  0
 17 43  1  0  0  0  0
 18 24  1  0  0  0  0
 18 44  1  0  0  0  0
 18 45  1  0  0  0  0
 19 20  1  0  0  0  0
 19 46  1  0  0  0  0
 19 47  1  0  0  0  0
 20 48  1  0  0  0  0
 20 49  1  0  0  0  0
 21 50  1  0  0  0  0
 21 51  1  0  0  0  0
 22 25  1  0  0  0  0
 22 52  1  0  0  0  0
 22 53  1  0  0  0  0
 23 54  1  0  0  0  0
 23 55  1  0  0  0  0
 27 29  1  0  0  0  0
 27 30  1  0  0  0  0
 28 29  2  0  0  0  0
 28 59  1  0  0  0  0
 29 60  1  0  0  0  0
 30 31  2  0  0  0  0
 30 32  1  0  0  0  0
 31 33  1  0  0  0  0
 31 61  1  0  0  0  0
 32 34  2  0  0  0  0
 32 62  1  0  0  0  0
 33 35  2  0  0  0  0
 34 35  1  0  0  0  0
 34 63  1  0  0  0  0
 35 64  1  0  0  0  0
M  END
> <PUBCHEM_COMPOUND_CID>
11913371

> <PUBCHEM_CONFORMER_RMSD>
1.2

> <PUBCHEM_CONFORMER_DIVERSEORDER>
1
135
59
119
140
53
137
93
102
149
134
81
61
130
67
118
25
146
152
78
76
37
74
70
172
153
91
99
24
170
131
167
150
55
132
29
113
165
138
124
115
148
32
87
82
83
58
156
100
158
46
96
162
164
66
106
13
112
52
171
95
41
97
63
11
141
33
120
50
77
166
103
89
39
126
27
169
105
155
114
92
65
68
173
161
72
15
110
43
69
133
145
123
42
49
127
144
139
94
62
80
143
86
160
117
51
98
22
129
157
36
154
128
122
23
28
111
107
12
40
17
159
104
21
54
30
168
151
31
2
109
142
18
14
90
26
64
34
3
79
8
6
44
125
47
121
147
19
57
116
38
88
71
5
108
73
45
56
7
75
4
174
10
85
9
48
35
136
84
60
163
101
20
16

> <PUBCHEM_MMFF94_PARTIAL_CHARGES>
38
1 -0.19
10 -0.62
12 0.28
13 0.28
14 0.3
17 0.37
18 0.06
2 -0.56
21 0.28
22 0.06
23 0.28
24 0.57
25 0.66
26 0.72
27 0.31
28 0.16
29 -0.15
3 -0.56
31 -0.15
32 -0.15
33 0.19
34 -0.15
35 -0.15
4 -0.57
5 -0.65
56 0.37
57 0.4
58 0.5
59 0.15
6 -0.57
60 0.15
61 0.15
62 0.15
63 0.15
64 0.15
7 -0.73
8 -0.87
9 -0.62

> <PUBCHEM_EFFECTIVE_ROTOR_COUNT>
11.2

> <PUBCHEM_PHARMACOPHORE_FEATURES>
15
1 2 acceptor
1 3 acceptor
1 4 acceptor
1 5 acceptor
1 6 acceptor
1 7 donor
1 8 donor
1 9 acceptor
3 5 6 25 anion
4 8 9 10 26 cation
5 11 15 16 19 20 rings
5 2 12 13 14 21 rings
5 3 12 13 17 23 rings
6 30 31 32 33 34 35 rings
6 9 10 26 27 28 29 rings

> <PUBCHEM_HEAVY_ATOM_COUNT>
35

> <PUBCHEM_ATOM_DEF_STEREO_COUNT>
4

> <PUBCHEM_ATOM_UDEF_STEREO_COUNT>
0

> <PUBCHEM_BOND_DEF_STEREO_COUNT>
0

> <PUBCHEM_BOND_UDEF_STEREO_COUNT>
0

> <PUBCHEM_ISOTOPIC_ATOM_COUNT>
0

> <PUBCHEM_COMPONENT_COUNT>
1

> <PUBCHEM_CACTVS_TAUTO_COUNT>
6

> <PUBCHEM_CONFORMER_ID>
00B5C89B00000001

> <PUBCHEM_MMFF94_ENERGY>
100.927

> <PUBCHEM_FEATURE_SELFOVERLAP>
76.889

> <PUBCHEM_SHAPE_FINGERPRINT>
10622 236 17823698569111727570
10908659 184 18126585610997688891
11135926 11 16445637864357298740
11211813 140 18336818710906494299
11456790 92 18342186587884104779
11720765 8 18040713709881404436
12633046 712 17677350427417128241
12712778 12 18202562860902894531
12758862 65 17775282811464893722
12977781 61 18120059927966634756
13828863 39 12535335822960861600
14480069 147 17896618338847702587
14508693 111 18342187708221806502
14705955 166 16629968720299212338
15001296 14 18339363079496941778
15320294 125 18335704884216076079
15684389 69 10735578216815054517
19611394 137 17561082489255770362
20156587 76 17558516276023785773
20775530 9 17914065454029206685
208703 8 18409733954385001786
21223535 225 15719945826625761980
21315763 87 15698006240741223607
21458453 9 16486394616677601890
21585480 29 15554151653911343637
23572383 38 17632868511910348013
24893992 56 18413110585744888807
3383291 50 17917714626212544639
3882209 13 16841885481859617007
4280585 95 18412821387114038297
437795 139 18409727370020321265
4394409 98 18339072701802243263
46194498 28 14419290744935601830
463206 1 18261404355308291858
4756261 7 17125611210849131354
50009960 94 17772730896537824903
5085150 59 18130503033998989663
5223283 242 15285638737991322396
613672 6 17917439747587448487
66674814 147 17603302648914642690

> <PUBCHEM_SHAPE_MULTIPOLES>
663.74
16.74
4.44
2.71
1.03
1.23
0.86
-15.27
-0.62
1.95
-1.04
-4.02
-0.02
-4.19

> <PUBCHEM_SHAPE_SELFOVERLAP>
1442.83

> <PUBCHEM_SHAPE_VOLUME>
363.8

> <PUBCHEM_COORDINATE_TYPE>
2
5
10

$$$$
