38027296
  -OEChem-12032416363D

 70 71  0     1  0  0  0  0  0999 V2000
   -3.6806    0.5222   -1.9021 O   0  0  0  0  0  0  0  0  0  0  0  0
    4.2599   -2.0036    0.6531 O   0  0  0  0  0  0  0  0  0  0  0  0
   -4.6894    0.6177    0.1893 N   0  0  0  0  0  0  0  0  0  0  0  0
    3.3954   -0.0265    1.5217 N   0  0  0  0  0  0  0  0  0  0  0  0
    0.1786   -0.8277   -0.2443 C   0  0  1  0  0  0  0  0  0  0  0  0
    1.4052    0.0483    0.1137 C   0  0  1  0  0  0  0  0  0  0  0  0
   -0.6594   -0.1539   -1.3416 C   0  0  0  0  0  0  0  0  0  0  0  0
   -1.1615    1.2394   -0.9183 C   0  0  2  0  0  0  0  0  0  0  0  0
    0.5945   -2.2307   -0.6973 C   0  0  0  0  0  0  0  0  0  0  0  0
   -0.0561    2.0734   -0.3031 C   0  0  0  0  0  0  0  0  0  0  0  0
    1.0893    1.5254    0.1401 C   0  0  0  0  0  0  0  0  0  0  0  0
   -2.3595    1.1298    0.0316 C   0  0  0  0  0  0  0  0  0  0  0  0
    2.0091   -0.3690    1.4594 C   0  0  0  0  0  0  0  0  0  0  0  0
   -0.5413   -3.2226   -0.4673 C   0  0  0  0  0  0  0  0  0  0  0  0
    1.0099   -2.2147   -2.1648 C   0  0  0  0  0  0  0  0  0  0  0  0
   -6.0202    0.2478   -0.2251 C   0  0  0  0  0  0  0  0  0  0  0  0
   -0.2784    3.5593   -0.2505 C   0  0  0  0  0  0  0  0  0  0  0  0
   -7.0795    0.8243    0.7055 C   0  0  0  0  0  0  0  0  0  0  0  0
   -6.2537   -1.2541   -0.1132 C   0  0  0  0  0  0  0  0  0  0  0  0
   -3.6236    0.7244   -0.6922 C   0  0  0  0  0  0  0  0  0  0  0  0
   -7.1206   -0.1425    1.8857 C   0  0  0  0  0  0  0  0  0  0  0  0
   -6.6302   -1.4875    1.3489 C   0  0  0  0  0  0  0  0  0  0  0  0
    4.4219   -0.8745    1.1115 C   0  0  0  0  0  0  0  0  0  0  0  0
    5.8093   -0.2791    1.2879 C   0  0  0  0  0  0  0  0  0  0  0  0
    6.3544    0.4683    0.0476 C   0  0  0  0  0  0  0  0  0  0  0  0
    7.7643    1.0236    0.3110 C   0  0  0  0  0  0  0  0  0  0  0  0
    6.4369   -0.5374   -1.1176 C   0  0  0  0  0  0  0  0  0  0  0  0
    5.4252    1.6199   -0.3696 C   0  0  0  0  0  0  0  0  0  0  0  0
   -0.4330   -0.9239    0.6626 H   0  0  0  0  0  0  0  0  0  0  0  0
    2.1648   -0.0794   -0.6689 H   0  0  0  0  0  0  0  0  0  0  0  0
   -1.5014   -0.7872   -1.6379 H   0  0  0  0  0  0  0  0  0  0  0  0
   -0.0564    0.0107   -2.2439 H   0  0  0  0  0  0  0  0  0  0  0  0
   -1.4801    1.7512   -1.8374 H   0  0  0  0  0  0  0  0  0  0  0  0
    1.4493   -2.5852   -0.1118 H   0  0  0  0  0  0  0  0  0  0  0  0
    1.8661    2.1808    0.5289 H   0  0  0  0  0  0  0  0  0  0  0  0
   -2.5724    2.0976    0.5018 H   0  0  0  0  0  0  0  0  0  0  0  0
   -2.1719    0.4184    0.8434 H   0  0  0  0  0  0  0  0  0  0  0  0
    1.9229   -1.4456    1.6332 H   0  0  0  0  0  0  0  0  0  0  0  0
    1.5063    0.1290    2.2970 H   0  0  0  0  0  0  0  0  0  0  0  0
   -6.1703    0.5905   -1.2545 H   0  0  0  0  0  0  0  0  0  0  0  0
   -1.4352   -2.9739   -1.0476 H   0  0  0  0  0  0  0  0  0  0  0  0
   -0.8224   -3.2573    0.5907 H   0  0  0  0  0  0  0  0  0  0  0  0
   -0.2314   -4.2324   -0.7579 H   0  0  0  0  0  0  0  0  0  0  0  0
    0.1633   -2.1069   -2.8509 H   0  0  0  0  0  0  0  0  0  0  0  0
    1.4758   -3.1756   -2.4167 H   0  0  0  0  0  0  0  0  0  0  0  0
    1.7548   -1.4446   -2.3859 H   0  0  0  0  0  0  0  0  0  0  0  0
   -0.5089    3.9446   -1.2491 H   0  0  0  0  0  0  0  0  0  0  0  0
    0.6070    4.0947    0.1095 H   0  0  0  0  0  0  0  0  0  0  0  0
   -1.1060    3.8096    0.4192 H   0  0  0  0  0  0  0  0  0  0  0  0
   -8.0547    0.8207    0.2031 H   0  0  0  0  0  0  0  0  0  0  0  0
   -6.8680    1.8500    1.0238 H   0  0  0  0  0  0  0  0  0  0  0  0
   -5.3886   -1.8543   -0.4126 H   0  0  0  0  0  0  0  0  0  0  0  0
   -7.0988   -1.5433   -0.7501 H   0  0  0  0  0  0  0  0  0  0  0  0
   -8.1277   -0.2148    2.3085 H   0  0  0  0  0  0  0  0  0  0  0  0
   -6.4547    0.2029    2.6852 H   0  0  0  0  0  0  0  0  0  0  0  0
   -5.7571   -1.8208    1.9216 H   0  0  0  0  0  0  0  0  0  0  0  0
   -7.3966   -2.2641    1.4398 H   0  0  0  0  0  0  0  0  0  0  0  0
   -4.5197    0.7597    1.1812 H   0  0  0  0  0  0  0  0  0  0  0  0
    3.6352    0.8920    1.8830 H   0  0  0  0  0  0  0  0  0  0  0  0
    5.7950    0.3999    2.1504 H   0  0  0  0  0  0  0  0  0  0  0  0
    6.4832   -1.1003    1.5652 H   0  0  0  0  0  0  0  0  0  0  0  0
    7.7508    1.7480    1.1330 H   0  0  0  0  0  0  0  0  0  0  0  0
    8.4589    0.2216    0.5849 H   0  0  0  0  0  0  0  0  0  0  0  0
    8.1683    1.5286   -0.5735 H   0  0  0  0  0  0  0  0  0  0  0  0
    5.4484   -0.8882   -1.4321 H   0  0  0  0  0  0  0  0  0  0  0  0
    7.0381   -1.4126   -0.8463 H   0  0  0  0  0  0  0  0  0  0  0  0
    6.9045   -0.0777   -1.9964 H   0  0  0  0  0  0  0  0  0  0  0  0
    4.4457    1.2604   -0.7001 H   0  0  0  0  0  0  0  0  0  0  0  0
    5.8542    2.1872   -1.2038 H   0  0  0  0  0  0  0  0  0  0  0  0
    5.2698    2.3187    0.4597 H   0  0  0  0  0  0  0  0  0  0  0  0
  1 20  2  0  0  0  0
  2 23  2  0  0  0  0
  3 16  1  0  0  0  0
  3 20  1  0  0  0  0
  3 58  1  0  0  0  0
  4 13  1  0  0  0  0
  4 23  1  0  0  0  0
  4 59  1  0  0  0  0
  5  6  1  0  0  0  0
  5  7  1  0  0  0  0
  5  9  1  0  0  0  0
  5 29  1  0  0  0  0
  6 11  1  0  0  0  0
  6 13  1  0  0  0  0
  6 30  1  0  0  0  0
  7  8  1  0  0  0  0
  7 31  1  0  0  0  0
  7 32  1  0  0  0  0
  8 10  1  0  0  0  0
  8 12  1  0  0  0  0
  8 33  1  0  0  0  0
  9 14  1  0  0  0  0
  9 15  1  0  0  0  0
  9 34  1  0  0  0  0
 10 11  2  0  0  0  0
 10 17  1  0  0  0  0
 11 35  1  0  0  0  0
 12 20  1  0  0  0  0
 12 36  1  0  0  0  0
 12 37  1  0  0  0  0
 13 38  1  0  0  0  0
 13 39  1  0  0  0  0
 14 41  1  0  0  0  0
 14 42  1  0  0  0  0
 14 43  1  0  0  0  0
 15 44  1  0  0  0  0
 15 45  1  0  0  0  0
 15 46  1  0  0  0  0
 16 18  1  0  0  0  0
 16 19  1  0  0  0  0
 16 40  1  0  0  0  0
 17 47  1  0  0  0  0
 17 48  1  0  0  0  0
 17 49  1  0  0  0  0
 18 21  1  0  0  0  0
 18 50  1  0  0  0  0
 18 51  1  0  0  0  0
 19 22  1  0  0  0  0
 19 52  1  0  0  0  0
 19 53  1  0  0  0  0
 21 22  1  0  0  0  0
 21 54  1  0  0  0  0
 21 55  1  0  0  0  0
 22 56  1  0  0  0  0
 22 57  1  0  0  0  0
 23 24  1  0  0  0  0
 24 25  1  0  0  0  0
 24 60  1  0  0  0  0
 24 61  1  0  0  0  0
 25 26  1  0  0  0  0
 25 27  1  0  0  0  0
 25 28  1  0  0  0  0
 26 62  1  0  0  0  0
 26 63  1  0  0  0  0
 26 64  1  0  0  0  0
 27 65  1  0  0  0  0
 27 66  1  0  0  0  0
 27 67  1  0  0  0  0
 28 68  1  0  0  0  0
 28 69  1  0  0  0  0
 28 70  1  0  0  0  0
M  END
> <PUBCHEM_COMPOUND_CID>
38027296

> <PUBCHEM_CONFORMER_RMSD>
1

> <PUBCHEM_CONFORMER_DIVERSEORDER>
1
125
22
113
107
57
67
14
91
87
116
114
30
65
41
39
118
117
66
105
84
69
25
44
34
51
23
106
54
90
86
119
4
49
110
121
92
48
40
104
56
75
85
115
36
24
82
98
18
43
61
76
78
81
68
29
7
80
77
70
122
46
123
11
20
3
126
28
52
112
42
8
94
124
108
99
97
71
89
74
64
19
27
32
50
96
31
35
83
72
45
38
79
55
101
73
53
63
26
103
59
2
102
58
111
47
16
13
62
33
100
93
12
9
109
6
17
120
60
21
37
88
5
15
95
10

> <PUBCHEM_MMFF94_PARTIAL_CHARGES>
18
1 -0.57
10 -0.28
11 -0.29
12 0.06
13 0.3
16 0.3
17 0.14
2 -0.57
20 0.57
23 0.57
24 0.06
3 -0.73
35 0.15
4 -0.73
58 0.37
59 0.37
6 0.14
8 0.14

> <PUBCHEM_EFFECTIVE_ROTOR_COUNT>
11.8

> <PUBCHEM_PHARMACOPHORE_FEATURES>
8
1 1 acceptor
1 2 acceptor
1 3 donor
1 4 donor
3 9 14 15 hydrophobe
4 25 26 27 28 hydrophobe
5 16 18 19 21 22 rings
6 5 6 7 8 10 11 rings

> <PUBCHEM_HEAVY_ATOM_COUNT>
28

> <PUBCHEM_ATOM_DEF_STEREO_COUNT>
3

> <PUBCHEM_ATOM_UDEF_STEREO_COUNT>
0

> <PUBCHEM_BOND_DEF_STEREO_COUNT>
0

> <PUBCHEM_BOND_UDEF_STEREO_COUNT>
0

> <PUBCHEM_ISOTOPIC_ATOM_COUNT>
0

> <PUBCHEM_COMPONENT_COUNT>
1

> <PUBCHEM_CACTVS_TAUTO_COUNT>
4

> <PUBCHEM_CONFORMER_ID>
0244402000000001

> <PUBCHEM_MMFF94_ENERGY>
54.8564

> <PUBCHEM_FEATURE_SELFOVERLAP>
40.596

> <PUBCHEM_SHAPE_FINGERPRINT>
10670039 82 11887960930738745747
10674148 151 16271924918457137378
10930396 42 7997403838293181774
12035758 1 18413101775342749186
12516196 113 18187364328804920369
13914758 101 12031796863633875198
14251752 14 11024107646653379355
1454969 45 18410290311394273117
14840074 17 18201429264383048333
14849402 71 18271809098299068521
14856354 85 18201435922162709935
14955137 171 18341895224916959477
15142383 8 13326854427308349808
15183329 4 12679465287297058354
15301273 46 18131355172294966817
15849732 13 18411982485590957172
15927050 60 17763745786073078676
18335252 98 18040998436611892914
19319366 153 18041264510026115706
20715895 44 10519984881138545440
21049683 271 17821733870097127957
21365058 27 17632297886486937206
21521721 280 18131633404655524936
21781051 124 18263099811066107798
21796203 349 18192173649185170513
22224240 67 18273208707981151891
23559900 14 11603124785214314319
24893992 56 9943516419986023597
2747138 104 18409451384059586888
2838139 119 12031783669863529633
3009799 131 11169912783779321440
3178227 256 18410860979319750313
4093350 32 16486704579639650398
4325135 7 16950281815289169608
437795 51 18041279967196747152
465052 167 18260830392926873825
5381727 24 16950278513108211400
59682541 35 17894630392181820784
59755656 215 15195290806685431056
59755656 520 17131828781310517799

> <PUBCHEM_SHAPE_MULTIPOLES>
554.53
20
2.71
1.56
4.74
0.12
-0.03
-0.42
7.65
-0.17
-0.77
0.42
0.54
0.41

> <PUBCHEM_SHAPE_SELFOVERLAP>
1112.31

> <PUBCHEM_SHAPE_VOLUME>
326.8

> <PUBCHEM_COORDINATE_TYPE>
2
5
10

$$$$
