11865521
  -OEChem-12032416393D

 53 54  0     1  0  0  0  0  0999 V2000
    1.4138    2.4573    1.9323 O   0  0  0  0  0  0  0  0  0  0  0  0
    2.7420    3.9983   -1.1082 O   0  0  0  0  0  0  0  0  0  0  0  0
    5.7692    0.4665   -0.9267 O   0  0  0  0  0  0  0  0  0  0  0  0
   -1.5166    1.7151   -1.0530 O   0  0  0  0  0  0  0  0  0  0  0  0
    3.2957   -3.4799    0.7207 O   0  0  0  0  0  0  0  0  0  0  0  0
   -8.3342    0.2718   -0.4667 O   0  0  0  0  0  0  0  0  0  0  0  0
    0.1509    0.7126    0.1958 N   0  0  0  0  0  0  0  0  0  0  0  0
    4.6977   -0.9099    0.6200 N   0  0  0  0  0  0  0  0  0  0  0  0
   -2.0058   -0.0434    0.4231 N   0  0  0  0  0  0  0  0  0  0  0  0
    3.8763   -4.7271   -1.1210 N   0  0  0  0  0  0  0  0  0  0  0  0
    1.4331    2.7933    0.5433 C   0  0  2  0  0  0  0  0  0  0  0  0
    1.2399    1.5184   -0.2999 C   0  0  1  0  0  0  0  0  0  0  0  0
    2.7643    3.4838    0.2218 C   0  0  1  0  0  0  0  0  0  0  0  0
    3.9649    2.5389    0.4019 C   0  0  0  0  0  0  0  0  0  0  0  0
    3.6918    1.1342   -0.0558 C   0  0  0  0  0  0  0  0  0  0  0  0
    2.4775    0.6662   -0.3815 C   0  0  0  0  0  0  0  0  0  0  0  0
    4.8267    0.2145   -0.1766 C   0  0  0  0  0  0  0  0  0  0  0  0
   -1.1742    0.8734   -0.2260 C   0  0  0  0  0  0  0  0  0  0  0  0
    5.6888   -1.9607    0.6689 C   0  0  0  0  0  0  0  0  0  0  0  0
    5.4260   -3.0489   -0.3630 C   0  0  0  0  0  0  0  0  0  0  0  0
   -3.4032   -0.2042    0.2750 C   0  0  0  0  0  0  0  0  0  0  0  0
   -4.0750   -1.1798    1.0116 C   0  0  0  0  0  0  0  0  0  0  0  0
   -4.1093    0.6121   -0.6087 C   0  0  0  0  0  0  0  0  0  0  0  0
    4.0911   -3.7469   -0.1754 C   0  0  0  0  0  0  0  0  0  0  0  0
   -5.4528   -1.3391    0.8646 C   0  0  0  0  0  0  0  0  0  0  0  0
   -5.4871    0.4528   -0.7557 C   0  0  0  0  0  0  0  0  0  0  0  0
   -6.1590   -0.5228   -0.0190 C   0  0  0  0  0  0  0  0  0  0  0  0
   -7.5956   -0.6889   -0.1714 C   0  0  0  0  0  0  0  0  0  0  0  0
   -8.2369   -2.0577    0.0297 C   0  0  0  0  0  0  0  0  0  0  0  0
    0.5931    3.4733    0.3559 H   0  0  0  0  0  0  0  0  0  0  0  0
    0.9955    1.8169   -1.3278 H   0  0  0  0  0  0  0  0  0  0  0  0
    2.9009    4.3420    0.8911 H   0  0  0  0  0  0  0  0  0  0  0  0
    4.2296    2.4968    1.4660 H   0  0  0  0  0  0  0  0  0  0  0  0
    4.8316    2.9393   -0.1376 H   0  0  0  0  0  0  0  0  0  0  0  0
    2.3585   -0.3510   -0.7494 H   0  0  0  0  0  0  0  0  0  0  0  0
    0.3431    0.0305    0.9237 H   0  0  0  0  0  0  0  0  0  0  0  0
    1.5084    3.2844    2.4346 H   0  0  0  0  0  0  0  0  0  0  0  0
    3.5816    4.4654   -1.2572 H   0  0  0  0  0  0  0  0  0  0  0  0
    3.8790   -1.0160    1.2124 H   0  0  0  0  0  0  0  0  0  0  0  0
    5.6642   -2.3763    1.6819 H   0  0  0  0  0  0  0  0  0  0  0  0
    6.6798   -1.5245    0.5036 H   0  0  0  0  0  0  0  0  0  0  0  0
   -1.5605   -0.6756    1.0835 H   0  0  0  0  0  0  0  0  0  0  0  0
    6.2179   -3.8046   -0.3029 H   0  0  0  0  0  0  0  0  0  0  0  0
    5.4451   -2.6212   -1.3729 H   0  0  0  0  0  0  0  0  0  0  0  0
   -3.5367   -1.8205    1.7054 H   0  0  0  0  0  0  0  0  0  0  0  0
   -3.6602    1.3870   -1.2136 H   0  0  0  0  0  0  0  0  0  0  0  0
   -5.9524   -2.0980    1.4602 H   0  0  0  0  0  0  0  0  0  0  0  0
   -6.0212    1.0948   -1.4516 H   0  0  0  0  0  0  0  0  0  0  0  0
    3.0250   -5.2791   -1.1161 H   0  0  0  0  0  0  0  0  0  0  0  0
    4.5500   -4.9334   -1.8516 H   0  0  0  0  0  0  0  0  0  0  0  0
   -8.5117   -2.1822    1.0799 H   0  0  0  0  0  0  0  0  0  0  0  0
   -7.5570   -2.8548   -0.2832 H   0  0  0  0  0  0  0  0  0  0  0  0
   -9.1332   -2.1268   -0.5940 H   0  0  0  0  0  0  0  0  0  0  0  0
  1 11  1  0  0  0  0
  1 37  1  0  0  0  0
  2 13  1  0  0  0  0
  2 38  1  0  0  0  0
  3 17  2  0  0  0  0
  4 18  2  0  0  0  0
  5 24  2  0  0  0  0
  6 28  2  0  0  0  0
  7 12  1  0  0  0  0
  7 18  1  0  0  0  0
  7 36  1  0  0  0  0
  8 17  1  0  0  0  0
  8 19  1  0  0  0  0
  8 39  1  0  0  0  0
  9 18  1  0  0  0  0
  9 21  1  0  0  0  0
  9 42  1  0  0  0  0
 10 24  1  0  0  0  0
 10 49  1  0  0  0  0
 10 50  1  0  0  0  0
 11 12  1  0  0  0  0
 11 13  1  0  0  0  0
 11 30  1  0  0  0  0
 12 16  1  0  0  0  0
 12 31  1  0  0  0  0
 13 14  1  0  0  0  0
 13 32  1  0  0  0  0
 14 15  1  0  0  0  0
 14 33  1  0  0  0  0
 14 34  1  0  0  0  0
 15 16  2  0  0  0  0
 15 17  1  0  0  0  0
 16 35  1  0  0  0  0
 19 20  1  0  0  0  0
 19 40  1  0  0  0  0
 19 41  1  0  0  0  0
 20 24  1  0  0  0  0
 20 43  1  0  0  0  0
 20 44  1  0  0  0  0
 21 22  2  0  0  0  0
 21 23  1  0  0  0  0
 22 25  1  0  0  0  0
 22 45  1  0  0  0  0
 23 26  2  0  0  0  0
 23 46  1  0  0  0  0
 25 27  2  0  0  0  0
 25 47  1  0  0  0  0
 26 27  1  0  0  0  0
 26 48  1  0  0  0  0
 27 28  1  0  0  0  0
 28 29  1  0  0  0  0
 29 51  1  0  0  0  0
 29 52  1  0  0  0  0
 29 53  1  0  0  0  0
M  END
> <PUBCHEM_COMPOUND_CID>
11865521

> <PUBCHEM_CONFORMER_RMSD>
1

> <PUBCHEM_CONFORMER_DIVERSEORDER>
1
67
71
38
16
69
59
62
37
47
56
64
43
61
77
42
24
35
75
50
30
74
49
46
3
81
73
68
80
78
34
27
60
66
12
52
82
19
15
72
13
55
36
7
65
23
26
41
58
31
76
11
33
79
22
40
32
39
57
53
45
21
4
25
63
9
5
54
2
29
51
44
8
6
14
70
48
10
17
20
18
28

> <PUBCHEM_MMFF94_PARTIAL_CHARGES>
41
1 -0.68
10 -0.8
11 0.28
12 0.44
13 0.28
14 0.14
15 -0.12
16 -0.29
17 0.62
18 0.69
19 0.3
2 -0.68
20 0.06
21 0.12
22 -0.15
23 -0.15
24 0.57
25 -0.15
26 -0.15
27 0.09
28 0.42
29 0.06
3 -0.57
35 0.15
36 0.37
37 0.4
38 0.4
39 0.37
4 -0.57
42 0.37
45 0.15
46 0.15
47 0.15
48 0.15
49 0.37
5 -0.57
50 0.37
6 -0.57
7 -0.73
8 -0.73
9 -0.55

> <PUBCHEM_EFFECTIVE_ROTOR_COUNT>
10.8

> <PUBCHEM_PHARMACOPHORE_FEATURES>
14
1 1 acceptor
1 1 donor
1 10 donor
1 2 acceptor
1 2 donor
1 3 acceptor
1 4 acceptor
1 5 acceptor
1 6 acceptor
1 7 donor
1 8 donor
1 9 donor
6 11 12 13 14 15 16 rings
6 21 22 23 25 26 27 rings

> <PUBCHEM_HEAVY_ATOM_COUNT>
29

> <PUBCHEM_ATOM_DEF_STEREO_COUNT>
3

> <PUBCHEM_ATOM_UDEF_STEREO_COUNT>
0

> <PUBCHEM_BOND_DEF_STEREO_COUNT>
0

> <PUBCHEM_BOND_UDEF_STEREO_COUNT>
0

> <PUBCHEM_ISOTOPIC_ATOM_COUNT>
0

> <PUBCHEM_COMPONENT_COUNT>
1

> <PUBCHEM_CACTVS_TAUTO_COUNT>
64

> <PUBCHEM_CONFORMER_ID>
00B50DB100000001

> <PUBCHEM_MMFF94_ENERGY>
62.3845

> <PUBCHEM_FEATURE_SELFOVERLAP>
71.11

> <PUBCHEM_SHAPE_FINGERPRINT>
10 15 12031786980914244221
117089 54 18126011460170233150
11719270 70 18338232786825337040
12107183 9 18054801593823287633
12616971 3 17632572803723728925
13533116 47 18341893017308706633
1361 2 18411699859553234770
13782708 43 18334010593117135543
13785724 45 18127422146251343390
13911852 28 18268148665233784366
13955234 65 18198339753001071920
13989917 61 18411983572012890030
15183329 4 18335423469695617633
15352257 5 18261110781752040871
15475509 35 18273207608321714568
17492 89 18051694344278235502
23524908 199 18338504276276780989
23559900 14 18188206606578614057
23569914 152 17545001972564392967
23569943 247 18261670360277727955
25269216 80 15141548937952846627
255183 451 18198913509234394518
3014965 18 18411417332620012633
3421961 26 18411416207470528024
345986 75 17704072850597259352
34797466 226 16877944970456024885
4073 2 17970067961924407097
46194498 28 17748826337049962436
5309563 4 18268150843151689438
6299153 45 18271254803216048961
6441014 3 17547854053840381206
9831232 110 18335137600956852655

> <PUBCHEM_SHAPE_MULTIPOLES>
541.67
21.06
4.83
1.01
39.33
2.74
0.13
14.01
-1.37
-11.4
-0.48
-0.2
-0.16
1.03

> <PUBCHEM_SHAPE_SELFOVERLAP>
1129.536

> <PUBCHEM_SHAPE_VOLUME>
303.4

> <PUBCHEM_COORDINATE_TYPE>
2
5
10

$$$$
