75536754
  -OEChem-12032416323D

 56 58  0     1  0  0  0  0  0999 V2000
   -1.7934    0.7662   -0.5211 O   0  0  0  0  0  0  0  0  0  0  0  0
   -0.7496   -2.3461    0.9383 O   0  0  0  0  0  0  0  0  0  0  0  0
   -9.0795    1.2220   -0.4690 O   0  0  0  0  0  0  0  0  0  0  0  0
   -5.2680   -1.7503    0.5900 O   0  0  0  0  0  0  0  0  0  0  0  0
    8.2463    2.0817    0.8287 O   0  0  0  0  0  0  0  0  0  0  0  0
    1.5868   -0.4933   -0.0538 N   0  0  0  0  0  0  0  0  0  0  0  0
   -4.3263    0.3324    0.7901 N   0  0  0  0  0  0  0  0  0  0  0  0
   -6.5223    0.0927   -0.0512 N   0  0  0  0  0  0  0  0  0  0  0  0
    7.9538   -0.1566    0.1483 N   0  0  0  0  0  0  0  0  0  0  0  0
    0.1825   -0.5484   -0.4256 C   0  0  1  0  0  0  0  0  0  0  0  0
   -0.7343   -0.9495    0.7152 C   0  0  1  0  0  0  0  0  0  0  0  0
   -2.0762   -0.4412    0.2057 C   0  0  1  0  0  0  0  0  0  0  0  0
   -0.3836    0.8107   -0.8028 C   0  0  0  0  0  0  0  0  0  0  0  0
   -3.0695   -0.1509    1.3166 C   0  0  0  0  0  0  0  0  0  0  0  0
    2.4409   -0.4394   -1.2341 C   0  0  0  0  0  0  0  0  0  0  0  0
   -5.3665   -0.5262    0.4544 C   0  0  0  0  0  0  0  0  0  0  0  0
    3.8994   -0.3650   -0.8679 C   0  0  0  0  0  0  0  0  0  0  0  0
   -7.6658   -0.7373   -0.4374 C   0  0  0  0  0  0  0  0  0  0  0  0
   -6.6676    1.5167   -0.3852 C   0  0  0  0  0  0  0  0  0  0  0  0
   -8.9731   -0.1140    0.0261 C   0  0  0  0  0  0  0  0  0  0  0  0
   -8.0315    2.0401    0.0526 C   0  0  0  0  0  0  0  0  0  0  0  0
    4.4434    0.8362   -0.4130 C   0  0  0  0  0  0  0  0  0  0  0  0
    4.7068   -1.4965   -0.9838 C   0  0  0  0  0  0  0  0  0  0  0  0
    5.7947    0.9059   -0.0741 C   0  0  0  0  0  0  0  0  0  0  0  0
    6.0580   -1.4269   -0.6450 C   0  0  0  0  0  0  0  0  0  0  0  0
    6.6020   -0.2258   -0.1903 C   0  0  0  0  0  0  0  0  0  0  0  0
    8.6722    0.9506    0.6188 C   0  0  0  0  0  0  0  0  0  0  0  0
   10.1203    0.6120    0.8695 C   0  0  0  0  0  0  0  0  0  0  0  0
    0.0351   -1.2639   -1.2470 H   0  0  0  0  0  0  0  0  0  0  0  0
   -0.4485   -0.4457    1.6470 H   0  0  0  0  0  0  0  0  0  0  0  0
   -2.5174   -1.1535   -0.5038 H   0  0  0  0  0  0  0  0  0  0  0  0
    0.0406    1.6211   -0.1987 H   0  0  0  0  0  0  0  0  0  0  0  0
   -0.2329    1.0530   -1.8591 H   0  0  0  0  0  0  0  0  0  0  0  0
   -2.6915    0.6416    1.9721 H   0  0  0  0  0  0  0  0  0  0  0  0
   -3.2474   -1.0452    1.9232 H   0  0  0  0  0  0  0  0  0  0  0  0
    1.8215   -1.3272    0.4855 H   0  0  0  0  0  0  0  0  0  0  0  0
    2.2021    0.4377   -1.8491 H   0  0  0  0  0  0  0  0  0  0  0  0
    2.2704   -1.3176   -1.8704 H   0  0  0  0  0  0  0  0  0  0  0  0
   -1.0022   -2.7855    0.1087 H   0  0  0  0  0  0  0  0  0  0  0  0
   -4.3985    1.3314    0.6628 H   0  0  0  0  0  0  0  0  0  0  0  0
   -7.5697   -1.7526   -0.0412 H   0  0  0  0  0  0  0  0  0  0  0  0
   -7.6449   -0.7984   -1.5320 H   0  0  0  0  0  0  0  0  0  0  0  0
   -6.5783    1.5798   -1.4763 H   0  0  0  0  0  0  0  0  0  0  0  0
   -5.8934    2.1473    0.0477 H   0  0  0  0  0  0  0  0  0  0  0  0
   -9.8213   -0.6858   -0.3629 H   0  0  0  0  0  0  0  0  0  0  0  0
   -9.0478   -0.1043    1.1200 H   0  0  0  0  0  0  0  0  0  0  0  0
   -8.1101    2.0743    1.1459 H   0  0  0  0  0  0  0  0  0  0  0  0
   -8.1802    3.0571   -0.3237 H   0  0  0  0  0  0  0  0  0  0  0  0
    3.8233    1.7241   -0.3195 H   0  0  0  0  0  0  0  0  0  0  0  0
    4.2959   -2.4394   -1.3347 H   0  0  0  0  0  0  0  0  0  0  0  0
    6.1436    1.8696    0.2697 H   0  0  0  0  0  0  0  0  0  0  0  0
    6.6753   -2.3168   -0.7399 H   0  0  0  0  0  0  0  0  0  0  0  0
    8.4745   -1.0240    0.0358 H   0  0  0  0  0  0  0  0  0  0  0  0
   10.5817    0.2483   -0.0530 H   0  0  0  0  0  0  0  0  0  0  0  0
   10.1908   -0.1586    1.6422 H   0  0  0  0  0  0  0  0  0  0  0  0
   10.6567    1.5035    1.2060 H   0  0  0  0  0  0  0  0  0  0  0  0
  1 12  1  0  0  0  0
  1 13  1  0  0  0  0
  2 11  1  0  0  0  0
  2 39  1  0  0  0  0
  3 20  1  0  0  0  0
  3 21  1  0  0  0  0
  4 16  2  0  0  0  0
  5 27  2  0  0  0  0
  6 10  1  0  0  0  0
  6 15  1  0  0  0  0
  6 36  1  0  0  0  0
  7 14  1  0  0  0  0
  7 16  1  0  0  0  0
  7 40  1  0  0  0  0
  8 16  1  0  0  0  0
  8 18  1  0  0  0  0
  8 19  1  0  0  0  0
  9 26  1  0  0  0  0
  9 27  1  0  0  0  0
  9 53  1  0  0  0  0
 10 11  1  0  0  0  0
 10 13  1  0  0  0  0
 10 29  1  0  0  0  0
 11 12  1  0  0  0  0
 11 30  1  0  0  0  0
 12 14  1  0  0  0  0
 12 31  1  0  0  0  0
 13 32  1  0  0  0  0
 13 33  1  0  0  0  0
 14 34  1  0  0  0  0
 14 35  1  0  0  0  0
 15 17  1  0  0  0  0
 15 37  1  0  0  0  0
 15 38  1  0  0  0  0
 17 22  2  0  0  0  0
 17 23  1  0  0  0  0
 18 20  1  0  0  0  0
 18 41  1  0  0  0  0
 18 42  1  0  0  0  0
 19 21  1  0  0  0  0
 19 43  1  0  0  0  0
 19 44  1  0  0  0  0
 20 45  1  0  0  0  0
 20 46  1  0  0  0  0
 21 47  1  0  0  0  0
 21 48  1  0  0  0  0
 22 24  1  0  0  0  0
 22 49  1  0  0  0  0
 23 25  2  0  0  0  0
 23 50  1  0  0  0  0
 24 26  2  0  0  0  0
 24 51  1  0  0  0  0
 25 26  1  0  0  0  0
 25 52  1  0  0  0  0
 27 28  1  0  0  0  0
 28 54  1  0  0  0  0
 28 55  1  0  0  0  0
 28 56  1  0  0  0  0
M  END
> <PUBCHEM_COMPOUND_CID>
75536754

> <PUBCHEM_CONFORMER_RMSD>
1

> <PUBCHEM_CONFORMER_DIVERSEORDER>
1
139
70
85
119
107
41
64
54
75
52
17
33
118
123
95
11
28
76
35
133
122
110
23
59
103
12
80
30
69
102
24
62
129
48
51
82
146
98
121
25
141
127
113
7
106
90
38
111
94
39
84
138
96
34
137
3
60
93
47
91
120
63
68
22
37
29
9
56
117
104
77
20
86
130
87
101
109
57
66
144
99
134
112
16
13
26
71
61
32
142
125
92
115
18
126
78
124
55
42
19
21
131
74
10
81
136
135
45
145
108
100
8
50
46
79
58
53
44
105
14
5
97
73
65
140
4
116
114
89
67
36
15
128
83
143
132
27
31
72
49
40
88
2
6
43

> <PUBCHEM_MMFF94_PARTIAL_CHARGES>
36
1 -0.56
10 0.27
11 0.28
12 0.28
13 0.28
14 0.3
15 0.41
16 0.69
17 -0.14
18 0.3
19 0.3
2 -0.68
20 0.28
21 0.28
22 -0.15
23 -0.15
24 -0.15
25 -0.15
26 0.12
27 0.57
28 0.06
3 -0.56
36 0.36
39 0.4
4 -0.57
40 0.37
49 0.15
5 -0.57
50 0.15
51 0.15
52 0.15
53 0.37
6 -0.9
7 -0.73
8 -0.66
9 -0.55

> <PUBCHEM_EFFECTIVE_ROTOR_COUNT>
11.2

> <PUBCHEM_PHARMACOPHORE_FEATURES>
13
1 1 acceptor
1 2 acceptor
1 2 donor
1 3 acceptor
1 4 acceptor
1 5 acceptor
1 6 cation
1 6 donor
1 7 donor
1 9 donor
5 1 10 11 12 13 rings
6 17 22 23 24 25 26 rings
6 3 8 18 19 20 21 rings

> <PUBCHEM_HEAVY_ATOM_COUNT>
28

> <PUBCHEM_ATOM_DEF_STEREO_COUNT>
3

> <PUBCHEM_ATOM_UDEF_STEREO_COUNT>
0

> <PUBCHEM_BOND_DEF_STEREO_COUNT>
0

> <PUBCHEM_BOND_UDEF_STEREO_COUNT>
0

> <PUBCHEM_ISOTOPIC_ATOM_COUNT>
0

> <PUBCHEM_COMPONENT_COUNT>
1

> <PUBCHEM_CACTVS_TAUTO_COUNT>
6

> <PUBCHEM_CONFORMER_ID>
0480997200000001

> <PUBCHEM_MMFF94_ENERGY>
64.3106

> <PUBCHEM_FEATURE_SELFOVERLAP>
65.974

> <PUBCHEM_SHAPE_FINGERPRINT>
10 15 18261392287368178208
10076449 9 12319738068085336467
10162869 55 18059849606050370852
10299344 5 11963390751964489272
10429389 143 18131633365885132009
11135926 11 16588018022620709547
11315181 36 17704357663438538467
11408170 108 15357965726381361296
12089408 11 15841558448371793919
12838862 33 18040426698838937455
14251764 18 16272210786510054784
14251764 46 18410573993746666982
15183329 4 15357699695426473311
15510794 2 18413674599690020454
15773216 30 11311515579956645604
15979999 66 17346594180104386369
16120349 18 18059853996150915176
1754911 235 15769774658678431752
1818759 1 11602537615887738352
18335252 98 11743844659465642868
21095086 128 10665231462400174529
21150785 3 14764349340486903360
21267235 1 9655576309696648978
21403212 168 17967532372178579242
21792934 111 18040713680275302684
22224240 67 18342459249086874286
246663 6 9079115561645637476
249057 3 16200426996436974909
328311 84 10665228155058883902
395649 100 18341888645871367311
4325135 7 15339119035353932429
44280117 145 18272931670544500047
44389302 135 16515673443927408784
4874694 18 18411980264914160127
5283156 175 14129057020112110020
6126387 218 18411136926905639801
6201320 215 15720218514811483517
636775 72 18410576154881069425
636775 8 12535339122060637453
67123 10 18131349717628192983
99344 41 18407478868536375563
9937071 3 13045937998394785864

> <PUBCHEM_SHAPE_MULTIPOLES>
526.96
34.65
1.67
1.01
2.43
0.08
0.04
13.52
3.4
-0.28
0.13
0.44
-0.11
1.86

> <PUBCHEM_SHAPE_SELFOVERLAP>
1090.944

> <PUBCHEM_SHAPE_VOLUME>
300.4

> <PUBCHEM_COORDINATE_TYPE>
2
5
10

$$$$
