75368604
  -OEChem-12032416393D

 50 53  0     1  0  0  0  0  0999 V2000
    6.5468   -2.9665    1.7877 F   0  0  0  0  0  0  0  0  0  0  0  0
    3.3385    2.9102   -0.4238 O   0  0  0  0  0  0  0  0  0  0  0  0
   -6.7591   -2.8682   -0.7471 O   0  0  0  0  0  0  0  0  0  0  0  0
   -7.7943   -0.9087   -1.2524 O   0  0  0  0  0  0  0  0  0  0  0  0
    1.1265    2.1297   -0.2941 N   0  0  0  0  0  0  0  0  0  0  0  0
   -1.3811    1.5218    0.8254 N   0  0  2  0  0  0  0  0  0  0  0  0
    2.6396    0.8650   -1.3686 N   0  0  0  0  0  0  0  0  0  0  0  0
    0.3574    1.0348   -0.8474 C   0  0  2  0  0  0  0  0  0  0  0  0
   -0.5720    0.4477    0.2145 C   0  0  0  0  0  0  0  0  0  0  0  0
    1.4217    0.0728   -1.3716 C   0  0  0  0  0  0  0  0  0  0  0  0
    0.4469    3.1652    0.4562 C   0  0  0  0  0  0  0  0  0  0  0  0
   -0.5161    2.5339    1.4648 C   0  0  0  0  0  0  0  0  0  0  0  0
    2.4760    2.0769   -0.6678 C   0  0  0  0  0  0  0  0  0  0  0  0
   -2.3170    0.9624    1.8004 C   0  0  0  0  0  0  0  0  0  0  0  0
    3.8849    0.3581   -1.9015 C   0  0  0  0  0  0  0  0  0  0  0  0
   -3.5013    0.3150    1.1332 C   0  0  0  0  0  0  0  0  0  0  0  0
    4.5962   -0.5304   -0.9159 C   0  0  0  0  0  0  0  0  0  0  0  0
   -4.5198    1.1056    0.6011 C   0  0  0  0  0  0  0  0  0  0  0  0
   -3.5800   -1.0750    1.0470 C   0  0  0  0  0  0  0  0  0  0  0  0
    5.5072    0.0186   -0.0134 C   0  0  0  0  0  0  0  0  0  0  0  0
    4.3443   -1.9023   -0.9049 C   0  0  0  0  0  0  0  0  0  0  0  0
   -5.6171    0.5062   -0.0170 C   0  0  0  0  0  0  0  0  0  0  0  0
   -4.6774   -1.6744    0.4289 C   0  0  0  0  0  0  0  0  0  0  0  0
    6.1664   -0.8042    0.8997 C   0  0  0  0  0  0  0  0  0  0  0  0
    5.0036   -2.7252    0.0081 C   0  0  0  0  0  0  0  0  0  0  0  0
   -5.6959   -0.8838   -0.1033 C   0  0  0  0  0  0  0  0  0  0  0  0
    5.9146   -2.1761    0.9105 C   0  0  0  0  0  0  0  0  0  0  0  0
   -6.8395   -1.5092   -0.7485 C   0  0  0  0  0  0  0  0  0  0  0  0
   -0.2252    1.4428   -1.6839 H   0  0  0  0  0  0  0  0  0  0  0  0
   -1.2057   -0.2985   -0.2766 H   0  0  0  0  0  0  0  0  0  0  0  0
    0.0122   -0.0712    0.9867 H   0  0  0  0  0  0  0  0  0  0  0  0
    1.1998   -0.2711   -2.3863 H   0  0  0  0  0  0  0  0  0  0  0  0
    1.5625   -0.7908   -0.7145 H   0  0  0  0  0  0  0  0  0  0  0  0
   -0.1007    3.7830   -0.2647 H   0  0  0  0  0  0  0  0  0  0  0  0
    1.1848    3.8006    0.9561 H   0  0  0  0  0  0  0  0  0  0  0  0
    0.0594    2.0758    2.2805 H   0  0  0  0  0  0  0  0  0  0  0  0
   -1.1262    3.3339    1.9010 H   0  0  0  0  0  0  0  0  0  0  0  0
   -2.7191    1.7584    2.4431 H   0  0  0  0  0  0  0  0  0  0  0  0
   -1.8205    0.2634    2.4873 H   0  0  0  0  0  0  0  0  0  0  0  0
    4.5280    1.2103   -2.1526 H   0  0  0  0  0  0  0  0  0  0  0  0
    3.6804   -0.1728   -2.8384 H   0  0  0  0  0  0  0  0  0  0  0  0
   -4.4697    2.1896    0.6619 H   0  0  0  0  0  0  0  0  0  0  0  0
   -2.7931   -1.7023    1.4575 H   0  0  0  0  0  0  0  0  0  0  0  0
    5.7124    1.0858   -0.0109 H   0  0  0  0  0  0  0  0  0  0  0  0
    3.6372   -2.3422   -1.6032 H   0  0  0  0  0  0  0  0  0  0  0  0
   -6.4001    1.1398   -0.4254 H   0  0  0  0  0  0  0  0  0  0  0  0
   -4.6983   -2.7596    0.3837 H   0  0  0  0  0  0  0  0  0  0  0  0
    6.8756   -0.3771    1.6026 H   0  0  0  0  0  0  0  0  0  0  0  0
    4.8077   -3.7934    0.0170 H   0  0  0  0  0  0  0  0  0  0  0  0
   -7.5347   -3.2800   -1.1845 H   0  0  0  0  0  0  0  0  0  0  0  0
  1 27  1  0  0  0  0
  2 13  2  0  0  0  0
  3 28  1  0  0  0  0
  3 50  1  0  0  0  0
  4 28  2  0  0  0  0
  5  8  1  0  0  0  0
  5 11  1  0  0  0  0
  5 13  1  0  0  0  0
  6  9  1  0  0  0  0
  6 12  1  0  0  0  0
  6 14  1  0  0  0  0
  7 10  1  0  0  0  0
  7 13  1  0  0  0  0
  7 15  1  0  0  0  0
  8  9  1  0  0  0  0
  8 10  1  0  0  0  0
  8 29  1  0  0  0  0
  9 30  1  0  0  0  0
  9 31  1  0  0  0  0
 10 32  1  0  0  0  0
 10 33  1  0  0  0  0
 11 12  1  0  0  0  0
 11 34  1  0  0  0  0
 11 35  1  0  0  0  0
 12 36  1  0  0  0  0
 12 37  1  0  0  0  0
 14 16  1  0  0  0  0
 14 38  1  0  0  0  0
 14 39  1  0  0  0  0
 15 17  1  0  0  0  0
 15 40  1  0  0  0  0
 15 41  1  0  0  0  0
 16 18  2  0  0  0  0
 16 19  1  0  0  0  0
 17 20  2  0  0  0  0
 17 21  1  0  0  0  0
 18 22  1  0  0  0  0
 18 42  1  0  0  0  0
 19 23  2  0  0  0  0
 19 43  1  0  0  0  0
 20 24  1  0  0  0  0
 20 44  1  0  0  0  0
 21 25  2  0  0  0  0
 21 45  1  0  0  0  0
 22 26  2  0  0  0  0
 22 46  1  0  0  0  0
 23 26  1  0  0  0  0
 23 47  1  0  0  0  0
 24 27  2  0  0  0  0
 24 48  1  0  0  0  0
 25 27  1  0  0  0  0
 25 49  1  0  0  0  0
 26 28  1  0  0  0  0
M  END
> <PUBCHEM_COMPOUND_CID>
75368604

> <PUBCHEM_CONFORMER_RMSD>
0.8

> <PUBCHEM_CONFORMER_DIVERSEORDER>
1
13
73
9
41
57
49
40
75
61
59
38
39
74
54
44
32
63
46
67
51
33
66
26
45
15
22
24
14
65
25
64
47
37
10
55
21
6
72
42
20
2
30
17
27
58
35
36
34
16
12
71
60
52
28
18
3
70
48
53
68
7
50
29
43
19
5
56
11
23
4
31
62
8
69

> <PUBCHEM_MMFF94_PARTIAL_CHARGES>
37
1 -0.19
10 0.3
11 0.3
12 0.27
13 0.69
14 0.41
15 0.44
16 -0.14
17 -0.14
18 -0.15
19 -0.15
2 -0.57
20 -0.15
21 -0.15
22 -0.15
23 -0.15
24 -0.15
25 -0.15
26 0.09
27 0.19
28 0.63
3 -0.65
4 -0.57
42 0.15
43 0.15
44 0.15
45 0.15
46 0.15
47 0.15
48 0.15
49 0.15
5 -0.66
50 0.5
6 -0.81
7 -0.66
8 0.3
9 0.27

> <PUBCHEM_EFFECTIVE_ROTOR_COUNT>
6.2

> <PUBCHEM_PHARMACOPHORE_FEATURES>
9
1 2 acceptor
1 3 acceptor
1 4 acceptor
1 6 cation
3 3 4 28 anion
5 5 7 8 10 13 rings
6 16 18 19 22 23 26 rings
6 17 20 21 24 25 27 rings
6 5 6 8 9 11 12 rings

> <PUBCHEM_HEAVY_ATOM_COUNT>
28

> <PUBCHEM_ATOM_DEF_STEREO_COUNT>
1

> <PUBCHEM_ATOM_UDEF_STEREO_COUNT>
0

> <PUBCHEM_BOND_DEF_STEREO_COUNT>
0

> <PUBCHEM_BOND_UDEF_STEREO_COUNT>
0

> <PUBCHEM_ISOTOPIC_ATOM_COUNT>
0

> <PUBCHEM_COMPONENT_COUNT>
1

> <PUBCHEM_CACTVS_TAUTO_COUNT>
1

> <PUBCHEM_CONFORMER_ID>
047E089C00000001

> <PUBCHEM_MMFF94_ENERGY>
70.9985

> <PUBCHEM_FEATURE_SELFOVERLAP>
45.825

> <PUBCHEM_SHAPE_FINGERPRINT>
10670039 82 16153698809514776269
10939801 23 18059289997903200580
11399510 152 17273400679144213834
11796584 16 17168147892106242704
11809386 21 18341620313419845553
1200032 147 12031775986605217790
12390115 104 11818998491723321817
13533116 47 18335144193979662488
13782708 43 18187367657847556423
13885169 86 11167642301280392506
13914758 101 18260547793354553349
14068700 675 18337390448621271144
14150023 79 17981889954028777048
14347332 77 18412831287546574129
14848178 5 18187654574494843266
15119646 104 18409455769278860819
15183329 4 16370723725275725833
15188451 53 18337388249824790818
15350500 16 18411127022400013866
15475509 8 15213298604020122863
17857418 61 18336273374734844096
19304671 126 15213304165897159615
19958102 18 17095243600968431807
20028762 73 18342742875658064814
20567600 234 16558745745844044760
21049683 118 16267967960423991224
21315763 87 16558757801680393631
21315764 119 17458062690349892023
21458453 9 15410313568245690322
23559900 14 18267302230928929521
3004659 81 18342190984865070548
3014063 24 18335700503729151226
397830 11 12319741380116778805
4339292 15 16588865648224864050
437795 70 14923945604969179694
439807 62 18269279122860771807
4408954 87 17203313529844012638
474113 269 18338226068568032287
5085150 59 18060700568469873287
5104073 3 18059309733141321897
531348 171 18259985943018319821
57035037 87 11459006321012595166
5718773 13 18412260636384306367
59682541 52 17894914061401087701
6438161 24 18343579673142321511
8988823 20 18408889555567305260
96874 4 18409443670119221738
9689198 14 9295285079642357051

> <PUBCHEM_SHAPE_MULTIPOLES>
536.4
19.61
3.37
1.54
12.59
0.3
-0.08
-18.95
0.74
-2.04
-0.58
-0.81
-0.09
-3

> <PUBCHEM_SHAPE_SELFOVERLAP>
1159.495

> <PUBCHEM_SHAPE_VOLUME>
295.2

> <PUBCHEM_COORDINATE_TYPE>
2
5
10

$$$$
