44716814
  -OEChem-12032416383D

 64 69  0     1  0  0  0  0  0999 V2000
    2.7479   -3.1509    1.8509 O   0  0  0  0  0  0  0  0  0  0  0  0
    0.9257   -0.6427    2.2055 O   0  0  0  0  0  0  0  0  0  0  0  0
    5.9342   -0.3431    1.0685 O   0  0  0  0  0  0  0  0  0  0  0  0
    0.3587   -3.4175   -0.0984 N   0  0  0  0  0  0  0  0  0  0  0  0
    3.7323    0.3270    1.2870 N   0  0  0  0  0  0  0  0  0  0  0  0
    5.1813    1.6607    0.1049 N   0  0  0  0  0  0  0  0  0  0  0  0
   -1.5634   -2.2075   -0.5850 N   0  0  0  0  0  0  0  0  0  0  0  0
   -0.6445   -3.7822   -2.1609 N   0  0  0  0  0  0  0  0  0  0  0  0
    1.2273   -1.4893    1.0835 C   0  0  1  0  0  0  0  0  0  0  0  0
    2.6897   -1.8752    1.1913 C   0  0  1  0  0  0  0  0  0  0  0  0
    0.4890   -2.8015    1.2040 C   0  0  2  0  0  0  0  0  0  0  0  0
    3.2897   -0.8013    2.0699 C   0  0  2  0  0  0  0  0  0  0  0  0
    1.4129   -3.6237    2.0836 C   0  0  0  0  0  0  0  0  0  0  0  0
    2.1232   -0.4256    2.9664 C   0  0  0  0  0  0  0  0  0  0  0  0
   -0.6615   -3.1236   -0.9864 C   0  0  0  0  0  0  0  0  0  0  0  0
    5.0488    0.4760    0.8347 C   0  0  0  0  0  0  0  0  0  0  0  0
   -2.5412   -1.9429   -1.4763 C   0  0  0  0  0  0  0  0  0  0  0  0
    6.3444    2.1718   -0.5167 C   0  0  0  0  0  0  0  0  0  0  0  0
   -1.6504   -3.4692   -3.0038 C   0  0  0  0  0  0  0  0  0  0  0  0
   -2.6362   -2.5486   -2.7126 C   0  0  0  0  0  0  0  0  0  0  0  0
   -3.5098   -0.9614   -1.0501 C   0  0  0  0  0  0  0  0  0  0  0  0
    6.2907    3.3819   -1.2084 C   0  0  0  0  0  0  0  0  0  0  0  0
    7.5447    1.4652   -0.4393 C   0  0  0  0  0  0  0  0  0  0  0  0
   -4.8572   -1.3085   -0.9513 C   0  0  0  0  0  0  0  0  0  0  0  0
   -3.0986    0.3341   -0.7363 C   0  0  0  0  0  0  0  0  0  0  0  0
    7.4373    3.8857   -1.8226 C   0  0  0  0  0  0  0  0  0  0  0  0
    8.6913    1.9691   -1.0536 C   0  0  0  0  0  0  0  0  0  0  0  0
   -5.7933   -0.3603   -0.5387 C   0  0  0  0  0  0  0  0  0  0  0  0
   -4.0347    1.2825   -0.3240 C   0  0  0  0  0  0  0  0  0  0  0  0
   -5.3821    0.9353   -0.2253 C   0  0  0  0  0  0  0  0  0  0  0  0
    8.6376    3.1794   -1.7451 C   0  0  0  0  0  0  0  0  0  0  0  0
   -6.3533    1.9189    0.2019 C   0  0  0  0  0  0  0  0  0  0  0  0
   -6.9903    2.7256   -0.7411 C   0  0  0  0  0  0  0  0  0  0  0  0
   -6.6517    2.0611    1.5572 C   0  0  0  0  0  0  0  0  0  0  0  0
   -7.9261    3.6744   -0.3289 C   0  0  0  0  0  0  0  0  0  0  0  0
   -7.5874    3.0101    1.9693 C   0  0  0  0  0  0  0  0  0  0  0  0
   -8.2248    3.8165    1.0262 C   0  0  0  0  0  0  0  0  0  0  0  0
    1.0059   -0.9168    0.1771 H   0  0  0  0  0  0  0  0  0  0  0  0
    3.1763   -1.9870    0.2170 H   0  0  0  0  0  0  0  0  0  0  0  0
   -0.4880   -2.7156    1.6934 H   0  0  0  0  0  0  0  0  0  0  0  0
    4.1317   -1.1652    2.6684 H   0  0  0  0  0  0  0  0  0  0  0  0
    1.1920   -3.4584    3.1439 H   0  0  0  0  0  0  0  0  0  0  0  0
    1.3712   -4.7000    1.8894 H   0  0  0  0  0  0  0  0  0  0  0  0
    2.0749   -1.0825    3.8419 H   0  0  0  0  0  0  0  0  0  0  0  0
    2.1490    0.6114    3.3148 H   0  0  0  0  0  0  0  0  0  0  0  0
    1.0702   -4.0659   -0.4162 H   0  0  0  0  0  0  0  0  0  0  0  0
    3.0426    1.0129    0.9949 H   0  0  0  0  0  0  0  0  0  0  0  0
    4.3454    2.2311    0.0050 H   0  0  0  0  0  0  0  0  0  0  0  0
   -1.6411   -3.9958   -3.9522 H   0  0  0  0  0  0  0  0  0  0  0  0
   -3.4223   -2.3263   -3.4238 H   0  0  0  0  0  0  0  0  0  0  0  0
    5.3617    3.9423   -1.2766 H   0  0  0  0  0  0  0  0  0  0  0  0
    7.6653    0.5232    0.0765 H   0  0  0  0  0  0  0  0  0  0  0  0
   -5.1981   -2.3143   -1.1857 H   0  0  0  0  0  0  0  0  0  0  0  0
   -2.0529    0.6240   -0.8099 H   0  0  0  0  0  0  0  0  0  0  0  0
    7.3956    4.8279   -2.3612 H   0  0  0  0  0  0  0  0  0  0  0  0
    9.6267    1.4200   -0.9943 H   0  0  0  0  0  0  0  0  0  0  0  0
   -6.8396   -0.6478   -0.4659 H   0  0  0  0  0  0  0  0  0  0  0  0
   -3.6973    2.2880   -0.0839 H   0  0  0  0  0  0  0  0  0  0  0  0
    9.5304    3.5717   -2.2233 H   0  0  0  0  0  0  0  0  0  0  0  0
   -6.7692    2.6279   -1.8014 H   0  0  0  0  0  0  0  0  0  0  0  0
   -6.1641    1.4407    2.3054 H   0  0  0  0  0  0  0  0  0  0  0  0
   -8.4222    4.3025   -1.0629 H   0  0  0  0  0  0  0  0  0  0  0  0
   -7.8200    3.1210    3.0244 H   0  0  0  0  0  0  0  0  0  0  0  0
   -8.9534    4.5552    1.3471 H   0  0  0  0  0  0  0  0  0  0  0  0
  1 10  1  0  0  0  0
  1 13  1  0  0  0  0
  2  9  1  0  0  0  0
  2 14  1  0  0  0  0
  3 16  2  0  0  0  0
  4 11  1  0  0  0  0
  4 15  1  0  0  0  0
  4 46  1  0  0  0  0
  5 12  1  0  0  0  0
  5 16  1  0  0  0  0
  5 47  1  0  0  0  0
  6 16  1  0  0  0  0
  6 18  1  0  0  0  0
  6 48  1  0  0  0  0
  7 15  1  0  0  0  0
  7 17  2  0  0  0  0
  8 15  2  0  0  0  0
  8 19  1  0  0  0  0
  9 10  1  0  0  0  0
  9 11  1  0  0  0  0
  9 38  1  0  0  0  0
 10 12  1  0  0  0  0
 10 39  1  0  0  0  0
 11 13  1  0  0  0  0
 11 40  1  0  0  0  0
 12 14  1  0  0  0  0
 12 41  1  0  0  0  0
 13 42  1  0  0  0  0
 13 43  1  0  0  0  0
 14 44  1  0  0  0  0
 14 45  1  0  0  0  0
 17 20  1  0  0  0  0
 17 21  1  0  0  0  0
 18 22  2  0  0  0  0
 18 23  1  0  0  0  0
 19 20  2  0  0  0  0
 19 49  1  0  0  0  0
 20 50  1  0  0  0  0
 21 24  2  0  0  0  0
 21 25  1  0  0  0  0
 22 26  1  0  0  0  0
 22 51  1  0  0  0  0
 23 27  2  0  0  0  0
 23 52  1  0  0  0  0
 24 28  1  0  0  0  0
 24 53  1  0  0  0  0
 25 29  2  0  0  0  0
 25 54  1  0  0  0  0
 26 31  2  0  0  0  0
 26 55  1  0  0  0  0
 27 31  1  0  0  0  0
 27 56  1  0  0  0  0
 28 30  2  0  0  0  0
 28 57  1  0  0  0  0
 29 30  1  0  0  0  0
 29 58  1  0  0  0  0
 30 32  1  0  0  0  0
 31 59  1  0  0  0  0
 32 33  2  0  0  0  0
 32 34  1  0  0  0  0
 33 35  1  0  0  0  0
 33 60  1  0  0  0  0
 34 36  2  0  0  0  0
 34 61  1  0  0  0  0
 35 37  2  0  0  0  0
 35 62  1  0  0  0  0
 36 37  1  0  0  0  0
 36 63  1  0  0  0  0
 37 64  1  0  0  0  0
M  END
> <PUBCHEM_COMPOUND_CID>
44716814

> <PUBCHEM_CONFORMER_RMSD>
1

> <PUBCHEM_CONFORMER_DIVERSEORDER>
1
150
305
291
142
157
202
250
284
183
260
180
261
47
201
117
37
52
80
311
184
139
309
185
45
163
287
332
330
72
82
204
283
314
279
299
320
285
265
125
235
21
118
29
197
216
322
171
308
249
40
324
209
62
85
288
331
99
192
147
48
234
239
211
193
144
13
92
241
271
206
10
295
278
199
240
253
273
194
274
207
6
321
49
166
127
289
255
214
272
113
262
129
159
319
178
146
96
286
173
106
71
138
307
325
141
298
120
77
130
270
28
182
187
145
208
225
317
154
17
160
41
318
103
30
244
100
164
175
140
68
252
101
26
220
61
238
232
59
259
153
98
133
245
229
25
304
19
242
222
290
44
254
310
161
236
203
97
148
294
165
104
42
297
73
326
300
156
114
219
22
46
328
158
306
155
18
177
143
243
134
74
221
60
110
210
323
200
227
168
152
167
281
195
43
149
280
35
135
303
218
327
132
248
224
122
57
170
151
223
196
316
301
70
237
95
292
136
247
105
312
264
246
9
228
188
123
112
189
14
87
111
128
39
329
58
63
266
4
213
190
277
251
67
89
86
90
119
84
267
275
268
233
24
66
276
31
293
174
102
162
81
79
256
296
93
32
20
181
169
108
198
69
55
205
126
212
27
16
91
76
131
50
33
172
78
258
186
34
257
217
12
176
263
107
11
38
54
75
53
109
230
313
51
94
56
121
315
302
15
116
215
179
64
191
8
2
83
282
5
137
23
88
124
231
115
226
269
36
3
65
7

> <PUBCHEM_MMFF94_PARTIAL_CHARGES>
53
1 -0.56
10 0.28
11 0.37
12 0.3
13 0.28
14 0.28
15 0.72
16 0.69
17 0.31
18 0.12
19 0.16
2 -0.56
20 -0.15
22 -0.15
23 -0.15
24 -0.15
25 -0.15
26 -0.15
27 -0.15
28 -0.15
29 -0.15
3 -0.57
31 -0.15
33 -0.15
34 -0.15
35 -0.15
36 -0.15
37 -0.15
4 -0.87
46 0.4
47 0.37
48 0.37
49 0.15
5 -0.73
50 0.15
51 0.15
52 0.15
53 0.15
54 0.15
55 0.15
56 0.15
57 0.15
58 0.15
59 0.15
6 -0.55
60 0.15
61 0.15
62 0.15
63 0.15
64 0.15
7 -0.62
8 -0.62
9 0.28

> <PUBCHEM_EFFECTIVE_ROTOR_COUNT>
9.2

> <PUBCHEM_PHARMACOPHORE_FEATURES>
14
1 1 acceptor
1 2 acceptor
1 3 acceptor
1 4 donor
1 5 donor
1 6 donor
1 7 acceptor
4 4 7 8 15 cation
5 1 9 10 11 13 rings
5 2 9 10 12 14 rings
6 18 22 23 26 27 31 rings
6 21 24 25 28 29 30 rings
6 32 33 34 35 36 37 rings
6 7 8 15 17 19 20 rings

> <PUBCHEM_HEAVY_ATOM_COUNT>
37

> <PUBCHEM_ATOM_DEF_STEREO_COUNT>
4

> <PUBCHEM_ATOM_UDEF_STEREO_COUNT>
0

> <PUBCHEM_BOND_DEF_STEREO_COUNT>
0

> <PUBCHEM_BOND_UDEF_STEREO_COUNT>
0

> <PUBCHEM_ISOTOPIC_ATOM_COUNT>
0

> <PUBCHEM_COMPONENT_COUNT>
1

> <PUBCHEM_CACTVS_TAUTO_COUNT>
9

> <PUBCHEM_CONFORMER_ID>
02AA530E00000001

> <PUBCHEM_MMFF94_ENERGY>
121.9794

> <PUBCHEM_FEATURE_SELFOVERLAP>
71.807

> <PUBCHEM_SHAPE_FINGERPRINT>
10920273 25 18272102577872700329
10952577 141 18341901800554367532
11374522 174 18129947763648021197
11374522 72 18264766563741990725
11410812 94 18129943520542196444
11478447 62 12319466463793227236
11505856 67 18267575991828411519
1200032 147 18341897359352006682
12013929 29 18261675982611366460
12061779 8 18334293206144609188
12975358 362 18055076455015131761
13165054 27 17972058056264496881
13383665 225 18060135432820982871
13782708 43 9438817501703345697
14017578 193 17754190983131381804
14114211 68 17703229503994081603
14150022 121 17242743227442468634
14394314 77 18260268563987297989
14664723 55 18271815566223870928
15145343 16 18272097063229189561
15198563 99 17485903532031365063
15357212 105 18411139117170558487
15406563 185 16702010947160732009
16067689 134 18410576223331696244
16120349 67 18340491161664136178
16992727 255 18341895221123035488
16993427 108 8430311320859021053
18339144 43 16881060003569443100
19309040 13 18335420166407292163
19315092 285 9223226368776217507
21136928 129 17678192666858577588
21223535 225 18194960971301784084
21772528 278 17604149337054694554
23522609 53 18409158922551277466
23569914 152 17844545331718999790
24771750 20 17774726342654403223
25025965 108 12534256043072929388
3552219 110 18045203093805588639
3610482 184 18267575978774451030
38570 142 18261950847300949394
3986486 107 16845575292342234064
42767 23 11815901128101255240
4408954 87 14851606591551791976
44280116 191 18201438013074045825
44880568 143 17914330428253834104
57527293 21 18190728753536085339
57634706 229 17822860913271834010
5911458 16 18334858346409941348
6695519 79 16153974803227175715
6698420 124 17968659428074995146
6703917 75 18335422425697623235

> <PUBCHEM_SHAPE_MULTIPOLES>
718.93
26.94
6.26
2.71
13.61
0.08
-0.17
-49.68
4.38
-1.14
1.99
0.87
2.03
-9.07

> <PUBCHEM_SHAPE_SELFOVERLAP>
1591.906

> <PUBCHEM_SHAPE_VOLUME>
382.2

> <PUBCHEM_COORDINATE_TYPE>
2
5
10

$$$$
