11886261
  -OEChem-12032416373D

 56 61  0     1  0  0  0  0  0999 V2000
   -1.9842   -2.7869    0.7383 O   0  0  0  0  0  0  0  0  0  0  0  0
   -1.5244   -1.4081   -2.0508 O   0  0  0  0  0  0  0  0  0  0  0  0
    2.8297   -0.7687   -0.2175 O   0  0  0  0  0  0  0  0  0  0  0  0
   -5.9881   -1.2214    0.4823 O   0  0  0  0  0  0  0  0  0  0  0  0
    0.6932   -0.8942    0.8053 N   0  0  0  0  0  0  0  0  0  0  0  0
   -4.3513   -0.6524   -1.0483 N   0  0  0  0  0  0  0  0  0  0  0  0
    0.1053   -0.4399    1.9159 N   0  0  0  0  0  0  0  0  0  0  0  0
    2.2297    0.2306    1.8269 N   0  0  0  0  0  0  0  0  0  0  0  0
    1.0524    0.2496    2.5401 N   0  0  0  0  0  0  0  0  0  0  0  0
   -6.1243    0.7760   -0.7436 N   0  0  0  0  0  0  0  0  0  0  0  0
    8.0672    1.0178   -0.2239 N   0  0  0  0  0  0  0  0  0  0  0  0
    9.0650    0.3048    0.3293 N   0  0  0  0  0  0  0  0  0  0  0  0
    9.8387    2.2627   -0.5655 N   0  0  0  0  0  0  0  0  0  0  0  0
   -1.2834   -1.0103   -0.6888 C   0  0  1  0  0  0  0  0  0  0  0  0
   -2.4259   -1.5553    0.1459 C   0  0  1  0  0  0  0  0  0  0  0  0
   -0.0485   -1.7129   -0.1573 C   0  0  2  0  0  0  0  0  0  0  0  0
   -3.5271   -1.8210   -0.8558 C   0  0  2  0  0  0  0  0  0  0  0  0
   -0.6093   -3.0164    0.4007 C   0  0  0  0  0  0  0  0  0  0  0  0
   -2.7467   -2.1562   -2.1132 C   0  0  0  0  0  0  0  0  0  0  0  0
    1.9826   -0.4857    0.7544 C   0  0  0  0  0  0  0  0  0  0  0  0
   -5.5455   -0.4341   -0.3507 C   0  0  0  0  0  0  0  0  0  0  0  0
    4.1433   -0.3203   -0.2186 C   0  0  0  0  0  0  0  0  0  0  0  0
   -7.3281    1.3542   -0.2777 C   0  0  0  0  0  0  0  0  0  0  0  0
    4.4367    0.8949   -0.8071 C   0  0  0  0  0  0  0  0  0  0  0  0
    5.1193   -1.1025    0.3682 C   0  0  0  0  0  0  0  0  0  0  0  0
   -7.7404    2.5717   -0.7942 C   0  0  0  0  0  0  0  0  0  0  0  0
   -8.0706    0.6906    0.6852 C   0  0  0  0  0  0  0  0  0  0  0  0
    5.7569    1.3451   -0.8091 C   0  0  0  0  0  0  0  0  0  0  0  0
    6.4396   -0.6522    0.3664 C   0  0  0  0  0  0  0  0  0  0  0  0
    6.7583    0.5715   -0.2223 C   0  0  0  0  0  0  0  0  0  0  0  0
   -8.9281    3.1414   -0.3352 C   0  0  0  0  0  0  0  0  0  0  0  0
   -9.2584    1.2601    1.1441 C   0  0  0  0  0  0  0  0  0  0  0  0
   -9.6870    2.4855    0.6339 C   0  0  0  0  0  0  0  0  0  0  0  0
    8.5419    2.1822   -0.7533 C   0  0  0  0  0  0  0  0  0  0  0  0
   10.1115    1.0998    0.0963 C   0  0  0  0  0  0  0  0  0  0  0  0
   -1.2264    0.0829   -0.6771 H   0  0  0  0  0  0  0  0  0  0  0  0
   -2.7161   -0.8860    0.9622 H   0  0  0  0  0  0  0  0  0  0  0  0
    0.6618   -1.9440   -0.9600 H   0  0  0  0  0  0  0  0  0  0  0  0
   -4.1693   -2.6600   -0.5672 H   0  0  0  0  0  0  0  0  0  0  0  0
   -0.5918   -3.8028   -0.3619 H   0  0  0  0  0  0  0  0  0  0  0  0
   -0.0759   -3.3823    1.2832 H   0  0  0  0  0  0  0  0  0  0  0  0
   -3.2749   -1.9130   -3.0402 H   0  0  0  0  0  0  0  0  0  0  0  0
   -2.4781   -3.2181   -2.1370 H   0  0  0  0  0  0  0  0  0  0  0  0
   -4.0174    0.0771   -1.6710 H   0  0  0  0  0  0  0  0  0  0  0  0
   -5.6259    1.3107   -1.4506 H   0  0  0  0  0  0  0  0  0  0  0  0
    3.6581    1.4973   -1.2652 H   0  0  0  0  0  0  0  0  0  0  0  0
    4.8730   -2.0558    0.8258 H   0  0  0  0  0  0  0  0  0  0  0  0
   -7.1568    3.0907   -1.5495 H   0  0  0  0  0  0  0  0  0  0  0  0
   -7.8072   -0.2581    1.1286 H   0  0  0  0  0  0  0  0  0  0  0  0
    5.9473    2.3035   -1.2809 H   0  0  0  0  0  0  0  0  0  0  0  0
    7.1902   -1.2843    0.8336 H   0  0  0  0  0  0  0  0  0  0  0  0
   -9.2619    4.0955   -0.7325 H   0  0  0  0  0  0  0  0  0  0  0  0
   -9.8505    0.7506    1.8989 H   0  0  0  0  0  0  0  0  0  0  0  0
  -10.6118    2.9290    0.9913 H   0  0  0  0  0  0  0  0  0  0  0  0
    7.9498    2.9344   -1.2550 H   0  0  0  0  0  0  0  0  0  0  0  0
   11.1041    0.8229    0.4186 H   0  0  0  0  0  0  0  0  0  0  0  0
  1 15  1  0  0  0  0
  1 18  1  0  0  0  0
  2 14  1  0  0  0  0
  2 19  1  0  0  0  0
  3 20  1  0  0  0  0
  3 22  1  0  0  0  0
  4 21  2  0  0  0  0
  5  7  1  0  0  0  0
  5 16  1  0  0  0  0
  5 20  1  0  0  0  0
  6 17  1  0  0  0  0
  6 21  1  0  0  0  0
  6 44  1  0  0  0  0
  7  9  2  0  0  0  0
  8  9  1  0  0  0  0
  8 20  2  0  0  0  0
 10 21  1  0  0  0  0
 10 23  1  0  0  0  0
 10 45  1  0  0  0  0
 11 12  1  0  0  0  0
 11 30  1  0  0  0  0
 11 34  1  0  0  0  0
 12 35  2  0  0  0  0
 13 34  2  0  0  0  0
 13 35  1  0  0  0  0
 14 15  1  0  0  0  0
 14 16  1  0  0  0  0
 14 36  1  0  0  0  0
 15 17  1  0  0  0  0
 15 37  1  0  0  0  0
 16 18  1  0  0  0  0
 16 38  1  0  0  0  0
 17 19  1  0  0  0  0
 17 39  1  0  0  0  0
 18 40  1  0  0  0  0
 18 41  1  0  0  0  0
 19 42  1  0  0  0  0
 19 43  1  0  0  0  0
 22 24  2  0  0  0  0
 22 25  1  0  0  0  0
 23 26  2  0  0  0  0
 23 27  1  0  0  0  0
 24 28  1  0  0  0  0
 24 46  1  0  0  0  0
 25 29  2  0  0  0  0
 25 47  1  0  0  0  0
 26 31  1  0  0  0  0
 26 48  1  0  0  0  0
 27 32  2  0  0  0  0
 27 49  1  0  0  0  0
 28 30  2  0  0  0  0
 28 50  1  0  0  0  0
 29 30  1  0  0  0  0
 29 51  1  0  0  0  0
 31 33  2  0  0  0  0
 31 52  1  0  0  0  0
 32 33  1  0  0  0  0
 32 53  1  0  0  0  0
 33 54  1  0  0  0  0
 34 55  1  0  0  0  0
 35 56  1  0  0  0  0
M  END
> <PUBCHEM_COMPOUND_CID>
11886261

> <PUBCHEM_CONFORMER_RMSD>
1

> <PUBCHEM_CONFORMER_DIVERSEORDER>
1
283
248
195
367
369
104
31
59
96
378
154
228
327
74
267
188
209
82
102
254
282
339
287
15
42
334
297
147
161
17
160
122
14
329
50
363
266
41
205
78
350
201
53
105
377
126
123
243
337
129
311
148
384
125
383
141
197
180
252
44
22
262
155
307
386
279
216
280
136
229
341
90
258
88
240
52
336
84
344
121
163
89
349
323
370
55
202
43
9
359
26
371
318
174
305
372
146
290
95
176
12
292
111
385
75
66
253
193
374
208
302
373
214
298
71
324
259
178
365
169
69
133
128
276
166
357
260
333
301
23
171
366
300
106
70
189
213
360
83
381
134
60
393
87
182
113
97
274
157
210
304
119
269
81
375
317
273
380
79
132
28
130
265
204
255
263
183
278
230
215
242
312
221
34
306
16
352
392
376
48
107
76
173
313
65
331
340
218
289
167
150
354
308
261
241
314
346
91
187
325
170
153
77
67
30
309
272
61
390
4
299
159
19
98
143
207
296
118
321
27
315
225
239
10
156
64
320
194
8
217
165
391
233
345
135
142
51
211
319
177
131
158
342
223
199
348
382
281
285
144
115
92
190
21
32
54
236
389
63
127
286
24
332
100
219
72
388
310
112
351
387
20
162
358
368
62
294
326
361
226
57
175
58
222
120
232
227
275
264
238
168
116
40
224
145
46
220
250
303
364
200
13
237
295
347
231
33
284
212
94
235
110
114
37
244
99
291
277
356
29
343
68
109
25
164
86
185
45
247
322
47
49
293
6
234
152
117
139
103
3
138
11
251
353
7
181
196
355
184
80
245
246
101
186
38
288
249
179
2
379
73
35
172
140
203
137
330
85
151
257
149
206
316
362
124
108
271
335
192
328
36
191
39
5
268
93
198
256
18
56
338
270

> <PUBCHEM_MMFF94_PARTIAL_CHARGES>
47
1 -0.56
10 -0.55
11 0.59
12 -0.71
13 -0.57
14 0.28
15 0.28
16 0.26
17 0.3
18 0.28
19 0.28
2 -0.56
20 0.25
21 0.69
22 0.08
23 0.12
24 -0.15
25 -0.15
26 -0.15
27 -0.15
28 -0.15
29 -0.15
3 -0.15
30 -0.02
31 -0.15
32 -0.15
33 -0.15
34 0.04
35 0.37
4 -0.57
44 0.37
45 0.37
46 0.15
47 0.15
48 0.15
49 0.15
5 0.31
50 0.15
51 0.15
52 0.15
53 0.15
54 0.15
55 0.15
56 0.15
6 -0.73
7 -0.42
8 -0.34

> <PUBCHEM_EFFECTIVE_ROTOR_COUNT>
9.2

> <PUBCHEM_PHARMACOPHORE_FEATURES>
14
1 1 acceptor
1 10 donor
1 2 acceptor
1 4 acceptor
1 6 donor
3 11 13 34 cation
3 12 13 35 cation
3 5 8 20 cation
5 1 14 15 16 18 rings
5 11 12 13 34 35 rings
5 2 14 15 17 19 rings
5 5 7 8 9 20 rings
6 22 24 25 28 29 30 rings
6 23 26 27 31 32 33 rings

> <PUBCHEM_HEAVY_ATOM_COUNT>
35

> <PUBCHEM_ATOM_DEF_STEREO_COUNT>
4

> <PUBCHEM_ATOM_UDEF_STEREO_COUNT>
0

> <PUBCHEM_BOND_DEF_STEREO_COUNT>
0

> <PUBCHEM_BOND_UDEF_STEREO_COUNT>
0

> <PUBCHEM_ISOTOPIC_ATOM_COUNT>
0

> <PUBCHEM_COMPONENT_COUNT>
1

> <PUBCHEM_CACTVS_TAUTO_COUNT>
3

> <PUBCHEM_CONFORMER_ID>
00B55EB500000001

> <PUBCHEM_MMFF94_ENERGY>
93.3571

> <PUBCHEM_FEATURE_SELFOVERLAP>
74.53

> <PUBCHEM_SHAPE_FINGERPRINT>
10 15 18040999498085824169
10190206 1 17418099780729033985
10674148 151 18412541037709013528
10883706 17 11167641215133968005
11181472 205 18411138018507477216
11386260 185 15267047173134033067
11411753 3 16700312347334445283
11478447 62 12685385114928220009
11621639 179 17916580934844253233
11621639 336 18192711150640509969
12838862 33 16200426971379438438
12838863 1 8358247143443882449
13383668 90 13038902206625308785
13530399 1 18335706096141198188
14117953 113 15410897375335371276
15183329 4 16774078462451507539
15198563 99 15123519073049744011
15347590 135 15068337891608346013
15392192 104 11746932080676438560
15510800 12 10809631360043403649
15690457 1 9727635003588738892
1577012 14 18410004438276482615
15890870 6 18412543177204087269
16087824 20 18411138009142998497
16728433 281 17774167773541366977
19302320 297 18114185241560211172
19315958 150 18412548678250215454
20105231 36 10737272530295842320
2026 5 9655571908215416621
20505436 4 18409161100416714315
20721686 146 18341894027465045077
21095123 293 18335421265903193141
212700 22 8430316835914378345
21360443 89 8646769976386442708
21362267 313 18410568493534210600
21781055 127 18410565172723001882
21987483 16 8646182862398511687
22149856 69 14490752270448226103
23389318 12 11887669607211542922
23528940 14 9079125440946852508
23576562 1 16486391318221845953
24771293 8 18333450950283420495
3178227 256 15068625985044731326
3633792 109 18413393129820601678
3711267 37 18336557057325622157
3986486 107 16917347022563858289
4339292 15 9511463307827250822
44389302 135 8213880171363297900
44426699 302 18338514132763625058
44802255 64 17775566459900953975
4516262 110 18336537211056597047
474113 269 11096164136684206608
4760202 170 16773506777136143568
54076057 127 16950558844716637218
58260988 521 12901543542274401378
59682541 35 13695591061339815789
636783 132 14979662356970684192
6698420 124 17895195558358978808
9689198 14 18261396624789268571
9953998 17 16877947148806115075

> <PUBCHEM_SHAPE_MULTIPOLES>
651.98
36.17
2.97
1.46
8.59
0.2
0.23
39.93
-0.75
-4.24
-0.57
-0.73
-0.33
-1.68

> <PUBCHEM_SHAPE_SELFOVERLAP>
1442.365

> <PUBCHEM_SHAPE_VOLUME>
349.8

> <PUBCHEM_COORDINATE_TYPE>
2
5
10

$$$$
