11912424
  -OEChem-12032416383D

 44 45  0     1  0  0  0  0  0999 V2000
    1.7872   -0.0868    1.4058 S   0  0  0  0  0  0  0  0  0  0  0  0
    1.8451   -1.4039    2.0017 O   0  0  0  0  0  0  0  0  0  0  0  0
    2.0762    1.0983    2.1838 O   0  0  0  0  0  0  0  0  0  0  0  0
   -5.7300   -0.1155   -1.1609 O   0  0  0  0  0  0  0  0  0  0  0  0
    4.4008    0.4476   -1.4177 O   0  0  0  0  0  0  0  0  0  0  0  0
   -5.0963    1.0011    0.7185 O   0  0  0  0  0  0  0  0  0  0  0  0
    0.2686    0.1112    0.6361 N   0  0  1  0  0  0  0  0  0  0  0  0
    3.7544   -0.6665   -1.9391 N   0  0  0  0  0  0  0  0  0  0  0  0
   -2.1798   -0.3157    0.6316 C   0  0  2  0  0  0  0  0  0  0  0  0
   -2.3733    0.9318   -0.2644 C   0  0  1  0  0  0  0  0  0  0  0  0
   -0.9225   -0.1461    1.4996 C   0  0  0  0  0  0  0  0  0  0  0  0
   -1.1041    1.2455   -1.0712 C   0  0  0  0  0  0  0  0  0  0  0  0
    0.1187    1.3584   -0.1665 C   0  0  0  0  0  0  0  0  0  0  0  0
   -2.1253   -1.6394   -0.1421 C   0  0  0  0  0  0  0  0  0  0  0  0
   -3.5869    0.8267   -1.1877 C   0  0  0  0  0  0  0  0  0  0  0  0
   -2.0764   -2.8219    0.8019 C   0  0  0  0  0  0  0  0  0  0  0  0
    2.8486   -0.0844   -0.0046 C   0  0  0  0  0  0  0  0  0  0  0  0
   -4.8563    0.6056   -0.4124 C   0  0  0  0  0  0  0  0  0  0  0  0
    3.8286    0.7845   -0.2337 C   0  0  0  0  0  0  0  0  0  0  0  0
    2.8072   -0.9661   -1.0457 C   0  0  0  0  0  0  0  0  0  0  0  0
    4.3979    1.9502    0.4552 C   0  0  0  0  0  0  0  0  0  0  0  0
    1.9176   -2.1145   -1.2880 C   0  0  0  0  0  0  0  0  0  0  0  0
   -3.0276   -0.3756    1.3259 H   0  0  0  0  0  0  0  0  0  0  0  0
   -2.5429    1.7851    0.4094 H   0  0  0  0  0  0  0  0  0  0  0  0
   -1.0569    0.7129    2.1703 H   0  0  0  0  0  0  0  0  0  0  0  0
   -0.7544   -1.0131    2.1424 H   0  0  0  0  0  0  0  0  0  0  0  0
   -1.2336    2.1868   -1.6187 H   0  0  0  0  0  0  0  0  0  0  0  0
   -0.9327    0.4642   -1.8221 H   0  0  0  0  0  0  0  0  0  0  0  0
    0.9889    1.5351   -0.8025 H   0  0  0  0  0  0  0  0  0  0  0  0
    0.0140    2.2178    0.5063 H   0  0  0  0  0  0  0  0  0  0  0  0
   -3.0261   -1.7563   -0.7527 H   0  0  0  0  0  0  0  0  0  0  0  0
   -1.2720   -1.6782   -0.8260 H   0  0  0  0  0  0  0  0  0  0  0  0
   -3.7135    1.7594   -1.7503 H   0  0  0  0  0  0  0  0  0  0  0  0
   -3.4502    0.0268   -1.9231 H   0  0  0  0  0  0  0  0  0  0  0  0
   -2.2567   -3.7469    0.2430 H   0  0  0  0  0  0  0  0  0  0  0  0
   -1.0969   -2.9319    1.2757 H   0  0  0  0  0  0  0  0  0  0  0  0
   -2.8419   -2.7534    1.5814 H   0  0  0  0  0  0  0  0  0  0  0  0
   -6.5714   -0.2794   -0.6840 H   0  0  0  0  0  0  0  0  0  0  0  0
    4.7334    1.6808    1.4614 H   0  0  0  0  0  0  0  0  0  0  0  0
    5.2611    2.3514   -0.0857 H   0  0  0  0  0  0  0  0  0  0  0  0
    3.6559    2.7504    0.5376 H   0  0  0  0  0  0  0  0  0  0  0  0
    0.9847   -1.7791   -1.7513 H   0  0  0  0  0  0  0  0  0  0  0  0
    1.6721   -2.6419   -0.3621 H   0  0  0  0  0  0  0  0  0  0  0  0
    2.3817   -2.8433   -1.9616 H   0  0  0  0  0  0  0  0  0  0  0  0
  1  2  2  0  0  0  0
  1  3  2  0  0  0  0
  1  7  1  0  0  0  0
  1 17  1  0  0  0  0
  4 18  1  0  0  0  0
  4 38  1  0  0  0  0
  5  8  1  0  0  0  0
  5 19  1  0  0  0  0
  6 18  2  0  0  0  0
  7 11  1  0  0  0  0
  7 13  1  0  0  0  0
  8 20  2  0  0  0  0
  9 10  1  0  0  0  0
  9 11  1  0  0  0  0
  9 14  1  0  0  0  0
  9 23  1  0  0  0  0
 10 12  1  0  0  0  0
 10 15  1  0  0  0  0
 10 24  1  0  0  0  0
 11 25  1  0  0  0  0
 11 26  1  0  0  0  0
 12 13  1  0  0  0  0
 12 27  1  0  0  0  0
 12 28  1  0  0  0  0
 13 29  1  0  0  0  0
 13 30  1  0  0  0  0
 14 16  1  0  0  0  0
 14 31  1  0  0  0  0
 14 32  1  0  0  0  0
 15 18  1  0  0  0  0
 15 33  1  0  0  0  0
 15 34  1  0  0  0  0
 16 35  1  0  0  0  0
 16 36  1  0  0  0  0
 16 37  1  0  0  0  0
 17 19  2  0  0  0  0
 17 20  1  0  0  0  0
 19 21  1  0  0  0  0
 20 22  1  0  0  0  0
 21 39  1  0  0  0  0
 21 40  1  0  0  0  0
 21 41  1  0  0  0  0
 22 42  1  0  0  0  0
 22 43  1  0  0  0  0
 22 44  1  0  0  0  0
M  END
> <PUBCHEM_COMPOUND_CID>
11912424

> <PUBCHEM_CONFORMER_RMSD>
0.8

> <PUBCHEM_CONFORMER_DIVERSEORDER>
1
75
9
70
84
45
97
126
33
47
35
108
72
118
53
61
17
26
52
81
18
15
48
29
98
65
71
7
87
66
20
110
99
68
124
120
32
92
62
74
14
44
83
127
86
57
38
5
40
78
106
80
63
101
59
36
49
30
107
88
16
77
23
112
42
102
114
55
22
54
89
82
24
115
95
13
67
119
90
31
34
69
25
100
91
21
79
105
111
113
116
28
4
85
50
76
73
125
122
10
27
19
43
128
58
117
3
46
12
123
37
41
94
60
39
56
121
64
109
96
8
129
11
104
2
6
51
103
93

> <PUBCHEM_MMFF94_PARTIAL_CHARGES>
18
1 1.5
11 0.36
13 0.36
15 0.06
17 -0.06
18 0.66
19 -0.04
2 -0.65
20 0.11
21 0.18
22 0.18
3 -0.65
38 0.5
4 -0.65
5 -0.02
6 -0.57
7 -0.85
8 -0.41

> <PUBCHEM_EFFECTIVE_ROTOR_COUNT>
6.2

> <PUBCHEM_PHARMACOPHORE_FEATURES>
9
1 16 hydrophobe
1 2 acceptor
1 3 acceptor
1 4 acceptor
1 6 acceptor
1 8 acceptor
3 4 6 18 anion
5 5 8 17 19 20 rings
6 7 9 10 11 12 13 rings

> <PUBCHEM_HEAVY_ATOM_COUNT>
22

> <PUBCHEM_ATOM_DEF_STEREO_COUNT>
2

> <PUBCHEM_ATOM_UDEF_STEREO_COUNT>
0

> <PUBCHEM_BOND_DEF_STEREO_COUNT>
0

> <PUBCHEM_BOND_UDEF_STEREO_COUNT>
0

> <PUBCHEM_ISOTOPIC_ATOM_COUNT>
0

> <PUBCHEM_COMPONENT_COUNT>
1

> <PUBCHEM_CACTVS_TAUTO_COUNT>
1

> <PUBCHEM_CONFORMER_ID>
00B5C4E800000001

> <PUBCHEM_MMFF94_ENERGY>
35.8569

> <PUBCHEM_FEATURE_SELFOVERLAP>
45.747

> <PUBCHEM_SHAPE_FINGERPRINT>
10366900 7 17989209252209164272
10498660 4 18260550043136675039
11140007 195 10087642606750255988
11640471 11 16443069400134805566
12236239 1 15719393953783399168
12616999 72 18131346393233919606
12788726 201 18270679762344263129
12969540 114 18113609080740366255
14251764 38 12685084848683722503
14573314 32 17988924487793809569
15375358 24 18411982481037319038
15635459 17 18410577266786280868
17357779 13 17913481613028459855
17980427 23 17314227959454242084
18186145 218 18130212784325140761
18222031 100 12679459776906999009
19784866 240 14836412414628930956
200 152 16415479341889607517
20645477 70 17132116835934428684
20871999 31 18334861674940945823
22149856 69 16806184151065763857
23227448 37 17822301248419410677
23402539 116 17967816098176660076
23503958 8 12247411068034041774
23557571 272 18263088875767732962
23559900 14 18410860962672390638
238 59 17489585675543242702
2838139 119 17244447492926834204
3323516 105 17846208926422612919
3472631 163 17822572814759103788
34934 24 17749105612480878413
59755656 520 15719400555153473482
633830 44 18130214970542751905
960060 61 17275386503731791932

> <PUBCHEM_SHAPE_MULTIPOLES>
417.29
9.83
2.04
1.76
6.08
1.16
0.27
-3.18
-2.98
0.04
0.06
-1.22
0.27
0.99

> <PUBCHEM_SHAPE_SELFOVERLAP>
846.544

> <PUBCHEM_SHAPE_VOLUME>
245

> <PUBCHEM_COORDINATE_TYPE>
2
5
10

$$$$
