11883069
  -OEChem-12032416133D

 67 70  0     1  0  0  0  0  0999 V2000
    0.4158    2.8335    0.1336 S   0  0  0  0  0  0  0  0  0  0  0  0
   -6.9345    0.2160   -0.7300 O   0  0  0  0  0  0  0  0  0  0  0  0
   -6.6709    2.0633    0.7741 O   0  0  0  0  0  0  0  0  0  0  0  0
    0.6944   -2.2354   -1.3811 O   0  0  0  0  0  0  0  0  0  0  0  0
    3.8543   -0.2421   -0.1541 O   0  0  0  0  0  0  0  0  0  0  0  0
    5.3098    2.9799    0.1453 O   0  0  0  0  0  0  0  0  0  0  0  0
    0.9936    0.3193   -0.0603 N   0  0  0  0  0  0  0  0  0  0  0  0
    1.0297   -3.7870    0.3100 N   0  0  0  0  0  0  0  0  0  0  0  0
    2.8472    1.8580    0.0201 N   0  0  0  0  0  0  0  0  0  0  0  0
   -2.7634   -0.4429    0.3542 C   0  0  2  0  0  0  0  0  0  0  0  0
   -3.1976    0.9185   -0.3482 C   0  0  1  0  0  0  0  0  0  0  0  0
   -4.7392    1.2512   -0.3733 C   0  0  1  0  0  0  0  0  0  0  0  0
   -1.2738   -0.7851   -0.1121 C   0  0  1  0  0  0  0  0  0  0  0  0
   -3.6980   -1.5872   -0.1170 C   0  0  0  0  0  0  0  0  0  0  0  0
   -5.5285   -0.0116   -0.8207 C   0  0  1  0  0  0  0  0  0  0  0  0
   -2.3070    2.1075    0.1168 C   0  0  0  0  0  0  0  0  0  0  0  0
   -5.1799   -1.2561   -0.0118 C   0  0  0  0  0  0  0  0  0  0  0  0
   -2.8138   -0.3648    1.9000 C   0  0  0  0  0  0  0  0  0  0  0  0
   -0.3841    0.4277   -0.0172 C   0  0  0  0  0  0  0  0  0  0  0  0
   -5.2965    1.8067    0.9560 C   0  0  0  0  0  0  0  0  0  0  0  0
   -5.0015    2.3596   -1.4319 C   0  0  0  0  0  0  0  0  0  0  0  0
   -0.8685    1.7173    0.0664 C   0  0  0  0  0  0  0  0  0  0  0  0
   -0.6479   -1.9973    0.5907 C   0  0  0  0  0  0  0  0  0  0  0  0
    0.4126   -2.6688   -0.2608 C   0  0  0  0  0  0  0  0  0  0  0  0
    1.5192    1.5225    0.0194 C   0  0  0  0  0  0  0  0  0  0  0  0
    2.0714   -4.5441   -0.3800 C   0  0  0  0  0  0  0  0  0  0  0  0
    0.6798   -4.2808    1.6362 C   0  0  0  0  0  0  0  0  0  0  0  0
    3.9506    0.9797   -0.0652 C   0  0  0  0  0  0  0  0  0  0  0  0
    3.4032   -3.9626   -0.0400 C   0  0  0  0  0  0  0  0  0  0  0  0
    5.2719    1.6287    0.0067 C   0  0  0  0  0  0  0  0  0  0  0  0
    4.2608   -3.4822   -0.9476 C   0  0  0  0  0  0  0  0  0  0  0  0
    6.5459    1.1121   -0.0409 C   0  0  0  0  0  0  0  0  0  0  0  0
    7.4227    2.2168    0.0760 C   0  0  0  0  0  0  0  0  0  0  0  0
    6.6222    3.3298    0.1868 C   0  0  0  0  0  0  0  0  0  0  0  0
   -2.9414    0.7615   -1.4104 H   0  0  0  0  0  0  0  0  0  0  0  0
   -1.3459   -1.0025   -1.1883 H   0  0  0  0  0  0  0  0  0  0  0  0
   -3.5157   -2.5022    0.4577 H   0  0  0  0  0  0  0  0  0  0  0  0
   -3.4773   -1.8344   -1.1639 H   0  0  0  0  0  0  0  0  0  0  0  0
   -5.3098   -0.2120   -1.8781 H   0  0  0  0  0  0  0  0  0  0  0  0
   -2.5595    2.4096    1.1387 H   0  0  0  0  0  0  0  0  0  0  0  0
   -2.4675    2.9747   -0.5326 H   0  0  0  0  0  0  0  0  0  0  0  0
   -5.4891   -1.1392    1.0327 H   0  0  0  0  0  0  0  0  0  0  0  0
   -5.7650   -2.1061   -0.3860 H   0  0  0  0  0  0  0  0  0  0  0  0
   -2.1716    0.4236    2.3021 H   0  0  0  0  0  0  0  0  0  0  0  0
   -3.8182   -0.2021    2.2855 H   0  0  0  0  0  0  0  0  0  0  0  0
   -2.4825   -1.3048    2.3554 H   0  0  0  0  0  0  0  0  0  0  0  0
   -4.8082    2.7430    1.2426 H   0  0  0  0  0  0  0  0  0  0  0  0
   -5.2084    1.1047    1.7813 H   0  0  0  0  0  0  0  0  0  0  0  0
   -4.5487    2.0968   -2.3951 H   0  0  0  0  0  0  0  0  0  0  0  0
   -4.5865    3.3246   -1.1231 H   0  0  0  0  0  0  0  0  0  0  0  0
   -6.0700    2.5148   -1.6184 H   0  0  0  0  0  0  0  0  0  0  0  0
   -0.2002   -1.6857    1.5418 H   0  0  0  0  0  0  0  0  0  0  0  0
   -1.4128   -2.7550    0.7814 H   0  0  0  0  0  0  0  0  0  0  0  0
   -7.3840   -0.5796   -1.0625 H   0  0  0  0  0  0  0  0  0  0  0  0
   -7.0121    2.4216    1.6110 H   0  0  0  0  0  0  0  0  0  0  0  0
    3.0380    2.8540    0.0969 H   0  0  0  0  0  0  0  0  0  0  0  0
    2.0204   -5.5967   -0.0820 H   0  0  0  0  0  0  0  0  0  0  0  0
    1.8836   -4.4927   -1.4586 H   0  0  0  0  0  0  0  0  0  0  0  0
    1.5827   -4.3051    2.2540 H   0  0  0  0  0  0  0  0  0  0  0  0
   -0.0695   -3.6966    2.1669 H   0  0  0  0  0  0  0  0  0  0  0  0
    0.2963   -5.3009    1.5310 H   0  0  0  0  0  0  0  0  0  0  0  0
    3.7013   -3.9500    1.0053 H   0  0  0  0  0  0  0  0  0  0  0  0
    5.2200   -3.0812   -0.6386 H   0  0  0  0  0  0  0  0  0  0  0  0
    4.0240   -3.4770   -2.0057 H   0  0  0  0  0  0  0  0  0  0  0  0
    6.8139    0.0704   -0.1465 H   0  0  0  0  0  0  0  0  0  0  0  0
    8.5030    2.2035    0.0791 H   0  0  0  0  0  0  0  0  0  0  0  0
    6.8209    4.3859    0.2959 H   0  0  0  0  0  0  0  0  0  0  0  0
  1 22  1  0  0  0  0
  1 25  1  0  0  0  0
  2 15  1  0  0  0  0
  2 54  1  0  0  0  0
  3 20  1  0  0  0  0
  3 55  1  0  0  0  0
  4 24  2  0  0  0  0
  5 28  2  0  0  0  0
  6 30  1  0  0  0  0
  6 34  1  0  0  0  0
  7 19  1  0  0  0  0
  7 25  2  0  0  0  0
  8 24  1  0  0  0  0
  8 26  1  0  0  0  0
  8 27  1  0  0  0  0
  9 25  1  0  0  0  0
  9 28  1  0  0  0  0
  9 56  1  0  0  0  0
 10 11  1  0  0  0  0
 10 13  1  0  0  0  0
 10 14  1  0  0  0  0
 10 18  1  0  0  0  0
 11 12  1  0  0  0  0
 11 16  1  0  0  0  0
 11 35  1  0  0  0  0
 12 15  1  0  0  0  0
 12 20  1  0  0  0  0
 12 21  1  0  0  0  0
 13 19  1  0  0  0  0
 13 23  1  0  0  0  0
 13 36  1  0  0  0  0
 14 17  1  0  0  0  0
 14 37  1  0  0  0  0
 14 38  1  0  0  0  0
 15 17  1  0  0  0  0
 15 39  1  0  0  0  0
 16 22  1  0  0  0  0
 16 40  1  0  0  0  0
 16 41  1  0  0  0  0
 17 42  1  0  0  0  0
 17 43  1  0  0  0  0
 18 44  1  0  0  0  0
 18 45  1  0  0  0  0
 18 46  1  0  0  0  0
 19 22  2  0  0  0  0
 20 47  1  0  0  0  0
 20 48  1  0  0  0  0
 21 49  1  0  0  0  0
 21 50  1  0  0  0  0
 21 51  1  0  0  0  0
 23 24  1  0  0  0  0
 23 52  1  0  0  0  0
 23 53  1  0  0  0  0
 26 29  1  0  0  0  0
 26 57  1  0  0  0  0
 26 58  1  0  0  0  0
 27 59  1  0  0  0  0
 27 60  1  0  0  0  0
 27 61  1  0  0  0  0
 28 30  1  0  0  0  0
 29 31  2  0  0  0  0
 29 62  1  0  0  0  0
 30 32  2  0  0  0  0
 31 63  1  0  0  0  0
 31 64  1  0  0  0  0
 32 33  1  0  0  0  0
 32 65  1  0  0  0  0
 33 34  2  0  0  0  0
 33 66  1  0  0  0  0
 34 67  1  0  0  0  0
M  END
> <PUBCHEM_COMPOUND_CID>
11883069

> <PUBCHEM_CONFORMER_RMSD>
1

> <PUBCHEM_CONFORMER_DIVERSEORDER>
1
29
21
13
30
28
22
23
31
11
20
26
16
27
3
24
15
5
9
17
7
12
14
4
25
19
10
8
18
2
6

> <PUBCHEM_MMFF94_PARTIAL_CHARGES>
36
1 -0.08
13 0.18
15 0.28
16 0.18
19 0.05
2 -0.68
20 0.28
22 -0.14
23 0.06
24 0.57
25 0.44
26 0.44
27 0.3
28 0.71
29 -0.29
3 -0.68
30 0.05
31 -0.3
32 -0.15
33 -0.15
34 -0.01
4 -0.57
5 -0.57
54 0.4
55 0.4
56 0.37
6 -0.28
62 0.15
63 0.15
64 0.15
65 0.15
66 0.15
67 0.15
7 -0.57
8 -0.66
9 -0.49

> <PUBCHEM_EFFECTIVE_ROTOR_COUNT>
10.2

> <PUBCHEM_PHARMACOPHORE_FEATURES>
13
1 2 acceptor
1 2 donor
1 3 acceptor
1 3 donor
1 31 hydrophobe
1 4 acceptor
1 5 acceptor
1 6 acceptor
1 9 donor
5 1 7 19 22 25 rings
5 6 30 32 33 34 rings
6 10 11 12 14 15 17 rings
6 10 11 13 16 19 22 rings

> <PUBCHEM_HEAVY_ATOM_COUNT>
34

> <PUBCHEM_ATOM_DEF_STEREO_COUNT>
5

> <PUBCHEM_ATOM_UDEF_STEREO_COUNT>
0

> <PUBCHEM_BOND_DEF_STEREO_COUNT>
0

> <PUBCHEM_BOND_UDEF_STEREO_COUNT>
0

> <PUBCHEM_ISOTOPIC_ATOM_COUNT>
0

> <PUBCHEM_COMPONENT_COUNT>
1

> <PUBCHEM_CACTVS_TAUTO_COUNT>
3

> <PUBCHEM_CONFORMER_ID>
00B5523D00000001

> <PUBCHEM_MMFF94_ENERGY>
93.2607

> <PUBCHEM_FEATURE_SELFOVERLAP>
66.118

> <PUBCHEM_SHAPE_FINGERPRINT>
10050765 1 18194681459004035829
10675989 125 18339645543007207656
10864689 126 18268997665148547224
10906281 52 18335434468816997881
10940486 97 17829894587817860108
11007060 377 18125721429190582520
11135609 187 18413105095552922616
11135926 11 18411132515926897261
11136131 41 18334566924732448962
11315181 36 18338800130087456641
11578080 2 17315336061047959909
11719270 70 18411693297491201824
1361 2 18409731755577601808
14028597 1 17774461441850200187
14659021 117 17479719955702926550
14790565 3 18337955696292927508
14856354 85 16081643495524571160
15183329 4 18334287695195315744
15200665 1 17980478185350715602
15400415 2 18339079423500251716
15439362 3 18337389344772198483
15775530 1 17682094609173789309
15815584 197 18265638574386663263
15927050 60 18341328993883201302
16067689 302 18413390956504152031
16719943 64 18337388374479062714
18681886 176 18264761241623389737
20554085 129 18059277851841189530
20642791 35 18266182729531905679
20721686 56 18337395929263668130
20771845 165 18042959887830754141
21133665 82 18410857703282641422
21344244 246 18411131442401266671
21360443 120 18408605872908423382
23559900 14 18194675961155499755
244849 19 17824004272120313643
3298306 158 18411421734761024758
3383291 50 18193274311194177818
3411729 13 18410855430317007606
4017518 198 18271531996326539502
4073 2 18410016550379156193
5085150 59 18338786923125500362
5265222 85 18193560193124228140
532947 4 18410015412076088322
5385378 56 18338805524407637889
5776283 40 18338250297723481646
59755656 215 18411982472436835197
6036956 94 17615127020287365588
6371380 46 18271239551723961536
6376802 90 17967808307306555853
6669772 16 18411136935579977326
99344 41 18411979157239248396
9961470 85 18411701020043314802
9981440 41 18261117408501366371

> <PUBCHEM_SHAPE_MULTIPOLES>
659.26
16.46
5.63
1.04
6.47
6.57
-0.18
-15.05
1.23
7.79
-0.24
-0.88
0.4
0.9

> <PUBCHEM_SHAPE_SELFOVERLAP>
1387.806

> <PUBCHEM_SHAPE_VOLUME>
374.5

> <PUBCHEM_COORDINATE_TYPE>
2
5
10

$$$$
