75536947
  -OEChem-12032416333D

 48 50  0     1  0  0  0  0  0999 V2000
   -0.4488   -3.2985    0.5583 O   0  0  0  0  0  0  0  0  0  0  0  0
    0.9699   -0.3377    0.0196 O   0  0  0  0  0  0  0  0  0  0  0  0
   -5.8904    1.6028    0.6271 O   0  0  0  0  0  0  0  0  0  0  0  0
   -1.2281    1.3619   -1.0899 O   0  0  0  0  0  0  0  0  0  0  0  0
    6.2549    1.1689    0.5146 O   0  0  0  0  0  0  0  0  0  0  0  0
   -1.7232   -0.8632   -0.6943 N   0  0  0  0  0  0  0  0  0  0  0  0
   -3.3374    0.8657   -0.3151 N   0  0  0  0  0  0  0  0  0  0  0  0
   -0.6023   -1.3424   -1.5147 C   0  0  0  0  0  0  0  0  0  0  0  0
    0.7119   -1.5119   -0.7497 C   0  0  2  0  0  0  0  0  0  0  0  0
   -2.3150   -1.8155    0.2569 C   0  0  0  0  0  0  0  0  0  0  0  0
    0.7988   -2.7546    0.1432 C   0  0  0  0  0  0  0  0  0  0  0  0
   -2.0446    0.5075   -0.7228 C   0  0  0  0  0  0  0  0  0  0  0  0
   -4.5524    0.2814   -0.8960 C   0  0  0  0  0  0  0  0  0  0  0  0
   -3.5537    2.1715    0.3042 C   0  0  0  0  0  0  0  0  0  0  0  0
   -1.2939   -2.3802    1.2366 C   0  0  0  0  0  0  0  0  0  0  0  0
   -5.6781    0.2785    0.1274 C   0  0  0  0  0  0  0  0  0  0  0  0
   -4.7204    2.1035    1.2802 C   0  0  0  0  0  0  0  0  0  0  0  0
    2.2793    0.0356    0.1422 C   0  0  0  0  0  0  0  0  0  0  0  0
    3.0279    0.3376   -0.9953 C   0  0  0  0  0  0  0  0  0  0  0  0
    2.8665    0.1148    1.4049 C   0  0  0  0  0  0  0  0  0  0  0  0
    4.3638    0.7183   -0.8703 C   0  0  0  0  0  0  0  0  0  0  0  0
    4.2026    0.4955    1.5301 C   0  0  0  0  0  0  0  0  0  0  0  0
    4.9512    0.7973    0.3925 C   0  0  0  0  0  0  0  0  0  0  0  0
    6.9614    1.4633   -0.6897 C   0  0  0  0  0  0  0  0  0  0  0  0
   -0.9035   -2.2792   -1.9977 H   0  0  0  0  0  0  0  0  0  0  0  0
   -0.4419   -0.6107   -2.3161 H   0  0  0  0  0  0  0  0  0  0  0  0
    1.4923   -1.6382   -1.5117 H   0  0  0  0  0  0  0  0  0  0  0  0
   -2.7683   -2.6173   -0.3366 H   0  0  0  0  0  0  0  0  0  0  0  0
   -3.1002   -1.3233    0.8355 H   0  0  0  0  0  0  0  0  0  0  0  0
    1.2860   -3.5556   -0.4245 H   0  0  0  0  0  0  0  0  0  0  0  0
    1.4149   -2.5815    1.0326 H   0  0  0  0  0  0  0  0  0  0  0  0
   -4.3535   -0.7228   -1.2800 H   0  0  0  0  0  0  0  0  0  0  0  0
   -4.8189    0.9120   -1.7530 H   0  0  0  0  0  0  0  0  0  0  0  0
   -3.7688    2.8781   -0.5062 H   0  0  0  0  0  0  0  0  0  0  0  0
   -2.6400    2.5004    0.8105 H   0  0  0  0  0  0  0  0  0  0  0  0
   -0.7239   -1.5987    1.7520 H   0  0  0  0  0  0  0  0  0  0  0  0
   -1.8279   -2.9542    2.0014 H   0  0  0  0  0  0  0  0  0  0  0  0
   -6.6094   -0.0586   -0.3379 H   0  0  0  0  0  0  0  0  0  0  0  0
   -5.4590   -0.3921    0.9664 H   0  0  0  0  0  0  0  0  0  0  0  0
   -4.4856    1.4614    2.1375 H   0  0  0  0  0  0  0  0  0  0  0  0
   -4.9495    3.1028    1.6629 H   0  0  0  0  0  0  0  0  0  0  0  0
    2.5801    0.3022   -1.9850 H   0  0  0  0  0  0  0  0  0  0  0  0
    2.2879   -0.1195    2.2943 H   0  0  0  0  0  0  0  0  0  0  0  0
    4.8855    0.9434   -1.7942 H   0  0  0  0  0  0  0  0  0  0  0  0
    4.6546    0.5551    2.5164 H   0  0  0  0  0  0  0  0  0  0  0  0
    7.0364    0.5834   -1.3377 H   0  0  0  0  0  0  0  0  0  0  0  0
    7.9823    1.7393   -0.4062 H   0  0  0  0  0  0  0  0  0  0  0  0
    6.5296    2.3257   -1.2088 H   0  0  0  0  0  0  0  0  0  0  0  0
  1 11  1  0  0  0  0
  1 15  1  0  0  0  0
  2  9  1  0  0  0  0
  2 18  1  0  0  0  0
  3 16  1  0  0  0  0
  3 17  1  0  0  0  0
  4 12  2  0  0  0  0
  5 23  1  0  0  0  0
  5 24  1  0  0  0  0
  6  8  1  0  0  0  0
  6 10  1  0  0  0  0
  6 12  1  0  0  0  0
  7 12  1  0  0  0  0
  7 13  1  0  0  0  0
  7 14  1  0  0  0  0
  8  9  1  0  0  0  0
  8 25  1  0  0  0  0
  8 26  1  0  0  0  0
  9 11  1  0  0  0  0
  9 27  1  0  0  0  0
 10 15  1  0  0  0  0
 10 28  1  0  0  0  0
 10 29  1  0  0  0  0
 11 30  1  0  0  0  0
 11 31  1  0  0  0  0
 13 16  1  0  0  0  0
 13 32  1  0  0  0  0
 13 33  1  0  0  0  0
 14 17  1  0  0  0  0
 14 34  1  0  0  0  0
 14 35  1  0  0  0  0
 15 36  1  0  0  0  0
 15 37  1  0  0  0  0
 16 38  1  0  0  0  0
 16 39  1  0  0  0  0
 17 40  1  0  0  0  0
 17 41  1  0  0  0  0
 18 19  2  0  0  0  0
 18 20  1  0  0  0  0
 19 21  1  0  0  0  0
 19 42  1  0  0  0  0
 20 22  2  0  0  0  0
 20 43  1  0  0  0  0
 21 23  2  0  0  0  0
 21 44  1  0  0  0  0
 22 23  1  0  0  0  0
 22 45  1  0  0  0  0
 24 46  1  0  0  0  0
 24 47  1  0  0  0  0
 24 48  1  0  0  0  0
M  END
> <PUBCHEM_COMPOUND_CID>
75536947

> <PUBCHEM_CONFORMER_RMSD>
0.8

> <PUBCHEM_CONFORMER_DIVERSEORDER>
2
51
98
122
119
68
111
132
6
30
70
150
21
53
61
131
140
120
108
143
57
101
129
81
33
65
20
125
134
26
148
22
126
147
99
35
115
144
67
7
69
149
72
93
79
75
90
82
138
133
112
50
74
85
139
124
137
62
128
4
118
52
11
95
54
97
86
121
117
94
103
114
5
80
8
100
25
107
110
39
34
102
105
44
66
46
38
141
104
15
109
63
136
116
27
47
60
41
91
146
113
3
13
37
19
87
84
55
76
18
89
151
96
56
32
1
43
71
24
10
40
45
31
12
130
14
127
92
36
17
42
142
123
145
16
9
64
83
77
73
78
23
106
58
28
49
29
135
48
59
88

> <PUBCHEM_MMFF94_PARTIAL_CHARGES>
28
1 -0.56
10 0.3
11 0.28
12 0.69
13 0.3
14 0.3
15 0.28
16 0.28
17 0.28
18 0.08
19 -0.15
2 -0.36
20 -0.15
21 -0.15
22 -0.15
23 0.08
24 0.28
3 -0.56
4 -0.57
42 0.15
43 0.15
44 0.15
45 0.15
5 -0.36
6 -0.66
7 -0.66
8 0.3
9 0.28

> <PUBCHEM_EFFECTIVE_ROTOR_COUNT>
7.6

> <PUBCHEM_PHARMACOPHORE_FEATURES>
8
1 1 acceptor
1 2 acceptor
1 3 acceptor
1 4 acceptor
1 5 acceptor
6 18 19 20 21 22 23 rings
6 3 7 13 14 16 17 rings
7 1 6 8 9 10 11 15 rings

> <PUBCHEM_HEAVY_ATOM_COUNT>
24

> <PUBCHEM_ATOM_DEF_STEREO_COUNT>
1

> <PUBCHEM_ATOM_UDEF_STEREO_COUNT>
0

> <PUBCHEM_BOND_DEF_STEREO_COUNT>
0

> <PUBCHEM_BOND_UDEF_STEREO_COUNT>
0

> <PUBCHEM_ISOTOPIC_ATOM_COUNT>
0

> <PUBCHEM_COMPONENT_COUNT>
1

> <PUBCHEM_CACTVS_TAUTO_COUNT>
1

> <PUBCHEM_CONFORMER_ID>
04809A3300000002

> <PUBCHEM_MMFF94_ENERGY>
91.344

> <PUBCHEM_FEATURE_SELFOVERLAP>
40.601

> <PUBCHEM_SHAPE_FINGERPRINT>
10493431 412 18408888425626636597
10692045 39 18269260271780052162
12166972 35 12967125025683289464
12236239 1 17676479592991548934
12390115 104 18412552023813194370
12596602 18 17385438821542244137
12633257 1 18113616806711584181
12760667 363 9799695904366531829
12892183 10 16298939849429783916
13583140 156 15791720910816014871
13885169 86 18337113470560319244
14251752 14 12175630555358313555
14341114 328 17894628153896853665
14347332 77 9799152733181016476
14787075 74 18342455933503775961
15183329 4 15123514687539876185
18222031 100 8358253761249312062
18785283 64 18116991083718223826
200 152 12679187137152503406
20567600 254 18409722942156868077
21033648 29 17916857050017945800
21756936 100 18412538847096175310
22224240 67 18407761435130436129
23559900 14 18263098646887624782
2838139 119 17917702496290574216
392239 28 18339653321456406961
4098825 35 15841283566507375877
427121 178 18338524032024087583
474 4 18408888404299376309
5104073 3 18334861571856580051
5385378 56 18338798910274189410
58807428 26 18113335284617119595
59682541 35 18337116752515765977
59682541 52 16558191488751774996
59755656 520 18412539916379735902
7495541 125 11169909494836738358
7808743 9 18410855477382053040

> <PUBCHEM_SHAPE_MULTIPOLES>
454.6
14.09
2.72
1.32
7.99
1.82
-0.12
-12.28
-1.26
-1.97
-0.65
0.34
0
-0.6

> <PUBCHEM_SHAPE_SELFOVERLAP>
945.387

> <PUBCHEM_SHAPE_VOLUME>
254.2

> <PUBCHEM_COORDINATE_TYPE>
2
5
10

$$$$
