28991350
  -OEChem-12032416173D

 66 71  0     1  0  0  0  0  0999 V2000
    0.2819   -4.8805    3.4790 Cl  0  0  0  0  0  0  0  0  0  0  0  0
   -3.2220   -2.0183   -2.3561 O   0  0  0  0  0  0  0  0  0  0  0  0
   -1.2879   -0.7875   -2.6413 O   0  0  0  0  0  0  0  0  0  0  0  0
   -0.8707   -0.6120    0.0568 N   0  0  2  0  0  0  0  0  0  0  0  0
    2.6670    1.6896    0.7623 N   0  0  0  0  0  0  0  0  0  0  0  0
   -2.5471    2.7488    0.1083 N   0  0  0  0  0  0  0  0  0  0  0  0
    7.4877    1.5866    0.7365 N   0  0  0  0  0  0  0  0  0  0  0  0
    8.1195    2.0271   -1.3464 N   0  0  0  0  0  0  0  0  0  0  0  0
   -0.8904    0.8401   -0.3005 C   0  0  2  0  0  0  0  0  0  0  0  0
    0.4272   -1.2492   -0.2816 C   0  0  1  0  0  0  0  0  0  0  0  0
    0.2420    1.5917    0.4165 C   0  0  0  0  0  0  0  0  0  0  0  0
    1.5986    0.9900    0.0508 C   0  0  2  0  0  0  0  0  0  0  0  0
    1.6055   -0.5005    0.3869 C   0  0  0  0  0  0  0  0  0  0  0  0
   -2.0715   -1.3447   -0.4300 C   0  0  1  0  0  0  0  0  0  0  0  0
   -2.2338    1.4208    0.0262 C   0  0  0  0  0  0  0  0  0  0  0  0
   -3.3891   -0.7925    0.1714 C   0  0  0  0  0  0  0  0  0  0  0  0
   -3.3877    0.6949    0.2262 C   0  0  0  0  0  0  0  0  0  0  0  0
    0.5246   -2.7183    0.1223 C   0  0  0  0  0  0  0  0  0  0  0  0
   -4.4420    1.6148    0.4759 C   0  0  0  0  0  0  0  0  0  0  0  0
   -3.8873    2.8962    0.3970 C   0  0  0  0  0  0  0  0  0  0  0  0
   -2.1216   -1.3342   -1.9319 C   0  0  0  0  0  0  0  0  0  0  0  0
    3.9441    1.4971    0.0930 C   0  0  0  0  0  0  0  0  0  0  0  0
    0.3755   -3.0855    1.4597 C   0  0  0  0  0  0  0  0  0  0  0  0
    0.7620   -3.6935   -0.8464 C   0  0  0  0  0  0  0  0  0  0  0  0
   -5.8171    1.4881    0.7573 C   0  0  0  0  0  0  0  0  0  0  0  0
   -4.6440    4.0580    0.5878 C   0  0  0  0  0  0  0  0  0  0  0  0
    5.0575    2.2648    0.8062 C   0  0  0  0  0  0  0  0  0  0  0  0
   -6.5844    2.6421    0.9521 C   0  0  0  0  0  0  0  0  0  0  0  0
    0.4636   -4.4279    1.8286 C   0  0  0  0  0  0  0  0  0  0  0  0
    0.8505   -5.0359   -0.4776 C   0  0  0  0  0  0  0  0  0  0  0  0
   -6.0049    3.9063    0.8683 C   0  0  0  0  0  0  0  0  0  0  0  0
    0.7010   -5.4032    0.8598 C   0  0  0  0  0  0  0  0  0  0  0  0
    6.3837    2.0915    0.1095 C   0  0  0  0  0  0  0  0  0  0  0  0
   -3.3936   -2.0875   -3.7753 C   0  0  0  0  0  0  0  0  0  0  0  0
    6.7982    2.3559   -1.1746 C   0  0  0  0  0  0  0  0  0  0  0  0
    8.5047    1.5667   -0.1769 C   0  0  0  0  0  0  0  0  0  0  0  0
   -0.7297    0.9887   -1.3740 H   0  0  0  0  0  0  0  0  0  0  0  0
    0.6050   -1.1826   -1.3611 H   0  0  0  0  0  0  0  0  0  0  0  0
    0.2287    2.6525    0.1337 H   0  0  0  0  0  0  0  0  0  0  0  0
    0.0873    1.5576    1.5046 H   0  0  0  0  0  0  0  0  0  0  0  0
    1.7261    1.1176   -1.0333 H   0  0  0  0  0  0  0  0  0  0  0  0
    1.5690   -0.6161    1.4791 H   0  0  0  0  0  0  0  0  0  0  0  0
    2.5448   -0.9650    0.0613 H   0  0  0  0  0  0  0  0  0  0  0  0
   -2.0146   -2.3968   -0.1280 H   0  0  0  0  0  0  0  0  0  0  0  0
   -3.4823   -1.1619    1.2014 H   0  0  0  0  0  0  0  0  0  0  0  0
   -4.2731   -1.1421   -0.3725 H   0  0  0  0  0  0  0  0  0  0  0  0
    2.4615    2.6882    0.7952 H   0  0  0  0  0  0  0  0  0  0  0  0
   -1.8995    3.5142   -0.0196 H   0  0  0  0  0  0  0  0  0  0  0  0
    4.2189    0.4364    0.0681 H   0  0  0  0  0  0  0  0  0  0  0  0
    3.8791    1.8414   -0.9473 H   0  0  0  0  0  0  0  0  0  0  0  0
    0.1795   -2.3315    2.2185 H   0  0  0  0  0  0  0  0  0  0  0  0
    0.8790   -3.4232   -1.8923 H   0  0  0  0  0  0  0  0  0  0  0  0
   -6.2832    0.5092    0.8247 H   0  0  0  0  0  0  0  0  0  0  0  0
   -4.1946    5.0432    0.5212 H   0  0  0  0  0  0  0  0  0  0  0  0
    5.1377    1.9261    1.8470 H   0  0  0  0  0  0  0  0  0  0  0  0
    4.8217    3.3363    0.8342 H   0  0  0  0  0  0  0  0  0  0  0  0
   -7.6449    2.5493    1.1704 H   0  0  0  0  0  0  0  0  0  0  0  0
    1.0350   -5.7952   -1.2318 H   0  0  0  0  0  0  0  0  0  0  0  0
   -6.6198    4.7894    1.0223 H   0  0  0  0  0  0  0  0  0  0  0  0
    0.7724   -6.4529    1.1325 H   0  0  0  0  0  0  0  0  0  0  0  0
   -4.3034   -2.6578   -3.9803 H   0  0  0  0  0  0  0  0  0  0  0  0
   -2.5446   -2.6028   -4.2345 H   0  0  0  0  0  0  0  0  0  0  0  0
   -3.5076   -1.0822   -4.1919 H   0  0  0  0  0  0  0  0  0  0  0  0
    7.5455    1.2821    1.6992 H   0  0  0  0  0  0  0  0  0  0  0  0
    6.2147    2.7672   -1.9858 H   0  0  0  0  0  0  0  0  0  0  0  0
    9.4932    1.2078    0.0720 H   0  0  0  0  0  0  0  0  0  0  0  0
  1 29  1  0  0  0  0
  2 21  1  0  0  0  0
  2 34  1  0  0  0  0
  3 21  2  0  0  0  0
  4  9  1  0  0  0  0
  4 10  1  0  0  0  0
  4 14  1  0  0  0  0
  5 12  1  0  0  0  0
  5 22  1  0  0  0  0
  5 47  1  0  0  0  0
  6 15  1  0  0  0  0
  6 20  1  0  0  0  0
  6 48  1  0  0  0  0
  7 33  1  0  0  0  0
  7 36  1  0  0  0  0
  7 64  1  0  0  0  0
  8 35  1  0  0  0  0
  8 36  2  0  0  0  0
  9 11  1  0  0  0  0
  9 15  1  0  0  0  0
  9 37  1  0  0  0  0
 10 13  1  0  0  0  0
 10 18  1  0  0  0  0
 10 38  1  0  0  0  0
 11 12  1  0  0  0  0
 11 39  1  0  0  0  0
 11 40  1  0  0  0  0
 12 13  1  0  0  0  0
 12 41  1  0  0  0  0
 13 42  1  0  0  0  0
 13 43  1  0  0  0  0
 14 16  1  0  0  0  0
 14 21  1  0  0  0  0
 14 44  1  0  0  0  0
 15 17  2  0  0  0  0
 16 17  1  0  0  0  0
 16 45  1  0  0  0  0
 16 46  1  0  0  0  0
 17 19  1  0  0  0  0
 18 23  2  0  0  0  0
 18 24  1  0  0  0  0
 19 20  1  0  0  0  0
 19 25  2  0  0  0  0
 20 26  2  0  0  0  0
 22 27  1  0  0  0  0
 22 49  1  0  0  0  0
 22 50  1  0  0  0  0
 23 29  1  0  0  0  0
 23 51  1  0  0  0  0
 24 30  2  0  0  0  0
 24 52  1  0  0  0  0
 25 28  1  0  0  0  0
 25 53  1  0  0  0  0
 26 31  1  0  0  0  0
 26 54  1  0  0  0  0
 27 33  1  0  0  0  0
 27 55  1  0  0  0  0
 27 56  1  0  0  0  0
 28 31  2  0  0  0  0
 28 57  1  0  0  0  0
 29 32  2  0  0  0  0
 30 32  1  0  0  0  0
 30 58  1  0  0  0  0
 31 59  1  0  0  0  0
 32 60  1  0  0  0  0
 33 35  2  0  0  0  0
 34 61  1  0  0  0  0
 34 62  1  0  0  0  0
 34 63  1  0  0  0  0
 35 65  1  0  0  0  0
 36 66  1  0  0  0  0
M  END
> <PUBCHEM_COMPOUND_CID>
28991350

> <PUBCHEM_CONFORMER_RMSD>
1

> <PUBCHEM_CONFORMER_DIVERSEORDER>
1
46
40
28
29
54
27
68
61
23
73
67
43
24
47
42
6
52
15
2
17
70
69
66
9
8
13
62
53
26
37
44
57
63
78
16
11
75
18
25
30
64
55
19
59
77
72
58
45
60
79
51
22
36
56
76
12
21
10
20
35
31
7
41
65
71
50
34
38
5
4
33
39
49
32
74
48
14
3

> <PUBCHEM_MMFF94_PARTIAL_CHARGES>
46
1 -0.18
10 0.41
12 0.27
14 0.33
15 -0.33
16 0.18
17 -0.18
18 -0.14
2 -0.43
20 -0.15
21 0.66
22 0.27
23 -0.15
24 -0.15
25 -0.15
26 -0.15
27 0.18
28 -0.15
29 0.18
3 -0.57
30 -0.15
31 -0.15
32 -0.15
33 -0.33
34 0.28
35 0.08
36 0.04
4 -0.81
47 0.36
48 0.27
5 -0.9
51 0.15
52 0.15
53 0.15
54 0.15
57 0.15
58 0.15
59 0.15
6 0.03
60 0.15
64 0.27
65 0.15
66 0.15
7 0.03
8 -0.57
9 0.45

> <PUBCHEM_EFFECTIVE_ROTOR_COUNT>
8.2

> <PUBCHEM_PHARMACOPHORE_FEATURES>
14
1 3 acceptor
1 4 cation
1 5 cation
1 5 donor
1 6 cation
1 6 donor
1 7 donor
3 7 8 36 cation
5 6 15 17 19 20 rings
5 7 8 33 35 36 rings
6 18 23 24 29 30 32 rings
6 19 20 25 26 28 31 rings
6 4 9 10 11 12 13 rings
6 4 9 14 15 16 17 rings

> <PUBCHEM_HEAVY_ATOM_COUNT>
36

> <PUBCHEM_ATOM_DEF_STEREO_COUNT>
4

> <PUBCHEM_ATOM_UDEF_STEREO_COUNT>
0

> <PUBCHEM_BOND_DEF_STEREO_COUNT>
0

> <PUBCHEM_BOND_UDEF_STEREO_COUNT>
0

> <PUBCHEM_ISOTOPIC_ATOM_COUNT>
0

> <PUBCHEM_COMPONENT_COUNT>
1

> <PUBCHEM_CACTVS_TAUTO_COUNT>
2

> <PUBCHEM_CONFORMER_ID>
01BA5F7600000001

> <PUBCHEM_MMFF94_ENERGY>
68.7519

> <PUBCHEM_FEATURE_SELFOVERLAP>
71.243

> <PUBCHEM_SHAPE_FINGERPRINT>
10190206 1 18201706389027848237
10290309 65 18264483984109488576
10985338 8 16986033371684737665
11007060 377 18270398424974999384
11136131 41 18118966884538150896
11227688 84 16972800096451226628
11445158 3 17459198545938335813
11828042 74 18057061284087371444
11991303 11 18188495787005793316
12608794 3 18040719220482480308
12988421 55 18040989657514298846
13540713 5 18127390295216832079
14150023 24 18335416842645638280
14790565 3 18411135836105214240
15064981 194 17826244166316523308
15064986 266 18267592493371979804
15351339 4 18059013852760398280
15361156 5 17984423216250314692
15444296 121 18189905391051752572
15448158 71 18194951955384851072
15684973 49 18271513303964124638
15927050 60 18342175544732097015
16090146 7 17968931036725862766
16628084 112 18192430771950130016
17980427 26 18190451675967601903
19304152 47 18261398836597939929
20505436 4 18272651212794400221
21133665 82 18413112758702629646
21756936 100 18410575127855650456
21772528 278 17822014237736244818
23559900 14 17906170643051850737
249999 5 18194122914926924625
3383291 50 17982441896328989862
3411729 13 18268431231010830129
4058900 60 18333724706702648618
4516262 110 18336823096553673061
5104073 3 17979366266375221081
5265222 85 18340772649679073984
563151 40 18342740736325728040
563151 97 18411128139444490757
59755656 520 18334292111011961400
6669772 16 18200884980484063740
7288768 16 18333452066595283890
9896288 288 18341056315167811147

> <PUBCHEM_SHAPE_MULTIPOLES>
706.09
16.31
7.47
2.21
29.55
10.16
1.23
-30.55
0.21
0.21
-3.69
-1.63
3.43
-3.94

> <PUBCHEM_SHAPE_SELFOVERLAP>
1542.261

> <PUBCHEM_SHAPE_VOLUME>
383.4

> <PUBCHEM_COORDINATE_TYPE>
2
5
10

$$$$
