25338564
  -OEChem-12032416223D

 52 55  0     1  0  0  0  0  0999 V2000
    7.4792   -3.7625   -0.5464 Cl  0  0  0  0  0  0  0  0  0  0  0  0
   -3.3244    2.7407   -0.9663 O   0  0  0  0  0  0  0  0  0  0  0  0
    3.5338    1.8026   -1.1334 O   0  0  0  0  0  0  0  0  0  0  0  0
   -5.0592   -4.6080    0.2509 O   0  0  0  0  0  0  0  0  0  0  0  0
   -0.6320    3.5914    1.1418 N   0  0  1  0  0  0  0  0  0  0  0  0
    1.8807    2.0677    0.4607 N   0  0  0  0  0  0  0  0  0  0  0  0
   -2.1255    1.0809   -0.0581 N   0  0  0  0  0  0  0  0  0  0  0  0
   -4.1450    1.6060   -0.9962 N   0  0  0  0  0  0  0  0  0  0  0  0
    3.2477    0.2284    0.5843 N   0  0  0  0  0  0  0  0  0  0  0  0
    1.3489    3.3073   -0.0539 C   0  0  1  0  0  0  0  0  0  0  0  0
   -1.0845    3.4044   -0.2500 C   0  0  1  0  0  0  0  0  0  0  0  0
    0.1995    3.0635   -1.0317 C   0  0  0  0  0  0  0  0  0  0  0  0
    0.7235    4.1433    1.0524 C   0  0  0  0  0  0  0  0  0  0  0  0
   -2.1549    2.3445   -0.3994 C   0  0  0  0  0  0  0  0  0  0  0  0
   -1.5172    4.4466    1.9232 C   0  0  0  0  0  0  0  0  0  0  0  0
    2.9553    1.3940   -0.1293 C   0  0  0  0  0  0  0  0  0  0  0  0
   -3.3680    0.6694   -0.4437 C   0  0  0  0  0  0  0  0  0  0  0  0
   -3.8021   -0.6858   -0.2640 C   0  0  0  0  0  0  0  0  0  0  0  0
    4.2577   -0.7244    0.3143 C   0  0  0  0  0  0  0  0  0  0  0  0
   -2.9467   -1.6216    0.3178 C   0  0  0  0  0  0  0  0  0  0  0  0
   -5.0798   -1.0682   -0.6725 C   0  0  0  0  0  0  0  0  0  0  0  0
    4.4047   -1.8383    1.1408 C   0  0  0  0  0  0  0  0  0  0  0  0
    5.1067   -0.5502   -0.7788 C   0  0  0  0  0  0  0  0  0  0  0  0
   -3.3688   -2.9397    0.4907 C   0  0  0  0  0  0  0  0  0  0  0  0
   -5.5020   -2.3864   -0.4996 C   0  0  0  0  0  0  0  0  0  0  0  0
   -4.6465   -3.3220    0.0820 C   0  0  0  0  0  0  0  0  0  0  0  0
    5.4007   -2.7778    0.8747 C   0  0  0  0  0  0  0  0  0  0  0  0
    6.1028   -1.4895   -1.0449 C   0  0  0  0  0  0  0  0  0  0  0  0
    6.2498   -2.6034   -0.2181 C   0  0  0  0  0  0  0  0  0  0  0  0
   -4.1343   -5.5127    0.8526 C   0  0  0  0  0  0  0  0  0  0  0  0
    2.1627    3.8536   -0.5437 H   0  0  0  0  0  0  0  0  0  0  0  0
   -1.4719    4.3530   -0.6493 H   0  0  0  0  0  0  0  0  0  0  0  0
    0.2076    2.0430   -1.4321 H   0  0  0  0  0  0  0  0  0  0  0  0
    0.2907    3.7513   -1.8819 H   0  0  0  0  0  0  0  0  0  0  0  0
    1.2610    4.0586    2.0029 H   0  0  0  0  0  0  0  0  0  0  0  0
    0.7004    5.1990    0.7522 H   0  0  0  0  0  0  0  0  0  0  0  0
    1.4077    1.6288    1.2450 H   0  0  0  0  0  0  0  0  0  0  0  0
   -2.5158    4.0033    1.9997 H   0  0  0  0  0  0  0  0  0  0  0  0
   -1.6182    5.4485    1.4909 H   0  0  0  0  0  0  0  0  0  0  0  0
   -1.1389    4.5514    2.9459 H   0  0  0  0  0  0  0  0  0  0  0  0
    2.6695    0.0341    1.3979 H   0  0  0  0  0  0  0  0  0  0  0  0
   -1.9454   -1.3534    0.6459 H   0  0  0  0  0  0  0  0  0  0  0  0
   -5.7740   -0.3674   -1.1296 H   0  0  0  0  0  0  0  0  0  0  0  0
    3.7496   -1.9861    1.9956 H   0  0  0  0  0  0  0  0  0  0  0  0
    5.0553    0.2846   -1.4633 H   0  0  0  0  0  0  0  0  0  0  0  0
   -2.6542   -3.6149    0.9490 H   0  0  0  0  0  0  0  0  0  0  0  0
   -6.4984   -2.6789   -0.8197 H   0  0  0  0  0  0  0  0  0  0  0  0
    5.5036   -3.6409    1.5275 H   0  0  0  0  0  0  0  0  0  0  0  0
    6.7580   -1.3419   -1.8998 H   0  0  0  0  0  0  0  0  0  0  0  0
   -4.6273   -6.4887    0.9094 H   0  0  0  0  0  0  0  0  0  0  0  0
   -3.8918   -5.2169    1.8790 H   0  0  0  0  0  0  0  0  0  0  0  0
   -3.2388   -5.6424    0.2353 H   0  0  0  0  0  0  0  0  0  0  0  0
  1 29  1  0  0  0  0
  2  8  1  0  0  0  0
  2 14  1  0  0  0  0
  3 16  2  0  0  0  0
  4 26  1  0  0  0  0
  4 30  1  0  0  0  0
  5 11  1  0  0  0  0
  5 13  1  0  0  0  0
  5 15  1  0  0  0  0
  6 10  1  0  0  0  0
  6 16  1  0  0  0  0
  6 37  1  0  0  0  0
  7 14  2  0  0  0  0
  7 17  1  0  0  0  0
  8 17  2  0  0  0  0
  9 16  1  0  0  0  0
  9 19  1  0  0  0  0
  9 41  1  0  0  0  0
 10 12  1  0  0  0  0
 10 13  1  0  0  0  0
 10 31  1  0  0  0  0
 11 12  1  0  0  0  0
 11 14  1  0  0  0  0
 11 32  1  0  0  0  0
 12 33  1  0  0  0  0
 12 34  1  0  0  0  0
 13 35  1  0  0  0  0
 13 36  1  0  0  0  0
 15 38  1  0  0  0  0
 15 39  1  0  0  0  0
 15 40  1  0  0  0  0
 17 18  1  0  0  0  0
 18 20  2  0  0  0  0
 18 21  1  0  0  0  0
 19 22  2  0  0  0  0
 19 23  1  0  0  0  0
 20 24  1  0  0  0  0
 20 42  1  0  0  0  0
 21 25  2  0  0  0  0
 21 43  1  0  0  0  0
 22 27  1  0  0  0  0
 22 44  1  0  0  0  0
 23 28  2  0  0  0  0
 23 45  1  0  0  0  0
 24 26  2  0  0  0  0
 24 46  1  0  0  0  0
 25 26  1  0  0  0  0
 25 47  1  0  0  0  0
 27 29  2  0  0  0  0
 27 48  1  0  0  0  0
 28 29  1  0  0  0  0
 28 49  1  0  0  0  0
 30 50  1  0  0  0  0
 30 51  1  0  0  0  0
 30 52  1  0  0  0  0
M  END
> <PUBCHEM_COMPOUND_CID>
25338564

> <PUBCHEM_CONFORMER_RMSD>
1

> <PUBCHEM_CONFORMER_DIVERSEORDER>
1
28
20
41
33
54
5
69
55
68
49
44
70
45
62
26
57
7
65
64
53
14
38
25
4
50
23
34
17
52
19
66
6
61
9
60
29
12
36
13
59
43
48
15
31
67
47
32
22
11
42
37
30
35
10
24
27
8
2
58
16
39
56
46
51
40
18
63
21
3

> <PUBCHEM_MMFF94_PARTIAL_CHARGES>
39
1 -0.18
10 0.3
11 0.45
13 0.27
14 0.3
15 0.27
16 0.69
17 0.46
18 0.05
19 0.12
2 -0.02
20 -0.15
21 -0.15
22 -0.15
23 -0.15
24 -0.15
25 -0.15
26 0.08
27 -0.15
28 -0.15
29 0.18
3 -0.57
30 0.28
37 0.37
4 -0.36
41 0.37
42 0.15
43 0.15
44 0.15
45 0.15
46 0.15
47 0.15
48 0.15
49 0.15
5 -0.81
6 -0.73
7 -0.57
8 -0.41
9 -0.55

> <PUBCHEM_EFFECTIVE_ROTOR_COUNT>
8

> <PUBCHEM_PHARMACOPHORE_FEATURES>
10
1 3 acceptor
1 4 acceptor
1 5 cation
1 6 donor
1 9 donor
3 7 8 17 cation
5 2 7 8 14 17 rings
5 5 10 11 12 13 rings
6 18 20 21 24 25 26 rings
6 19 22 23 27 28 29 rings

> <PUBCHEM_HEAVY_ATOM_COUNT>
30

> <PUBCHEM_ATOM_DEF_STEREO_COUNT>
2

> <PUBCHEM_ATOM_UDEF_STEREO_COUNT>
0

> <PUBCHEM_BOND_DEF_STEREO_COUNT>
0

> <PUBCHEM_BOND_UDEF_STEREO_COUNT>
0

> <PUBCHEM_ISOTOPIC_ATOM_COUNT>
0

> <PUBCHEM_COMPONENT_COUNT>
1

> <PUBCHEM_CACTVS_TAUTO_COUNT>
3

> <PUBCHEM_CONFORMER_ID>
0182A2C400000001

> <PUBCHEM_MMFF94_ENERGY>
77.5841

> <PUBCHEM_FEATURE_SELFOVERLAP>
50.799

> <PUBCHEM_SHAPE_FINGERPRINT>
10049733 71 17832984224367603783
10391435 84 18338784612807641136
10571361 74 17829883244809471594
10622 236 18334290938401363934
10838868 158 18197235667222719166
10838868 229 17974295614985091115
11197282 1 18337672026360906455
11285246 1 17967532406363874723
11374522 301 17393067417842105594
117089 54 18410859892624991710
11756154 5 18340194212183995646
12107183 9 18271261499265060401
14856354 85 18055075355402640476
14866123 147 18341052913822926401
15250474 111 17973721369008321618
15320467 1 18265048037806253554
15530120 55 17531825626769572926
15538507 19 18122339087639302370
15728490 83 18337400356926447195
17138139 8 18040712529339728826
17492 89 18337670931106829127
17909252 39 18267585895637503944
19301676 85 18337380660940332895
19304671 126 12685360813053912966
19319366 153 17834961150125545364
20501277 246 17842266253539357002
20775438 99 17618204544211390763
20775530 9 18335415781298053561
21057603 40 16824757465869308395
21196832 93 18410859846281885990
21223535 225 14924221565444889444
21307412 95 18338222761923171893
21792938 324 10013096715469167212
21792965 11 18115016391073751855
23379529 103 18409729568985612900
23466295 7 18411421674442020217
23559900 14 18337098086213551901
23569914 2 10710483410152432390
2835820 82 17978789336003161279
32027 91 18339634650986014717
3383291 50 18267583508015469321
395649 100 18265337201987558582
404807 14 18338521958288548779
437795 163 18335140930178732764
4435113 14 17341821019892487062
484985 159 18268151955216052825
49967989 163 18195822782270125886
6441014 3 18411419535517132282
7970288 3 18410009940219110006
9831232 110 17613154488064482591
9980921 52 17557123306614466767

> <PUBCHEM_SHAPE_MULTIPOLES>
576.74
16.74
8.14
1.17
21.32
1.57
-0.22
26.78
2.92
-7.08
-2.62
0.19
-0.7
0.78

> <PUBCHEM_SHAPE_SELFOVERLAP>
1234.162

> <PUBCHEM_SHAPE_VOLUME>
322.8

> <PUBCHEM_COORDINATE_TYPE>
2
5
10

$$$$
