28960475
  -OEChem-12032416293D

 62 66  0     1  0  0  0  0  0999 V2000
    1.8483   -2.4913   -1.5511 O   0  0  0  0  0  0  0  0  0  0  0  0
    2.3696   -4.2489   -0.1311 O   0  0  0  0  0  0  0  0  0  0  0  0
    2.8221   -2.5412    2.1341 O   0  0  0  0  0  0  0  0  0  0  0  0
    0.8681    2.5911    1.4528 O   0  0  0  0  0  0  0  0  0  0  0  0
   -0.1799   -1.5949    0.3007 N   0  0  0  0  0  0  0  0  0  0  0  0
    2.7376    0.0506   -0.4402 N   0  0  0  0  0  0  0  0  0  0  0  0
   -2.8951   -0.7333    0.0898 N   0  0  0  0  0  0  0  0  0  0  0  0
    0.9101   -2.4977    0.6733 C   0  0  2  0  0  0  0  0  0  0  0  0
    2.1242   -1.7004    1.2036 C   0  0  2  0  0  0  0  0  0  0  0  0
    3.1158   -1.2601    0.0989 C   0  0  1  0  0  0  0  0  0  0  0  0
    3.1793   -2.2639   -1.0751 C   0  0  1  0  0  0  0  0  0  0  0  0
    1.3188   -3.3568   -0.5378 C   0  0  1  0  0  0  0  0  0  0  0  0
    3.5700   -3.6732   -0.6681 C   0  0  0  0  0  0  0  0  0  0  0  0
   -0.9149   -1.1553    1.4927 C   0  0  0  0  0  0  0  0  0  0  0  0
   -1.0973   -2.2549   -0.6365 C   0  0  0  0  0  0  0  0  0  0  0  0
   -2.0228   -0.1660    1.1226 C   0  0  0  0  0  0  0  0  0  0  0  0
   -2.2103   -1.3018   -1.0782 C   0  0  0  0  0  0  0  0  0  0  0  0
    3.1174    1.1090    0.4795 C   0  0  0  0  0  0  0  0  0  0  0  0
   -4.1837   -0.2185   -0.0900 C   0  0  0  0  0  0  0  0  0  0  0  0
    2.7374    2.4689   -0.0430 C   0  0  0  0  0  0  0  0  0  0  0  0
   -4.4448    1.1224    0.1923 C   0  0  0  0  0  0  0  0  0  0  0  0
   -5.2072   -1.0461   -0.5512 C   0  0  0  0  0  0  0  0  0  0  0  0
    1.6304    3.1456    0.4689 C   0  0  0  0  0  0  0  0  0  0  0  0
    3.5061    3.0514   -1.0508 C   0  0  0  0  0  0  0  0  0  0  0  0
   -5.7295    1.6355    0.0133 C   0  0  0  0  0  0  0  0  0  0  0  0
   -6.4919   -0.5332   -0.7302 C   0  0  0  0  0  0  0  0  0  0  0  0
    1.2919    4.4046   -0.0269 C   0  0  0  0  0  0  0  0  0  0  0  0
    3.1676    4.3105   -1.5467 C   0  0  0  0  0  0  0  0  0  0  0  0
   -6.7531    0.8077   -0.4479 C   0  0  0  0  0  0  0  0  0  0  0  0
    2.0606    4.9872   -1.0347 C   0  0  0  0  0  0  0  0  0  0  0  0
   -0.2447    3.3530    1.9168 C   0  0  0  0  0  0  0  0  0  0  0  0
    0.5781   -3.1980    1.4541 H   0  0  0  0  0  0  0  0  0  0  0  0
    1.7977   -0.8586    1.8166 H   0  0  0  0  0  0  0  0  0  0  0  0
    4.1331   -1.2023    0.5096 H   0  0  0  0  0  0  0  0  0  0  0  0
    3.8151   -1.8878   -1.8838 H   0  0  0  0  0  0  0  0  0  0  0  0
    0.5360   -4.0044   -0.9400 H   0  0  0  0  0  0  0  0  0  0  0  0
    3.8468   -4.2701   -1.5439 H   0  0  0  0  0  0  0  0  0  0  0  0
    4.3815   -3.7191    0.0630 H   0  0  0  0  0  0  0  0  0  0  0  0
   -0.2577   -0.6545    2.2108 H   0  0  0  0  0  0  0  0  0  0  0  0
   -1.3603   -2.0158    2.0108 H   0  0  0  0  0  0  0  0  0  0  0  0
   -1.5411   -3.1565   -0.1931 H   0  0  0  0  0  0  0  0  0  0  0  0
   -0.6252   -2.5216   -1.5860 H   0  0  0  0  0  0  0  0  0  0  0  0
    1.7317    0.0734   -0.6078 H   0  0  0  0  0  0  0  0  0  0  0  0
   -2.5935    0.0615    2.0316 H   0  0  0  0  0  0  0  0  0  0  0  0
   -1.5742    0.7670    0.7588 H   0  0  0  0  0  0  0  0  0  0  0  0
   -1.7925   -0.4848   -1.6812 H   0  0  0  0  0  0  0  0  0  0  0  0
   -2.9009   -1.8577   -1.7231 H   0  0  0  0  0  0  0  0  0  0  0  0
    3.5477   -2.0177    2.5150 H   0  0  0  0  0  0  0  0  0  0  0  0
    4.2068    1.1048    0.6230 H   0  0  0  0  0  0  0  0  0  0  0  0
    2.6959    0.9720    1.4798 H   0  0  0  0  0  0  0  0  0  0  0  0
   -3.6692    1.7993    0.5392 H   0  0  0  0  0  0  0  0  0  0  0  0
   -5.0277   -2.0970   -0.7630 H   0  0  0  0  0  0  0  0  0  0  0  0
    4.3713    2.5352   -1.4585 H   0  0  0  0  0  0  0  0  0  0  0  0
   -5.9326    2.6803    0.2300 H   0  0  0  0  0  0  0  0  0  0  0  0
   -7.2898   -1.1782   -1.0864 H   0  0  0  0  0  0  0  0  0  0  0  0
    0.4472    4.9890    0.3210 H   0  0  0  0  0  0  0  0  0  0  0  0
    3.7660    4.7640   -2.3314 H   0  0  0  0  0  0  0  0  0  0  0  0
   -7.7533    1.2072   -0.5873 H   0  0  0  0  0  0  0  0  0  0  0  0
    1.7979    5.9675   -1.4217 H   0  0  0  0  0  0  0  0  0  0  0  0
   -0.7366    2.7610    2.6958 H   0  0  0  0  0  0  0  0  0  0  0  0
   -0.9849    3.5105    1.1248 H   0  0  0  0  0  0  0  0  0  0  0  0
    0.0740    4.2908    2.3845 H   0  0  0  0  0  0  0  0  0  0  0  0
  1 11  1  0  0  0  0
  1 12  1  0  0  0  0
  2 12  1  0  0  0  0
  2 13  1  0  0  0  0
  3  9  1  0  0  0  0
  3 48  1  0  0  0  0
  4 23  1  0  0  0  0
  4 31  1  0  0  0  0
  5  8  1  0  0  0  0
  5 14  1  0  0  0  0
  5 15  1  0  0  0  0
  6 10  1  0  0  0  0
  6 18  1  0  0  0  0
  6 43  1  0  0  0  0
  7 16  1  0  0  0  0
  7 17  1  0  0  0  0
  7 19  1  0  0  0  0
  8  9  1  0  0  0  0
  8 12  1  0  0  0  0
  8 32  1  0  0  0  0
  9 10  1  0  0  0  0
  9 33  1  0  0  0  0
 10 11  1  0  0  0  0
 10 34  1  0  0  0  0
 11 13  1  0  0  0  0
 11 35  1  0  0  0  0
 12 36  1  0  0  0  0
 13 37  1  0  0  0  0
 13 38  1  0  0  0  0
 14 16  1  0  0  0  0
 14 39  1  0  0  0  0
 14 40  1  0  0  0  0
 15 17  1  0  0  0  0
 15 41  1  0  0  0  0
 15 42  1  0  0  0  0
 16 44  1  0  0  0  0
 16 45  1  0  0  0  0
 17 46  1  0  0  0  0
 17 47  1  0  0  0  0
 18 20  1  0  0  0  0
 18 49  1  0  0  0  0
 18 50  1  0  0  0  0
 19 21  2  0  0  0  0
 19 22  1  0  0  0  0
 20 23  1  0  0  0  0
 20 24  2  0  0  0  0
 21 25  1  0  0  0  0
 21 51  1  0  0  0  0
 22 26  2  0  0  0  0
 22 52  1  0  0  0  0
 23 27  2  0  0  0  0
 24 28  1  0  0  0  0
 24 53  1  0  0  0  0
 25 29  2  0  0  0  0
 25 54  1  0  0  0  0
 26 29  1  0  0  0  0
 26 55  1  0  0  0  0
 27 30  1  0  0  0  0
 27 56  1  0  0  0  0
 28 30  2  0  0  0  0
 28 57  1  0  0  0  0
 29 58  1  0  0  0  0
 30 59  1  0  0  0  0
 31 60  1  0  0  0  0
 31 61  1  0  0  0  0
 31 62  1  0  0  0  0
M  END
> <PUBCHEM_COMPOUND_CID>
28960475

> <PUBCHEM_CONFORMER_RMSD>
1

> <PUBCHEM_CONFORMER_DIVERSEORDER>
1
21
29
93
77
85
55
61
27
53
34
56
12
95
72
28
68
96
71
92
65
8
54
87
70
69
97
94
37
32
82
11
18
42
91
79
80
75
57
19
26
63
45
31
22
9
64
76
66
49
14
44
78
35
7
67
39
36
4
52
90
73
58
24
25
10
2
98
20
48
88
13
59
83
89
84
46
86
15
62
74
60
47
41
17
33
81
43
40
6
23
16
38
50
3
30
51
5

> <PUBCHEM_MMFF94_PARTIAL_CHARGES>
42
1 -0.56
10 0.27
11 0.28
12 0.56
13 0.28
14 0.27
15 0.27
16 0.37
17 0.37
18 0.41
19 0.1
2 -0.56
20 -0.14
21 -0.15
22 -0.15
23 0.08
24 -0.15
25 -0.15
26 -0.15
27 -0.15
28 -0.15
29 -0.15
3 -0.68
30 -0.15
31 0.28
4 -0.36
43 0.36
48 0.4
5 -0.81
51 0.15
52 0.15
53 0.15
54 0.15
55 0.15
56 0.15
57 0.15
58 0.15
59 0.15
6 -0.9
7 -0.84
8 0.27
9 0.28

> <PUBCHEM_EFFECTIVE_ROTOR_COUNT>
8.4

> <PUBCHEM_PHARMACOPHORE_FEATURES>
13
1 1 acceptor
1 2 acceptor
1 3 acceptor
1 3 donor
1 4 acceptor
1 5 cation
1 6 cation
1 6 donor
1 7 cation
6 19 21 22 25 26 29 rings
6 20 23 24 27 28 30 rings
6 5 7 14 15 16 17 rings
8 1 2 8 9 10 11 12 13 rings

> <PUBCHEM_HEAVY_ATOM_COUNT>
31

> <PUBCHEM_ATOM_DEF_STEREO_COUNT>
5

> <PUBCHEM_ATOM_UDEF_STEREO_COUNT>
0

> <PUBCHEM_BOND_DEF_STEREO_COUNT>
0

> <PUBCHEM_BOND_UDEF_STEREO_COUNT>
0

> <PUBCHEM_ISOTOPIC_ATOM_COUNT>
0

> <PUBCHEM_COMPONENT_COUNT>
1

> <PUBCHEM_CACTVS_TAUTO_COUNT>
1

> <PUBCHEM_CONFORMER_ID>
01B9E6DB00000001

> <PUBCHEM_MMFF94_ENERGY>
115.7891

> <PUBCHEM_FEATURE_SELFOVERLAP>
66.024

> <PUBCHEM_SHAPE_FINGERPRINT>
10483366 6 18338251418493376060
10675989 125 18339648935578561481
10937287 8 18050004694730660700
11059048 146 17905892830975849037
12769317 202 18339074994776507317
12788726 201 17684374953440389218
13590594 115 18049170972742888275
13761468 95 16821411591755781260
13944108 23 18334579022901064781
14028597 1 17388817475505550578
14068700 675 18128820742290048866
15082195 135 18270099328311806511
151778 21 18264485259877994229
15210252 30 18337957792299576528
15400415 2 18050568749077467285
16988056 13 18336546027838595668
17844677 252 18341616959013951059
17980427 23 17983259833873807434
18681886 176 18342171112094265011
21344244 78 17900520308094007578
21860390 5 18412545392436417790
23522609 53 17845392045945828161
23559900 14 18272081678730447875
245318 6 17825113850898587605
3103668 31 17472143877509515357
3298306 158 18196936793206118377
4046055 25 17984982588158231823
4058900 60 18189063164363965872
474 4 18339078293174402899
513532 50 17988928868607665598
5265222 85 17903649822981766101
53794403 172 18335707190818846237
6608658 132 17835264262851580646

> <PUBCHEM_SHAPE_MULTIPOLES>
599.55
11.19
6.91
1.47
25.01
4.09
-0.41
3.07
3.34
-11.05
1.32
-0.81
0.21
-1.17

> <PUBCHEM_SHAPE_SELFOVERLAP>
1292.667

> <PUBCHEM_SHAPE_VOLUME>
326.2

> <PUBCHEM_COORDINATE_TYPE>
2
5
10

$$$$
