40780459
  -OEChem-12032416353D

 61 64  0     1  0  0  0  0  0999 V2000
   -9.4798   -1.5613    0.5006 Cl  0  0  0  0  0  0  0  0  0  0  0  0
    3.2511   -2.6011    0.3302 O   0  0  0  0  0  0  0  0  0  0  0  0
    2.5431   -0.7095   -0.8109 N   0  0  0  0  0  0  0  0  0  0  0  0
   -3.9850    0.5957    0.3126 N   0  0  0  0  0  0  0  0  0  0  0  0
   -3.7049    1.7789    0.8851 N   0  0  0  0  0  0  0  0  0  0  0  0
    8.6563    0.7778    0.4689 N   0  0  0  0  0  0  0  0  0  0  0  0
   -0.4109    0.6511   -0.4890 C   0  0  2  0  0  0  0  0  0  0  0  0
    0.2299   -0.6371    0.0677 C   0  0  0  0  0  0  0  0  0  0  0  0
    1.1855   -1.1354   -1.0236 C   0  0  1  0  0  0  0  0  0  0  0  0
   -1.8457    0.8411   -0.0536 C   0  0  0  0  0  0  0  0  0  0  0  0
   -0.2199    0.4921   -1.9696 C   0  0  0  0  0  0  0  0  0  0  0  0
    0.6532   -0.4796   -2.2551 C   0  0  0  0  0  0  0  0  0  0  0  0
   -2.9055   -0.0070   -0.2635 C   0  0  0  0  0  0  0  0  0  0  0  0
   -2.3967    1.9234    0.6582 C   0  0  0  0  0  0  0  0  0  0  0  0
   -2.9764   -1.3134   -0.9493 C   0  0  0  0  0  0  0  0  0  0  0  0
   -1.7053    3.1290    1.1482 C   0  0  0  0  0  0  0  0  0  0  0  0
   -5.2890    0.1006    0.3492 C   0  0  0  0  0  0  0  0  0  0  0  0
    3.4783   -1.4898   -0.1410 C   0  0  0  0  0  0  0  0  0  0  0  0
   -6.3427    0.8126   -0.2240 C   0  0  0  0  0  0  0  0  0  0  0  0
    4.8306   -0.8961    0.0193 C   0  0  0  0  0  0  0  0  0  0  0  0
   -5.5311   -1.1252    0.9692 C   0  0  0  0  0  0  0  0  0  0  0  0
   -7.6386    0.2986   -0.1770 C   0  0  0  0  0  0  0  0  0  0  0  0
   -6.1169    2.1290   -0.8953 C   0  0  0  0  0  0  0  0  0  0  0  0
   -6.8271   -1.6390    1.0164 C   0  0  0  0  0  0  0  0  0  0  0  0
    5.6379   -1.2786    1.0906 C   0  0  0  0  0  0  0  0  0  0  0  0
    5.2937    0.0427   -0.9026 C   0  0  0  0  0  0  0  0  0  0  0  0
   -7.8809   -0.9272    0.4432 C   0  0  0  0  0  0  0  0  0  0  0  0
    7.3713    0.2166    0.3181 C   0  0  0  0  0  0  0  0  0  0  0  0
    6.9083   -0.7224    1.2400 C   0  0  0  0  0  0  0  0  0  0  0  0
    6.5640    0.5991   -0.7531 C   0  0  0  0  0  0  0  0  0  0  0  0
    9.5031    0.3856    1.5778 C   0  0  0  0  0  0  0  0  0  0  0  0
    9.1502    1.7486   -0.4876 C   0  0  0  0  0  0  0  0  0  0  0  0
    0.1823    1.5172   -0.1679 H   0  0  0  0  0  0  0  0  0  0  0  0
    0.7395   -0.4424    1.0192 H   0  0  0  0  0  0  0  0  0  0  0  0
   -0.5166   -1.4133    0.2735 H   0  0  0  0  0  0  0  0  0  0  0  0
    1.1445   -2.2270   -1.0998 H   0  0  0  0  0  0  0  0  0  0  0  0
   -0.7007    1.1108   -2.7143 H   0  0  0  0  0  0  0  0  0  0  0  0
    0.9535   -0.7474   -3.2583 H   0  0  0  0  0  0  0  0  0  0  0  0
    2.7808    0.2380   -1.0869 H   0  0  0  0  0  0  0  0  0  0  0  0
   -2.9294   -2.1331   -0.2254 H   0  0  0  0  0  0  0  0  0  0  0  0
   -3.8977   -1.4169   -1.5321 H   0  0  0  0  0  0  0  0  0  0  0  0
   -2.1551   -1.4541   -1.6555 H   0  0  0  0  0  0  0  0  0  0  0  0
   -1.2643    3.6845    0.3141 H   0  0  0  0  0  0  0  0  0  0  0  0
   -2.3870    3.8048    1.6754 H   0  0  0  0  0  0  0  0  0  0  0  0
   -0.9033    2.8566    1.8420 H   0  0  0  0  0  0  0  0  0  0  0  0
   -4.7286   -1.6900    1.4372 H   0  0  0  0  0  0  0  0  0  0  0  0
   -8.4625    0.8527   -0.6214 H   0  0  0  0  0  0  0  0  0  0  0  0
   -5.9727    2.9205   -0.1533 H   0  0  0  0  0  0  0  0  0  0  0  0
   -5.2551    2.0921   -1.5699 H   0  0  0  0  0  0  0  0  0  0  0  0
   -6.9764    2.4126   -1.5136 H   0  0  0  0  0  0  0  0  0  0  0  0
   -7.0016   -2.5937    1.5060 H   0  0  0  0  0  0  0  0  0  0  0  0
    5.2928   -2.0054    1.8213 H   0  0  0  0  0  0  0  0  0  0  0  0
    4.7097    0.3441   -1.7673 H   0  0  0  0  0  0  0  0  0  0  0  0
    7.4974   -1.0522    2.0900 H   0  0  0  0  0  0  0  0  0  0  0  0
    6.8815    1.3200   -1.5001 H   0  0  0  0  0  0  0  0  0  0  0  0
   10.4654    0.9093    1.5574 H   0  0  0  0  0  0  0  0  0  0  0  0
    9.7310   -0.6855    1.5424 H   0  0  0  0  0  0  0  0  0  0  0  0
    9.0364    0.6307    2.5384 H   0  0  0  0  0  0  0  0  0  0  0  0
   10.1603    2.0892   -0.2339 H   0  0  0  0  0  0  0  0  0  0  0  0
    8.5167    2.6424   -0.5076 H   0  0  0  0  0  0  0  0  0  0  0  0
    9.2105    1.3181   -1.4934 H   0  0  0  0  0  0  0  0  0  0  0  0
  1 27  1  0  0  0  0
  2 18  2  0  0  0  0
  3  9  1  0  0  0  0
  3 18  1  0  0  0  0
  3 39  1  0  0  0  0
  4  5  1  0  0  0  0
  4 13  1  0  0  0  0
  4 17  1  0  0  0  0
  5 14  2  0  0  0  0
  6 28  1  0  0  0  0
  6 31  1  0  0  0  0
  6 32  1  0  0  0  0
  7  8  1  0  0  0  0
  7 10  1  0  0  0  0
  7 11  1  0  0  0  0
  7 33  1  0  0  0  0
  8  9  1  0  0  0  0
  8 34  1  0  0  0  0
  8 35  1  0  0  0  0
  9 12  1  0  0  0  0
  9 36  1  0  0  0  0
 10 13  2  0  0  0  0
 10 14  1  0  0  0  0
 11 12  2  0  0  0  0
 11 37  1  0  0  0  0
 12 38  1  0  0  0  0
 13 15  1  0  0  0  0
 14 16  1  0  0  0  0
 15 40  1  0  0  0  0
 15 41  1  0  0  0  0
 15 42  1  0  0  0  0
 16 43  1  0  0  0  0
 16 44  1  0  0  0  0
 16 45  1  0  0  0  0
 17 19  2  0  0  0  0
 17 21  1  0  0  0  0
 18 20  1  0  0  0  0
 19 22  1  0  0  0  0
 19 23  1  0  0  0  0
 20 25  2  0  0  0  0
 20 26  1  0  0  0  0
 21 24  2  0  0  0  0
 21 46  1  0  0  0  0
 22 27  2  0  0  0  0
 22 47  1  0  0  0  0
 23 48  1  0  0  0  0
 23 49  1  0  0  0  0
 23 50  1  0  0  0  0
 24 27  1  0  0  0  0
 24 51  1  0  0  0  0
 25 29  1  0  0  0  0
 25 52  1  0  0  0  0
 26 30  2  0  0  0  0
 26 53  1  0  0  0  0
 28 29  2  0  0  0  0
 28 30  1  0  0  0  0
 29 54  1  0  0  0  0
 30 55  1  0  0  0  0
 31 56  1  0  0  0  0
 31 57  1  0  0  0  0
 31 58  1  0  0  0  0
 32 59  1  0  0  0  0
 32 60  1  0  0  0  0
 32 61  1  0  0  0  0
M  END
> <PUBCHEM_COMPOUND_CID>
40780459

> <PUBCHEM_CONFORMER_RMSD>
0.8

> <PUBCHEM_CONFORMER_DIVERSEORDER>
1
60
27
83
86
85
5
37
67
10
76
23
73
62
39
63
40
77
59
46
53
65
20
96
36
51
93
30
18
32
17
34
58
6
64
84
98
25
66
57
35
70
88
95
11
42
41
89
81
2
79
49
74
7
82
22
80
94
55
24
31
90
92
45
43
26
71
47
78
87
68
13
48
50
21
38
61
97
33
54
14
12
16
72
19
15
29
9
44
52
3
91
75
4
8
56
69
28

> <PUBCHEM_MMFF94_PARTIAL_CHARGES>
41
1 -0.18
10 -0.18
11 -0.29
12 -0.29
13 -0.33
14 0.11
15 0.18
16 0.18
17 -0.02
18 0.54
19 -0.14
2 -0.57
20 0.09
21 -0.15
22 -0.15
23 0.14
24 -0.15
25 -0.15
26 -0.15
27 0.18
28 0.1
29 -0.15
3 -0.73
30 -0.15
31 0.37
32 0.37
37 0.15
38 0.15
39 0.37
4 0.59
46 0.15
47 0.15
5 -0.71
51 0.15
52 0.15
53 0.15
54 0.15
55 0.15
6 -0.84
7 0.32
9 0.44

> <PUBCHEM_EFFECTIVE_ROTOR_COUNT>
6.6

> <PUBCHEM_PHARMACOPHORE_FEATURES>
8
1 2 acceptor
1 3 donor
1 5 acceptor
1 6 cation
5 4 5 10 13 14 rings
5 7 8 9 11 12 rings
6 17 19 21 22 24 27 rings
6 20 25 26 28 29 30 rings

> <PUBCHEM_HEAVY_ATOM_COUNT>
32

> <PUBCHEM_ATOM_DEF_STEREO_COUNT>
2

> <PUBCHEM_ATOM_UDEF_STEREO_COUNT>
0

> <PUBCHEM_BOND_DEF_STEREO_COUNT>
0

> <PUBCHEM_BOND_UDEF_STEREO_COUNT>
0

> <PUBCHEM_ISOTOPIC_ATOM_COUNT>
0

> <PUBCHEM_COMPONENT_COUNT>
1

> <PUBCHEM_CACTVS_TAUTO_COUNT>
2

> <PUBCHEM_CONFORMER_ID>
026E42AB00000001

> <PUBCHEM_MMFF94_ENERGY>
105.8866

> <PUBCHEM_FEATURE_SELFOVERLAP>
40.597

> <PUBCHEM_SHAPE_FINGERPRINT>
10 15 18273494572319629854
10076449 9 17704072906653191609
10162869 55 17821729468176843390
10165383 225 15913331294683717406
10369192 42 15985387772120130652
106641 1 18410012151958345462
10674148 151 14345789453565467007
11135609 201 18342448263055929088
11315181 36 18343022169407813881
11408170 108 15864344702150800146
11724838 91 18333452049963677222
12202916 173 15647053759270974034
12596602 18 18260548874837239491
12643181 29 13695874739788120185
12664476 115 16630521835315147624
12758862 56 7997964657468050796
12977781 61 16736386254484661825
13177829 20 18334294267090675842
13560911 43 18343016693098347448
13782708 43 13047103510405282329
13914758 101 16443064972097506669
14068700 686 17915749665335210647
14394314 77 17749669585032369549
14933364 13 12103842350370187167
15183329 4 7997970180368711934
15247644 1 14779267523243560641
15326923 82 18261109703825714455
15444296 9 9151183051562497130
15728490 51 18341894125579509255
15840311 113 18041001770319073460
16992610 120 15123512549316245052
18335252 98 18272655636162711734
18608769 82 18131347544728363954
19302320 297 18129932491229847976
19841028 212 17458900432300759074
21130935 74 18263363585992260539
21223535 225 14851881414678805631
21365058 27 15195566797194744653
22224240 67 17967532372642679418
23559900 14 18042410296137654437
23576562 1 14332541484584587088
24771293 8 17821734909684188276
3418910 222 18272942604440173896
34797466 226 17418381290012669932
3711267 37 17275389824300863928
4149490 64 17314527001020935051
474113 269 14418120808776462058
5028188 123 13110954340799499321
5381727 24 18343579626209203346
57035037 87 18114455657207319773
5758199 1 15554448487865144943
59682541 35 18343018912968022266
6081469 158 11241962677885133530
6126387 218 17312818265256453125
9663363 56 18272089406014299507
9689198 14 13470688148491150683

> <PUBCHEM_SHAPE_MULTIPOLES>
634.62
31.04
2.17
1.41
24.04
0.81
-0.37
-1.19
9.84
-1.62
0.52
0.94
0.04
0.22

> <PUBCHEM_SHAPE_SELFOVERLAP>
1364.857

> <PUBCHEM_SHAPE_VOLUME>
354.7

> <PUBCHEM_COORDINATE_TYPE>
2
5
10

$$$$
