56775453
  -OEChem-12032416213D

 50 52  0     0  0  0  0  0  0999 V2000
   -0.1810    4.0567   -1.0423 O   0  0  0  0  0  0  0  0  0  0  0  0
   -4.3171    0.2861   -0.2064 O   0  0  0  0  0  0  0  0  0  0  0  0
    6.0092   -1.9569   -0.4885 O   0  0  0  0  0  0  0  0  0  0  0  0
    0.4489    1.0992   -0.3431 N   0  0  0  0  0  0  0  0  0  0  0  0
   -3.5774    1.4129    0.1312 N   0  0  0  0  0  0  0  0  0  0  0  0
   -0.4193    2.2143    0.0088 C   0  0  0  0  0  0  0  0  0  0  0  0
    0.4280    3.4757    0.1332 C   0  0  0  0  0  0  0  0  0  0  0  0
   -0.9451    2.8510   -1.2727 C   0  0  0  0  0  0  0  0  0  0  0  0
   -1.4091    1.8708    1.1300 C   0  0  0  0  0  0  0  0  0  0  0  0
   -2.4447    0.9381    0.6570 C   0  0  0  0  0  0  0  0  0  0  0  0
    1.1607    0.6332    0.8445 C   0  0  0  0  0  0  0  0  0  0  0  0
   -4.2830   -2.1776   -0.1807 C   0  0  0  0  0  0  0  0  0  0  0  0
   -2.4135   -0.4669    0.6771 C   0  0  0  0  0  0  0  0  0  0  0  0
   -3.6136   -0.8272    0.1236 C   0  0  0  0  0  0  0  0  0  0  0  0
    2.4511   -0.0568    0.4899 C   0  0  0  0  0  0  0  0  0  0  0  0
   -4.4586   -2.9769    1.1286 C   0  0  0  0  0  0  0  0  0  0  0  0
   -3.4005   -2.9872   -1.1554 C   0  0  0  0  0  0  0  0  0  0  0  0
   -5.6804   -2.0507   -0.8289 C   0  0  0  0  0  0  0  0  0  0  0  0
    3.6664    0.6051    0.6655 C   0  0  0  0  0  0  0  0  0  0  0  0
    2.4316   -1.3572   -0.0144 C   0  0  0  0  0  0  0  0  0  0  0  0
    4.8622   -0.0336    0.3370 C   0  0  0  0  0  0  0  0  0  0  0  0
    3.6273   -1.9958   -0.3430 C   0  0  0  0  0  0  0  0  0  0  0  0
    4.8426   -1.3340   -0.1672 C   0  0  0  0  0  0  0  0  0  0  0  0
    7.2152   -1.2223   -0.2838 C   0  0  0  0  0  0  0  0  0  0  0  0
    0.2304    4.0901    1.0177 H   0  0  0  0  0  0  0  0  0  0  0  0
    1.5121    3.3877    0.0029 H   0  0  0  0  0  0  0  0  0  0  0  0
   -0.6646    2.3832   -2.2230 H   0  0  0  0  0  0  0  0  0  0  0  0
   -2.0125    3.0869   -1.3035 H   0  0  0  0  0  0  0  0  0  0  0  0
   -0.9205    1.4899    2.0331 H   0  0  0  0  0  0  0  0  0  0  0  0
   -1.9003    2.7980    1.4587 H   0  0  0  0  0  0  0  0  0  0  0  0
   -0.0180    0.3145   -0.7962 H   0  0  0  0  0  0  0  0  0  0  0  0
    0.5475   -0.0750    1.4149 H   0  0  0  0  0  0  0  0  0  0  0  0
    1.3978    1.4507    1.5384 H   0  0  0  0  0  0  0  0  0  0  0  0
   -1.6389   -1.1255    1.0403 H   0  0  0  0  0  0  0  0  0  0  0  0
   -5.0848   -2.4302    1.8434 H   0  0  0  0  0  0  0  0  0  0  0  0
   -3.4937   -3.1634    1.6143 H   0  0  0  0  0  0  0  0  0  0  0  0
   -4.9285   -3.9495    0.9434 H   0  0  0  0  0  0  0  0  0  0  0  0
   -2.4065   -3.1735   -0.7321 H   0  0  0  0  0  0  0  0  0  0  0  0
   -3.2584   -2.4479   -2.0993 H   0  0  0  0  0  0  0  0  0  0  0  0
   -3.8487   -3.9601   -1.3867 H   0  0  0  0  0  0  0  0  0  0  0  0
   -5.6267   -1.5083   -1.7801 H   0  0  0  0  0  0  0  0  0  0  0  0
   -6.3696   -1.5014   -0.1769 H   0  0  0  0  0  0  0  0  0  0  0  0
   -6.1220   -3.0336   -1.0293 H   0  0  0  0  0  0  0  0  0  0  0  0
    3.6958    1.6195    1.0547 H   0  0  0  0  0  0  0  0  0  0  0  0
    1.4908   -1.8831   -0.1551 H   0  0  0  0  0  0  0  0  0  0  0  0
    5.7696    0.5384    0.4976 H   0  0  0  0  0  0  0  0  0  0  0  0
    3.6058   -3.0088   -0.7354 H   0  0  0  0  0  0  0  0  0  0  0  0
    8.0436   -1.8690   -0.5910 H   0  0  0  0  0  0  0  0  0  0  0  0
    7.3686   -0.9876    0.7750 H   0  0  0  0  0  0  0  0  0  0  0  0
    7.2550   -0.3295   -0.9170 H   0  0  0  0  0  0  0  0  0  0  0  0
  1  7  1  0  0  0  0
  1  8  1  0  0  0  0
  2  5  1  0  0  0  0
  2 14  1  0  0  0  0
  3 23  1  0  0  0  0
  3 24  1  0  0  0  0
  4  6  1  0  0  0  0
  4 11  1  0  0  0  0
  4 31  1  0  0  0  0
  5 10  2  0  0  0  0
  6  7  1  0  0  0  0
  6  8  1  0  0  0  0
  6  9  1  0  0  0  0
  7 25  1  0  0  0  0
  7 26  1  0  0  0  0
  8 27  1  0  0  0  0
  8 28  1  0  0  0  0
  9 10  1  0  0  0  0
  9 29  1  0  0  0  0
  9 30  1  0  0  0  0
 10 13  1  0  0  0  0
 11 15  1  0  0  0  0
 11 32  1  0  0  0  0
 11 33  1  0  0  0  0
 12 14  1  0  0  0  0
 12 16  1  0  0  0  0
 12 17  1  0  0  0  0
 12 18  1  0  0  0  0
 13 14  2  0  0  0  0
 13 34  1  0  0  0  0
 15 19  2  0  0  0  0
 15 20  1  0  0  0  0
 16 35  1  0  0  0  0
 16 36  1  0  0  0  0
 16 37  1  0  0  0  0
 17 38  1  0  0  0  0
 17 39  1  0  0  0  0
 17 40  1  0  0  0  0
 18 41  1  0  0  0  0
 18 42  1  0  0  0  0
 18 43  1  0  0  0  0
 19 21  1  0  0  0  0
 19 44  1  0  0  0  0
 20 22  2  0  0  0  0
 20 45  1  0  0  0  0
 21 23  2  0  0  0  0
 21 46  1  0  0  0  0
 22 23  1  0  0  0  0
 22 47  1  0  0  0  0
 24 48  1  0  0  0  0
 24 49  1  0  0  0  0
 24 50  1  0  0  0  0
M  END
> <PUBCHEM_COMPOUND_CID>
56775453

> <PUBCHEM_CONFORMER_RMSD>
0.8

> <PUBCHEM_CONFORMER_DIVERSEORDER>
1
140
9
47
123
149
74
130
83
181
26
106
84
91
116
64
173
87
100
113
102
164
44
59
155
124
146
182
167
57
184
166
49
121
171
174
133
92
105
77
187
163
165
70
81
139
159
176
145
143
185
69
135
35
138
6
129
189
160
58
132
43
125
82
101
162
117
107
131
142
126
179
23
78
73
93
97
48
177
110
115
4
98
157
136
19
99
33
120
137
61
94
141
30
65
32
52
79
95
183
151
40
104
134
14
152
154
153
156
29
72
85
88
11
76
45
150
161
37
188
111
56
186
148
55
8
178
90
7
118
54
60
86
172
13
25
96
112
18
144
168
39
28
68
71
128
53
158
21
31
75
20
51
175
80
38
122
66
27
127
15
103
119
17
34
24
63
109
89
114
36
10
147
180
67
3
41
108
169
46
2
170
50
42
16
22
62
5
12

> <PUBCHEM_MMFF94_PARTIAL_CHARGES>
27
1 -0.52
10 0.11
11 0.41
12 0.18
13 -0.15
14 -0.04
15 -0.14
19 -0.15
2 -0.02
20 -0.15
21 -0.15
22 -0.15
23 0.08
24 0.28
3 -0.36
31 0.36
34 0.15
4 -0.84
44 0.15
45 0.15
46 0.15
47 0.15
5 -0.41
6 0.21
7 0.26
8 0.26
9 0.18

> <PUBCHEM_EFFECTIVE_ROTOR_COUNT>
7.8

> <PUBCHEM_PHARMACOPHORE_FEATURES>
9
1 1 acceptor
1 3 acceptor
1 4 cation
1 4 donor
1 5 acceptor
4 1 6 7 8 rings
4 12 16 17 18 hydrophobe
5 2 5 10 13 14 rings
6 15 19 20 21 22 23 rings

> <PUBCHEM_HEAVY_ATOM_COUNT>
24

> <PUBCHEM_ATOM_DEF_STEREO_COUNT>
0

> <PUBCHEM_ATOM_UDEF_STEREO_COUNT>
0

> <PUBCHEM_BOND_DEF_STEREO_COUNT>
0

> <PUBCHEM_BOND_UDEF_STEREO_COUNT>
0

> <PUBCHEM_ISOTOPIC_ATOM_COUNT>
0

> <PUBCHEM_COMPONENT_COUNT>
1

> <PUBCHEM_CACTVS_TAUTO_COUNT>
1

> <PUBCHEM_CONFORMER_ID>
0362531D00000001

> <PUBCHEM_MMFF94_ENERGY>
66.8339

> <PUBCHEM_FEATURE_SELFOVERLAP>
45.671

> <PUBCHEM_SHAPE_FINGERPRINT>
10042902 136 18341335564918679438
10291535 26 8574125260086880692
10622 236 17126748110178730399
11056379 131 18194126209726009596
11069576 57 17478309290637165527
11315621 246 18268443351888574862
11552529 35 18130786715924330208
12166972 35 17676212419739528230
12553582 1 18187357719087258705
12623949 98 17845947302837628774
12788726 201 17970625195002486168
13009979 54 18271821145718763369
13544653 18 18271809059596045345
13631057 29 18412544276262021642
14429380 30 18335425681656775674
14863182 85 17762898066771103505
14950920 106 16487254417095015587
15250474 111 18044650898286304178
15352361 1 18412261761544490115
15415430 10 18412263956093144443
15537594 2 18188779348672271099
15849732 13 18263374594879774089
17492 89 18122063363117489595
17686467 74 18335983151875187496
1813 80 18261949747251030565
19141452 34 18341055099460126737
20645477 70 17901656391905494979
20775530 9 18411130364084874467
21307412 95 18339353085814699071
21344244 246 17971484146092274844
21756936 100 9151164338152837856
21796203 349 17977704031240022835
23402539 116 18040439850318714338
23559900 14 18266450096205271729
3004659 81 18259980491808119762
335352 9 18410854340191613853
4280585 95 18334006194770002496
4409770 3 18117832201607739197
46194498 28 17752469126509854349
497634 4 18130232536890557504
5207 123 18411130377454683271
5486654 36 18335714866315710163
7970288 3 18340485681049015759
9709674 26 18045498879448798347

> <PUBCHEM_SHAPE_MULTIPOLES>
466.34
13.76
4.3
1.04
12.73
2.61
-0.04
-15.4
-1.31
-2.75
-1.16
-0.63
0.1
0.27

> <PUBCHEM_SHAPE_SELFOVERLAP>
980.964

> <PUBCHEM_SHAPE_VOLUME>
265.8

> <PUBCHEM_COORDINATE_TYPE>
2
5
10

$$$$
