45783471
  -OEChem-12032416363D

 56 59  0     1  0  0  0  0  0999 V2000
   -2.5294   -1.5398    2.0107 O   0  0  0  0  0  0  0  0  0  0  0  0
    1.4354    3.4048   -0.6416 O   0  0  0  0  0  0  0  0  0  0  0  0
    0.8234    4.1271    1.4250 O   0  0  0  0  0  0  0  0  0  0  0  0
    7.3346    0.0656   -0.4707 O   0  0  0  0  0  0  0  0  0  0  0  0
   -4.3012   -0.4678   -1.0252 N   0  0  1  0  0  0  0  0  0  0  0  0
   -1.6011   -1.2275   -0.0036 N   0  0  0  0  0  0  0  0  0  0  0  0
   -1.1436   -1.5561    2.2138 N   0  0  0  0  0  0  0  0  0  0  0  0
    3.0148   -1.4086    1.5078 N   0  0  0  0  0  0  0  0  0  0  0  0
    4.8177   -1.1624   -0.0298 N   0  0  0  0  0  0  0  0  0  0  0  0
   -4.1463   -1.2832    0.1961 C   0  0  1  0  0  0  0  0  0  0  0  0
   -4.7025   -2.6676   -0.1848 C   0  0  0  0  0  0  0  0  0  0  0  0
   -5.2011   -2.5163   -1.6149 C   0  0  0  0  0  0  0  0  0  0  0  0
   -5.4405   -1.0264   -1.7534 C   0  0  0  0  0  0  0  0  0  0  0  0
   -4.4699    0.9532   -0.7497 C   0  0  0  0  0  0  0  0  0  0  0  0
   -2.7123   -1.3419    0.6789 C   0  0  0  0  0  0  0  0  0  0  0  0
   -3.1564    1.6268   -0.4535 C   0  0  0  0  0  0  0  0  0  0  0  0
   -2.9659    2.2774    0.7656 C   0  0  0  0  0  0  0  0  0  0  0  0
   -2.1301    1.6004   -1.3979 C   0  0  0  0  0  0  0  0  0  0  0  0
   -0.6658   -1.3656    0.9803 C   0  0  0  0  0  0  0  0  0  0  0  0
   -1.7492    2.9014    1.0403 C   0  0  0  0  0  0  0  0  0  0  0  0
   -0.9134    2.2246   -1.1231 C   0  0  0  0  0  0  0  0  0  0  0  0
    0.7393   -1.3099    0.6972 C   0  0  0  0  0  0  0  0  0  0  0  0
   -0.7228    2.8750    0.0960 C   0  0  0  0  0  0  0  0  0  0  0  0
    1.2018   -1.1117   -0.5990 C   0  0  0  0  0  0  0  0  0  0  0  0
    1.6782   -1.4513    1.7063 C   0  0  0  0  0  0  0  0  0  0  0  0
    0.5463    3.5250    0.3823 C   0  0  0  0  0  0  0  0  0  0  0  0
    2.5699   -1.0618   -0.8430 C   0  0  0  0  0  0  0  0  0  0  0  0
    3.4269   -1.2144    0.2350 C   0  0  0  0  0  0  0  0  0  0  0  0
    5.3455   -0.9626   -1.3403 C   0  0  0  0  0  0  0  0  0  0  0  0
    6.8640   -0.9904   -1.2988 C   0  0  0  0  0  0  0  0  0  0  0  0
    8.7538    0.0839   -0.4060 C   0  0  0  0  0  0  0  0  0  0  0  0
   -4.7701   -0.8873    1.0100 H   0  0  0  0  0  0  0  0  0  0  0  0
   -3.9661   -3.4754   -0.1129 H   0  0  0  0  0  0  0  0  0  0  0  0
   -5.5439   -2.9201    0.4720 H   0  0  0  0  0  0  0  0  0  0  0  0
   -6.1032   -3.1058   -1.8031 H   0  0  0  0  0  0  0  0  0  0  0  0
   -4.4253   -2.8461   -2.3169 H   0  0  0  0  0  0  0  0  0  0  0  0
   -6.3958   -0.7497   -1.2893 H   0  0  0  0  0  0  0  0  0  0  0  0
   -5.4512   -0.7168   -2.8030 H   0  0  0  0  0  0  0  0  0  0  0  0
   -5.2021    1.1283    0.0495 H   0  0  0  0  0  0  0  0  0  0  0  0
   -4.8766    1.4592   -1.6367 H   0  0  0  0  0  0  0  0  0  0  0  0
   -3.7559    2.3040    1.5113 H   0  0  0  0  0  0  0  0  0  0  0  0
   -2.2654    1.1012   -2.3538 H   0  0  0  0  0  0  0  0  0  0  0  0
   -1.6202    3.4019    1.9963 H   0  0  0  0  0  0  0  0  0  0  0  0
   -0.1414    2.1791   -1.8861 H   0  0  0  0  0  0  0  0  0  0  0  0
    0.5194   -0.9924   -1.4367 H   0  0  0  0  0  0  0  0  0  0  0  0
    1.4001   -1.6087    2.7442 H   0  0  0  0  0  0  0  0  0  0  0  0
    2.8959   -0.9039   -1.8642 H   0  0  0  0  0  0  0  0  0  0  0  0
    5.4339   -1.2717    0.7675 H   0  0  0  0  0  0  0  0  0  0  0  0
    5.0093   -1.7493   -2.0256 H   0  0  0  0  0  0  0  0  0  0  0  0
    5.0276    0.0125   -1.7289 H   0  0  0  0  0  0  0  0  0  0  0  0
    7.2159   -1.9505   -0.9020 H   0  0  0  0  0  0  0  0  0  0  0  0
    7.2595   -0.8632   -2.3132 H   0  0  0  0  0  0  0  0  0  0  0  0
    2.2880    3.8452   -0.4382 H   0  0  0  0  0  0  0  0  0  0  0  0
    9.1305   -0.8497    0.0230 H   0  0  0  0  0  0  0  0  0  0  0  0
    9.1816    0.2418   -1.4008 H   0  0  0  0  0  0  0  0  0  0  0  0
    9.0582    0.9119    0.2398 H   0  0  0  0  0  0  0  0  0  0  0  0
  1  7  1  0  0  0  0
  1 15  1  0  0  0  0
  2 26  1  0  0  0  0
  2 53  1  0  0  0  0
  3 26  2  0  0  0  0
  4 30  1  0  0  0  0
  4 31  1  0  0  0  0
  5 10  1  0  0  0  0
  5 13  1  0  0  0  0
  5 14  1  0  0  0  0
  6 15  2  0  0  0  0
  6 19  1  0  0  0  0
  7 19  2  0  0  0  0
  8 25  1  0  0  0  0
  8 28  2  0  0  0  0
  9 28  1  0  0  0  0
  9 29  1  0  0  0  0
  9 48  1  0  0  0  0
 10 11  1  0  0  0  0
 10 15  1  0  0  0  0
 10 32  1  0  0  0  0
 11 12  1  0  0  0  0
 11 33  1  0  0  0  0
 11 34  1  0  0  0  0
 12 13  1  0  0  0  0
 12 35  1  0  0  0  0
 12 36  1  0  0  0  0
 13 37  1  0  0  0  0
 13 38  1  0  0  0  0
 14 16  1  0  0  0  0
 14 39  1  0  0  0  0
 14 40  1  0  0  0  0
 16 17  2  0  0  0  0
 16 18  1  0  0  0  0
 17 20  1  0  0  0  0
 17 41  1  0  0  0  0
 18 21  2  0  0  0  0
 18 42  1  0  0  0  0
 19 22  1  0  0  0  0
 20 23  2  0  0  0  0
 20 43  1  0  0  0  0
 21 23  1  0  0  0  0
 21 44  1  0  0  0  0
 22 24  1  0  0  0  0
 22 25  2  0  0  0  0
 23 26  1  0  0  0  0
 24 27  2  0  0  0  0
 24 45  1  0  0  0  0
 25 46  1  0  0  0  0
 27 28  1  0  0  0  0
 27 47  1  0  0  0  0
 29 30  1  0  0  0  0
 29 49  1  0  0  0  0
 29 50  1  0  0  0  0
 30 51  1  0  0  0  0
 30 52  1  0  0  0  0
 31 54  1  0  0  0  0
 31 55  1  0  0  0  0
 31 56  1  0  0  0  0
M  END
> <PUBCHEM_COMPOUND_CID>
45783471

> <PUBCHEM_CONFORMER_RMSD>
1

> <PUBCHEM_CONFORMER_DIVERSEORDER>
1
37
14
35
17
30
50
48
18
33
10
32
26
27
24
41
44
49
28
31
22
12
25
34
4
2
46
40
47
19
16
11
51
8
13
36
23
42
15
3
9
43
20
7
45
21
38
5
39
29
6

> <PUBCHEM_MMFF94_PARTIAL_CHARGES>
38
1 -0.02
10 0.45
13 0.27
14 0.41
15 0.3
16 -0.14
17 -0.15
18 -0.15
19 0.46
2 -0.65
20 -0.15
21 -0.15
22 0.05
23 0.09
24 -0.15
25 0.16
26 0.63
27 -0.15
28 0.41
29 0.37
3 -0.57
30 0.28
31 0.28
4 -0.56
41 0.15
42 0.15
43 0.15
44 0.15
45 0.15
46 0.15
47 0.15
48 0.4
5 -0.81
53 0.5
6 -0.57
7 -0.41
8 -0.62
9 -0.87

> <PUBCHEM_EFFECTIVE_ROTOR_COUNT>
10

> <PUBCHEM_PHARMACOPHORE_FEATURES>
12
1 2 acceptor
1 3 acceptor
1 4 acceptor
1 5 cation
1 9 donor
3 2 3 26 anion
3 6 7 19 cation
3 8 9 28 cation
5 1 6 7 15 19 rings
5 5 10 11 12 13 rings
6 16 17 18 20 21 23 rings
6 8 22 24 25 27 28 rings

> <PUBCHEM_HEAVY_ATOM_COUNT>
31

> <PUBCHEM_ATOM_DEF_STEREO_COUNT>
1

> <PUBCHEM_ATOM_UDEF_STEREO_COUNT>
0

> <PUBCHEM_BOND_DEF_STEREO_COUNT>
0

> <PUBCHEM_BOND_UDEF_STEREO_COUNT>
0

> <PUBCHEM_ISOTOPIC_ATOM_COUNT>
0

> <PUBCHEM_COMPONENT_COUNT>
1

> <PUBCHEM_CACTVS_TAUTO_COUNT>
8

> <PUBCHEM_CONFORMER_ID>
02BA99AF00000001

> <PUBCHEM_MMFF94_ENERGY>
75.4297

> <PUBCHEM_FEATURE_SELFOVERLAP>
60.954

> <PUBCHEM_SHAPE_FINGERPRINT>
10454371 7 18411145701993077500
1100329 8 18339072697760652057
11477941 20 18342167878099189196
12107698 1 18411981382079560030
12156800 1 14568096324534244197
12788726 201 18191303784372212865
13761468 95 17684376053004329790
14931854 50 18114174203293339071
15876981 60 18410301284835300437
17492 54 18041269955833338013
18336668 15 17968105217573192108
19319366 153 17607522428697287923
20642791 35 18263626447598328037
20691752 17 17386547155924135701
20721686 56 18337673143817197000
20775438 99 17548953995096424887
20905425 154 18193268822895619829
21344244 246 17981319311693112655
23559900 14 17968656150218233213
255183 451 18125717044683809143
5171179 24 18270958054591906249
531348 171 18127698123586084318

> <PUBCHEM_SHAPE_MULTIPOLES>
589.58
15.02
4.17
1.71
33.61
4.88
0.35
-8.29
-7.95
-3.03
0.75
-0.63
-0.55
-0.38

> <PUBCHEM_SHAPE_SELFOVERLAP>
1266.815

> <PUBCHEM_SHAPE_VOLUME>
326.1

> <PUBCHEM_COORDINATE_TYPE>
2
5
10

$$$$
