45360474
  -OEChem-12032416183D

 65 69  0     1  0  0  0  0  0999 V2000
   -1.0269   -2.9023    1.6204 N   0  0  2  0  0  0  0  0  0  0  0  0
   -3.7271   -0.7243    0.1231 N   0  0  0  0  0  0  0  0  0  0  0  0
    1.2858   -0.9634   -1.8022 N   0  0  0  0  0  0  0  0  0  0  0  0
   -5.4132    3.1522   -0.3169 N   0  0  0  0  0  0  0  0  0  0  0  0
    2.8956    0.8263   -1.6860 N   0  0  0  0  0  0  0  0  0  0  0  0
   -0.1458   -3.2391   -0.8072 C   0  0  2  0  0  0  0  0  0  0  0  0
   -2.0445   -2.4373    0.6413 C   0  0  2  0  0  0  0  0  0  0  0  0
    0.9150   -2.5058    0.0595 C   0  0  2  0  0  0  0  0  0  0  0  0
   -1.4632   -2.4354   -0.7891 C   0  0  0  0  0  0  0  0  0  0  0  0
   -0.4290   -4.5900   -0.1158 C   0  0  0  0  0  0  0  0  0  0  0  0
    0.2451   -2.1639    1.4210 C   0  0  0  0  0  0  0  0  0  0  0  0
   -0.7726   -4.3401    1.3630 C   0  0  0  0  0  0  0  0  0  0  0  0
   -2.6370   -1.0777    1.0177 C   0  0  0  0  0  0  0  0  0  0  0  0
    1.6355   -1.3097   -0.5459 C   0  0  0  0  0  0  0  0  0  0  0  0
   -4.3098    0.5646    0.4894 C   0  0  0  0  0  0  0  0  0  0  0  0
   -5.7101    0.7033   -0.1131 C   0  0  0  0  0  0  0  0  0  0  0  0
   -3.4221    1.7208    0.0197 C   0  0  0  0  0  0  0  0  0  0  0  0
    2.5930   -0.6462    0.1939 C   0  0  0  0  0  0  0  0  0  0  0  0
   -6.2974    2.0872    0.1765 C   0  0  0  0  0  0  0  0  0  0  0  0
   -4.0841    3.0715    0.3047 C   0  0  0  0  0  0  0  0  0  0  0  0
    3.1961    0.4249   -0.4333 C   0  0  0  0  0  0  0  0  0  0  0  0
    1.9459    0.0981   -2.3035 C   0  0  0  0  0  0  0  0  0  0  0  0
   -6.0110    4.4655   -0.0781 C   0  0  0  0  0  0  0  0  0  0  0  0
    4.2148    1.2014    0.2321 C   0  0  0  0  0  0  0  0  0  0  0  0
    1.5878    0.5102   -3.6912 C   0  0  0  0  0  0  0  0  0  0  0  0
    3.9198    1.8630    1.4241 C   0  0  0  0  0  0  0  0  0  0  0  0
    5.4939    1.2902   -0.3167 C   0  0  0  0  0  0  0  0  0  0  0  0
    4.9040    2.6134    2.0675 C   0  0  0  0  0  0  0  0  0  0  0  0
    6.4782    2.0405    0.3265 C   0  0  0  0  0  0  0  0  0  0  0  0
    6.1833    2.7022    1.5186 C   0  0  0  0  0  0  0  0  0  0  0  0
    0.2015   -3.4003   -1.8331 H   0  0  0  0  0  0  0  0  0  0  0  0
   -2.8775   -3.1559    0.6725 H   0  0  0  0  0  0  0  0  0  0  0  0
    1.7147   -3.2376    0.2535 H   0  0  0  0  0  0  0  0  0  0  0  0
   -2.1837   -2.8971   -1.4757 H   0  0  0  0  0  0  0  0  0  0  0  0
   -1.2827   -1.4176   -1.1527 H   0  0  0  0  0  0  0  0  0  0  0  0
   -1.2613   -5.0984   -0.6175 H   0  0  0  0  0  0  0  0  0  0  0  0
    0.4448   -5.2480   -0.1888 H   0  0  0  0  0  0  0  0  0  0  0  0
    0.9347   -2.4251    2.2352 H   0  0  0  0  0  0  0  0  0  0  0  0
    0.0759   -1.0872    1.5347 H   0  0  0  0  0  0  0  0  0  0  0  0
   -1.6507   -4.9331    1.6470 H   0  0  0  0  0  0  0  0  0  0  0  0
    0.0418   -4.6946    2.0077 H   0  0  0  0  0  0  0  0  0  0  0  0
   -1.8552   -0.3138    0.9832 H   0  0  0  0  0  0  0  0  0  0  0  0
   -3.0028   -1.1264    2.0516 H   0  0  0  0  0  0  0  0  0  0  0  0
   -4.4423   -1.4500    0.1699 H   0  0  0  0  0  0  0  0  0  0  0  0
   -4.4258    0.6229    1.5809 H   0  0  0  0  0  0  0  0  0  0  0  0
   -5.6734    0.5465   -1.1998 H   0  0  0  0  0  0  0  0  0  0  0  0
   -6.3783   -0.0645    0.2963 H   0  0  0  0  0  0  0  0  0  0  0  0
   -2.4487    1.7064    0.5218 H   0  0  0  0  0  0  0  0  0  0  0  0
   -3.2255    1.6337   -1.0576 H   0  0  0  0  0  0  0  0  0  0  0  0
    2.8598   -0.9562    1.1974 H   0  0  0  0  0  0  0  0  0  0  0  0
   -6.4750    2.1940    1.2548 H   0  0  0  0  0  0  0  0  0  0  0  0
   -7.2722    2.1544   -0.3219 H   0  0  0  0  0  0  0  0  0  0  0  0
   -3.4377    3.8598   -0.1002 H   0  0  0  0  0  0  0  0  0  0  0  0
   -4.1490    3.2285    1.3895 H   0  0  0  0  0  0  0  0  0  0  0  0
   -6.9799    4.5450   -0.5835 H   0  0  0  0  0  0  0  0  0  0  0  0
   -6.1612    4.6644    0.9892 H   0  0  0  0  0  0  0  0  0  0  0  0
   -5.3768    5.2579   -0.4908 H   0  0  0  0  0  0  0  0  0  0  0  0
    0.5421    0.2720   -3.9095 H   0  0  0  0  0  0  0  0  0  0  0  0
    2.2247   -0.0159   -4.4084 H   0  0  0  0  0  0  0  0  0  0  0  0
    1.7249    1.5879   -3.8243 H   0  0  0  0  0  0  0  0  0  0  0  0
    2.9274    1.8113    1.8661 H   0  0  0  0  0  0  0  0  0  0  0  0
    5.7440    0.7786   -1.2432 H   0  0  0  0  0  0  0  0  0  0  0  0
    4.6742    3.1296    2.9950 H   0  0  0  0  0  0  0  0  0  0  0  0
    7.4746    2.1091   -0.1003 H   0  0  0  0  0  0  0  0  0  0  0  0
    6.9497    3.2865    2.0193 H   0  0  0  0  0  0  0  0  0  0  0  0
  1  7  1  0  0  0  0
  1 11  1  0  0  0  0
  1 12  1  0  0  0  0
  2 13  1  0  0  0  0
  2 15  1  0  0  0  0
  2 44  1  0  0  0  0
  3 14  2  0  0  0  0
  3 22  1  0  0  0  0
  4 19  1  0  0  0  0
  4 20  1  0  0  0  0
  4 23  1  0  0  0  0
  5 21  1  0  0  0  0
  5 22  2  0  0  0  0
  6  8  1  0  0  0  0
  6  9  1  0  0  0  0
  6 10  1  0  0  0  0
  6 31  1  0  0  0  0
  7  9  1  0  0  0  0
  7 13  1  0  0  0  0
  7 32  1  0  0  0  0
  8 11  1  0  0  0  0
  8 14  1  0  0  0  0
  8 33  1  0  0  0  0
  9 34  1  0  0  0  0
  9 35  1  0  0  0  0
 10 12  1  0  0  0  0
 10 36  1  0  0  0  0
 10 37  1  0  0  0  0
 11 38  1  0  0  0  0
 11 39  1  0  0  0  0
 12 40  1  0  0  0  0
 12 41  1  0  0  0  0
 13 42  1  0  0  0  0
 13 43  1  0  0  0  0
 14 18  1  0  0  0  0
 15 16  1  0  0  0  0
 15 17  1  0  0  0  0
 15 45  1  0  0  0  0
 16 19  1  0  0  0  0
 16 46  1  0  0  0  0
 16 47  1  0  0  0  0
 17 20  1  0  0  0  0
 17 48  1  0  0  0  0
 17 49  1  0  0  0  0
 18 21  2  0  0  0  0
 18 50  1  0  0  0  0
 19 51  1  0  0  0  0
 19 52  1  0  0  0  0
 20 53  1  0  0  0  0
 20 54  1  0  0  0  0
 21 24  1  0  0  0  0
 22 25  1  0  0  0  0
 23 55  1  0  0  0  0
 23 56  1  0  0  0  0
 23 57  1  0  0  0  0
 24 26  2  0  0  0  0
 24 27  1  0  0  0  0
 25 58  1  0  0  0  0
 25 59  1  0  0  0  0
 25 60  1  0  0  0  0
 26 28  1  0  0  0  0
 26 61  1  0  0  0  0
 27 29  2  0  0  0  0
 27 62  1  0  0  0  0
 28 30  2  0  0  0  0
 28 63  1  0  0  0  0
 29 30  1  0  0  0  0
 29 64  1  0  0  0  0
 30 65  1  0  0  0  0
M  END
> <PUBCHEM_COMPOUND_CID>
45360474

> <PUBCHEM_CONFORMER_RMSD>
1

> <PUBCHEM_CONFORMER_DIVERSEORDER>
1
97
21
71
107
48
85
114
106
92
75
68
117
67
30
8
58
52
70
54
51
36
110
31
84
80
76
50
89
37
78
100
83
116
28
13
29
6
69
57
111
113
24
61
56
63
91
115
93
59
64
81
120
62
73
77
66
112
79
103
5
96
121
19
3
49
34
60
101
44
35
65
88
39
122
124
123
109
98
46
118
74
87
33
26
42
15
4
104
125
9
105
38
10
90
25
119
27
41
22
102
108
11
95
43
86
32
45
94
53
82
47
55
20
14
99
2
12
72
17
40
23
18
16
7

> <PUBCHEM_MMFF94_PARTIAL_CHARGES>
31
1 -0.81
11 0.27
12 0.27
13 0.27
14 0.17
15 0.27
18 -0.15
19 0.27
2 -0.9
20 0.27
21 0.31
22 0.48
23 0.27
25 0.14
26 -0.15
27 -0.15
28 -0.15
29 -0.15
3 -0.62
30 -0.15
4 -0.81
44 0.36
5 -0.62
50 0.15
61 0.15
62 0.15
63 0.15
64 0.15
65 0.15
7 0.27
8 0.14

> <PUBCHEM_EFFECTIVE_ROTOR_COUNT>
7.4

> <PUBCHEM_PHARMACOPHORE_FEATURES>
10
1 1 cation
1 2 cation
1 2 donor
1 3 acceptor
1 4 cation
3 3 5 22 cation
6 24 26 27 28 29 30 rings
6 3 5 14 18 21 22 rings
6 4 15 16 17 19 20 rings
8 1 6 7 8 9 10 11 12 rings

> <PUBCHEM_HEAVY_ATOM_COUNT>
30

> <PUBCHEM_ATOM_DEF_STEREO_COUNT>
3

> <PUBCHEM_ATOM_UDEF_STEREO_COUNT>
0

> <PUBCHEM_BOND_DEF_STEREO_COUNT>
0

> <PUBCHEM_BOND_UDEF_STEREO_COUNT>
0

> <PUBCHEM_ISOTOPIC_ATOM_COUNT>
0

> <PUBCHEM_COMPONENT_COUNT>
1

> <PUBCHEM_CACTVS_TAUTO_COUNT>
1

> <PUBCHEM_CONFORMER_ID>
02B4255A00000001

> <PUBCHEM_MMFF94_ENERGY>
71.7589

> <PUBCHEM_FEATURE_SELFOVERLAP>
50.748

> <PUBCHEM_SHAPE_FINGERPRINT>
10042902 136 9367348145558329923
10675989 125 18125443003672956825
10764073 3 18336538319131915414
10794284 68 16588030087579080796
10937287 8 18410854331016396051
11720765 8 17554621594894741238
11763715 3 17255970494623166254
12107183 9 18262223453444455794
12422481 6 17386556969043452244
12633257 1 16081094796177347771
12788726 201 17464565339434602555
13103583 49 16371285649001112554
13257819 101 17846221124261556980
13402501 40 18130507551608759712
13583140 156 17557432269523801638
13965767 371 18040990687879136238
14223995 32 18411416194343416312
14251764 30 8646773304453522504
14739800 52 18409439276562357051
14932701 244 18057028319891900239
14950920 106 16154843533545657443
15198563 99 17911509111170580735
15297060 5 17975732473831752373
15338160 23 18049154768581146276
15773879 134 18340195298420292943
19053607 189 18042137470497793085
19304671 126 17774168877274023401
19438510 23 18272651238316407529
20587220 17 18122048811979580813
21033648 29 18408326605207435584
21133410 221 17413567778061605040
21304303 282 18268418204523507175
21591340 35 18053109414830638641
21859007 373 18341341092842620478
22149856 69 18118995545919832745
23522609 53 17459760409961525780
23559900 14 17763184640754799847
23569914 2 16841310403298600552
2838139 119 18272362092274807526
3418910 222 17184471461134622920
3459 39 18334848437551137133
376196 1 18340772550615160051
4366758 6 18041826386263833311
508706 21 18056188318224006432
5219985 13 18411135831583211507
5951187 136 17556024589312630517
6201320 77 13985765254170738360
6371009 1 18187643665420440493
6371380 46 18338524045684988838
6523845 18 17979678638570951459
6677587 24 17487035787898961821
6695519 79 18194714534879213731
7064713 232 18187368739641212565
7288768 16 18260263058070748067
7970288 3 9151174255369714905
9849439 229 18408886205239437785
9981440 41 18334019389199985571

> <PUBCHEM_SHAPE_MULTIPOLES>
592.48
14.67
5.98
2.06
1.91
2.51
-1.72
-25.02
3.78
5.9
2
-2.53
-0.05
2.39

> <PUBCHEM_SHAPE_SELFOVERLAP>
1268.039

> <PUBCHEM_SHAPE_VOLUME>
315.9

> <PUBCHEM_COORDINATE_TYPE>
2
5
10

$$$$
