11887504
  -OEChem-12032416393D

 59 63  0     1  0  0  0  0  0999 V2000
    2.5714   -4.8981   -0.1736 F   0  0  0  0  0  0  0  0  0  0  0  0
   -0.5459    2.5824    1.8515 O   0  0  0  0  0  0  0  0  0  0  0  0
   -2.8928   -2.0854    1.8473 O   0  0  0  0  0  0  0  0  0  0  0  0
    2.3608    1.4458   -1.8497 O   0  0  0  0  0  0  0  0  0  0  0  0
   -3.9395   -0.7497    0.2743 N   0  0  0  0  0  0  0  0  0  0  0  0
   -2.2531    1.9566    0.3840 N   0  0  0  0  0  0  0  0  0  0  0  0
   -2.3508   -2.3633   -0.3897 N   0  0  0  0  0  0  0  0  0  0  0  0
    1.3445    2.6582   -0.1411 N   0  0  0  0  0  0  0  0  0  0  0  0
   -4.6433    1.4781    1.1634 C   0  0  1  0  0  0  0  0  0  0  0  0
   -4.0666    1.2430   -1.2139 C   0  0  2  0  0  0  0  0  0  0  0  0
   -5.0411    1.9054   -0.2438 C   0  0  0  0  0  0  0  0  0  0  0  0
   -4.7206   -0.0519    1.2997 C   0  0  0  0  0  0  0  0  0  0  0  0
   -3.2406    2.0148    1.4699 C   0  0  0  0  0  0  0  0  0  0  0  0
   -4.1825   -0.2923   -1.1060 C   0  0  0  0  0  0  0  0  0  0  0  0
   -2.6375    1.6680   -0.9293 C   0  0  0  0  0  0  0  0  0  0  0  0
   -1.7391    1.7341   -1.9262 C   0  0  0  0  0  0  0  0  0  0  0  0
   -0.9277    2.3048    0.7138 C   0  0  0  0  0  0  0  0  0  0  0  0
   -3.0360   -1.7625    0.6652 C   0  0  0  0  0  0  0  0  0  0  0  0
    0.0481    2.3413   -0.4213 C   0  0  0  0  0  0  0  0  0  0  0  0
   -0.3698    2.0764   -1.6637 C   0  0  0  0  0  0  0  0  0  0  0  0
   -1.0919   -3.0108   -0.3347 C   0  0  0  0  0  0  0  0  0  0  0  0
    2.4285    2.1895   -0.8740 C   0  0  0  0  0  0  0  0  0  0  0  0
    3.7387    2.7165   -0.3182 C   0  0  0  0  0  0  0  0  0  0  0  0
   -0.5903   -3.6458   -1.4673 C   0  0  0  0  0  0  0  0  0  0  0  0
   -0.3641   -3.0093    0.8522 C   0  0  0  0  0  0  0  0  0  0  0  0
    4.6776    1.6283    0.1311 C   0  0  0  0  0  0  0  0  0  0  0  0
    0.6486   -4.2845   -1.4129 C   0  0  0  0  0  0  0  0  0  0  0  0
    0.8748   -3.6479    0.9069 C   0  0  0  0  0  0  0  0  0  0  0  0
    1.3812   -4.2854   -0.2258 C   0  0  0  0  0  0  0  0  0  0  0  0
    4.6183    1.1728    1.4407 C   0  0  0  0  0  0  0  0  0  0  0  0
    5.5881    1.0961   -0.7708 C   0  0  0  0  0  0  0  0  0  0  0  0
    5.4878    0.1646    1.8570 C   0  0  0  0  0  0  0  0  0  0  0  0
    6.4575    0.0878   -0.3545 C   0  0  0  0  0  0  0  0  0  0  0  0
    6.4072   -0.3778    0.9595 C   0  0  0  0  0  0  0  0  0  0  0  0
   -5.3429    1.9104    1.8895 H   0  0  0  0  0  0  0  0  0  0  0  0
   -4.3448    1.5398   -2.2335 H   0  0  0  0  0  0  0  0  0  0  0  0
   -6.0704    1.5958   -0.4624 H   0  0  0  0  0  0  0  0  0  0  0  0
   -5.0061    2.9978   -0.3408 H   0  0  0  0  0  0  0  0  0  0  0  0
   -4.4082   -0.3536    2.3048 H   0  0  0  0  0  0  0  0  0  0  0  0
   -5.7598   -0.3816    1.1777 H   0  0  0  0  0  0  0  0  0  0  0  0
   -3.3222    3.0773    1.7372 H   0  0  0  0  0  0  0  0  0  0  0  0
   -2.8213    1.5140    2.3516 H   0  0  0  0  0  0  0  0  0  0  0  0
   -5.1975   -0.6131   -1.3706 H   0  0  0  0  0  0  0  0  0  0  0  0
   -3.5037   -0.7505   -1.8265 H   0  0  0  0  0  0  0  0  0  0  0  0
   -2.0110    1.5061   -2.9516 H   0  0  0  0  0  0  0  0  0  0  0  0
    0.2627    2.1369   -2.5412 H   0  0  0  0  0  0  0  0  0  0  0  0
   -2.7954   -2.3862   -1.3008 H   0  0  0  0  0  0  0  0  0  0  0  0
    1.5211    3.0665    0.7734 H   0  0  0  0  0  0  0  0  0  0  0  0
    3.5713    3.4189    0.5078 H   0  0  0  0  0  0  0  0  0  0  0  0
    4.2085    3.3151   -1.1096 H   0  0  0  0  0  0  0  0  0  0  0  0
   -1.1513   -3.6521   -2.3982 H   0  0  0  0  0  0  0  0  0  0  0  0
   -0.6852   -2.5021    1.7533 H   0  0  0  0  0  0  0  0  0  0  0  0
    1.0434   -4.7809   -2.2945 H   0  0  0  0  0  0  0  0  0  0  0  0
    1.4500   -3.6422    1.8281 H   0  0  0  0  0  0  0  0  0  0  0  0
    3.9039    1.5875    2.1464 H   0  0  0  0  0  0  0  0  0  0  0  0
    5.6342    1.4503   -1.7968 H   0  0  0  0  0  0  0  0  0  0  0  0
    5.4481   -0.1987    2.8798 H   0  0  0  0  0  0  0  0  0  0  0  0
    7.1731   -0.3352   -1.0534 H   0  0  0  0  0  0  0  0  0  0  0  0
    7.0838   -1.1632    1.2835 H   0  0  0  0  0  0  0  0  0  0  0  0
  1 29  1  0  0  0  0
  2 17  2  0  0  0  0
  3 18  2  0  0  0  0
  4 22  2  0  0  0  0
  5 12  1  0  0  0  0
  5 14  1  0  0  0  0
  5 18  1  0  0  0  0
  6 13  1  0  0  0  0
  6 15  1  0  0  0  0
  6 17  1  0  0  0  0
  7 18  1  0  0  0  0
  7 21  1  0  0  0  0
  7 47  1  0  0  0  0
  8 19  1  0  0  0  0
  8 22  1  0  0  0  0
  8 48  1  0  0  0  0
  9 11  1  0  0  0  0
  9 12  1  0  0  0  0
  9 13  1  0  0  0  0
  9 35  1  0  0  0  0
 10 11  1  0  0  0  0
 10 14  1  0  0  0  0
 10 15  1  0  0  0  0
 10 36  1  0  0  0  0
 11 37  1  0  0  0  0
 11 38  1  0  0  0  0
 12 39  1  0  0  0  0
 12 40  1  0  0  0  0
 13 41  1  0  0  0  0
 13 42  1  0  0  0  0
 14 43  1  0  0  0  0
 14 44  1  0  0  0  0
 15 16  2  0  0  0  0
 16 20  1  0  0  0  0
 16 45  1  0  0  0  0
 17 19  1  0  0  0  0
 19 20  2  0  0  0  0
 20 46  1  0  0  0  0
 21 24  2  0  0  0  0
 21 25  1  0  0  0  0
 22 23  1  0  0  0  0
 23 26  1  0  0  0  0
 23 49  1  0  0  0  0
 23 50  1  0  0  0  0
 24 27  1  0  0  0  0
 24 51  1  0  0  0  0
 25 28  2  0  0  0  0
 25 52  1  0  0  0  0
 26 30  2  0  0  0  0
 26 31  1  0  0  0  0
 27 29  2  0  0  0  0
 27 53  1  0  0  0  0
 28 29  1  0  0  0  0
 28 54  1  0  0  0  0
 30 32  1  0  0  0  0
 30 55  1  0  0  0  0
 31 33  2  0  0  0  0
 31 56  1  0  0  0  0
 32 34  2  0  0  0  0
 32 57  1  0  0  0  0
 33 34  1  0  0  0  0
 33 58  1  0  0  0  0
 34 59  1  0  0  0  0
M  END
> <PUBCHEM_COMPOUND_CID>
11887504

> <PUBCHEM_CONFORMER_RMSD>
1

> <PUBCHEM_CONFORMER_DIVERSEORDER>
1
54
46
27
55
16
25
43
42
30
60
64
41
31
63
61
36
45
59
3
62
47
28
53
33
52
21
51
40
26
32
22
49
29
37
13
50
38
9
5
56
34
35
6
23
18
39
48
7
58
44
11
19
17
20
57
8
15
14
4
12
2
24
10

> <PUBCHEM_MMFF94_PARTIAL_CHARGES>
45
1 -0.19
10 0.14
12 0.3
13 0.3
14 0.3
15 -0.03
16 -0.15
17 0.62
18 0.69
19 0.12
2 -0.57
20 -0.15
21 0.12
22 0.57
23 0.2
24 -0.15
25 -0.15
26 -0.14
27 -0.15
28 -0.15
29 0.19
3 -0.57
30 -0.15
31 -0.15
32 -0.15
33 -0.15
34 -0.15
4 -0.57
45 0.15
46 0.15
47 0.37
48 0.37
5 -0.66
51 0.15
52 0.15
53 0.15
54 0.15
55 0.15
56 0.15
57 0.15
58 0.15
59 0.15
6 -0.47
7 -0.55
8 -0.54

> <PUBCHEM_EFFECTIVE_ROTOR_COUNT>
8

> <PUBCHEM_PHARMACOPHORE_FEATURES>
10
1 2 acceptor
1 3 acceptor
1 4 acceptor
1 7 donor
1 8 donor
6 21 24 25 27 28 29 rings
6 26 30 31 32 33 34 rings
6 5 9 10 11 12 14 rings
6 6 15 16 17 19 20 rings
6 6 9 10 11 13 15 rings

> <PUBCHEM_HEAVY_ATOM_COUNT>
34

> <PUBCHEM_ATOM_DEF_STEREO_COUNT>
2

> <PUBCHEM_ATOM_UDEF_STEREO_COUNT>
0

> <PUBCHEM_BOND_DEF_STEREO_COUNT>
0

> <PUBCHEM_BOND_UDEF_STEREO_COUNT>
0

> <PUBCHEM_ISOTOPIC_ATOM_COUNT>
0

> <PUBCHEM_COMPONENT_COUNT>
1

> <PUBCHEM_CACTVS_TAUTO_COUNT>
4

> <PUBCHEM_CONFORMER_ID>
00B5639000000001

> <PUBCHEM_MMFF94_ENERGY>
98.1371

> <PUBCHEM_FEATURE_SELFOVERLAP>
52.316

> <PUBCHEM_SHAPE_FINGERPRINT>
11513181 2 18130785603538954551
11524674 6 18342735221788225933
12422481 6 18187367614407097632
14020679 6 17702963542181113193
14028597 1 17774179941647147553
14840074 17 18040154011212431056
15001296 14 18044369667874159840
15064986 96 18115039511378169097
15274700 242 17096624648573269912
15297060 5 18201717341004237242
16628084 112 17976816816015366223
16728300 4 18042399291434910795
20764821 26 18410865377751169222
20775530 9 17044023152447020287
21344244 246 18338222792504550111
229767 44 18336824294870218690
23516275 137 18045812047089244672
238918 7 18343589555529994646
3383291 50 18271237339388470951
338550 245 18260269681200040068
373842 8 18264765463998156946
5085150 59 18341324574376885271
5265222 85 18263656215025484364
6287921 2 17911512104113484122

> <PUBCHEM_SHAPE_MULTIPOLES>
654.9
12.58
6.01
1.79
15.26
8.91
-0.07
-6.11
-3.27
0.98
1.07
-0.29
-0.29
-0.14

> <PUBCHEM_SHAPE_SELFOVERLAP>
1434.061

> <PUBCHEM_SHAPE_VOLUME>
350.3

> <PUBCHEM_COORDINATE_TYPE>
2
5
10

$$$$
