7156584
  -OEChem-12032416233D

 46 49  0     1  0  0  0  0  0999 V2000
   -6.8107    2.1015   -1.0781 Cl  0  0  0  0  0  0  0  0  0  0  0  0
   -2.2534   -2.0202    0.0996 S   0  0  0  0  0  0  0  0  0  0  0  0
    1.3672   -1.6650    0.1548 O   0  0  0  0  0  0  0  0  0  0  0  0
   -2.7695   -2.9810    1.0564 O   0  0  0  0  0  0  0  0  0  0  0  0
   -1.7204   -2.4633   -1.1750 O   0  0  0  0  0  0  0  0  0  0  0  0
    2.4873    2.8907   -0.2002 O   0  0  0  0  0  0  0  0  0  0  0  0
   -1.1175   -1.0116    0.8656 N   0  0  1  0  0  0  0  0  0  0  0  0
    0.3934    2.2694    0.3755 N   0  0  0  0  0  0  0  0  0  0  0  0
    2.0284    0.5887   -0.0001 N   0  0  0  0  0  0  0  0  0  0  0  0
   -0.6171    1.3016    0.6851 C   0  0  1  0  0  0  0  0  0  0  0  0
   -0.3688   -0.0323    0.0157 C   0  0  1  0  0  0  0  0  0  0  0  0
   -0.7139    0.9483    2.1608 C   0  0  0  0  0  0  0  0  0  0  0  0
   -1.5468   -0.3245    2.1212 C   0  0  0  0  0  0  0  0  0  0  0  0
    1.0846   -0.4676    0.0631 C   0  0  0  0  0  0  0  0  0  0  0  0
    1.7040    1.9714    0.0591 C   0  0  0  0  0  0  0  0  0  0  0  0
   -3.5407   -0.8559   -0.2331 C   0  0  0  0  0  0  0  0  0  0  0  0
    3.4268    0.2357   -0.1436 C   0  0  0  0  0  0  0  0  0  0  0  0
   -3.5317   -0.1621   -1.4309 C   0  0  0  0  0  0  0  0  0  0  0  0
   -4.5345   -0.6590    0.7103 C   0  0  0  0  0  0  0  0  0  0  0  0
    3.7728   -0.9296   -0.8141 C   0  0  0  0  0  0  0  0  0  0  0  0
    4.4010    1.0675    0.3914 C   0  0  0  0  0  0  0  0  0  0  0  0
   -4.5478    0.7568   -1.6933 C   0  0  0  0  0  0  0  0  0  0  0  0
   -5.5506    0.2599    0.4478 C   0  0  0  0  0  0  0  0  0  0  0  0
    5.1186   -1.2696   -0.9523 C   0  0  0  0  0  0  0  0  0  0  0  0
    5.7467    0.7276    0.2532 C   0  0  0  0  0  0  0  0  0  0  0  0
    6.1055   -0.4409   -0.4186 C   0  0  0  0  0  0  0  0  0  0  0  0
   -5.5572    0.9679   -0.7540 C   0  0  0  0  0  0  0  0  0  0  0  0
    7.5445   -0.8043   -0.5662 C   0  0  0  0  0  0  0  0  0  0  0  0
   -1.5753    1.7194    0.3512 H   0  0  0  0  0  0  0  0  0  0  0  0
   -0.6767   -0.0249   -1.0326 H   0  0  0  0  0  0  0  0  0  0  0  0
   -1.1834    1.7374    2.7561 H   0  0  0  0  0  0  0  0  0  0  0  0
    0.2751    0.7500    2.5922 H   0  0  0  0  0  0  0  0  0  0  0  0
   -2.5979   -0.0516    2.1377 H   0  0  0  0  0  0  0  0  0  0  0  0
   -1.3369   -0.9606    2.9859 H   0  0  0  0  0  0  0  0  0  0  0  0
    0.1368    3.2507    0.4232 H   0  0  0  0  0  0  0  0  0  0  0  0
   -2.7586   -0.3122   -2.1777 H   0  0  0  0  0  0  0  0  0  0  0  0
   -4.5566   -1.2067    1.6475 H   0  0  0  0  0  0  0  0  0  0  0  0
    3.0558   -1.5670   -1.3199 H   0  0  0  0  0  0  0  0  0  0  0  0
    4.1763    1.9453    0.9878 H   0  0  0  0  0  0  0  0  0  0  0  0
   -4.5406    1.3011   -2.6342 H   0  0  0  0  0  0  0  0  0  0  0  0
   -6.3320    0.4124    1.1879 H   0  0  0  0  0  0  0  0  0  0  0  0
    5.3872   -2.1723   -1.4948 H   0  0  0  0  0  0  0  0  0  0  0  0
    6.5065    1.3732    0.6860 H   0  0  0  0  0  0  0  0  0  0  0  0
    7.9503   -0.3660   -1.4834 H   0  0  0  0  0  0  0  0  0  0  0  0
    8.1321   -0.4442    0.2851 H   0  0  0  0  0  0  0  0  0  0  0  0
    7.6756   -1.8910   -0.6088 H   0  0  0  0  0  0  0  0  0  0  0  0
  1 27  1  0  0  0  0
  2  4  2  0  0  0  0
  2  5  2  0  0  0  0
  2  7  1  0  0  0  0
  2 16  1  0  0  0  0
  3 14  2  0  0  0  0
  6 15  2  0  0  0  0
  7 11  1  0  0  0  0
  7 13  1  0  0  0  0
  8 10  1  0  0  0  0
  8 15  1  0  0  0  0
  8 35  1  0  0  0  0
  9 14  1  0  0  0  0
  9 15  1  0  0  0  0
  9 17  1  0  0  0  0
 10 11  1  0  0  0  0
 10 12  1  0  0  0  0
 10 29  1  0  0  0  0
 11 14  1  0  0  0  0
 11 30  1  0  0  0  0
 12 13  1  0  0  0  0
 12 31  1  0  0  0  0
 12 32  1  0  0  0  0
 13 33  1  0  0  0  0
 13 34  1  0  0  0  0
 16 18  2  0  0  0  0
 16 19  1  0  0  0  0
 17 20  2  0  0  0  0
 17 21  1  0  0  0  0
 18 22  1  0  0  0  0
 18 36  1  0  0  0  0
 19 23  2  0  0  0  0
 19 37  1  0  0  0  0
 20 24  1  0  0  0  0
 20 38  1  0  0  0  0
 21 25  2  0  0  0  0
 21 39  1  0  0  0  0
 22 27  2  0  0  0  0
 22 40  1  0  0  0  0
 23 27  1  0  0  0  0
 23 41  1  0  0  0  0
 24 26  2  0  0  0  0
 24 42  1  0  0  0  0
 25 26  1  0  0  0  0
 25 43  1  0  0  0  0
 26 28  1  0  0  0  0
 28 44  1  0  0  0  0
 28 45  1  0  0  0  0
 28 46  1  0  0  0  0
M  END
> <PUBCHEM_COMPOUND_CID>
7156584

> <PUBCHEM_CONFORMER_RMSD>
0.8

> <PUBCHEM_CONFORMER_DIVERSEORDER>
2
12
21
11
25
10
26
14
8
29
18
27
22
6
3
13
28
23
19
24
17
20
16
5
15
4
9
1
7

> <PUBCHEM_MMFF94_PARTIAL_CHARGES>
36
1 -0.18
10 0.3
11 0.42
13 0.36
14 0.57
15 0.69
16 -0.01
17 0.12
18 -0.15
19 -0.15
2 1.45
20 -0.15
21 -0.15
22 -0.15
23 -0.15
24 -0.15
25 -0.15
26 -0.14
27 0.18
28 0.14
3 -0.57
35 0.37
36 0.15
37 0.15
38 0.15
39 0.15
4 -0.65
40 0.15
41 0.15
42 0.15
43 0.15
5 -0.65
6 -0.57
7 -0.85
8 -0.73
9 -0.24

> <PUBCHEM_EFFECTIVE_ROTOR_COUNT>
4

> <PUBCHEM_PHARMACOPHORE_FEATURES>
9
1 3 acceptor
1 4 acceptor
1 5 acceptor
1 6 acceptor
1 8 donor
5 7 10 11 12 13 rings
6 16 18 19 22 23 27 rings
6 17 20 21 24 25 26 rings
6 8 9 10 11 14 15 rings

> <PUBCHEM_HEAVY_ATOM_COUNT>
28

> <PUBCHEM_ATOM_DEF_STEREO_COUNT>
2

> <PUBCHEM_ATOM_UDEF_STEREO_COUNT>
0

> <PUBCHEM_BOND_DEF_STEREO_COUNT>
0

> <PUBCHEM_BOND_UDEF_STEREO_COUNT>
0

> <PUBCHEM_ISOTOPIC_ATOM_COUNT>
0

> <PUBCHEM_COMPONENT_COUNT>
1

> <PUBCHEM_CACTVS_TAUTO_COUNT>
2

> <PUBCHEM_CONFORMER_ID>
006D336800000002

> <PUBCHEM_MMFF94_ENERGY>
81.7264

> <PUBCHEM_FEATURE_SELFOVERLAP>
45.875

> <PUBCHEM_SHAPE_FINGERPRINT>
10165383 225 18114179697526876389
10835480 77 18341888649633415216
11315181 36 17846784026833194338
11421498 54 14129327460453389140
11578080 2 15286791168555023228
11796584 16 18334574668362856386
12236239 1 17561084721647162305
12596602 18 12823297875695345902
12788726 201 18059008363728130017
13533116 47 17274825710363734310
13782708 43 18189626114824121235
13944108 23 17614546057452829109
13947920 75 16056602011349484315
14068700 675 16988837272421820952
14117953 113 18272937090233883246
14251752 14 17894627033295290066
14787075 74 8142085351396463469
14849402 71 12829791616759240574
14856354 85 15647344056490351115
15052358 14 18409164390091819293
15183329 4 18409444756655523113
16087824 20 18267023865055568493
17349148 13 17632585962880647920
17857418 61 17489591147721857326
17980427 23 17059792077661481249
200 152 17703793625871889058
20511986 3 17631999936310453942
21033648 29 18187640353325688040
21236236 1 18130511825148724233
21279426 13 18411138043327838676
21365058 27 13912609338026261600
21756936 100 15936407845117642359
22079108 93 8862938369001484236
22224240 67 13262402146668076289
22393880 68 18261948652013433770
23198884 109 15936413342565004966
23402539 116 17346883351007654458
23559900 14 18272085054479459488
3004659 81 18260830415066465388
3009799 131 18341610404366018372
335352 9 18411419518209552133
339767 52 15913325810174004205
3633792 109 17845655850382590585
4015057 19 17846209029333114257
4098825 35 17676777577601292028
44062 13 18335985384219425027
504579 68 18337688468634770436
5265222 85 17604446213890065230
5283173 99 18336542729319672436
57527295 17 17749384901409193002
59682541 35 9006762207912787797
59755656 215 18410295766493674398
59755656 520 15791733001143626563
633830 44 17531801501521447656
6913067 236 14261356851255589728
7226269 152 18343584031959127249
7399639 24 17115787172912354041

> <PUBCHEM_SHAPE_MULTIPOLES>
543.53
16.06
2.41
1.43
8.85
0.08
-0.39
-1.94
6.14
-1.07
0
-1.43
0
1.6

> <PUBCHEM_SHAPE_SELFOVERLAP>
1167.021

> <PUBCHEM_SHAPE_VOLUME>
301.2

> <PUBCHEM_COORDINATE_TYPE>
2
5
10

$$$$
