11943318
  -OEChem-12032416283D

 57 60  0     1  0  0  0  0  0999 V2000
   -0.4695    1.0869    0.4988 O   0  0  0  0  0  0  0  0  0  0  0  0
    5.4899   -0.9501   -1.0718 O   0  0  0  0  0  0  0  0  0  0  0  0
   -4.9828    1.6587    0.1364 N   0  0  2  0  0  0  0  0  0  0  0  0
   -2.0416   -0.5760    0.8382 N   0  0  0  0  0  0  0  0  0  0  0  0
    0.1149   -1.1757    0.2752 N   0  0  0  0  0  0  0  0  0  0  0  0
   -5.9209   -0.3018   -1.2932 C   0  0  2  0  0  0  0  0  0  0  0  0
   -6.8051   -0.0531   -0.0500 C   0  0  2  0  0  0  0  0  0  0  0  0
   -3.9112    0.6601   -0.1244 C   0  0  2  0  0  0  0  0  0  0  0  0
   -4.4760   -0.5856   -0.8428 C   0  0  0  0  0  0  0  0  0  0  0  0
   -6.1249    1.0179    0.8322 C   0  0  0  0  0  0  0  0  0  0  0  0
   -5.8984    1.0128   -2.0964 C   0  0  0  0  0  0  0  0  0  0  0  0
   -5.4640    2.1643   -1.1724 C   0  0  0  0  0  0  0  0  0  0  0  0
   -7.1057   -1.3252    0.7396 C   0  0  0  0  0  0  0  0  0  0  0  0
   -3.1423    0.2845    1.1442 C   0  0  0  0  0  0  0  0  0  0  0  0
   -8.0584   -1.0517    1.8873 C   0  0  0  0  0  0  0  0  0  0  0  0
   -0.7514   -0.1086    0.5294 C   0  0  0  0  0  0  0  0  0  0  0  0
    1.4858   -1.1181   -0.0677 C   0  0  0  0  0  0  0  0  0  0  0  0
    2.1055    0.1158   -0.1810 C   0  0  0  0  0  0  0  0  0  0  0  0
    2.1808   -2.2969   -0.2837 C   0  0  0  0  0  0  0  0  0  0  0  0
    3.4574    0.1725   -0.5196 C   0  0  0  0  0  0  0  0  0  0  0  0
    3.5329   -2.2401   -0.6220 C   0  0  0  0  0  0  0  0  0  0  0  0
    4.1712   -1.0055   -0.7400 C   0  0  0  0  0  0  0  0  0  0  0  0
    6.2993   -0.0878   -0.3513 C   0  0  0  0  0  0  0  0  0  0  0  0
    6.1872   -0.0520    1.0268 C   0  0  0  0  0  0  0  0  0  0  0  0
    7.1982    0.7162   -1.0286 C   0  0  0  0  0  0  0  0  0  0  0  0
    7.0018    0.8174    1.7524 C   0  0  0  0  0  0  0  0  0  0  0  0
    8.0128    1.5855   -0.3030 C   0  0  0  0  0  0  0  0  0  0  0  0
    7.9146    1.6360    1.0875 C   0  0  0  0  0  0  0  0  0  0  0  0
   -6.3088   -1.1222   -1.9060 H   0  0  0  0  0  0  0  0  0  0  0  0
   -7.7646    0.3516   -0.4035 H   0  0  0  0  0  0  0  0  0  0  0  0
   -3.1805    1.1321   -0.7979 H   0  0  0  0  0  0  0  0  0  0  0  0
   -3.8569   -0.8089   -1.7210 H   0  0  0  0  0  0  0  0  0  0  0  0
   -4.4502   -1.4768   -0.2073 H   0  0  0  0  0  0  0  0  0  0  0  0
   -5.7844    0.6134    1.7906 H   0  0  0  0  0  0  0  0  0  0  0  0
   -6.8601    1.7894    1.0963 H   0  0  0  0  0  0  0  0  0  0  0  0
   -5.2043    0.9240   -2.9409 H   0  0  0  0  0  0  0  0  0  0  0  0
   -6.8908    1.2234   -2.5122 H   0  0  0  0  0  0  0  0  0  0  0  0
   -4.6769    2.7551   -1.6573 H   0  0  0  0  0  0  0  0  0  0  0  0
   -6.2984    2.8601   -1.0172 H   0  0  0  0  0  0  0  0  0  0  0  0
   -6.1902   -1.7712    1.1427 H   0  0  0  0  0  0  0  0  0  0  0  0
   -7.5569   -2.0699    0.0731 H   0  0  0  0  0  0  0  0  0  0  0  0
   -3.7707   -0.2548    1.8600 H   0  0  0  0  0  0  0  0  0  0  0  0
   -2.7648    1.1855    1.6414 H   0  0  0  0  0  0  0  0  0  0  0  0
   -7.6186   -0.4003    2.6478 H   0  0  0  0  0  0  0  0  0  0  0  0
   -8.9842   -0.5881    1.5310 H   0  0  0  0  0  0  0  0  0  0  0  0
   -8.3263   -1.9921    2.3804 H   0  0  0  0  0  0  0  0  0  0  0  0
   -2.2011   -1.5789    0.8411 H   0  0  0  0  0  0  0  0  0  0  0  0
   -0.2819   -2.1096    0.3427 H   0  0  0  0  0  0  0  0  0  0  0  0
    1.6216    1.0696   -0.0320 H   0  0  0  0  0  0  0  0  0  0  0  0
    1.6933   -3.2637   -0.1944 H   0  0  0  0  0  0  0  0  0  0  0  0
    3.9236    1.1484   -0.6282 H   0  0  0  0  0  0  0  0  0  0  0  0
    4.0838   -3.1610   -0.7926 H   0  0  0  0  0  0  0  0  0  0  0  0
    5.5016   -0.6960    1.5696 H   0  0  0  0  0  0  0  0  0  0  0  0
    7.2752    0.6782   -2.1109 H   0  0  0  0  0  0  0  0  0  0  0  0
    6.9293    0.8530    2.8355 H   0  0  0  0  0  0  0  0  0  0  0  0
    8.7237    2.2228   -0.8208 H   0  0  0  0  0  0  0  0  0  0  0  0
    8.5498    2.3119    1.6525 H   0  0  0  0  0  0  0  0  0  0  0  0
  1 16  2  0  0  0  0
  2 22  1  0  0  0  0
  2 23  1  0  0  0  0
  3  8  1  0  0  0  0
  3 10  1  0  0  0  0
  3 12  1  0  0  0  0
  4 14  1  0  0  0  0
  4 16  1  0  0  0  0
  4 47  1  0  0  0  0
  5 16  1  0  0  0  0
  5 17  1  0  0  0  0
  5 48  1  0  0  0  0
  6  7  1  0  0  0  0
  6  9  1  0  0  0  0
  6 11  1  0  0  0  0
  6 29  1  0  0  0  0
  7 10  1  0  0  0  0
  7 13  1  0  0  0  0
  7 30  1  0  0  0  0
  8  9  1  0  0  0  0
  8 14  1  0  0  0  0
  8 31  1  0  0  0  0
  9 32  1  0  0  0  0
  9 33  1  0  0  0  0
 10 34  1  0  0  0  0
 10 35  1  0  0  0  0
 11 12  1  0  0  0  0
 11 36  1  0  0  0  0
 11 37  1  0  0  0  0
 12 38  1  0  0  0  0
 12 39  1  0  0  0  0
 13 15  1  0  0  0  0
 13 40  1  0  0  0  0
 13 41  1  0  0  0  0
 14 42  1  0  0  0  0
 14 43  1  0  0  0  0
 15 44  1  0  0  0  0
 15 45  1  0  0  0  0
 15 46  1  0  0  0  0
 17 18  2  0  0  0  0
 17 19  1  0  0  0  0
 18 20  1  0  0  0  0
 18 49  1  0  0  0  0
 19 21  2  0  0  0  0
 19 50  1  0  0  0  0
 20 22  2  0  0  0  0
 20 51  1  0  0  0  0
 21 22  1  0  0  0  0
 21 52  1  0  0  0  0
 23 24  2  0  0  0  0
 23 25  1  0  0  0  0
 24 26  1  0  0  0  0
 24 53  1  0  0  0  0
 25 27  2  0  0  0  0
 25 54  1  0  0  0  0
 26 28  2  0  0  0  0
 26 55  1  0  0  0  0
 27 28  1  0  0  0  0
 27 56  1  0  0  0  0
 28 57  1  0  0  0  0
M  END
> <PUBCHEM_COMPOUND_CID>
11943318

> <PUBCHEM_CONFORMER_RMSD>
1

> <PUBCHEM_CONFORMER_DIVERSEORDER>
1
45
38
67
11
20
68
30
49
9
52
5
3
46
48
39
64
69
23
8
41
65
53
10
58
13
15
36
63
16
14
50
35
47
59
2
57
28
42
72
7
61
40
43
12
55
17
32
18
29
34
62
33
6
54
56
73
24
51
4
19
26
71
66
37
44
60
27
70
25
31
21
22

> <PUBCHEM_MMFF94_PARTIAL_CHARGES>
33
1 -0.57
10 0.27
12 0.27
14 0.3
16 0.69
17 0.12
18 -0.15
19 -0.15
2 -0.17
20 -0.15
21 -0.15
22 0.08
23 0.08
24 -0.15
25 -0.15
26 -0.15
27 -0.15
28 -0.15
3 -0.81
4 -0.73
47 0.37
48 0.37
49 0.15
5 -0.55
50 0.15
51 0.15
52 0.15
53 0.15
54 0.15
55 0.15
56 0.15
57 0.15
8 0.27

> <PUBCHEM_EFFECTIVE_ROTOR_COUNT>
9.2

> <PUBCHEM_PHARMACOPHORE_FEATURES>
9
1 1 acceptor
1 15 hydrophobe
1 2 acceptor
1 3 cation
1 4 donor
1 5 donor
6 17 18 19 20 21 22 rings
6 23 24 25 26 27 28 rings
8 3 6 7 8 9 10 11 12 rings

> <PUBCHEM_HEAVY_ATOM_COUNT>
28

> <PUBCHEM_ATOM_DEF_STEREO_COUNT>
3

> <PUBCHEM_ATOM_UDEF_STEREO_COUNT>
0

> <PUBCHEM_BOND_DEF_STEREO_COUNT>
0

> <PUBCHEM_BOND_UDEF_STEREO_COUNT>
0

> <PUBCHEM_ISOTOPIC_ATOM_COUNT>
0

> <PUBCHEM_COMPONENT_COUNT>
1

> <PUBCHEM_CACTVS_TAUTO_COUNT>
3

> <PUBCHEM_CONFORMER_ID>
00B63D9600000001

> <PUBCHEM_MMFF94_ENERGY>
86.1511

> <PUBCHEM_FEATURE_SELFOVERLAP>
45.718

> <PUBCHEM_SHAPE_FINGERPRINT>
10 15 18040719190844313344
10299344 5 14476963388938269572
10666366 153 10809333439314936050
11315181 36 16487253280025271257
11719270 70 18335137575461764378
12082328 90 18408323259791733645
12516196 113 18202001014724803120
13422730 43 17385725828943058691
13673619 4 10375872970355130818
14251764 18 15647053772219107338
14344974 204 9510303361900731109
14400156 96 14708067634354381582
14461889 52 18261116283246665946
14675019 173 11167940260088793538
14856354 85 15123503723438039437
15021287 119 11458432344617049267
15183329 4 18131064909994374063
15352257 5 11527948967499672836
15361156 5 14908177560734307625
15461852 350 16515409586073296707
1577012 14 17132113520172177431
18365409 1 17845649395321682686
18608769 82 18334863870212852275
20157964 124 18202847648069751118
20554085 129 18187917396634472274
21130935 74 17895753993658817522
21150785 3 16773797004770307892
21315759 40 15213022656792902547
21521721 280 17418092135402559130
21585481 151 12973606625892976896
220451 1 15841549635536765791
23522609 53 15051470335081671890
23559900 14 17489293218335000595
24771750 20 18046358688588580468
249057 25 14923954422505181991
34797466 226 16702308945092270668
3552219 110 16845304838493718353
4073 2 18409733958527163739
4107672 100 13901918778121995427
4339292 15 17749954492447917443
437795 160 16733265767538401169
5028188 123 12823290225867974648
5470011 282 12967131636403017808
5758199 1 18273216400014533842
6394761 36 9583523113694312499
6691757 9 15574724594588323545
9831232 110 9655577426905221416

> <PUBCHEM_SHAPE_MULTIPOLES>
549.55
28.59
1.89
1.5
7.96
0.18
-0.08
-8.12
-3.68
0.29
0.26
-1.11
-0.19
2.5

> <PUBCHEM_SHAPE_SELFOVERLAP>
1176.315

> <PUBCHEM_SHAPE_VOLUME>
300.1

> <PUBCHEM_COORDINATE_TYPE>
2
5
10

$$$$
