45783349
  -OEChem-12032416203D

 53 56  0     1  0  0  0  0  0999 V2000
   -2.3462    0.2000    2.2079 O   0  0  0  0  0  0  0  0  0  0  0  0
   -2.5771    0.8692   -1.9221 O   0  0  0  0  0  0  0  0  0  0  0  0
    0.2684    1.8042   -2.1604 O   0  0  0  0  0  0  0  0  0  0  0  0
    4.0857   -0.2429   -0.3383 O   0  0  0  0  0  0  0  0  0  0  0  0
    6.1980   -1.9833   -0.9248 O   0  0  0  0  0  0  0  0  0  0  0  0
   -3.4756   -1.5913   -0.5964 N   0  0  1  0  0  0  0  0  0  0  0  0
   -0.8246   -0.7398    0.8594 N   0  0  0  0  0  0  0  0  0  0  0  0
   -1.1499    0.8951    2.4264 N   0  0  0  0  0  0  0  0  0  0  0  0
    3.7591    1.4174    1.2495 N   0  0  0  0  0  0  0  0  0  0  0  0
   -3.2136   -1.6420    0.8559 C   0  0  1  0  0  0  0  0  0  0  0  0
   -2.9434   -3.1285    1.1529 C   0  0  0  0  0  0  0  0  0  0  0  0
   -3.1360   -3.8415   -0.1780 C   0  0  0  0  0  0  0  0  0  0  0  0
   -4.0236   -2.8972   -0.9634 C   0  0  0  0  0  0  0  0  0  0  0  0
   -4.3583   -0.4981   -0.9831 C   0  0  0  0  0  0  0  0  0  0  0  0
   -2.0668   -0.7449    1.2721 C   0  0  0  0  0  0  0  0  0  0  0  0
   -3.6249    0.8147   -1.0586 C   0  0  0  0  0  0  0  0  0  0  0  0
   -3.7878    2.0220   -0.4196 C   0  0  0  0  0  0  0  0  0  0  0  0
   -0.3010    0.2830    1.5954 C   0  0  0  0  0  0  0  0  0  0  0  0
   -2.0654    2.1251   -1.8335 C   0  0  0  0  0  0  0  0  0  0  0  0
   -2.7752    2.8729   -0.9230 C   0  0  0  0  0  0  0  0  0  0  0  0
    1.0760    0.6675    1.4780 C   0  0  0  0  0  0  0  0  0  0  0  0
   -0.9085    2.4179   -2.6915 C   0  0  0  0  0  0  0  0  0  0  0  0
    1.9163   -0.0055    0.5980 C   0  0  0  0  0  0  0  0  0  0  0  0
    1.5757    1.7149    2.2439 C   0  0  0  0  0  0  0  0  0  0  0  0
    3.2377    0.4044    0.5217 C   0  0  0  0  0  0  0  0  0  0  0  0
    2.9123    2.0478    2.0940 C   0  0  0  0  0  0  0  0  0  0  0  0
    5.4314    0.2176   -0.3775 C   0  0  0  0  0  0  0  0  0  0  0  0
    6.2158   -0.6295   -1.3610 C   0  0  0  0  0  0  0  0  0  0  0  0
    6.9018   -2.8291   -1.8237 C   0  0  0  0  0  0  0  0  0  0  0  0
   -4.1099   -1.3537    1.4232 H   0  0  0  0  0  0  0  0  0  0  0  0
   -1.9465   -3.3276    1.5605 H   0  0  0  0  0  0  0  0  0  0  0  0
   -3.6806   -3.4991    1.8759 H   0  0  0  0  0  0  0  0  0  0  0  0
   -3.5821   -4.8328   -0.0557 H   0  0  0  0  0  0  0  0  0  0  0  0
   -2.1677   -3.9625   -0.6794 H   0  0  0  0  0  0  0  0  0  0  0  0
   -5.0685   -3.0042   -0.6454 H   0  0  0  0  0  0  0  0  0  0  0  0
   -3.9574   -3.0850   -2.0395 H   0  0  0  0  0  0  0  0  0  0  0  0
   -5.2296   -0.4144   -0.3216 H   0  0  0  0  0  0  0  0  0  0  0  0
   -4.7531   -0.6818   -1.9917 H   0  0  0  0  0  0  0  0  0  0  0  0
   -4.5405    2.2602    0.3182 H   0  0  0  0  0  0  0  0  0  0  0  0
   -2.5876    3.9023   -0.6530 H   0  0  0  0  0  0  0  0  0  0  0  0
   -1.0704    2.0338   -3.7037 H   0  0  0  0  0  0  0  0  0  0  0  0
   -0.7322    3.4964   -2.7543 H   0  0  0  0  0  0  0  0  0  0  0  0
    1.5702   -0.8281   -0.0203 H   0  0  0  0  0  0  0  0  0  0  0  0
    0.9681    2.2760    2.9463 H   0  0  0  0  0  0  0  0  0  0  0  0
    3.3512    2.8572    2.6681 H   0  0  0  0  0  0  0  0  0  0  0  0
    1.0001    2.0279   -2.7606 H   0  0  0  0  0  0  0  0  0  0  0  0
    5.8801    0.1154    0.6184 H   0  0  0  0  0  0  0  0  0  0  0  0
    5.4646    1.2660   -0.6966 H   0  0  0  0  0  0  0  0  0  0  0  0
    5.7521   -0.5700   -2.3525 H   0  0  0  0  0  0  0  0  0  0  0  0
    7.2497   -0.2723   -1.4215 H   0  0  0  0  0  0  0  0  0  0  0  0
    6.8597   -3.8515   -1.4387 H   0  0  0  0  0  0  0  0  0  0  0  0
    7.9508   -2.5257   -1.8945 H   0  0  0  0  0  0  0  0  0  0  0  0
    6.4357   -2.8098   -2.8136 H   0  0  0  0  0  0  0  0  0  0  0  0
  1  8  1  0  0  0  0
  1 15  1  0  0  0  0
  2 16  1  0  0  0  0
  2 19  1  0  0  0  0
  3 22  1  0  0  0  0
  3 46  1  0  0  0  0
  4 25  1  0  0  0  0
  4 27  1  0  0  0  0
  5 28  1  0  0  0  0
  5 29  1  0  0  0  0
  6 10  1  0  0  0  0
  6 13  1  0  0  0  0
  6 14  1  0  0  0  0
  7 15  2  0  0  0  0
  7 18  1  0  0  0  0
  8 18  2  0  0  0  0
  9 25  2  0  0  0  0
  9 26  1  0  0  0  0
 10 11  1  0  0  0  0
 10 15  1  0  0  0  0
 10 30  1  0  0  0  0
 11 12  1  0  0  0  0
 11 31  1  0  0  0  0
 11 32  1  0  0  0  0
 12 13  1  0  0  0  0
 12 33  1  0  0  0  0
 12 34  1  0  0  0  0
 13 35  1  0  0  0  0
 13 36  1  0  0  0  0
 14 16  1  0  0  0  0
 14 37  1  0  0  0  0
 14 38  1  0  0  0  0
 16 17  2  0  0  0  0
 17 20  1  0  0  0  0
 17 39  1  0  0  0  0
 18 21  1  0  0  0  0
 19 20  2  0  0  0  0
 19 22  1  0  0  0  0
 20 40  1  0  0  0  0
 21 23  2  0  0  0  0
 21 24  1  0  0  0  0
 22 41  1  0  0  0  0
 22 42  1  0  0  0  0
 23 25  1  0  0  0  0
 23 43  1  0  0  0  0
 24 26  2  0  0  0  0
 24 44  1  0  0  0  0
 26 45  1  0  0  0  0
 27 28  1  0  0  0  0
 27 47  1  0  0  0  0
 27 48  1  0  0  0  0
 28 49  1  0  0  0  0
 28 50  1  0  0  0  0
 29 51  1  0  0  0  0
 29 52  1  0  0  0  0
 29 53  1  0  0  0  0
M  END
> <PUBCHEM_COMPOUND_CID>
45783349

> <PUBCHEM_CONFORMER_RMSD>
1

> <PUBCHEM_CONFORMER_DIVERSEORDER>
1
18
12
83
24
73
41
44
21
76
80
40
61
70
54
64
22
87
88
3
30
81
49
85
37
4
28
56
7
68
17
84
82
65
29
25
26
66
60
33
77
6
27
50
48
31
14
15
90
86
39
51
57
89
13
58
11
69
5
46
71
2
42
72
45
52
75
62
20
19
16
74
38
55
43
47
79
67
63
34
78
9
8
53
32
36
59
23
35
10

> <PUBCHEM_MMFF94_PARTIAL_CHARGES>
33
1 -0.02
10 0.45
13 0.27
14 0.45
15 0.3
16 -0.04
17 -0.15
18 0.46
19 -0.04
2 -0.28
20 -0.15
21 0.05
22 0.46
23 -0.15
24 -0.15
25 0.39
26 0.16
27 0.28
28 0.28
29 0.28
3 -0.68
39 0.15
4 -0.36
40 0.15
43 0.15
44 0.15
45 0.15
46 0.4
5 -0.56
6 -0.81
7 -0.57
8 -0.41
9 -0.62

> <PUBCHEM_EFFECTIVE_ROTOR_COUNT>
10

> <PUBCHEM_PHARMACOPHORE_FEATURES>
10
1 2 acceptor
1 3 acceptor
1 3 donor
1 5 acceptor
1 6 cation
3 7 8 18 cation
5 1 7 8 15 18 rings
5 2 16 17 19 20 rings
5 6 10 11 12 13 rings
6 9 21 23 24 25 26 rings

> <PUBCHEM_HEAVY_ATOM_COUNT>
29

> <PUBCHEM_ATOM_DEF_STEREO_COUNT>
1

> <PUBCHEM_ATOM_UDEF_STEREO_COUNT>
0

> <PUBCHEM_BOND_DEF_STEREO_COUNT>
0

> <PUBCHEM_BOND_UDEF_STEREO_COUNT>
0

> <PUBCHEM_ISOTOPIC_ATOM_COUNT>
0

> <PUBCHEM_COMPONENT_COUNT>
1

> <PUBCHEM_CACTVS_TAUTO_COUNT>
1

> <PUBCHEM_CONFORMER_ID>
02BA993500000001

> <PUBCHEM_MMFF94_ENERGY>
47.9167

> <PUBCHEM_FEATURE_SELFOVERLAP>
50.748

> <PUBCHEM_SHAPE_FINGERPRINT>
10165383 225 18266182721664586377
10730089 88 18408036312420071669
10871710 139 17023453150039633661
11477941 20 17822584892776917708
11513181 2 17974284631639709356
131258 38 13247992191770946597
13761468 95 17170953643996128700
13782708 43 18272363217498736886
13947920 75 17603579734154824628
14910302 57 18340476859042875082
15183329 4 15936693675845657010
15575132 122 17024016065733537101
15961568 22 17464234390418808096
17492 54 16805588262627977269
19958102 18 18336254661641944094
21033650 10 18040712550413924376
22393880 68 18410287013118164714
22620623 9 18186800270913349720
23536364 44 18271810069071816626
23557571 272 18047449391496180473
23559900 14 18060134379588436442
3610482 184 16878803586591034118
484985 159 17346600764199170343
531348 171 18115027394732159466

> <PUBCHEM_SHAPE_MULTIPOLES>
547.54
12.62
3.83
2.66
24.73
2.51
-0.08
9.33
7.06
-2.96
1.4
0.53
-1.48
3.88

> <PUBCHEM_SHAPE_SELFOVERLAP>
1170.392

> <PUBCHEM_SHAPE_VOLUME>
306.2

> <PUBCHEM_COORDINATE_TYPE>
2
5
10

$$$$
