51137069
  -OEChem-12032416213D

 39 42  0     1  0  0  0  0  0999 V2000
    2.6020   -0.1855    1.8882 S   0  0  0  0  0  0  0  0  0  0  0  0
   -1.8362    1.2629   -0.0739 N   0  0  1  0  0  0  0  0  0  0  0  0
    2.2429    0.4852   -0.5762 N   0  0  0  0  0  0  0  0  0  0  0  0
    0.2812    0.9760    0.8922 C   0  0  1  0  0  0  0  0  0  0  0  0
    0.0593    2.4643    0.5712 C   0  0  0  0  0  0  0  0  0  0  0  0
   -0.8011    0.2402    0.0909 C   0  0  0  0  0  0  0  0  0  0  0  0
   -1.1074    2.4866   -0.4077 C   0  0  0  0  0  0  0  0  0  0  0  0
   -2.8134    0.9049   -1.0914 C   0  0  0  0  0  0  0  0  0  0  0  0
    1.6748    0.4658    0.6069 C   0  0  0  0  0  0  0  0  0  0  0  0
   -3.8655   -0.0287   -0.5543 C   0  0  0  0  0  0  0  0  0  0  0  0
    3.8965   -0.4808    0.7882 C   0  0  0  0  0  0  0  0  0  0  0  0
    3.5179   -0.0545   -0.4884 C   0  0  0  0  0  0  0  0  0  0  0  0
   -3.6747   -1.4087   -0.6238 C   0  0  0  0  0  0  0  0  0  0  0  0
   -5.0311    0.4865    0.0126 C   0  0  0  0  0  0  0  0  0  0  0  0
    5.1564   -1.0489    1.0371 C   0  0  0  0  0  0  0  0  0  0  0  0
    4.4345   -0.2031   -1.5518 C   0  0  0  0  0  0  0  0  0  0  0  0
   -4.6497   -2.2736   -0.1264 C   0  0  0  0  0  0  0  0  0  0  0  0
   -6.0060   -0.3782    0.5100 C   0  0  0  0  0  0  0  0  0  0  0  0
    6.0445   -1.1845   -0.0328 C   0  0  0  0  0  0  0  0  0  0  0  0
    5.6903   -0.7678   -1.3113 C   0  0  0  0  0  0  0  0  0  0  0  0
   -5.8153   -1.7582    0.4405 C   0  0  0  0  0  0  0  0  0  0  0  0
    0.0572    0.8440    1.9610 H   0  0  0  0  0  0  0  0  0  0  0  0
   -0.2098    2.9994    1.4906 H   0  0  0  0  0  0  0  0  0  0  0  0
    0.9425    2.9553    0.1489 H   0  0  0  0  0  0  0  0  0  0  0  0
   -0.4128   -0.1057   -0.8762 H   0  0  0  0  0  0  0  0  0  0  0  0
   -1.1622   -0.6313    0.6472 H   0  0  0  0  0  0  0  0  0  0  0  0
   -1.7217    3.3833   -0.2784 H   0  0  0  0  0  0  0  0  0  0  0  0
   -0.7298    2.4640   -1.4381 H   0  0  0  0  0  0  0  0  0  0  0  0
   -3.3307    1.8092   -1.4423 H   0  0  0  0  0  0  0  0  0  0  0  0
   -2.3461    0.4814   -1.9909 H   0  0  0  0  0  0  0  0  0  0  0  0
   -2.7738   -1.8241   -1.0674 H   0  0  0  0  0  0  0  0  0  0  0  0
   -5.1916    1.5596    0.0751 H   0  0  0  0  0  0  0  0  0  0  0  0
    5.4397   -1.3765    2.0326 H   0  0  0  0  0  0  0  0  0  0  0  0
    4.1682    0.1190   -2.5545 H   0  0  0  0  0  0  0  0  0  0  0  0
   -4.5017   -3.3481   -0.1815 H   0  0  0  0  0  0  0  0  0  0  0  0
   -6.9134    0.0229    0.9520 H   0  0  0  0  0  0  0  0  0  0  0  0
    7.0248   -1.6217    0.1382 H   0  0  0  0  0  0  0  0  0  0  0  0
    6.3943   -0.8813   -2.1312 H   0  0  0  0  0  0  0  0  0  0  0  0
   -6.5744   -2.4315    0.8277 H   0  0  0  0  0  0  0  0  0  0  0  0
  1  9  1  0  0  0  0
  1 11  1  0  0  0  0
  2  6  1  0  0  0  0
  2  7  1  0  0  0  0
  2  8  1  0  0  0  0
  3  9  2  0  0  0  0
  3 12  1  0  0  0  0
  4  5  1  0  0  0  0
  4  6  1  0  0  0  0
  4  9  1  0  0  0  0
  4 22  1  0  0  0  0
  5  7  1  0  0  0  0
  5 23  1  0  0  0  0
  5 24  1  0  0  0  0
  6 25  1  0  0  0  0
  6 26  1  0  0  0  0
  7 27  1  0  0  0  0
  7 28  1  0  0  0  0
  8 10  1  0  0  0  0
  8 29  1  0  0  0  0
  8 30  1  0  0  0  0
 10 13  2  0  0  0  0
 10 14  1  0  0  0  0
 11 12  1  0  0  0  0
 11 15  2  0  0  0  0
 12 16  2  0  0  0  0
 13 17  1  0  0  0  0
 13 31  1  0  0  0  0
 14 18  2  0  0  0  0
 14 32  1  0  0  0  0
 15 19  1  0  0  0  0
 15 33  1  0  0  0  0
 16 20  1  0  0  0  0
 16 34  1  0  0  0  0
 17 21  2  0  0  0  0
 17 35  1  0  0  0  0
 18 21  1  0  0  0  0
 18 36  1  0  0  0  0
 19 20  2  0  0  0  0
 19 37  1  0  0  0  0
 20 38  1  0  0  0  0
 21 39  1  0  0  0  0
M  END
> <PUBCHEM_COMPOUND_CID>
51137069

> <PUBCHEM_CONFORMER_RMSD>
0.6

> <PUBCHEM_CONFORMER_DIVERSEORDER>
2
68
30
106
92
61
110
109
83
36
105
93
67
114
6
81
11
8
96
21
98
101
113
69
63
86
18
77
97
94
34
15
108
58
111
46
80
16
107
72
51
14
89
90
88
44
87
104
24
91
102
103
76
82
78
17
66
47
85
41
70
73
25
56
39
65
7
57
42
95
9
50
38
4
19
23
79
35
27
60
43
1
54
28
31
26
45
32
33
13
59
55
74
12
52
40
22
20
71
48
29
84
53
37
62
49
10
5
75
99
3
64
112
100

> <PUBCHEM_MMFF94_PARTIAL_CHARGES>
29
1 -0.08
10 -0.14
11 0.04
12 0.23
13 -0.15
14 -0.15
15 -0.15
16 -0.15
17 -0.15
18 -0.15
19 -0.15
2 -0.81
20 -0.15
21 -0.15
3 -0.57
31 0.15
32 0.15
33 0.15
34 0.15
35 0.15
36 0.15
37 0.15
38 0.15
39 0.15
4 0.18
6 0.27
7 0.27
8 0.41
9 0.2

> <PUBCHEM_EFFECTIVE_ROTOR_COUNT>
4

> <PUBCHEM_PHARMACOPHORE_FEATURES>
6
1 2 cation
1 3 acceptor
5 1 3 9 11 12 rings
5 2 4 5 6 7 rings
6 10 13 14 17 18 21 rings
6 11 12 15 16 19 20 rings

> <PUBCHEM_HEAVY_ATOM_COUNT>
21

> <PUBCHEM_ATOM_DEF_STEREO_COUNT>
1

> <PUBCHEM_ATOM_UDEF_STEREO_COUNT>
0

> <PUBCHEM_BOND_DEF_STEREO_COUNT>
0

> <PUBCHEM_BOND_UDEF_STEREO_COUNT>
0

> <PUBCHEM_ISOTOPIC_ATOM_COUNT>
0

> <PUBCHEM_COMPONENT_COUNT>
1

> <PUBCHEM_CACTVS_TAUTO_COUNT>
1

> <PUBCHEM_CONFORMER_ID>
030C4A2D00000002

> <PUBCHEM_MMFF94_ENERGY>
46.9481

> <PUBCHEM_FEATURE_SELFOVERLAP>
30.519

> <PUBCHEM_SHAPE_FINGERPRINT>
10042902 136 18267019634375034527
10692045 39 9943264609752782484
10693767 8 17169544105267262050
10928967 22 18262502797679927067
11045515 52 17749385940612326701
11089746 13 10159689184028323170
11128504 68 17022903466722724247
11524674 6 17561362885948452311
12166972 35 17748549238570871844
12236239 1 17821728295582134524
12553582 1 18336531786080040667
12633257 1 15051729806713687821
12730499 353 13984663633592297456
12788726 201 18188767237022706417
12969540 114 13551188900607817123
13103583 49 14979953696289670053
13288520 33 18409167710449536133
13402501 40 18130793351596620335
13673619 4 18334296500669030437
13685833 64 18343586269795291859
13690498 29 17894627081025285999
13740256 8 18410855490541241985
14123255 352 8718829794832216967
14123256 34 18411989073923232387
14251732 14 18411427211097346428
14251751 18 18410570691096255518
14251752 14 18040429958935269645
14251757 5 18113621217965088483
14251764 18 13686291392451074025
14251764 30 18411982485649167687
14341114 176 15698000730245324504
14420673 8 18412831291905026815
14466204 15 10663825169658748683
14528608 73 16008749104370475190
14576447 43 17895189987638617968
14617045 38 18411984641897024903
14739800 52 8646497262631118700
14767858 380 17458349645525290258
14951699 99 10015278236548286290
15003188 100 14057011550192261854
15142383 8 15841274753086655506
15183329 4 16515402963101825090
15348495 7 16988555857543302475
15475509 84 14333136243324773066
15527383 91 16056878035432531760
15537594 2 18259982661278489515
17138139 8 17895185662179920282
17780758 139 17989487420683328745
17844677 252 18413389838889313561
1813 80 18412829100902065277
19141452 34 17132106974636698423
193927 3 18131071540949242004
200 152 17531247227607724952
20374829 77 18411980265103180599
20621476 21 18060426793894614798
21054139 6 17822005385729883642
21150785 3 18040723563348010790
21267235 1 18335142033959194323
21315763 191 18408326583816813277
21521239 73 16660362567644349234
21623969 137 17203611475845410966
221357 26 15647050460598934222
22950370 63 18408324410595172305
2297311 6 18412548686623572981
23016692 55 18408886243756720493
23035841 295 18335140882269590459
23402539 116 18187081719830099932
235170 7 14851871540021717579
23522609 53 18045251334250366357
23557571 272 18059017168274261236
23559900 14 18339071683140801592
23622692 88 13398631649722617992
239999 70 18273213119255306842
2767999 5 8862944965796970295
2838139 119 11602814735282151663
3004659 81 18186800296371670372
312425 54 16415480462950470863
314173 85 17988920063666589705
335352 9 18409726258557488013
351380 3 18260264157466116651
3737641 26 17702674241552345310
4107672 100 17240756260782945847
465052 167 18342462572705531839
5104073 3 17774996831293791082
5207 217 13479139016590190337
56616090 284 18187367627202341848
59682541 52 14635135803485121426
59755656 215 18342456993633146351
7495541 125 18131064944559951136
7918774 8 18201449076909201774
7970288 3 18410569617439619943
8217 86 17968382350538101299
8863177 126 18117566343358911691

> <PUBCHEM_SHAPE_MULTIPOLES>
426.06
15.83
2.05
1.32
1.4
0.58
-0.1
-10.4
1.34
2.06
-0.03
-1.59
-0.08
0.28

> <PUBCHEM_SHAPE_SELFOVERLAP>
918.398

> <PUBCHEM_SHAPE_VOLUME>
236.2

> <PUBCHEM_COORDINATE_TYPE>
2
5
10

$$$$
