26743750
  -OEChem-12032416223D

 44 47  0     1  0  0  0  0  0999 V2000
    7.0473    0.7888    1.1359 F   0  0  0  0  0  0  0  0  0  0  0  0
    4.9953    0.9632    1.8672 F   0  0  0  0  0  0  0  0  0  0  0  0
    5.9182   -1.0260    1.5914 F   0  0  0  0  0  0  0  0  0  0  0  0
   -5.6610    2.8332    1.6776 O   0  0  0  0  0  0  0  0  0  0  0  0
   -1.9924    0.8687   -2.2174 O   0  0  0  0  0  0  0  0  0  0  0  0
    5.3707    0.2043   -0.2575 O   0  0  0  0  0  0  0  0  0  0  0  0
   -3.7307   -0.0673    0.8828 N   0  0  1  0  0  0  0  0  0  0  0  0
   -1.0271    0.5576   -0.2204 N   0  0  0  0  0  0  0  0  0  0  0  0
   -2.5423   -2.8995   -0.8548 N   0  0  0  0  0  0  0  0  0  0  0  0
   -1.6283   -2.3124    1.0822 N   0  0  0  0  0  0  0  0  0  0  0  0
   -0.6128    0.8222   -2.4548 N   0  0  0  0  0  0  0  0  0  0  0  0
   -3.5719    0.7172   -0.3585 C   0  0  1  0  0  0  0  0  0  0  0  0
   -4.0618    2.1315    0.0041 C   0  0  0  0  0  0  0  0  0  0  0  0
   -4.5177    2.0312    1.4545 C   0  0  2  0  0  0  0  0  0  0  0  0
   -4.8220    0.5555    1.6294 C   0  0  0  0  0  0  0  0  0  0  0  0
   -3.9706   -1.4839    0.6403 C   0  0  0  0  0  0  0  0  0  0  0  0
   -2.1495    0.7053   -0.8776 C   0  0  0  0  0  0  0  0  0  0  0  0
   -2.6973   -2.2219    0.3225 C   0  0  0  0  0  0  0  0  0  0  0  0
   -0.1122    0.6363   -1.2297 C   0  0  0  0  0  0  0  0  0  0  0  0
   -1.2950   -3.4576   -0.8451 C   0  0  0  0  0  0  0  0  0  0  0  0
    1.2961    0.5267   -0.9802 C   0  0  0  0  0  0  0  0  0  0  0  0
   -0.7504   -3.0815    0.3601 C   0  0  0  0  0  0  0  0  0  0  0  0
    2.2106    1.0128   -1.9147 C   0  0  0  0  0  0  0  0  0  0  0  0
    1.7510   -0.0676    0.1969 C   0  0  0  0  0  0  0  0  0  0  0  0
    3.5799    0.9045   -1.6721 C   0  0  0  0  0  0  0  0  0  0  0  0
    3.1203   -0.1760    0.4395 C   0  0  0  0  0  0  0  0  0  0  0  0
    4.0347    0.3100   -0.4950 C   0  0  0  0  0  0  0  0  0  0  0  0
    5.8188    0.2247    1.0932 C   0  0  0  0  0  0  0  0  0  0  0  0
   -4.2323    0.3312   -1.1478 H   0  0  0  0  0  0  0  0  0  0  0  0
   -3.2860    2.8992   -0.0977 H   0  0  0  0  0  0  0  0  0  0  0  0
   -4.8944    2.4234   -0.6480 H   0  0  0  0  0  0  0  0  0  0  0  0
   -3.7178    2.3471    2.1354 H   0  0  0  0  0  0  0  0  0  0  0  0
   -4.8167    0.2716    2.6871 H   0  0  0  0  0  0  0  0  0  0  0  0
   -5.8092    0.3084    1.2167 H   0  0  0  0  0  0  0  0  0  0  0  0
   -4.7310   -1.6472   -0.1340 H   0  0  0  0  0  0  0  0  0  0  0  0
   -4.3612   -1.9495    1.5556 H   0  0  0  0  0  0  0  0  0  0  0  0
   -5.4169    3.7526    1.4754 H   0  0  0  0  0  0  0  0  0  0  0  0
   -3.2231   -2.9742   -1.5990 H   0  0  0  0  0  0  0  0  0  0  0  0
   -0.9229   -4.0491   -1.6689 H   0  0  0  0  0  0  0  0  0  0  0  0
    0.2298   -3.3241    0.7440 H   0  0  0  0  0  0  0  0  0  0  0  0
    1.8892    1.4869   -2.8388 H   0  0  0  0  0  0  0  0  0  0  0  0
    1.0609   -0.4633    0.9378 H   0  0  0  0  0  0  0  0  0  0  0  0
    4.2879    1.2861   -2.4027 H   0  0  0  0  0  0  0  0  0  0  0  0
    3.4316   -0.6801    1.3496 H   0  0  0  0  0  0  0  0  0  0  0  0
  1 28  1  0  0  0  0
  2 28  1  0  0  0  0
  3 28  1  0  0  0  0
  4 14  1  0  0  0  0
  4 37  1  0  0  0  0
  5 11  1  0  0  0  0
  5 17  1  0  0  0  0
  6 27  1  0  0  0  0
  6 28  1  0  0  0  0
  7 12  1  0  0  0  0
  7 15  1  0  0  0  0
  7 16  1  0  0  0  0
  8 17  2  0  0  0  0
  8 19  1  0  0  0  0
  9 18  1  0  0  0  0
  9 20  1  0  0  0  0
  9 38  1  0  0  0  0
 10 18  2  0  0  0  0
 10 22  1  0  0  0  0
 11 19  2  0  0  0  0
 12 13  1  0  0  0  0
 12 17  1  0  0  0  0
 12 29  1  0  0  0  0
 13 14  1  0  0  0  0
 13 30  1  0  0  0  0
 13 31  1  0  0  0  0
 14 15  1  0  0  0  0
 14 32  1  0  0  0  0
 15 33  1  0  0  0  0
 15 34  1  0  0  0  0
 16 18  1  0  0  0  0
 16 35  1  0  0  0  0
 16 36  1  0  0  0  0
 19 21  1  0  0  0  0
 20 22  2  0  0  0  0
 20 39  1  0  0  0  0
 21 23  2  0  0  0  0
 21 24  1  0  0  0  0
 22 40  1  0  0  0  0
 23 25  1  0  0  0  0
 23 41  1  0  0  0  0
 24 26  2  0  0  0  0
 24 42  1  0  0  0  0
 25 27  2  0  0  0  0
 25 43  1  0  0  0  0
 26 27  1  0  0  0  0
 26 44  1  0  0  0  0
M  END
> <PUBCHEM_COMPOUND_CID>
26743750

> <PUBCHEM_CONFORMER_RMSD>
0.8

> <PUBCHEM_CONFORMER_DIVERSEORDER>
2
74
36
62
21
58
6
55
10
102
89
1
52
37
64
11
84
42
60
50
22
7
5
67
94
63
31
23
98
48
85
51
96
76
78
44
39
29
70
20
18
24
72
77
57
53
17
68
33
59
19
56
9
90
16
65
81
14
80
99
32
73
100
88
61
82
69
4
3
83
91
86
15
79
75
101
38
45
28
25
54
26
71
8
47
41
92
34
87
40
13
97
95
27
35
12
49
93
46
66
30
43

> <PUBCHEM_MMFF94_PARTIAL_CHARGES>
35
1 -0.34
10 -0.57
11 -0.41
12 0.45
14 0.28
15 0.27
16 0.45
17 0.3
18 0.01
19 0.46
2 -0.34
20 -0.3
21 0.05
22 0.08
23 -0.15
24 -0.15
25 -0.15
26 -0.15
27 0.08
28 1.3
3 -0.34
37 0.4
38 0.27
39 0.15
4 -0.68
40 0.15
41 0.15
42 0.15
43 0.15
44 0.15
5 -0.02
6 -0.36
7 -0.81
8 -0.57
9 0.03

> <PUBCHEM_EFFECTIVE_ROTOR_COUNT>
7

> <PUBCHEM_PHARMACOPHORE_FEATURES>
11
1 4 acceptor
1 4 donor
1 6 acceptor
1 7 cation
1 9 donor
3 8 11 19 cation
3 9 10 18 cation
5 5 8 11 17 19 rings
5 7 12 13 14 15 rings
5 9 10 18 20 22 rings
6 21 23 24 25 26 27 rings

> <PUBCHEM_HEAVY_ATOM_COUNT>
28

> <PUBCHEM_ATOM_DEF_STEREO_COUNT>
2

> <PUBCHEM_ATOM_UDEF_STEREO_COUNT>
0

> <PUBCHEM_BOND_DEF_STEREO_COUNT>
0

> <PUBCHEM_BOND_UDEF_STEREO_COUNT>
0

> <PUBCHEM_ISOTOPIC_ATOM_COUNT>
0

> <PUBCHEM_COMPONENT_COUNT>
1

> <PUBCHEM_CACTVS_TAUTO_COUNT>
1

> <PUBCHEM_CONFORMER_ID>
019813C600000002

> <PUBCHEM_MMFF94_ENERGY>
55.0248

> <PUBCHEM_FEATURE_SELFOVERLAP>
55.824

> <PUBCHEM_SHAPE_FINGERPRINT>
11112241 14 17846783970771883207
11370993 144 18272650143316044238
12422481 6 18040999484119922986
12616971 3 17385445440629912580
12633257 1 18335990838685271621
12788726 201 17978535318593066191
13004483 165 17697599158283116503
13583140 156 17203328965707851934
13782708 43 12757146883897045624
14068700 675 18197490947583534551
14251764 30 12829502462333167513
15021287 119 17313103064369325236
15238133 3 18271255953787398012
15348495 7 18201716293322282320
15537594 2 17313396646905991324
16110190 28 17967818249580741876
16994733 274 16414645848479621297
18927931 339 16298103155393331476
19377110 9 17750233776532150076
19438510 23 17273150003224618697
20261772 1 17894635867800399022
20554085 129 18200028435641967225
21033648 29 17560815307303031557
21304303 64 14764359227987254115
21403212 168 18040999489169082401
21756936 100 18131062723323211760
21796203 349 17096959943173567524
23522609 53 16155709742888181636
23559900 14 18056787380251871006
23728640 28 18265066889008189011
25147074 1 17896046606102430900
2838139 119 16270818706089854529
3411729 13 18046923589099939617
3459 110 17772181179224985496
484985 159 17386551574923861055
5104073 3 18114468971631966288
513202 73 16443060582587903229
531348 171 8213604214986642752
5364581 5 18055343902232605584
5924683 9 18270112555867105335
602551 16 18339645650207290822
7064713 232 18408891736687660695
7226269 152 18059577962148754016
9862522 239 18187081716220662317
9953998 17 18334846256651730480

> <PUBCHEM_SHAPE_MULTIPOLES>
511.89
13.47
3.01
1.96
16.79
2.84
0.33
-6.17
-9.35
-4.79
-0.14
0.59
-0.79
-1.46

> <PUBCHEM_SHAPE_SELFOVERLAP>
1119.709

> <PUBCHEM_SHAPE_VOLUME>
281.4

> <PUBCHEM_COORDINATE_TYPE>
2
5
10

$$$$
