28959825
  -OEChem-12032416353D

 71 75  0     1  0  0  0  0  0999 V2000
    0.9696    5.7348    0.6864 O   0  0  0  0  0  0  0  0  0  0  0  0
   -1.1092   -3.7806    1.8521 O   0  0  0  0  0  0  0  0  0  0  0  0
   -6.3847    2.3545    0.0719 O   0  0  0  0  0  0  0  0  0  0  0  0
   -6.8044    0.1216    0.2082 O   0  0  0  0  0  0  0  0  0  0  0  0
    1.0499   -4.0493    0.5657 O   0  0  0  0  0  0  0  0  0  0  0  0
    0.4383    1.2335   -1.4712 N   0  0  2  0  0  0  0  0  0  0  0  0
    1.7810    3.5912    0.2070 N   0  0  0  0  0  0  0  0  0  0  0  0
   -2.3020   -2.7217    0.1629 N   0  0  0  0  0  0  0  0  0  0  0  0
    2.2878    2.7762   -2.1679 C   0  0  1  0  0  0  0  0  0  0  0  0
    2.6280    1.2681   -0.2678 C   0  0  2  0  0  0  0  0  0  0  0  0
    3.3157    1.8848   -1.4831 C   0  0  0  0  0  0  0  0  0  0  0  0
    1.0641    1.9389   -2.5964 C   0  0  0  0  0  0  0  0  0  0  0  0
    1.4187    0.4244   -0.7317 C   0  0  0  0  0  0  0  0  0  0  0  0
   -2.8258   -0.7241   -1.2186 C   0  0  1  0  0  0  0  0  0  0  0  0
    1.9142    3.9222   -1.2179 C   0  0  0  0  0  0  0  0  0  0  0  0
   -0.6816    0.4124   -1.9249 C   0  0  0  0  0  0  0  0  0  0  0  0
   -4.1133   -0.5267   -0.3784 C   0  0  1  0  0  0  0  0  0  0  0  0
   -1.6504    0.1549   -0.7735 C   0  0  0  0  0  0  0  0  0  0  0  0
    2.1827    2.3460    0.7029 C   0  0  0  0  0  0  0  0  0  0  0  0
   -2.4173   -2.2084   -1.2081 C   0  0  0  0  0  0  0  0  0  0  0  0
   -3.9657   -1.1235    1.0315 C   0  0  0  0  0  0  0  0  0  0  0  0
   -3.5118   -2.5797    0.9725 C   0  0  0  0  0  0  0  0  0  0  0  0
   -4.5629    0.9321   -0.3018 C   0  0  0  0  0  0  0  0  0  0  0  0
    2.1543    2.1042    2.0248 C   0  0  0  0  0  0  0  0  0  0  0  0
    1.3231    4.6152    1.0567 C   0  0  0  0  0  0  0  0  0  0  0  0
   -1.1718   -3.3336    0.7039 C   0  0  0  0  0  0  0  0  0  0  0  0
    1.6940    3.1054    2.9450 C   0  0  0  0  0  0  0  0  0  0  0  0
    1.2843    4.3006    2.5124 C   0  0  0  0  0  0  0  0  0  0  0  0
   -6.0277    1.0454    0.0187 C   0  0  0  0  0  0  0  0  0  0  0  0
    0.0350   -3.4389   -0.1940 C   0  0  0  0  0  0  0  0  0  0  0  0
    2.3488   -3.6744    0.3027 C   0  0  0  0  0  0  0  0  0  0  0  0
    2.7101   -3.2665   -0.9812 C   0  0  0  0  0  0  0  0  0  0  0  0
    3.3034   -3.7047    1.3194 C   0  0  0  0  0  0  0  0  0  0  0  0
    4.0260   -2.8887   -1.2485 C   0  0  0  0  0  0  0  0  0  0  0  0
    4.6192   -3.3268    1.0521 C   0  0  0  0  0  0  0  0  0  0  0  0
    4.9805   -2.9189   -0.2318 C   0  0  0  0  0  0  0  0  0  0  0  0
    2.7255    3.2099   -3.0757 H   0  0  0  0  0  0  0  0  0  0  0  0
    3.3454    0.5994    0.2262 H   0  0  0  0  0  0  0  0  0  0  0  0
    4.1983    2.4641   -1.1848 H   0  0  0  0  0  0  0  0  0  0  0  0
    3.6612    1.1005   -2.1677 H   0  0  0  0  0  0  0  0  0  0  0  0
    0.3319    2.6089   -3.0644 H   0  0  0  0  0  0  0  0  0  0  0  0
    1.3790    1.2205   -3.3657 H   0  0  0  0  0  0  0  0  0  0  0  0
    1.7846   -0.3962   -1.3622 H   0  0  0  0  0  0  0  0  0  0  0  0
    0.9622   -0.0319    0.1535 H   0  0  0  0  0  0  0  0  0  0  0  0
   -3.0802   -0.4578   -2.2540 H   0  0  0  0  0  0  0  0  0  0  0  0
    2.6994    4.6889   -1.2702 H   0  0  0  0  0  0  0  0  0  0  0  0
    0.9914    4.4146   -1.5496 H   0  0  0  0  0  0  0  0  0  0  0  0
   -1.2405    0.9480   -2.7041 H   0  0  0  0  0  0  0  0  0  0  0  0
   -0.3297   -0.5197   -2.3821 H   0  0  0  0  0  0  0  0  0  0  0  0
   -4.8979   -1.1033   -0.8905 H   0  0  0  0  0  0  0  0  0  0  0  0
   -1.1500   -0.2979    0.0878 H   0  0  0  0  0  0  0  0  0  0  0  0
   -2.0053    1.1325   -0.4300 H   0  0  0  0  0  0  0  0  0  0  0  0
   -3.1950   -2.8068   -1.6997 H   0  0  0  0  0  0  0  0  0  0  0  0
   -1.5047   -2.3667   -1.7842 H   0  0  0  0  0  0  0  0  0  0  0  0
   -4.9104   -1.0687    1.5831 H   0  0  0  0  0  0  0  0  0  0  0  0
   -3.2305   -0.5426    1.6031 H   0  0  0  0  0  0  0  0  0  0  0  0
   -3.3486   -2.9555    1.9876 H   0  0  0  0  0  0  0  0  0  0  0  0
   -4.2877   -3.2045    0.5144 H   0  0  0  0  0  0  0  0  0  0  0  0
   -4.0048    1.4794    0.4657 H   0  0  0  0  0  0  0  0  0  0  0  0
   -4.4092    1.4188   -1.2722 H   0  0  0  0  0  0  0  0  0  0  0  0
    2.4534    1.1451    2.4345 H   0  0  0  0  0  0  0  0  0  0  0  0
    1.6780    2.8616    4.0013 H   0  0  0  0  0  0  0  0  0  0  0  0
    0.9302    5.0641    3.1947 H   0  0  0  0  0  0  0  0  0  0  0  0
    0.3025   -2.4214   -0.4973 H   0  0  0  0  0  0  0  0  0  0  0  0
   -0.2029   -4.0663   -1.0587 H   0  0  0  0  0  0  0  0  0  0  0  0
   -7.3369    2.4656    0.2798 H   0  0  0  0  0  0  0  0  0  0  0  0
    2.0022   -3.2542   -1.8049 H   0  0  0  0  0  0  0  0  0  0  0  0
    3.0272   -4.0216    2.3213 H   0  0  0  0  0  0  0  0  0  0  0  0
    4.3088   -2.5752   -2.2492 H   0  0  0  0  0  0  0  0  0  0  0  0
    5.3625   -3.3502    1.8437 H   0  0  0  0  0  0  0  0  0  0  0  0
    6.0051   -2.6252   -0.4402 H   0  0  0  0  0  0  0  0  0  0  0  0
  1 25  2  0  0  0  0
  2 26  2  0  0  0  0
  3 29  1  0  0  0  0
  3 66  1  0  0  0  0
  4 29  2  0  0  0  0
  5 30  1  0  0  0  0
  5 31  1  0  0  0  0
  6 12  1  0  0  0  0
  6 13  1  0  0  0  0
  6 16  1  0  0  0  0
  7 15  1  0  0  0  0
  7 19  1  0  0  0  0
  7 25  1  0  0  0  0
  8 20  1  0  0  0  0
  8 22  1  0  0  0  0
  8 26  1  0  0  0  0
  9 11  1  0  0  0  0
  9 12  1  0  0  0  0
  9 15  1  0  0  0  0
  9 37  1  0  0  0  0
 10 11  1  0  0  0  0
 10 13  1  0  0  0  0
 10 19  1  0  0  0  0
 10 38  1  0  0  0  0
 11 39  1  0  0  0  0
 11 40  1  0  0  0  0
 12 41  1  0  0  0  0
 12 42  1  0  0  0  0
 13 43  1  0  0  0  0
 13 44  1  0  0  0  0
 14 17  1  0  0  0  0
 14 18  1  0  0  0  0
 14 20  1  0  0  0  0
 14 45  1  0  0  0  0
 15 46  1  0  0  0  0
 15 47  1  0  0  0  0
 16 18  1  0  0  0  0
 16 48  1  0  0  0  0
 16 49  1  0  0  0  0
 17 21  1  0  0  0  0
 17 23  1  0  0  0  0
 17 50  1  0  0  0  0
 18 51  1  0  0  0  0
 18 52  1  0  0  0  0
 19 24  2  0  0  0  0
 20 53  1  0  0  0  0
 20 54  1  0  0  0  0
 21 22  1  0  0  0  0
 21 55  1  0  0  0  0
 21 56  1  0  0  0  0
 22 57  1  0  0  0  0
 22 58  1  0  0  0  0
 23 29  1  0  0  0  0
 23 59  1  0  0  0  0
 23 60  1  0  0  0  0
 24 27  1  0  0  0  0
 24 61  1  0  0  0  0
 25 28  1  0  0  0  0
 26 30  1  0  0  0  0
 27 28  2  0  0  0  0
 27 62  1  0  0  0  0
 28 63  1  0  0  0  0
 30 64  1  0  0  0  0
 30 65  1  0  0  0  0
 31 32  2  0  0  0  0
 31 33  1  0  0  0  0
 32 34  1  0  0  0  0
 32 67  1  0  0  0  0
 33 35  2  0  0  0  0
 33 68  1  0  0  0  0
 34 36  2  0  0  0  0
 34 69  1  0  0  0  0
 35 36  1  0  0  0  0
 35 70  1  0  0  0  0
 36 71  1  0  0  0  0
M  END
> <PUBCHEM_COMPOUND_CID>
28959825

> <PUBCHEM_CONFORMER_RMSD>
1.2

> <PUBCHEM_CONFORMER_DIVERSEORDER>
1
13
52
8
63
57
61
44
37
32
70
42
41
74
5
80
77
14
34
58
71
84
87
79
47
72
15
68
35
83
86
46
31
20
59
53
75
49
51
27
9
69
67
76
56
24
25
11
21
12
82
22
81
66
16
78
18
17
40
33
55
2
50
36
6
60
45
26
54
30
62
23
43
3
64
10
88
85
39
38
28
7
65
48
89
29
4
73
19

> <PUBCHEM_MMFF94_PARTIAL_CHARGES>
39
1 -0.57
10 0.14
12 0.27
13 0.27
15 0.3
16 0.27
19 -0.03
2 -0.57
20 0.3
22 0.3
23 0.06
24 -0.15
25 0.62
26 0.57
27 -0.15
28 -0.14
29 0.66
3 -0.65
30 0.34
31 0.08
32 -0.15
33 -0.15
34 -0.15
35 -0.15
36 -0.15
4 -0.57
5 -0.36
6 -0.81
61 0.15
62 0.15
63 0.15
66 0.5
67 0.15
68 0.15
69 0.15
7 -0.47
70 0.15
71 0.15
8 -0.66

> <PUBCHEM_EFFECTIVE_ROTOR_COUNT>
11.2

> <PUBCHEM_PHARMACOPHORE_FEATURES>
12
1 1 acceptor
1 2 acceptor
1 3 acceptor
1 4 acceptor
1 5 acceptor
1 6 cation
3 3 4 29 anion
6 31 32 33 34 35 36 rings
6 6 9 10 11 12 13 rings
6 7 19 24 25 27 28 rings
6 7 9 10 11 15 19 rings
6 8 14 17 20 21 22 rings

> <PUBCHEM_HEAVY_ATOM_COUNT>
36

> <PUBCHEM_ATOM_DEF_STEREO_COUNT>
4

> <PUBCHEM_ATOM_UDEF_STEREO_COUNT>
0

> <PUBCHEM_BOND_DEF_STEREO_COUNT>
0

> <PUBCHEM_BOND_UDEF_STEREO_COUNT>
0

> <PUBCHEM_ISOTOPIC_ATOM_COUNT>
0

> <PUBCHEM_COMPONENT_COUNT>
1

> <PUBCHEM_CACTVS_TAUTO_COUNT>
3

> <PUBCHEM_CONFORMER_ID>
01B9E45100000001

> <PUBCHEM_MMFF94_ENERGY>
87.0757

> <PUBCHEM_FEATURE_SELFOVERLAP>
62.526

> <PUBCHEM_SHAPE_FINGERPRINT>
10190206 1 17903110797156759518
10439779 11 18267009726065051562
10581848 127 17397274828308724368
10581848 31 18120936101194266221
11049842 53 18116437118456239965
12156800 1 16628020329991904962
12522641 24 18341342137142055539
12788726 201 18054245232233263774
13383668 362 18337666529430573947
14081887 123 16898207037067878756
150020 26 18334579048754406503
23559900 14 18334857217070529487
469060 322 17540265242048708850
50150288 127 16262332507594937584
5265222 85 17612054950349976716
6086070 43 18131070437680451445

> <PUBCHEM_SHAPE_MULTIPOLES>
696.57
10.14
8.34
2.27
17.16
2.96
-0.37
-3.59
-0.41
-8.9
-3.67
-1.66
2.12
0.43

> <PUBCHEM_SHAPE_SELFOVERLAP>
1485.994

> <PUBCHEM_SHAPE_VOLUME>
377

> <PUBCHEM_COORDINATE_TYPE>
2
5
10

$$$$
