71693045
  -OEChem-12032416343D

 52 54  0     1  0  0  0  0  0999 V2000
   -4.8121    1.2725    2.3667 N   0  0  0  0  0  0  0  0  0  0  0  0
    1.8908   -1.0256   -0.8775 N   0  0  0  0  0  0  0  0  0  0  0  0
    1.6130   -0.9027    1.3242 N   0  0  0  0  0  0  0  0  0  0  0  0
   -2.6064    1.0846    0.1526 C   0  0  2  0  0  0  0  0  0  0  0  0
   -1.3610    0.2168    0.3819 C   0  0  0  0  0  0  0  0  0  0  0  0
   -3.8925    0.2455    0.3346 C   0  0  1  0  0  0  0  0  0  0  0  0
   -1.3006   -1.0215   -0.5378 C   0  0  2  0  0  0  0  0  0  0  0  0
   -2.5677    1.7573   -1.2263 C   0  0  0  0  0  0  0  0  0  0  0  0
   -2.6565   -1.6820   -0.7370 C   0  0  0  0  0  0  0  0  0  0  0  0
   -3.8018   -1.1048   -0.3294 C   0  0  0  0  0  0  0  0  0  0  0  0
   -0.2417   -1.9868    0.0096 C   0  0  0  0  0  0  0  0  0  0  0  0
   -4.2403    0.0565    1.8148 C   0  0  0  0  0  0  0  0  0  0  0  0
   -3.5305    2.9397   -1.2688 C   0  0  0  0  0  0  0  0  0  0  0  0
   -1.1480    2.2033   -1.5610 C   0  0  0  0  0  0  0  0  0  0  0  0
   -2.6884   -2.9960   -1.4682 C   0  0  0  0  0  0  0  0  0  0  0  0
    1.0832   -1.3028    0.1900 C   0  0  0  0  0  0  0  0  0  0  0  0
    3.0168   -0.4050   -0.4006 C   0  0  0  0  0  0  0  0  0  0  0  0
    2.8194   -0.3402    0.9758 C   0  0  0  0  0  0  0  0  0  0  0  0
    4.1563    0.0900   -1.0358 C   0  0  0  0  0  0  0  0  0  0  0  0
    3.8072    0.2501    1.7823 C   0  0  0  0  0  0  0  0  0  0  0  0
    5.1291    0.6742   -0.2179 C   0  0  0  0  0  0  0  0  0  0  0  0
    4.9597    0.7539    1.1664 C   0  0  0  0  0  0  0  0  0  0  0  0
    6.3719    1.2231   -0.8386 C   0  0  0  0  0  0  0  0  0  0  0  0
   -2.5735    1.8818    0.9064 H   0  0  0  0  0  0  0  0  0  0  0  0
   -1.3870   -0.1272    1.4258 H   0  0  0  0  0  0  0  0  0  0  0  0
   -0.4444    0.8124    0.3297 H   0  0  0  0  0  0  0  0  0  0  0  0
   -4.7387    0.7543   -0.1425 H   0  0  0  0  0  0  0  0  0  0  0  0
   -0.9757   -0.7014   -1.5360 H   0  0  0  0  0  0  0  0  0  0  0  0
   -2.8785    1.0522   -2.0074 H   0  0  0  0  0  0  0  0  0  0  0  0
   -4.7467   -1.6176   -0.4973 H   0  0  0  0  0  0  0  0  0  0  0  0
   -0.0982   -2.8376   -0.6675 H   0  0  0  0  0  0  0  0  0  0  0  0
   -0.5622   -2.4029    0.9734 H   0  0  0  0  0  0  0  0  0  0  0  0
   -4.9900   -0.7363    1.9277 H   0  0  0  0  0  0  0  0  0  0  0  0
   -3.3723   -0.2483    2.4083 H   0  0  0  0  0  0  0  0  0  0  0  0
   -3.2791    3.6862   -0.5072 H   0  0  0  0  0  0  0  0  0  0  0  0
   -4.5698    2.6378   -1.1156 H   0  0  0  0  0  0  0  0  0  0  0  0
   -3.4847    3.4368   -2.2443 H   0  0  0  0  0  0  0  0  0  0  0  0
   -0.7170    2.8180   -0.7626 H   0  0  0  0  0  0  0  0  0  0  0  0
   -1.1574    2.8249   -2.4648 H   0  0  0  0  0  0  0  0  0  0  0  0
   -0.4678    1.3791   -1.7856 H   0  0  0  0  0  0  0  0  0  0  0  0
   -2.1267   -2.9232   -2.4053 H   0  0  0  0  0  0  0  0  0  0  0  0
   -3.7089   -3.3012   -1.7237 H   0  0  0  0  0  0  0  0  0  0  0  0
   -2.2524   -3.7911   -0.8557 H   0  0  0  0  0  0  0  0  0  0  0  0
   -4.1229    2.0220    2.3636 H   0  0  0  0  0  0  0  0  0  0  0  0
   -5.0555    1.1190    3.3445 H   0  0  0  0  0  0  0  0  0  0  0  0
    1.6943   -1.2375   -1.8468 H   0  0  0  0  0  0  0  0  0  0  0  0
    4.2757    0.0201   -2.1115 H   0  0  0  0  0  0  0  0  0  0  0  0
    3.6848    0.3164    2.8587 H   0  0  0  0  0  0  0  0  0  0  0  0
    5.7275    1.2100    1.7873 H   0  0  0  0  0  0  0  0  0  0  0  0
    6.7165    2.1151   -0.3045 H   0  0  0  0  0  0  0  0  0  0  0  0
    6.1999    1.5196   -1.8789 H   0  0  0  0  0  0  0  0  0  0  0  0
    7.1659    0.4700   -0.8172 H   0  0  0  0  0  0  0  0  0  0  0  0
  1 12  1  0  0  0  0
  1 44  1  0  0  0  0
  1 45  1  0  0  0  0
  2 16  1  0  0  0  0
  2 17  1  0  0  0  0
  2 46  1  0  0  0  0
  3 16  2  0  0  0  0
  3 18  1  0  0  0  0
  4  5  1  0  0  0  0
  4  6  1  0  0  0  0
  4  8  1  0  0  0  0
  4 24  1  0  0  0  0
  5  7  1  0  0  0  0
  5 25  1  0  0  0  0
  5 26  1  0  0  0  0
  6 10  1  0  0  0  0
  6 12  1  0  0  0  0
  6 27  1  0  0  0  0
  7  9  1  0  0  0  0
  7 11  1  0  0  0  0
  7 28  1  0  0  0  0
  8 13  1  0  0  0  0
  8 14  1  0  0  0  0
  8 29  1  0  0  0  0
  9 10  2  0  0  0  0
  9 15  1  0  0  0  0
 10 30  1  0  0  0  0
 11 16  1  0  0  0  0
 11 31  1  0  0  0  0
 11 32  1  0  0  0  0
 12 33  1  0  0  0  0
 12 34  1  0  0  0  0
 13 35  1  0  0  0  0
 13 36  1  0  0  0  0
 13 37  1  0  0  0  0
 14 38  1  0  0  0  0
 14 39  1  0  0  0  0
 14 40  1  0  0  0  0
 15 41  1  0  0  0  0
 15 42  1  0  0  0  0
 15 43  1  0  0  0  0
 17 18  2  0  0  0  0
 17 19  1  0  0  0  0
 18 20  1  0  0  0  0
 19 21  2  0  0  0  0
 19 47  1  0  0  0  0
 20 22  2  0  0  0  0
 20 48  1  0  0  0  0
 21 22  1  0  0  0  0
 21 23  1  0  0  0  0
 22 49  1  0  0  0  0
 23 50  1  0  0  0  0
 23 51  1  0  0  0  0
 23 52  1  0  0  0  0
M  END
> <PUBCHEM_COMPOUND_CID>
71693045

> <PUBCHEM_CONFORMER_RMSD>
0.8

> <PUBCHEM_CONFORMER_DIVERSEORDER>
6
19
9
18
23
16
21
20
15
7
14
4
5
13
11
10
17
2
22
8
3
1
12

> <PUBCHEM_MMFF94_PARTIAL_CHARGES>
25
1 -0.99
10 -0.29
11 0.18
12 0.27
15 0.14
16 0.01
17 -0.15
18 0.23
19 -0.15
2 0.03
20 -0.15
21 -0.14
22 -0.15
23 0.14
3 -0.57
30 0.15
44 0.36
45 0.36
46 0.27
47 0.15
48 0.15
49 0.15
6 0.14
7 0.14
9 -0.28

> <PUBCHEM_EFFECTIVE_ROTOR_COUNT>
4.8

> <PUBCHEM_PHARMACOPHORE_FEATURES>
8
1 1 cation
1 1 donor
1 2 donor
3 2 3 16 cation
3 8 13 14 hydrophobe
5 2 3 16 17 18 rings
6 17 18 19 20 21 22 rings
6 4 5 6 7 9 10 rings

> <PUBCHEM_HEAVY_ATOM_COUNT>
23

> <PUBCHEM_ATOM_DEF_STEREO_COUNT>
3

> <PUBCHEM_ATOM_UDEF_STEREO_COUNT>
0

> <PUBCHEM_BOND_DEF_STEREO_COUNT>
0

> <PUBCHEM_BOND_UDEF_STEREO_COUNT>
0

> <PUBCHEM_ISOTOPIC_ATOM_COUNT>
0

> <PUBCHEM_COMPONENT_COUNT>
1

> <PUBCHEM_CACTVS_TAUTO_COUNT>
3

> <PUBCHEM_CONFORMER_ID>
0445F2F500000006

> <PUBCHEM_MMFF94_ENERGY>
43.5056

> <PUBCHEM_FEATURE_SELFOVERLAP>
40.703

> <PUBCHEM_SHAPE_FINGERPRINT>
10165383 225 18130799936007779363
10498660 4 18341885269251157296
10670039 82 18040720243232770324
10803635 8 12967133791442566760
10871710 139 18260541234438287389
11370993 144 17775294828276712607
11595378 159 17822004294586364660
11796584 16 11167945753789294676
12107183 9 17610317378391035274
12173636 292 17702948028885125307
12236239 1 17822282518236155678
12390115 104 17775015561572503907
12403259 415 18337117748267767582
12403814 3 18334012783545084193
12507557 5 16225765250488877838
12555020 224 11312058716729141377
12596602 18 16298385781943841968
12633257 1 18341611546521695448
12892183 10 17167863024105166442
13224815 77 17967526857281880244
13544653 18 12107792891111206590
13583140 156 17167853158491596765
14279260 333 16701196179259002206
14341114 328 17095814234486827816
14468879 13 18044933472753211617
14739800 52 18044919407205192952
14840074 17 18260556666224451541
15575132 122 18259982682289011469
15880784 105 13984661460359996264
15961568 22 17906434873545678168
16988056 13 16031246958984869645
18186145 218 17988920063824618066
19862831 5 12679457586494530102
20645477 56 18343585144076166286
21623110 236 18196650911392787761
21756936 100 18040156240764473594
21864079 5 18113054930932458172
23198884 109 17418382393149267266
23227448 37 18340197574568245877
23557571 272 17845661468178981382
23559900 14 17774721940618957078
3268164 11 18199734985642197150
376196 1 17177129523911703365
392239 28 17241345666775191305
44062 13 12247386896037714429
469060 322 18260267490666771523
497634 4 17988925617222418007
5104073 3 17458905916762817080
5252454 2 18272087167054807682
59755656 520 18059866034100148906
633830 44 16988837285443671256
7808743 9 18408317774823487292

> <PUBCHEM_SHAPE_MULTIPOLES>
458.39
12.12
2.54
1.76
13.41
0.31
0.71
4.71
1.91
-3.33
-1.52
-1.02
0.37
-0.6

> <PUBCHEM_SHAPE_SELFOVERLAP>
969.695

> <PUBCHEM_SHAPE_VOLUME>
254.2

> <PUBCHEM_COORDINATE_TYPE>
2
5
10

$$$$
