7672478
  -OEChem-12032416173D

 61 66  0     1  0  0  0  0  0999 V2000
    2.2306   -1.3387   -1.1804 S   0  0  0  0  0  0  0  0  0  0  0  0
   -5.0259   -1.5604   -0.0303 S   0  0  0  0  0  0  0  0  0  0  0  0
    2.1217   -1.4762   -2.6175 O   0  0  0  0  0  0  0  0  0  0  0  0
    1.7721   -2.3887   -0.2953 O   0  0  0  0  0  0  0  0  0  0  0  0
   -3.2418    1.3110   -1.5956 O   0  0  0  0  0  0  0  0  0  0  0  0
    8.1334   -0.9526    2.3370 O   0  0  0  0  0  0  0  0  0  0  0  0
    1.5185    0.1422   -0.7037 N   0  0  2  0  0  0  0  0  0  0  0  0
   -1.3045    1.5032   -0.3095 N   0  0  0  0  0  0  0  0  0  0  0  0
    7.9121   -0.2240    0.1058 N   0  0  0  0  0  0  0  0  0  0  0  0
    0.8700    2.4949   -1.2303 C   0  0  1  0  0  0  0  0  0  0  0  0
    0.7807    1.6969    1.0907 C   0  0  2  0  0  0  0  0  0  0  0  0
    1.1339    2.8960    0.2150 C   0  0  0  0  0  0  0  0  0  0  0  0
    1.7425    1.2924   -1.6255 C   0  0  0  0  0  0  0  0  0  0  0  0
    1.6947    0.5109    0.7328 C   0  0  0  0  0  0  0  0  0  0  0  0
   -0.6277    2.2138   -1.4032 C   0  0  0  0  0  0  0  0  0  0  0  0
   -0.6767    1.3088    0.9237 C   0  0  0  0  0  0  0  0  0  0  0  0
   -1.3535    0.7619    1.9465 C   0  0  0  0  0  0  0  0  0  0  0  0
   -2.6444    1.1275   -0.5336 C   0  0  0  0  0  0  0  0  0  0  0  0
   -3.3611    0.4850    0.6220 C   0  0  0  0  0  0  0  0  0  0  0  0
   -2.7168    0.3405    1.7892 C   0  0  0  0  0  0  0  0  0  0  0  0
    3.9219   -1.0066   -0.7977 C   0  0  0  0  0  0  0  0  0  0  0  0
   -4.7114    0.0381    0.4841 C   0  0  0  0  0  0  0  0  0  0  0  0
    4.4051   -1.3173    0.4628 C   0  0  0  0  0  0  0  0  0  0  0  0
    4.7372   -0.4412   -1.7642 C   0  0  0  0  0  0  0  0  0  0  0  0
   -5.8795    0.7349    0.7149 C   0  0  0  0  0  0  0  0  0  0  0  0
    5.7413   -1.0550    0.7652 C   0  0  0  0  0  0  0  0  0  0  0  0
    6.0734   -0.1791   -1.4617 C   0  0  0  0  0  0  0  0  0  0  0  0
    6.5754   -0.4860   -0.1969 C   0  0  0  0  0  0  0  0  0  0  0  0
   -7.0597   -0.0441    0.4691 C   0  0  0  0  0  0  0  0  0  0  0  0
   -6.7340   -1.3377    0.0499 C   0  0  0  0  0  0  0  0  0  0  0  0
   -8.4290    0.2967    0.5860 C   0  0  0  0  0  0  0  0  0  0  0  0
   -7.7301   -2.2870   -0.2515 C   0  0  0  0  0  0  0  0  0  0  0  0
   -9.4196   -0.6426    0.2877 C   0  0  0  0  0  0  0  0  0  0  0  0
   -9.0715   -1.9204   -0.1266 C   0  0  0  0  0  0  0  0  0  0  0  0
    8.5890   -0.4614    1.3094 C   0  0  0  0  0  0  0  0  0  0  0  0
   10.0336   -0.0356    1.2317 C   0  0  0  0  0  0  0  0  0  0  0  0
    1.1389    3.3267   -1.8936 H   0  0  0  0  0  0  0  0  0  0  0  0
    0.9696    1.9736    2.1364 H   0  0  0  0  0  0  0  0  0  0  0  0
    0.5315    3.7709    0.4900 H   0  0  0  0  0  0  0  0  0  0  0  0
    2.1859    3.1753    0.3502 H   0  0  0  0  0  0  0  0  0  0  0  0
    1.5006    1.0018   -2.6532 H   0  0  0  0  0  0  0  0  0  0  0  0
    2.7946    1.5948   -1.5930 H   0  0  0  0  0  0  0  0  0  0  0  0
    2.7318    0.8051    0.9249 H   0  0  0  0  0  0  0  0  0  0  0  0
    1.4516   -0.3460    1.3709 H   0  0  0  0  0  0  0  0  0  0  0  0
   -1.1544    3.1730   -1.5016 H   0  0  0  0  0  0  0  0  0  0  0  0
   -0.8126    1.6720   -2.3393 H   0  0  0  0  0  0  0  0  0  0  0  0
   -0.8867    0.5937    2.9114 H   0  0  0  0  0  0  0  0  0  0  0  0
   -3.1924   -0.1134    2.6538 H   0  0  0  0  0  0  0  0  0  0  0  0
    3.7717   -1.7591    1.2260 H   0  0  0  0  0  0  0  0  0  0  0  0
    4.3656   -0.1920   -2.7534 H   0  0  0  0  0  0  0  0  0  0  0  0
   -5.8974    1.7663    1.0476 H   0  0  0  0  0  0  0  0  0  0  0  0
    6.0568   -1.3189    1.7649 H   0  0  0  0  0  0  0  0  0  0  0  0
    6.7120    0.2655   -2.2209 H   0  0  0  0  0  0  0  0  0  0  0  0
   -8.7174    1.2939    0.9094 H   0  0  0  0  0  0  0  0  0  0  0  0
   -7.4669   -3.2897   -0.5764 H   0  0  0  0  0  0  0  0  0  0  0  0
    8.4547    0.1917   -0.6485 H   0  0  0  0  0  0  0  0  0  0  0  0
  -10.4668   -0.3690    0.3812 H   0  0  0  0  0  0  0  0  0  0  0  0
   -9.8488   -2.6441   -0.3563 H   0  0  0  0  0  0  0  0  0  0  0  0
   10.5486   -0.6155    0.4608 H   0  0  0  0  0  0  0  0  0  0  0  0
   10.5234   -0.2088    2.1939 H   0  0  0  0  0  0  0  0  0  0  0  0
   10.0943    1.0293    0.9901 H   0  0  0  0  0  0  0  0  0  0  0  0
  1  3  2  0  0  0  0
  1  4  2  0  0  0  0
  1  7  1  0  0  0  0
  1 21  1  0  0  0  0
  2 22  1  0  0  0  0
  2 30  1  0  0  0  0
  5 18  2  0  0  0  0
  6 35  2  0  0  0  0
  7 13  1  0  0  0  0
  7 14  1  0  0  0  0
  8 15  1  0  0  0  0
  8 16  1  0  0  0  0
  8 18  1  0  0  0  0
  9 28  1  0  0  0  0
  9 35  1  0  0  0  0
  9 56  1  0  0  0  0
 10 12  1  0  0  0  0
 10 13  1  0  0  0  0
 10 15  1  0  0  0  0
 10 37  1  0  0  0  0
 11 12  1  0  0  0  0
 11 14  1  0  0  0  0
 11 16  1  0  0  0  0
 11 38  1  0  0  0  0
 12 39  1  0  0  0  0
 12 40  1  0  0  0  0
 13 41  1  0  0  0  0
 13 42  1  0  0  0  0
 14 43  1  0  0  0  0
 14 44  1  0  0  0  0
 15 45  1  0  0  0  0
 15 46  1  0  0  0  0
 16 17  2  0  0  0  0
 17 20  1  0  0  0  0
 17 47  1  0  0  0  0
 18 19  1  0  0  0  0
 19 20  2  0  0  0  0
 19 22  1  0  0  0  0
 20 48  1  0  0  0  0
 21 23  2  0  0  0  0
 21 24  1  0  0  0  0
 22 25  2  0  0  0  0
 23 26  1  0  0  0  0
 23 49  1  0  0  0  0
 24 27  2  0  0  0  0
 24 50  1  0  0  0  0
 25 29  1  0  0  0  0
 25 51  1  0  0  0  0
 26 28  2  0  0  0  0
 26 52  1  0  0  0  0
 27 28  1  0  0  0  0
 27 53  1  0  0  0  0
 29 30  1  0  0  0  0
 29 31  2  0  0  0  0
 30 32  2  0  0  0  0
 31 33  1  0  0  0  0
 31 54  1  0  0  0  0
 32 34  1  0  0  0  0
 32 55  1  0  0  0  0
 33 34  2  0  0  0  0
 33 57  1  0  0  0  0
 34 58  1  0  0  0  0
 35 36  1  0  0  0  0
 36 59  1  0  0  0  0
 36 60  1  0  0  0  0
 36 61  1  0  0  0  0
M  END
> <PUBCHEM_COMPOUND_CID>
7672478

> <PUBCHEM_CONFORMER_RMSD>
1

> <PUBCHEM_CONFORMER_DIVERSEORDER>
1
19
20
8
12
21
11
15
3
13
22
10
5
9
16
17
7
14
4
2
18
6

> <PUBCHEM_MMFF94_PARTIAL_CHARGES>
45
1 1.45
11 0.14
13 0.36
14 0.36
15 0.3
16 -0.03
17 -0.15
18 0.62
19 0.06
2 -0.08
20 -0.15
21 -0.01
22 -0.01
23 -0.15
24 -0.15
25 -0.15
26 -0.15
27 -0.15
28 0.12
3 -0.65
30 0.04
31 -0.15
32 -0.15
33 -0.15
34 -0.15
35 0.57
36 0.06
4 -0.65
47 0.15
48 0.15
49 0.15
5 -0.57
50 0.15
51 0.15
52 0.15
53 0.15
54 0.15
55 0.15
56 0.37
57 0.15
58 0.15
6 -0.57
7 -0.85
8 -0.47
9 -0.55

> <PUBCHEM_EFFECTIVE_ROTOR_COUNT>
6

> <PUBCHEM_PHARMACOPHORE_FEATURES>
11
1 3 acceptor
1 4 acceptor
1 5 acceptor
1 6 acceptor
1 9 donor
5 2 22 25 29 30 rings
6 21 23 24 26 27 28 rings
6 29 30 31 32 33 34 rings
6 7 10 11 12 13 14 rings
6 8 10 11 12 15 16 rings
6 8 16 17 18 19 20 rings

> <PUBCHEM_HEAVY_ATOM_COUNT>
36

> <PUBCHEM_ATOM_DEF_STEREO_COUNT>
2

> <PUBCHEM_ATOM_UDEF_STEREO_COUNT>
0

> <PUBCHEM_BOND_DEF_STEREO_COUNT>
0

> <PUBCHEM_BOND_UDEF_STEREO_COUNT>
0

> <PUBCHEM_ISOTOPIC_ATOM_COUNT>
0

> <PUBCHEM_COMPONENT_COUNT>
1

> <PUBCHEM_CACTVS_TAUTO_COUNT>
2

> <PUBCHEM_CONFORMER_ID>
0075129E00000001

> <PUBCHEM_MMFF94_ENERGY>
89.5711

> <PUBCHEM_FEATURE_SELFOVERLAP>
57.485

> <PUBCHEM_SHAPE_FINGERPRINT>
10 15 14620797093716635353
10165383 225 11672063042798846240
10190206 1 12829479316654494711
10483366 6 12901542434499899176
106641 1 17060338526255117976
10670039 82 15357690878264647621
10674148 151 17967813834861251297
11135609 99 18059858419597789607
11146851 88 17821731637325543706
11297750 10 17822002129501901197
11828532 37 15358566157934183489
12107698 1 17967819349187679597
12133447 93 18058467425650990245
12202916 173 18040720263858878282
12522641 33 17970918980020547300
12741549 16 18408321073121838253
12838862 33 18272643533345616663
13150687 139 13551191086820349089
13540713 4 16445901871412372665
13811026 1 18410858793081027091
14068700 675 18410860958066843033
15183329 4 14273454773400827276
15350500 16 17675920997997815704
15357212 105 13397473920093181506
15392192 104 13110962028896520021
15706992 2 9655580742957181095
15728490 51 17346876766933748206
15840311 113 14405182881148606312
16992610 120 11239997893471997328
18393751 57 17846488241637376638
18603816 31 18271519901730587551
19302320 297 16486674945778890194
19315958 150 15985109599994039046
20105231 36 16128664041856533636
2026 5 17968372338964638170
21057603 130 18272363209414717343
21585482 111 10015323312414856363
21792961 116 14923948942891932897
23559900 14 16878518954607885533
249057 3 14345800456612185738
2747138 104 17846787295461458184
3004659 81 18412830209678256787
3383291 50 17775011211172319759
4066623 53 16443349788395406789
4149490 64 18267590289821298075
439807 62 17894353285112568287
4461854 278 16702027508554528167
45266715 3 15430314681983467170
474113 269 16226038961077386170
5219985 9 18259987067450990469
57303763 176 13046481122177632982
59682541 35 17704349979172418122
6081469 158 14923942341463596194
6126387 218 17917715682836900089
6438161 24 18410013252055321339
9962374 69 18341611581714623919

> <PUBCHEM_SHAPE_MULTIPOLES>
710.14
29.05
2.31
1.78
2.04
0.56
0.18
-17.08
-9.81
1.29
0.58
-2.74
0.13
-0.54

> <PUBCHEM_SHAPE_SELFOVERLAP>
1547.97

> <PUBCHEM_SHAPE_VOLUME>
386.3

> <PUBCHEM_COORDINATE_TYPE>
2
5
10

$$$$
