11887582
  -OEChem-12032416133D

 66 68  0     1  0  0  0  0  0999 V2000
    1.4446    0.1406    1.6105 O   0  0  0  0  0  0  0  0  0  0  0  0
    2.5967   -2.5458   -1.7171 O   0  0  0  0  0  0  0  0  0  0  0  0
    3.0756    4.0147    1.1487 O   0  0  0  0  0  0  0  0  0  0  0  0
    4.8147   -3.6830   -1.2980 O   0  0  0  0  0  0  0  0  0  0  0  0
   -1.8888   -3.6409    2.4241 O   0  0  0  0  0  0  0  0  0  0  0  0
   -1.0037   -3.8006    0.3076 O   0  0  0  0  0  0  0  0  0  0  0  0
   -5.7629   -0.4738   -2.4000 O   0  0  0  0  0  0  0  0  0  0  0  0
    3.1073   -0.5441   -0.6456 N   0  0  0  0  0  0  0  0  0  0  0  0
    2.5972    2.2348   -0.2894 N   0  0  0  0  0  0  0  0  0  0  0  0
    0.0116   -1.2432    0.4061 N   0  0  0  0  0  0  0  0  0  0  0  0
   -0.8617    5.1775   -0.4496 N   0  0  0  0  0  0  0  0  0  0  0  0
    1.7309   -0.0423   -0.7546 C   0  0  2  0  0  0  0  0  0  0  0  0
    1.6517    1.4476   -1.0899 C   0  0  0  0  0  0  0  0  0  0  0  0
    4.0565    0.3027    0.0970 C   0  0  0  0  0  0  0  0  0  0  0  0
    3.9752    1.7577   -0.3450 C   0  0  0  0  0  0  0  0  0  0  0  0
    1.0599   -0.3509    0.5527 C   0  0  0  0  0  0  0  0  0  0  0  0
    3.3933   -1.8379   -1.0952 C   0  0  0  0  0  0  0  0  0  0  0  0
    2.2809    3.3553    0.4808 C   0  0  0  0  0  0  0  0  0  0  0  0
   -0.7822   -1.7195    1.5156 C   0  0  1  0  0  0  0  0  0  0  0  0
    4.7699   -2.3722   -0.7889 C   0  0  0  0  0  0  0  0  0  0  0  0
   -1.9702   -0.7865    1.7934 C   0  0  0  0  0  0  0  0  0  0  0  0
    0.8834    3.8038    0.5057 C   0  0  0  0  0  0  0  0  0  0  0  0
   -1.2229   -3.1660    1.3344 C   0  0  0  0  0  0  0  0  0  0  0  0
   -2.9828   -0.7025    0.6737 C   0  0  0  0  0  0  0  0  0  0  0  0
   -0.0084    3.3189    1.4560 C   0  0  0  0  0  0  0  0  0  0  0  0
    0.4112    4.7234   -0.4169 C   0  0  0  0  0  0  0  0  0  0  0  0
   -4.0611   -1.5868    0.6415 C   0  0  0  0  0  0  0  0  0  0  0  0
   -2.8389    0.2586   -0.3270 C   0  0  0  0  0  0  0  0  0  0  0  0
   -1.3263    3.7623    1.4546 C   0  0  0  0  0  0  0  0  0  0  0  0
    6.0784   -4.3041   -1.0693 C   0  0  0  0  0  0  0  0  0  0  0  0
   -4.9955   -1.5098   -0.3913 C   0  0  0  0  0  0  0  0  0  0  0  0
   -3.7731    0.3355   -1.3598 C   0  0  0  0  0  0  0  0  0  0  0  0
   -4.8515   -0.5487   -1.3918 C   0  0  0  0  0  0  0  0  0  0  0  0
   -1.6995    4.6838    0.4895 C   0  0  0  0  0  0  0  0  0  0  0  0
   -2.3550   -4.9906    2.3278 C   0  0  0  0  0  0  0  0  0  0  0  0
   -5.5545    0.5320   -3.3902 C   0  0  0  0  0  0  0  0  0  0  0  0
    1.2246   -0.5819   -1.5635 H   0  0  0  0  0  0  0  0  0  0  0  0
    0.6261    1.8076   -0.9800 H   0  0  0  0  0  0  0  0  0  0  0  0
    1.9386    1.6036   -2.1374 H   0  0  0  0  0  0  0  0  0  0  0  0
    3.8340    0.2042    1.1641 H   0  0  0  0  0  0  0  0  0  0  0  0
    5.0831   -0.0435   -0.0395 H   0  0  0  0  0  0  0  0  0  0  0  0
    4.3119    1.8615   -1.3835 H   0  0  0  0  0  0  0  0  0  0  0  0
    4.6298    2.3749    0.2782 H   0  0  0  0  0  0  0  0  0  0  0  0
   -0.2329   -1.5829   -0.5193 H   0  0  0  0  0  0  0  0  0  0  0  0
   -0.1289   -1.7141    2.3981 H   0  0  0  0  0  0  0  0  0  0  0  0
    5.5207   -1.7569   -1.2947 H   0  0  0  0  0  0  0  0  0  0  0  0
    4.9292   -2.3797    0.2943 H   0  0  0  0  0  0  0  0  0  0  0  0
   -1.6005    0.2255    2.0079 H   0  0  0  0  0  0  0  0  0  0  0  0
   -2.4875   -1.1005    2.7098 H   0  0  0  0  0  0  0  0  0  0  0  0
    0.3126    2.6001    2.2043 H   0  0  0  0  0  0  0  0  0  0  0  0
    1.0600    5.1369   -1.1833 H   0  0  0  0  0  0  0  0  0  0  0  0
   -4.1918   -2.3360    1.4171 H   0  0  0  0  0  0  0  0  0  0  0  0
   -2.0032    0.9531   -0.3133 H   0  0  0  0  0  0  0  0  0  0  0  0
   -2.0388    3.3970    2.1853 H   0  0  0  0  0  0  0  0  0  0  0  0
   -5.8342   -2.2003   -0.4102 H   0  0  0  0  0  0  0  0  0  0  0  0
   -3.6006    1.1055   -2.1040 H   0  0  0  0  0  0  0  0  0  0  0  0
    6.8743   -3.7433   -1.5686 H   0  0  0  0  0  0  0  0  0  0  0  0
    6.2798   -4.3733    0.0040 H   0  0  0  0  0  0  0  0  0  0  0  0
    6.0445   -5.3140   -1.4865 H   0  0  0  0  0  0  0  0  0  0  0  0
   -2.7162    5.0601    0.4450 H   0  0  0  0  0  0  0  0  0  0  0  0
   -3.0629   -5.0883    1.4992 H   0  0  0  0  0  0  0  0  0  0  0  0
   -1.5108   -5.6745    2.1988 H   0  0  0  0  0  0  0  0  0  0  0  0
   -2.8695   -5.2395    3.2596 H   0  0  0  0  0  0  0  0  0  0  0  0
   -6.3720    0.4476   -4.1137 H   0  0  0  0  0  0  0  0  0  0  0  0
   -4.6220    0.3676   -3.9408 H   0  0  0  0  0  0  0  0  0  0  0  0
   -5.6108    1.5378   -2.9602 H   0  0  0  0  0  0  0  0  0  0  0  0
  1 16  2  0  0  0  0
  2 17  2  0  0  0  0
  3 18  2  0  0  0  0
  4 20  1  0  0  0  0
  4 30  1  0  0  0  0
  5 23  1  0  0  0  0
  5 35  1  0  0  0  0
  6 23  2  0  0  0  0
  7 33  1  0  0  0  0
  7 36  1  0  0  0  0
  8 12  1  0  0  0  0
  8 14  1  0  0  0  0
  8 17  1  0  0  0  0
  9 13  1  0  0  0  0
  9 15  1  0  0  0  0
  9 18  1  0  0  0  0
 10 16  1  0  0  0  0
 10 19  1  0  0  0  0
 10 44  1  0  0  0  0
 11 26  1  0  0  0  0
 11 34  2  0  0  0  0
 12 13  1  0  0  0  0
 12 16  1  0  0  0  0
 12 37  1  0  0  0  0
 13 38  1  0  0  0  0
 13 39  1  0  0  0  0
 14 15  1  0  0  0  0
 14 40  1  0  0  0  0
 14 41  1  0  0  0  0
 15 42  1  0  0  0  0
 15 43  1  0  0  0  0
 17 20  1  0  0  0  0
 18 22  1  0  0  0  0
 19 21  1  0  0  0  0
 19 23  1  0  0  0  0
 19 45  1  0  0  0  0
 20 46  1  0  0  0  0
 20 47  1  0  0  0  0
 21 24  1  0  0  0  0
 21 48  1  0  0  0  0
 21 49  1  0  0  0  0
 22 25  1  0  0  0  0
 22 26  2  0  0  0  0
 24 27  2  0  0  0  0
 24 28  1  0  0  0  0
 25 29  2  0  0  0  0
 25 50  1  0  0  0  0
 26 51  1  0  0  0  0
 27 31  1  0  0  0  0
 27 52  1  0  0  0  0
 28 32  2  0  0  0  0
 28 53  1  0  0  0  0
 29 34  1  0  0  0  0
 29 54  1  0  0  0  0
 30 57  1  0  0  0  0
 30 58  1  0  0  0  0
 30 59  1  0  0  0  0
 31 33  2  0  0  0  0
 31 55  1  0  0  0  0
 32 33  1  0  0  0  0
 32 56  1  0  0  0  0
 34 60  1  0  0  0  0
 35 61  1  0  0  0  0
 35 62  1  0  0  0  0
 35 63  1  0  0  0  0
 36 64  1  0  0  0  0
 36 65  1  0  0  0  0
 36 66  1  0  0  0  0
M  END
> <PUBCHEM_COMPOUND_CID>
11887582

> <PUBCHEM_CONFORMER_RMSD>
1.2

> <PUBCHEM_CONFORMER_DIVERSEORDER>
1
95
126
28
139
80
106
92
73
3
107
104
124
57
142
118
87
93
30
18
94
105
37
84
62
42
88
67
145
144
51
7
63
83
109
46
112
14
10
11
91
75
90
34
23
85
136
29
129
120
47
53
19
123
132
65
32
41
48
131
78
115
60
66
26
86
71
76
135
77
61
130
9
72
69
36
25
125
16
133
74
116
128
81
103
45
27
68
21
127
56
44
52
111
113
79
54
134
121
59
4
99
55
12
102
6
108
122
43
39
101
146
22
137
114
13
50
40
89
58
49
82
98
119
31
20
117
38
70
15
33
35
110
143
8
5
64
141
138
24
17
2
100
96
140
97

> <PUBCHEM_MMFF94_PARTIAL_CHARGES>
45
1 -0.57
10 -0.73
11 -0.62
12 0.36
13 0.3
14 0.3
15 0.3
16 0.57
17 0.57
18 0.54
19 0.36
2 -0.57
20 0.34
21 0.14
22 0.09
23 0.66
24 -0.14
25 -0.15
26 0.16
27 -0.15
28 -0.15
29 -0.15
3 -0.57
30 0.28
31 -0.15
32 -0.15
33 0.08
34 0.16
35 0.28
36 0.28
4 -0.56
44 0.37
5 -0.43
50 0.15
51 0.15
52 0.15
53 0.15
54 0.15
55 0.15
56 0.15
6 -0.57
60 0.15
7 -0.36
8 -0.66
9 -0.66

> <PUBCHEM_EFFECTIVE_ROTOR_COUNT>
14.2

> <PUBCHEM_PHARMACOPHORE_FEATURES>
11
1 1 acceptor
1 10 donor
1 11 acceptor
1 2 acceptor
1 3 acceptor
1 4 acceptor
1 6 acceptor
1 7 acceptor
6 11 22 25 26 29 34 rings
6 24 27 28 31 32 33 rings
6 8 9 12 13 14 15 rings

> <PUBCHEM_HEAVY_ATOM_COUNT>
36

> <PUBCHEM_ATOM_DEF_STEREO_COUNT>
2

> <PUBCHEM_ATOM_UDEF_STEREO_COUNT>
0

> <PUBCHEM_BOND_DEF_STEREO_COUNT>
0

> <PUBCHEM_BOND_UDEF_STEREO_COUNT>
0

> <PUBCHEM_ISOTOPIC_ATOM_COUNT>
0

> <PUBCHEM_COMPONENT_COUNT>
1

> <PUBCHEM_CACTVS_TAUTO_COUNT>
2

> <PUBCHEM_CONFORMER_ID>
00B563DE00000001

> <PUBCHEM_MMFF94_ENERGY>
108.4733

> <PUBCHEM_FEATURE_SELFOVERLAP>
55.844

> <PUBCHEM_SHAPE_FINGERPRINT>
11285246 1 18339082566777326903
1200032 147 14852731259293110653
12156800 1 17835491870322058952
12788726 201 18337391526921754314
13583140 156 18050296061001651862
140371 6 18337120059150680800
14659021 117 18266745675706993290
14866123 147 17760378690906106634
15351339 4 17685494252050835747
15775530 1 17829338221811783339
15815584 197 18055649549347983260
17921350 177 17757532415694244185
19311894 1 17838054801935525028
20775438 99 17837743958331491847
21033648 144 17975409432362003789
21033648 29 17895742028528445749
23536364 44 18191581952487804525
23559900 14 18194688300353519624
4015057 19 18341052998962707923
4403749 210 17403721746040350744
508706 21 17683506709143645413
5171179 24 18201153231757915464
7399639 24 17400371537972480683

> <PUBCHEM_SHAPE_MULTIPOLES>
679.85
10.55
7.97
2.24
0.33
4.12
0.63
-9.88
8.53
-3.83
-3.18
3.12
-1.4
3.73

> <PUBCHEM_SHAPE_SELFOVERLAP>
1427.777

> <PUBCHEM_SHAPE_VOLUME>
379.6

> <PUBCHEM_COORDINATE_TYPE>
2
5
10

$$$$
