51136916
  -OEChem-12032416213D

 45 48  0     1  0  0  0  0  0999 V2000
   -2.6592    2.1262   -0.7450 O   0  0  0  0  0  0  0  0  0  0  0  0
   -4.5097   -0.8948    0.2321 N   0  0  1  0  0  0  0  0  0  0  0  0
   -1.7671    0.2820    0.1605 N   0  0  0  0  0  0  0  0  0  0  0  0
   -1.2721    2.2508   -0.8942 N   0  0  0  0  0  0  0  0  0  0  0  0
    2.3615   -0.4506    0.7802 N   0  0  0  0  0  0  0  0  0  0  0  0
    6.6287   -1.1468   -0.8086 N   0  0  0  0  0  0  0  0  0  0  0  0
    6.5776   -0.3916    1.4792 N   0  0  0  0  0  0  0  0  0  0  0  0
   -4.3049    0.5659    0.1665 C   0  0  1  0  0  0  0  0  0  0  0  0
   -4.8010    1.0920    1.5261 C   0  0  0  0  0  0  0  0  0  0  0  0
   -5.6296   -1.1147    1.1473 C   0  0  0  0  0  0  0  0  0  0  0  0
   -5.3209   -0.1351    2.2615 C   0  0  0  0  0  0  0  0  0  0  0  0
   -4.7404   -1.5018   -1.0724 C   0  0  0  0  0  0  0  0  0  0  0  0
   -2.8648    0.9400   -0.1149 C   0  0  0  0  0  0  0  0  0  0  0  0
   -3.5573   -1.2032   -1.9878 C   0  0  0  0  0  0  0  0  0  0  0  0
   -4.9544   -3.0057   -0.9260 C   0  0  0  0  0  0  0  0  0  0  0  0
   -0.8163    1.1252   -0.3364 C   0  0  0  0  0  0  0  0  0  0  0  0
    0.5817    0.8140   -0.2581 C   0  0  0  0  0  0  0  0  0  0  0  0
    1.5014    1.4337   -1.0969 C   0  0  0  0  0  0  0  0  0  0  0  0
    1.0584   -0.1125    0.6551 C   0  0  0  0  0  0  0  0  0  0  0  0
    2.8507    1.1123   -0.9983 C   0  0  0  0  0  0  0  0  0  0  0  0
    3.2260    0.1724   -0.0519 C   0  0  0  0  0  0  0  0  0  0  0  0
    4.6086   -0.2112    0.1065 C   0  0  0  0  0  0  0  0  0  0  0  0
    5.3368   -0.7742   -0.9216 C   0  0  0  0  0  0  0  0  0  0  0  0
    5.2875   -0.0421    1.2960 C   0  0  0  0  0  0  0  0  0  0  0  0
    7.1788   -0.9303    0.4013 C   0  0  0  0  0  0  0  0  0  0  0  0
   -4.9415    1.0121   -0.6111 H   0  0  0  0  0  0  0  0  0  0  0  0
   -4.0276    1.5988    2.1134 H   0  0  0  0  0  0  0  0  0  0  0  0
   -5.6230    1.8011    1.3694 H   0  0  0  0  0  0  0  0  0  0  0  0
   -6.5949   -0.8705    0.6857 H   0  0  0  0  0  0  0  0  0  0  0  0
   -5.6661   -2.1340    1.5433 H   0  0  0  0  0  0  0  0  0  0  0  0
   -6.1971    0.0917    2.8761 H   0  0  0  0  0  0  0  0  0  0  0  0
   -4.5381   -0.5353    2.9179 H   0  0  0  0  0  0  0  0  0  0  0  0
   -5.6407   -1.0820   -1.5418 H   0  0  0  0  0  0  0  0  0  0  0  0
   -3.6604   -1.7792   -2.9165 H   0  0  0  0  0  0  0  0  0  0  0  0
   -3.5131   -0.1589   -2.3079 H   0  0  0  0  0  0  0  0  0  0  0  0
   -2.6023   -1.5093   -1.5484 H   0  0  0  0  0  0  0  0  0  0  0  0
   -5.0064   -3.4832   -1.9112 H   0  0  0  0  0  0  0  0  0  0  0  0
   -5.8932   -3.2439   -0.4156 H   0  0  0  0  0  0  0  0  0  0  0  0
   -4.1321   -3.4781   -0.3764 H   0  0  0  0  0  0  0  0  0  0  0  0
    1.1968    2.1666   -1.8397 H   0  0  0  0  0  0  0  0  0  0  0  0
    0.4005   -0.6333    1.3448 H   0  0  0  0  0  0  0  0  0  0  0  0
    3.5720    1.5957   -1.6494 H   0  0  0  0  0  0  0  0  0  0  0  0
    4.9011   -0.9576   -1.8994 H   0  0  0  0  0  0  0  0  0  0  0  0
    4.8110    0.3935    2.1694 H   0  0  0  0  0  0  0  0  0  0  0  0
    8.2156   -1.2203    0.5201 H   0  0  0  0  0  0  0  0  0  0  0  0
  1  4  1  0  0  0  0
  1 13  1  0  0  0  0
  2  8  1  0  0  0  0
  2 10  1  0  0  0  0
  2 12  1  0  0  0  0
  3 13  2  0  0  0  0
  3 16  1  0  0  0  0
  4 16  2  0  0  0  0
  5 19  1  0  0  0  0
  5 21  2  0  0  0  0
  6 23  2  0  0  0  0
  6 25  1  0  0  0  0
  7 24  1  0  0  0  0
  7 25  2  0  0  0  0
  8  9  1  0  0  0  0
  8 13  1  0  0  0  0
  8 26  1  0  0  0  0
  9 11  1  0  0  0  0
  9 27  1  0  0  0  0
  9 28  1  0  0  0  0
 10 11  1  0  0  0  0
 10 29  1  0  0  0  0
 10 30  1  0  0  0  0
 11 31  1  0  0  0  0
 11 32  1  0  0  0  0
 12 14  1  0  0  0  0
 12 15  1  0  0  0  0
 12 33  1  0  0  0  0
 14 34  1  0  0  0  0
 14 35  1  0  0  0  0
 14 36  1  0  0  0  0
 15 37  1  0  0  0  0
 15 38  1  0  0  0  0
 15 39  1  0  0  0  0
 16 17  1  0  0  0  0
 17 18  1  0  0  0  0
 17 19  2  0  0  0  0
 18 20  2  0  0  0  0
 18 40  1  0  0  0  0
 19 41  1  0  0  0  0
 20 21  1  0  0  0  0
 20 42  1  0  0  0  0
 21 22  1  0  0  0  0
 22 23  1  0  0  0  0
 22 24  2  0  0  0  0
 23 43  1  0  0  0  0
 24 44  1  0  0  0  0
 25 45  1  0  0  0  0
M  END
> <PUBCHEM_COMPOUND_CID>
51136916

> <PUBCHEM_CONFORMER_RMSD>
0.8

> <PUBCHEM_CONFORMER_DIVERSEORDER>
2
10
8
15
16
12
11
3
9
14
1
4
7
5
13
6

> <PUBCHEM_MMFF94_PARTIAL_CHARGES>
26
1 -0.02
10 0.27
12 0.27
13 0.3
16 0.46
17 0.05
18 -0.15
19 0.16
2 -0.81
20 -0.15
21 0.31
23 0.16
24 0.16
25 0.47
3 -0.57
4 -0.41
40 0.15
41 0.15
42 0.15
43 0.15
44 0.15
45 0.15
5 -0.62
6 -0.62
7 -0.62
8 0.45

> <PUBCHEM_EFFECTIVE_ROTOR_COUNT>
5

> <PUBCHEM_PHARMACOPHORE_FEATURES>
10
1 2 cation
1 5 acceptor
1 6 acceptor
3 12 14 15 hydrophobe
3 3 4 16 cation
3 6 7 25 cation
5 1 3 4 13 16 rings
5 2 8 9 10 11 rings
6 5 17 18 19 20 21 rings
6 6 7 22 23 24 25 rings

> <PUBCHEM_HEAVY_ATOM_COUNT>
25

> <PUBCHEM_ATOM_DEF_STEREO_COUNT>
1

> <PUBCHEM_ATOM_UDEF_STEREO_COUNT>
0

> <PUBCHEM_BOND_DEF_STEREO_COUNT>
0

> <PUBCHEM_BOND_UDEF_STEREO_COUNT>
0

> <PUBCHEM_ISOTOPIC_ATOM_COUNT>
0

> <PUBCHEM_COMPONENT_COUNT>
1

> <PUBCHEM_CACTVS_TAUTO_COUNT>
1

> <PUBCHEM_CONFORMER_ID>
030C499400000002

> <PUBCHEM_MMFF94_ENERGY>
54.6142

> <PUBCHEM_FEATURE_SELFOVERLAP>
50.747

> <PUBCHEM_SHAPE_FINGERPRINT>
10 15 15410895175715809106
10087517 78 8574717892385964599
10319926 262 17275117136283583349
10554248 39 12607126145812042008
11089746 13 8646764474506904150
11135926 11 16515678905912433827
11315181 36 16988837294345004393
11524674 6 17203327801940507607
11963148 33 17894347770391366162
12166972 35 16298396772538065772
12422481 6 18131079207508252519
12596602 18 17203609294018030682
12616971 3 18335991942776605749
13288520 33 18113622279085435937
13583140 156 15770058328820916519
13782708 43 18411691076819127650
13862211 1 17821729425332548448
14251764 18 14045736015536584473
14849402 71 17987232412672531584
14856354 85 17632301193880442149
15021287 119 18409453604420405109
15183329 4 18259982691322453402
15188451 53 17846212315383950687
15326921 28 17841159857565367401
15348495 7 17346595305010575706
15352257 5 18131355176954379742
15537594 2 18408323259143426251
15716309 27 18410576184296097672
15880784 105 18272089439229599041
17093844 174 18343578517379537225
17349148 13 17822012008073425464
17780758 139 17918557929838804585
17857418 61 18333726927158490498
17913733 40 14979964670084222758
18222031 100 17603577539632505012
18927931 339 18259705584316257765
19377110 9 18271245040217405208
19841028 212 18119244219799637371
200 152 17749389269459393453
20028762 73 18410570717236045550
20281389 69 12895348885199911330
21150785 3 14779556703296542894
21267235 1 17894642443179246304
21315759 148 17274829060063542390
21623969 137 16702304555430180710
21709351 56 17603583015140840477
22061861 79 15791729706977653882
22393880 68 14851879292231776625
2303208 19 18202284659224039630
23198884 109 11530478930700926065
23402539 116 17967249775972655173
23522609 53 18119281469439280356
23559900 14 17095812134390498237
2767999 5 11095883744192332850
2838139 119 8142085364366118766
300161 21 11023825046437688428
312425 54 17846504711771677690
314194 84 18040431075457987778
328310 630 11023814111430081754
351380 3 18187086156478361251
3663271 9 17489585675801660210
397830 11 17916854829240324448
4015057 19 15430335628154373260
4169191 19 10663519531692247802
4340502 62 17418093201039596054
445580 167 17968104153222753180
465052 167 17894638033112821002
484985 159 18410563012533871199
4938544 92 18131073676186655993
5104073 3 17845659277824678033
531348 171 13984928607193906521
5364581 5 16772942752596352897
559249 180 18410011040521625927
6009941 240 17203615848090339907
6328613 192 10951754305853319786
6431902 208 17967249793210546971
7495541 125 18131347548897023160
7970288 3 18266174114344786735
9953998 17 18060697290586399811

> <PUBCHEM_SHAPE_MULTIPOLES>
478.73
18.47
1.98
1.62
18.2
0.69
-0.35
9.14
-6.04
-3.04
0.85
-1.22
-0.02
-1.09

> <PUBCHEM_SHAPE_SELFOVERLAP>
1043.085

> <PUBCHEM_SHAPE_VOLUME>
260.7

> <PUBCHEM_COORDINATE_TYPE>
2
5
10

$$$$
