11912496
  -OEChem-12032416163D

 62 66  0     1  0  0  0  0  0999 V2000
    0.6756    1.1010   -1.9044 O   0  0  0  0  0  0  0  0  0  0  0  0
   -1.0923   -1.3263   -1.2756 O   0  0  0  0  0  0  0  0  0  0  0  0
    2.4631   -0.8967   -1.1871 O   0  0  0  0  0  0  0  0  0  0  0  0
    3.2820   -0.5881    0.9257 O   0  0  0  0  0  0  0  0  0  0  0  0
   -8.7030   -2.9127    0.4655 O   0  0  0  0  0  0  0  0  0  0  0  0
   10.0379    0.6764    2.3070 O   0  0  0  0  0  0  0  0  0  0  0  0
   -2.0257    2.1867   -0.8131 N   0  0  0  0  0  0  0  0  0  0  0  0
   -4.0459    1.2699   -0.1267 N   0  0  0  0  0  0  0  0  0  0  0  0
   -3.3788    3.4813    0.5601 N   0  0  0  0  0  0  0  0  0  0  0  0
    4.6943   -0.6792   -0.9391 N   0  0  0  0  0  0  0  0  0  0  0  0
   -1.0157   -0.0166   -0.6743 C   0  0  1  0  0  0  0  0  0  0  0  0
    0.4460    0.3843   -0.6804 C   0  0  1  0  0  0  0  0  0  0  0  0
   -1.6782    1.0033   -1.5704 C   0  0  2  0  0  0  0  0  0  0  0  0
    1.1515   -0.9506   -0.6734 C   0  0  1  0  0  0  0  0  0  0  0  0
   -0.5783    1.3207   -2.5687 C   0  0  0  0  0  0  0  0  0  0  0  0
    0.2387   -1.7978   -1.5311 C   0  0  0  0  0  0  0  0  0  0  0  0
   -3.2013    2.3183   -0.0952 C   0  0  0  0  0  0  0  0  0  0  0  0
    3.4823   -0.7069   -0.2769 C   0  0  0  0  0  0  0  0  0  0  0  0
   -5.1816    1.4323    0.5832 C   0  0  0  0  0  0  0  0  0  0  0  0
   -4.5351    3.5759    1.2490 C   0  0  0  0  0  0  0  0  0  0  0  0
   -5.4827    2.5740    1.2975 C   0  0  0  0  0  0  0  0  0  0  0  0
    5.9841   -0.5071   -0.3869 C   0  0  0  0  0  0  0  0  0  0  0  0
   -6.0890    0.3104    0.5528 C   0  0  0  0  0  0  0  0  0  0  0  0
    7.1041   -0.5065   -1.2183 C   0  0  0  0  0  0  0  0  0  0  0  0
    6.1368   -0.3392    0.9893 C   0  0  0  0  0  0  0  0  0  0  0  0
   -7.3809    0.4732    0.0524 C   0  0  0  0  0  0  0  0  0  0  0  0
   -5.6758   -0.9356    1.0245 C   0  0  0  0  0  0  0  0  0  0  0  0
    8.3769   -0.3378   -0.6734 C   0  0  0  0  0  0  0  0  0  0  0  0
    7.4096   -0.1706    1.5342 C   0  0  0  0  0  0  0  0  0  0  0  0
    8.5298   -0.1697    0.7029 C   0  0  0  0  0  0  0  0  0  0  0  0
   -8.2594   -0.6098    0.0238 C   0  0  0  0  0  0  0  0  0  0  0  0
   -6.5542   -2.0186    0.9959 C   0  0  0  0  0  0  0  0  0  0  0  0
   -7.8460   -1.8557    0.4956 C   0  0  0  0  0  0  0  0  0  0  0  0
    9.8569    0.0067    1.2705 C   0  0  0  0  0  0  0  0  0  0  0  0
   11.0700   -0.6309    0.6017 C   0  0  0  0  0  0  0  0  0  0  0  0
   -8.2160   -4.1579    0.9634 C   0  0  0  0  0  0  0  0  0  0  0  0
   -1.4355   -0.0933    0.3336 H   0  0  0  0  0  0  0  0  0  0  0  0
    0.7342    1.0387    0.1473 H   0  0  0  0  0  0  0  0  0  0  0  0
   -2.5497    0.6165   -2.1109 H   0  0  0  0  0  0  0  0  0  0  0  0
    1.1268   -1.3708    0.3415 H   0  0  0  0  0  0  0  0  0  0  0  0
   -0.6149    0.6338   -3.4215 H   0  0  0  0  0  0  0  0  0  0  0  0
   -0.6091    2.3448   -2.9534 H   0  0  0  0  0  0  0  0  0  0  0  0
    0.4534   -1.6898   -2.6001 H   0  0  0  0  0  0  0  0  0  0  0  0
    0.3051   -2.8618   -1.2848 H   0  0  0  0  0  0  0  0  0  0  0  0
   -1.3624    2.9508   -0.7512 H   0  0  0  0  0  0  0  0  0  0  0  0
    4.6578   -0.7965   -1.9487 H   0  0  0  0  0  0  0  0  0  0  0  0
   -4.6829    4.5101    1.7801 H   0  0  0  0  0  0  0  0  0  0  0  0
   -6.3949    2.6936    1.8688 H   0  0  0  0  0  0  0  0  0  0  0  0
    6.9983   -0.6338   -2.2927 H   0  0  0  0  0  0  0  0  0  0  0  0
    5.3171   -0.3300    1.6943 H   0  0  0  0  0  0  0  0  0  0  0  0
   -7.7215    1.4345   -0.3253 H   0  0  0  0  0  0  0  0  0  0  0  0
   -4.6733   -1.0800    1.4209 H   0  0  0  0  0  0  0  0  0  0  0  0
    9.2306   -0.3286   -1.3455 H   0  0  0  0  0  0  0  0  0  0  0  0
    7.5108   -0.0450    2.6092 H   0  0  0  0  0  0  0  0  0  0  0  0
   -9.2641   -0.4774   -0.3685 H   0  0  0  0  0  0  0  0  0  0  0  0
   -6.1687   -2.9577    1.3781 H   0  0  0  0  0  0  0  0  0  0  0  0
   11.8236   -0.8501    1.3642 H   0  0  0  0  0  0  0  0  0  0  0  0
   10.7988   -1.5776    0.1266 H   0  0  0  0  0  0  0  0  0  0  0  0
   11.4862    0.0596   -0.1358 H   0  0  0  0  0  0  0  0  0  0  0  0
   -7.3780   -4.5307    0.3646 H   0  0  0  0  0  0  0  0  0  0  0  0
   -7.9698   -4.0967    2.0289 H   0  0  0  0  0  0  0  0  0  0  0  0
   -9.0281   -4.8856    0.8643 H   0  0  0  0  0  0  0  0  0  0  0  0
  1 12  1  0  0  0  0
  1 15  1  0  0  0  0
  2 11  1  0  0  0  0
  2 16  1  0  0  0  0
  3 14  1  0  0  0  0
  3 18  1  0  0  0  0
  4 18  2  0  0  0  0
  5 33  1  0  0  0  0
  5 36  1  0  0  0  0
  6 34  2  0  0  0  0
  7 13  1  0  0  0  0
  7 17  1  0  0  0  0
  7 45  1  0  0  0  0
  8 17  1  0  0  0  0
  8 19  2  0  0  0  0
  9 17  2  0  0  0  0
  9 20  1  0  0  0  0
 10 18  1  0  0  0  0
 10 22  1  0  0  0  0
 10 46  1  0  0  0  0
 11 12  1  0  0  0  0
 11 13  1  0  0  0  0
 11 37  1  0  0  0  0
 12 14  1  0  0  0  0
 12 38  1  0  0  0  0
 13 15  1  0  0  0  0
 13 39  1  0  0  0  0
 14 16  1  0  0  0  0
 14 40  1  0  0  0  0
 15 41  1  0  0  0  0
 15 42  1  0  0  0  0
 16 43  1  0  0  0  0
 16 44  1  0  0  0  0
 19 21  1  0  0  0  0
 19 23  1  0  0  0  0
 20 21  2  0  0  0  0
 20 47  1  0  0  0  0
 21 48  1  0  0  0  0
 22 24  2  0  0  0  0
 22 25  1  0  0  0  0
 23 26  2  0  0  0  0
 23 27  1  0  0  0  0
 24 28  1  0  0  0  0
 24 49  1  0  0  0  0
 25 29  2  0  0  0  0
 25 50  1  0  0  0  0
 26 31  1  0  0  0  0
 26 51  1  0  0  0  0
 27 32  2  0  0  0  0
 27 52  1  0  0  0  0
 28 30  2  0  0  0  0
 28 53  1  0  0  0  0
 29 30  1  0  0  0  0
 29 54  1  0  0  0  0
 30 34  1  0  0  0  0
 31 33  2  0  0  0  0
 31 55  1  0  0  0  0
 32 33  1  0  0  0  0
 32 56  1  0  0  0  0
 34 35  1  0  0  0  0
 35 57  1  0  0  0  0
 35 58  1  0  0  0  0
 35 59  1  0  0  0  0
 36 60  1  0  0  0  0
 36 61  1  0  0  0  0
 36 62  1  0  0  0  0
M  END
> <PUBCHEM_COMPOUND_CID>
11912496

> <PUBCHEM_CONFORMER_RMSD>
1

> <PUBCHEM_CONFORMER_DIVERSEORDER>
1
20
29
62
72
45
60
61
22
8
25
9
28
66
71
15
10
46
51
73
47
37
43
34
18
31
68
50
41
56
79
58
30
63
16
36
55
65
74
64
52
77
2
42
3
49
67
24
6
13
33
38
69
12
11
32
59
78
48
5
40
23
7
26
54
39
17
75
57
44
21
27
35
70
4
19
76
14
53

> <PUBCHEM_MMFF94_PARTIAL_CHARGES>
47
1 -0.56
10 -0.55
11 0.28
12 0.28
13 0.37
14 0.28
15 0.28
16 0.28
17 0.72
18 0.78
19 0.31
2 -0.56
20 0.16
21 -0.15
22 0.12
24 -0.15
25 -0.15
26 -0.15
27 -0.15
28 -0.15
29 -0.15
3 -0.43
30 0.09
31 -0.15
32 -0.15
33 0.08
34 0.42
35 0.06
36 0.28
4 -0.57
45 0.4
46 0.37
47 0.15
48 0.15
49 0.15
5 -0.36
50 0.15
51 0.15
52 0.15
53 0.15
54 0.15
55 0.15
56 0.15
6 -0.57
7 -0.87
8 -0.62
9 -0.62

> <PUBCHEM_EFFECTIVE_ROTOR_COUNT>
10.2

> <PUBCHEM_PHARMACOPHORE_FEATURES>
14
1 1 acceptor
1 10 donor
1 2 acceptor
1 4 acceptor
1 5 acceptor
1 6 acceptor
1 7 donor
1 8 acceptor
4 7 8 9 17 cation
5 1 11 12 13 15 rings
5 2 11 12 14 16 rings
6 22 24 25 28 29 30 rings
6 23 26 27 31 32 33 rings
6 8 9 17 19 20 21 rings

> <PUBCHEM_HEAVY_ATOM_COUNT>
36

> <PUBCHEM_ATOM_DEF_STEREO_COUNT>
4

> <PUBCHEM_ATOM_UDEF_STEREO_COUNT>
0

> <PUBCHEM_BOND_DEF_STEREO_COUNT>
0

> <PUBCHEM_BOND_UDEF_STEREO_COUNT>
0

> <PUBCHEM_ISOTOPIC_ATOM_COUNT>
0

> <PUBCHEM_COMPONENT_COUNT>
1

> <PUBCHEM_CACTVS_TAUTO_COUNT>
27

> <PUBCHEM_CONFORMER_ID>
00B5C53000000001

> <PUBCHEM_MMFF94_ENERGY>
127.2891

> <PUBCHEM_FEATURE_SELFOVERLAP>
71.765

> <PUBCHEM_SHAPE_FINGERPRINT>
10 15 18130504158774051190
10100884 174 18261957482962846395
10369192 42 17489303045120317596
106641 1 18411135831693942380
10917259 69 9222962456200621479
11135609 99 18262805193848258543
11135926 11 13407078055272132761
11146346 171 18202013093286228654
11200772 48 9367339336849853725
11211813 128 18131073731620258719
11408170 108 15430314677324483024
11408170 132 10231745705285159754
11456790 92 17916858020997195930
11828042 74 9871452266948212792
12144600 37 18200321996292970358
12838863 1 18262801899867201387
13740195 50 18342452660527550706
13974486 7 18122907805798183987
14068700 675 18187369865819397245
15230672 131 8430314610794154233
15350500 16 17167859776951621845
15684389 69 17894346674915456370
15728490 51 18334576845673930767
16992610 120 9511466624043261011
16992727 255 9943808880998752599
1768 4 16773792606655303176
17686467 74 18342174475438136769
18603816 31 15574722412960909729
18608769 82 18131630088539897646
19303781 99 18190181390330581591
19304152 47 18059572417620495653
19611394 137 18342742952898092497
2026 5 12973901298523979768
21095123 145 18259988159205477308
21130935 74 18267306430916717662
21360443 89 18186798118929201210
21792965 131 17313094259723877058
21792965 270 17774150340616921384
23389318 12 17095250241468069310
2747138 104 18201446869833834981
3092352 35 14045737119332682724
335507 130 18060136557400690204
3711267 37 16415764128808883016
4112364 45 17346314951643555084
4149490 64 17387150839526851153
4403749 210 18271804567540457677
4760202 70 17895485833481033942
508180 173 8862649193233023519
58083652 198 16660655071875822468
59521270 166 9727636103153192360
59521660 218 16371017347105902484
59682541 35 18131070441395221326
5969126 39 16226045574683418245
6126387 218 16877940499806669205
6201320 82 10807118985012939435
6698420 124 13686289197258790166
9663363 56 18344145887803423405
9689198 14 17489587814716563308
9953998 17 18272657810186251625
9962374 69 17313105272346297940

> <PUBCHEM_SHAPE_MULTIPOLES>
685.72
36.35
3.16
1.75
60.13
0.24
-0.37
-16.46
20.26
-12.27
1.07
1.91
0.38
1.07

> <PUBCHEM_SHAPE_SELFOVERLAP>
1499.266

> <PUBCHEM_SHAPE_VOLUME>
371.4

> <PUBCHEM_COORDINATE_TYPE>
2
5
10

$$$$
