45783354
  -OEChem-12032416263D

 55 59  0     1  0  0  0  0  0999 V2000
   -2.6630   -1.4225    2.0095 O   0  0  0  0  0  0  0  0  0  0  0  0
    0.7567    2.4342   -1.2462 O   0  0  0  0  0  0  0  0  0  0  0  0
    0.3565    3.6960    0.7676 O   0  0  0  0  0  0  0  0  0  0  0  0
    3.7753   -0.4700   -0.3760 O   0  0  0  0  0  0  0  0  0  0  0  0
    5.6773   -1.3422   -2.2351 O   0  0  0  0  0  0  0  0  0  0  0  0
   -3.5387   -0.6923   -1.4841 N   0  0  1  0  0  0  0  0  0  0  0  0
   -1.2096   -1.1383    0.3290 N   0  0  0  0  0  0  0  0  0  0  0  0
   -1.4005   -1.2981    2.6033 N   0  0  0  0  0  0  0  0  0  0  0  0
    3.5853   -0.6300    1.9311 N   0  0  0  0  0  0  0  0  0  0  0  0
   -3.6902   -1.4200   -0.2082 C   0  0  1  0  0  0  0  0  0  0  0  0
   -4.0075   -2.8694   -0.6198 C   0  0  0  0  0  0  0  0  0  0  0  0
   -4.0741   -2.8456   -2.1402 C   0  0  0  0  0  0  0  0  0  0  0  0
   -4.3703   -1.3947   -2.4617 C   0  0  0  0  0  0  0  0  0  0  0  0
   -3.8841    0.7199   -1.3845 C   0  0  0  0  0  0  0  0  0  0  0  0
   -2.4607   -1.3175    0.6699 C   0  0  0  0  0  0  0  0  0  0  0  0
   -2.7681    1.5286   -0.7784 C   0  0  0  0  0  0  0  0  0  0  0  0
   -1.5117    1.5434   -1.3890 C   0  0  0  0  0  0  0  0  0  0  0  0
   -3.0013    2.2646    0.3966 C   0  0  0  0  0  0  0  0  0  0  0  0
   -0.5969   -1.1333    1.5483 C   0  0  0  0  0  0  0  0  0  0  0  0
   -0.5213    2.3007   -0.7979 C   0  0  0  0  0  0  0  0  0  0  0  0
   -1.9810    3.0238    0.9746 C   0  0  0  0  0  0  0  0  0  0  0  0
   -0.7497    3.0212    0.3521 C   0  0  0  0  0  0  0  0  0  0  0  0
    0.8215   -0.9626    1.6779 C   0  0  0  0  0  0  0  0  0  0  0  0
    1.3069    3.3199   -0.2498 C   0  0  0  0  0  0  0  0  0  0  0  0
    1.6111   -0.7964    0.5455 C   0  0  0  0  0  0  0  0  0  0  0  0
    1.4121   -0.9627    2.9367 C   0  0  0  0  0  0  0  0  0  0  0  0
    2.9757   -0.6356    0.7244 C   0  0  0  0  0  0  0  0  0  0  0  0
    2.7855   -0.7941    3.0087 C   0  0  0  0  0  0  0  0  0  0  0  0
    5.1684   -0.3091   -0.1363 C   0  0  0  0  0  0  0  0  0  0  0  0
    5.8857   -0.1647   -1.4646 C   0  0  0  0  0  0  0  0  0  0  0  0
    6.3110   -1.2531   -3.5036 C   0  0  0  0  0  0  0  0  0  0  0  0
   -4.5525   -1.0391    0.3571 H   0  0  0  0  0  0  0  0  0  0  0  0
   -3.2679   -3.5997   -0.2741 H   0  0  0  0  0  0  0  0  0  0  0  0
   -4.9839   -3.1622   -0.2147 H   0  0  0  0  0  0  0  0  0  0  0  0
   -4.8357   -3.5263   -2.5318 H   0  0  0  0  0  0  0  0  0  0  0  0
   -3.1044   -3.1405   -2.5603 H   0  0  0  0  0  0  0  0  0  0  0  0
   -5.4371   -1.1828   -2.3159 H   0  0  0  0  0  0  0  0  0  0  0  0
   -4.0949   -1.1467   -3.4914 H   0  0  0  0  0  0  0  0  0  0  0  0
   -4.8295    0.8702   -0.8469 H   0  0  0  0  0  0  0  0  0  0  0  0
   -4.0483    1.1353   -2.3889 H   0  0  0  0  0  0  0  0  0  0  0  0
   -1.3136    0.9857   -2.2981 H   0  0  0  0  0  0  0  0  0  0  0  0
   -3.9798    2.2496    0.8704 H   0  0  0  0  0  0  0  0  0  0  0  0
   -2.1565    3.5918    1.8811 H   0  0  0  0  0  0  0  0  0  0  0  0
    1.6666    4.2279   -0.7473 H   0  0  0  0  0  0  0  0  0  0  0  0
    2.1567    2.8217    0.2310 H   0  0  0  0  0  0  0  0  0  0  0  0
    1.1941   -0.7892   -0.4568 H   0  0  0  0  0  0  0  0  0  0  0  0
    0.8473   -1.0876    3.8547 H   0  0  0  0  0  0  0  0  0  0  0  0
    3.2951   -0.7864    3.9665 H   0  0  0  0  0  0  0  0  0  0  0  0
    5.5533   -1.1960    0.3824 H   0  0  0  0  0  0  0  0  0  0  0  0
    5.3480    0.5862    0.4706 H   0  0  0  0  0  0  0  0  0  0  0  0
    5.4805    0.6941   -2.0123 H   0  0  0  0  0  0  0  0  0  0  0  0
    6.9580   -0.0154   -1.2969 H   0  0  0  0  0  0  0  0  0  0  0  0
    5.8984   -0.4203   -4.0812 H   0  0  0  0  0  0  0  0  0  0  0  0
    7.3920   -1.1311   -3.3850 H   0  0  0  0  0  0  0  0  0  0  0  0
    6.1225   -2.1821   -4.0484 H   0  0  0  0  0  0  0  0  0  0  0  0
  1  8  1  0  0  0  0
  1 15  1  0  0  0  0
  2 20  1  0  0  0  0
  2 24  1  0  0  0  0
  3 22  1  0  0  0  0
  3 24  1  0  0  0  0
  4 27  1  0  0  0  0
  4 29  1  0  0  0  0
  5 30  1  0  0  0  0
  5 31  1  0  0  0  0
  6 10  1  0  0  0  0
  6 13  1  0  0  0  0
  6 14  1  0  0  0  0
  7 15  2  0  0  0  0
  7 19  1  0  0  0  0
  8 19  2  0  0  0  0
  9 27  2  0  0  0  0
  9 28  1  0  0  0  0
 10 11  1  0  0  0  0
 10 15  1  0  0  0  0
 10 32  1  0  0  0  0
 11 12  1  0  0  0  0
 11 33  1  0  0  0  0
 11 34  1  0  0  0  0
 12 13  1  0  0  0  0
 12 35  1  0  0  0  0
 12 36  1  0  0  0  0
 13 37  1  0  0  0  0
 13 38  1  0  0  0  0
 14 16  1  0  0  0  0
 14 39  1  0  0  0  0
 14 40  1  0  0  0  0
 16 17  2  0  0  0  0
 16 18  1  0  0  0  0
 17 20  1  0  0  0  0
 17 41  1  0  0  0  0
 18 21  2  0  0  0  0
 18 42  1  0  0  0  0
 19 23  1  0  0  0  0
 20 22  2  0  0  0  0
 21 22  1  0  0  0  0
 21 43  1  0  0  0  0
 23 25  2  0  0  0  0
 23 26  1  0  0  0  0
 24 44  1  0  0  0  0
 24 45  1  0  0  0  0
 25 27  1  0  0  0  0
 25 46  1  0  0  0  0
 26 28  2  0  0  0  0
 26 47  1  0  0  0  0
 28 48  1  0  0  0  0
 29 30  1  0  0  0  0
 29 49  1  0  0  0  0
 29 50  1  0  0  0  0
 30 51  1  0  0  0  0
 30 52  1  0  0  0  0
 31 53  1  0  0  0  0
 31 54  1  0  0  0  0
 31 55  1  0  0  0  0
M  END
> <PUBCHEM_COMPOUND_CID>
45783354

> <PUBCHEM_CONFORMER_RMSD>
1

> <PUBCHEM_CONFORMER_DIVERSEORDER>
1
100
146
147
150
46
145
154
61
74
53
166
18
57
108
23
159
101
43
152
121
149
141
151
6
31
165
30
128
69
133
160
113
3
20
161
34
138
140
84
139
156
73
67
9
158
114
164
33
90
10
83
103
110
76
122
106
27
55
157
107
70
131
32
119
162
155
105
38
117
24
126
26
109
40
60
52
104
91
47
143
56
59
44
163
50
15
132
62
16
153
28
99
97
71
98
137
94
123
4
115
68
78
125
95
82
41
2
135
112
22
116
19
79
144
75
148
39
130
29
85
64
89
81
37
136
58
12
102
25
92
118
86
8
96
48
5
111
49
134
42
88
17
127
129
35
80
87
13
63
36
45
142
54
120
21
14
65
66
51
72
77
124
7
11
93

> <PUBCHEM_MMFF94_PARTIAL_CHARGES>
35
1 -0.02
10 0.45
13 0.27
14 0.41
15 0.3
16 -0.14
17 -0.15
18 -0.15
19 0.46
2 -0.36
20 0.08
21 -0.15
22 0.08
23 0.05
24 0.56
25 -0.15
26 -0.15
27 0.39
28 0.16
29 0.28
3 -0.36
30 0.28
31 0.28
4 -0.36
41 0.15
42 0.15
43 0.15
46 0.15
47 0.15
48 0.15
5 -0.56
6 -0.81
7 -0.57
8 -0.41
9 -0.62

> <PUBCHEM_EFFECTIVE_ROTOR_COUNT>
9.6

> <PUBCHEM_PHARMACOPHORE_FEATURES>
10
1 2 acceptor
1 3 acceptor
1 5 acceptor
1 6 cation
3 7 8 19 cation
5 1 7 8 15 19 rings
5 2 3 20 22 24 rings
5 6 10 11 12 13 rings
6 16 17 18 20 21 22 rings
6 9 23 25 26 27 28 rings

> <PUBCHEM_HEAVY_ATOM_COUNT>
31

> <PUBCHEM_ATOM_DEF_STEREO_COUNT>
1

> <PUBCHEM_ATOM_UDEF_STEREO_COUNT>
0

> <PUBCHEM_BOND_DEF_STEREO_COUNT>
0

> <PUBCHEM_BOND_UDEF_STEREO_COUNT>
0

> <PUBCHEM_ISOTOPIC_ATOM_COUNT>
0

> <PUBCHEM_COMPONENT_COUNT>
1

> <PUBCHEM_CACTVS_TAUTO_COUNT>
1

> <PUBCHEM_CONFORMER_ID>
02BA993A00000001

> <PUBCHEM_MMFF94_ENERGY>
68.9542

> <PUBCHEM_FEATURE_SELFOVERLAP>
50.904

> <PUBCHEM_SHAPE_FINGERPRINT>
10577160 103 18338530729112797308
1100329 8 18191841519453905921
11607047 141 17841725307611558763
12596599 1 18199166461021815497
12788726 201 18190452770994397273
13761468 95 17755590347715583556
13782708 43 16988266612738314222
14114206 34 18041003925105538508
14910302 57 17846487106885412558
14931854 50 17894341189909968286
14950920 106 15195277681186202062
16090146 7 17987783217017303263
17492 54 17749663000673372893
17909252 39 18056764453975212372
20642791 239 17603584153386216813
20691752 17 16880439750192907573
20775438 99 17256493823303224543
20905425 154 17974269221956167445
21792965 270 15315496736547924896
3610482 184 17972628531711809348
484985 159 14835838409661961133
6034566 193 15214457541290393606
70251023 43 18267867366345464559

> <PUBCHEM_SHAPE_MULTIPOLES>
588.69
10.94
3.85
3.17
15.37
3.43
0.22
-8.19
-10.3
-3.49
-0.82
3.26
-2.17
-0.07

> <PUBCHEM_SHAPE_SELFOVERLAP>
1283.76

> <PUBCHEM_SHAPE_VOLUME>
322.1

> <PUBCHEM_COORDINATE_TYPE>
2
5
10

$$$$
