40779916
  -OEChem-12032416253D

 58 61  0     1  0  0  0  0  0999 V2000
    4.1350    0.7402   -0.2667 S   0  0  0  0  0  0  0  0  0  0  0  0
    3.2516   -1.9116   -1.1503 S   0  0  0  0  0  0  0  0  0  0  0  0
   -1.7812   -3.8805   -0.4472 O   0  0  0  0  0  0  0  0  0  0  0  0
    4.6366    1.4025    0.9224 O   0  0  0  0  0  0  0  0  0  0  0  0
    4.9420    0.6930   -1.4708 O   0  0  0  0  0  0  0  0  0  0  0  0
   -0.4155    2.6945    1.2372 N   0  0  2  0  0  0  0  0  0  0  0  0
   -3.2093   -0.4822   -0.0082 N   0  0  2  0  0  0  0  0  0  0  0  0
    2.5836    1.3638   -0.6379 N   0  0  0  0  0  0  0  0  0  0  0  0
   -1.5990    2.8436   -1.0745 C   0  0  2  0  0  0  0  0  0  0  0  0
   -2.2794    1.7880   -0.1734 C   0  0  2  0  0  0  0  0  0  0  0  0
    0.5838    2.5568    0.1434 C   0  0  2  0  0  0  0  0  0  0  0  0
   -0.1087    2.4918   -1.2361 C   0  0  0  0  0  0  0  0  0  0  0  0
   -1.4518    1.6398    1.1230 C   0  0  0  0  0  0  0  0  0  0  0  0
   -1.6718    4.1869   -0.3234 C   0  0  0  0  0  0  0  0  0  0  0  0
   -1.0790    4.0124    1.0861 C   0  0  0  0  0  0  0  0  0  0  0  0
   -2.4826    0.4437   -0.8686 C   0  0  0  0  0  0  0  0  0  0  0  0
    1.5283    1.3725    0.3616 C   0  0  0  0  0  0  0  0  0  0  0  0
   -3.0933   -1.8842   -0.4329 C   0  0  2  0  0  0  0  0  0  0  0  0
   -4.6475   -0.2038   -0.0136 C   0  0  0  0  0  0  0  0  0  0  0  0
   -4.2332   -2.5615    0.3310 C   0  0  0  0  0  0  0  0  0  0  0  0
   -5.2498   -1.4572    0.5993 C   0  0  0  0  0  0  0  0  0  0  0  0
   -1.7429   -2.5070   -0.1022 C   0  0  0  0  0  0  0  0  0  0  0  0
    3.7495   -0.9309    0.1621 C   0  0  0  0  0  0  0  0  0  0  0  0
   -0.5467   -4.5289   -0.1639 C   0  0  0  0  0  0  0  0  0  0  0  0
    3.7645   -1.6267    1.3510 C   0  0  0  0  0  0  0  0  0  0  0  0
    3.3620   -2.9829    1.1820 C   0  0  0  0  0  0  0  0  0  0  0  0
    3.0546   -3.2720   -0.1292 C   0  0  0  0  0  0  0  0  0  0  0  0
   -2.0921    2.9193   -2.0494 H   0  0  0  0  0  0  0  0  0  0  0  0
   -3.2653    2.1933    0.0932 H   0  0  0  0  0  0  0  0  0  0  0  0
    1.2174    3.4562    0.1593 H   0  0  0  0  0  0  0  0  0  0  0  0
   -0.0052    1.5089   -1.7066 H   0  0  0  0  0  0  0  0  0  0  0  0
    0.3649    3.2142   -1.9130 H   0  0  0  0  0  0  0  0  0  0  0  0
   -2.1240    1.7075    1.9887 H   0  0  0  0  0  0  0  0  0  0  0  0
   -0.9872    0.6515    1.2095 H   0  0  0  0  0  0  0  0  0  0  0  0
   -2.7109    4.5285   -0.2507 H   0  0  0  0  0  0  0  0  0  0  0  0
   -1.1153    4.9546   -0.8745 H   0  0  0  0  0  0  0  0  0  0  0  0
   -0.3627    4.8174    1.2917 H   0  0  0  0  0  0  0  0  0  0  0  0
   -1.8658    4.1206    1.8434 H   0  0  0  0  0  0  0  0  0  0  0  0
   -1.4982    0.0307   -1.1091 H   0  0  0  0  0  0  0  0  0  0  0  0
   -2.9920    0.5811   -1.8313 H   0  0  0  0  0  0  0  0  0  0  0  0
    0.9922    0.4197    0.3001 H   0  0  0  0  0  0  0  0  0  0  0  0
    1.9641    1.4463    1.3646 H   0  0  0  0  0  0  0  0  0  0  0  0
   -3.2959   -1.9877   -1.5086 H   0  0  0  0  0  0  0  0  0  0  0  0
   -5.0366   -0.0726   -1.0317 H   0  0  0  0  0  0  0  0  0  0  0  0
   -4.9092    0.6805    0.5753 H   0  0  0  0  0  0  0  0  0  0  0  0
   -3.8982   -2.9869    1.2848 H   0  0  0  0  0  0  0  0  0  0  0  0
   -4.6772   -3.3726   -0.2564 H   0  0  0  0  0  0  0  0  0  0  0  0
   -6.2264   -1.6896    0.1629 H   0  0  0  0  0  0  0  0  0  0  0  0
   -5.3854   -1.3343    1.6803 H   0  0  0  0  0  0  0  0  0  0  0  0
   -1.5218   -2.4027    0.9677 H   0  0  0  0  0  0  0  0  0  0  0  0
   -0.9388   -2.0220   -0.6662 H   0  0  0  0  0  0  0  0  0  0  0  0
    2.2530    1.1811   -1.5943 H   0  0  0  0  0  0  0  0  0  0  0  0
   -0.6564   -5.5920   -0.3933 H   0  0  0  0  0  0  0  0  0  0  0  0
   -0.2851   -4.4229    0.8932 H   0  0  0  0  0  0  0  0  0  0  0  0
    0.2435   -4.1169   -0.7965 H   0  0  0  0  0  0  0  0  0  0  0  0
    4.0494   -1.1866    2.2979 H   0  0  0  0  0  0  0  0  0  0  0  0
    3.3018   -3.7099    1.9813 H   0  0  0  0  0  0  0  0  0  0  0  0
    2.7307   -4.2189   -0.5371 H   0  0  0  0  0  0  0  0  0  0  0  0
  1  4  2  0  0  0  0
  1  5  2  0  0  0  0
  1  8  1  0  0  0  0
  1 23  1  0  0  0  0
  2 23  1  0  0  0  0
  2 27  1  0  0  0  0
  3 22  1  0  0  0  0
  3 24  1  0  0  0  0
  6 11  1  0  0  0  0
  6 13  1  0  0  0  0
  6 15  1  0  0  0  0
  7 16  1  0  0  0  0
  7 18  1  0  0  0  0
  7 19  1  0  0  0  0
  8 17  1  0  0  0  0
  8 52  1  0  0  0  0
  9 10  1  0  0  0  0
  9 12  1  0  0  0  0
  9 14  1  0  0  0  0
  9 28  1  0  0  0  0
 10 13  1  0  0  0  0
 10 16  1  0  0  0  0
 10 29  1  0  0  0  0
 11 12  1  0  0  0  0
 11 17  1  0  0  0  0
 11 30  1  0  0  0  0
 12 31  1  0  0  0  0
 12 32  1  0  0  0  0
 13 33  1  0  0  0  0
 13 34  1  0  0  0  0
 14 15  1  0  0  0  0
 14 35  1  0  0  0  0
 14 36  1  0  0  0  0
 15 37  1  0  0  0  0
 15 38  1  0  0  0  0
 16 39  1  0  0  0  0
 16 40  1  0  0  0  0
 17 41  1  0  0  0  0
 17 42  1  0  0  0  0
 18 20  1  0  0  0  0
 18 22  1  0  0  0  0
 18 43  1  0  0  0  0
 19 21  1  0  0  0  0
 19 44  1  0  0  0  0
 19 45  1  0  0  0  0
 20 21  1  0  0  0  0
 20 46  1  0  0  0  0
 20 47  1  0  0  0  0
 21 48  1  0  0  0  0
 21 49  1  0  0  0  0
 22 50  1  0  0  0  0
 22 51  1  0  0  0  0
 23 25  2  0  0  0  0
 24 53  1  0  0  0  0
 24 54  1  0  0  0  0
 24 55  1  0  0  0  0
 25 26  1  0  0  0  0
 25 56  1  0  0  0  0
 26 27  2  0  0  0  0
 26 57  1  0  0  0  0
 27 58  1  0  0  0  0
M  END
> <PUBCHEM_COMPOUND_CID>
40779916

> <PUBCHEM_CONFORMER_RMSD>
1

> <PUBCHEM_CONFORMER_DIVERSEORDER>
1
48
147
106
131
103
46
18
148
127
90
108
143
99
67
130
126
134
144
85
152
94
19
84
22
118
87
36
132
137
117
121
88
129
96
42
33
128
120
151
105
31
20
74
111
115
71
28
73
21
38
13
25
110
149
80
116
124
26
83
93
125
2
109
138
141
146
101
81
139
56
60
63
114
113
145
34
53
135
82
119
77
89
142
41
123
52
69
15
30
68
79
47
91
76
59
49
150
3
44
112
136
61
64
29
70
95
107
133
55
140
75
40
12
17
66
72
43
11
58
35
10
32
97
50
14
27
78
104
4
122
86
100
7
57
62
23
9
39
37
24
51
65
45
16
98
102
5
8
6
92
54

> <PUBCHEM_MMFF94_PARTIAL_CHARGES>
25
1 1.5
11 0.27
13 0.27
15 0.27
16 0.27
17 0.36
18 0.27
19 0.27
2 -0.08
22 0.28
23 -0.02
24 0.28
25 -0.15
26 -0.15
27 -0.11
3 -0.56
4 -0.65
5 -0.65
52 0.42
56 0.15
57 0.15
58 0.15
6 -0.81
7 -0.81
8 -0.91

> <PUBCHEM_EFFECTIVE_ROTOR_COUNT>
10.2

> <PUBCHEM_PHARMACOPHORE_FEATURES>
9
1 3 acceptor
1 4 acceptor
1 5 acceptor
1 6 cation
1 7 cation
1 8 donor
5 2 23 25 26 27 rings
5 7 18 19 20 21 rings
8 6 9 10 11 12 13 14 15 rings

> <PUBCHEM_HEAVY_ATOM_COUNT>
27

> <PUBCHEM_ATOM_DEF_STEREO_COUNT>
4

> <PUBCHEM_ATOM_UDEF_STEREO_COUNT>
0

> <PUBCHEM_BOND_DEF_STEREO_COUNT>
0

> <PUBCHEM_BOND_UDEF_STEREO_COUNT>
0

> <PUBCHEM_ISOTOPIC_ATOM_COUNT>
0

> <PUBCHEM_COMPONENT_COUNT>
1

> <PUBCHEM_CACTVS_TAUTO_COUNT>
1

> <PUBCHEM_CONFORMER_ID>
026E408C00000001

> <PUBCHEM_MMFF94_ENERGY>
52.3003

> <PUBCHEM_FEATURE_SELFOVERLAP>
45.689

> <PUBCHEM_SHAPE_FINGERPRINT>
12038231 1 17690559689240827110
12422481 6 18053968168499053369
12553582 1 18340479083804279462
12788726 201 18410296895584542570
12978246 48 18121215385727073714
13004483 165 18408595955333142745
13122387 1 18338516309689135798
13140716 1 18053379903686934088
13631057 29 18411422817430633764
14251757 5 18409738382401046326
14725015 67 18338224952087681331
15420108 30 13576838751096750065
17492 89 18337670789705769778
19319366 153 17822567317312384418
19930381 70 18410292506286747611
19958102 18 17972583412822779101
20764821 26 18267304222749353934
20775530 9 18339078306270009183
22113638 7 18124312963174657583
23559900 14 17910103617582220840
3027735 51 18052528886118750181
314173 41 18195533807404406829
3737641 26 18412272735127688250
463206 1 18192998346544482458
5309563 4 18266462203306836671
6433294 58 18411131437989968762
7097593 13 18051412070052102855
9961470 85 17330256282917542514

> <PUBCHEM_SHAPE_MULTIPOLES>
530.8
9.63
6.37
1.21
3.69
1.23
-0.04
5.24
-0.46
-2.78
-0.23
0.67
-0.39
-0.33

> <PUBCHEM_SHAPE_SELFOVERLAP>
1080.663

> <PUBCHEM_SHAPE_VOLUME>
311.1

> <PUBCHEM_COORDINATE_TYPE>
2
5
10

$$$$
