45784038
  -OEChem-12032416333D

 67 70  0     1  0  0  0  0  0999 V2000
   -7.8767   -2.8323   -1.0326 F   0  0  0  0  0  0  0  0  0  0  0  0
   -0.9250    0.9259    1.5830 O   0  0  0  0  0  0  0  0  0  0  0  0
   -3.6557    0.3690    0.4303 O   0  0  0  0  0  0  0  0  0  0  0  0
    3.5856   -0.5155   -1.1650 N   0  0  0  0  0  0  0  0  0  0  0  0
   -0.9029    2.8936    2.6467 N   0  0  0  0  0  0  0  0  0  0  0  0
   -2.1936    2.4002    2.6881 N   0  0  0  0  0  0  0  0  0  0  0  0
    3.6549   -4.6120    0.9198 N   0  0  0  0  0  0  0  0  0  0  0  0
    1.2708    1.3703   -1.5094 C   0  0  1  0  0  0  0  0  0  0  0  0
    2.7247    1.6388   -1.9720 C   0  0  1  0  0  0  0  0  0  0  0  0
    0.7133    2.5891   -0.7586 C   0  0  0  0  0  0  0  0  0  0  0  0
    1.5598    2.9497    0.4767 C   0  0  2  0  0  0  0  0  0  0  0  0
    0.3544    1.0226   -2.6866 C   0  0  0  0  0  0  0  0  0  0  0  0
    3.0410    2.9709    0.1577 C   0  0  0  0  0  0  0  0  0  0  0  0
    3.5415    2.3914   -0.9480 C   0  0  0  0  0  0  0  0  0  0  0  0
    3.4397    0.3324   -2.3356 C   0  0  0  0  0  0  0  0  0  0  0  0
    1.2636    2.0027    1.6449 C   0  0  0  0  0  0  0  0  0  0  0  0
   -0.8415    0.2060   -2.2070 C   0  0  0  0  0  0  0  0  0  0  0  0
   -0.1067    2.2923   -3.3950 C   0  0  0  0  0  0  0  0  0  0  0  0
    3.9295    3.7136    1.1163 C   0  0  0  0  0  0  0  0  0  0  0  0
   -0.1974    2.0007    1.9927 C   0  0  0  0  0  0  0  0  0  0  0  0
    4.2556   -1.7656   -1.5027 C   0  0  0  0  0  0  0  0  0  0  0  0
    4.4012   -2.6652   -0.3043 C   0  0  0  0  0  0  0  0  0  0  0  0
   -2.1595    1.2509    2.0552 C   0  0  0  0  0  0  0  0  0  0  0  0
    5.3664   -2.4165    0.6653 C   0  0  0  0  0  0  0  0  0  0  0  0
    3.5776   -3.7661   -0.1319 C   0  0  0  0  0  0  0  0  0  0  0  0
   -3.2417    0.2927    1.7971 C   0  0  0  0  0  0  0  0  0  0  0  0
    5.4768   -3.2642    1.7619 C   0  0  0  0  0  0  0  0  0  0  0  0
    4.6050   -4.3382    1.8418 C   0  0  0  0  0  0  0  0  0  0  0  0
   -4.7054   -0.4271    0.0665 C   0  0  0  0  0  0  0  0  0  0  0  0
   -5.3124   -1.2556    1.0104 C   0  0  0  0  0  0  0  0  0  0  0  0
   -5.1700   -0.4110   -1.2487 C   0  0  0  0  0  0  0  0  0  0  0  0
   -6.3836   -2.0681    0.6392 C   0  0  0  0  0  0  0  0  0  0  0  0
   -6.2412   -1.2235   -1.6200 C   0  0  0  0  0  0  0  0  0  0  0  0
   -6.8479   -2.0520   -0.6761 C   0  0  0  0  0  0  0  0  0  0  0  0
    1.2701    0.5218   -0.8139 H   0  0  0  0  0  0  0  0  0  0  0  0
    2.7135    2.2662   -2.8723 H   0  0  0  0  0  0  0  0  0  0  0  0
   -0.3417    2.4625   -0.5011 H   0  0  0  0  0  0  0  0  0  0  0  0
    0.7549    3.4779   -1.4032 H   0  0  0  0  0  0  0  0  0  0  0  0
    1.2611    3.9661    0.7719 H   0  0  0  0  0  0  0  0  0  0  0  0
    0.8852    0.4028   -3.4162 H   0  0  0  0  0  0  0  0  0  0  0  0
    4.6072    2.4795   -1.1506 H   0  0  0  0  0  0  0  0  0  0  0  0
    2.8947   -0.1975   -3.1234 H   0  0  0  0  0  0  0  0  0  0  0  0
    4.4299    0.5678   -2.7490 H   0  0  0  0  0  0  0  0  0  0  0  0
    1.5912    0.9797    1.4243 H   0  0  0  0  0  0  0  0  0  0  0  0
    1.8140    2.3165    2.5401 H   0  0  0  0  0  0  0  0  0  0  0  0
   -1.4665    0.7614   -1.5015 H   0  0  0  0  0  0  0  0  0  0  0  0
   -0.5156   -0.7179   -1.7173 H   0  0  0  0  0  0  0  0  0  0  0  0
   -1.4760   -0.0774   -3.0541 H   0  0  0  0  0  0  0  0  0  0  0  0
   -0.8463    2.8614   -2.8220 H   0  0  0  0  0  0  0  0  0  0  0  0
   -0.6044    2.0194   -4.3339 H   0  0  0  0  0  0  0  0  0  0  0  0
    0.7240    2.9503   -3.6666 H   0  0  0  0  0  0  0  0  0  0  0  0
    3.5818    4.7449    1.2356 H   0  0  0  0  0  0  0  0  0  0  0  0
    4.9674    3.7548    0.7688 H   0  0  0  0  0  0  0  0  0  0  0  0
    3.9310    3.2300    2.0977 H   0  0  0  0  0  0  0  0  0  0  0  0
    4.1224   -0.0308   -0.4468 H   0  0  0  0  0  0  0  0  0  0  0  0
    3.6942   -2.2953   -2.2831 H   0  0  0  0  0  0  0  0  0  0  0  0
    5.2545   -1.5714   -1.9150 H   0  0  0  0  0  0  0  0  0  0  0  0
    6.0372   -1.5664    0.5763 H   0  0  0  0  0  0  0  0  0  0  0  0
    2.8037   -4.0124   -0.8524 H   0  0  0  0  0  0  0  0  0  0  0  0
   -4.0733    0.5567    2.4625 H   0  0  0  0  0  0  0  0  0  0  0  0
   -2.8749   -0.7152    2.0282 H   0  0  0  0  0  0  0  0  0  0  0  0
    6.2217   -3.0898    2.5298 H   0  0  0  0  0  0  0  0  0  0  0  0
    4.6500   -5.0290    2.6773 H   0  0  0  0  0  0  0  0  0  0  0  0
   -5.0038   -1.3265    2.0475 H   0  0  0  0  0  0  0  0  0  0  0  0
   -4.7005    0.2320   -1.9882 H   0  0  0  0  0  0  0  0  0  0  0  0
   -6.8564   -2.7147    1.3727 H   0  0  0  0  0  0  0  0  0  0  0  0
   -6.6030   -1.2114   -2.6438 H   0  0  0  0  0  0  0  0  0  0  0  0
  1 34  1  0  0  0  0
  2 20  1  0  0  0  0
  2 23  1  0  0  0  0
  3 26  1  0  0  0  0
  3 29  1  0  0  0  0
  4 15  1  0  0  0  0
  4 21  1  0  0  0  0
  4 55  1  0  0  0  0
  5  6  1  0  0  0  0
  5 20  2  0  0  0  0
  6 23  2  0  0  0  0
  7 25  1  0  0  0  0
  7 28  2  0  0  0  0
  8  9  1  0  0  0  0
  8 10  1  0  0  0  0
  8 12  1  0  0  0  0
  8 35  1  0  0  0  0
  9 14  1  0  0  0  0
  9 15  1  0  0  0  0
  9 36  1  0  0  0  0
 10 11  1  0  0  0  0
 10 37  1  0  0  0  0
 10 38  1  0  0  0  0
 11 13  1  0  0  0  0
 11 16  1  0  0  0  0
 11 39  1  0  0  0  0
 12 17  1  0  0  0  0
 12 18  1  0  0  0  0
 12 40  1  0  0  0  0
 13 14  2  0  0  0  0
 13 19  1  0  0  0  0
 14 41  1  0  0  0  0
 15 42  1  0  0  0  0
 15 43  1  0  0  0  0
 16 20  1  0  0  0  0
 16 44  1  0  0  0  0
 16 45  1  0  0  0  0
 17 46  1  0  0  0  0
 17 47  1  0  0  0  0
 17 48  1  0  0  0  0
 18 49  1  0  0  0  0
 18 50  1  0  0  0  0
 18 51  1  0  0  0  0
 19 52  1  0  0  0  0
 19 53  1  0  0  0  0
 19 54  1  0  0  0  0
 21 22  1  0  0  0  0
 21 56  1  0  0  0  0
 21 57  1  0  0  0  0
 22 24  1  0  0  0  0
 22 25  2  0  0  0  0
 23 26  1  0  0  0  0
 24 27  2  0  0  0  0
 24 58  1  0  0  0  0
 25 59  1  0  0  0  0
 26 60  1  0  0  0  0
 26 61  1  0  0  0  0
 27 28  1  0  0  0  0
 27 62  1  0  0  0  0
 28 63  1  0  0  0  0
 29 30  2  0  0  0  0
 29 31  1  0  0  0  0
 30 32  1  0  0  0  0
 30 64  1  0  0  0  0
 31 33  2  0  0  0  0
 31 65  1  0  0  0  0
 32 34  2  0  0  0  0
 32 66  1  0  0  0  0
 33 34  1  0  0  0  0
 33 67  1  0  0  0  0
M  END
> <PUBCHEM_COMPOUND_CID>
45784038

> <PUBCHEM_CONFORMER_RMSD>
1.2

> <PUBCHEM_CONFORMER_DIVERSEORDER>
1
23
25
91
16
92
62
47
63
46
78
70
90
93
100
13
75
50
10
44
72
69
88
83
31
14
54
71
52
65
5
107
82
20
36
33
51
12
28
58
8
68
80
79
96
40
18
84
86
48
30
102
49
94
45
81
103
41
26
37
56
22
101
64
19
77
89
17
53
42
3
35
106
87
21
105
24
29
38
97
34
73
74
66
55
27
67
15
9
2
61
4
32
95
60
57
59
104
85
43
6
7
99
76
39
98
11

> <PUBCHEM_MMFF94_PARTIAL_CHARGES>
39
1 -0.19
11 0.14
13 -0.28
14 -0.29
15 0.27
16 0.18
19 0.14
2 -0.28
20 0.3
21 0.41
22 -0.14
23 0.3
24 -0.15
25 0.16
26 0.46
27 -0.15
28 0.16
29 0.08
3 -0.36
30 -0.15
31 -0.15
32 -0.15
33 -0.15
34 0.19
4 -0.9
41 0.15
5 -0.34
55 0.36
58 0.15
59 0.15
6 -0.34
62 0.15
63 0.15
64 0.15
65 0.15
66 0.15
67 0.15
7 -0.62
9 0.14

> <PUBCHEM_EFFECTIVE_ROTOR_COUNT>
10.8

> <PUBCHEM_PHARMACOPHORE_FEATURES>
9
1 3 acceptor
1 4 cation
1 4 donor
1 7 acceptor
3 12 17 18 hydrophobe
5 2 5 6 20 23 rings
6 29 30 31 32 33 34 rings
6 7 22 24 25 27 28 rings
6 8 9 10 11 13 14 rings

> <PUBCHEM_HEAVY_ATOM_COUNT>
34

> <PUBCHEM_ATOM_DEF_STEREO_COUNT>
3

> <PUBCHEM_ATOM_UDEF_STEREO_COUNT>
0

> <PUBCHEM_BOND_DEF_STEREO_COUNT>
0

> <PUBCHEM_BOND_UDEF_STEREO_COUNT>
0

> <PUBCHEM_ISOTOPIC_ATOM_COUNT>
0

> <PUBCHEM_COMPONENT_COUNT>
1

> <PUBCHEM_CACTVS_TAUTO_COUNT>
1

> <PUBCHEM_CONFORMER_ID>
02BA9BE600000001

> <PUBCHEM_MMFF94_ENERGY>
75.0663

> <PUBCHEM_FEATURE_SELFOVERLAP>
45.671

> <PUBCHEM_SHAPE_FINGERPRINT>
10622 236 18341339876997396155
10842051 180 18187940448288509842
11227150 75 18190165815866615178
12655364 74 10731591451307465866
12977781 61 18117532082310033900
131258 38 18059005219748934926
13383668 262 17906438176280667739
14028597 1 18202279247597375652
14068700 675 18340767031565737379
14295343 760 17531512214252231720
14340393 91 17387122079497630615
14674994 50 17393889453476182252
15419009 47 17898566476310861173
19315092 285 18412826880208261868
19319366 153 17985259935434149712
20775530 9 17463438035510745602
208703 8 17988374697045521798
21458453 9 15912750679593123938
25222932 49 17557428979098376607
437795 139 18337387150075558767
513532 50 17604140536165726840
59025328 239 17968389948419787124
6677587 24 17026019607493884924
6700243 42 15504380116986068121

> <PUBCHEM_SHAPE_MULTIPOLES>
660.77
15.76
5.87
3.17
26.61
4.22
-0.42
21.3
-1.24
-9.98
2.48
0.15
-2.17
-3.23

> <PUBCHEM_SHAPE_SELFOVERLAP>
1398.422

> <PUBCHEM_SHAPE_VOLUME>
371.9

> <PUBCHEM_COORDINATE_TYPE>
2
5
10

$$$$
