45361387
  -OEChem-12032416313D

 75 78  0     1  0  0  0  0  0999 V2000
    1.0380   -2.3420   -1.3743 O   0  0  0  0  0  0  0  0  0  0  0  0
    5.9117   -2.2299    0.8178 O   0  0  0  0  0  0  0  0  0  0  0  0
   -4.2823    1.9955   -1.2463 O   0  0  0  0  0  0  0  0  0  0  0  0
   -9.8516   -0.6276    0.2204 O   0  0  0  0  0  0  0  0  0  0  0  0
   -3.5470    0.1895    0.0081 N   0  0  0  0  0  0  0  0  0  0  0  0
    5.4055   -1.2101   -1.2030 N   0  0  0  0  0  0  0  0  0  0  0  0
    7.6208    0.7703    0.2981 N   0  0  0  0  0  0  0  0  0  0  0  0
    0.5903    0.4732    1.1653 C   0  0  1  0  0  0  0  0  0  0  0  0
    0.2564   -0.4446   -0.0574 C   0  0  2  0  0  0  0  0  0  0  0  0
   -1.2717   -0.8081   -0.0828 C   0  0  1  0  0  0  0  0  0  0  0  0
    1.2323   -1.6537   -0.1380 C   0  0  2  0  0  0  0  0  0  0  0  0
    2.0746    0.9036    1.0972 C   0  0  0  0  0  0  0  0  0  0  0  0
   -0.2746    1.7524    1.0866 C   0  0  0  0  0  0  0  0  0  0  0  0
    2.7172   -1.2228   -0.1007 C   0  0  1  0  0  0  0  0  0  0  0  0
   -2.1330    0.4862   -0.0859 C   0  0  2  0  0  0  0  0  0  0  0  0
    3.0349   -0.2778    1.0581 C   0  0  0  0  0  0  0  0  0  0  0  0
   -1.7677    1.4618    1.0326 C   0  0  0  0  0  0  0  0  0  0  0  0
    0.3379   -0.2306    2.5228 C   0  0  0  0  0  0  0  0  0  0  0  0
    3.6593   -2.4318   -0.0489 C   0  0  2  0  0  0  0  0  0  0  0  0
   -1.6759   -1.6873   -1.2783 C   0  0  0  0  0  0  0  0  0  0  0  0
    3.3689   -3.2709    1.1905 C   0  0  0  0  0  0  0  0  0  0  0  0
    5.1103   -1.9616   -0.0748 C   0  0  0  0  0  0  0  0  0  0  0  0
   -4.5112    0.9829   -0.5898 C   0  0  0  0  0  0  0  0  0  0  0  0
   -5.9189    0.5582   -0.3778 C   0  0  0  0  0  0  0  0  0  0  0  0
    6.7152   -0.6530   -1.4500 C   0  0  0  0  0  0  0  0  0  0  0  0
   -6.9453    1.5022   -0.4148 C   0  0  0  0  0  0  0  0  0  0  0  0
   -6.2142   -0.7842   -0.1400 C   0  0  0  0  0  0  0  0  0  0  0  0
    6.8750    0.7039   -0.8275 C   0  0  0  0  0  0  0  0  0  0  0  0
   -8.2667    1.1040   -0.2135 C   0  0  0  0  0  0  0  0  0  0  0  0
   -7.5357   -1.1825    0.0613 C   0  0  0  0  0  0  0  0  0  0  0  0
   -8.5619   -0.2384    0.0246 C   0  0  0  0  0  0  0  0  0  0  0  0
    6.2670    1.7985   -1.4208 C   0  0  0  0  0  0  0  0  0  0  0  0
    6.4354    3.0412   -0.8202 C   0  0  0  0  0  0  0  0  0  0  0  0
    7.7622    1.9947    0.8535 C   0  0  0  0  0  0  0  0  0  0  0  0
    7.1960    3.1497    0.3388 C   0  0  0  0  0  0  0  0  0  0  0  0
  -10.8512    0.3892    0.1690 C   0  0  0  0  0  0  0  0  0  0  0  0
    0.4307    0.1472   -0.9705 H   0  0  0  0  0  0  0  0  0  0  0  0
   -1.5133   -1.3872    0.8174 H   0  0  0  0  0  0  0  0  0  0  0  0
    0.9721   -2.3460    0.6643 H   0  0  0  0  0  0  0  0  0  0  0  0
    2.2410    1.5177    0.2017 H   0  0  0  0  0  0  0  0  0  0  0  0
    2.3252    1.5411    1.9549 H   0  0  0  0  0  0  0  0  0  0  0  0
   -0.0679    2.4044    1.9449 H   0  0  0  0  0  0  0  0  0  0  0  0
   -0.0014    2.3278    0.1919 H   0  0  0  0  0  0  0  0  0  0  0  0
    2.9008   -0.6677   -1.0303 H   0  0  0  0  0  0  0  0  0  0  0  0
   -1.9642    0.9998   -1.0426 H   0  0  0  0  0  0  0  0  0  0  0  0
    3.0031   -0.7755    2.0295 H   0  0  0  0  0  0  0  0  0  0  0  0
    4.0479    0.1299    0.9623 H   0  0  0  0  0  0  0  0  0  0  0  0
   -2.3063    2.4078    0.8911 H   0  0  0  0  0  0  0  0  0  0  0  0
   -2.1114    1.0747    1.9995 H   0  0  0  0  0  0  0  0  0  0  0  0
   -0.7117   -0.4943    2.6755 H   0  0  0  0  0  0  0  0  0  0  0  0
    0.6264    0.4227    3.3547 H   0  0  0  0  0  0  0  0  0  0  0  0
    0.9078   -1.1582    2.6262 H   0  0  0  0  0  0  0  0  0  0  0  0
    3.5142   -3.0616   -0.9361 H   0  0  0  0  0  0  0  0  0  0  0  0
   -1.3213   -1.2617   -2.2227 H   0  0  0  0  0  0  0  0  0  0  0  0
   -2.7622   -1.8011   -1.3535 H   0  0  0  0  0  0  0  0  0  0  0  0
   -1.2838   -2.7026   -1.1721 H   0  0  0  0  0  0  0  0  0  0  0  0
   -3.8162   -0.5654    0.6302 H   0  0  0  0  0  0  0  0  0  0  0  0
    1.2122   -1.7175   -2.0990 H   0  0  0  0  0  0  0  0  0  0  0  0
    2.3737   -3.7206    1.1819 H   0  0  0  0  0  0  0  0  0  0  0  0
    4.0681   -4.1169    1.2218 H   0  0  0  0  0  0  0  0  0  0  0  0
    3.5133   -2.7413    2.1350 H   0  0  0  0  0  0  0  0  0  0  0  0
    4.7016   -1.0776   -1.9220 H   0  0  0  0  0  0  0  0  0  0  0  0
    7.4751   -1.3390   -1.0582 H   0  0  0  0  0  0  0  0  0  0  0  0
    6.8564   -0.5926   -2.5348 H   0  0  0  0  0  0  0  0  0  0  0  0
   -6.7338    2.5532   -0.5940 H   0  0  0  0  0  0  0  0  0  0  0  0
   -5.4492   -1.5550   -0.1338 H   0  0  0  0  0  0  0  0  0  0  0  0
   -9.0144    1.8887   -0.2541 H   0  0  0  0  0  0  0  0  0  0  0  0
   -7.7609   -2.2305    0.2396 H   0  0  0  0  0  0  0  0  0  0  0  0
    5.6751    1.7030   -2.3248 H   0  0  0  0  0  0  0  0  0  0  0  0
    5.9746    3.9234   -1.2543 H   0  0  0  0  0  0  0  0  0  0  0  0
    8.3640    2.0255    1.7558 H   0  0  0  0  0  0  0  0  0  0  0  0
    7.3405    4.1081    0.8241 H   0  0  0  0  0  0  0  0  0  0  0  0
  -10.7152    1.1279    0.9663 H   0  0  0  0  0  0  0  0  0  0  0  0
  -10.9032    0.8527   -0.8220 H   0  0  0  0  0  0  0  0  0  0  0  0
  -11.8163   -0.0971    0.3454 H   0  0  0  0  0  0  0  0  0  0  0  0
  1 11  1  0  0  0  0
  1 58  1  0  0  0  0
  2 22  2  0  0  0  0
  3 23  2  0  0  0  0
  4 31  1  0  0  0  0
  4 36  1  0  0  0  0
  5 15  1  0  0  0  0
  5 23  1  0  0  0  0
  5 57  1  0  0  0  0
  6 22  1  0  0  0  0
  6 25  1  0  0  0  0
  6 62  1  0  0  0  0
  7 28  1  0  0  0  0
  7 34  2  0  0  0  0
  8  9  1  0  0  0  0
  8 12  1  0  0  0  0
  8 13  1  0  0  0  0
  8 18  1  0  0  0  0
  9 10  1  0  0  0  0
  9 11  1  0  0  0  0
  9 37  1  0  0  0  0
 10 15  1  0  0  0  0
 10 20  1  0  0  0  0
 10 38  1  0  0  0  0
 11 14  1  0  0  0  0
 11 39  1  0  0  0  0
 12 16  1  0  0  0  0
 12 40  1  0  0  0  0
 12 41  1  0  0  0  0
 13 17  1  0  0  0  0
 13 42  1  0  0  0  0
 13 43  1  0  0  0  0
 14 16  1  0  0  0  0
 14 19  1  0  0  0  0
 14 44  1  0  0  0  0
 15 17  1  0  0  0  0
 15 45  1  0  0  0  0
 16 46  1  0  0  0  0
 16 47  1  0  0  0  0
 17 48  1  0  0  0  0
 17 49  1  0  0  0  0
 18 50  1  0  0  0  0
 18 51  1  0  0  0  0
 18 52  1  0  0  0  0
 19 21  1  0  0  0  0
 19 22  1  0  0  0  0
 19 53  1  0  0  0  0
 20 54  1  0  0  0  0
 20 55  1  0  0  0  0
 20 56  1  0  0  0  0
 21 59  1  0  0  0  0
 21 60  1  0  0  0  0
 21 61  1  0  0  0  0
 23 24  1  0  0  0  0
 24 26  2  0  0  0  0
 24 27  1  0  0  0  0
 25 28  1  0  0  0  0
 25 63  1  0  0  0  0
 25 64  1  0  0  0  0
 26 29  1  0  0  0  0
 26 65  1  0  0  0  0
 27 30  2  0  0  0  0
 27 66  1  0  0  0  0
 28 32  2  0  0  0  0
 29 31  2  0  0  0  0
 29 67  1  0  0  0  0
 30 31  1  0  0  0  0
 30 68  1  0  0  0  0
 32 33  1  0  0  0  0
 32 69  1  0  0  0  0
 33 35  2  0  0  0  0
 33 70  1  0  0  0  0
 34 35  1  0  0  0  0
 34 71  1  0  0  0  0
 35 72  1  0  0  0  0
 36 73  1  0  0  0  0
 36 74  1  0  0  0  0
 36 75  1  0  0  0  0
M  END
> <PUBCHEM_COMPOUND_CID>
45361387

> <PUBCHEM_CONFORMER_RMSD>
1.2

> <PUBCHEM_CONFORMER_DIVERSEORDER>
1
11
71
39
101
62
34
105
94
26
84
37
70
49
91
40
108
43
107
89
115
69
58
66
77
109
83
56
114
116
102
27
21
31
9
78
76
88
67
35
80
79
2
68
52
75
85
63
93
96
92
81
53
16
25
46
28
41
104
17
95
51
117
103
59
87
3
82
42
23
73
19
38
57
33
36
32
24
86
100
55
50
6
60
106
72
29
5
65
112
90
45
64
7
44
61
20
110
98
74
111
12
47
113
10
97
13
15
14
8
30
48
22
54
4
18
99

> <PUBCHEM_MMFF94_PARTIAL_CHARGES>
36
1 -0.68
11 0.28
15 0.3
19 0.06
2 -0.57
22 0.57
23 0.54
24 0.09
25 0.44
26 -0.15
27 -0.15
28 0.17
29 -0.15
3 -0.57
30 -0.15
31 0.08
32 -0.15
33 -0.15
34 0.16
35 -0.15
36 0.28
4 -0.36
5 -0.73
57 0.37
58 0.4
6 -0.73
62 0.37
65 0.15
66 0.15
67 0.15
68 0.15
69 0.15
7 -0.62
70 0.15
71 0.15
72 0.15

> <PUBCHEM_EFFECTIVE_ROTOR_COUNT>
10.6

> <PUBCHEM_PHARMACOPHORE_FEATURES>
13
1 1 acceptor
1 1 donor
1 2 acceptor
1 21 hydrophobe
1 3 acceptor
1 4 acceptor
1 5 donor
1 6 donor
1 7 acceptor
6 24 26 27 29 30 31 rings
6 7 28 32 33 34 35 rings
6 8 9 10 13 15 17 rings
6 8 9 11 12 14 16 rings

> <PUBCHEM_HEAVY_ATOM_COUNT>
36

> <PUBCHEM_ATOM_DEF_STEREO_COUNT>
6

> <PUBCHEM_ATOM_UDEF_STEREO_COUNT>
1

> <PUBCHEM_BOND_DEF_STEREO_COUNT>
0

> <PUBCHEM_BOND_UDEF_STEREO_COUNT>
0

> <PUBCHEM_ISOTOPIC_ATOM_COUNT>
0

> <PUBCHEM_COMPONENT_COUNT>
1

> <PUBCHEM_CACTVS_TAUTO_COUNT>
4

> <PUBCHEM_CONFORMER_ID>
02B428EB00000001

> <PUBCHEM_MMFF94_ENERGY>
113.8196

> <PUBCHEM_FEATURE_SELFOVERLAP>
65.988

> <PUBCHEM_SHAPE_FINGERPRINT>
10391435 84 17603872234703227955
10533779 47 10663824113555763093
10673678 19 18412267233775833326
10677351 14 18341323449886705861
11007060 377 18334021579442999681
11211813 74 18411981372957492180
11409948 35 11311790444429508733
13165053 68 18117565247989296151
13617811 41 18342454859741594176
13947947 19 17775278396502004359
13947947 74 18408608045882372179
14142895 15 18335422404169162293
15301273 46 12967128306785186561
15347591 1 18191581948372509473
15361156 5 18412823612724807647
15840311 113 18408889529776032718
16120349 18 18335137600619151404
16992787 43 18202284735900980920
17686467 74 18040720269293035701
20105231 36 17418095391051242599
20554085 129 16298104294024226984
21049683 271 18343301470414278233
21150785 3 18261114062858654501
21267235 1 17917429783548190331
21591340 7 11891336474216541369
21781055 127 15410631289405538251
22149856 69 17417535692008151978
23522609 53 17773620263646929208
23569914 2 17027358658370737284
24893992 56 18334857226130073034
3178227 256 17917988348577794907
34797466 226 18131356285071194862
3552219 110 17917438609833182561
4073 2 18260550043817813691
4098825 35 18334856078735676765
4149490 64 18186799167465977722
439807 62 18334857165832005155
45270241 37 18410017602514762590
4625314 4 18337111168024975023
474113 269 8862673408010730260
5265222 85 18412825807047284231
6201320 215 13046204067571921471

> <PUBCHEM_SHAPE_MULTIPOLES>
702.44
30.29
2.98
1.38
49.07
0.15
0.31
-11.43
-4.6
-6.77
-0.05
-1.52
0.02
-0.13

> <PUBCHEM_SHAPE_SELFOVERLAP>
1485.633

> <PUBCHEM_SHAPE_VOLUME>
389.1

> <PUBCHEM_COORDINATE_TYPE>
2
5
10

$$$$
