11884453
  -OEChem-12032416363D

 62 66  0     1  0  0  0  0  0999 V2000
    2.9442    0.1507   -1.8198 S   0  0  0  0  0  0  0  0  0  0  0  0
    8.3603   -2.0933    0.7196 F   0  0  0  0  0  0  0  0  0  0  0  0
    6.4217   -2.3996    1.6428 F   0  0  0  0  0  0  0  0  0  0  0  0
    6.8874   -3.3672   -0.2482 F   0  0  0  0  0  0  0  0  0  0  0  0
    2.8136    1.0320   -2.9607 O   0  0  0  0  0  0  0  0  0  0  0  0
    2.4614   -1.2131   -1.8733 O   0  0  0  0  0  0  0  0  0  0  0  0
   -2.4427    2.4571   -0.1471 O   0  0  0  0  0  0  0  0  0  0  0  0
   -3.9419   -2.1006    0.5473 O   0  0  0  0  0  0  0  0  0  0  0  0
   -9.9168   -0.8243   -0.9574 O   0  0  0  0  0  0  0  0  0  0  0  0
    2.2875    0.9204   -0.4395 N   0  0  2  0  0  0  0  0  0  0  0  0
   -0.4815    1.6987    0.8720 N   0  0  0  0  0  0  0  0  0  0  0  0
   -3.8664    0.2239    0.5869 N   0  0  0  0  0  0  0  0  0  0  0  0
    1.7163    3.0111    0.7999 C   0  0  1  0  0  0  0  0  0  0  0  0
    1.6268    0.8462    1.9567 C   0  0  2  0  0  0  0  0  0  0  0  0
    2.0116    2.3139    2.1214 C   0  0  0  0  0  0  0  0  0  0  0  0
    2.5413    2.3859   -0.3368 C   0  0  0  0  0  0  0  0  0  0  0  0
    2.4933    0.2069    0.8564 C   0  0  0  0  0  0  0  0  0  0  0  0
    0.2077    2.9502    0.5304 C   0  0  0  0  0  0  0  0  0  0  0  0
    0.1542    0.7027    1.6202 C   0  0  0  0  0  0  0  0  0  0  0  0
   -0.5296   -0.3832    2.0186 C   0  0  0  0  0  0  0  0  0  0  0  0
   -1.8367    1.5995    0.4971 C   0  0  0  0  0  0  0  0  0  0  0  0
   -2.5565    0.3635    0.9404 C   0  0  0  0  0  0  0  0  0  0  0  0
   -1.9118   -0.5539    1.6688 C   0  0  0  0  0  0  0  0  0  0  0  0
    4.6500    0.1051   -1.3665 C   0  0  0  0  0  0  0  0  0  0  0  0
    5.1379   -0.9891   -0.6714 C   0  0  0  0  0  0  0  0  0  0  0  0
    5.4717    1.1647   -1.7136 C   0  0  0  0  0  0  0  0  0  0  0  0
    6.4855   -1.0246   -0.3132 C   0  0  0  0  0  0  0  0  0  0  0  0
    6.8193    1.1293   -1.3555 C   0  0  0  0  0  0  0  0  0  0  0  0
    7.3262    0.0346   -0.6553 C   0  0  0  0  0  0  0  0  0  0  0  0
   -4.4842   -1.0067    0.4105 C   0  0  0  0  0  0  0  0  0  0  0  0
    7.0278   -2.1945    0.4360 C   0  0  0  0  0  0  0  0  0  0  0  0
   -5.9245   -0.9584    0.0477 C   0  0  0  0  0  0  0  0  0  0  0  0
   -6.7336   -2.0211    0.3916 C   0  0  0  0  0  0  0  0  0  0  0  0
   -6.4057    0.1476   -0.6212 C   0  0  0  0  0  0  0  0  0  0  0  0
   -8.0855   -1.9758    0.0510 C   0  0  0  0  0  0  0  0  0  0  0  0
   -7.7576    0.1930   -0.9617 C   0  0  0  0  0  0  0  0  0  0  0  0
   -8.5975   -0.8688   -0.6256 C   0  0  0  0  0  0  0  0  0  0  0  0
  -10.3736    0.3372   -1.6486 C   0  0  0  0  0  0  0  0  0  0  0  0
    2.0068    4.0667    0.8727 H   0  0  0  0  0  0  0  0  0  0  0  0
    1.8388    0.3320    2.9035 H   0  0  0  0  0  0  0  0  0  0  0  0
    3.0744    2.4072    2.3759 H   0  0  0  0  0  0  0  0  0  0  0  0
    1.4440    2.7767    2.9384 H   0  0  0  0  0  0  0  0  0  0  0  0
    2.2775    2.8788   -1.2785 H   0  0  0  0  0  0  0  0  0  0  0  0
    3.6036    2.5661   -0.1409 H   0  0  0  0  0  0  0  0  0  0  0  0
    2.2270   -0.8503    0.7470 H   0  0  0  0  0  0  0  0  0  0  0  0
    3.5422    0.2717    1.1634 H   0  0  0  0  0  0  0  0  0  0  0  0
   -0.0072    3.1928   -0.5179 H   0  0  0  0  0  0  0  0  0  0  0  0
   -0.2857    3.7301    1.1266 H   0  0  0  0  0  0  0  0  0  0  0  0
   -0.0573   -1.1713    2.5958 H   0  0  0  0  0  0  0  0  0  0  0  0
   -2.3756   -1.4431    2.0779 H   0  0  0  0  0  0  0  0  0  0  0  0
    4.4926   -1.8191   -0.3980 H   0  0  0  0  0  0  0  0  0  0  0  0
    5.0967    2.0273   -2.2557 H   0  0  0  0  0  0  0  0  0  0  0  0
   -4.3325    1.0820    0.3134 H   0  0  0  0  0  0  0  0  0  0  0  0
    7.4736    1.9545   -1.6210 H   0  0  0  0  0  0  0  0  0  0  0  0
    8.3785    0.0255   -0.3850 H   0  0  0  0  0  0  0  0  0  0  0  0
   -6.3521   -2.8877    0.9232 H   0  0  0  0  0  0  0  0  0  0  0  0
   -5.7857    0.9767   -0.9433 H   0  0  0  0  0  0  0  0  0  0  0  0
   -8.7353   -2.8053    0.3166 H   0  0  0  0  0  0  0  0  0  0  0  0
   -8.0877    1.0778   -1.4953 H   0  0  0  0  0  0  0  0  0  0  0  0
  -11.4452    0.2045   -1.8307 H   0  0  0  0  0  0  0  0  0  0  0  0
  -10.2629    1.2392   -1.0371 H   0  0  0  0  0  0  0  0  0  0  0  0
   -9.8931    0.4378   -2.6277 H   0  0  0  0  0  0  0  0  0  0  0  0
  1  5  2  0  0  0  0
  1  6  2  0  0  0  0
  1 10  1  0  0  0  0
  1 24  1  0  0  0  0
  2 31  1  0  0  0  0
  3 31  1  0  0  0  0
  4 31  1  0  0  0  0
  7 21  2  0  0  0  0
  8 30  2  0  0  0  0
  9 37  1  0  0  0  0
  9 38  1  0  0  0  0
 10 16  1  0  0  0  0
 10 17  1  0  0  0  0
 11 18  1  0  0  0  0
 11 19  1  0  0  0  0
 11 21  1  0  0  0  0
 12 22  1  0  0  0  0
 12 30  1  0  0  0  0
 12 53  1  0  0  0  0
 13 15  1  0  0  0  0
 13 16  1  0  0  0  0
 13 18  1  0  0  0  0
 13 39  1  0  0  0  0
 14 15  1  0  0  0  0
 14 17  1  0  0  0  0
 14 19  1  0  0  0  0
 14 40  1  0  0  0  0
 15 41  1  0  0  0  0
 15 42  1  0  0  0  0
 16 43  1  0  0  0  0
 16 44  1  0  0  0  0
 17 45  1  0  0  0  0
 17 46  1  0  0  0  0
 18 47  1  0  0  0  0
 18 48  1  0  0  0  0
 19 20  2  0  0  0  0
 20 23  1  0  0  0  0
 20 49  1  0  0  0  0
 21 22  1  0  0  0  0
 22 23  2  0  0  0  0
 23 50  1  0  0  0  0
 24 25  1  0  0  0  0
 24 26  2  0  0  0  0
 25 27  2  0  0  0  0
 25 51  1  0  0  0  0
 26 28  1  0  0  0  0
 26 52  1  0  0  0  0
 27 29  1  0  0  0  0
 27 31  1  0  0  0  0
 28 29  2  0  0  0  0
 28 54  1  0  0  0  0
 29 55  1  0  0  0  0
 30 32  1  0  0  0  0
 32 33  2  0  0  0  0
 32 34  1  0  0  0  0
 33 35  1  0  0  0  0
 33 56  1  0  0  0  0
 34 36  2  0  0  0  0
 34 57  1  0  0  0  0
 35 37  2  0  0  0  0
 35 58  1  0  0  0  0
 36 37  1  0  0  0  0
 36 59  1  0  0  0  0
 38 60  1  0  0  0  0
 38 61  1  0  0  0  0
 38 62  1  0  0  0  0
M  END
> <PUBCHEM_COMPOUND_CID>
11884453

> <PUBCHEM_CONFORMER_RMSD>
1

> <PUBCHEM_CONFORMER_DIVERSEORDER>
1
26
19
7
4
20
30
10
25
9
23
29
18
12
16
31
5
22
24
21
3
28
2
17
11
13
15
6
27
8
14

> <PUBCHEM_MMFF94_PARTIAL_CHARGES>
47
1 1.45
10 -0.85
11 -0.47
12 -0.54
14 0.14
16 0.36
17 0.36
18 0.3
19 -0.03
2 -0.34
20 -0.15
21 0.62
22 0.12
23 -0.15
24 -0.01
25 -0.15
26 -0.15
27 -0.14
28 -0.15
29 -0.15
3 -0.34
30 0.54
31 1.16
32 0.09
33 -0.15
34 -0.15
35 -0.15
36 -0.15
37 0.08
38 0.28
4 -0.34
49 0.15
5 -0.65
50 0.15
51 0.15
52 0.15
53 0.37
54 0.15
55 0.15
56 0.15
57 0.15
58 0.15
59 0.15
6 -0.65
7 -0.57
8 -0.57
9 -0.36

> <PUBCHEM_EFFECTIVE_ROTOR_COUNT>
8

> <PUBCHEM_PHARMACOPHORE_FEATURES>
11
1 12 donor
1 5 acceptor
1 6 acceptor
1 7 acceptor
1 8 acceptor
1 9 acceptor
6 10 13 14 15 16 17 rings
6 11 13 14 15 18 19 rings
6 11 19 20 21 22 23 rings
6 24 25 26 27 28 29 rings
6 32 33 34 35 36 37 rings

> <PUBCHEM_HEAVY_ATOM_COUNT>
38

> <PUBCHEM_ATOM_DEF_STEREO_COUNT>
2

> <PUBCHEM_ATOM_UDEF_STEREO_COUNT>
0

> <PUBCHEM_BOND_DEF_STEREO_COUNT>
0

> <PUBCHEM_BOND_UDEF_STEREO_COUNT>
0

> <PUBCHEM_ISOTOPIC_ATOM_COUNT>
0

> <PUBCHEM_COMPONENT_COUNT>
1

> <PUBCHEM_CACTVS_TAUTO_COUNT>
2

> <PUBCHEM_CONFORMER_ID>
00B557A500000001

> <PUBCHEM_MMFF94_ENERGY>
102.802

> <PUBCHEM_FEATURE_SELFOVERLAP>
57.426

> <PUBCHEM_SHAPE_FINGERPRINT>
10 15 9943807790155738955
10165383 225 10665229250449734808
10483366 6 18334857212686112667
106641 1 12463570686278739159
10670039 82 17603583015895305261
11115154 58 17822010908636242149
11146851 88 17775573069528425071
11297750 10 18343575240019648360
11720765 8 18261397801400195004
11828532 37 18190189064882777323
12013929 112 17458058232553933103
12098696 120 15719389551457647933
12202916 173 18343304764274463974
12522641 33 18056477481863051408
12758862 65 17703793635137628930
13008946 282 16271636914286463785
13782708 43 18202288017282082977
13811026 1 18343022168468992382
14068700 675 17917718997713513000
14114211 68 11818989661112175784
14747281 78 12685101380561073790
15183329 4 18409450298186792993
15350500 16 18342453725516214802
18603816 31 17418083357127697295
19304671 126 14707501325635950494
20105231 36 18261679273046964819
21033648 29 12108078858971920780
21315764 119 17603873341934254419
21344244 78 15626231225254772648
21585481 104 17167863058438518565
22149856 69 16772972319399241554
23559900 14 18261678193780902657
23576562 1 16951414411340378559
3383291 50 16773801415844822055
3633792 109 17313104146205016531
397830 11 10879729662740553145
3986486 107 15068343376492605542
4066623 53 18334860540822407412
4093350 32 14779535794789182760
4098825 35 17749385940854224247
4149490 64 16844718876649200167
439807 62 18409451388280259237
474113 269 18335981970416783010
504579 68 17749388179144270873
5718773 13 18341333314561570458
6081469 158 18260828198646985405
6126387 218 15339123408406080739
6438161 24 18273210906862106235
6697151 62 17774995839062049441
9689198 14 9511454537910461106
9962374 69 17131541843362246813

> <PUBCHEM_SHAPE_MULTIPOLES>
719.76
28.57
2.87
2.02
45.14
0.25
0.28
-20.17
12.44
-3.64
-0.88
-1.56
0.36
-0.61

> <PUBCHEM_SHAPE_SELFOVERLAP>
1568.796

> <PUBCHEM_SHAPE_VOLUME>
395.4

> <PUBCHEM_COORDINATE_TYPE>
2
5
10

$$$$
