38030151
  -OEChem-12032416363D

 55 56  0     1  0  0  0  0  0999 V2000
   -5.0975    1.8099   -1.4990 O   0  0  0  0  0  0  0  0  0  0  0  0
    1.2056   -0.9949    1.7567 O   0  0  0  0  0  0  0  0  0  0  0  0
    2.5805   -0.4805   -0.0439 N   0  0  0  0  0  0  0  0  0  0  0  0
   -2.5599   -0.7051   -0.3118 C   0  0  2  0  0  0  0  0  0  0  0  0
   -1.6821   -0.7409    0.9485 C   0  0  0  0  0  0  0  0  0  0  0  0
   -0.8610    0.5506    1.1235 C   0  0  2  0  0  0  0  0  0  0  0  0
   -3.5382    0.4947   -0.2554 C   0  0  1  0  0  0  0  0  0  0  0  0
   -3.3015   -2.0368   -0.4654 C   0  0  0  0  0  0  0  0  0  0  0  0
   -1.7109    1.7893    0.9257 C   0  0  0  0  0  0  0  0  0  0  0  0
    0.3538    0.5636    0.1888 C   0  0  0  0  0  0  0  0  0  0  0  0
   -2.9104    1.7429    0.3195 C   0  0  0  0  0  0  0  0  0  0  0  0
   -4.1139    0.8048   -1.6418 C   0  0  0  0  0  0  0  0  0  0  0  0
    1.4120   -0.3757    0.7097 C   0  0  0  0  0  0  0  0  0  0  0  0
    5.3287    0.0736   -0.7887 C   0  0  0  0  0  0  0  0  0  0  0  0
   -2.3918   -3.0818   -1.1037 C   0  0  0  0  0  0  0  0  0  0  0  0
   -3.8137   -2.5195    0.8877 C   0  0  0  0  0  0  0  0  0  0  0  0
    2.8547    0.2420   -1.2915 C   0  0  0  0  0  0  0  0  0  0  0  0
    3.6382   -1.4015    0.3751 C   0  0  0  0  0  0  0  0  0  0  0  0
    4.1759    1.0034   -1.1973 C   0  0  0  0  0  0  0  0  0  0  0  0
    4.9743   -0.6740    0.5057 C   0  0  0  0  0  0  0  0  0  0  0  0
   -1.1704    3.0771    1.4822 C   0  0  0  0  0  0  0  0  0  0  0  0
    6.6278    0.8586   -0.6247 C   0  0  0  0  0  0  0  0  0  0  0  0
   -1.9166   -0.5653   -1.1904 H   0  0  0  0  0  0  0  0  0  0  0  0
   -1.0285   -1.6179    0.9416 H   0  0  0  0  0  0  0  0  0  0  0  0
   -2.3032   -0.8200    1.8503 H   0  0  0  0  0  0  0  0  0  0  0  0
   -0.5242    0.5725    2.1697 H   0  0  0  0  0  0  0  0  0  0  0  0
   -4.3786    0.2603    0.4114 H   0  0  0  0  0  0  0  0  0  0  0  0
   -4.1636   -1.9203   -1.1299 H   0  0  0  0  0  0  0  0  0  0  0  0
    0.8015    1.5629    0.1566 H   0  0  0  0  0  0  0  0  0  0  0  0
    0.0785    0.2779   -0.8307 H   0  0  0  0  0  0  0  0  0  0  0  0
   -3.4914    2.6605    0.2572 H   0  0  0  0  0  0  0  0  0  0  0  0
   -4.5922   -0.0671   -2.0946 H   0  0  0  0  0  0  0  0  0  0  0  0
   -3.3368    1.1676   -2.3241 H   0  0  0  0  0  0  0  0  0  0  0  0
    5.4775   -0.6659   -1.5870 H   0  0  0  0  0  0  0  0  0  0  0  0
   -2.9335   -4.0232   -1.2475 H   0  0  0  0  0  0  0  0  0  0  0  0
   -2.0441   -2.7497   -2.0878 H   0  0  0  0  0  0  0  0  0  0  0  0
   -1.5127   -3.2998   -0.4895 H   0  0  0  0  0  0  0  0  0  0  0  0
   -4.3882   -1.7551    1.4193 H   0  0  0  0  0  0  0  0  0  0  0  0
   -4.4945   -3.3659    0.7333 H   0  0  0  0  0  0  0  0  0  0  0  0
   -3.0184   -2.8939    1.5408 H   0  0  0  0  0  0  0  0  0  0  0  0
    2.0570    0.9402   -1.5496 H   0  0  0  0  0  0  0  0  0  0  0  0
    2.9016   -0.5045   -2.0933 H   0  0  0  0  0  0  0  0  0  0  0  0
    3.7036   -2.1916   -0.3824 H   0  0  0  0  0  0  0  0  0  0  0  0
    3.3846   -1.8807    1.3260 H   0  0  0  0  0  0  0  0  0  0  0  0
    4.3961    1.4743   -2.1624 H   0  0  0  0  0  0  0  0  0  0  0  0
    4.0739    1.8100   -0.4597 H   0  0  0  0  0  0  0  0  0  0  0  0
    4.9164    0.0385    1.3387 H   0  0  0  0  0  0  0  0  0  0  0  0
    5.7616   -1.3959    0.7523 H   0  0  0  0  0  0  0  0  0  0  0  0
   -0.9395    2.9641    2.5465 H   0  0  0  0  0  0  0  0  0  0  0  0
   -1.8890    3.8987    1.3899 H   0  0  0  0  0  0  0  0  0  0  0  0
   -0.2594    3.3802    0.9584 H   0  0  0  0  0  0  0  0  0  0  0  0
    6.5400    1.6157    0.1620 H   0  0  0  0  0  0  0  0  0  0  0  0
    6.8933    1.3683   -1.5568 H   0  0  0  0  0  0  0  0  0  0  0  0
    7.4541    0.1903   -0.3607 H   0  0  0  0  0  0  0  0  0  0  0  0
   -5.4450    2.0011   -2.3867 H   0  0  0  0  0  0  0  0  0  0  0  0
  1 12  1  0  0  0  0
  1 55  1  0  0  0  0
  2 13  2  0  0  0  0
  3 13  1  0  0  0  0
  3 17  1  0  0  0  0
  3 18  1  0  0  0  0
  4  5  1  0  0  0  0
  4  7  1  0  0  0  0
  4  8  1  0  0  0  0
  4 23  1  0  0  0  0
  5  6  1  0  0  0  0
  5 24  1  0  0  0  0
  5 25  1  0  0  0  0
  6  9  1  0  0  0  0
  6 10  1  0  0  0  0
  6 26  1  0  0  0  0
  7 11  1  0  0  0  0
  7 12  1  0  0  0  0
  7 27  1  0  0  0  0
  8 15  1  0  0  0  0
  8 16  1  0  0  0  0
  8 28  1  0  0  0  0
  9 11  2  0  0  0  0
  9 21  1  0  0  0  0
 10 13  1  0  0  0  0
 10 29  1  0  0  0  0
 10 30  1  0  0  0  0
 11 31  1  0  0  0  0
 12 32  1  0  0  0  0
 12 33  1  0  0  0  0
 14 19  1  0  0  0  0
 14 20  1  0  0  0  0
 14 22  1  0  0  0  0
 14 34  1  0  0  0  0
 15 35  1  0  0  0  0
 15 36  1  0  0  0  0
 15 37  1  0  0  0  0
 16 38  1  0  0  0  0
 16 39  1  0  0  0  0
 16 40  1  0  0  0  0
 17 19  1  0  0  0  0
 17 41  1  0  0  0  0
 17 42  1  0  0  0  0
 18 20  1  0  0  0  0
 18 43  1  0  0  0  0
 18 44  1  0  0  0  0
 19 45  1  0  0  0  0
 19 46  1  0  0  0  0
 20 47  1  0  0  0  0
 20 48  1  0  0  0  0
 21 49  1  0  0  0  0
 21 50  1  0  0  0  0
 21 51  1  0  0  0  0
 22 52  1  0  0  0  0
 22 53  1  0  0  0  0
 22 54  1  0  0  0  0
M  END
> <PUBCHEM_COMPOUND_CID>
38030151

> <PUBCHEM_CONFORMER_RMSD>
0.8

> <PUBCHEM_CONFORMER_DIVERSEORDER>
1
17
82
61
31
102
91
66
78
19
83
48
111
60
25
49
101
64
119
70
116
35
44
59
92
89
97
77
26
14
51
67
37
79
94
84
41
75
80
63
4
105
34
53
3
118
109
90
106
115
103
74
39
87
112
98
18
32
43
58
12
50
11
38
110
23
69
46
10
56
65
86
24
85
81
93
104
114
40
57
124
15
125
20
30
8
121
54
29
73
120
107
88
27
108
62
72
47
21
117
71
99
13
52
113
55
33
22
122
7
96
5
123
45
2
95
6
76
100
36
68
9
16
28
42

> <PUBCHEM_MMFF94_PARTIAL_CHARGES>
15
1 -0.68
10 0.06
11 -0.29
12 0.28
13 0.57
17 0.3
18 0.3
2 -0.57
21 0.14
3 -0.66
31 0.15
55 0.4
6 0.14
7 0.14
9 -0.28

> <PUBCHEM_EFFECTIVE_ROTOR_COUNT>
7

> <PUBCHEM_PHARMACOPHORE_FEATURES>
6
1 1 acceptor
1 1 donor
1 2 acceptor
3 8 15 16 hydrophobe
6 3 14 17 18 19 20 rings
6 4 5 6 7 9 11 rings

> <PUBCHEM_HEAVY_ATOM_COUNT>
22

> <PUBCHEM_ATOM_DEF_STEREO_COUNT>
3

> <PUBCHEM_ATOM_UDEF_STEREO_COUNT>
0

> <PUBCHEM_BOND_DEF_STEREO_COUNT>
0

> <PUBCHEM_BOND_UDEF_STEREO_COUNT>
0

> <PUBCHEM_ISOTOPIC_ATOM_COUNT>
0

> <PUBCHEM_COMPONENT_COUNT>
1

> <PUBCHEM_CACTVS_TAUTO_COUNT>
1

> <PUBCHEM_CONFORMER_ID>
02444B4700000001

> <PUBCHEM_MMFF94_ENERGY>
43.6906

> <PUBCHEM_FEATURE_SELFOVERLAP>
30.446

> <PUBCHEM_SHAPE_FINGERPRINT>
10014705 185 17894632534795169764
10076449 9 18336550521239322651
10366900 7 17418086594599016698
10906281 52 17987809509973372689
11315181 36 18410298012856275052
121448 382 17603873346450794386
12236239 1 18186800262259988298
12553582 1 18200310056125572931
12596599 1 18261971656074204998
12714826 92 17632583750983131186
12788726 201 17986665983494335001
12895836 83 17968648329647647093
12895837 130 17458069261133098957
13583140 156 17560793296054393586
13631057 29 18337955713398794314
14251757 5 18339081625995658830
14251758 9 11602804810435494672
14790565 3 18055080865561305897
15163728 17 17901943042286682157
15463212 79 18114173125404383451
16752209 62 18127677250286949729
17959699 21 17894910707026659924
18927931 339 18130801057094347134
19784866 240 14476952411418904053
19862831 5 18260266339214343256
200 152 18261678164021768058
20300324 65 18411426119938354248
20511986 3 18187069651446569800
20645476 183 18041551452422074179
20871999 31 18409442618331794807
21709351 56 18186808010834534972
22182313 1 18126828612004456633
22393880 68 18334855047932612492
23402539 116 17894911849988646388
23402655 69 18186519882700222860
23557571 272 17560527205402760528
23559900 14 18272361005917464736
238078 22 18271528683914606627
268830 7 16370718232323881644
2838139 119 16735216116783409525
300161 21 18186518796263465836
329604 57 18264776630406282318
4921388 177 18059871540184580959
53917941 68 17749105603811751506
59755656 520 15719393932044643937
633830 44 16950003621446134850
70251023 43 17979346792513426075
7237137 82 18409730698519690647
9709674 26 17916310437482100630

> <PUBCHEM_SHAPE_MULTIPOLES>
436.03
12.23
2.77
1.51
16.41
0.25
0.13
-0.13
4.93
-4.06
-0.39
-0.63
-0.28
-0.3

> <PUBCHEM_SHAPE_SELFOVERLAP>
876.593

> <PUBCHEM_SHAPE_VOLUME>
254.9

> <PUBCHEM_COORDINATE_TYPE>
2
5
10

$$$$
