28991027
  -OEChem-12032416173D

 51 53  0     1  0  0  0  0  0999 V2000
    5.6295    2.1228   -0.2174 O   0  0  0  0  0  0  0  0  0  0  0  0
   -4.7261   -0.7018    0.3778 O   0  0  0  0  0  0  0  0  0  0  0  0
   -6.0866    1.4793   -0.4217 O   0  0  0  0  0  0  0  0  0  0  0  0
   -0.4952   -2.4550    0.4226 N   0  0  2  0  0  0  0  0  0  0  0  0
    3.2447    0.6282    0.2072 N   0  0  0  0  0  0  0  0  0  0  0  0
   -2.7895    0.5308    0.7429 N   0  0  0  0  0  0  0  0  0  0  0  0
    1.0386   -0.9254   -1.0178 C   0  0  2  0  0  0  0  0  0  0  0  0
    1.7335   -1.3124    0.3076 C   0  0  2  0  0  0  0  0  0  0  0  0
   -1.2329   -1.2268    0.0211 C   0  0  2  0  0  0  0  0  0  0  0  0
   -0.3013   -0.2330   -0.7077 C   0  0  0  0  0  0  0  0  0  0  0  0
    0.7277   -2.0958    1.1807 C   0  0  0  0  0  0  0  0  0  0  0  0
    0.7136   -2.2396   -1.7530 C   0  0  0  0  0  0  0  0  0  0  0  0
   -0.0813   -3.1633   -0.8131 C   0  0  0  0  0  0  0  0  0  0  0  0
    2.3147   -0.1145    1.0552 C   0  0  0  0  0  0  0  0  0  0  0  0
   -1.9557   -0.5690    1.1989 C   0  0  0  0  0  0  0  0  0  0  0  0
    4.5641   -0.0189    0.1882 C   0  0  0  0  0  0  0  0  0  0  0  0
    3.3725    2.0185    0.6657 C   0  0  0  0  0  0  0  0  0  0  0  0
    5.5206    0.7803   -0.6922 C   0  0  0  0  0  0  0  0  0  0  0  0
    4.3563    2.7694   -0.2269 C   0  0  0  0  0  0  0  0  0  0  0  0
   -4.1090    0.3599    0.3716 C   0  0  0  0  0  0  0  0  0  0  0  0
   -4.7356    1.6691   -0.0584 C   0  0  0  0  0  0  0  0  0  0  0  0
   -6.7025    2.6969   -0.8314 C   0  0  0  0  0  0  0  0  0  0  0  0
    1.6647   -0.2926   -1.6544 H   0  0  0  0  0  0  0  0  0  0  0  0
    2.5533   -2.0030    0.0668 H   0  0  0  0  0  0  0  0  0  0  0  0
   -2.0165   -1.5329   -0.6878 H   0  0  0  0  0  0  0  0  0  0  0  0
   -0.1298    0.6778   -0.1249 H   0  0  0  0  0  0  0  0  0  0  0  0
   -0.7742    0.0824   -1.6467 H   0  0  0  0  0  0  0  0  0  0  0  0
    1.2051   -3.0158    1.5432 H   0  0  0  0  0  0  0  0  0  0  0  0
    0.4621   -1.5454    2.0902 H   0  0  0  0  0  0  0  0  0  0  0  0
    1.6369   -2.7375   -2.0715 H   0  0  0  0  0  0  0  0  0  0  0  0
    0.1295   -2.0287   -2.6570 H   0  0  0  0  0  0  0  0  0  0  0  0
   -0.9643   -3.5545   -1.3335 H   0  0  0  0  0  0  0  0  0  0  0  0
    0.5187   -4.0444   -0.5523 H   0  0  0  0  0  0  0  0  0  0  0  0
    2.7957   -0.4408    1.9872 H   0  0  0  0  0  0  0  0  0  0  0  0
    1.4882    0.5364    1.3668 H   0  0  0  0  0  0  0  0  0  0  0  0
   -1.2572   -0.1472    1.9283 H   0  0  0  0  0  0  0  0  0  0  0  0
   -2.5887   -1.2989    1.7165 H   0  0  0  0  0  0  0  0  0  0  0  0
    4.5026   -1.0359   -0.2119 H   0  0  0  0  0  0  0  0  0  0  0  0
    4.9751   -0.0781    1.2046 H   0  0  0  0  0  0  0  0  0  0  0  0
    3.7260    2.0443    1.7048 H   0  0  0  0  0  0  0  0  0  0  0  0
    2.4019    2.5261    0.6226 H   0  0  0  0  0  0  0  0  0  0  0  0
   -2.3722    1.4559    0.6967 H   0  0  0  0  0  0  0  0  0  0  0  0
    6.5195    0.3340   -0.6585 H   0  0  0  0  0  0  0  0  0  0  0  0
    5.1956    0.7875   -1.7398 H   0  0  0  0  0  0  0  0  0  0  0  0
    3.9911    2.8440   -1.2585 H   0  0  0  0  0  0  0  0  0  0  0  0
    4.4977    3.7879    0.1487 H   0  0  0  0  0  0  0  0  0  0  0  0
   -4.6700    2.3769    0.7762 H   0  0  0  0  0  0  0  0  0  0  0  0
   -4.1708    2.0595   -0.9131 H   0  0  0  0  0  0  0  0  0  0  0  0
   -7.7410    2.4835   -1.0981 H   0  0  0  0  0  0  0  0  0  0  0  0
   -6.1922    3.1069   -1.7082 H   0  0  0  0  0  0  0  0  0  0  0  0
   -6.6927    3.4239   -0.0136 H   0  0  0  0  0  0  0  0  0  0  0  0
  1 18  1  0  0  0  0
  1 19  1  0  0  0  0
  2 20  2  0  0  0  0
  3 21  1  0  0  0  0
  3 22  1  0  0  0  0
  4  9  1  0  0  0  0
  4 11  1  0  0  0  0
  4 13  1  0  0  0  0
  5 14  1  0  0  0  0
  5 16  1  0  0  0  0
  5 17  1  0  0  0  0
  6 15  1  0  0  0  0
  6 20  1  0  0  0  0
  6 42  1  0  0  0  0
  7  8  1  0  0  0  0
  7 10  1  0  0  0  0
  7 12  1  0  0  0  0
  7 23  1  0  0  0  0
  8 11  1  0  0  0  0
  8 14  1  0  0  0  0
  8 24  1  0  0  0  0
  9 10  1  0  0  0  0
  9 15  1  0  0  0  0
  9 25  1  0  0  0  0
 10 26  1  0  0  0  0
 10 27  1  0  0  0  0
 11 28  1  0  0  0  0
 11 29  1  0  0  0  0
 12 13  1  0  0  0  0
 12 30  1  0  0  0  0
 12 31  1  0  0  0  0
 13 32  1  0  0  0  0
 13 33  1  0  0  0  0
 14 34  1  0  0  0  0
 14 35  1  0  0  0  0
 15 36  1  0  0  0  0
 15 37  1  0  0  0  0
 16 18  1  0  0  0  0
 16 38  1  0  0  0  0
 16 39  1  0  0  0  0
 17 19  1  0  0  0  0
 17 40  1  0  0  0  0
 17 41  1  0  0  0  0
 18 43  1  0  0  0  0
 18 44  1  0  0  0  0
 19 45  1  0  0  0  0
 19 46  1  0  0  0  0
 20 21  1  0  0  0  0
 21 47  1  0  0  0  0
 21 48  1  0  0  0  0
 22 49  1  0  0  0  0
 22 50  1  0  0  0  0
 22 51  1  0  0  0  0
M  END
> <PUBCHEM_COMPOUND_CID>
28991027

> <PUBCHEM_CONFORMER_RMSD>
1

> <PUBCHEM_CONFORMER_DIVERSEORDER>
1
7
12
10
27
25
21
8
5
4
14
20
24
15
23
16
22
13
19
9
18
17
2
6
26
3
11

> <PUBCHEM_MMFF94_PARTIAL_CHARGES>
19
1 -0.56
11 0.27
13 0.27
14 0.27
15 0.3
16 0.27
17 0.27
18 0.28
19 0.28
2 -0.57
20 0.57
21 0.34
22 0.28
3 -0.56
4 -0.81
42 0.37
5 -0.81
6 -0.73
9 0.27

> <PUBCHEM_EFFECTIVE_ROTOR_COUNT>
9.4

> <PUBCHEM_PHARMACOPHORE_FEATURES>
8
1 1 acceptor
1 2 acceptor
1 3 acceptor
1 4 cation
1 5 cation
1 6 donor
6 1 5 16 17 18 19 rings
8 4 7 8 9 10 11 12 13 rings

> <PUBCHEM_HEAVY_ATOM_COUNT>
22

> <PUBCHEM_ATOM_DEF_STEREO_COUNT>
3

> <PUBCHEM_ATOM_UDEF_STEREO_COUNT>
0

> <PUBCHEM_BOND_DEF_STEREO_COUNT>
0

> <PUBCHEM_BOND_UDEF_STEREO_COUNT>
0

> <PUBCHEM_ISOTOPIC_ATOM_COUNT>
0

> <PUBCHEM_COMPONENT_COUNT>
1

> <PUBCHEM_CACTVS_TAUTO_COUNT>
2

> <PUBCHEM_CONFORMER_ID>
01BA5E3300000001

> <PUBCHEM_MMFF94_ENERGY>
47.0457

> <PUBCHEM_FEATURE_SELFOVERLAP>
40.603

> <PUBCHEM_SHAPE_FINGERPRINT>
10763959 59 18334299755832462332
11265709 11 7997974574389306922
12403259 415 18336278868277811459
12553582 1 12107786328432522114
12633257 1 15140962914996896744
12769317 202 18271519810829048009
12788726 201 17908127030261884114
13103583 49 13767934537186241561
13544653 18 7925640981473730162
14123256 34 8718829816207398576
14142895 15 18409442576194908293
14251751 18 10519989261809995617
14251764 30 10447927274284397701
14251764 38 18193835934309185417
14774955 27 18410006611920044969
15061688 2 18408044004975875075
15238133 3 17313115150090726732
15961568 22 18260831466954372869
17834072 32 18411140272500495240
17980427 23 17675928724696924303
17980427 26 18115009827794075675
18335252 114 18340761538186780884
193927 3 8069760601945331752
20567600 247 9727625107947665773
20723712 36 17168151165082286110
21033648 29 18338228370718092848
21403212 168 18337663119189331570
21475661 188 18334016116060216044
21521239 73 16702024132456583654
21524375 3 18273217508205851586
22950370 63 9439406843481818263
23559900 14 18196653991317011619
270888 7 18408039628093178337
2838139 119 18410852200348451340
314194 84 8142075447180994433
33382 64 9439398047056460789
3472631 163 18335698304927077909
34797466 226 18200312097105028653
463206 1 9223218646493935264
474 4 18342739585485430987
5104073 3 17968665909059098547
59682541 52 17346328037907038964
6327066 14 18411417349462616212
77188 2 17398383135739885914
7970288 3 9727643799260612397
9999458 23 18187926119423419042

> <PUBCHEM_SHAPE_MULTIPOLES>
420.2
13.37
3.36
1.18
12.18
0.08
-0.12
-16.61
-2.01
-0.21
-0.76
-0.03
0.5
0.8

> <PUBCHEM_SHAPE_SELFOVERLAP>
856.229

> <PUBCHEM_SHAPE_VOLUME>
239.9

> <PUBCHEM_COORDINATE_TYPE>
2
5
10

$$$$
