11883294
  -OEChem-12032416293D

 41 43  0     1  0  0  0  0  0999 V2000
   -3.8826   -4.0609    0.0842 Cl  0  0  0  0  0  0  0  0  0  0  0  0
   -2.7159    2.0716    0.5034 S   0  0  0  0  0  0  0  0  0  0  0  0
    1.9734    1.5374   -0.2921 O   0  0  0  0  0  0  0  0  0  0  0  0
    0.2661   -0.4890   -1.8356 O   0  0  0  0  0  0  0  0  0  0  0  0
    3.5845   -0.7132   -0.5049 O   0  0  0  0  0  0  0  0  0  0  0  0
   -3.2817    2.7161   -0.6665 O   0  0  0  0  0  0  0  0  0  0  0  0
   -3.1181    2.4892    1.8328 O   0  0  0  0  0  0  0  0  0  0  0  0
    6.2406   -0.4050   -0.2488 O   0  0  0  0  0  0  0  0  0  0  0  0
   -1.0208    2.1115    0.4063 N   0  0  0  0  0  0  0  0  0  0  0  0
    6.1515   -0.4959    2.0489 N   0  0  0  0  0  0  0  0  0  0  0  0
    0.0659    0.1543   -0.5597 C   0  0  1  0  0  0  0  0  0  0  0  0
    1.4282    0.2650    0.0950 C   0  0  1  0  0  0  0  0  0  0  0  0
   -0.3562    1.5907   -0.7633 C   0  0  2  0  0  0  0  0  0  0  0  0
    2.1851   -0.8817   -0.5307 C   0  0  1  0  0  0  0  0  0  0  0  0
    0.9732    2.2866   -0.9994 C   0  0  0  0  0  0  0  0  0  0  0  0
    1.6392   -0.8930   -1.9407 C   0  0  0  0  0  0  0  0  0  0  0  0
    4.0960   -0.7030    0.8256 C   0  0  0  0  0  0  0  0  0  0  0  0
   -3.0473    0.3392    0.3851 C   0  0  0  0  0  0  0  0  0  0  0  0
    5.5948   -0.5200    0.7889 C   0  0  0  0  0  0  0  0  0  0  0  0
   -3.1030   -0.4184    1.5419 C   0  0  0  0  0  0  0  0  0  0  0  0
   -3.2435   -0.2273   -0.8624 C   0  0  0  0  0  0  0  0  0  0  0  0
   -3.3628   -1.7857    1.4484 C   0  0  0  0  0  0  0  0  0  0  0  0
   -3.5035   -1.5946   -0.9560 C   0  0  0  0  0  0  0  0  0  0  0  0
   -3.5632   -2.3738    0.1994 C   0  0  0  0  0  0  0  0  0  0  0  0
   -0.5964   -0.4814    0.0262 H   0  0  0  0  0  0  0  0  0  0  0  0
    1.3861    0.2354    1.1878 H   0  0  0  0  0  0  0  0  0  0  0  0
   -0.9842    1.7298   -1.6493 H   0  0  0  0  0  0  0  0  0  0  0  0
    1.9070   -1.8244   -0.0404 H   0  0  0  0  0  0  0  0  0  0  0  0
    1.2446    2.2672   -2.0607 H   0  0  0  0  0  0  0  0  0  0  0  0
    0.9926    3.3261   -0.6579 H   0  0  0  0  0  0  0  0  0  0  0  0
    2.1657   -0.1909   -2.5970 H   0  0  0  0  0  0  0  0  0  0  0  0
    1.6956   -1.8843   -2.4004 H   0  0  0  0  0  0  0  0  0  0  0  0
   -0.4778    2.1448    1.2780 H   0  0  0  0  0  0  0  0  0  0  0  0
    3.6755    0.1270    1.4024 H   0  0  0  0  0  0  0  0  0  0  0  0
    3.8682   -1.6542    1.3198 H   0  0  0  0  0  0  0  0  0  0  0  0
   -2.9409    0.0184    2.5224 H   0  0  0  0  0  0  0  0  0  0  0  0
   -3.1974    0.3610   -1.7734 H   0  0  0  0  0  0  0  0  0  0  0  0
   -3.4040   -2.3811    2.3569 H   0  0  0  0  0  0  0  0  0  0  0  0
   -3.6559   -2.0396   -1.9359 H   0  0  0  0  0  0  0  0  0  0  0  0
    5.5932   -0.5936    2.8910 H   0  0  0  0  0  0  0  0  0  0  0  0
    7.1513   -0.3787    2.1757 H   0  0  0  0  0  0  0  0  0  0  0  0
  1 24  1  0  0  0  0
  2  6  2  0  0  0  0
  2  7  2  0  0  0  0
  2  9  1  0  0  0  0
  2 18  1  0  0  0  0
  3 12  1  0  0  0  0
  3 15  1  0  0  0  0
  4 11  1  0  0  0  0
  4 16  1  0  0  0  0
  5 14  1  0  0  0  0
  5 17  1  0  0  0  0
  8 19  2  0  0  0  0
  9 13  1  0  0  0  0
  9 33  1  0  0  0  0
 10 19  1  0  0  0  0
 10 40  1  0  0  0  0
 10 41  1  0  0  0  0
 11 12  1  0  0  0  0
 11 13  1  0  0  0  0
 11 25  1  0  0  0  0
 12 14  1  0  0  0  0
 12 26  1  0  0  0  0
 13 15  1  0  0  0  0
 13 27  1  0  0  0  0
 14 16  1  0  0  0  0
 14 28  1  0  0  0  0
 15 29  1  0  0  0  0
 15 30  1  0  0  0  0
 16 31  1  0  0  0  0
 16 32  1  0  0  0  0
 17 19  1  0  0  0  0
 17 34  1  0  0  0  0
 17 35  1  0  0  0  0
 18 20  2  0  0  0  0
 18 21  1  0  0  0  0
 20 22  1  0  0  0  0
 20 36  1  0  0  0  0
 21 23  2  0  0  0  0
 21 37  1  0  0  0  0
 22 24  2  0  0  0  0
 22 38  1  0  0  0  0
 23 24  1  0  0  0  0
 23 39  1  0  0  0  0
M  END
> <PUBCHEM_COMPOUND_CID>
11883294

> <PUBCHEM_CONFORMER_RMSD>
0.8

> <PUBCHEM_CONFORMER_DIVERSEORDER>
2
10
40
68
67
17
27
24
62
49
39
69
13
37
58
38
20
28
19
52
30
9
18
35
55
29
44
26
63
15
33
71
51
31
53
41
48
25
36
57
7
70
66
43
5
8
45
65
59
23
1
34
21
32
16
6
22
14
64
12
46
54
60
50
47
72
3
4
42
61
11
56

> <PUBCHEM_MMFF94_PARTIAL_CHARGES>
31
1 -0.18
10 -0.8
11 0.28
12 0.28
13 0.36
14 0.28
15 0.28
16 0.28
17 0.34
18 -0.01
19 0.57
2 1.45
20 -0.15
21 -0.15
22 -0.15
23 -0.15
24 0.18
3 -0.56
33 0.42
36 0.15
37 0.15
38 0.15
39 0.15
4 -0.56
40 0.37
41 0.37
5 -0.56
6 -0.65
7 -0.65
8 -0.57
9 -0.91

> <PUBCHEM_EFFECTIVE_ROTOR_COUNT>
7.2

> <PUBCHEM_PHARMACOPHORE_FEATURES>
11
1 10 donor
1 3 acceptor
1 4 acceptor
1 5 acceptor
1 6 acceptor
1 7 acceptor
1 8 acceptor
1 9 donor
5 3 11 12 13 15 rings
5 4 11 12 14 16 rings
6 18 20 21 22 23 24 rings

> <PUBCHEM_HEAVY_ATOM_COUNT>
24

> <PUBCHEM_ATOM_DEF_STEREO_COUNT>
4

> <PUBCHEM_ATOM_UDEF_STEREO_COUNT>
0

> <PUBCHEM_BOND_DEF_STEREO_COUNT>
0

> <PUBCHEM_BOND_UDEF_STEREO_COUNT>
0

> <PUBCHEM_ISOTOPIC_ATOM_COUNT>
0

> <PUBCHEM_COMPONENT_COUNT>
1

> <PUBCHEM_CACTVS_TAUTO_COUNT>
2

> <PUBCHEM_CONFORMER_ID>
00B5531E00000002

> <PUBCHEM_MMFF94_ENERGY>
51.7173

> <PUBCHEM_FEATURE_SELFOVERLAP>
56.57

> <PUBCHEM_SHAPE_FINGERPRINT>
10366900 7 17487883536795825704
10498660 4 10015294660186000675
11370993 144 17131005152195392078
11552529 35 18341608200763147706
12523318 42 18410565189206401874
12553582 1 18196678343770705807
12633257 1 18271260377550374753
13004483 165 18269281334531259987
13083527 12 18269837691013400341
13140716 1 18270129036352503779
13583140 156 16845564301615303856
13994607 96 14189571940517331667
14081887 123 18270401581474923896
14178342 30 18341062821684392727
14844126 61 18408321086348729035
14955137 171 18059860554608180368
15099037 37 18342458127514483676
15163728 17 11743566560802582600
15183329 4 11959731565168637928
15415430 10 18333448750853780768
17349148 13 17240491290854057970
18186145 218 11097864007536157966
18927931 339 18408329869287862430
200 152 16153708691970532628
20681677 274 18265895941917585025
20775530 9 17758976096179157579
21033648 29 17060041624204377594
21756936 100 13542460986329378630
22182313 1 17632026256059922652
23402539 116 17458346295630244860
23559900 14 18337096977685156857
23622692 118 18337389452199167463
23728640 28 18337961078397892697
25147074 1 18189635954071794277
2838139 119 12967121736424461330
3459 83 11315123060278899840
444769 64 11167675278534864316
5104073 3 18341899657275509497
5364581 5 18270668879287629552
5924683 9 18410007732500288651
7808743 9 10015593804494961299

> <PUBCHEM_SHAPE_MULTIPOLES>
454.45
11.15
3.32
1.61
17.83
0.42
-0.16
6.71
-4.71
-5.5
-0.21
0.35
0.08
-0.75

> <PUBCHEM_SHAPE_SELFOVERLAP>
946.253

> <PUBCHEM_SHAPE_VOLUME>
259.9

> <PUBCHEM_COORDINATE_TYPE>
2
5
10

$$$$
