38029071
  -OEChem-12032416373D

 72 74  0     1  0  0  0  0  0999 V2000
   -0.1814    3.6442    0.0623 O   0  0  0  0  0  0  0  0  0  0  0  0
   -3.5533   -2.8483    1.4061 O   0  0  0  0  0  0  0  0  0  0  0  0
    0.3418   -5.9081    0.3691 O   0  0  0  0  0  0  0  0  0  0  0  0
    0.0162   -4.7649   -1.5661 O   0  0  0  0  0  0  0  0  0  0  0  0
   -3.9005   -1.6248   -0.5414 N   0  0  0  0  0  0  0  0  0  0  0  0
    1.4015    1.9948   -0.3552 N   0  0  0  0  0  0  0  0  0  0  0  0
    4.0626    0.8952   -0.0563 N   0  0  0  0  0  0  0  0  0  0  0  0
    6.0286   -0.0349   -0.9765 N   0  0  0  0  0  0  0  0  0  0  0  0
   -3.5092    1.0134    0.8480 C   0  0  1  0  0  0  0  0  0  0  0  0
   -4.6465    0.6630   -0.1438 C   0  0  1  0  0  0  0  0  0  0  0  0
   -2.8843    2.3703    0.4895 C   0  0  0  0  0  0  0  0  0  0  0  0
   -2.3086    2.3873   -0.9392 C   0  0  2  0  0  0  0  0  0  0  0  0
   -4.0054    1.0376    2.2971 C   0  0  0  0  0  0  0  0  0  0  0  0
   -3.2799    1.8028   -1.9446 C   0  0  0  0  0  0  0  0  0  0  0  0
   -4.3264    1.0459   -1.5696 C   0  0  0  0  0  0  0  0  0  0  0  0
   -0.9572    1.6666   -0.9987 C   0  0  0  0  0  0  0  0  0  0  0  0
   -4.9947   -0.8286   -0.0814 C   0  0  0  0  0  0  0  0  0  0  0  0
   -2.8499    0.7829    3.2597 C   0  0  0  0  0  0  0  0  0  0  0  0
   -4.6829    2.3690    2.6052 C   0  0  0  0  0  0  0  0  0  0  0  0
   -3.0470    2.1463   -3.3896 C   0  0  0  0  0  0  0  0  0  0  0  0
    0.1136    2.5312   -0.3797 C   0  0  0  0  0  0  0  0  0  0  0  0
    2.4942    2.7725    0.2232 C   0  0  0  0  0  0  0  0  0  0  0  0
    1.7479    0.6684   -0.8710 C   0  0  0  0  0  0  0  0  0  0  0  0
    3.5377    1.8809    0.8929 C   0  0  0  0  0  0  0  0  0  0  0  0
    3.2328    0.5338   -1.2083 C   0  0  0  0  0  0  0  0  0  0  0  0
   -3.2572   -2.5825    0.2443 C   0  0  0  0  0  0  0  0  0  0  0  0
   -2.1307   -3.2721   -0.5040 C   0  0  0  0  0  0  0  0  0  0  0  0
    5.3312    0.3469    0.1168 C   0  0  0  0  0  0  0  0  0  0  0  0
   -1.4216   -4.3207    0.3467 C   0  0  0  0  0  0  0  0  0  0  0  0
    5.7985    0.2278    1.4157 C   0  0  0  0  0  0  0  0  0  0  0  0
    7.0633   -0.3181    1.6046 C   0  0  0  0  0  0  0  0  0  0  0  0
   -0.2985   -4.9943   -0.4066 C   0  0  0  0  0  0  0  0  0  0  0  0
    7.2538   -0.5611   -0.7536 C   0  0  0  0  0  0  0  0  0  0  0  0
    7.8113   -0.7225    0.5045 C   0  0  0  0  0  0  0  0  0  0  0  0
   -2.7265    0.2500    0.7693 H   0  0  0  0  0  0  0  0  0  0  0  0
   -5.5526    1.2200    0.1258 H   0  0  0  0  0  0  0  0  0  0  0  0
   -2.1188    2.6509    1.2189 H   0  0  0  0  0  0  0  0  0  0  0  0
   -3.6432    3.1632    0.5112 H   0  0  0  0  0  0  0  0  0  0  0  0
   -2.1775    3.4434   -1.2148 H   0  0  0  0  0  0  0  0  0  0  0  0
   -4.7361    0.2394    2.4639 H   0  0  0  0  0  0  0  0  0  0  0  0
   -5.0184    0.6918   -2.3313 H   0  0  0  0  0  0  0  0  0  0  0  0
   -0.6704    1.5011   -2.0424 H   0  0  0  0  0  0  0  0  0  0  0  0
   -0.9858    0.6949   -0.4966 H   0  0  0  0  0  0  0  0  0  0  0  0
   -5.8412   -1.0468   -0.7438 H   0  0  0  0  0  0  0  0  0  0  0  0
   -5.2973   -1.1369    0.9229 H   0  0  0  0  0  0  0  0  0  0  0  0
   -2.0766    1.5546    3.1961 H   0  0  0  0  0  0  0  0  0  0  0  0
   -2.3797   -0.1858    3.0591 H   0  0  0  0  0  0  0  0  0  0  0  0
   -3.2111    0.7643    4.2938 H   0  0  0  0  0  0  0  0  0  0  0  0
   -3.9759    3.1998    2.7017 H   0  0  0  0  0  0  0  0  0  0  0  0
   -5.1914    2.2976    3.5747 H   0  0  0  0  0  0  0  0  0  0  0  0
   -5.4517    2.6319    1.8726 H   0  0  0  0  0  0  0  0  0  0  0  0
   -2.9989    3.2324   -3.5196 H   0  0  0  0  0  0  0  0  0  0  0  0
   -3.8514    1.7759   -4.0343 H   0  0  0  0  0  0  0  0  0  0  0  0
   -2.1118    1.7102   -3.7519 H   0  0  0  0  0  0  0  0  0  0  0  0
   -3.6113   -1.5251   -1.5104 H   0  0  0  0  0  0  0  0  0  0  0  0
    2.1004    3.4967    0.9442 H   0  0  0  0  0  0  0  0  0  0  0  0
    2.9470    3.3421   -0.5978 H   0  0  0  0  0  0  0  0  0  0  0  0
    1.1564    0.4359   -1.7600 H   0  0  0  0  0  0  0  0  0  0  0  0
    1.4700   -0.0524   -0.0921 H   0  0  0  0  0  0  0  0  0  0  0  0
    4.3377    2.5299    1.2699 H   0  0  0  0  0  0  0  0  0  0  0  0
    3.0833    1.3606    1.7451 H   0  0  0  0  0  0  0  0  0  0  0  0
    3.4244   -0.5016   -1.5152 H   0  0  0  0  0  0  0  0  0  0  0  0
    3.4897    1.1853   -2.0523 H   0  0  0  0  0  0  0  0  0  0  0  0
   -2.5495   -3.7374   -1.4046 H   0  0  0  0  0  0  0  0  0  0  0  0
   -1.4168   -2.5058   -0.8308 H   0  0  0  0  0  0  0  0  0  0  0  0
   -2.1344   -5.0916    0.6604 H   0  0  0  0  0  0  0  0  0  0  0  0
   -0.9992   -3.8497    1.2417 H   0  0  0  0  0  0  0  0  0  0  0  0
    5.2245    0.5183    2.2886 H   0  0  0  0  0  0  0  0  0  0  0  0
    7.4640   -0.4326    2.6074 H   0  0  0  0  0  0  0  0  0  0  0  0
    7.7962   -0.8611   -1.6442 H   0  0  0  0  0  0  0  0  0  0  0  0
    8.7990   -1.1517    0.6281 H   0  0  0  0  0  0  0  0  0  0  0  0
    1.0729   -6.3491   -0.1138 H   0  0  0  0  0  0  0  0  0  0  0  0
  1 21  2  0  0  0  0
  2 26  2  0  0  0  0
  3 32  1  0  0  0  0
  3 72  1  0  0  0  0
  4 32  2  0  0  0  0
  5 17  1  0  0  0  0
  5 26  1  0  0  0  0
  5 55  1  0  0  0  0
  6 21  1  0  0  0  0
  6 22  1  0  0  0  0
  6 23  1  0  0  0  0
  7 24  1  0  0  0  0
  7 25  1  0  0  0  0
  7 28  1  0  0  0  0
  8 28  1  0  0  0  0
  8 33  2  0  0  0  0
  9 10  1  0  0  0  0
  9 11  1  0  0  0  0
  9 13  1  0  0  0  0
  9 35  1  0  0  0  0
 10 15  1  0  0  0  0
 10 17  1  0  0  0  0
 10 36  1  0  0  0  0
 11 12  1  0  0  0  0
 11 37  1  0  0  0  0
 11 38  1  0  0  0  0
 12 14  1  0  0  0  0
 12 16  1  0  0  0  0
 12 39  1  0  0  0  0
 13 18  1  0  0  0  0
 13 19  1  0  0  0  0
 13 40  1  0  0  0  0
 14 15  2  0  0  0  0
 14 20  1  0  0  0  0
 15 41  1  0  0  0  0
 16 21  1  0  0  0  0
 16 42  1  0  0  0  0
 16 43  1  0  0  0  0
 17 44  1  0  0  0  0
 17 45  1  0  0  0  0
 18 46  1  0  0  0  0
 18 47  1  0  0  0  0
 18 48  1  0  0  0  0
 19 49  1  0  0  0  0
 19 50  1  0  0  0  0
 19 51  1  0  0  0  0
 20 52  1  0  0  0  0
 20 53  1  0  0  0  0
 20 54  1  0  0  0  0
 22 24  1  0  0  0  0
 22 56  1  0  0  0  0
 22 57  1  0  0  0  0
 23 25  1  0  0  0  0
 23 58  1  0  0  0  0
 23 59  1  0  0  0  0
 24 60  1  0  0  0  0
 24 61  1  0  0  0  0
 25 62  1  0  0  0  0
 25 63  1  0  0  0  0
 26 27  1  0  0  0  0
 27 29  1  0  0  0  0
 27 64  1  0  0  0  0
 27 65  1  0  0  0  0
 28 30  2  0  0  0  0
 29 32  1  0  0  0  0
 29 66  1  0  0  0  0
 29 67  1  0  0  0  0
 30 31  1  0  0  0  0
 30 68  1  0  0  0  0
 31 34  2  0  0  0  0
 31 69  1  0  0  0  0
 33 34  1  0  0  0  0
 33 70  1  0  0  0  0
 34 71  1  0  0  0  0
M  END
> <PUBCHEM_COMPOUND_CID>
38029071

> <PUBCHEM_CONFORMER_RMSD>
1.2

> <PUBCHEM_CONFORMER_DIVERSEORDER>
1
90
85
66
106
129
43
118
123
127
107
21
102
39
112
9
67
54
88
115
49
83
38
125
121
110
47
37
20
99
95
98
78
51
80
70
69
124
114
17
23
82
65
117
128
40
28
25
35
100
105
12
122
29
24
32
72
113
63
111
34
44
19
16
74
97
103
64
6
10
126
91
52
22
101
94
61
41
31
96
30
42
120
116
93
77
7
89
60
26
50
76
15
59
109
36
48
86
11
18
104
53
27
71
68
13
55
75
8
108
33
57
4
79
46
87
5
119
14
73
62
2
81
56
3
45
92
84
58

> <PUBCHEM_MMFF94_PARTIAL_CHARGES>
36
1 -0.57
10 0.14
12 0.14
14 -0.28
15 -0.29
16 0.06
17 0.3
2 -0.57
20 0.14
21 0.57
22 0.3
23 0.3
24 0.37
25 0.37
26 0.57
27 0.06
28 0.41
29 0.06
3 -0.65
30 -0.15
31 -0.15
32 0.66
33 0.16
34 -0.15
4 -0.57
41 0.15
5 -0.73
55 0.37
6 -0.66
68 0.15
69 0.15
7 -0.84
70 0.15
71 0.15
72 0.5
8 -0.62

> <PUBCHEM_EFFECTIVE_ROTOR_COUNT>
13

> <PUBCHEM_PHARMACOPHORE_FEATURES>
12
1 1 acceptor
1 2 acceptor
1 3 acceptor
1 4 acceptor
1 5 donor
1 7 cation
1 8 acceptor
3 13 18 19 hydrophobe
3 3 4 32 anion
6 6 7 22 23 24 25 rings
6 8 28 30 31 33 34 rings
6 9 10 11 12 14 15 rings

> <PUBCHEM_HEAVY_ATOM_COUNT>
34

> <PUBCHEM_ATOM_DEF_STEREO_COUNT>
3

> <PUBCHEM_ATOM_UDEF_STEREO_COUNT>
0

> <PUBCHEM_BOND_DEF_STEREO_COUNT>
0

> <PUBCHEM_BOND_UDEF_STEREO_COUNT>
0

> <PUBCHEM_ISOTOPIC_ATOM_COUNT>
0

> <PUBCHEM_COMPONENT_COUNT>
1

> <PUBCHEM_CACTVS_TAUTO_COUNT>
2

> <PUBCHEM_CONFORMER_ID>
0244470F00000001

> <PUBCHEM_MMFF94_ENERGY>
84.3658

> <PUBCHEM_FEATURE_SELFOVERLAP>
60.955

> <PUBCHEM_SHAPE_FINGERPRINT>
10291535 26 10592045773621809621
10305334 12 17988093179889355409
11524674 6 18409730629942664481
11763389 116 18337947896975430494
14950920 106 18202008766946068440
15320294 125 18040987441416961414
15326923 133 17985835839552651566
15444296 8 16153436039025570741
15799311 1 18339096942507977932
16112460 7 18199755752009773578
16719943 64 18408600374860427774
17627616 140 18190449472422727103
20771845 38 18337102372369672923
20775530 9 17260199207769157527
229767 44 18339646736475729826
23516275 137 17974876985466773498
2838139 119 8790882965703157172
3383291 50 18341046415131426919
484985 159 18408601457788168141
5085150 59 18263346049619250039
531348 171 17677040257300163069

> <PUBCHEM_SHAPE_MULTIPOLES>
656.3
16.14
6.08
2.38
36.1
12.49
-0.54
-1.6
-3.99
-4.43
0.85
-3.32
-1.58
0.23

> <PUBCHEM_SHAPE_SELFOVERLAP>
1353.927

> <PUBCHEM_SHAPE_VOLUME>
372.1

> <PUBCHEM_COORDINATE_TYPE>
2
5
10

$$$$
