11912176
  -OEChem-12032416293D

 61 63  0     1  0  0  0  0  0999 V2000
    2.4780   -1.6756   -1.9629 O   0  0  0  0  0  0  0  0  0  0  0  0
   -3.8815    1.2537   -1.3536 O   0  0  0  0  0  0  0  0  0  0  0  0
    7.8277    0.5806    1.2010 O   0  0  0  0  0  0  0  0  0  0  0  0
    1.3243    0.3046   -1.6619 N   0  0  0  0  0  0  0  0  0  0  0  0
   -4.6282    1.4473    0.8387 N   0  0  0  0  0  0  0  0  0  0  0  0
    3.6086    0.1542   -1.0941 N   0  0  0  0  0  0  0  0  0  0  0  0
   -1.1801    1.3218   -0.6282 C   0  0  1  0  0  0  0  0  0  0  0  0
    0.1766    1.9278   -0.1807 C   0  0  2  0  0  0  0  0  0  0  0  0
   -1.0279   -0.1358   -1.0999 C   0  0  0  0  0  0  0  0  0  0  0  0
    1.2215    1.7238   -1.2906 C   0  0  0  0  0  0  0  0  0  0  0  0
    0.0718   -0.2727   -2.1521 C   0  0  0  0  0  0  0  0  0  0  0  0
    0.6966    1.3787    1.1528 C   0  0  0  0  0  0  0  0  0  0  0  0
   -2.2678    1.4319    0.4399 C   0  0  0  0  0  0  0  0  0  0  0  0
    1.9715    2.0794    1.5730 C   0  0  0  0  0  0  0  0  0  0  0  0
    2.4860   -0.4945   -1.6071 C   0  0  0  0  0  0  0  0  0  0  0  0
   -3.6595    1.3646   -0.1509 C   0  0  0  0  0  0  0  0  0  0  0  0
   -6.0459    1.4115    0.5609 C   0  0  0  0  0  0  0  0  0  0  0  0
    4.6859   -0.4269   -0.3803 C   0  0  0  0  0  0  0  0  0  0  0  0
   -6.5868    0.0110    0.5788 C   0  0  0  0  0  0  0  0  0  0  0  0
    5.7387    0.3728    0.0650 C   0  0  0  0  0  0  0  0  0  0  0  0
    4.6941   -1.7977   -0.1233 C   0  0  0  0  0  0  0  0  0  0  0  0
   -6.6036   -0.7452   -0.5933 C   0  0  0  0  0  0  0  0  0  0  0  0
   -7.0721   -0.5343    1.7675 C   0  0  0  0  0  0  0  0  0  0  0  0
    6.7998   -0.1989    0.7673 C   0  0  0  0  0  0  0  0  0  0  0  0
    5.7551   -2.3693    0.5788 C   0  0  0  0  0  0  0  0  0  0  0  0
    6.8080   -1.5699    1.0242 C   0  0  0  0  0  0  0  0  0  0  0  0
   -7.1058   -2.0464   -0.5768 C   0  0  0  0  0  0  0  0  0  0  0  0
   -7.5743   -1.8356    1.7839 C   0  0  0  0  0  0  0  0  0  0  0  0
   -7.5910   -2.5915    0.6117 C   0  0  0  0  0  0  0  0  0  0  0  0
    8.8804   -0.0694    1.9118 C   0  0  0  0  0  0  0  0  0  0  0  0
   -1.4942    1.9100   -1.5032 H   0  0  0  0  0  0  0  0  0  0  0  0
    0.0277    3.0100   -0.0604 H   0  0  0  0  0  0  0  0  0  0  0  0
   -0.7873   -0.7796   -0.2445 H   0  0  0  0  0  0  0  0  0  0  0  0
   -1.9672   -0.5108   -1.5206 H   0  0  0  0  0  0  0  0  0  0  0  0
    2.1742    2.1796   -1.0318 H   0  0  0  0  0  0  0  0  0  0  0  0
    0.8927    2.2527   -2.1954 H   0  0  0  0  0  0  0  0  0  0  0  0
    0.1979   -1.3272   -2.4155 H   0  0  0  0  0  0  0  0  0  0  0  0
   -0.2037    0.2619   -3.0689 H   0  0  0  0  0  0  0  0  0  0  0  0
   -0.0498    1.5432    1.9379 H   0  0  0  0  0  0  0  0  0  0  0  0
    0.8723    0.2986    1.1061 H   0  0  0  0  0  0  0  0  0  0  0  0
   -2.1886    2.3991    0.9526 H   0  0  0  0  0  0  0  0  0  0  0  0
   -2.1652    0.6425    1.1939 H   0  0  0  0  0  0  0  0  0  0  0  0
    1.8671    3.1682    1.5271 H   0  0  0  0  0  0  0  0  0  0  0  0
    2.2090    1.8163    2.6099 H   0  0  0  0  0  0  0  0  0  0  0  0
    2.8349    1.7858    0.9749 H   0  0  0  0  0  0  0  0  0  0  0  0
   -4.3400    1.5203    1.8102 H   0  0  0  0  0  0  0  0  0  0  0  0
    3.6872    1.1564   -1.2208 H   0  0  0  0  0  0  0  0  0  0  0  0
   -6.2391    1.8826   -0.4102 H   0  0  0  0  0  0  0  0  0  0  0  0
   -6.5456    2.0268    1.3178 H   0  0  0  0  0  0  0  0  0  0  0  0
    5.7388    1.4424   -0.1312 H   0  0  0  0  0  0  0  0  0  0  0  0
    3.8957   -2.4675   -0.4165 H   0  0  0  0  0  0  0  0  0  0  0  0
   -6.2317   -0.3328   -1.5271 H   0  0  0  0  0  0  0  0  0  0  0  0
   -7.0628    0.0439    2.6877 H   0  0  0  0  0  0  0  0  0  0  0  0
    5.7583   -3.4359    0.7845 H   0  0  0  0  0  0  0  0  0  0  0  0
    7.5989   -2.0787    1.5646 H   0  0  0  0  0  0  0  0  0  0  0  0
   -7.1195   -2.6348   -1.4895 H   0  0  0  0  0  0  0  0  0  0  0  0
   -7.9517   -2.2605    2.7095 H   0  0  0  0  0  0  0  0  0  0  0  0
   -7.9820   -3.6047    0.6246 H   0  0  0  0  0  0  0  0  0  0  0  0
    9.6119    0.6997    2.1805 H   0  0  0  0  0  0  0  0  0  0  0  0
    9.4006   -0.7991    1.2821 H   0  0  0  0  0  0  0  0  0  0  0  0
    8.5215   -0.5100    2.8482 H   0  0  0  0  0  0  0  0  0  0  0  0
  1 15  2  0  0  0  0
  2 16  2  0  0  0  0
  3 24  1  0  0  0  0
  3 30  1  0  0  0  0
  4 10  1  0  0  0  0
  4 11  1  0  0  0  0
  4 15  1  0  0  0  0
  5 16  1  0  0  0  0
  5 17  1  0  0  0  0
  5 46  1  0  0  0  0
  6 15  1  0  0  0  0
  6 18  1  0  0  0  0
  6 47  1  0  0  0  0
  7  8  1  0  0  0  0
  7  9  1  0  0  0  0
  7 13  1  0  0  0  0
  7 31  1  0  0  0  0
  8 10  1  0  0  0  0
  8 12  1  0  0  0  0
  8 32  1  0  0  0  0
  9 11  1  0  0  0  0
  9 33  1  0  0  0  0
  9 34  1  0  0  0  0
 10 35  1  0  0  0  0
 10 36  1  0  0  0  0
 11 37  1  0  0  0  0
 11 38  1  0  0  0  0
 12 14  1  0  0  0  0
 12 39  1  0  0  0  0
 12 40  1  0  0  0  0
 13 16  1  0  0  0  0
 13 41  1  0  0  0  0
 13 42  1  0  0  0  0
 14 43  1  0  0  0  0
 14 44  1  0  0  0  0
 14 45  1  0  0  0  0
 17 19  1  0  0  0  0
 17 48  1  0  0  0  0
 17 49  1  0  0  0  0
 18 20  2  0  0  0  0
 18 21  1  0  0  0  0
 19 22  2  0  0  0  0
 19 23  1  0  0  0  0
 20 24  1  0  0  0  0
 20 50  1  0  0  0  0
 21 25  2  0  0  0  0
 21 51  1  0  0  0  0
 22 27  1  0  0  0  0
 22 52  1  0  0  0  0
 23 28  2  0  0  0  0
 23 53  1  0  0  0  0
 24 26  2  0  0  0  0
 25 26  1  0  0  0  0
 25 54  1  0  0  0  0
 26 55  1  0  0  0  0
 27 29  2  0  0  0  0
 27 56  1  0  0  0  0
 28 29  1  0  0  0  0
 28 57  1  0  0  0  0
 29 58  1  0  0  0  0
 30 59  1  0  0  0  0
 30 60  1  0  0  0  0
 30 61  1  0  0  0  0
M  END
> <PUBCHEM_COMPOUND_CID>
11912176

> <PUBCHEM_CONFORMER_RMSD>
1.4

> <PUBCHEM_CONFORMER_DIVERSEORDER>
1
67
68
105
80
40
41
24
48
29
35
83
64
37
81
91
90
27
22
78
89
99
16
86
76
95
17
57
87
69
25
14
13
49
56
53
52
77
101
18
58
96
104
23
65
74
50
70
93
92
42
66
33
73
34
59
44
31
8
43
28
94
4
71
20
36
85
30
103
5
100
84
19
55
10
54
75
2
62
88
45
32
46
21
82
7
51
72
6
39
47
9
38
63
12
102
97
15
79
11
61
26
98
3
60

> <PUBCHEM_MMFF94_PARTIAL_CHARGES>
36
1 -0.57
10 0.3
11 0.3
13 0.06
15 0.69
16 0.57
17 0.44
18 0.12
19 -0.14
2 -0.57
20 -0.15
21 -0.15
22 -0.15
23 -0.15
24 0.08
25 -0.15
26 -0.15
27 -0.15
28 -0.15
29 -0.15
3 -0.36
30 0.28
4 -0.66
46 0.37
47 0.37
5 -0.73
50 0.15
51 0.15
52 0.15
53 0.15
54 0.15
55 0.15
56 0.15
57 0.15
58 0.15
6 -0.55

> <PUBCHEM_EFFECTIVE_ROTOR_COUNT>
11.2

> <PUBCHEM_PHARMACOPHORE_FEATURES>
9
1 1 acceptor
1 14 hydrophobe
1 2 acceptor
1 3 acceptor
1 5 donor
1 6 donor
6 18 20 21 24 25 26 rings
6 19 22 23 27 28 29 rings
6 4 7 8 9 10 11 rings

> <PUBCHEM_HEAVY_ATOM_COUNT>
30

> <PUBCHEM_ATOM_DEF_STEREO_COUNT>
2

> <PUBCHEM_ATOM_UDEF_STEREO_COUNT>
0

> <PUBCHEM_BOND_DEF_STEREO_COUNT>
0

> <PUBCHEM_BOND_UDEF_STEREO_COUNT>
0

> <PUBCHEM_ISOTOPIC_ATOM_COUNT>
0

> <PUBCHEM_COMPONENT_COUNT>
1

> <PUBCHEM_CACTVS_TAUTO_COUNT>
4

> <PUBCHEM_CONFORMER_ID>
00B5C3F000000001

> <PUBCHEM_MMFF94_ENERGY>
83.9822

> <PUBCHEM_FEATURE_SELFOVERLAP>
45.671

> <PUBCHEM_SHAPE_FINGERPRINT>
10 15 17561080297836154780
106641 1 18059852878847195864
10670039 82 11819268958830741599
10674148 151 10879985857793369418
11456790 92 17203321166717208066
11646440 116 16415481540712552800
12013929 112 8069758402790136379
12035758 1 17704070689890910413
12120059 9 17459450200914963650
12539765 74 12247682690704662356
13782708 43 18113903758267313477
14251764 18 18201718466006112652
14294032 229 8790346441956073751
14849402 71 16343696677166753009
14931854 50 12540694799722210440
15052358 14 12540702526188859109
15183329 4 11602820189890338478
15347590 135 17775571922729978331
15352257 5 18409731768256710811
15519825 34 18260827120098900346
15706992 2 14476965626705927587
16994733 274 11815892340772000615
1768 4 16200428091627093130
190975 80 18413106164978394176
20105231 36 18339362952088736110
2026 5 17095521764726260155
20567600 247 18113338587699742627
21130935 74 18268995297719305130
21424621 283 12175627274230386701
21585482 111 12175637144065740139
21637258 2 17676207952762296916
22149856 69 17560257841827304729
23576562 1 8429725272782530683
24771293 8 16128651959602352432
2747138 104 17989213616133508688
3178227 256 17632297895308616104
3383291 50 18187370947750996291
3633792 109 8286198375631546430
3711267 37 13758069723231059026
397830 11 18131635551864970503
4058900 60 8502381027290981181
4093350 32 13470698031443391132
4169191 19 12319736943394307371
4403749 210 17561080273079233733
445580 37 8574711296006586399
504579 68 15430032172030309213
5104073 3 17416137087832451175
5718773 13 17967818253949575215
5758199 1 15267060337425000749
59682541 35 18131910468779943944
6201320 82 14331404637925239450
9689198 14 13038906642023018247

> <PUBCHEM_SHAPE_MULTIPOLES>
584.83
26.63
2.46
1.9
3.02
0.69
-0.21
17.01
15.25
2
0.4
-0.65
0.1
0.66

> <PUBCHEM_SHAPE_SELFOVERLAP>
1222.057

> <PUBCHEM_SHAPE_VOLUME>
328.4

> <PUBCHEM_COORDINATE_TYPE>
2
5
10

$$$$
