75536977
  -OEChem-12032416333D

 49 52  0     1  0  0  0  0  0999 V2000
   -2.8303   -2.7451   -0.3628 O   0  0  0  0  0  0  0  0  0  0  0  0
    3.7363   -1.6501    1.7567 O   0  0  0  0  0  0  0  0  0  0  0  0
    3.9849   -0.6644   -1.4403 O   0  0  0  0  0  0  0  0  0  0  0  0
   -0.7265   -1.7209   -0.1502 N   0  0  0  0  0  0  0  0  0  0  0  0
   -2.3800   -0.5645   -1.1391 N   0  0  0  0  0  0  0  0  0  0  0  0
    1.6197   -0.9097    1.0991 N   0  0  0  0  0  0  0  0  0  0  0  0
   -4.5973    1.8915   -0.7621 N   0  0  0  0  0  0  0  0  0  0  0  0
   -0.0943   -0.4945   -0.6059 C   0  0  1  0  0  0  0  0  0  0  0  0
   -1.2646    0.3639   -1.0783 C   0  0  0  0  0  0  0  0  0  0  0  0
    0.7360    0.1190    0.5169 C   0  0  0  0  0  0  0  0  0  0  0  0
    0.0660   -2.7366    0.5211 C   0  0  0  0  0  0  0  0  0  0  0  0
    0.9215   -2.0963    1.6129 C   0  0  0  0  0  0  0  0  0  0  0  0
   -2.0729   -1.7985   -0.5323 C   0  0  0  0  0  0  0  0  0  0  0  0
   -3.6748   -0.1730   -1.6501 C   0  0  0  0  0  0  0  0  0  0  0  0
    3.0058   -0.8112    1.2318 C   0  0  0  0  0  0  0  0  0  0  0  0
   -4.4904    0.5515   -0.6186 C   0  0  0  0  0  0  0  0  0  0  0  0
    3.6688    0.3839    0.6941 C   0  0  0  0  0  0  0  0  0  0  0  0
   -5.0820   -0.1685    0.4068 C   0  0  0  0  0  0  0  0  0  0  0  0
    4.1333    0.4143   -0.6207 C   0  0  0  0  0  0  0  0  0  0  0  0
    3.8327    1.4975    1.5177 C   0  0  0  0  0  0  0  0  0  0  0  0
   -5.8318    0.5319    1.3452 C   0  0  0  0  0  0  0  0  0  0  0  0
    4.7618    1.5585   -1.1119 C   0  0  0  0  0  0  0  0  0  0  0  0
    4.4611    2.6419    1.0265 C   0  0  0  0  0  0  0  0  0  0  0  0
   -5.3337    2.5383    0.1690 C   0  0  0  0  0  0  0  0  0  0  0  0
    4.9257    2.6725   -0.2884 C   0  0  0  0  0  0  0  0  0  0  0  0
   -5.9651    1.9113    1.2310 C   0  0  0  0  0  0  0  0  0  0  0  0
    4.4903   -0.5429   -2.7682 C   0  0  0  0  0  0  0  0  0  0  0  0
    0.5492   -0.7665   -1.4524 H   0  0  0  0  0  0  0  0  0  0  0  0
   -1.5147    1.1626   -0.3724 H   0  0  0  0  0  0  0  0  0  0  0  0
   -1.0820    0.7949   -2.0673 H   0  0  0  0  0  0  0  0  0  0  0  0
    1.2941    0.9793    0.1419 H   0  0  0  0  0  0  0  0  0  0  0  0
    0.0949    0.4749    1.3330 H   0  0  0  0  0  0  0  0  0  0  0  0
    0.7044   -3.1966   -0.2416 H   0  0  0  0  0  0  0  0  0  0  0  0
   -0.5903   -3.5107    0.9302 H   0  0  0  0  0  0  0  0  0  0  0  0
    0.2886   -1.7577    2.4420 H   0  0  0  0  0  0  0  0  0  0  0  0
    1.6302   -2.8279    2.0130 H   0  0  0  0  0  0  0  0  0  0  0  0
   -4.2153   -1.0723   -1.9688 H   0  0  0  0  0  0  0  0  0  0  0  0
   -3.5236    0.4496   -2.5391 H   0  0  0  0  0  0  0  0  0  0  0  0
   -4.9810   -1.2449    0.4872 H   0  0  0  0  0  0  0  0  0  0  0  0
    3.4745    1.4854    2.5439 H   0  0  0  0  0  0  0  0  0  0  0  0
   -6.3128    0.0038    2.1630 H   0  0  0  0  0  0  0  0  0  0  0  0
    5.1482    1.6563   -2.1205 H   0  0  0  0  0  0  0  0  0  0  0  0
    4.5886    3.5091    1.6678 H   0  0  0  0  0  0  0  0  0  0  0  0
   -5.4066    3.6126    0.0352 H   0  0  0  0  0  0  0  0  0  0  0  0
    5.4149    3.5642   -0.6697 H   0  0  0  0  0  0  0  0  0  0  0  0
   -6.5450    2.4777    1.9507 H   0  0  0  0  0  0  0  0  0  0  0  0
    4.2862   -1.4905   -3.2776 H   0  0  0  0  0  0  0  0  0  0  0  0
    5.5771   -0.4067   -2.7764 H   0  0  0  0  0  0  0  0  0  0  0  0
    3.9662    0.2377   -3.3302 H   0  0  0  0  0  0  0  0  0  0  0  0
  1 13  2  0  0  0  0
  2 15  2  0  0  0  0
  3 19  1  0  0  0  0
  3 27  1  0  0  0  0
  4  8  1  0  0  0  0
  4 11  1  0  0  0  0
  4 13  1  0  0  0  0
  5  9  1  0  0  0  0
  5 13  1  0  0  0  0
  5 14  1  0  0  0  0
  6 10  1  0  0  0  0
  6 12  1  0  0  0  0
  6 15  1  0  0  0  0
  7 16  1  0  0  0  0
  7 24  2  0  0  0  0
  8  9  1  0  0  0  0
  8 10  1  0  0  0  0
  8 28  1  0  0  0  0
  9 29  1  0  0  0  0
  9 30  1  0  0  0  0
 10 31  1  0  0  0  0
 10 32  1  0  0  0  0
 11 12  1  0  0  0  0
 11 33  1  0  0  0  0
 11 34  1  0  0  0  0
 12 35  1  0  0  0  0
 12 36  1  0  0  0  0
 14 16  1  0  0  0  0
 14 37  1  0  0  0  0
 14 38  1  0  0  0  0
 15 17  1  0  0  0  0
 16 18  2  0  0  0  0
 17 19  1  0  0  0  0
 17 20  2  0  0  0  0
 18 21  1  0  0  0  0
 18 39  1  0  0  0  0
 19 22  2  0  0  0  0
 20 23  1  0  0  0  0
 20 40  1  0  0  0  0
 21 26  2  0  0  0  0
 21 41  1  0  0  0  0
 22 25  1  0  0  0  0
 22 42  1  0  0  0  0
 23 25  2  0  0  0  0
 23 43  1  0  0  0  0
 24 26  1  0  0  0  0
 24 44  1  0  0  0  0
 25 45  1  0  0  0  0
 26 46  1  0  0  0  0
 27 47  1  0  0  0  0
 27 48  1  0  0  0  0
 27 49  1  0  0  0  0
M  END
> <PUBCHEM_COMPOUND_CID>
75536977

> <PUBCHEM_CONFORMER_RMSD>
0.8

> <PUBCHEM_CONFORMER_DIVERSEORDER>
1
225
71
147
280
191
140
212
75
265
247
185
97
178
173
167
179
150
109
129
159
183
216
8
276
87
66
243
138
272
139
258
154
268
83
117
110
120
119
53
100
168
79
200
68
238
237
16
270
18
116
62
148
284
54
211
219
6
279
157
144
137
124
290
235
262
92
230
103
161
26
201
245
281
287
5
253
84
149
267
215
34
275
132
256
264
28
56
164
27
251
273
67
73
242
207
152
104
171
227
208
72
203
125
130
271
2
115
196
220
102
160
11
76
188
234
134
175
260
204
233
60
55
222
106
78
112
266
232
289
249
41
255
218
226
190
121
30
277
99
65
90
172
244
184
189
283
145
194
192
165
31
246
209
274
176
88
36
107
151
186
57
20
286
259
224
10
111
166
25
221
69
285
114
126
51
231
228
155
61
86
187
146
9
269
24
133
17
101
193
12
29
182
49
85
254
217
288
52
205
50
63
210
177
22
236
91
141
199
122
118
33
202
74
42
95
142
240
45
250
263
82
248
81
40
198
96
206
278
223
162
39
127
163
180
32
257
131
214
113
21
80
105
58
19
239
213
64
261
169
174
181
14
252
48
128
93
46
3
241
77
135
170
4
23
89
108
13
156
38
195
143
37
70
158
123
59
7
35
94
197
43
282
15
136
47
229
44
98
153

> <PUBCHEM_MMFF94_PARTIAL_CHARGES>
35
1 -0.57
10 0.3
11 0.3
12 0.3
13 0.69
14 0.44
15 0.54
16 0.17
17 0.09
18 -0.15
19 0.08
2 -0.57
20 -0.15
21 -0.15
22 -0.15
23 -0.15
24 0.16
25 -0.15
26 -0.15
27 0.28
3 -0.36
39 0.15
4 -0.66
40 0.15
41 0.15
42 0.15
43 0.15
44 0.15
45 0.15
46 0.15
5 -0.66
6 -0.66
7 -0.62
8 0.3
9 0.3

> <PUBCHEM_EFFECTIVE_ROTOR_COUNT>
6.2

> <PUBCHEM_PHARMACOPHORE_FEATURES>
8
1 1 acceptor
1 2 acceptor
1 3 acceptor
1 7 acceptor
5 4 5 8 9 13 rings
6 17 19 20 22 23 25 rings
6 4 6 8 10 11 12 rings
6 7 16 18 21 24 26 rings

> <PUBCHEM_HEAVY_ATOM_COUNT>
27

> <PUBCHEM_ATOM_DEF_STEREO_COUNT>
1

> <PUBCHEM_ATOM_UDEF_STEREO_COUNT>
0

> <PUBCHEM_BOND_DEF_STEREO_COUNT>
0

> <PUBCHEM_BOND_UDEF_STEREO_COUNT>
0

> <PUBCHEM_ISOTOPIC_ATOM_COUNT>
0

> <PUBCHEM_COMPONENT_COUNT>
1

> <PUBCHEM_CACTVS_TAUTO_COUNT>
1

> <PUBCHEM_CONFORMER_ID>
04809A5100000001

> <PUBCHEM_MMFF94_ENERGY>
83.2266

> <PUBCHEM_FEATURE_SELFOVERLAP>
40.697

> <PUBCHEM_SHAPE_FINGERPRINT>
10794284 68 15724511174972021098
11135609 201 18263078984252523760
11720765 8 17845378757026935182
11796584 16 13542458774067585885
12390115 104 18337674221326298715
12403259 118 16081634630453064087
12422481 6 17240756246996074253
12596602 18 18040436569206566785
12788726 201 17989208114090824144
13583140 156 15938069116724191675
13782708 43 10954001677619143024
14251740 57 10953735582635229632
14251764 75 18335986471020308688
14429115 67 8934999261289400472
146900 427 18186803556426103473
14790565 3 18410853244300038209
14840074 17 18341622490737104673
14848178 5 8790882982497592761
14950920 106 16951395538673974617
15163728 17 17846782905836219695
15183329 4 13542464242067374897
15188451 53 8430327800643468732
15238133 3 18060126605402101466
16752209 62 13685755925925016014
17349148 13 10375874120946897333
17857418 61 8718834201426763417
18222031 100 10592049063545282016
19377110 9 16515965981389471059
19752476 56 18341887533168323376
20739085 24 17895194342223889620
21120745 212 18052532472712647183
21458453 9 16299820696120988545
21756936 100 18343296007273152543
23536364 44 11815626233868679419
23559900 14 17917996044942847190
249057 25 18198035076605291767
25122255 55 8430328947436718865
3004659 81 11743834772435109688
312425 54 12180112160374005949
3178227 256 17896033244401547322
3680242 22 17968644008820947672
38570 142 18339935852045739937
392239 28 15430035478601479697
4098825 35 18271534177842416598
5085150 59 12829481550992004321
5104073 3 18114448055019662754
57307002 182 14852451111572232980
57724786 102 17985268470240574721
59682541 52 15123225469328215253
613672 6 11600003266959509516
633830 44 18272643554292900158
6443934 186 15502672527840767973
7808743 9 18341045298433875763
8988823 20 12252189597092035380
960060 61 15769779078421201780

> <PUBCHEM_SHAPE_MULTIPOLES>
518.12
14.73
2.96
1.88
9.74
0.2
0.46
11.37
-0.14
-0.14
-0.75
-1.68
-0.33
-0.52

> <PUBCHEM_SHAPE_SELFOVERLAP>
1118.383

> <PUBCHEM_SHAPE_VOLUME>
283

> <PUBCHEM_COORDINATE_TYPE>
2
5
10

$$$$
