45783627
  -OEChem-12032416273D

 55 58  0     1  0  0  0  0  0999 V2000
   -2.2966   -2.3498    1.2174 O   0  0  0  0  0  0  0  0  0  0  0  0
    5.1914    1.2054   -1.2855 O   0  0  0  0  0  0  0  0  0  0  0  0
    7.7739    1.4558   -1.0370 O   0  0  0  0  0  0  0  0  0  0  0  0
   -4.0481    0.0374   -0.9597 N   0  0  1  0  0  0  0  0  0  0  0  0
   -1.3238   -0.9300   -0.2159 N   0  0  0  0  0  0  0  0  0  0  0  0
   -0.9303   -2.3603    1.5257 N   0  0  0  0  0  0  0  0  0  0  0  0
    3.2050   -1.5202    1.4471 N   0  0  0  0  0  0  0  0  0  0  0  0
    5.0151   -0.3466    0.4775 N   0  0  0  0  0  0  0  0  0  0  0  0
   -4.4059    1.0725    0.0083 C   0  0  0  0  0  0  0  0  0  0  0  0
   -3.8486   -1.2902   -0.3451 C   0  0  1  0  0  0  0  0  0  0  0  0
   -3.2984    1.2080    1.0592 C   0  0  0  0  0  0  0  0  0  0  0  0
   -4.6467    2.4018   -0.7155 C   0  0  0  0  0  0  0  0  0  0  0  0
   -5.0746   -0.1330   -1.9881 C   0  0  0  0  0  0  0  0  0  0  0  0
   -4.2101   -2.2936   -1.4560 C   0  0  0  0  0  0  0  0  0  0  0  0
   -4.6581   -1.4393   -2.6332 C   0  0  0  0  0  0  0  0  0  0  0  0
   -3.6018    2.3347    2.0453 C   0  0  0  0  0  0  0  0  0  0  0  0
   -4.9490    3.5267    0.2729 C   0  0  0  0  0  0  0  0  0  0  0  0
   -3.8541    3.6579    1.3280 C   0  0  0  0  0  0  0  0  0  0  0  0
   -2.4420   -1.4828    0.1814 C   0  0  0  0  0  0  0  0  0  0  0  0
   -0.4244   -1.4990    0.6381 C   0  0  0  0  0  0  0  0  0  0  0  0
    0.9742   -1.1861    0.5771 C   0  0  0  0  0  0  0  0  0  0  0  0
    1.4669   -0.2857   -0.3610 C   0  0  0  0  0  0  0  0  0  0  0  0
    1.8765   -1.7711    1.4508 C   0  0  0  0  0  0  0  0  0  0  0  0
    2.8276   -0.0019   -0.3961 C   0  0  0  0  0  0  0  0  0  0  0  0
    3.6471   -0.6398    0.5212 C   0  0  0  0  0  0  0  0  0  0  0  0
    5.6816    0.5249   -0.3894 C   0  0  0  0  0  0  0  0  0  0  0  0
    7.1708    0.5629   -0.1237 C   0  0  0  0  0  0  0  0  0  0  0  0
    9.1825    1.5414   -0.8436 C   0  0  0  0  0  0  0  0  0  0  0  0
   -5.3361    0.7945    0.5249 H   0  0  0  0  0  0  0  0  0  0  0  0
   -4.5564   -1.4447    0.4819 H   0  0  0  0  0  0  0  0  0  0  0  0
   -2.3320    1.4137    0.5825 H   0  0  0  0  0  0  0  0  0  0  0  0
   -3.2037    0.3088    1.6730 H   0  0  0  0  0  0  0  0  0  0  0  0
   -5.4987    2.3411   -1.4015 H   0  0  0  0  0  0  0  0  0  0  0  0
   -3.7671    2.6753   -1.3133 H   0  0  0  0  0  0  0  0  0  0  0  0
   -5.0715    0.6645   -2.7371 H   0  0  0  0  0  0  0  0  0  0  0  0
   -6.0801   -0.2262   -1.5587 H   0  0  0  0  0  0  0  0  0  0  0  0
   -3.3828   -2.9510   -1.7448 H   0  0  0  0  0  0  0  0  0  0  0  0
   -5.0424   -2.9265   -1.1245 H   0  0  0  0  0  0  0  0  0  0  0  0
   -5.4704   -1.9067   -3.1976 H   0  0  0  0  0  0  0  0  0  0  0  0
   -3.8159   -1.2778   -3.3177 H   0  0  0  0  0  0  0  0  0  0  0  0
   -4.4835    2.0708    2.6425 H   0  0  0  0  0  0  0  0  0  0  0  0
   -2.7655    2.4489    2.7444 H   0  0  0  0  0  0  0  0  0  0  0  0
   -5.9094    3.3317    0.7660 H   0  0  0  0  0  0  0  0  0  0  0  0
   -5.0541    4.4742   -0.2676 H   0  0  0  0  0  0  0  0  0  0  0  0
   -4.1353    4.4253    2.0579 H   0  0  0  0  0  0  0  0  0  0  0  0
   -2.9263    3.9957    0.8501 H   0  0  0  0  0  0  0  0  0  0  0  0
    0.8129    0.2085   -1.0751 H   0  0  0  0  0  0  0  0  0  0  0  0
    1.5733   -2.4837    2.2121 H   0  0  0  0  0  0  0  0  0  0  0  0
    3.1355    0.7047   -1.1492 H   0  0  0  0  0  0  0  0  0  0  0  0
    5.5728   -0.8402    1.1703 H   0  0  0  0  0  0  0  0  0  0  0  0
    7.5790   -0.4456   -0.2541 H   0  0  0  0  0  0  0  0  0  0  0  0
    7.3375    0.9026    0.9047 H   0  0  0  0  0  0  0  0  0  0  0  0
    9.4080    1.9128    0.1607 H   0  0  0  0  0  0  0  0  0  0  0  0
    9.6492    0.5640   -0.9989 H   0  0  0  0  0  0  0  0  0  0  0  0
    9.5878    2.2440   -1.5765 H   0  0  0  0  0  0  0  0  0  0  0  0
  1  6  1  0  0  0  0
  1 19  1  0  0  0  0
  2 26  2  0  0  0  0
  3 27  1  0  0  0  0
  3 28  1  0  0  0  0
  4  9  1  0  0  0  0
  4 10  1  0  0  0  0
  4 13  1  0  0  0  0
  5 19  2  0  0  0  0
  5 20  1  0  0  0  0
  6 20  2  0  0  0  0
  7 23  1  0  0  0  0
  7 25  2  0  0  0  0
  8 25  1  0  0  0  0
  8 26  1  0  0  0  0
  8 50  1  0  0  0  0
  9 11  1  0  0  0  0
  9 12  1  0  0  0  0
  9 29  1  0  0  0  0
 10 14  1  0  0  0  0
 10 19  1  0  0  0  0
 10 30  1  0  0  0  0
 11 16  1  0  0  0  0
 11 31  1  0  0  0  0
 11 32  1  0  0  0  0
 12 17  1  0  0  0  0
 12 33  1  0  0  0  0
 12 34  1  0  0  0  0
 13 15  1  0  0  0  0
 13 35  1  0  0  0  0
 13 36  1  0  0  0  0
 14 15  1  0  0  0  0
 14 37  1  0  0  0  0
 14 38  1  0  0  0  0
 15 39  1  0  0  0  0
 15 40  1  0  0  0  0
 16 18  1  0  0  0  0
 16 41  1  0  0  0  0
 16 42  1  0  0  0  0
 17 18  1  0  0  0  0
 17 43  1  0  0  0  0
 17 44  1  0  0  0  0
 18 45  1  0  0  0  0
 18 46  1  0  0  0  0
 20 21  1  0  0  0  0
 21 22  1  0  0  0  0
 21 23  2  0  0  0  0
 22 24  2  0  0  0  0
 22 47  1  0  0  0  0
 23 48  1  0  0  0  0
 24 25  1  0  0  0  0
 24 49  1  0  0  0  0
 26 27  1  0  0  0  0
 27 51  1  0  0  0  0
 27 52  1  0  0  0  0
 28 53  1  0  0  0  0
 28 54  1  0  0  0  0
 28 55  1  0  0  0  0
M  END
> <PUBCHEM_COMPOUND_CID>
45783627

> <PUBCHEM_CONFORMER_RMSD>
1

> <PUBCHEM_CONFORMER_DIVERSEORDER>
1
30
7
5
15
14
24
28
6
22
11
17
20
2
16
26
23
27
9
10
29
4
8
25
19
13
21
18
12
3

> <PUBCHEM_MMFF94_PARTIAL_CHARGES>
25
1 -0.02
10 0.45
13 0.27
19 0.3
2 -0.57
20 0.46
21 0.05
22 -0.15
23 0.16
24 -0.15
25 0.43
26 0.57
27 0.34
28 0.28
3 -0.56
4 -0.81
47 0.15
48 0.15
49 0.15
5 -0.57
50 0.37
6 -0.41
7 -0.62
8 -0.55
9 0.27

> <PUBCHEM_EFFECTIVE_ROTOR_COUNT>
9.2

> <PUBCHEM_PHARMACOPHORE_FEATURES>
9
1 2 acceptor
1 3 acceptor
1 4 cation
1 8 donor
3 5 6 20 cation
5 1 5 6 19 20 rings
5 4 10 13 14 15 rings
6 7 21 22 23 24 25 rings
6 9 11 12 16 17 18 rings

> <PUBCHEM_HEAVY_ATOM_COUNT>
28

> <PUBCHEM_ATOM_DEF_STEREO_COUNT>
1

> <PUBCHEM_ATOM_UDEF_STEREO_COUNT>
0

> <PUBCHEM_BOND_DEF_STEREO_COUNT>
0

> <PUBCHEM_BOND_UDEF_STEREO_COUNT>
0

> <PUBCHEM_ISOTOPIC_ATOM_COUNT>
0

> <PUBCHEM_COMPONENT_COUNT>
1

> <PUBCHEM_CACTVS_TAUTO_COUNT>
11

> <PUBCHEM_CONFORMER_ID>
02BA9A4B00000001

> <PUBCHEM_MMFF94_ENERGY>
53.0047

> <PUBCHEM_FEATURE_SELFOVERLAP>
45.683

> <PUBCHEM_SHAPE_FINGERPRINT>
10 15 15936403455903808606
10454371 7 18273498966198209444
10670039 82 18341611533789689864
10906281 52 17676785236108183686
10917259 128 18270952442098299248
11036077 4 7925913699412810525
11049842 53 17484502453348521563
11477941 20 17988913522505498029
11578080 2 17274278127554884807
11640471 11 18051122598310341787
11963148 33 11023563359130425388
12895837 130 18340771447103944633
13583140 156 14923944535643134779
13690498 29 17703219728347933319
13782708 43 10087642560149200750
14765038 42 18336554797982783677
15064981 113 17844511237066090879
15163728 17 18129948854131734711
15183329 4 18131351904183505286
15289351 153 18267019639683449080
15348495 7 12757152389886499718
1577012 14 18408886218514482976
16992828 155 18189611640684542629
1754908 1 10809618278016171284
17913733 40 15936410014102644464
18643901 69 16773511187872228031
18927931 339 12751248025008542663
21033648 144 17749101184428067039
21033648 29 15574990612072713247
21033650 10 18060423503706923419
21756936 100 18408895031407689907
21774942 28 18412266117511863708
255183 451 17269166734954578135
2838139 119 18411140264358966368
328310 18 18201444661862163225
328310 630 17968104165780724380
3610482 184 18343024350517873277
397830 11 11386658472546180894
4169191 19 17967813869172984158
437795 83 18342744056958381860
445580 204 18410575085254143488
445580 37 18342458149400893612
44802255 64 17632299003710723214
46194498 28 16772933952118594880
5104073 3 17312821576571088282
531348 171 17917994927687088087
5364581 5 13335035935605448326
563151 97 18411981338882544998
58260988 114 9943517527676252473
5937810 71 18339372941707763244
6086070 43 17703505528899549530
6328613 192 18333450937546080944
633830 44 18189898604639551563
636775 72 18336266860098521088
6608658 132 18341606005998124333
7970288 3 9942649995648494857

> <PUBCHEM_SHAPE_MULTIPOLES>
533.71
19.61
3.46
1.83
48.47
2.59
-0.29
13.42
-9.73
-6.46
0.93
-1.71
-0.47
-3.89

> <PUBCHEM_SHAPE_SELFOVERLAP>
1132.825

> <PUBCHEM_SHAPE_VOLUME>
296.8

> <PUBCHEM_COORDINATE_TYPE>
2
5
10

$$$$
