56775645
  -OEChem-12032416273D

 54 57  0     0  0  0  0  0  0999 V2000
   -2.2251   -3.1708   -1.7774 O   0  0  0  0  0  0  0  0  0  0  0  0
    1.2953    0.4882    1.5894 O   0  0  0  0  0  0  0  0  0  0  0  0
    3.7972    0.4331   -0.0782 O   0  0  0  0  0  0  0  0  0  0  0  0
   -2.5023   -0.3617   -0.4655 N   0  0  0  0  0  0  0  0  0  0  0  0
   -0.0455    0.1249    1.6231 N   0  0  0  0  0  0  0  0  0  0  0  0
   -2.0026   -1.7209   -0.2268 C   0  0  0  0  0  0  0  0  0  0  0  0
   -4.4158    1.0765    0.0850 C   0  0  0  0  0  0  0  0  0  0  0  0
   -3.4547   -0.0051    0.5745 C   0  0  0  0  0  0  0  0  0  0  0  0
   -5.2225    0.5788   -1.1221 C   0  0  0  0  0  0  0  0  0  0  0  0
   -5.3485    1.5259    1.2177 C   0  0  0  0  0  0  0  0  0  0  0  0
   -1.2229   -2.1803   -1.4534 C   0  0  0  0  0  0  0  0  0  0  0  0
   -3.0589   -2.7199   -0.6857 C   0  0  0  0  0  0  0  0  0  0  0  0
   -1.3881   -1.8870    1.1293 C   0  0  0  0  0  0  0  0  0  0  0  0
   -6.2292    1.6241   -1.5971 C   0  0  0  0  0  0  0  0  0  0  0  0
   -6.3550    2.5694    0.7388 C   0  0  0  0  0  0  0  0  0  0  0  0
   -7.1488    2.0746   -0.4664 C   0  0  0  0  0  0  0  0  0  0  0  0
   -0.0691   -1.1476    1.2168 C   0  0  0  0  0  0  0  0  0  0  0  0
    1.2142   -1.6357    0.9160 C   0  0  0  0  0  0  0  0  0  0  0  0
    2.0355   -0.5685    1.1667 C   0  0  0  0  0  0  0  0  0  0  0  0
    3.4849   -0.3573    1.0722 C   0  0  0  0  0  0  0  0  0  0  0  0
    5.1233    0.6525   -0.3246 C   0  0  0  0  0  0  0  0  0  0  0  0
    6.0891    0.1156    0.5266 C   0  0  0  0  0  0  0  0  0  0  0  0
    5.5111    1.4134   -1.4274 C   0  0  0  0  0  0  0  0  0  0  0  0
    7.4428    0.3395    0.2751 C   0  0  0  0  0  0  0  0  0  0  0  0
    6.8647    1.6374   -1.6790 C   0  0  0  0  0  0  0  0  0  0  0  0
    7.8306    1.1006   -0.8277 C   0  0  0  0  0  0  0  0  0  0  0  0
   -3.8280    1.9502   -0.2312 H   0  0  0  0  0  0  0  0  0  0  0  0
   -2.9228    0.3771    1.4540 H   0  0  0  0  0  0  0  0  0  0  0  0
   -4.0528   -0.8632    0.9081 H   0  0  0  0  0  0  0  0  0  0  0  0
   -4.5605    0.3329   -1.9603 H   0  0  0  0  0  0  0  0  0  0  0  0
   -5.7596   -0.3417   -0.8592 H   0  0  0  0  0  0  0  0  0  0  0  0
   -5.8913    0.6612    1.6207 H   0  0  0  0  0  0  0  0  0  0  0  0
   -4.7607    1.9446    2.0433 H   0  0  0  0  0  0  0  0  0  0  0  0
   -1.7825    0.3564   -0.5368 H   0  0  0  0  0  0  0  0  0  0  0  0
   -1.0999   -1.4630   -2.2725 H   0  0  0  0  0  0  0  0  0  0  0  0
   -0.2620   -2.6703   -1.2739 H   0  0  0  0  0  0  0  0  0  0  0  0
   -3.2660   -3.5402    0.0096 H   0  0  0  0  0  0  0  0  0  0  0  0
   -4.0113   -2.3334   -1.0633 H   0  0  0  0  0  0  0  0  0  0  0  0
   -1.1694   -2.9500    1.3054 H   0  0  0  0  0  0  0  0  0  0  0  0
   -2.0419   -1.6020    1.9608 H   0  0  0  0  0  0  0  0  0  0  0  0
   -6.8285    1.2125   -2.4170 H   0  0  0  0  0  0  0  0  0  0  0  0
   -5.6918    2.4921   -1.9986 H   0  0  0  0  0  0  0  0  0  0  0  0
   -5.8249    3.4923    0.4729 H   0  0  0  0  0  0  0  0  0  0  0  0
   -7.0422    2.8200    1.5548 H   0  0  0  0  0  0  0  0  0  0  0  0
   -7.8110    2.8709   -0.8243 H   0  0  0  0  0  0  0  0  0  0  0  0
   -7.7898    1.2379   -0.1623 H   0  0  0  0  0  0  0  0  0  0  0  0
    1.5032   -2.6176    0.5714 H   0  0  0  0  0  0  0  0  0  0  0  0
    3.8216    0.1516    1.9845 H   0  0  0  0  0  0  0  0  0  0  0  0
    3.9575   -1.3450    0.9948 H   0  0  0  0  0  0  0  0  0  0  0  0
    5.8652   -0.4792    1.4051 H   0  0  0  0  0  0  0  0  0  0  0  0
    4.7633    1.8342   -2.0939 H   0  0  0  0  0  0  0  0  0  0  0  0
    8.1958   -0.0768    0.9380 H   0  0  0  0  0  0  0  0  0  0  0  0
    7.1667    2.2300   -2.5376 H   0  0  0  0  0  0  0  0  0  0  0  0
    8.8845    1.2754   -1.0234 H   0  0  0  0  0  0  0  0  0  0  0  0
  1 11  1  0  0  0  0
  1 12  1  0  0  0  0
  2  5  1  0  0  0  0
  2 19  1  0  0  0  0
  3 20  1  0  0  0  0
  3 21  1  0  0  0  0
  4  6  1  0  0  0  0
  4  8  1  0  0  0  0
  4 34  1  0  0  0  0
  5 17  2  0  0  0  0
  6 11  1  0  0  0  0
  6 12  1  0  0  0  0
  6 13  1  0  0  0  0
  7  8  1  0  0  0  0
  7  9  1  0  0  0  0
  7 10  1  0  0  0  0
  7 27  1  0  0  0  0
  8 28  1  0  0  0  0
  8 29  1  0  0  0  0
  9 14  1  0  0  0  0
  9 30  1  0  0  0  0
  9 31  1  0  0  0  0
 10 15  1  0  0  0  0
 10 32  1  0  0  0  0
 10 33  1  0  0  0  0
 11 35  1  0  0  0  0
 11 36  1  0  0  0  0
 12 37  1  0  0  0  0
 12 38  1  0  0  0  0
 13 17  1  0  0  0  0
 13 39  1  0  0  0  0
 13 40  1  0  0  0  0
 14 16  1  0  0  0  0
 14 41  1  0  0  0  0
 14 42  1  0  0  0  0
 15 16  1  0  0  0  0
 15 43  1  0  0  0  0
 15 44  1  0  0  0  0
 16 45  1  0  0  0  0
 16 46  1  0  0  0  0
 17 18  1  0  0  0  0
 18 19  2  0  0  0  0
 18 47  1  0  0  0  0
 19 20  1  0  0  0  0
 20 48  1  0  0  0  0
 20 49  1  0  0  0  0
 21 22  2  0  0  0  0
 21 23  1  0  0  0  0
 22 24  1  0  0  0  0
 22 50  1  0  0  0  0
 23 25  2  0  0  0  0
 23 51  1  0  0  0  0
 24 26  2  0  0  0  0
 24 52  1  0  0  0  0
 25 26  1  0  0  0  0
 25 53  1  0  0  0  0
 26 54  1  0  0  0  0
M  END
> <PUBCHEM_COMPOUND_CID>
56775645

> <PUBCHEM_CONFORMER_RMSD>
1.2

> <PUBCHEM_CONFORMER_DIVERSEORDER>
1
92
82
26
53
58
6
104
103
37
106
35
14
59
12
22
63
56
85
29
46
111
90
41
88
54
5
51
8
33
43
73
68
44
23
49
39
87
102
16
77
64
13
28
78
21
101
109
48
95
83
108
94
45
30
31
47
98
3
52
42
72
20
89
15
32
110
80
99
17
84
36
25
61
100
105
65
18
50
60
70
74
93
24
55
76
62
75
96
71
19
9
27
97
67
4
40
79
81
11
2
38
86
10
57
7
69
107
34
66
91

> <PUBCHEM_MMFF94_PARTIAL_CHARGES>
27
1 -0.52
11 0.26
12 0.26
13 0.18
17 0.11
18 -0.15
19 -0.04
2 -0.02
20 0.46
21 0.08
22 -0.15
23 -0.15
24 -0.15
25 -0.15
26 -0.15
3 -0.36
34 0.36
4 -0.84
47 0.15
5 -0.41
50 0.15
51 0.15
52 0.15
53 0.15
54 0.15
6 0.21
8 0.27

> <PUBCHEM_EFFECTIVE_ROTOR_COUNT>
10

> <PUBCHEM_PHARMACOPHORE_FEATURES>
9
1 1 acceptor
1 3 acceptor
1 4 cation
1 4 donor
1 5 acceptor
4 1 6 11 12 rings
5 2 5 17 18 19 rings
6 21 22 23 24 25 26 rings
6 7 9 10 14 15 16 rings

> <PUBCHEM_HEAVY_ATOM_COUNT>
26

> <PUBCHEM_ATOM_DEF_STEREO_COUNT>
0

> <PUBCHEM_ATOM_UDEF_STEREO_COUNT>
0

> <PUBCHEM_BOND_DEF_STEREO_COUNT>
0

> <PUBCHEM_BOND_UDEF_STEREO_COUNT>
0

> <PUBCHEM_ISOTOPIC_ATOM_COUNT>
0

> <PUBCHEM_COMPONENT_COUNT>
1

> <PUBCHEM_CACTVS_TAUTO_COUNT>
1

> <PUBCHEM_CONFORMER_ID>
036253DD00000001

> <PUBCHEM_MMFF94_ENERGY>
54.5492

> <PUBCHEM_FEATURE_SELFOVERLAP>
45.672

> <PUBCHEM_SHAPE_FINGERPRINT>
10 15 16443067183705113345
105312 117 18202003222686075199
10670039 82 18131067100533696953
10674148 151 14548736189076658643
10835480 77 17489582416248589088
11135609 99 11023809696235563840
11200772 48 17275100643788391759
11273773 118 18411145740310471771
11475781 23 18202562896006567952
12218070 45 14924811015504958097
12895836 83 18341894095419246687
12895837 130 18263652912506369916
12977781 61 13756349034467122934
13257819 37 18059849576529406063
13540713 4 17272552078745941939
13690498 29 17843680212576924967
14840074 17 18260825969649214077
15052358 14 17846500339821686768
15183329 4 17346598543268165192
15188451 53 9727634990450525488
15338160 23 17386579071398981491
15350500 16 11530775833965555593
15575132 122 18263921043405307149
1577012 14 17967531307622268928
16120349 67 17988372460074344713
17913733 40 14851596674878220232
2026 5 12823287993023740133
20621476 66 18113901567844489880
20691028 202 17749957777375108140
21307412 95 16702310074188635078
21315764 119 18202292394549934166
21756936 100 18040435520622675019
22224240 67 15936411135089069513
23198884 109 17917992771755410289
23559900 14 16917065620633124042
23576562 1 18268707380196854437
255183 313 14923952262247135921
3610482 184 18187375363008121868
392239 28 12540701435245943343
397830 11 17168156615369242579
4015057 19 14764341695298125762
406291 66 11095883752777694540
44880568 143 16200429143725854656
5911458 16 18187087238874066660
6523845 18 17775292694638199139
6608658 132 18339913849567073325
9689198 14 17458069239800465432
9953998 17 14273458072321046937

> <PUBCHEM_SHAPE_MULTIPOLES>
507.5
22.07
2.81
1.7
20.07
1.13
0.25
-21.33
5.78
-4.14
1.05
-0.34
0.22
-2.42

> <PUBCHEM_SHAPE_SELFOVERLAP>
1072.016

> <PUBCHEM_SHAPE_VOLUME>
285.5

> <PUBCHEM_COORDINATE_TYPE>
2
5
10

$$$$
