56774062
  -OEChem-12032416323D

 51 54  0     1  0  0  0  0  0999 V2000
    7.2492   -3.2648    0.3042 F   0  0  0  0  0  0  0  0  0  0  0  0
    3.6307    1.8682    0.2221 O   0  0  0  0  0  0  0  0  0  0  0  0
   -3.5568    0.7490    0.2985 N   0  0  0  0  0  0  0  0  0  0  0  0
    2.5566    2.7281    0.0269 N   0  0  0  0  0  0  0  0  0  0  0  0
   -5.0915   -3.4714   -0.6853 N   0  0  0  0  0  0  0  0  0  0  0  0
   -2.1628    2.7736   -0.0424 C   0  0  0  0  0  0  0  0  0  0  0  0
   -0.6847    2.4549    0.2650 C   0  0  1  0  0  0  0  0  0  0  0  0
   -2.5301    1.6047    0.8951 C   0  0  2  0  0  0  0  0  0  0  0  0
   -1.1403    1.0144    0.5782 C   0  0  0  0  0  0  0  0  0  0  0  0
    0.3121    2.5716   -0.8958 C   0  0  0  0  0  0  0  0  0  0  0  0
   -2.5863    4.1656    0.3753 C   0  0  0  0  0  0  0  0  0  0  0  0
   -2.6046    2.5170   -1.4732 C   0  0  0  0  0  0  0  0  0  0  0  0
    1.6108    1.9759   -0.5427 C   0  0  0  0  0  0  0  0  0  0  0  0
   -3.7493   -0.4331    1.1308 C   0  0  0  0  0  0  0  0  0  0  0  0
    2.0267    0.6464   -0.7298 C   0  0  0  0  0  0  0  0  0  0  0  0
   -4.7191   -1.4036    0.5106 C   0  0  0  0  0  0  0  0  0  0  0  0
    3.3030    0.6316   -0.2325 C   0  0  0  0  0  0  0  0  0  0  0  0
   -6.0888   -1.1660    0.5412 C   0  0  0  0  0  0  0  0  0  0  0  0
   -4.2753   -2.5606   -0.1092 C   0  0  0  0  0  0  0  0  0  0  0  0
    4.3250   -0.3770   -0.0945 C   0  0  0  0  0  0  0  0  0  0  0  0
   -6.9604   -2.0799   -0.0407 C   0  0  0  0  0  0  0  0  0  0  0  0
   -6.4163   -3.2066   -0.6360 C   0  0  0  0  0  0  0  0  0  0  0  0
    4.0825   -1.6798   -0.5298 C   0  0  0  0  0  0  0  0  0  0  0  0
    5.5553   -0.0497    0.4751 C   0  0  0  0  0  0  0  0  0  0  0  0
    5.0703   -2.6554   -0.3953 C   0  0  0  0  0  0  0  0  0  0  0  0
    6.5432   -1.0251    0.6098 C   0  0  0  0  0  0  0  0  0  0  0  0
    6.3006   -2.3280    0.1746 C   0  0  0  0  0  0  0  0  0  0  0  0
   -0.3152    2.9750    1.1623 H   0  0  0  0  0  0  0  0  0  0  0  0
   -2.6861    1.8870    1.9432 H   0  0  0  0  0  0  0  0  0  0  0  0
   -1.0926    0.3213   -0.2715 H   0  0  0  0  0  0  0  0  0  0  0  0
   -0.6327    0.5449    1.4270 H   0  0  0  0  0  0  0  0  0  0  0  0
    0.4382    3.6294   -1.1583 H   0  0  0  0  0  0  0  0  0  0  0  0
   -0.0592    2.0733   -1.7985 H   0  0  0  0  0  0  0  0  0  0  0  0
   -3.6726    4.2875    0.3030 H   0  0  0  0  0  0  0  0  0  0  0  0
   -2.1176    4.9301   -0.2541 H   0  0  0  0  0  0  0  0  0  0  0  0
   -2.3052    4.3768    1.4130 H   0  0  0  0  0  0  0  0  0  0  0  0
   -3.6915    2.6147   -1.5846 H   0  0  0  0  0  0  0  0  0  0  0  0
   -2.3174    1.5334   -1.8616 H   0  0  0  0  0  0  0  0  0  0  0  0
   -2.1650    3.2592   -2.1512 H   0  0  0  0  0  0  0  0  0  0  0  0
   -4.4527    1.2247    0.1874 H   0  0  0  0  0  0  0  0  0  0  0  0
   -4.1265   -0.1467    2.1215 H   0  0  0  0  0  0  0  0  0  0  0  0
   -2.7987   -0.9527    1.3049 H   0  0  0  0  0  0  0  0  0  0  0  0
    1.4727   -0.1733   -1.1635 H   0  0  0  0  0  0  0  0  0  0  0  0
   -6.4875   -0.2737    1.0158 H   0  0  0  0  0  0  0  0  0  0  0  0
   -3.2183   -2.8016   -0.1681 H   0  0  0  0  0  0  0  0  0  0  0  0
   -8.0317   -1.9154   -0.0287 H   0  0  0  0  0  0  0  0  0  0  0  0
   -7.0534   -3.9499   -1.1039 H   0  0  0  0  0  0  0  0  0  0  0  0
    3.1338   -1.9646   -0.9773 H   0  0  0  0  0  0  0  0  0  0  0  0
    5.7814    0.9540    0.8260 H   0  0  0  0  0  0  0  0  0  0  0  0
    4.8821   -3.6700   -0.7338 H   0  0  0  0  0  0  0  0  0  0  0  0
    7.5014   -0.7712    1.0535 H   0  0  0  0  0  0  0  0  0  0  0  0
  1 27  1  0  0  0  0
  2  4  1  0  0  0  0
  2 17  1  0  0  0  0
  3  8  1  0  0  0  0
  3 14  1  0  0  0  0
  3 40  1  0  0  0  0
  4 13  2  0  0  0  0
  5 19  1  0  0  0  0
  5 22  2  0  0  0  0
  6  7  1  0  0  0  0
  6  8  1  0  0  0  0
  6 11  1  0  0  0  0
  6 12  1  0  0  0  0
  7  9  1  0  0  0  0
  7 10  1  0  0  0  0
  7 28  1  0  0  0  0
  8  9  1  0  0  0  0
  8 29  1  0  0  0  0
  9 30  1  0  0  0  0
  9 31  1  0  0  0  0
 10 13  1  0  0  0  0
 10 32  1  0  0  0  0
 10 33  1  0  0  0  0
 11 34  1  0  0  0  0
 11 35  1  0  0  0  0
 11 36  1  0  0  0  0
 12 37  1  0  0  0  0
 12 38  1  0  0  0  0
 12 39  1  0  0  0  0
 13 15  1  0  0  0  0
 14 16  1  0  0  0  0
 14 41  1  0  0  0  0
 14 42  1  0  0  0  0
 15 17  2  0  0  0  0
 15 43  1  0  0  0  0
 16 18  1  0  0  0  0
 16 19  2  0  0  0  0
 17 20  1  0  0  0  0
 18 21  2  0  0  0  0
 18 44  1  0  0  0  0
 19 45  1  0  0  0  0
 20 23  2  0  0  0  0
 20 24  1  0  0  0  0
 21 22  1  0  0  0  0
 21 46  1  0  0  0  0
 22 47  1  0  0  0  0
 23 25  1  0  0  0  0
 23 48  1  0  0  0  0
 24 26  2  0  0  0  0
 24 49  1  0  0  0  0
 25 27  2  0  0  0  0
 25 50  1  0  0  0  0
 26 27  1  0  0  0  0
 26 51  1  0  0  0  0
M  END
> <PUBCHEM_COMPOUND_CID>
56774062

> <PUBCHEM_CONFORMER_RMSD>
1

> <PUBCHEM_CONFORMER_DIVERSEORDER>
1
42
64
41
9
105
81
16
60
92
35
38
73
50
99
70
61
23
85
112
68
88
67
31
96
87
97
71
91
59
53
78
54
39
93
62
94
27
108
15
75
4
11
44
48
74
45
17
46
20
72
58
89
56
34
107
13
95
12
51
63
109
103
83
32
77
18
80
33
111
52
22
84
102
57
110
106
98
47
7
40
43
8
36
10
90
65
21
19
79
5
55
66
6
37
24
29
49
86
101
28
82
25
3
2
104
26
100
76
30
14
69

> <PUBCHEM_MMFF94_PARTIAL_CHARGES>
32
1 -0.19
10 0.18
13 0.11
14 0.41
15 -0.15
16 -0.14
17 0.09
18 -0.15
19 0.16
2 -0.02
20 0.05
21 -0.15
22 0.16
23 -0.15
24 -0.15
25 -0.15
26 -0.15
27 0.19
3 -0.84
4 -0.41
40 0.36
43 0.15
44 0.15
45 0.15
46 0.15
47 0.15
48 0.15
49 0.15
5 -0.62
50 0.15
51 0.15
8 0.21

> <PUBCHEM_EFFECTIVE_ROTOR_COUNT>
6.8

> <PUBCHEM_PHARMACOPHORE_FEATURES>
9
1 3 cation
1 3 donor
1 4 acceptor
1 5 acceptor
3 6 11 12 hydrophobe
4 6 7 8 9 rings
5 2 4 13 15 17 rings
6 20 23 24 25 26 27 rings
6 5 16 18 19 21 22 rings

> <PUBCHEM_HEAVY_ATOM_COUNT>
27

> <PUBCHEM_ATOM_DEF_STEREO_COUNT>
2

> <PUBCHEM_ATOM_UDEF_STEREO_COUNT>
0

> <PUBCHEM_BOND_DEF_STEREO_COUNT>
0

> <PUBCHEM_BOND_UDEF_STEREO_COUNT>
0

> <PUBCHEM_ISOTOPIC_ATOM_COUNT>
0

> <PUBCHEM_COMPONENT_COUNT>
1

> <PUBCHEM_CACTVS_TAUTO_COUNT>
1

> <PUBCHEM_CONFORMER_ID>
03624DAE00000001

> <PUBCHEM_MMFF94_ENERGY>
66.31

> <PUBCHEM_FEATURE_SELFOVERLAP>
45.671

> <PUBCHEM_SHAPE_FINGERPRINT>
10050765 1 18410577279672046388
10622 236 18260829288962016558
10693767 8 18196082477452003027
10939801 23 18129099103721438134
11069576 57 18044383961241069253
11211813 128 18412826881516822450
11409948 35 18049445044663888555
11410812 94 16443891800725709204
11796584 16 18120936106058802432
12107183 9 18270980011551186257
12390115 104 10447922884310986369
12422481 6 17417823846001600775
12645989 146 18410863148568930586
12760667 363 18335142007782974897
13533116 47 18337956804299031296
13540713 5 18263104187153193845
13911852 28 18339923835460423269
13944108 23 10412194782627398875
14068700 675 18409731776530237913
14251751 18 18412827967067083328
14344974 204 18339643318352272806
14347332 77 18409168805149270945
14429380 30 18335989735042466562
1454969 45 18120661485634229212
14866123 147 18339089194724664185
14910700 183 17695054896613352464
14950920 106 17704357671000137345
15274700 208 16700607034679474938
15361156 5 18042424485375399952
15705408 1 17677637331623444292
15728490 51 18342174514440521134
15803439 3 17101405105718503037
17492 89 18410855469024668616
18393751 57 10951785088168292373
19315092 285 17773884262395917929
20028762 73 18342460356856555950
208703 8 18409161134253992395
21033648 29 14261091848132152305
21197605 99 18342458162687235326
21307412 95 18118116970528856476
21315763 87 18201718487681292794
21585480 29 17630024195609980950
21585483 132 18196355121723317415
229767 44 18060136574196210847
23559900 14 18409159983487899008
23569914 152 18125412411744618375
23569943 247 18409733972108489683
23622692 118 18408044013260003832
25122255 55 18410295782992684684
270888 7 9583519806458640248
32027 91 18269829973637735729
397830 11 18272358760282299104
4073 2 18267303124071078488
444735 86 18040712529139652050
463206 1 18191592050172552259
484985 159 18338516344723815309
5104073 3 18060140929277055776
513202 73 18334576854659062693
5718773 13 18409446994360111570
5874358 3 16879330248788148802
6058803 2 18191895424682070941
6431902 208 18411132528653498118
6712543 237 16415488151253252031
7970288 3 18339359785674017015
8863177 126 18412263905260340634
96874 4 18343017843748622783

> <PUBCHEM_SHAPE_MULTIPOLES>
527.56
19.21
5.21
0.95
6.72
0.53
-0.08
-26.09
1.45
-3.65
-0.72
-0.48
0.21
-0.87

> <PUBCHEM_SHAPE_SELFOVERLAP>
1143.304

> <PUBCHEM_SHAPE_VOLUME>
291.4

> <PUBCHEM_COORDINATE_TYPE>
2
5
10

$$$$
