11884043
  -OEChem-12032416173D

 65 70  0     1  0  0  0  0  0999 V2000
    5.6780    1.6934   -1.8593 S   0  0  0  0  0  0  0  0  0  0  0  0
    1.5416    2.8587    0.2509 O   0  0  0  0  0  0  0  0  0  0  0  0
    3.1046    0.7357    1.8357 O   0  0  0  0  0  0  0  0  0  0  0  0
   -0.4111    1.3405    1.5060 O   0  0  0  0  0  0  0  0  0  0  0  0
    6.7427    2.3520   -1.1266 O   0  0  0  0  0  0  0  0  0  0  0  0
    5.6920    1.6772   -3.3095 O   0  0  0  0  0  0  0  0  0  0  0  0
   -1.4352   -0.0857    0.0407 O   0  0  0  0  0  0  0  0  0  0  0  0
   -7.8767    0.7866   -0.5023 O   0  0  0  0  0  0  0  0  0  0  0  0
    4.1776    2.2892   -1.3338 N   0  0  0  0  0  0  0  0  0  0  0  0
   -2.6407    1.5341    1.2254 N   0  0  0  0  0  0  0  0  0  0  0  0
    3.0339    1.0218    0.4232 C   0  0  1  0  0  0  0  0  0  0  0  0
    1.6038    1.4281    0.1277 C   0  0  1  0  0  0  0  0  0  0  0  0
    3.8369    2.2595    0.1086 C   0  0  2  0  0  0  0  0  0  0  0  0
    0.8324    0.7381    1.2270 C   0  0  1  0  0  0  0  0  0  0  0  0
    2.8673    3.3803    0.4293 C   0  0  0  0  0  0  0  0  0  0  0  0
    1.7871    0.8361    2.3953 C   0  0  0  0  0  0  0  0  0  0  0  0
    5.6095    0.0096   -1.3256 C   0  0  0  0  0  0  0  0  0  0  0  0
   -1.5106    0.8390    0.8406 C   0  0  0  0  0  0  0  0  0  0  0  0
    6.0777   -0.3402   -0.0589 C   0  0  0  0  0  0  0  0  0  0  0  0
    5.0888   -0.9667   -2.1698 C   0  0  0  0  0  0  0  0  0  0  0  0
    6.0309   -1.6735    0.3796 C   0  0  0  0  0  0  0  0  0  0  0  0
    5.0342   -2.2962   -1.7505 C   0  0  0  0  0  0  0  0  0  0  0  0
    5.5012   -2.6663   -0.4787 C   0  0  0  0  0  0  0  0  0  0  0  0
   -3.9711    1.3432    0.7877 C   0  0  0  0  0  0  0  0  0  0  0  0
    6.4975   -2.0433    1.6516 C   0  0  0  0  0  0  0  0  0  0  0  0
    5.4545   -3.9996   -0.0401 C   0  0  0  0  0  0  0  0  0  0  0  0
    6.4435   -3.3728    2.0710 C   0  0  0  0  0  0  0  0  0  0  0  0
   -4.9932    2.1479    1.2910 C   0  0  0  0  0  0  0  0  0  0  0  0
   -4.2616    0.3511   -0.1487 C   0  0  0  0  0  0  0  0  0  0  0  0
    5.9231   -4.3491    1.2267 C   0  0  0  0  0  0  0  0  0  0  0  0
   -6.3059    1.9605    0.8581 C   0  0  0  0  0  0  0  0  0  0  0  0
   -5.5742    0.1634   -0.5817 C   0  0  0  0  0  0  0  0  0  0  0  0
   -6.5963    0.9681   -0.0782 C   0  0  0  0  0  0  0  0  0  0  0  0
   -8.3523   -0.5119   -0.5768 C   0  0  0  0  0  0  0  0  0  0  0  0
   -8.1130   -1.4033    0.4692 C   0  0  0  0  0  0  0  0  0  0  0  0
   -9.0696   -0.9288   -1.6979 C   0  0  0  0  0  0  0  0  0  0  0  0
   -8.5912   -2.7116    0.3938 C   0  0  0  0  0  0  0  0  0  0  0  0
   -9.5478   -2.2370   -1.7733 C   0  0  0  0  0  0  0  0  0  0  0  0
   -9.3085   -3.1283   -0.7274 C   0  0  0  0  0  0  0  0  0  0  0  0
    3.2982    0.1085   -0.1077 H   0  0  0  0  0  0  0  0  0  0  0  0
    1.2630    1.1671   -0.8785 H   0  0  0  0  0  0  0  0  0  0  0  0
    4.7429    2.3691    0.7124 H   0  0  0  0  0  0  0  0  0  0  0  0
    0.7246   -0.3279    0.9834 H   0  0  0  0  0  0  0  0  0  0  0  0
    2.9935    4.2678   -0.1983 H   0  0  0  0  0  0  0  0  0  0  0  0
    2.9548    3.6847    1.4780 H   0  0  0  0  0  0  0  0  0  0  0  0
    1.6994    1.7909    2.9259 H   0  0  0  0  0  0  0  0  0  0  0  0
    1.6361    0.0350    3.1251 H   0  0  0  0  0  0  0  0  0  0  0  0
    3.3868    2.2967   -1.9901 H   0  0  0  0  0  0  0  0  0  0  0  0
    6.4818    0.4235    0.6026 H   0  0  0  0  0  0  0  0  0  0  0  0
    4.7114   -0.7156   -3.1569 H   0  0  0  0  0  0  0  0  0  0  0  0
   -2.5021    2.2753    1.9078 H   0  0  0  0  0  0  0  0  0  0  0  0
    4.6212   -3.0424   -2.4262 H   0  0  0  0  0  0  0  0  0  0  0  0
    6.9080   -1.2968    2.3285 H   0  0  0  0  0  0  0  0  0  0  0  0
    5.0516   -4.7793   -0.6832 H   0  0  0  0  0  0  0  0  0  0  0  0
    6.8077   -3.6455    3.0572 H   0  0  0  0  0  0  0  0  0  0  0  0
    5.8812   -5.3840    1.5538 H   0  0  0  0  0  0  0  0  0  0  0  0
   -4.7804    2.9248    2.0209 H   0  0  0  0  0  0  0  0  0  0  0  0
   -3.5224   -0.3053   -0.5865 H   0  0  0  0  0  0  0  0  0  0  0  0
   -7.0981    2.5904    1.2535 H   0  0  0  0  0  0  0  0  0  0  0  0
   -5.7687   -0.6010   -1.3295 H   0  0  0  0  0  0  0  0  0  0  0  0
   -7.5763   -1.0991    1.3638 H   0  0  0  0  0  0  0  0  0  0  0  0
   -9.2584   -0.2388   -2.5157 H   0  0  0  0  0  0  0  0  0  0  0  0
   -8.4092   -3.4044    1.2102 H   0  0  0  0  0  0  0  0  0  0  0  0
  -10.1064   -2.5615   -2.6463 H   0  0  0  0  0  0  0  0  0  0  0  0
   -9.6818   -4.1466   -0.7856 H   0  0  0  0  0  0  0  0  0  0  0  0
  1  5  2  0  0  0  0
  1  6  2  0  0  0  0
  1  9  1  0  0  0  0
  1 17  1  0  0  0  0
  2 12  1  0  0  0  0
  2 15  1  0  0  0  0
  3 11  1  0  0  0  0
  3 16  1  0  0  0  0
  4 14  1  0  0  0  0
  4 18  1  0  0  0  0
  7 18  2  0  0  0  0
  8 33  1  0  0  0  0
  8 34  1  0  0  0  0
  9 13  1  0  0  0  0
  9 48  1  0  0  0  0
 10 18  1  0  0  0  0
 10 24  1  0  0  0  0
 10 51  1  0  0  0  0
 11 12  1  0  0  0  0
 11 13  1  0  0  0  0
 11 40  1  0  0  0  0
 12 14  1  0  0  0  0
 12 41  1  0  0  0  0
 13 15  1  0  0  0  0
 13 42  1  0  0  0  0
 14 16  1  0  0  0  0
 14 43  1  0  0  0  0
 15 44  1  0  0  0  0
 15 45  1  0  0  0  0
 16 46  1  0  0  0  0
 16 47  1  0  0  0  0
 17 19  2  0  0  0  0
 17 20  1  0  0  0  0
 19 21  1  0  0  0  0
 19 49  1  0  0  0  0
 20 22  2  0  0  0  0
 20 50  1  0  0  0  0
 21 23  1  0  0  0  0
 21 25  2  0  0  0  0
 22 23  1  0  0  0  0
 22 52  1  0  0  0  0
 23 26  2  0  0  0  0
 24 28  2  0  0  0  0
 24 29  1  0  0  0  0
 25 27  1  0  0  0  0
 25 53  1  0  0  0  0
 26 30  1  0  0  0  0
 26 54  1  0  0  0  0
 27 30  2  0  0  0  0
 27 55  1  0  0  0  0
 28 31  1  0  0  0  0
 28 57  1  0  0  0  0
 29 32  2  0  0  0  0
 29 58  1  0  0  0  0
 30 56  1  0  0  0  0
 31 33  2  0  0  0  0
 31 59  1  0  0  0  0
 32 33  1  0  0  0  0
 32 60  1  0  0  0  0
 34 35  2  0  0  0  0
 34 36  1  0  0  0  0
 35 37  1  0  0  0  0
 35 61  1  0  0  0  0
 36 38  2  0  0  0  0
 36 62  1  0  0  0  0
 37 39  2  0  0  0  0
 37 63  1  0  0  0  0
 38 39  1  0  0  0  0
 38 64  1  0  0  0  0
 39 65  1  0  0  0  0
M  END
> <PUBCHEM_COMPOUND_CID>
11884043

> <PUBCHEM_CONFORMER_RMSD>
1.4

> <PUBCHEM_CONFORMER_DIVERSEORDER>
1
151
22
113
139
59
91
133
87
148
27
127
155
116
134
154
67
119
167
9
140
47
98
48
13
101
130
37
150
29
169
5
152
6
161
103
71
144
153
149
35
106
111
170
39
88
168
34
74
68
66
97
80
64
171
142
69
99
100
25
96
128
33
30
160
141
145
118
85
83
124
110
76
158
23
63
41
52
104
73
21
117
138
143
77
3
2
62
61
94
164
20
108
19
132
82
79
129
121
7
159
16
72
70
55
114
65
107
137
24
45
31
163
109
12
28
92
122
125
165
50
15
58
81
120
156
14
51
93
157
42
44
162
95
38
46
60
18
43
4
56
54
36
89
17
147
8
112
10
126
86
32
136
135
40
166
90
26
49
102
11
57
105
53
146
123
115
75
131
84
78

> <PUBCHEM_MMFF94_PARTIAL_CHARGES>
55
1 1.45
10 -0.55
11 0.28
12 0.28
13 0.36
14 0.28
15 0.28
16 0.28
17 -0.01
18 0.78
19 -0.15
2 -0.56
20 -0.15
22 -0.15
24 0.12
25 -0.15
26 -0.15
27 -0.15
28 -0.15
29 -0.15
3 -0.56
30 -0.15
31 -0.15
32 -0.15
33 0.08
34 0.08
35 -0.15
36 -0.15
37 -0.15
38 -0.15
39 -0.15
4 -0.43
48 0.42
49 0.15
5 -0.65
50 0.15
51 0.37
52 0.15
53 0.15
54 0.15
55 0.15
56 0.15
57 0.15
58 0.15
59 0.15
6 -0.65
60 0.15
61 0.15
62 0.15
63 0.15
64 0.15
65 0.15
7 -0.57
8 -0.17
9 -0.91

> <PUBCHEM_EFFECTIVE_ROTOR_COUNT>
10.2

> <PUBCHEM_PHARMACOPHORE_FEATURES>
14
1 10 donor
1 2 acceptor
1 3 acceptor
1 5 acceptor
1 6 acceptor
1 7 acceptor
1 8 acceptor
1 9 donor
5 2 11 12 13 15 rings
5 3 11 12 14 16 rings
6 17 19 20 21 22 23 rings
6 21 23 25 26 27 30 rings
6 24 28 29 31 32 33 rings
6 34 35 36 37 38 39 rings

> <PUBCHEM_HEAVY_ATOM_COUNT>
39

> <PUBCHEM_ATOM_DEF_STEREO_COUNT>
4

> <PUBCHEM_ATOM_UDEF_STEREO_COUNT>
0

> <PUBCHEM_BOND_DEF_STEREO_COUNT>
0

> <PUBCHEM_BOND_UDEF_STEREO_COUNT>
0

> <PUBCHEM_ISOTOPIC_ATOM_COUNT>
0

> <PUBCHEM_COMPONENT_COUNT>
1

> <PUBCHEM_CACTVS_TAUTO_COUNT>
2

> <PUBCHEM_CONFORMER_ID>
00B5560B00000001

> <PUBCHEM_MMFF94_ENERGY>
115.0407

> <PUBCHEM_FEATURE_SELFOVERLAP>
71.809

> <PUBCHEM_SHAPE_FINGERPRINT>
10162869 55 18259703402721044518
10693767 8 18335420119589257496
11135609 127 18115877476683321372
11386260 185 17240485839881645044
11607047 191 17557690655258237088
11672396 43 18272087193636819571
11828042 291 17241587460734196771
12013929 112 13190622677142096082
125118 31 7925915876713368127
12539765 74 10809341114216383065
13008946 119 8315605737836085636
13627175 4 17489581317021700535
13782708 43 17989488489972468937
14347332 77 18269277867913040208
14395042 70 11527942379520766674
14537116 161 13407081379566127406
15183329 4 18271537420073927788
15336146 87 15068612760597717429
15684393 108 18336826489529831775
16990366 60 18059849567717730761
17134984 74 18202008741856070692
17324776 126 17757264887004514106
1754908 1 14117799137730101263
21133410 171 15939481921485904978
21362857 166 18408315601459103271
21781051 124 17988927812204167375
21895439 516 18113620084457803547
23569943 247 18193839236996202883
3711267 37 11674886563031895591
4066623 53 17386288684697707332
4169191 19 12252179655144942175
42767 39 18271524204607186515
4625314 4 18409163308667688317
504579 68 17167861976686975729
5951187 136 13047101324846878894
59682541 52 18114187410924435224
9831232 110 18341891853530805415

> <PUBCHEM_SHAPE_MULTIPOLES>
755.4
32.89
4.62
2.15
72.05
3.45
-0.66
26.86
-10.82
-6.02
0.71
-3.41
0.02
-5.61

> <PUBCHEM_SHAPE_SELFOVERLAP>
1657.276

> <PUBCHEM_SHAPE_VOLUME>
407.7

> <PUBCHEM_COORDINATE_TYPE>
2
5
10

$$$$
