11883062
  -OEChem-12032416133D

 73 77  0     1  0  0  0  0  0999 V2000
    0.0435    2.7359    0.4627 S   0  0  0  0  0  0  0  0  0  0  0  0
    8.6116    2.8215    0.1364 F   0  0  0  0  0  0  0  0  0  0  0  0
   -7.4668    0.7696   -0.7015 O   0  0  0  0  0  0  0  0  0  0  0  0
   -7.0695    2.2819    1.1149 O   0  0  0  0  0  0  0  0  0  0  0  0
    0.1509   -1.8557   -1.8195 O   0  0  0  0  0  0  0  0  0  0  0  0
    3.3187   -0.4355   -0.4787 O   0  0  0  0  0  0  0  0  0  0  0  0
    0.4596    0.2732   -0.2115 N   0  0  0  0  0  0  0  0  0  0  0  0
    0.9169   -3.0783    0.0015 N   0  0  0  0  0  0  0  0  0  0  0  0
    2.4071    1.6563    0.1113 N   0  0  0  0  0  0  0  0  0  0  0  0
   -3.3326   -0.3286    0.1418 C   0  0  2  0  0  0  0  0  0  0  0  0
   -3.6887    1.1641   -0.2832 C   0  0  1  0  0  0  0  0  0  0  0  0
   -5.2066    1.5868   -0.2093 C   0  0  1  0  0  0  0  0  0  0  0  0
   -1.8731   -0.6649   -0.4154 C   0  0  1  0  0  0  0  0  0  0  0  0
   -4.3429   -1.3061   -0.5130 C   0  0  0  0  0  0  0  0  0  0  0  0
   -6.0791    0.4798   -0.8662 C   0  0  1  0  0  0  0  0  0  0  0  0
   -2.7197    2.1893    0.3747 C   0  0  0  0  0  0  0  0  0  0  0  0
   -5.7996   -0.9131   -0.3128 C   0  0  0  0  0  0  0  0  0  0  0  0
   -3.3594   -0.5397    1.6756 C   0  0  0  0  0  0  0  0  0  0  0  0
   -0.9079    0.4534   -0.1165 C   0  0  0  0  0  0  0  0  0  0  0  0
   -5.7118    1.9144    1.2132 C   0  0  0  0  0  0  0  0  0  0  0  0
   -5.4114    2.8881   -1.0355 C   0  0  0  0  0  0  0  0  0  0  0  0
   -1.3093    1.7306    0.2182 C   0  0  0  0  0  0  0  0  0  0  0  0
   -1.3163   -2.0226    0.0333 C   0  0  0  0  0  0  0  0  0  0  0  0
   -0.0205   -2.3061   -0.6838 C   0  0  0  0  0  0  0  0  0  0  0  0
    1.0608    1.4065    0.0793 C   0  0  0  0  0  0  0  0  0  0  0  0
    0.7599   -3.5901    1.3688 C   0  0  0  0  0  0  0  0  0  0  0  0
    2.1989   -3.3988   -0.6298 C   0  0  0  0  0  0  0  0  0  0  0  0
    0.9818   -5.1004    1.4108 C   0  0  0  0  0  0  0  0  0  0  0  0
    2.4473   -4.9046   -0.6269 C   0  0  0  0  0  0  0  0  0  0  0  0
    2.3207   -5.4829    0.7817 C   0  0  0  0  0  0  0  0  0  0  0  0
    3.4380    0.7431   -0.1629 C   0  0  0  0  0  0  0  0  0  0  0  0
    4.8161    1.2961   -0.0825 C   0  0  0  0  0  0  0  0  0  0  0  0
    5.8110    0.7140   -0.8392 C   0  0  0  0  0  0  0  0  0  0  0  0
    5.0531    2.3733    0.7451 C   0  0  0  0  0  0  0  0  0  0  0  0
    7.1034    1.2336   -0.7648 C   0  0  0  0  0  0  0  0  0  0  0  0
    6.3454    2.8928    0.8192 C   0  0  0  0  0  0  0  0  0  0  0  0
    7.3706    2.3229    0.0644 C   0  0  0  0  0  0  0  0  0  0  0  0
   -3.4554    1.1945   -1.3619 H   0  0  0  0  0  0  0  0  0  0  0  0
   -1.9629   -0.6797   -1.5125 H   0  0  0  0  0  0  0  0  0  0  0  0
   -4.2031   -2.3218   -0.1246 H   0  0  0  0  0  0  0  0  0  0  0  0
   -4.1509   -1.3634   -1.5927 H   0  0  0  0  0  0  0  0  0  0  0  0
   -5.8860    0.4549   -1.9473 H   0  0  0  0  0  0  0  0  0  0  0  0
   -2.9396    2.3051    1.4413 H   0  0  0  0  0  0  0  0  0  0  0  0
   -2.8330    3.1718   -0.0952 H   0  0  0  0  0  0  0  0  0  0  0  0
   -6.4448   -1.6386   -0.8247 H   0  0  0  0  0  0  0  0  0  0  0  0
   -6.0860   -0.9762    0.7429 H   0  0  0  0  0  0  0  0  0  0  0  0
   -4.3305   -0.3315    2.1175 H   0  0  0  0  0  0  0  0  0  0  0  0
   -3.1519   -1.5837    1.9355 H   0  0  0  0  0  0  0  0  0  0  0  0
   -2.6202    0.0747    2.1973 H   0  0  0  0  0  0  0  0  0  0  0  0
   -5.6764    1.0603    1.8834 H   0  0  0  0  0  0  0  0  0  0  0  0
   -5.1578    2.7338    1.6817 H   0  0  0  0  0  0  0  0  0  0  0  0
   -4.9223    3.7470   -0.5639 H   0  0  0  0  0  0  0  0  0  0  0  0
   -4.9887    2.7807   -2.0415 H   0  0  0  0  0  0  0  0  0  0  0  0
   -6.4634    3.1588   -1.1678 H   0  0  0  0  0  0  0  0  0  0  0  0
   -1.1526   -1.9439    1.1065 H   0  0  0  0  0  0  0  0  0  0  0  0
   -2.0043   -2.8466   -0.1732 H   0  0  0  0  0  0  0  0  0  0  0  0
   -7.7023    1.4773   -1.3239 H   0  0  0  0  0  0  0  0  0  0  0  0
   -7.1113    3.2371    0.9389 H   0  0  0  0  0  0  0  0  0  0  0  0
   -0.2212   -3.4005    1.7984 H   0  0  0  0  0  0  0  0  0  0  0  0
    1.4981   -3.0749    1.9945 H   0  0  0  0  0  0  0  0  0  0  0  0
    2.9817   -2.8974   -0.0509 H   0  0  0  0  0  0  0  0  0  0  0  0
    2.2407   -3.0148   -1.6535 H   0  0  0  0  0  0  0  0  0  0  0  0
    2.6316    2.6244    0.3178 H   0  0  0  0  0  0  0  0  0  0  0  0
    0.9439   -5.4546    2.4469 H   0  0  0  0  0  0  0  0  0  0  0  0
    0.1728   -5.6024    0.8655 H   0  0  0  0  0  0  0  0  0  0  0  0
    1.7177   -5.3951   -1.2833 H   0  0  0  0  0  0  0  0  0  0  0  0
    3.4431   -5.1194   -1.0298 H   0  0  0  0  0  0  0  0  0  0  0  0
    2.4172   -6.5737    0.7462 H   0  0  0  0  0  0  0  0  0  0  0  0
    3.1396   -5.1067    1.4069 H   0  0  0  0  0  0  0  0  0  0  0  0
    5.6200   -0.1303   -1.4947 H   0  0  0  0  0  0  0  0  0  0  0  0
    4.2966    2.8217    1.3800 H   0  0  0  0  0  0  0  0  0  0  0  0
    7.9017    0.7912   -1.3533 H   0  0  0  0  0  0  0  0  0  0  0  0
    6.5564    3.7353    1.4714 H   0  0  0  0  0  0  0  0  0  0  0  0
  1 22  1  0  0  0  0
  1 25  1  0  0  0  0
  2 37  1  0  0  0  0
  3 15  1  0  0  0  0
  3 57  1  0  0  0  0
  4 20  1  0  0  0  0
  4 58  1  0  0  0  0
  5 24  2  0  0  0  0
  6 31  2  0  0  0  0
  7 19  1  0  0  0  0
  7 25  2  0  0  0  0
  8 24  1  0  0  0  0
  8 26  1  0  0  0  0
  8 27  1  0  0  0  0
  9 25  1  0  0  0  0
  9 31  1  0  0  0  0
  9 63  1  0  0  0  0
 10 11  1  0  0  0  0
 10 13  1  0  0  0  0
 10 14  1  0  0  0  0
 10 18  1  0  0  0  0
 11 12  1  0  0  0  0
 11 16  1  0  0  0  0
 11 38  1  0  0  0  0
 12 15  1  0  0  0  0
 12 20  1  0  0  0  0
 12 21  1  0  0  0  0
 13 19  1  0  0  0  0
 13 23  1  0  0  0  0
 13 39  1  0  0  0  0
 14 17  1  0  0  0  0
 14 40  1  0  0  0  0
 14 41  1  0  0  0  0
 15 17  1  0  0  0  0
 15 42  1  0  0  0  0
 16 22  1  0  0  0  0
 16 43  1  0  0  0  0
 16 44  1  0  0  0  0
 17 45  1  0  0  0  0
 17 46  1  0  0  0  0
 18 47  1  0  0  0  0
 18 48  1  0  0  0  0
 18 49  1  0  0  0  0
 19 22  2  0  0  0  0
 20 50  1  0  0  0  0
 20 51  1  0  0  0  0
 21 52  1  0  0  0  0
 21 53  1  0  0  0  0
 21 54  1  0  0  0  0
 23 24  1  0  0  0  0
 23 55  1  0  0  0  0
 23 56  1  0  0  0  0
 26 28  1  0  0  0  0
 26 59  1  0  0  0  0
 26 60  1  0  0  0  0
 27 29  1  0  0  0  0
 27 61  1  0  0  0  0
 27 62  1  0  0  0  0
 28 30  1  0  0  0  0
 28 64  1  0  0  0  0
 28 65  1  0  0  0  0
 29 30  1  0  0  0  0
 29 66  1  0  0  0  0
 29 67  1  0  0  0  0
 30 68  1  0  0  0  0
 30 69  1  0  0  0  0
 31 32  1  0  0  0  0
 32 33  2  0  0  0  0
 32 34  1  0  0  0  0
 33 35  1  0  0  0  0
 33 70  1  0  0  0  0
 34 36  2  0  0  0  0
 34 71  1  0  0  0  0
 35 37  2  0  0  0  0
 35 72  1  0  0  0  0
 36 37  1  0  0  0  0
 36 73  1  0  0  0  0
M  END
> <PUBCHEM_COMPOUND_CID>
11883062

> <PUBCHEM_CONFORMER_RMSD>
1

> <PUBCHEM_CONFORMER_DIVERSEORDER>
1
7
4
8
3
5
6
2

> <PUBCHEM_MMFF94_PARTIAL_CHARGES>
34
1 -0.08
13 0.18
15 0.28
16 0.18
19 0.05
2 -0.19
20 0.28
22 -0.14
23 0.06
24 0.57
25 0.44
26 0.3
27 0.3
3 -0.68
31 0.54
32 0.09
33 -0.15
34 -0.15
35 -0.15
36 -0.15
37 0.19
4 -0.68
5 -0.57
57 0.4
58 0.4
6 -0.57
63 0.37
7 -0.57
70 0.15
71 0.15
72 0.15
73 0.15
8 -0.66
9 -0.49

> <PUBCHEM_EFFECTIVE_ROTOR_COUNT>
9.4

> <PUBCHEM_PHARMACOPHORE_FEATURES>
12
1 3 acceptor
1 3 donor
1 4 acceptor
1 4 donor
1 5 acceptor
1 6 acceptor
1 9 donor
5 1 7 19 22 25 rings
6 10 11 12 14 15 17 rings
6 10 11 13 16 19 22 rings
6 32 33 34 35 36 37 rings
6 8 26 27 28 29 30 rings

> <PUBCHEM_HEAVY_ATOM_COUNT>
37

> <PUBCHEM_ATOM_DEF_STEREO_COUNT>
5

> <PUBCHEM_ATOM_UDEF_STEREO_COUNT>
0

> <PUBCHEM_BOND_DEF_STEREO_COUNT>
0

> <PUBCHEM_BOND_UDEF_STEREO_COUNT>
0

> <PUBCHEM_ISOTOPIC_ATOM_COUNT>
0

> <PUBCHEM_COMPONENT_COUNT>
1

> <PUBCHEM_CACTVS_TAUTO_COUNT>
3

> <PUBCHEM_CONFORMER_ID>
00B5523600000001

> <PUBCHEM_MMFF94_ENERGY>
116.152

> <PUBCHEM_FEATURE_SELFOVERLAP>
61.043

> <PUBCHEM_SHAPE_FINGERPRINT>
10050765 1 18122624947245177389
10190206 1 18127675227151788159
102385 1 17904478498440760100
10675989 125 18341054017381237696
10940486 97 17900826260410694964
11007060 377 18198906005393063640
11135609 187 18411980269324684768
11135926 11 18410005503507376509
11136131 41 18261947467046000746
11315181 36 18271810159535655385
11578080 2 17678725749239482597
11719270 70 18410287000475517880
12597179 24 18114188531552346819
12838862 33 18341033208001295228
12977781 61 17823441338877581659
13540713 5 17985829221018058529
14190465 44 18123183769935643136
14394314 77 18412830191650016561
14415360 78 18193540375876132036
14659021 117 17694486449575830546
14725015 67 17908142427708882987
14790565 3 18338800120964570668
14856354 85 16588020272713872512
15320294 125 18041819798153038994
15347591 1 18265612079841124877
15351339 4 18130786729105034488
15361156 5 17912084164636974460
15400415 2 18338515361086984264
15439362 3 18336261233263263969
15444296 121 18043815510141078508
15775530 1 17609759921247189420
15815584 197 18266200416475977007
15890870 6 18410854404104732108
15927050 60 18413103983193907351
16067689 302 18413393134094626151
16090146 7 18339380642272901960
16719943 64 18337952411164821850
16993438 75 18044944712345470642
20554085 129 18130489904104559664
20642791 35 18269001890219934598
21133410 230 17972346128210916459
21133665 82 18339924913987864166
21360443 120 18408886239150542836
22311459 1 18410575081012566793
23559900 14 18049995602754776651
244849 19 17824286842387531275
249999 5 18337670785394770418
3383291 50 18193275428065328098
3411729 13 18339924818327763959
4017518 198 18342744057248351038
4058900 60 18334863822456235874
4073 2 18408891728878532427
4516262 110 18409160001057333653
5265222 85 18265054811238483876
5385378 56 18338524040788173561
563151 97 18410282640756996415
57527295 17 18200579342828785141
59755656 215 18412829070683800501
6371380 46 18270677701239833488
6669772 16 18334297526744435635
9896288 288 18044377364757150882
9981440 41 18261961828973247579

> <PUBCHEM_SHAPE_MULTIPOLES>
719.6
18.46
6.24
1.15
9.09
10.89
-0.15
-22.2
1.01
7.31
-1.6
-0.47
0.45
0.1

> <PUBCHEM_SHAPE_SELFOVERLAP>
1534.912

> <PUBCHEM_SHAPE_VOLUME>
403.3

> <PUBCHEM_COORDINATE_TYPE>
2
5
10

$$$$
