28960641
  -OEChem-12032416143D

 52 55  0     1  0  0  0  0  0999 V2000
    3.3266    2.0997    0.7359 O   0  0  0  0  0  0  0  0  0  0  0  0
   -3.5411    1.6064    1.5463 O   0  0  0  0  0  0  0  0  0  0  0  0
    0.5117    3.1005   -1.1327 N   0  0  1  0  0  0  0  0  0  0  0  0
   -2.0200    1.7516   -0.1998 N   0  0  0  0  0  0  0  0  0  0  0  0
   -3.5200    0.0129   -0.1420 N   0  0  0  0  0  0  0  0  0  0  0  0
    1.9456    0.5117   -0.0308 N   0  0  0  0  0  0  0  0  0  0  0  0
    4.0722    0.9142    0.7104 N   0  0  0  0  0  0  0  0  0  0  0  0
    4.7763   -1.7307    0.3583 N   0  0  0  0  0  0  0  0  0  0  0  0
    2.8827   -3.5567   -0.6142 N   0  0  0  0  0  0  0  0  0  0  0  0
   -1.3651    2.9597    0.2430 C   0  0  1  0  0  0  0  0  0  0  0  0
    1.0772    2.9001    0.2151 C   0  0  1  0  0  0  0  0  0  0  0  0
   -0.1485    2.6525    1.1161 C   0  0  0  0  0  0  0  0  0  0  0  0
   -0.7918    3.7406   -0.9299 C   0  0  0  0  0  0  0  0  0  0  0  0
   -4.6042   -0.8006    0.3618 C   0  0  0  0  0  0  0  0  0  0  0  0
   -5.3886   -1.4452   -0.7860 C   0  0  0  0  0  0  0  0  0  0  0  0
   -4.0895   -1.8573    1.3450 C   0  0  0  0  0  0  0  0  0  0  0  0
   -4.6032   -2.5594   -1.4778 C   0  0  0  0  0  0  0  0  0  0  0  0
   -3.3061   -2.9708    0.6497 C   0  0  0  0  0  0  0  0  0  0  0  0
   -4.1111   -3.6042   -0.4808 C   0  0  0  0  0  0  0  0  0  0  0  0
    2.0869    1.7743    0.2846 C   0  0  0  0  0  0  0  0  0  0  0  0
    1.3741    3.8872   -2.0061 C   0  0  0  0  0  0  0  0  0  0  0  0
   -3.0716    1.1639    0.4988 C   0  0  0  0  0  0  0  0  0  0  0  0
    3.1895    0.0243    0.2471 C   0  0  0  0  0  0  0  0  0  0  0  0
    3.5177   -1.3584    0.0520 C   0  0  0  0  0  0  0  0  0  0  0  0
    2.5876   -2.2552   -0.4258 C   0  0  0  0  0  0  0  0  0  0  0  0
    5.0714   -3.0321    0.1698 C   0  0  0  0  0  0  0  0  0  0  0  0
    4.1413   -3.9291   -0.3080 C   0  0  0  0  0  0  0  0  0  0  0  0
   -2.0937    3.5635    0.7956 H   0  0  0  0  0  0  0  0  0  0  0  0
    1.5597    3.8258    0.5610 H   0  0  0  0  0  0  0  0  0  0  0  0
   -0.1849    1.6393    1.5330 H   0  0  0  0  0  0  0  0  0  0  0  0
   -0.1170    3.3542    1.9591 H   0  0  0  0  0  0  0  0  0  0  0  0
   -1.4188    3.6805   -1.8259 H   0  0  0  0  0  0  0  0  0  0  0  0
   -0.6737    4.7959   -0.6512 H   0  0  0  0  0  0  0  0  0  0  0  0
   -5.2838   -0.1330    0.9061 H   0  0  0  0  0  0  0  0  0  0  0  0
   -5.6722   -0.6873   -1.5261 H   0  0  0  0  0  0  0  0  0  0  0  0
   -6.3209   -1.8661   -0.3883 H   0  0  0  0  0  0  0  0  0  0  0  0
   -4.9454   -2.3036    1.8675 H   0  0  0  0  0  0  0  0  0  0  0  0
   -3.4575   -1.3944    2.1123 H   0  0  0  0  0  0  0  0  0  0  0  0
   -3.7484   -2.1374   -2.0193 H   0  0  0  0  0  0  0  0  0  0  0  0
   -5.2405   -3.0424   -2.2274 H   0  0  0  0  0  0  0  0  0  0  0  0
   -3.0344   -3.7395    1.3819 H   0  0  0  0  0  0  0  0  0  0  0  0
   -2.3672   -2.5686    0.2500 H   0  0  0  0  0  0  0  0  0  0  0  0
   -1.6543    1.2724   -1.0171 H   0  0  0  0  0  0  0  0  0  0  0  0
   -4.9715   -4.1388   -0.0595 H   0  0  0  0  0  0  0  0  0  0  0  0
   -3.4965   -4.3485   -0.9995 H   0  0  0  0  0  0  0  0  0  0  0  0
   -3.0131   -0.3026   -0.9630 H   0  0  0  0  0  0  0  0  0  0  0  0
    2.3311    3.3790   -2.1655 H   0  0  0  0  0  0  0  0  0  0  0  0
    1.5783    4.8853   -1.6021 H   0  0  0  0  0  0  0  0  0  0  0  0
    0.9107    4.0049   -2.9918 H   0  0  0  0  0  0  0  0  0  0  0  0
    1.5702   -1.9791   -0.6787 H   0  0  0  0  0  0  0  0  0  0  0  0
    6.0825   -3.3320    0.4157 H   0  0  0  0  0  0  0  0  0  0  0  0
    4.3793   -4.9747   -0.4592 H   0  0  0  0  0  0  0  0  0  0  0  0
  1  7  1  0  0  0  0
  1 20  1  0  0  0  0
  2 22  2  0  0  0  0
  3 11  1  0  0  0  0
  3 13  1  0  0  0  0
  3 21  1  0  0  0  0
  4 10  1  0  0  0  0
  4 22  1  0  0  0  0
  4 43  1  0  0  0  0
  5 14  1  0  0  0  0
  5 22  1  0  0  0  0
  5 46  1  0  0  0  0
  6 20  2  0  0  0  0
  6 23  1  0  0  0  0
  7 23  2  0  0  0  0
  8 24  2  0  0  0  0
  8 26  1  0  0  0  0
  9 25  2  0  0  0  0
  9 27  1  0  0  0  0
 10 12  1  0  0  0  0
 10 13  1  0  0  0  0
 10 28  1  0  0  0  0
 11 12  1  0  0  0  0
 11 20  1  0  0  0  0
 11 29  1  0  0  0  0
 12 30  1  0  0  0  0
 12 31  1  0  0  0  0
 13 32  1  0  0  0  0
 13 33  1  0  0  0  0
 14 15  1  0  0  0  0
 14 16  1  0  0  0  0
 14 34  1  0  0  0  0
 15 17  1  0  0  0  0
 15 35  1  0  0  0  0
 15 36  1  0  0  0  0
 16 18  1  0  0  0  0
 16 37  1  0  0  0  0
 16 38  1  0  0  0  0
 17 19  1  0  0  0  0
 17 39  1  0  0  0  0
 17 40  1  0  0  0  0
 18 19  1  0  0  0  0
 18 41  1  0  0  0  0
 18 42  1  0  0  0  0
 19 44  1  0  0  0  0
 19 45  1  0  0  0  0
 21 47  1  0  0  0  0
 21 48  1  0  0  0  0
 21 49  1  0  0  0  0
 23 24  1  0  0  0  0
 24 25  1  0  0  0  0
 25 50  1  0  0  0  0
 26 27  2  0  0  0  0
 26 51  1  0  0  0  0
 27 52  1  0  0  0  0
M  END
> <PUBCHEM_COMPOUND_CID>
28960641

> <PUBCHEM_CONFORMER_RMSD>
1.2

> <PUBCHEM_CONFORMER_DIVERSEORDER>
1
28
22
60
51
67
49
68
69
48
10
73
70
63
31
36
9
15
19
65
17
6
34
44
53
43
42
12
24
71
45
54
5
14
23
66
39
2
7
41
55
27
75
8
52
57
25
32
4
40
64
50
56
72
20
3
11
18
74
47
62
30
13
58
46
59
26
16
21
29
38
37
61
33
76
35

> <PUBCHEM_MMFF94_PARTIAL_CHARGES>
26
1 -0.02
10 0.3
11 0.45
13 0.27
14 0.3
2 -0.57
20 0.3
21 0.27
22 0.69
23 0.46
24 0.36
25 0.16
26 0.16
27 0.16
3 -0.81
4 -0.73
43 0.37
46 0.37
5 -0.73
50 0.15
51 0.15
52 0.15
6 -0.57
7 -0.41
8 -0.62
9 -0.62

> <PUBCHEM_EFFECTIVE_ROTOR_COUNT>
8.2

> <PUBCHEM_PHARMACOPHORE_FEATURES>
11
1 2 acceptor
1 3 cation
1 4 donor
1 5 donor
1 8 acceptor
1 9 acceptor
3 6 7 23 cation
5 1 6 7 20 23 rings
5 3 10 11 12 13 rings
6 14 15 16 17 18 19 rings
6 8 9 24 25 26 27 rings

> <PUBCHEM_HEAVY_ATOM_COUNT>
27

> <PUBCHEM_ATOM_DEF_STEREO_COUNT>
2

> <PUBCHEM_ATOM_UDEF_STEREO_COUNT>
0

> <PUBCHEM_BOND_DEF_STEREO_COUNT>
0

> <PUBCHEM_BOND_UDEF_STEREO_COUNT>
0

> <PUBCHEM_ISOTOPIC_ATOM_COUNT>
0

> <PUBCHEM_COMPONENT_COUNT>
1

> <PUBCHEM_CACTVS_TAUTO_COUNT>
3

> <PUBCHEM_CONFORMER_ID>
01B9E78100000001

> <PUBCHEM_MMFF94_ENERGY>
39.8355

> <PUBCHEM_FEATURE_SELFOVERLAP>
55.877

> <PUBCHEM_SHAPE_FINGERPRINT>
10042902 136 18341623585652461140
10448021 39 17984405606968959847
10928967 22 18268449978337641007
11069576 57 18193554691001713837
11136131 41 18263913514574946978
11315621 246 17978809917438042670
11455722 242 18338246943338771286
12107183 9 18271257023851141617
12969540 37 18411415150576640472
12990986 174 18265615368989650970
14428016 347 18129365142285585311
14429380 30 18409167688606149282
14444916 359 16972817117316981736
1454969 45 18192427687863769200
14659021 117 18189332377541096586
14681488 357 18059593368233348806
14863182 85 18049725410393765572
14866123 147 18196656190587966449
15352361 1 18411136922373133411
15803439 3 16886137612326420852
15927050 60 16899049765908948429
19315092 285 17130134537103400259
19611394 137 17982718681618164890
20028762 73 18198344164148236340
20775530 9 18408888412361920211
21049683 118 14975226767876580891
229767 44 17982747281261537209
23379529 103 18124601881930779854
23559900 14 18266730454495630171
23572383 38 18337093649127252219
3246872 21 17983005944981512974
325973 47 18338517568146565827
4280585 95 18262506014240426042
46194498 28 17605263185368162341
463206 1 18338242548330705715
54324442 115 16760302402047587447
56633871 153 18339933610705853545
613672 6 18261103110523336091

> <PUBCHEM_SHAPE_MULTIPOLES>
509.04
11.74
6.69
1.24
4.06
0.08
0.24
-14.52
-0.27
-2.97
1.92
0.77
0.66
-0.7

> <PUBCHEM_SHAPE_SELFOVERLAP>
1078.497

> <PUBCHEM_SHAPE_VOLUME>
283.9

> <PUBCHEM_COORDINATE_TYPE>
2
5
10

$$$$
