75536891
  -OEChem-12032416303D

 50 52  0     1  0  0  0  0  0999 V2000
   -6.2854    0.7266    0.5528 S   0  0  0  0  0  0  0  0  0  0  0  0
    0.6876   -3.5224   -0.5419 O   0  0  0  0  0  0  0  0  0  0  0  0
   -0.7375   -0.2575   -1.2082 O   0  0  0  0  0  0  0  0  0  0  0  0
    4.4988   -1.3528    1.4764 O   0  0  0  0  0  0  0  0  0  0  0  0
   -6.8407   -0.5146    1.0749 O   0  0  0  0  0  0  0  0  0  0  0  0
   -6.2860    1.9237    1.3816 O   0  0  0  0  0  0  0  0  0  0  0  0
    2.2585   -1.1726    0.8122 N   0  0  0  0  0  0  0  0  0  0  0  0
    4.8473    0.8976   -0.5030 N   0  0  0  0  0  0  0  0  0  0  0  0
    4.9663    2.2064   -0.7839 N   0  0  0  0  0  0  0  0  0  0  0  0
    0.0259   -1.1767   -0.4258 C   0  0  2  0  0  0  0  0  0  0  0  0
    1.2072   -0.3909    0.1504 C   0  0  0  0  0  0  0  0  0  0  0  0
    1.9225   -2.5068    1.3121 C   0  0  0  0  0  0  0  0  0  0  0  0
    0.4554   -2.3457   -1.3099 C   0  0  0  0  0  0  0  0  0  0  0  0
    1.9132   -3.5286    0.1823 C   0  0  0  0  0  0  0  0  0  0  0  0
    3.5801   -0.7194    0.9577 C   0  0  0  0  0  0  0  0  0  0  0  0
    3.9172    0.6222    0.4561 C   0  0  0  0  0  0  0  0  0  0  0  0
   -2.0229   -0.0293   -0.8012 C   0  0  0  0  0  0  0  0  0  0  0  0
    3.3916    1.8352    0.8287 C   0  0  0  0  0  0  0  0  0  0  0  0
   -2.4248    1.2595   -0.4499 C   0  0  0  0  0  0  0  0  0  0  0  0
   -2.9322   -1.0852   -0.7370 C   0  0  0  0  0  0  0  0  0  0  0  0
    4.0745    2.7741    0.0326 C   0  0  0  0  0  0  0  0  0  0  0  0
   -4.6451    0.4364    0.0295 C   0  0  0  0  0  0  0  0  0  0  0  0
   -3.7359    1.4923   -0.0346 C   0  0  0  0  0  0  0  0  0  0  0  0
   -4.2432   -0.8525   -0.3217 C   0  0  0  0  0  0  0  0  0  0  0  0
    5.6746   -0.0540   -1.2077 C   0  0  0  0  0  0  0  0  0  0  0  0
    3.9015    4.2364    0.0231 C   0  0  0  0  0  0  0  0  0  0  0  0
   -7.1685    1.0987   -0.9455 C   0  0  0  0  0  0  0  0  0  0  0  0
   -0.5651   -1.5638    0.4157 H   0  0  0  0  0  0  0  0  0  0  0  0
    1.6550    0.2033   -0.6546 H   0  0  0  0  0  0  0  0  0  0  0  0
    0.8307    0.3303    0.8865 H   0  0  0  0  0  0  0  0  0  0  0  0
    0.9625   -2.4569    1.8363 H   0  0  0  0  0  0  0  0  0  0  0  0
    2.6778   -2.8076    2.0463 H   0  0  0  0  0  0  0  0  0  0  0  0
    1.3315   -2.1019   -1.9235 H   0  0  0  0  0  0  0  0  0  0  0  0
   -0.3485   -2.5889   -2.0136 H   0  0  0  0  0  0  0  0  0  0  0  0
    2.7560   -3.3965   -0.5064 H   0  0  0  0  0  0  0  0  0  0  0  0
    2.0015   -4.5301    0.6166 H   0  0  0  0  0  0  0  0  0  0  0  0
    2.6291    2.0169    1.5726 H   0  0  0  0  0  0  0  0  0  0  0  0
   -1.7206    2.0856   -0.4988 H   0  0  0  0  0  0  0  0  0  0  0  0
   -2.6378   -2.0928   -1.0168 H   0  0  0  0  0  0  0  0  0  0  0  0
   -4.0284    2.5050    0.2279 H   0  0  0  0  0  0  0  0  0  0  0  0
   -4.9369   -1.6877   -0.2866 H   0  0  0  0  0  0  0  0  0  0  0  0
    5.0773   -0.9370   -1.4480 H   0  0  0  0  0  0  0  0  0  0  0  0
    6.0394    0.3998   -2.1331 H   0  0  0  0  0  0  0  0  0  0  0  0
    6.5140   -0.3190   -0.5605 H   0  0  0  0  0  0  0  0  0  0  0  0
    4.8371    4.7386    0.2899 H   0  0  0  0  0  0  0  0  0  0  0  0
    3.5950    4.5835   -0.9691 H   0  0  0  0  0  0  0  0  0  0  0  0
    3.1358    4.5518    0.7394 H   0  0  0  0  0  0  0  0  0  0  0  0
   -8.2104    1.2965   -0.6846 H   0  0  0  0  0  0  0  0  0  0  0  0
   -6.7264    1.9833   -1.4078 H   0  0  0  0  0  0  0  0  0  0  0  0
   -7.1093    0.2392   -1.6159 H   0  0  0  0  0  0  0  0  0  0  0  0
  1  5  2  0  0  0  0
  1  6  2  0  0  0  0
  1 22  1  0  0  0  0
  1 27  1  0  0  0  0
  2 13  1  0  0  0  0
  2 14  1  0  0  0  0
  3 10  1  0  0  0  0
  3 17  1  0  0  0  0
  4 15  2  0  0  0  0
  7 11  1  0  0  0  0
  7 12  1  0  0  0  0
  7 15  1  0  0  0  0
  8  9  1  0  0  0  0
  8 16  1  0  0  0  0
  8 25  1  0  0  0  0
  9 21  2  0  0  0  0
 10 11  1  0  0  0  0
 10 13  1  0  0  0  0
 10 28  1  0  0  0  0
 11 29  1  0  0  0  0
 11 30  1  0  0  0  0
 12 14  1  0  0  0  0
 12 31  1  0  0  0  0
 12 32  1  0  0  0  0
 13 33  1  0  0  0  0
 13 34  1  0  0  0  0
 14 35  1  0  0  0  0
 14 36  1  0  0  0  0
 15 16  1  0  0  0  0
 16 18  2  0  0  0  0
 17 19  2  0  0  0  0
 17 20  1  0  0  0  0
 18 21  1  0  0  0  0
 18 37  1  0  0  0  0
 19 23  1  0  0  0  0
 19 38  1  0  0  0  0
 20 24  2  0  0  0  0
 20 39  1  0  0  0  0
 21 26  1  0  0  0  0
 22 23  2  0  0  0  0
 22 24  1  0  0  0  0
 23 40  1  0  0  0  0
 24 41  1  0  0  0  0
 25 42  1  0  0  0  0
 25 43  1  0  0  0  0
 25 44  1  0  0  0  0
 26 45  1  0  0  0  0
 26 46  1  0  0  0  0
 26 47  1  0  0  0  0
 27 48  1  0  0  0  0
 27 49  1  0  0  0  0
 27 50  1  0  0  0  0
M  END
> <PUBCHEM_COMPOUND_CID>
75536891

> <PUBCHEM_CONFORMER_RMSD>
1

> <PUBCHEM_CONFORMER_DIVERSEORDER>
1
166
49
31
178
128
152
74
8
177
110
158
141
168
72
140
35
149
11
5
130
70
19
155
41
136
132
96
146
134
112
25
163
89
161
144
188
120
159
42
98
124
21
68
173
58
175
154
125
34
109
165
138
114
180
111
36
26
20
90
106
145
17
45
142
53
156
10
59
169
65
183
172
52
27
78
64
182
135
2
75
179
47
39
116
160
181
133
171
55
46
129
184
38
162
176
54
115
84
69
148
102
12
187
14
153
71
51
105
127
81
117
93
77
62
33
80
95
167
108
99
9
170
122
57
86
100
151
139
18
186
85
185
61
174
4
123
73
28
44
103
121
37
13
48
63
50
131
32
67
3
119
43
60
16
76
40
107
143
56
147
7
30
83
79
15
137
113
22
164
157
66
94
104
82
97
91
150
92
29
88
126
24
101
87
6
118
23

> <PUBCHEM_MMFF94_PARTIAL_CHARGES>
32
1 1.2
10 0.28
11 0.3
12 0.3
13 0.28
14 0.28
15 0.71
16 -0.24
17 0.08
18 -0.15
19 -0.15
2 -0.56
20 -0.15
21 0.11
22 -0.01
23 -0.15
24 -0.15
25 0.26
26 0.18
27 0.11
3 -0.36
37 0.15
38 0.15
39 0.15
4 -0.57
40 0.15
41 0.15
5 -0.65
6 -0.65
7 -0.66
8 0.31
9 -0.71

> <PUBCHEM_EFFECTIVE_ROTOR_COUNT>
6.4

> <PUBCHEM_PHARMACOPHORE_FEATURES>
9
1 2 acceptor
1 3 acceptor
1 4 acceptor
1 5 acceptor
1 6 acceptor
1 9 acceptor
5 8 9 16 18 21 rings
6 17 19 20 22 23 24 rings
7 2 7 10 11 12 13 14 rings

> <PUBCHEM_HEAVY_ATOM_COUNT>
27

> <PUBCHEM_ATOM_DEF_STEREO_COUNT>
1

> <PUBCHEM_ATOM_UDEF_STEREO_COUNT>
0

> <PUBCHEM_BOND_DEF_STEREO_COUNT>
0

> <PUBCHEM_BOND_UDEF_STEREO_COUNT>
0

> <PUBCHEM_ISOTOPIC_ATOM_COUNT>
0

> <PUBCHEM_COMPONENT_COUNT>
1

> <PUBCHEM_CACTVS_TAUTO_COUNT>
1

> <PUBCHEM_CONFORMER_ID>
048099FB00000001

> <PUBCHEM_MMFF94_ENERGY>
71.0134

> <PUBCHEM_FEATURE_SELFOVERLAP>
45.694

> <PUBCHEM_SHAPE_FINGERPRINT>
10165383 225 17749395884494662510
10670039 82 16414926244707442377
10674148 151 18201729462109048684
10835480 77 18262230016291750629
11796584 16 13254791348006419708
12596602 18 18186519900286241987
12616971 3 18339910563294261798
12788726 201 17202771389153917385
13583140 156 17606375697329277343
14251764 75 18265335195398989740
14341114 328 18410008832333676235
14347332 77 8358258142749229551
1454969 45 18269832172730011839
146900 427 18334293175609781195
14790565 3 18340769368001780045
14840074 17 18260547857336237557
14849402 71 18260826025747415872
15142526 21 18261951967712050450
15183329 4 9799695913478550035
15475509 35 15937234613764275856
16126227 98 18121784095522159284
17349148 13 12540694786889737727
18335252 114 18412258411728254612
19309040 13 17841436131331297324
20465049 17 18411991239235401446
21716022 299 14835024749714225606
23559900 14 18124309411606040311
23569914 152 9797196582236857377
23845131 108 18187642556681159258
2637199 183 18411136953007688078
3178227 256 18260543386660495082
38570 142 18336558208919513884
394071 54 18409456856217056765
437795 163 18195798782309640287
504579 68 18060124441572040733
5104073 3 18114453565177931770
57527585 21 17189243328925077612
5776283 40 18267604553798546284
633830 44 18271518797258737118
9862260 156 13901912159324164822

> <PUBCHEM_SHAPE_MULTIPOLES>
515.21
16.58
3.86
1.23
21.71
0.25
-0.08
10.79
-1.64
-5.72
-0.12
-0.11
-0.29
-1.05

> <PUBCHEM_SHAPE_SELFOVERLAP>
1074.796

> <PUBCHEM_SHAPE_VOLUME>
294.6

> <PUBCHEM_COORDINATE_TYPE>
2
5
10

$$$$
