7673830
  -OEChem-12032416213D

 52 56  0     1  0  0  0  0  0999 V2000
    2.8727   -1.5704   -0.4720 S   0  0  0  0  0  0  0  0  0  0  0  0
    2.8601   -1.9803   -1.8604 O   0  0  0  0  0  0  0  0  0  0  0  0
    2.2989   -2.4109    0.5576 O   0  0  0  0  0  0  0  0  0  0  0  0
   -2.4134    1.1450   -1.8229 O   0  0  0  0  0  0  0  0  0  0  0  0
    2.2049   -0.0002   -0.3455 N   0  0  2  0  0  0  0  0  0  0  0  0
   -0.5660    1.5130   -0.4462 N   0  0  0  0  0  0  0  0  0  0  0  0
   -6.2782   -3.9055   -0.3474 N   0  0  0  0  0  0  0  0  0  0  0  0
    1.7168    2.2273   -1.3619 C   0  0  1  0  0  0  0  0  0  0  0  0
    1.4207    1.8993    1.0540 C   0  0  2  0  0  0  0  0  0  0  0  0
    1.8966    2.8917   -0.0034 C   0  0  0  0  0  0  0  0  0  0  0  0
    2.5529    0.9401   -1.4490 C   0  0  0  0  0  0  0  0  0  0  0  0
    2.2963    0.6340    1.0036 C   0  0  0  0  0  0  0  0  0  0  0  0
    0.2230    1.9725   -1.5975 C   0  0  0  0  0  0  0  0  0  0  0  0
   -0.0389    1.5393    0.8478 C   0  0  0  0  0  0  0  0  0  0  0  0
   -0.8143    1.2264    1.8986 C   0  0  0  0  0  0  0  0  0  0  0  0
   -1.9038    1.1498   -0.7010 C   0  0  0  0  0  0  0  0  0  0  0  0
   -2.7333    0.7705    0.4947 C   0  0  0  0  0  0  0  0  0  0  0  0
   -2.1826    0.8323    1.7158 C   0  0  0  0  0  0  0  0  0  0  0  0
    4.5469   -1.2317   -0.0254 C   0  0  0  0  0  0  0  0  0  0  0  0
   -4.0914    0.3546    0.3368 C   0  0  0  0  0  0  0  0  0  0  0  0
    4.9219   -1.3088    1.3058 C   0  0  0  0  0  0  0  0  0  0  0  0
    5.4568   -0.8930   -1.0132 C   0  0  0  0  0  0  0  0  0  0  0  0
   -4.3926   -0.9950    0.1519 C   0  0  0  0  0  0  0  0  0  0  0  0
   -5.1172    1.2997    0.3659 C   0  0  0  0  0  0  0  0  0  0  0  0
    6.2443   -1.0397    1.6591 C   0  0  0  0  0  0  0  0  0  0  0  0
    6.7791   -0.6240   -0.6600 C   0  0  0  0  0  0  0  0  0  0  0  0
    7.1728   -0.6973    0.6762 C   0  0  0  0  0  0  0  0  0  0  0  0
   -5.7185   -1.3991   -0.0040 C   0  0  0  0  0  0  0  0  0  0  0  0
   -6.4433    0.8956    0.2102 C   0  0  0  0  0  0  0  0  0  0  0  0
   -6.7438   -0.4538    0.0252 C   0  0  0  0  0  0  0  0  0  0  0  0
   -6.0272   -2.7816   -0.1933 C   0  0  0  0  0  0  0  0  0  0  0  0
    2.0747    2.9041   -2.1481 H   0  0  0  0  0  0  0  0  0  0  0  0
    1.5480    2.3668    2.0393 H   0  0  0  0  0  0  0  0  0  0  0  0
    1.3215    3.8246    0.0503 H   0  0  0  0  0  0  0  0  0  0  0  0
    2.9491    3.1537    0.1598 H   0  0  0  0  0  0  0  0  0  0  0  0
    2.3706    0.4643   -2.4183 H   0  0  0  0  0  0  0  0  0  0  0  0
    3.6138    1.2047   -1.3906 H   0  0  0  0  0  0  0  0  0  0  0  0
    3.3305    0.9221    1.2186 H   0  0  0  0  0  0  0  0  0  0  0  0
    1.9646   -0.0732    1.7720 H   0  0  0  0  0  0  0  0  0  0  0  0
   -0.2457    2.9127   -1.9192 H   0  0  0  0  0  0  0  0  0  0  0  0
    0.0782    1.2663   -2.4247 H   0  0  0  0  0  0  0  0  0  0  0  0
   -0.4270    1.2321    2.9122 H   0  0  0  0  0  0  0  0  0  0  0  0
   -2.7411    0.5717    2.6103 H   0  0  0  0  0  0  0  0  0  0  0  0
    4.2151   -1.5716    2.0868 H   0  0  0  0  0  0  0  0  0  0  0  0
    5.1704   -0.8271   -2.0584 H   0  0  0  0  0  0  0  0  0  0  0  0
   -3.5932   -1.7341    0.1275 H   0  0  0  0  0  0  0  0  0  0  0  0
   -4.9007    2.3561    0.5077 H   0  0  0  0  0  0  0  0  0  0  0  0
    6.5508   -1.0960    2.6995 H   0  0  0  0  0  0  0  0  0  0  0  0
    7.5020   -0.3562   -1.4250 H   0  0  0  0  0  0  0  0  0  0  0  0
    8.2022   -0.4873    0.9512 H   0  0  0  0  0  0  0  0  0  0  0  0
   -7.2416    1.6317    0.2326 H   0  0  0  0  0  0  0  0  0  0  0  0
   -7.7823   -0.7532   -0.0948 H   0  0  0  0  0  0  0  0  0  0  0  0
  1  2  2  0  0  0  0
  1  3  2  0  0  0  0
  1  5  1  0  0  0  0
  1 19  1  0  0  0  0
  4 16  2  0  0  0  0
  5 11  1  0  0  0  0
  5 12  1  0  0  0  0
  6 13  1  0  0  0  0
  6 14  1  0  0  0  0
  6 16  1  0  0  0  0
  7 31  3  0  0  0  0
  8 10  1  0  0  0  0
  8 11  1  0  0  0  0
  8 13  1  0  0  0  0
  8 32  1  0  0  0  0
  9 10  1  0  0  0  0
  9 12  1  0  0  0  0
  9 14  1  0  0  0  0
  9 33  1  0  0  0  0
 10 34  1  0  0  0  0
 10 35  1  0  0  0  0
 11 36  1  0  0  0  0
 11 37  1  0  0  0  0
 12 38  1  0  0  0  0
 12 39  1  0  0  0  0
 13 40  1  0  0  0  0
 13 41  1  0  0  0  0
 14 15  2  0  0  0  0
 15 18  1  0  0  0  0
 15 42  1  0  0  0  0
 16 17  1  0  0  0  0
 17 18  2  0  0  0  0
 17 20  1  0  0  0  0
 18 43  1  0  0  0  0
 19 21  2  0  0  0  0
 19 22  1  0  0  0  0
 20 23  1  0  0  0  0
 20 24  2  0  0  0  0
 21 25  1  0  0  0  0
 21 44  1  0  0  0  0
 22 26  2  0  0  0  0
 22 45  1  0  0  0  0
 23 28  2  0  0  0  0
 23 46  1  0  0  0  0
 24 29  1  0  0  0  0
 24 47  1  0  0  0  0
 25 27  2  0  0  0  0
 25 48  1  0  0  0  0
 26 27  1  0  0  0  0
 26 49  1  0  0  0  0
 27 50  1  0  0  0  0
 28 30  1  0  0  0  0
 28 31  1  0  0  0  0
 29 30  2  0  0  0  0
 29 51  1  0  0  0  0
 30 52  1  0  0  0  0
M  END
> <PUBCHEM_COMPOUND_CID>
7673830

> <PUBCHEM_CONFORMER_RMSD>
0.8

> <PUBCHEM_CONFORMER_DIVERSEORDER>
1
29
6
23
13
12
9
21
27
16
14
7
18
2
15
17
20
28
25
10
11
19
4
24
8
22
26
5
3

> <PUBCHEM_MMFF94_PARTIAL_CHARGES>
40
1 1.45
11 0.36
12 0.36
13 0.3
14 -0.03
15 -0.15
16 0.62
17 -0.01
18 -0.15
19 -0.01
2 -0.65
20 0.03
21 -0.15
22 -0.15
23 -0.15
24 -0.15
25 -0.15
26 -0.15
27 -0.15
28 0.07
29 -0.15
3 -0.65
30 -0.15
31 0.48
4 -0.57
42 0.15
43 0.15
44 0.15
45 0.15
46 0.15
47 0.15
48 0.15
49 0.15
5 -0.85
50 0.15
51 0.15
52 0.15
6 -0.47
7 -0.56
9 0.14

> <PUBCHEM_EFFECTIVE_ROTOR_COUNT>
4

> <PUBCHEM_PHARMACOPHORE_FEATURES>
9
1 2 acceptor
1 3 acceptor
1 4 acceptor
1 7 acceptor
6 19 21 22 25 26 27 rings
6 20 23 24 28 29 30 rings
6 5 8 9 10 11 12 rings
6 6 14 15 16 17 18 rings
6 6 8 9 10 13 14 rings

> <PUBCHEM_HEAVY_ATOM_COUNT>
31

> <PUBCHEM_ATOM_DEF_STEREO_COUNT>
2

> <PUBCHEM_ATOM_UDEF_STEREO_COUNT>
0

> <PUBCHEM_BOND_DEF_STEREO_COUNT>
0

> <PUBCHEM_BOND_UDEF_STEREO_COUNT>
0

> <PUBCHEM_ISOTOPIC_ATOM_COUNT>
0

> <PUBCHEM_COMPONENT_COUNT>
1

> <PUBCHEM_CACTVS_TAUTO_COUNT>
1

> <PUBCHEM_CONFORMER_ID>
007517E600000001

> <PUBCHEM_MMFF94_ENERGY>
73.7692

> <PUBCHEM_FEATURE_SELFOVERLAP>
47.276

> <PUBCHEM_SHAPE_FINGERPRINT>
10 15 15626220213048211088
10190206 1 12613030540380119678
10670039 82 14346069798654470999
11135609 12 18343297102284227702
11135609 99 18201719599793173830
11315621 136 18263082270440724299
117089 54 18118692260652053395
11796584 16 18271534117712906709
11828532 37 14129931152904085449
12107698 1 17676206853350993660
12120059 20 18267042694086179454
12516196 113 18343019952545481472
12522641 33 17824266115108105676
13690498 29 17458336417253093533
13782708 43 18335979848116785353
14068700 675 18408604751410886416
14251751 18 18412825794029967575
14341114 176 15769771326247760944
1454969 45 18334021584275900238
14955137 171 17846219938708164812
15183329 4 14129060283844344704
15289351 153 9078845047857996102
15357212 105 13900188263116497618
15361156 5 17967541181478243693
15510800 12 18272376408050366431
15728490 51 18272650177844587742
15927050 60 17768243871558286532
19958102 18 14996565028274316226
20028762 73 18412829088349706742
20567600 247 18187363237708926378
20567600 70 18342458153200092899
21223535 225 15140950708985114231
21424621 283 8718532901524372078
21756936 100 8430303607040111993
23522609 53 17971785248653342588
23559900 14 18343015580611548737
249057 3 18335983091577106173
25222932 49 18335129882969699834
2747138 104 17918274243033077602
2838139 119 8142076546597578995
3004659 81 18409449193657479009
3009799 131 16225771805126072280
4066623 53 15647052672886751012
4098825 35 17531247227497267677
437795 51 17774998042712296016
439807 62 18337676433941786147
4461854 278 17489031568643388703
463206 1 18335986466809399907
5104073 3 17845945138548528113
59682541 35 17988914579742127722
59755656 520 10735864054597881648
613672 6 17896057472121893178
6669772 16 17531533213017774520

> <PUBCHEM_SHAPE_MULTIPOLES>
609.26
18.29
3.04
1.58
4.62
1.37
-0.01
14.25
1.44
2.52
-0.53
-1.33
-0.41
-0.89

> <PUBCHEM_SHAPE_SELFOVERLAP>
1334.145

> <PUBCHEM_SHAPE_VOLUME>
328.2

> <PUBCHEM_COORDINATE_TYPE>
2
5
10

$$$$
