45783799
  -OEChem-12032416263D

 50 53  0     1  0  0  0  0  0999 V2000
   -1.5920   -2.1702    1.5238 O   0  0  0  0  0  0  0  0  0  0  0  0
   -3.6561   -0.2022   -0.7938 N   0  0  1  0  0  0  0  0  0  0  0  0
   -0.8389   -1.0243   -0.2473 N   0  0  0  0  0  0  0  0  0  0  0  0
   -0.1979   -2.1263    1.6524 N   0  0  0  0  0  0  0  0  0  0  0  0
    3.8749   -1.3129    0.9018 N   0  0  0  0  0  0  0  0  0  0  0  0
    5.5373   -0.3234   -0.4884 N   0  0  0  0  0  0  0  0  0  0  0  0
    1.2715    3.4608   -1.6743 N   0  0  0  0  0  0  0  0  0  0  0  0
   -3.3512   -1.4019    0.0113 C   0  0  1  0  0  0  0  0  0  0  0  0
   -3.8264   -2.5842   -0.8532 C   0  0  0  0  0  0  0  0  0  0  0  0
   -4.4377   -1.9492   -2.0941 C   0  0  0  0  0  0  0  0  0  0  0  0
   -4.7994   -0.5503   -1.6376 C   0  0  0  0  0  0  0  0  0  0  0  0
   -3.9123    0.9826    0.0151 C   0  0  0  0  0  0  0  0  0  0  0  0
   -1.8856   -1.4988    0.3796 C   0  0  0  0  0  0  0  0  0  0  0  0
   -2.6358    1.6181    0.4985 C   0  0  0  0  0  0  0  0  0  0  0  0
   -1.6817    2.0562   -0.4200 C   0  0  0  0  0  0  0  0  0  0  0  0
   -2.4083    1.7701    1.8664 C   0  0  0  0  0  0  0  0  0  0  0  0
    0.1732   -1.4343    0.5711 C   0  0  0  0  0  0  0  0  0  0  0  0
   -0.5002    2.6461    0.0293 C   0  0  0  0  0  0  0  0  0  0  0  0
   -1.2270    2.3603    2.3156 C   0  0  0  0  0  0  0  0  0  0  0  0
    1.5457   -1.1370    0.2786 C   0  0  0  0  0  0  0  0  0  0  0  0
   -0.2728    2.7981    1.3972 C   0  0  0  0  0  0  0  0  0  0  0  0
    1.8963   -0.4155   -0.8570 C   0  0  0  0  0  0  0  0  0  0  0  0
    2.5634   -1.5592    1.1187 C   0  0  0  0  0  0  0  0  0  0  0  0
    3.2353   -0.1422   -1.1143 C   0  0  0  0  0  0  0  0  0  0  0  0
    4.1775   -0.6089   -0.2119 C   0  0  0  0  0  0  0  0  0  0  0  0
    0.4773    3.0956   -0.9109 C   0  0  0  0  0  0  0  0  0  0  0  0
    6.5735   -0.7734    0.4148 C   0  0  0  0  0  0  0  0  0  0  0  0
    5.8975    0.4264   -1.6714 C   0  0  0  0  0  0  0  0  0  0  0  0
   -3.9427   -1.4094    0.9378 H   0  0  0  0  0  0  0  0  0  0  0  0
   -3.0273   -3.2818   -1.1266 H   0  0  0  0  0  0  0  0  0  0  0  0
   -4.5962   -3.1493   -0.3136 H   0  0  0  0  0  0  0  0  0  0  0  0
   -5.3035   -2.5082   -2.4611 H   0  0  0  0  0  0  0  0  0  0  0  0
   -3.6920   -1.9087   -2.8978 H   0  0  0  0  0  0  0  0  0  0  0  0
   -5.7367   -0.5667   -1.0670 H   0  0  0  0  0  0  0  0  0  0  0  0
   -4.9099    0.1332   -2.4852 H   0  0  0  0  0  0  0  0  0  0  0  0
   -4.4197    1.7458   -0.5919 H   0  0  0  0  0  0  0  0  0  0  0  0
   -4.5958    0.7671    0.8468 H   0  0  0  0  0  0  0  0  0  0  0  0
   -1.8613    1.9425   -1.4872 H   0  0  0  0  0  0  0  0  0  0  0  0
   -3.1417    1.4319    2.5935 H   0  0  0  0  0  0  0  0  0  0  0  0
   -1.0495    2.4775    3.3807 H   0  0  0  0  0  0  0  0  0  0  0  0
    0.6437    3.2549    1.7629 H   0  0  0  0  0  0  0  0  0  0  0  0
    1.1479   -0.0577   -1.5594 H   0  0  0  0  0  0  0  0  0  0  0  0
    2.3743   -2.1268    2.0251 H   0  0  0  0  0  0  0  0  0  0  0  0
    3.4645    0.4225   -2.0098 H   0  0  0  0  0  0  0  0  0  0  0  0
    6.4337   -0.3401    1.4113 H   0  0  0  0  0  0  0  0  0  0  0  0
    6.5645   -1.8655    0.5019 H   0  0  0  0  0  0  0  0  0  0  0  0
    7.5730   -0.4844    0.0731 H   0  0  0  0  0  0  0  0  0  0  0  0
    5.5947   -0.0964   -2.5857 H   0  0  0  0  0  0  0  0  0  0  0  0
    5.4647    1.4331   -1.6555 H   0  0  0  0  0  0  0  0  0  0  0  0
    6.9827    0.5624   -1.7439 H   0  0  0  0  0  0  0  0  0  0  0  0
  1  4  1  0  0  0  0
  1 13  1  0  0  0  0
  2  8  1  0  0  0  0
  2 11  1  0  0  0  0
  2 12  1  0  0  0  0
  3 13  2  0  0  0  0
  3 17  1  0  0  0  0
  4 17  2  0  0  0  0
  5 23  1  0  0  0  0
  5 25  2  0  0  0  0
  6 25  1  0  0  0  0
  6 27  1  0  0  0  0
  6 28  1  0  0  0  0
  7 26  3  0  0  0  0
  8  9  1  0  0  0  0
  8 13  1  0  0  0  0
  8 29  1  0  0  0  0
  9 10  1  0  0  0  0
  9 30  1  0  0  0  0
  9 31  1  0  0  0  0
 10 11  1  0  0  0  0
 10 32  1  0  0  0  0
 10 33  1  0  0  0  0
 11 34  1  0  0  0  0
 11 35  1  0  0  0  0
 12 14  1  0  0  0  0
 12 36  1  0  0  0  0
 12 37  1  0  0  0  0
 14 15  2  0  0  0  0
 14 16  1  0  0  0  0
 15 18  1  0  0  0  0
 15 38  1  0  0  0  0
 16 19  2  0  0  0  0
 16 39  1  0  0  0  0
 17 20  1  0  0  0  0
 18 21  2  0  0  0  0
 18 26  1  0  0  0  0
 19 21  1  0  0  0  0
 19 40  1  0  0  0  0
 20 22  1  0  0  0  0
 20 23  2  0  0  0  0
 21 41  1  0  0  0  0
 22 24  2  0  0  0  0
 22 42  1  0  0  0  0
 23 43  1  0  0  0  0
 24 25  1  0  0  0  0
 24 44  1  0  0  0  0
 27 45  1  0  0  0  0
 27 46  1  0  0  0  0
 27 47  1  0  0  0  0
 28 48  1  0  0  0  0
 28 49  1  0  0  0  0
 28 50  1  0  0  0  0
M  END
> <PUBCHEM_COMPOUND_CID>
45783799

> <PUBCHEM_CONFORMER_RMSD>
0.8

> <PUBCHEM_CONFORMER_DIVERSEORDER>
1
66
18
59
150
181
127
157
119
15
11
76
139
133
172
2
107
187
26
129
12
125
152
163
120
158
122
99
153
168
148
123
117
179
111
49
34
54
58
78
106
159
124
121
20
115
126
75
72
180
97
162
61
38
10
184
79
35
86
37
113
73
174
151
135
112
48
132
91
98
144
108
143
175
170
94
80
90
29
160
63
30
130
164
146
33
134
13
173
88
77
161
9
178
109
69
169
53
110
6
102
74
116
50
128
31
81
32
65
176
57
5
136
95
177
183
16
118
56
52
8
131
105
188
138
68
87
89
84
43
36
142
186
103
156
166
147
83
3
104
155
92
165
182
145
137
17
70
28
185
101
149
22
71
55
46
114
25
154
39
140
24
62
82
96
141
93
23
14
42
51
47
40
100
64
60
167
41
171
44
19
7
45
21
85
67
27
4

> <PUBCHEM_MMFF94_PARTIAL_CHARGES>
33
1 -0.02
11 0.27
12 0.41
13 0.3
14 -0.14
15 -0.15
16 -0.15
17 0.46
18 0.07
19 -0.15
2 -0.81
20 0.05
21 -0.15
22 -0.15
23 0.16
24 -0.15
25 0.41
26 0.48
27 0.37
28 0.37
3 -0.57
38 0.15
39 0.15
4 -0.41
40 0.15
41 0.15
42 0.15
43 0.15
44 0.15
5 -0.62
6 -0.84
7 -0.56
8 0.45

> <PUBCHEM_EFFECTIVE_ROTOR_COUNT>
6

> <PUBCHEM_PHARMACOPHORE_FEATURES>
8
1 2 cation
1 7 acceptor
3 3 4 17 cation
3 5 6 25 cation
5 1 3 4 13 17 rings
5 2 8 9 10 11 rings
6 14 15 16 18 19 21 rings
6 5 20 22 23 24 25 rings

> <PUBCHEM_HEAVY_ATOM_COUNT>
28

> <PUBCHEM_ATOM_DEF_STEREO_COUNT>
1

> <PUBCHEM_ATOM_UDEF_STEREO_COUNT>
0

> <PUBCHEM_BOND_DEF_STEREO_COUNT>
0

> <PUBCHEM_BOND_UDEF_STEREO_COUNT>
0

> <PUBCHEM_ISOTOPIC_ATOM_COUNT>
0

> <PUBCHEM_COMPONENT_COUNT>
1

> <PUBCHEM_CACTVS_TAUTO_COUNT>
1

> <PUBCHEM_CONFORMER_ID>
02BA9AF700000001

> <PUBCHEM_MMFF94_ENERGY>
68.2119

> <PUBCHEM_FEATURE_SELFOVERLAP>
40.598

> <PUBCHEM_SHAPE_FINGERPRINT>
10871710 139 18262802835346690757
1100329 8 18410303514451126577
12156800 1 16667060736124335757
12166972 35 17822293543068941486
12655364 131 16662311920709678946
12788726 201 18339074887207133403
13583140 156 15502669203773295496
13782708 43 17131565955530381798
14068700 675 18343294898734026356
14142880 1 18194694657132458361
14840074 17 18192448376235840201
14910302 57 17488744454643077950
14931854 50 18261105270865811279
15183329 4 18189909630569686782
15420108 30 16604040904707865290
16090146 7 17489594476939112631
17357779 13 18201148940394243259
17492 54 18260540096472510989
19438510 23 14780650614318783495
20600515 1 18119781815642368440
20642791 239 18187917392244389665
20691752 17 18188194460294849113
20775438 99 17047077553127234183
20905425 154 17983014745970193981
21304303 64 17749393629178454957
21623110 236 18339090371060685592
23402539 116 18412260631952390582
23419403 2 17910068630288478485
23557571 272 17917992758796791687
23559900 14 18191014806055863901
4280585 95 18335126614282984908
469060 322 18261114032551634832
484989 97 17970349441724365499
531348 171 17845102766212401926
57527295 17 17626391478364596421
57527585 103 17898322525951861971
7471813 234 18198901590129864102

> <PUBCHEM_SHAPE_MULTIPOLES>
540.47
10.95
3.69
1.87
14.9
2.65
0.11
-5.68
-4.55
-2.64
0.18
-0.53
0.4
-2.25

> <PUBCHEM_SHAPE_SELFOVERLAP>
1170.372

> <PUBCHEM_SHAPE_VOLUME>
296.2

> <PUBCHEM_COORDINATE_TYPE>
2
5
10

$$$$
