25313223
  -OEChem-12032416263D

 66 69  0     1  0  0  0  0  0999 V2000
   -2.8852   -3.4146    1.6951 O   0  0  0  0  0  0  0  0  0  0  0  0
   -5.5952    4.3449    0.5604 O   0  0  0  0  0  0  0  0  0  0  0  0
   -6.7457    2.3961    0.3173 O   0  0  0  0  0  0  0  0  0  0  0  0
    4.7218   -1.5310    0.2448 O   0  0  0  0  0  0  0  0  0  0  0  0
   -3.4726   -1.7975    0.1263 N   0  0  0  0  0  0  0  0  0  0  0  0
    0.5883    1.1353   -0.6835 N   0  0  0  0  0  0  0  0  0  0  0  0
    3.3888    0.9047   -0.1710 N   0  0  0  0  0  0  0  0  0  0  0  0
   -3.1366    0.4123   -0.9557 C   0  0  2  0  0  0  0  0  0  0  0  0
   -4.3741    0.9362   -0.1827 C   0  0  1  0  0  0  0  0  0  0  0  0
   -1.4874   -3.2387   -0.1694 C   0  0  0  0  0  0  0  0  0  0  0  0
   -3.2491   -1.1104   -1.1512 C   0  0  0  0  0  0  0  0  0  0  0  0
   -4.5979    0.1551    1.1234 C   0  0  0  0  0  0  0  0  0  0  0  0
   -1.6633   -4.2404   -1.2728 C   0  0  0  0  0  0  0  0  0  0  0  0
   -0.9452   -4.6294   -0.0139 C   0  0  0  0  0  0  0  0  0  0  0  0
   -4.6494   -1.3493    0.8690 C   0  0  0  0  0  0  0  0  0  0  0  0
   -1.7962    0.7675   -0.3002 C   0  0  0  0  0  0  0  0  0  0  0  0
   -2.6771   -2.8277    0.6366 C   0  0  0  0  0  0  0  0  0  0  0  0
   -4.3191    2.4390    0.0910 C   0  0  0  0  0  0  0  0  0  0  0  0
   -0.6807    0.8124   -1.3348 C   0  0  0  0  0  0  0  0  0  0  0  0
    1.5660    1.6130   -1.6687 C   0  0  0  0  0  0  0  0  0  0  0  0
    1.1200   -0.0391    0.0189 C   0  0  0  0  0  0  0  0  0  0  0  0
    2.8810    2.0080   -0.9923 C   0  0  0  0  0  0  0  0  0  0  0  0
    2.4194    0.3015    0.7522 C   0  0  0  0  0  0  0  0  0  0  0  0
   -5.6897    3.0106    0.3270 C   0  0  0  0  0  0  0  0  0  0  0  0
    4.7427    0.8673    0.1806 C   0  0  0  0  0  0  0  0  0  0  0  0
    5.3902   -0.3513    0.3837 C   0  0  0  0  0  0  0  0  0  0  0  0
    5.4452    2.0634    0.3278 C   0  0  0  0  0  0  0  0  0  0  0  0
    6.7402   -0.3739    0.7339 C   0  0  0  0  0  0  0  0  0  0  0  0
    6.7952    2.0407    0.6781 C   0  0  0  0  0  0  0  0  0  0  0  0
    7.4428    0.8221    0.8811 C   0  0  0  0  0  0  0  0  0  0  0  0
    4.7229   -2.1268   -1.0508 C   0  0  0  0  0  0  0  0  0  0  0  0
   -3.1666    0.8770   -1.9511 H   0  0  0  0  0  0  0  0  0  0  0  0
   -5.2406    0.7345   -0.8300 H   0  0  0  0  0  0  0  0  0  0  0  0
   -0.7429   -2.4624   -0.3125 H   0  0  0  0  0  0  0  0  0  0  0  0
   -4.1159   -1.3384   -1.7845 H   0  0  0  0  0  0  0  0  0  0  0  0
   -2.3763   -1.5046   -1.6738 H   0  0  0  0  0  0  0  0  0  0  0  0
   -5.5281    0.4637    1.6124 H   0  0  0  0  0  0  0  0  0  0  0  0
   -3.7833    0.3709    1.8266 H   0  0  0  0  0  0  0  0  0  0  0  0
   -1.0731   -4.1080   -2.1713 H   0  0  0  0  0  0  0  0  0  0  0  0
   -2.6478   -4.6595   -1.4411 H   0  0  0  0  0  0  0  0  0  0  0  0
   -1.4430   -5.3287    0.6463 H   0  0  0  0  0  0  0  0  0  0  0  0
    0.1292   -4.7597   -0.0677 H   0  0  0  0  0  0  0  0  0  0  0  0
   -4.7345   -1.8819    1.8214 H   0  0  0  0  0  0  0  0  0  0  0  0
   -5.5316   -1.6064    0.2707 H   0  0  0  0  0  0  0  0  0  0  0  0
   -1.5854    0.0659    0.5117 H   0  0  0  0  0  0  0  0  0  0  0  0
   -1.8429    1.7572    0.1667 H   0  0  0  0  0  0  0  0  0  0  0  0
   -3.7038    2.6597    0.9702 H   0  0  0  0  0  0  0  0  0  0  0  0
   -3.9009    2.9590   -0.7790 H   0  0  0  0  0  0  0  0  0  0  0  0
   -0.9341    1.5992   -2.0579 H   0  0  0  0  0  0  0  0  0  0  0  0
   -0.6072   -0.1227   -1.9025 H   0  0  0  0  0  0  0  0  0  0  0  0
    1.1766    2.4950   -2.1918 H   0  0  0  0  0  0  0  0  0  0  0  0
    1.7590    0.8416   -2.4267 H   0  0  0  0  0  0  0  0  0  0  0  0
    1.3071   -0.8613   -0.6852 H   0  0  0  0  0  0  0  0  0  0  0  0
    0.4192   -0.4107    0.7724 H   0  0  0  0  0  0  0  0  0  0  0  0
    3.6002    2.2707   -1.7781 H   0  0  0  0  0  0  0  0  0  0  0  0
    2.7187    2.8958   -0.3675 H   0  0  0  0  0  0  0  0  0  0  0  0
    2.2113    1.0159    1.5600 H   0  0  0  0  0  0  0  0  0  0  0  0
    2.7890   -0.6081    1.2343 H   0  0  0  0  0  0  0  0  0  0  0  0
   -6.4737    4.7514    0.7192 H   0  0  0  0  0  0  0  0  0  0  0  0
    4.9722    3.0318    0.1932 H   0  0  0  0  0  0  0  0  0  0  0  0
    7.2512   -1.3194    0.8946 H   0  0  0  0  0  0  0  0  0  0  0  0
    7.3417    2.9719    0.7963 H   0  0  0  0  0  0  0  0  0  0  0  0
    8.4937    0.8046    1.1547 H   0  0  0  0  0  0  0  0  0  0  0  0
    4.1360   -3.0481   -1.0039 H   0  0  0  0  0  0  0  0  0  0  0  0
    5.7437   -2.3770   -1.3565 H   0  0  0  0  0  0  0  0  0  0  0  0
    4.2639   -1.4578   -1.7856 H   0  0  0  0  0  0  0  0  0  0  0  0
  1 17  2  0  0  0  0
  2 24  1  0  0  0  0
  2 59  1  0  0  0  0
  3 24  2  0  0  0  0
  4 26  1  0  0  0  0
  4 31  1  0  0  0  0
  5 11  1  0  0  0  0
  5 15  1  0  0  0  0
  5 17  1  0  0  0  0
  6 19  1  0  0  0  0
  6 20  1  0  0  0  0
  6 21  1  0  0  0  0
  7 22  1  0  0  0  0
  7 23  1  0  0  0  0
  7 25  1  0  0  0  0
  8  9  1  0  0  0  0
  8 11  1  0  0  0  0
  8 16  1  0  0  0  0
  8 32  1  0  0  0  0
  9 12  1  0  0  0  0
  9 18  1  0  0  0  0
  9 33  1  0  0  0  0
 10 13  1  0  0  0  0
 10 14  1  0  0  0  0
 10 17  1  0  0  0  0
 10 34  1  0  0  0  0
 11 35  1  0  0  0  0
 11 36  1  0  0  0  0
 12 15  1  0  0  0  0
 12 37  1  0  0  0  0
 12 38  1  0  0  0  0
 13 14  1  0  0  0  0
 13 39  1  0  0  0  0
 13 40  1  0  0  0  0
 14 41  1  0  0  0  0
 14 42  1  0  0  0  0
 15 43  1  0  0  0  0
 15 44  1  0  0  0  0
 16 19  1  0  0  0  0
 16 45  1  0  0  0  0
 16 46  1  0  0  0  0
 18 24  1  0  0  0  0
 18 47  1  0  0  0  0
 18 48  1  0  0  0  0
 19 49  1  0  0  0  0
 19 50  1  0  0  0  0
 20 22  1  0  0  0  0
 20 51  1  0  0  0  0
 20 52  1  0  0  0  0
 21 23  1  0  0  0  0
 21 53  1  0  0  0  0
 21 54  1  0  0  0  0
 22 55  1  0  0  0  0
 22 56  1  0  0  0  0
 23 57  1  0  0  0  0
 23 58  1  0  0  0  0
 25 26  1  0  0  0  0
 25 27  2  0  0  0  0
 26 28  2  0  0  0  0
 27 29  1  0  0  0  0
 27 60  1  0  0  0  0
 28 30  1  0  0  0  0
 28 61  1  0  0  0  0
 29 30  2  0  0  0  0
 29 62  1  0  0  0  0
 30 63  1  0  0  0  0
 31 64  1  0  0  0  0
 31 65  1  0  0  0  0
 31 66  1  0  0  0  0
M  END
> <PUBCHEM_COMPOUND_CID>
25313223

> <PUBCHEM_CONFORMER_RMSD>
1.2

> <PUBCHEM_CONFORMER_DIVERSEORDER>
1
179
146
76
148
44
175
104
112
30
151
157
95
105
128
135
77
131
163
16
173
136
59
138
152
62
73
183
134
47
61
117
87
141
166
110
43
100
120
169
85
29
140
88
130
150
124
75
74
34
98
158
93
156
186
116
113
144
51
125
129
172
52
109
35
159
137
63
89
168
78
49
176
153
162
154
143
19
80
127
165
132
79
32
92
178
99
107
167
20
28
121
139
185
60
115
48
42
69
171
9
90
145
164
2
114
111
133
126
46
86
147
25
55
142
65
26
81
106
161
184
72
97
64
96
11
24
123
180
83
45
71
33
40
21
149
31
177
41
50
84
181
103
13
155
22
102
82
54
108
53
174
17
6
170
94
118
70
56
8
36
122
68
67
182
66
7
160
12
37
91
101
38
23
3
14
119
10
39
27
57
58
15
5
18
4

> <PUBCHEM_MMFF94_PARTIAL_CHARGES>
37
1 -0.57
10 -0.1
11 0.3
13 -0.2
14 -0.2
15 0.3
17 0.63
18 0.06
19 0.27
2 -0.65
20 0.27
21 0.27
22 0.37
23 0.37
24 0.66
25 0.1
26 0.08
27 -0.15
28 -0.15
29 -0.15
3 -0.57
30 -0.15
31 0.28
34 0.1
39 0.1
4 -0.36
40 0.1
41 0.1
42 0.1
5 -0.66
59 0.5
6 -0.81
60 0.15
61 0.15
62 0.15
63 0.15
7 -0.84

> <PUBCHEM_EFFECTIVE_ROTOR_COUNT>
12

> <PUBCHEM_PHARMACOPHORE_FEATURES>
10
1 1 acceptor
1 2 acceptor
1 3 acceptor
1 4 acceptor
1 6 cation
1 7 cation
3 2 3 24 anion
6 25 26 27 28 29 30 rings
6 5 8 9 11 12 15 rings
6 6 7 20 21 22 23 rings

> <PUBCHEM_HEAVY_ATOM_COUNT>
31

> <PUBCHEM_ATOM_DEF_STEREO_COUNT>
2

> <PUBCHEM_ATOM_UDEF_STEREO_COUNT>
0

> <PUBCHEM_BOND_DEF_STEREO_COUNT>
0

> <PUBCHEM_BOND_UDEF_STEREO_COUNT>
0

> <PUBCHEM_ISOTOPIC_ATOM_COUNT>
0

> <PUBCHEM_COMPONENT_COUNT>
1

> <PUBCHEM_CACTVS_TAUTO_COUNT>
1

> <PUBCHEM_CONFORMER_ID>
01823FC700000001

> <PUBCHEM_MMFF94_ENERGY>
93.1385

> <PUBCHEM_FEATURE_SELFOVERLAP>
50.806

> <PUBCHEM_SHAPE_FINGERPRINT>
10864689 126 18268440031990085966
11524674 6 18272367572917179087
12107183 9 18333449820343309692
12616971 3 16805324413949006324
12988421 55 18129960992083717041
13583140 156 17845370119314874784
144659 39 18130227163875810558
14844126 61 18265897045972379603
15021287 119 17313100895258009508
15250474 111 18119809359753226614
15348495 7 18340201998849148064
15400415 2 18411415107789854644
15439362 3 17976819780096493213
15537594 2 17095517366584549464
16110190 28 18260548948131056876
16994733 274 16271378388253490153
19301679 30 18046921642889911123
20580484 21 17764592010773985545
21033648 29 18272357681275037841
229767 44 18333734611182141341
23522609 53 17677353687514519516
24771293 8 18041837454754037212
255183 451 9077669670503793625
312425 54 18335693949783137624
3383291 50 18261393416439039507
338550 245 18115310102585828934
3633792 109 18261656109723400181
4073 2 18408323311357727960
5104073 3 18262506092288718624
5364581 5 17911227640240897816
58260988 114 16588595330802191395
6009941 240 18413387622939233920
6086070 43 16558454362161855192
6371380 46 18195257628243880350
6700243 42 11820119846821270523
7226269 152 17988925544113659025
9896288 288 18336834173379577747
9981440 41 18338527348603945241

> <PUBCHEM_SHAPE_MULTIPOLES>
599.55
18.21
5.1
1.23
18.91
3.91
0.18
-12.53
-6.04
-8.24
-0.08
-0.17
0.26
0.1

> <PUBCHEM_SHAPE_SELFOVERLAP>
1246.811

> <PUBCHEM_SHAPE_VOLUME>
339.3

> <PUBCHEM_COORDINATE_TYPE>
2
5
10

$$$$
