28962876
  -OEChem-12032416203D

 52 54  0     1  0  0  0  0  0999 V2000
   -2.3920    1.7318    0.1225 O   0  0  0  0  0  0  0  0  0  0  0  0
   -4.2393    3.0962   -0.0034 O   0  0  0  0  0  0  0  0  0  0  0  0
    4.2020   -0.1601   -1.5295 O   0  0  0  0  0  0  0  0  0  0  0  0
    6.3962    0.7832   -0.2873 O   0  0  0  0  0  0  0  0  0  0  0  0
    2.8931    0.1088    0.3734 N   0  0  0  0  0  0  0  0  0  0  0  0
   -0.8973   -0.2930   -0.0899 C   0  0  1  0  0  0  0  0  0  0  0  0
   -0.9455   -1.8437    0.1796 C   0  0  1  0  0  0  0  0  0  0  0  0
   -2.2054    0.3449    0.4129 C   0  0  2  0  0  0  0  0  0  0  0  0
   -3.3929   -0.2726   -0.3044 C   0  0  1  0  0  0  0  0  0  0  0  0
    0.4228    0.3460    0.4414 C   0  0  1  0  0  0  0  0  0  0  0  0
   -2.2411   -2.4654   -0.4271 C   0  0  0  0  0  0  0  0  0  0  0  0
    0.2776   -2.4928   -0.5066 C   0  0  0  0  0  0  0  0  0  0  0  0
   -3.5314   -1.7499   -0.0001 C   0  0  0  0  0  0  0  0  0  0  0  0
    1.6487   -0.3725   -0.1872 C   0  0  2  0  0  0  0  0  0  0  0  0
    1.6020   -1.8965   -0.0434 C   0  0  0  0  0  0  0  0  0  0  0  0
   -4.5019    0.6672    0.1283 C   0  0  1  0  0  0  0  0  0  0  0  0
   -0.9196   -2.1896    1.6913 C   0  0  0  0  0  0  0  0  0  0  0  0
    0.5043    1.8553    0.1602 C   0  0  0  0  0  0  0  0  0  0  0  0
   -3.7462    1.9817    0.0709 C   0  0  0  0  0  0  0  0  0  0  0  0
   -5.7044    0.6437   -0.7963 C   0  0  0  0  0  0  0  0  0  0  0  0
    4.0690    0.1724   -0.3548 C   0  0  0  0  0  0  0  0  0  0  0  0
    5.2116    0.7144    0.4774 C   0  0  0  0  0  0  0  0  0  0  0  0
    7.4898    1.2906    0.4720 C   0  0  0  0  0  0  0  0  0  0  0  0
   -0.8764   -0.1431   -1.1811 H   0  0  0  0  0  0  0  0  0  0  0  0
   -2.2734    0.2390    1.5032 H   0  0  0  0  0  0  0  0  0  0  0  0
   -3.2546   -0.1581   -1.3918 H   0  0  0  0  0  0  0  0  0  0  0  0
    0.4670    0.2312    1.5317 H   0  0  0  0  0  0  0  0  0  0  0  0
   -2.3145   -3.5275   -0.1614 H   0  0  0  0  0  0  0  0  0  0  0  0
   -2.1781   -2.4290   -1.5232 H   0  0  0  0  0  0  0  0  0  0  0  0
    0.2006   -2.3657   -1.5947 H   0  0  0  0  0  0  0  0  0  0  0  0
    0.2874   -3.5748   -0.3239 H   0  0  0  0  0  0  0  0  0  0  0  0
   -4.3805   -2.1733   -0.5484 H   0  0  0  0  0  0  0  0  0  0  0  0
   -3.7308   -1.9136    1.0644 H   0  0  0  0  0  0  0  0  0  0  0  0
    1.6604   -0.1430   -1.2618 H   0  0  0  0  0  0  0  0  0  0  0  0
    1.7992   -2.1827    0.9970 H   0  0  0  0  0  0  0  0  0  0  0  0
    2.4146   -2.3477   -0.6275 H   0  0  0  0  0  0  0  0  0  0  0  0
   -4.8045    0.4862    1.1661 H   0  0  0  0  0  0  0  0  0  0  0  0
   -0.0368   -1.7977    2.2024 H   0  0  0  0  0  0  0  0  0  0  0  0
   -0.9154   -3.2766    1.8363 H   0  0  0  0  0  0  0  0  0  0  0  0
   -1.7910   -1.8011    2.2251 H   0  0  0  0  0  0  0  0  0  0  0  0
    1.4946    2.2600    0.3928 H   0  0  0  0  0  0  0  0  0  0  0  0
   -0.1983    2.4116    0.7865 H   0  0  0  0  0  0  0  0  0  0  0  0
    0.2918    2.0758   -0.8910 H   0  0  0  0  0  0  0  0  0  0  0  0
    2.9102    0.3504    1.3603 H   0  0  0  0  0  0  0  0  0  0  0  0
   -5.4277    0.9023   -1.8244 H   0  0  0  0  0  0  0  0  0  0  0  0
   -6.4542    1.3726   -0.4700 H   0  0  0  0  0  0  0  0  0  0  0  0
   -6.1739   -0.3448   -0.8047 H   0  0  0  0  0  0  0  0  0  0  0  0
    4.9380    1.7147    0.8328 H   0  0  0  0  0  0  0  0  0  0  0  0
    5.3601    0.0500    1.3367 H   0  0  0  0  0  0  0  0  0  0  0  0
    8.3719    1.3188   -0.1732 H   0  0  0  0  0  0  0  0  0  0  0  0
    7.6991    0.6367    1.3240 H   0  0  0  0  0  0  0  0  0  0  0  0
    7.2757    2.3062    0.8183 H   0  0  0  0  0  0  0  0  0  0  0  0
  1  8  1  0  0  0  0
  1 19  1  0  0  0  0
  2 19  2  0  0  0  0
  3 21  2  0  0  0  0
  4 22  1  0  0  0  0
  4 23  1  0  0  0  0
  5 14  1  0  0  0  0
  5 21  1  0  0  0  0
  5 44  1  0  0  0  0
  6  7  1  0  0  0  0
  6  8  1  0  0  0  0
  6 10  1  0  0  0  0
  6 24  1  0  0  0  0
  7 11  1  0  0  0  0
  7 12  1  0  0  0  0
  7 17  1  0  0  0  0
  8  9  1  0  0  0  0
  8 25  1  0  0  0  0
  9 13  1  0  0  0  0
  9 16  1  0  0  0  0
  9 26  1  0  0  0  0
 10 14  1  0  0  0  0
 10 18  1  0  0  0  0
 10 27  1  0  0  0  0
 11 13  1  0  0  0  0
 11 28  1  0  0  0  0
 11 29  1  0  0  0  0
 12 15  1  0  0  0  0
 12 30  1  0  0  0  0
 12 31  1  0  0  0  0
 13 32  1  0  0  0  0
 13 33  1  0  0  0  0
 14 15  1  0  0  0  0
 14 34  1  0  0  0  0
 15 35  1  0  0  0  0
 15 36  1  0  0  0  0
 16 19  1  0  0  0  0
 16 20  1  0  0  0  0
 16 37  1  0  0  0  0
 17 38  1  0  0  0  0
 17 39  1  0  0  0  0
 17 40  1  0  0  0  0
 18 41  1  0  0  0  0
 18 42  1  0  0  0  0
 18 43  1  0  0  0  0
 20 45  1  0  0  0  0
 20 46  1  0  0  0  0
 20 47  1  0  0  0  0
 21 22  1  0  0  0  0
 22 48  1  0  0  0  0
 22 49  1  0  0  0  0
 23 50  1  0  0  0  0
 23 51  1  0  0  0  0
 23 52  1  0  0  0  0
M  END
> <PUBCHEM_COMPOUND_CID>
28962876

> <PUBCHEM_CONFORMER_RMSD>
0.8

> <PUBCHEM_CONFORMER_DIVERSEORDER>
1
8
6
2
3
7
5
4
9

> <PUBCHEM_MMFF94_PARTIAL_CHARGES>
13
1 -0.43
14 0.3
16 0.06
19 0.66
2 -0.57
21 0.57
22 0.34
23 0.28
3 -0.57
4 -0.56
44 0.37
5 -0.73
8 0.28

> <PUBCHEM_EFFECTIVE_ROTOR_COUNT>
5.6

> <PUBCHEM_PHARMACOPHORE_FEATURES>
7
1 2 acceptor
1 3 acceptor
1 4 acceptor
1 5 donor
5 1 8 9 16 19 rings
6 6 7 10 12 14 15 rings
6 6 7 8 9 11 13 rings

> <PUBCHEM_HEAVY_ATOM_COUNT>
23

> <PUBCHEM_ATOM_DEF_STEREO_COUNT>
7

> <PUBCHEM_ATOM_UDEF_STEREO_COUNT>
0

> <PUBCHEM_BOND_DEF_STEREO_COUNT>
0

> <PUBCHEM_BOND_UDEF_STEREO_COUNT>
0

> <PUBCHEM_ISOTOPIC_ATOM_COUNT>
0

> <PUBCHEM_COMPONENT_COUNT>
1

> <PUBCHEM_CACTVS_TAUTO_COUNT>
4

> <PUBCHEM_CONFORMER_ID>
01B9F03C00000001

> <PUBCHEM_MMFF94_ENERGY>
61.1106

> <PUBCHEM_FEATURE_SELFOVERLAP>
35.622

> <PUBCHEM_SHAPE_FINGERPRINT>
10411042 1 17762899166515242359
10493431 412 18337958891901219265
10967382 1 18339922611352558835
11315181 36 17896035611107328826
12107183 9 18118392952912276074
12236239 1 17822288020479262274
12390115 104 18200326411592865569
12616971 3 16660365918029835894
12633257 1 16515408495151343598
12788726 201 17916867916027164528
12838862 33 18338217315920574517
13140716 1 18122071063888025355
13402501 40 18272929453782589104
14251764 75 17838343986732674753
14466204 15 18410290328990873816
14765038 42 17987533519728233905
14790565 3 17694793917447203929
15196674 1 18267584611621194655
16945 1 18412823603802673779
17980427 23 18114748243274065270
18608769 82 18339364166941462387
19489759 90 18410291449908662202
200 152 14764351526351119258
20645477 70 16917079806952066806
21236236 1 18412261774334290454
21267235 1 18267868457699947279
21279426 13 18270687463647515894
22182313 1 18198087861236687551
23402539 116 18410569625933862246
23559900 14 18130219467162566696
25147074 1 18262217972328045010
2748010 2 18052250989039876531
2838139 119 18342168956214880468
3004659 81 18337113376761589614
335352 9 18411978100698399421
34934 24 18410289190223354811
350125 39 18339365266215537801
3759504 43 17821734944265647883
4073 2 18114748231091159778
4340502 62 16660370242661015619
474 4 17894920598562923007
5104073 3 18262525775480154299
5283173 99 18342457058537502312
559249 180 18335698360745958570
59755656 215 18413384324662378221
59755656 520 18260260859116187430
6327066 14 18335694980332884013
636775 72 18341608274617102416
7226269 152 18413671314150679040
7808743 9 18410008819042598969
9981440 41 18334581247693948746

> <PUBCHEM_SHAPE_MULTIPOLES>
444.87
13.27
2.79
0.92
21.81
0.25
-0.08
-8.87
1.11
-2.8
-0.19
0.19
0.31
0.36

> <PUBCHEM_SHAPE_SELFOVERLAP>
923.568

> <PUBCHEM_SHAPE_VOLUME>
252.5

> <PUBCHEM_COORDINATE_TYPE>
2
5
10

$$$$
