75536106
  -OEChem-12032416293D

 53 56  0     1  0  0  0  0  0999 V2000
    2.3214    3.3773   -1.3626 O   0  0  0  0  0  0  0  0  0  0  0  0
    1.9678    4.6459    1.0758 O   0  0  0  0  0  0  0  0  0  0  0  0
    5.2669   -3.1003   -0.4519 O   0  0  0  0  0  0  0  0  0  0  0  0
   -0.5942    1.3577   -0.6126 N   0  0  0  0  0  0  0  0  0  0  0  0
   -4.4893   -0.6491   -1.5211 N   0  0  0  0  0  0  0  0  0  0  0  0
    0.8476    1.6053   -0.6791 C   0  0  2  0  0  0  0  0  0  0  0  0
    1.5355    1.0301    0.5977 C   0  0  2  0  0  0  0  0  0  0  0  0
    1.1213    3.1171   -0.6360 C   0  0  1  0  0  0  0  0  0  0  0  0
    2.1568    2.2402    1.3219 C   0  0  0  0  0  0  0  0  0  0  0  0
    1.3130    3.4146    0.8480 C   0  0  1  0  0  0  0  0  0  0  0  0
    2.5327   -0.0738    0.3177 C   0  0  0  0  0  0  0  0  0  0  0  0
   -0.9039   -0.0135   -0.9917 C   0  0  0  0  0  0  0  0  0  0  0  0
    3.6281    0.1700   -0.5108 C   0  0  0  0  0  0  0  0  0  0  0  0
    2.3563   -1.3346    0.8877 C   0  0  0  0  0  0  0  0  0  0  0  0
   -2.3815   -0.2943   -0.9227 C   0  0  0  0  0  0  0  0  0  0  0  0
   -3.1471   -0.5169    0.2560 C   0  0  0  0  0  0  0  0  0  0  0  0
    4.5471   -0.8469   -0.7692 C   0  0  0  0  0  0  0  0  0  0  0  0
    3.2753   -2.3516    0.6293 C   0  0  0  0  0  0  0  0  0  0  0  0
   -3.2344   -0.3818   -1.9988 C   0  0  0  0  0  0  0  0  0  0  0  0
   -4.4658   -0.7369   -0.1474 C   0  0  0  0  0  0  0  0  0  0  0  0
    4.3708   -2.1077   -0.1991 C   0  0  0  0  0  0  0  0  0  0  0  0
   -2.8437   -0.5525    1.6315 C   0  0  0  0  0  0  0  0  0  0  0  0
   -5.5005   -0.9917    0.7597 C   0  0  0  0  0  0  0  0  0  0  0  0
   -5.6611   -0.8128   -2.3542 C   0  0  0  0  0  0  0  0  0  0  0  0
   -3.8685   -0.8062    2.5503 C   0  0  0  0  0  0  0  0  0  0  0  0
   -5.1758   -1.0221    2.1189 C   0  0  0  0  0  0  0  0  0  0  0  0
    5.0250   -4.3652    0.1626 C   0  0  0  0  0  0  0  0  0  0  0  0
    1.2559    1.1830   -1.6060 H   0  0  0  0  0  0  0  0  0  0  0  0
    0.7680    0.6302    1.2767 H   0  0  0  0  0  0  0  0  0  0  0  0
    0.3355    3.7382   -1.0785 H   0  0  0  0  0  0  0  0  0  0  0  0
    2.1148    2.1277    2.4112 H   0  0  0  0  0  0  0  0  0  0  0  0
    3.2130    2.3991    1.0727 H   0  0  0  0  0  0  0  0  0  0  0  0
    0.3458    3.4259    1.3647 H   0  0  0  0  0  0  0  0  0  0  0  0
   -1.0729    1.9890   -1.2556 H   0  0  0  0  0  0  0  0  0  0  0  0
   -0.3995   -0.7310   -0.3348 H   0  0  0  0  0  0  0  0  0  0  0  0
   -0.5543   -0.2143   -2.0129 H   0  0  0  0  0  0  0  0  0  0  0  0
    2.1511    3.1590   -2.2948 H   0  0  0  0  0  0  0  0  0  0  0  0
    2.1323    4.7171    2.0315 H   0  0  0  0  0  0  0  0  0  0  0  0
    3.7860    1.1430   -0.9657 H   0  0  0  0  0  0  0  0  0  0  0  0
    1.5076   -1.5398    1.5348 H   0  0  0  0  0  0  0  0  0  0  0  0
    5.3984   -0.6512   -1.4155 H   0  0  0  0  0  0  0  0  0  0  0  0
    3.0777   -3.3066    1.1040 H   0  0  0  0  0  0  0  0  0  0  0  0
   -3.0490   -0.2755   -3.0595 H   0  0  0  0  0  0  0  0  0  0  0  0
   -1.8297   -0.3864    1.9843 H   0  0  0  0  0  0  0  0  0  0  0  0
   -6.5203   -1.1607    0.4305 H   0  0  0  0  0  0  0  0  0  0  0  0
   -6.0625   -1.8163   -2.1914 H   0  0  0  0  0  0  0  0  0  0  0  0
   -6.3931   -0.0515   -2.0730 H   0  0  0  0  0  0  0  0  0  0  0  0
   -5.3853   -0.6906   -3.4047 H   0  0  0  0  0  0  0  0  0  0  0  0
   -3.6403   -0.8348    3.6125 H   0  0  0  0  0  0  0  0  0  0  0  0
   -5.9562   -1.2175    2.8499 H   0  0  0  0  0  0  0  0  0  0  0  0
    5.8343   -5.0347   -0.1467 H   0  0  0  0  0  0  0  0  0  0  0  0
    4.0889   -4.8114   -0.1898 H   0  0  0  0  0  0  0  0  0  0  0  0
    5.0670   -4.2965    1.2549 H   0  0  0  0  0  0  0  0  0  0  0  0
  1  8  1  0  0  0  0
  1 37  1  0  0  0  0
  2 10  1  0  0  0  0
  2 38  1  0  0  0  0
  3 21  1  0  0  0  0
  3 27  1  0  0  0  0
  4  6  1  0  0  0  0
  4 12  1  0  0  0  0
  4 34  1  0  0  0  0
  5 19  1  0  0  0  0
  5 20  1  0  0  0  0
  5 24  1  0  0  0  0
  6  7  1  0  0  0  0
  6  8  1  0  0  0  0
  6 28  1  0  0  0  0
  7  9  1  0  0  0  0
  7 11  1  0  0  0  0
  7 29  1  0  0  0  0
  8 10  1  0  0  0  0
  8 30  1  0  0  0  0
  9 10  1  0  0  0  0
  9 31  1  0  0  0  0
  9 32  1  0  0  0  0
 10 33  1  0  0  0  0
 11 13  2  0  0  0  0
 11 14  1  0  0  0  0
 12 15  1  0  0  0  0
 12 35  1  0  0  0  0
 12 36  1  0  0  0  0
 13 17  1  0  0  0  0
 13 39  1  0  0  0  0
 14 18  2  0  0  0  0
 14 40  1  0  0  0  0
 15 16  1  0  0  0  0
 15 19  2  0  0  0  0
 16 20  1  0  0  0  0
 16 22  2  0  0  0  0
 17 21  2  0  0  0  0
 17 41  1  0  0  0  0
 18 21  1  0  0  0  0
 18 42  1  0  0  0  0
 19 43  1  0  0  0  0
 20 23  2  0  0  0  0
 22 25  1  0  0  0  0
 22 44  1  0  0  0  0
 23 26  1  0  0  0  0
 23 45  1  0  0  0  0
 24 46  1  0  0  0  0
 24 47  1  0  0  0  0
 24 48  1  0  0  0  0
 25 26  2  0  0  0  0
 25 49  1  0  0  0  0
 26 50  1  0  0  0  0
 27 51  1  0  0  0  0
 27 52  1  0  0  0  0
 27 53  1  0  0  0  0
M  END
> <PUBCHEM_COMPOUND_CID>
75536106

> <PUBCHEM_CONFORMER_RMSD>
0.8

> <PUBCHEM_CONFORMER_DIVERSEORDER>
4
5
51
100
38
37
36
75
102
25
95
28
101
92
11
29
61
78
9
71
67
97
8
39
32
98
16
91
24
21
87
83
74
10
62
68
43
42
56
103
17
63
15
7
77
19
23
40
20
14
104
49
81
54
57
50
3
27
6
96
65
90
30
89
60
73
41
80
72
85
48
76
18
70
45
44
46
53
94
2
99
88
47
31
66
26
86
79
33
82
12
55
34
84
69
52
35
58
59
93
22
64
1
13

> <PUBCHEM_MMFF94_PARTIAL_CHARGES>
37
1 -0.68
10 0.28
11 -0.14
12 0.45
13 -0.15
14 -0.15
15 -0.18
17 -0.15
18 -0.15
19 -0.3
2 -0.68
20 -0.15
21 0.08
22 -0.15
23 -0.15
24 0.26
25 -0.15
26 -0.15
27 0.28
3 -0.36
34 0.36
37 0.4
38 0.4
39 0.15
4 -0.9
40 0.15
41 0.15
42 0.15
43 0.15
44 0.15
45 0.15
49 0.15
5 0.05
50 0.15
6 0.27
7 0.14
8 0.28

> <PUBCHEM_EFFECTIVE_ROTOR_COUNT>
6

> <PUBCHEM_PHARMACOPHORE_FEATURES>
12
1 1 acceptor
1 1 donor
1 2 acceptor
1 2 donor
1 3 acceptor
1 4 cation
1 4 donor
1 5 cation
5 5 15 16 19 20 rings
5 6 7 8 9 10 rings
6 11 13 14 17 18 21 rings
6 16 20 22 23 25 26 rings

> <PUBCHEM_HEAVY_ATOM_COUNT>
27

> <PUBCHEM_ATOM_DEF_STEREO_COUNT>
4

> <PUBCHEM_ATOM_UDEF_STEREO_COUNT>
0

> <PUBCHEM_BOND_DEF_STEREO_COUNT>
0

> <PUBCHEM_BOND_UDEF_STEREO_COUNT>
0

> <PUBCHEM_ISOTOPIC_ATOM_COUNT>
0

> <PUBCHEM_COMPONENT_COUNT>
1

> <PUBCHEM_CACTVS_TAUTO_COUNT>
1

> <PUBCHEM_CONFORMER_ID>
048096EA00000004

> <PUBCHEM_MMFF94_ENERGY>
78.0145

> <PUBCHEM_FEATURE_SELFOVERLAP>
60.997

> <PUBCHEM_SHAPE_FINGERPRINT>
10369192 42 16954796590026703012
10764073 3 14474174869095660996
10794284 68 17768852756034250344
10928967 22 18270961241695367814
11809386 21 17757831122770907474
11991303 11 17541393336209833788
12166972 35 17988629818740960327
12342043 65 17750534999636560787
12422481 6 17201083574038354094
12553582 1 18412824664353575806
12633257 1 16559032666438522643
12760667 363 18265895748781739446
12788726 201 17687732849066481368
13103583 49 17203326672079310210
13402501 40 17822021912405712963
13533116 47 18338242690834798707
13631057 29 18122618363439984318
13673619 4 17822305569362472339
13726171 33 15574721283268511725
13911852 28 18269830930677413158
13955234 65 18268712899208568472
14251764 30 18334868177316015578
14739800 52 15911905331308236688
14932701 244 11748951921215338163
14950920 106 18198367193921146779
15188451 53 16629945686605920495
15806764 133 17676208009171826069
17349148 13 17346314938488796991
1813 80 18200888283319247318
18681886 176 15265951054678898864
20505436 4 17485099818515540405
20645477 70 18189886681651445781
20693207 138 17458341961897408751
20775438 99 17905857599575872191
21120745 212 18124048836472922428
21365058 27 17540561418361520396
2215653 11 17967805055826662079
22849341 161 18202013113578844236
23559900 14 17240481438135719559
314194 84 18411419514210328102
341906 21 15482679017465821785
345986 75 18060425672992247816
3633792 109 18058994186478792829
46194498 28 17169005532450166975
513202 73 17840032844992774198
5486654 36 18263089820745174569
5912855 24 18051705343609716266
6823239 73 16877941689211721693
70251023 43 18340193164016406845

> <PUBCHEM_SHAPE_MULTIPOLES>
528.08
12.78
4.43
2
7.56
2.83
-0.16
-12.84
0.73
-9.56
-0.74
3.66
-0.13
0.64

> <PUBCHEM_SHAPE_SELFOVERLAP>
1145.923

> <PUBCHEM_SHAPE_VOLUME>
292.5

> <PUBCHEM_COORDINATE_TYPE>
2
5
10

$$$$
