40586252
  -OEChem-12032416133D

 70 74  0     1  0  0  0  0  0999 V2000
    0.4984   -3.2456   -0.1618 S   0  0  0  0  0  0  0  0  0  0  0  0
    7.0641    1.0409   -0.5405 O   0  0  0  0  0  0  0  0  0  0  0  0
    7.2083   -0.9448    0.7940 O   0  0  0  0  0  0  0  0  0  0  0  0
   -0.7013    2.2438   -1.3106 O   0  0  0  0  0  0  0  0  0  0  0  0
   -3.6325   -1.0698   -0.3250 O   0  0  0  0  0  0  0  0  0  0  0  0
   -0.6381   -0.9216   -0.1681 N   0  0  0  0  0  0  0  0  0  0  0  0
   -2.0897   -2.8423   -0.2828 N   0  0  0  0  0  0  0  0  0  0  0  0
   -1.8460    2.3825    0.7359 N   0  0  0  0  0  0  0  0  0  0  0  0
    2.8364    0.6351    0.4443 C   0  0  2  0  0  0  0  0  0  0  0  0
    3.5825   -0.5241   -0.3526 C   0  0  1  0  0  0  0  0  0  0  0  0
    5.1596   -0.4939   -0.3504 C   0  0  1  0  0  0  0  0  0  0  0  0
    1.3154    0.6696   -0.0442 C   0  0  1  0  0  0  0  0  0  0  0  0
    3.4905    1.9990    0.1024 C   0  0  0  0  0  0  0  0  0  0  0  0
    5.6449    0.9500   -0.6628 C   0  0  1  0  0  0  0  0  0  0  0  0
    2.9817   -1.9207   -0.0193 C   0  0  0  0  0  0  0  0  0  0  0  0
    5.0069    2.0058    0.2332 C   0  0  0  0  0  0  0  0  0  0  0  0
    2.8800    0.4340    1.9789 C   0  0  0  0  0  0  0  0  0  0  0  0
    0.7268   -0.7173   -0.0835 C   0  0  0  0  0  0  0  0  0  0  0  0
    5.8088   -1.0245    0.9471 C   0  0  0  0  0  0  0  0  0  0  0  0
    5.6859   -1.4147   -1.4876 C   0  0  0  0  0  0  0  0  0  0  0  0
    1.4929   -1.8650   -0.0896 C   0  0  0  0  0  0  0  0  0  0  0  0
    0.4169    1.6390    0.7355 C   0  0  0  0  0  0  0  0  0  0  0  0
   -0.7576    2.1208   -0.0915 C   0  0  0  0  0  0  0  0  0  0  0  0
   -0.8745   -2.2150   -0.2073 C   0  0  0  0  0  0  0  0  0  0  0  0
   -4.5219   -3.3259   -0.4111 C   0  0  0  0  0  0  0  0  0  0  0  0
   -3.3909   -2.2797   -0.3379 C   0  0  0  0  0  0  0  0  0  0  0  0
   -4.7683   -4.1925    0.8415 C   0  0  0  0  0  0  0  0  0  0  0  0
   -5.9703   -2.8191   -0.2515 C   0  0  0  0  0  0  0  0  0  0  0  0
   -6.2694   -4.1394    0.4885 C   0  0  0  0  0  0  0  0  0  0  0  0
   -3.1271    2.8476    0.3549 C   0  0  0  0  0  0  0  0  0  0  0  0
   -4.1089    3.0582    1.3231 C   0  0  0  0  0  0  0  0  0  0  0  0
   -3.4081    3.0953   -0.9887 C   0  0  0  0  0  0  0  0  0  0  0  0
   -5.3719    3.5165    0.9476 C   0  0  0  0  0  0  0  0  0  0  0  0
   -4.6708    3.5536   -1.3642 C   0  0  0  0  0  0  0  0  0  0  0  0
   -5.6528    3.7641   -0.3960 C   0  0  0  0  0  0  0  0  0  0  0  0
    3.3138   -0.3358   -1.4067 H   0  0  0  0  0  0  0  0  0  0  0  0
    1.3477    0.9893   -1.0962 H   0  0  0  0  0  0  0  0  0  0  0  0
    3.0916    2.7937    0.7431 H   0  0  0  0  0  0  0  0  0  0  0  0
    3.2357    2.2804   -0.9280 H   0  0  0  0  0  0  0  0  0  0  0  0
    5.4034    1.1886   -1.7072 H   0  0  0  0  0  0  0  0  0  0  0  0
    3.2799   -2.2462    0.9829 H   0  0  0  0  0  0  0  0  0  0  0  0
    3.3477   -2.6680   -0.7314 H   0  0  0  0  0  0  0  0  0  0  0  0
    5.3870    2.9963   -0.0481 H   0  0  0  0  0  0  0  0  0  0  0  0
    5.3178    1.8700    1.2749 H   0  0  0  0  0  0  0  0  0  0  0  0
    2.4255   -0.5100    2.2921 H   0  0  0  0  0  0  0  0  0  0  0  0
    2.3396    1.2330    2.4985 H   0  0  0  0  0  0  0  0  0  0  0  0
    3.8892    0.4657    2.3841 H   0  0  0  0  0  0  0  0  0  0  0  0
    5.5441   -2.0690    1.1372 H   0  0  0  0  0  0  0  0  0  0  0  0
    5.5493   -0.4375    1.8243 H   0  0  0  0  0  0  0  0  0  0  0  0
    6.7644   -1.3057   -1.6479 H   0  0  0  0  0  0  0  0  0  0  0  0
    5.2001   -1.1769   -2.4411 H   0  0  0  0  0  0  0  0  0  0  0  0
    5.4986   -2.4725   -1.2752 H   0  0  0  0  0  0  0  0  0  0  0  0
    0.9571    2.5488    1.0166 H   0  0  0  0  0  0  0  0  0  0  0  0
    0.0685    1.1685    1.6633 H   0  0  0  0  0  0  0  0  0  0  0  0
    7.3242    1.9442   -0.7896 H   0  0  0  0  0  0  0  0  0  0  0  0
    7.6092   -1.2894    1.6100 H   0  0  0  0  0  0  0  0  0  0  0  0
   -2.0331   -3.8577   -0.3009 H   0  0  0  0  0  0  0  0  0  0  0  0
   -1.7289    2.2365    1.7362 H   0  0  0  0  0  0  0  0  0  0  0  0
   -4.4160   -3.9424   -1.3173 H   0  0  0  0  0  0  0  0  0  0  0  0
   -4.5187   -3.7014    1.7893 H   0  0  0  0  0  0  0  0  0  0  0  0
   -4.3181   -5.1885    0.8273 H   0  0  0  0  0  0  0  0  0  0  0  0
   -6.5257   -2.6663   -1.1806 H   0  0  0  0  0  0  0  0  0  0  0  0
   -6.0823   -1.9302    0.3804 H   0  0  0  0  0  0  0  0  0  0  0  0
   -6.5978   -4.9513   -0.1706 H   0  0  0  0  0  0  0  0  0  0  0  0
   -6.9556   -4.0660    1.3357 H   0  0  0  0  0  0  0  0  0  0  0  0
   -3.9033    2.8689    2.3735 H   0  0  0  0  0  0  0  0  0  0  0  0
   -2.7016    2.9557   -1.7946 H   0  0  0  0  0  0  0  0  0  0  0  0
   -6.1365    3.6803    1.7014 H   0  0  0  0  0  0  0  0  0  0  0  0
   -4.8911    3.7465   -2.4101 H   0  0  0  0  0  0  0  0  0  0  0  0
   -6.6361    4.1207   -0.6884 H   0  0  0  0  0  0  0  0  0  0  0  0
  1 21  1  0  0  0  0
  1 24  1  0  0  0  0
  2 14  1  0  0  0  0
  2 55  1  0  0  0  0
  3 19  1  0  0  0  0
  3 56  1  0  0  0  0
  4 23  2  0  0  0  0
  5 26  2  0  0  0  0
  6 18  1  0  0  0  0
  6 24  2  0  0  0  0
  7 24  1  0  0  0  0
  7 26  1  0  0  0  0
  7 57  1  0  0  0  0
  8 23  1  0  0  0  0
  8 30  1  0  0  0  0
  8 58  1  0  0  0  0
  9 10  1  0  0  0  0
  9 12  1  0  0  0  0
  9 13  1  0  0  0  0
  9 17  1  0  0  0  0
 10 11  1  0  0  0  0
 10 15  1  0  0  0  0
 10 36  1  0  0  0  0
 11 14  1  0  0  0  0
 11 19  1  0  0  0  0
 11 20  1  0  0  0  0
 12 18  1  0  0  0  0
 12 22  1  0  0  0  0
 12 37  1  0  0  0  0
 13 16  1  0  0  0  0
 13 38  1  0  0  0  0
 13 39  1  0  0  0  0
 14 16  1  0  0  0  0
 14 40  1  0  0  0  0
 15 21  1  0  0  0  0
 15 41  1  0  0  0  0
 15 42  1  0  0  0  0
 16 43  1  0  0  0  0
 16 44  1  0  0  0  0
 17 45  1  0  0  0  0
 17 46  1  0  0  0  0
 17 47  1  0  0  0  0
 18 21  2  0  0  0  0
 19 48  1  0  0  0  0
 19 49  1  0  0  0  0
 20 50  1  0  0  0  0
 20 51  1  0  0  0  0
 20 52  1  0  0  0  0
 22 23  1  0  0  0  0
 22 53  1  0  0  0  0
 22 54  1  0  0  0  0
 25 26  1  0  0  0  0
 25 27  1  0  0  0  0
 25 28  1  0  0  0  0
 25 59  1  0  0  0  0
 27 29  1  0  0  0  0
 27 60  1  0  0  0  0
 27 61  1  0  0  0  0
 28 29  1  0  0  0  0
 28 62  1  0  0  0  0
 28 63  1  0  0  0  0
 29 64  1  0  0  0  0
 29 65  1  0  0  0  0
 30 31  2  0  0  0  0
 30 32  1  0  0  0  0
 31 33  1  0  0  0  0
 31 66  1  0  0  0  0
 32 34  2  0  0  0  0
 32 67  1  0  0  0  0
 33 35  2  0  0  0  0
 33 68  1  0  0  0  0
 34 35  1  0  0  0  0
 34 69  1  0  0  0  0
 35 70  1  0  0  0  0
M  END
> <PUBCHEM_COMPOUND_CID>
40586252

> <PUBCHEM_CONFORMER_RMSD>
1

> <PUBCHEM_CONFORMER_DIVERSEORDER>
1
27
23
8
22
17
32
20
29
4
25
11
36
10
14
33
19
18
13
34
28
5
9
6
15
26
7
30
35
31
12
24
16
3
21
2

> <PUBCHEM_MMFF94_PARTIAL_CHARGES>
34
1 -0.08
12 0.18
14 0.28
15 0.18
18 0.05
19 0.28
2 -0.68
21 -0.14
22 0.06
23 0.57
24 0.44
25 0.05
26 0.58
3 -0.68
30 0.12
31 -0.15
32 -0.15
33 -0.15
34 -0.15
35 -0.15
4 -0.57
5 -0.57
55 0.4
56 0.4
57 0.37
58 0.37
6 -0.57
66 0.15
67 0.15
68 0.15
69 0.15
7 -0.49
70 0.15
8 -0.55

> <PUBCHEM_EFFECTIVE_ROTOR_COUNT>
10

> <PUBCHEM_PHARMACOPHORE_FEATURES>
13
1 2 acceptor
1 2 donor
1 3 acceptor
1 3 donor
1 4 acceptor
1 5 acceptor
1 7 donor
1 8 donor
4 25 27 28 29 rings
5 1 6 18 21 24 rings
6 30 31 32 33 34 35 rings
6 9 10 11 13 14 16 rings
6 9 10 12 15 18 21 rings

> <PUBCHEM_HEAVY_ATOM_COUNT>
35

> <PUBCHEM_ATOM_DEF_STEREO_COUNT>
5

> <PUBCHEM_ATOM_UDEF_STEREO_COUNT>
0

> <PUBCHEM_BOND_DEF_STEREO_COUNT>
0

> <PUBCHEM_BOND_UDEF_STEREO_COUNT>
0

> <PUBCHEM_ISOTOPIC_ATOM_COUNT>
0

> <PUBCHEM_COMPONENT_COUNT>
1

> <PUBCHEM_CACTVS_TAUTO_COUNT>
6

> <PUBCHEM_CONFORMER_ID>
026B4C0C00000001

> <PUBCHEM_MMFF94_ENERGY>
114.6987

> <PUBCHEM_FEATURE_SELFOVERLAP>
66.119

> <PUBCHEM_SHAPE_FINGERPRINT>
10050765 1 18338518543546915918
10675989 125 17543353108270217268
10688039 33 18263925621660427271
1100329 8 17978789013078163082
11991303 11 18188497869737813141
12156800 1 18196683793941410261
12166972 35 17823696558634821735
12522641 33 18192708952941080765
12788726 201 18263072378893567851
13347071 3 18411697721608236303
13383665 225 18190761893514194332
13383668 254 15913036651959737442
13540713 4 18201996642959545568
13590594 115 18267022950274519923
14028597 1 17606374761104937826
140371 6 18117567446516432398
14681490 219 18267301113551954951
14790565 3 18410578422295760156
14955137 171 18049725423410380411
15276724 80 18269279126269106556
15400415 2 17978510837180050833
15483637 11 18410855452239879695
15927050 60 18268710511755105151
15968369 153 17986934406054629877
16090146 7 16950852504584443298
16993438 75 18408327670981791675
18608769 82 18412263939556931497
19301679 30 18338237188512940915
19319366 153 18055061069755331564
20775438 99 17841420445619842719
21236236 1 18412543206208412413
21360443 126 18337386046237718149
21772528 278 18198066881217992325
23516275 137 16629690509745345973
23576562 1 18261969504992552428
244849 19 17417231230666893864
25223398 141 18413105082446441912
350125 39 18413108381439981874
4058900 60 17909269075267095529
469060 322 17240477013965872999
484989 97 18343588447559917214
513202 73 18336836380823800523
5171179 24 17844513603730512873
59520647 119 18410292481397463765
6036956 94 17757282848673329276
653340 110 18412539934060407489

> <PUBCHEM_SHAPE_MULTIPOLES>
685.71
16.97
6.24
1.15
7.98
0.86
-0.13
1.23
0.15
-16.17
-0.03
0.15
-0.49
0.71

> <PUBCHEM_SHAPE_SELFOVERLAP>
1454.722

> <PUBCHEM_SHAPE_VOLUME>
385.7

> <PUBCHEM_COORDINATE_TYPE>
2
5
10

$$$$
