40780660
  -OEChem-12032416173D

 64 68  0     1  0  0  0  0  0999 V2000
    8.4001    0.4923   -0.4456 F   0  0  0  0  0  0  0  0  0  0  0  0
   -4.0898    1.3290    0.7223 O   0  0  0  0  0  0  0  0  0  0  0  0
   -5.5431    2.8659   -1.4640 O   0  0  0  0  0  0  0  0  0  0  0  0
   -6.2180    0.2455   -1.9604 O   0  0  0  0  0  0  0  0  0  0  0  0
   -1.6640    2.9705    1.3182 O   0  0  0  0  0  0  0  0  0  0  0  0
   -2.7354   -0.7201    2.4405 O   0  0  0  0  0  0  0  0  0  0  0  0
    0.2517   -3.2712   -2.0199 O   0  0  0  0  0  0  0  0  0  0  0  0
    1.8578   -3.9920   -0.3742 O   0  0  0  0  0  0  0  0  0  0  0  0
    0.1355    1.8705    0.3426 N   0  0  0  0  0  0  0  0  0  0  0  0
    2.9750    1.3593    0.1091 N   0  0  0  0  0  0  0  0  0  0  0  0
   -3.8564   -1.4953    0.5628 N   0  0  0  0  0  0  0  0  0  0  0  0
   -3.5570    2.1326   -0.3553 C   0  0  2  0  0  0  0  0  0  0  0  0
   -4.4807    1.9169   -1.5491 C   0  0  1  0  0  0  0  0  0  0  0  0
   -5.0035    0.5183   -1.2946 C   0  0  1  0  0  0  0  0  0  0  0  0
   -5.1703    0.5257    0.2158 C   0  0  1  0  0  0  0  0  0  0  0  0
   -2.1287    1.6741   -0.6162 C   0  0  0  0  0  0  0  0  0  0  0  0
   -5.1114   -0.8594    0.8347 C   0  0  0  0  0  0  0  0  0  0  0  0
   -1.2076    2.2363    0.4388 C   0  0  0  0  0  0  0  0  0  0  0  0
    1.0901    2.3699    1.3288 C   0  0  0  0  0  0  0  0  0  0  0  0
    0.6773    1.0077   -0.7095 C   0  0  0  0  0  0  0  0  0  0  0  0
    2.4736    2.5927    0.7219 C   0  0  0  0  0  0  0  0  0  0  0  0
    2.0002    0.3511   -0.3145 C   0  0  0  0  0  0  0  0  0  0  0  0
    4.3433    1.1403   -0.0310 C   0  0  0  0  0  0  0  0  0  0  0  0
   -2.7508   -1.3732    1.4004 C   0  0  0  0  0  0  0  0  0  0  0  0
    5.2087    2.2216   -0.1979 C   0  0  0  0  0  0  0  0  0  0  0  0
    4.8486   -0.1595   -0.0037 C   0  0  0  0  0  0  0  0  0  0  0  0
   -1.5151   -2.0728    0.9642 C   0  0  0  0  0  0  0  0  0  0  0  0
    6.5791    2.0030   -0.3378 C   0  0  0  0  0  0  0  0  0  0  0  0
    6.2191   -0.3782   -0.1437 C   0  0  0  0  0  0  0  0  0  0  0  0
   -1.2936   -2.3057   -0.3952 C   0  0  0  0  0  0  0  0  0  0  0  0
    7.0843    0.7030   -0.3107 C   0  0  0  0  0  0  0  0  0  0  0  0
   -0.5781   -2.4935    1.9243 C   0  0  0  0  0  0  0  0  0  0  0  0
   -0.1313   -2.9581   -0.7520 C   0  0  0  0  0  0  0  0  0  0  0  0
    0.5912   -3.1519    1.5361 C   0  0  0  0  0  0  0  0  0  0  0  0
    0.7859   -3.3698    0.1877 C   0  0  0  0  0  0  0  0  0  0  0  0
    1.5130   -3.9256   -1.7729 C   0  0  0  0  0  0  0  0  0  0  0  0
   -3.5947    3.1802   -0.0352 H   0  0  0  0  0  0  0  0  0  0  0  0
   -4.0065    2.0327   -2.5279 H   0  0  0  0  0  0  0  0  0  0  0  0
   -4.2550   -0.2112   -1.6225 H   0  0  0  0  0  0  0  0  0  0  0  0
   -6.1148    1.0030    0.5051 H   0  0  0  0  0  0  0  0  0  0  0  0
   -1.7847    2.0434   -1.5887 H   0  0  0  0  0  0  0  0  0  0  0  0
   -2.0750    0.5850   -0.6010 H   0  0  0  0  0  0  0  0  0  0  0  0
   -5.9058   -1.4994    0.4377 H   0  0  0  0  0  0  0  0  0  0  0  0
   -5.2365   -0.7873    1.9208 H   0  0  0  0  0  0  0  0  0  0  0  0
    1.1388    1.6215    2.1295 H   0  0  0  0  0  0  0  0  0  0  0  0
    0.7207    3.3000    1.7736 H   0  0  0  0  0  0  0  0  0  0  0  0
    0.8249    1.6476   -1.5884 H   0  0  0  0  0  0  0  0  0  0  0  0
   -0.0423    0.2378   -0.9889 H   0  0  0  0  0  0  0  0  0  0  0  0
    2.4223    3.3808   -0.0393 H   0  0  0  0  0  0  0  0  0  0  0  0
    3.1422    2.9317    1.5225 H   0  0  0  0  0  0  0  0  0  0  0  0
    1.8353   -0.3541    0.5082 H   0  0  0  0  0  0  0  0  0  0  0  0
    2.3647   -0.2141   -1.1810 H   0  0  0  0  0  0  0  0  0  0  0  0
   -5.1581    3.7471   -1.6087 H   0  0  0  0  0  0  0  0  0  0  0  0
   -6.0666    0.3822   -2.9112 H   0  0  0  0  0  0  0  0  0  0  0  0
   -3.8158   -2.0957   -0.2539 H   0  0  0  0  0  0  0  0  0  0  0  0
    4.8469    3.2453   -0.2385 H   0  0  0  0  0  0  0  0  0  0  0  0
    4.2049   -1.0230    0.1408 H   0  0  0  0  0  0  0  0  0  0  0  0
    7.2531    2.8440   -0.4712 H   0  0  0  0  0  0  0  0  0  0  0  0
    6.6135   -1.3898   -0.1192 H   0  0  0  0  0  0  0  0  0  0  0  0
   -1.9745   -1.9761   -1.1715 H   0  0  0  0  0  0  0  0  0  0  0  0
   -0.7506   -2.3161    2.9831 H   0  0  0  0  0  0  0  0  0  0  0  0
    1.3161   -3.4780    2.2731 H   0  0  0  0  0  0  0  0  0  0  0  0
    2.3013   -3.3783   -2.3025 H   0  0  0  0  0  0  0  0  0  0  0  0
    1.4634   -4.9455   -2.1713 H   0  0  0  0  0  0  0  0  0  0  0  0
  1 31  1  0  0  0  0
  2 12  1  0  0  0  0
  2 15  1  0  0  0  0
  3 13  1  0  0  0  0
  3 53  1  0  0  0  0
  4 14  1  0  0  0  0
  4 54  1  0  0  0  0
  5 18  2  0  0  0  0
  6 24  2  0  0  0  0
  7 33  1  0  0  0  0
  7 36  1  0  0  0  0
  8 35  1  0  0  0  0
  8 36  1  0  0  0  0
  9 18  1  0  0  0  0
  9 19  1  0  0  0  0
  9 20  1  0  0  0  0
 10 21  1  0  0  0  0
 10 22  1  0  0  0  0
 10 23  1  0  0  0  0
 11 17  1  0  0  0  0
 11 24  1  0  0  0  0
 11 55  1  0  0  0  0
 12 13  1  0  0  0  0
 12 16  1  0  0  0  0
 12 37  1  0  0  0  0
 13 14  1  0  0  0  0
 13 38  1  0  0  0  0
 14 15  1  0  0  0  0
 14 39  1  0  0  0  0
 15 17  1  0  0  0  0
 15 40  1  0  0  0  0
 16 18  1  0  0  0  0
 16 41  1  0  0  0  0
 16 42  1  0  0  0  0
 17 43  1  0  0  0  0
 17 44  1  0  0  0  0
 19 21  1  0  0  0  0
 19 45  1  0  0  0  0
 19 46  1  0  0  0  0
 20 22  1  0  0  0  0
 20 47  1  0  0  0  0
 20 48  1  0  0  0  0
 21 49  1  0  0  0  0
 21 50  1  0  0  0  0
 22 51  1  0  0  0  0
 22 52  1  0  0  0  0
 23 25  2  0  0  0  0
 23 26  1  0  0  0  0
 24 27  1  0  0  0  0
 25 28  1  0  0  0  0
 25 56  1  0  0  0  0
 26 29  2  0  0  0  0
 26 57  1  0  0  0  0
 27 30  2  0  0  0  0
 27 32  1  0  0  0  0
 28 31  2  0  0  0  0
 28 58  1  0  0  0  0
 29 31  1  0  0  0  0
 29 59  1  0  0  0  0
 30 33  1  0  0  0  0
 30 60  1  0  0  0  0
 32 34  2  0  0  0  0
 32 61  1  0  0  0  0
 33 35  2  0  0  0  0
 34 35  1  0  0  0  0
 34 62  1  0  0  0  0
 36 63  1  0  0  0  0
 36 64  1  0  0  0  0
M  END
> <PUBCHEM_COMPOUND_CID>
40780660

> <PUBCHEM_CONFORMER_RMSD>
1.2

> <PUBCHEM_CONFORMER_DIVERSEORDER>
5
37
99
58
113
26
55
111
91
105
129
79
44
135
94
108
117
20
132
142
138
9
52
28
139
90
118
128
145
134
95
150
126
130
53
109
41
63
43
80
158
72
75
143
23
77
146
121
54
102
71
30
64
155
60
147
51
88
70
22
97
157
101
85
154
83
110
96
86
11
1
81
149
103
124
36
48
82
131
16
89
69
78
46
119
112
56
136
141
33
35
123
120
67
84
151
38
29
153
25
21
68
24
7
140
152
98
49
115
8
42
39
107
27
18
93
19
66
61
116
127
87
40
14
74
106
62
6
148
57
122
133
50
104
125
31
137
59
73
45
100
114
12
76
17
13
65
159
4
32
34
2
15
92
156
144
10
47
3

> <PUBCHEM_MMFF94_PARTIAL_CHARGES>
46
1 -0.19
10 -0.84
11 -0.73
12 0.28
13 0.28
14 0.28
15 0.28
16 0.06
17 0.3
18 0.57
19 0.3
2 -0.56
20 0.3
21 0.37
22 0.37
23 0.1
24 0.54
25 -0.15
26 -0.15
27 0.09
28 -0.15
29 -0.15
3 -0.68
30 -0.15
31 0.19
32 -0.15
33 0.08
34 -0.15
35 0.08
36 0.56
4 -0.68
5 -0.57
53 0.4
54 0.4
55 0.37
56 0.15
57 0.15
58 0.15
59 0.15
6 -0.57
60 0.15
61 0.15
62 0.15
7 -0.36
8 -0.36
9 -0.66

> <PUBCHEM_EFFECTIVE_ROTOR_COUNT>
10.8

> <PUBCHEM_PHARMACOPHORE_FEATURES>
16
1 10 cation
1 11 donor
1 2 acceptor
1 3 acceptor
1 3 donor
1 4 acceptor
1 4 donor
1 5 acceptor
1 6 acceptor
1 7 acceptor
1 8 acceptor
5 2 12 13 14 15 rings
5 7 8 33 35 36 rings
6 23 25 26 28 29 31 rings
6 27 30 32 33 34 35 rings
6 9 10 19 20 21 22 rings

> <PUBCHEM_HEAVY_ATOM_COUNT>
36

> <PUBCHEM_ATOM_DEF_STEREO_COUNT>
4

> <PUBCHEM_ATOM_UDEF_STEREO_COUNT>
0

> <PUBCHEM_BOND_DEF_STEREO_COUNT>
0

> <PUBCHEM_BOND_UDEF_STEREO_COUNT>
0

> <PUBCHEM_ISOTOPIC_ATOM_COUNT>
0

> <PUBCHEM_COMPONENT_COUNT>
1

> <PUBCHEM_CACTVS_TAUTO_COUNT>
2

> <PUBCHEM_CONFORMER_ID>
026E437400000005

> <PUBCHEM_MMFF94_ENERGY>
104.4932

> <PUBCHEM_FEATURE_SELFOVERLAP>
81.37

> <PUBCHEM_SHAPE_FINGERPRINT>
107951 10 17822007631317161179
11135926 11 18341331089800562477
11524674 6 18272087219005605636
11578080 2 17024286558716176975
11763389 116 18272097076494159510
11991303 11 18261674878461289238
12156800 1 17127285659167606183
12522641 33 18188201006569047101
13402501 40 18411143558208219642
14725015 67 18119534490447143523
14747281 78 17173194414782612749
15439362 3 17899126119086957013
16067689 134 16611104133077679989
16067689 68 14188193041995010444
16719943 64 18337111263110185538
21133410 230 17678764390797156947
21344244 246 18341605989187501063
21585483 110 18411135836026014786
23559900 14 18337387261550497912
249057 3 18333732451410145300
3298306 158 18409725149300475171
3383291 50 18201717379785646486
373842 8 18265893554449122946
4015057 19 17845650494316579144
4046055 25 17050195785014333895
5085150 59 18411689985876270650
5171179 24 17840049363515927622
5265222 85 18263087776351680900
57527295 17 18128519506770800381

> <PUBCHEM_SHAPE_MULTIPOLES>
677.56
15.17
4.95
1.65
18.15
4.06
-0.06
-10.47
4.34
-0.1
0.56
-1.88
0.79
1.91

> <PUBCHEM_SHAPE_SELFOVERLAP>
1471.229

> <PUBCHEM_SHAPE_VOLUME>
369.7

> <PUBCHEM_COORDINATE_TYPE>
2
5
10

$$$$
