7114655
  -OEChem-12032416363D

 61 63  0     1  0  0  0  0  0999 V2000
    4.6462    2.1976    0.1719 S   0  0  0  0  0  0  0  0  0  0  0  0
    4.8464    0.1702   -1.9656 S   0  0  0  0  0  0  0  0  0  0  0  0
    0.0843   -0.4523    1.6859 O   0  0  0  0  0  0  0  0  0  0  0  0
   -0.7204   -4.6443    1.4730 O   0  0  0  0  0  0  0  0  0  0  0  0
   -2.9626    2.5799    1.4818 O   0  0  0  0  0  0  0  0  0  0  0  0
   -2.0150   -2.7796    1.0442 O   0  0  0  0  0  0  0  0  0  0  0  0
    4.7585    2.2284    1.6173 O   0  0  0  0  0  0  0  0  0  0  0  0
    5.6288    2.8455   -0.6746 O   0  0  0  0  0  0  0  0  0  0  0  0
   -4.4931    1.5109   -0.2184 O   0  0  0  0  0  0  0  0  0  0  0  0
   -7.5931    0.7088   -1.8355 O   0  0  0  0  0  0  0  0  0  0  0  0
   -7.1756    1.8929    0.0649 O   0  0  0  0  0  0  0  0  0  0  0  0
   -0.9653    1.7493    0.6205 N   0  0  0  0  0  0  0  0  0  0  0  0
   -0.0804   -1.6036   -0.3151 N   0  0  0  0  0  0  0  0  0  0  0  0
    3.0866    2.7270   -0.2890 N   0  0  0  0  0  0  0  0  0  0  0  0
   -0.2488    0.8332   -0.2828 C   0  0  1  0  0  0  0  0  0  0  0  0
    1.9175    2.0440    0.3171 C   0  0  2  0  0  0  0  0  0  0  0  0
    1.0784    1.4032   -0.7890 C   0  0  0  0  0  0  0  0  0  0  0  0
    1.0879    3.0562    1.1006 C   0  0  0  0  0  0  0  0  0  0  0  0
   -0.1661    2.4014    1.6655 C   0  0  0  0  0  0  0  0  0  0  0  0
    0.2441   -2.9186    0.2221 C   0  0  2  0  0  0  0  0  0  0  0  0
   -0.0623   -0.4561    0.4625 C   0  0  0  0  0  0  0  0  0  0  0  0
   -0.2510   -1.6540   -1.7649 C   0  0  0  0  0  0  0  0  0  0  0  0
    0.5545   -3.7712   -1.0027 C   0  0  0  0  0  0  0  0  0  0  0  0
   -0.2949   -3.1368   -2.1014 C   0  0  0  0  0  0  0  0  0  0  0  0
   -2.3552    1.9151    0.6380 C   0  0  0  0  0  0  0  0  0  0  0  0
   -0.9708   -3.4104    0.9496 C   0  0  0  0  0  0  0  0  0  0  0  0
   -3.1349    1.2363   -0.4609 C   0  0  0  0  0  0  0  0  0  0  0  0
    4.7742    0.4679   -0.2808 C   0  0  0  0  0  0  0  0  0  0  0  0
    4.8278   -0.6969    0.4527 C   0  0  0  0  0  0  0  0  0  0  0  0
   -1.8027   -5.2355    2.1990 C   0  0  0  0  0  0  0  0  0  0  0  0
   -5.3434    0.9181   -1.1986 C   0  0  0  0  0  0  0  0  0  0  0  0
    4.9295   -1.8489   -0.3795 C   0  0  0  0  0  0  0  0  0  0  0  0
    4.9497   -1.5209   -1.7172 C   0  0  0  0  0  0  0  0  0  0  0  0
   -6.7787    1.2431   -0.8908 C   0  0  0  0  0  0  0  0  0  0  0  0
   -0.8762    0.6746   -1.1569 H   0  0  0  0  0  0  0  0  0  0  0  0
    2.2554    1.2573    1.0016 H   0  0  0  0  0  0  0  0  0  0  0  0
    0.8574    2.1661   -1.5487 H   0  0  0  0  0  0  0  0  0  0  0  0
    1.6677    0.6316   -1.2958 H   0  0  0  0  0  0  0  0  0  0  0  0
    1.6823    3.4859    1.9156 H   0  0  0  0  0  0  0  0  0  0  0  0
    0.7997    3.8906    0.4476 H   0  0  0  0  0  0  0  0  0  0  0  0
   -0.7653    3.1750    2.1589 H   0  0  0  0  0  0  0  0  0  0  0  0
    0.0877    1.6818    2.4475 H   0  0  0  0  0  0  0  0  0  0  0  0
    1.0787   -2.8422    0.9267 H   0  0  0  0  0  0  0  0  0  0  0  0
   -1.1705   -1.1518   -2.0756 H   0  0  0  0  0  0  0  0  0  0  0  0
    0.6096   -1.1700   -2.2359 H   0  0  0  0  0  0  0  0  0  0  0  0
    1.6149   -3.6657   -1.2637 H   0  0  0  0  0  0  0  0  0  0  0  0
    0.3398   -4.8369   -0.8819 H   0  0  0  0  0  0  0  0  0  0  0  0
    0.0780   -3.3515   -3.1067 H   0  0  0  0  0  0  0  0  0  0  0  0
   -1.3248   -3.5073   -2.0335 H   0  0  0  0  0  0  0  0  0  0  0  0
    2.9519    3.7031   -0.5795 H   0  0  0  0  0  0  0  0  0  0  0  0
   -2.8364    1.6510   -1.4291 H   0  0  0  0  0  0  0  0  0  0  0  0
   -2.9627    0.1560   -0.4230 H   0  0  0  0  0  0  0  0  0  0  0  0
    4.7939   -0.7249    1.5341 H   0  0  0  0  0  0  0  0  0  0  0  0
   -2.0682   -4.6116    3.0577 H   0  0  0  0  0  0  0  0  0  0  0  0
   -2.6662   -5.3772    1.5421 H   0  0  0  0  0  0  0  0  0  0  0  0
   -1.4744   -6.2127    2.5629 H   0  0  0  0  0  0  0  0  0  0  0  0
   -5.2185   -0.1697   -1.1802 H   0  0  0  0  0  0  0  0  0  0  0  0
   -5.0959    1.3217   -2.1861 H   0  0  0  0  0  0  0  0  0  0  0  0
    4.9833   -2.8667   -0.0155 H   0  0  0  0  0  0  0  0  0  0  0  0
    5.0190   -2.1934   -2.5605 H   0  0  0  0  0  0  0  0  0  0  0  0
   -8.5376    0.9064   -1.6589 H   0  0  0  0  0  0  0  0  0  0  0  0
  1  7  2  0  0  0  0
  1  8  2  0  0  0  0
  1 14  1  0  0  0  0
  1 28  1  0  0  0  0
  2 28  1  0  0  0  0
  2 33  1  0  0  0  0
  3 21  2  0  0  0  0
  4 26  1  0  0  0  0
  4 30  1  0  0  0  0
  5 25  2  0  0  0  0
  6 26  2  0  0  0  0
  9 27  1  0  0  0  0
  9 31  1  0  0  0  0
 10 34  1  0  0  0  0
 10 61  1  0  0  0  0
 11 34  2  0  0  0  0
 12 15  1  0  0  0  0
 12 19  1  0  0  0  0
 12 25  1  0  0  0  0
 13 20  1  0  0  0  0
 13 21  1  0  0  0  0
 13 22  1  0  0  0  0
 14 16  1  0  0  0  0
 14 50  1  0  0  0  0
 15 17  1  0  0  0  0
 15 21  1  0  0  0  0
 15 35  1  0  0  0  0
 16 17  1  0  0  0  0
 16 18  1  0  0  0  0
 16 36  1  0  0  0  0
 17 37  1  0  0  0  0
 17 38  1  0  0  0  0
 18 19  1  0  0  0  0
 18 39  1  0  0  0  0
 18 40  1  0  0  0  0
 19 41  1  0  0  0  0
 19 42  1  0  0  0  0
 20 23  1  0  0  0  0
 20 26  1  0  0  0  0
 20 43  1  0  0  0  0
 22 24  1  0  0  0  0
 22 44  1  0  0  0  0
 22 45  1  0  0  0  0
 23 24  1  0  0  0  0
 23 46  1  0  0  0  0
 23 47  1  0  0  0  0
 24 48  1  0  0  0  0
 24 49  1  0  0  0  0
 25 27  1  0  0  0  0
 27 51  1  0  0  0  0
 27 52  1  0  0  0  0
 28 29  2  0  0  0  0
 29 32  1  0  0  0  0
 29 53  1  0  0  0  0
 30 54  1  0  0  0  0
 30 55  1  0  0  0  0
 30 56  1  0  0  0  0
 31 34  1  0  0  0  0
 31 57  1  0  0  0  0
 31 58  1  0  0  0  0
 32 33  2  0  0  0  0
 32 59  1  0  0  0  0
 33 60  1  0  0  0  0
M  END
> <PUBCHEM_COMPOUND_CID>
7114655

> <PUBCHEM_CONFORMER_RMSD>
1.2

> <PUBCHEM_CONFORMER_DIVERSEORDER>
1
61
39
69
34
73
59
68
87
64
21
85
75
49
66
48
56
67
16
37
35
29
65
84
14
23
28
26
24
82
22
83
54
52
51
44
86
58
46
53
79
63
47
10
78
42
7
71
40
43
57
12
4
60
31
27
70
8
50
32
36
76
80
30
55
20
38
81
19
62
41
13
77
25
74
3
45
33
72
9
15
11
17
18
6
2
5

> <PUBCHEM_MMFF94_PARTIAL_CHARGES>
35
1 1.5
10 -0.65
11 -0.57
12 -0.66
13 -0.66
14 -0.91
15 0.36
16 0.36
19 0.3
2 -0.08
20 0.36
21 0.57
22 0.3
25 0.57
26 0.66
27 0.34
28 -0.02
29 -0.15
3 -0.57
30 0.28
31 0.34
32 -0.15
33 -0.11
34 0.66
4 -0.43
5 -0.57
50 0.42
53 0.15
59 0.15
6 -0.57
60 0.15
61 0.5
7 -0.65
8 -0.65
9 -0.56

> <PUBCHEM_EFFECTIVE_ROTOR_COUNT>
14.2

> <PUBCHEM_PHARMACOPHORE_FEATURES>
13
1 10 acceptor
1 11 acceptor
1 14 donor
1 3 acceptor
1 5 acceptor
1 6 acceptor
1 7 acceptor
1 8 acceptor
1 9 acceptor
3 10 11 34 anion
5 13 20 22 23 24 rings
5 2 28 29 32 33 rings
6 12 15 16 17 18 19 rings

> <PUBCHEM_HEAVY_ATOM_COUNT>
34

> <PUBCHEM_ATOM_DEF_STEREO_COUNT>
3

> <PUBCHEM_ATOM_UDEF_STEREO_COUNT>
0

> <PUBCHEM_BOND_DEF_STEREO_COUNT>
0

> <PUBCHEM_BOND_UDEF_STEREO_COUNT>
0

> <PUBCHEM_ISOTOPIC_ATOM_COUNT>
0

> <PUBCHEM_COMPONENT_COUNT>
1

> <PUBCHEM_CACTVS_TAUTO_COUNT>
1

> <PUBCHEM_CONFORMER_ID>
006C8F9F00000001

> <PUBCHEM_MMFF94_ENERGY>
64.7737

> <PUBCHEM_FEATURE_SELFOVERLAP>
66.075

> <PUBCHEM_SHAPE_FINGERPRINT>
10675989 125 18341607110268793612
11135609 187 18342736316884222848
11991303 11 18041002894577020767
12422481 6 17909307815233673099
12788726 201 18197488743874869210
13533116 47 18060136523057275828
1361 2 18272651212657328140
14725015 67 18193831545099638834
15131766 46 16372431396569678484
19319366 153 18263074423652013071
20028762 73 17917429757456555868
20197701 30 18411975858292980133
21279426 13 18411141354937638511
21344244 181 18343868805391664895
21521239 73 18131345302502455549
21521721 280 18343867727492283297
23559900 14 18341902918000114508
27425 322 17168428284851778260
3178227 256 18272093820766433145
4058900 60 18336544928917934345
484989 97 18338247036598293107
59755656 215 18335136432857870165
6669772 16 18411973668112567844

> <PUBCHEM_SHAPE_MULTIPOLES>
639.64
13.36
5.93
1.91
13.61
7.43
-0.06
-10.68
-6.62
1.02
3.03
0.38
1.25
2.12

> <PUBCHEM_SHAPE_SELFOVERLAP>
1305.329

> <PUBCHEM_SHAPE_VOLUME>
369.8

> <PUBCHEM_COORDINATE_TYPE>
2
5
10

$$$$
