11867175
  -OEChem-12032416393D

 67 71  0     1  0  0  0  0  0999 V2000
    1.9815   -1.9001   -1.3015 S   0  0  0  0  0  0  0  0  0  0  0  0
   -3.2257    1.7929   -1.8018 O   0  0  0  0  0  0  0  0  0  0  0  0
   -0.9630   -2.8928   -1.6187 O   0  0  0  0  0  0  0  0  0  0  0  0
    2.4093   -2.8452   -2.3155 O   0  0  0  0  0  0  0  0  0  0  0  0
    1.1210   -0.7873   -1.6563 O   0  0  0  0  0  0  0  0  0  0  0  0
    6.8418    0.3510    1.1651 O   0  0  0  0  0  0  0  0  0  0  0  0
   -3.9584    0.7122    0.1141 N   0  0  0  0  0  0  0  0  0  0  0  0
   -2.3540   -2.0191    0.0519 N   0  0  0  0  0  0  0  0  0  0  0  0
   -2.2872    2.3851    0.2039 N   0  0  0  0  0  0  0  0  0  0  0  0
    1.3192   -2.7354    0.0135 N   0  0  0  0  0  0  0  0  0  0  0  0
   -4.8509   -1.5785   -0.2995 C   0  0  1  0  0  0  0  0  0  0  0  0
   -3.8080   -1.0427    1.8650 C   0  0  2  0  0  0  0  0  0  0  0  0
   -4.9570   -1.8040    1.2047 C   0  0  0  0  0  0  0  0  0  0  0  0
   -4.9444   -0.0768   -0.6297 C   0  0  0  0  0  0  0  0  0  0  0  0
   -3.9549    0.4621    1.5658 C   0  0  0  0  0  0  0  0  0  0  0  0
   -3.5391   -2.1975   -0.7977 C   0  0  0  0  0  0  0  0  0  0  0  0
   -2.4644   -1.5392    1.3645 C   0  0  0  0  0  0  0  0  0  0  0  0
   -3.1638    1.6420   -0.5768 C   0  0  0  0  0  0  0  0  0  0  0  0
   -1.3838   -1.4881    2.1648 C   0  0  0  0  0  0  0  0  0  0  0  0
   -1.4017    3.3716   -0.3658 C   0  0  0  0  0  0  0  0  0  0  0  0
   -1.1209   -2.4477   -0.4826 C   0  0  0  0  0  0  0  0  0  0  0  0
   -1.1623    4.5185    0.6197 C   0  0  0  0  0  0  0  0  0  0  0  0
   -0.0838    2.7240   -0.7976 C   0  0  0  0  0  0  0  0  0  0  0  0
    0.0375   -2.3453    0.4400 C   0  0  0  0  0  0  0  0  0  0  0  0
   -0.1848    5.5476    0.0578 C   0  0  0  0  0  0  0  0  0  0  0  0
    0.8934    3.7553   -1.3562 C   0  0  0  0  0  0  0  0  0  0  0  0
   -0.0911   -1.9027    1.6913 C   0  0  0  0  0  0  0  0  0  0  0  0
    1.1275    4.8994   -0.3738 C   0  0  0  0  0  0  0  0  0  0  0  0
    3.4394   -1.2250   -0.5619 C   0  0  0  0  0  0  0  0  0  0  0  0
    3.3773    0.0210    0.0367 C   0  0  0  0  0  0  0  0  0  0  0  0
    4.6140   -1.9555   -0.5962 C   0  0  0  0  0  0  0  0  0  0  0  0
    4.5270    0.5537    0.6200 C   0  0  0  0  0  0  0  0  0  0  0  0
    5.7637   -1.4230   -0.0128 C   0  0  0  0  0  0  0  0  0  0  0  0
    5.7201   -0.1684    0.5952 C   0  0  0  0  0  0  0  0  0  0  0  0
    6.7264    1.6380    1.7701 C   0  0  0  0  0  0  0  0  0  0  0  0
   -5.6838   -2.0815   -0.8062 H   0  0  0  0  0  0  0  0  0  0  0  0
   -3.8794   -1.1907    2.9504 H   0  0  0  0  0  0  0  0  0  0  0  0
   -5.9223   -1.4416    1.5787 H   0  0  0  0  0  0  0  0  0  0  0  0
   -4.9020   -2.8742    1.4407 H   0  0  0  0  0  0  0  0  0  0  0  0
   -4.8380    0.0767   -1.7085 H   0  0  0  0  0  0  0  0  0  0  0  0
   -5.9334    0.3058   -0.3483 H   0  0  0  0  0  0  0  0  0  0  0  0
   -3.1800    1.0148    2.0955 H   0  0  0  0  0  0  0  0  0  0  0  0
   -4.9146    0.8297    1.9507 H   0  0  0  0  0  0  0  0  0  0  0  0
   -3.6756   -3.2838   -0.8891 H   0  0  0  0  0  0  0  0  0  0  0  0
   -3.3030   -1.8379   -1.8072 H   0  0  0  0  0  0  0  0  0  0  0  0
   -1.8870    3.7884   -1.2582 H   0  0  0  0  0  0  0  0  0  0  0  0
   -1.4458   -1.1093    3.1796 H   0  0  0  0  0  0  0  0  0  0  0  0
   -2.1620    2.1878    1.1862 H   0  0  0  0  0  0  0  0  0  0  0  0
   -0.7683    4.1235    1.5655 H   0  0  0  0  0  0  0  0  0  0  0  0
   -2.1129    5.0094    0.8616 H   0  0  0  0  0  0  0  0  0  0  0  0
   -0.2702    1.9529   -1.5548 H   0  0  0  0  0  0  0  0  0  0  0  0
    0.3766    2.2117    0.0575 H   0  0  0  0  0  0  0  0  0  0  0  0
   -0.6419    6.0537   -0.8014 H   0  0  0  0  0  0  0  0  0  0  0  0
    0.0147    6.3167    0.8124 H   0  0  0  0  0  0  0  0  0  0  0  0
    1.8474    3.2691   -1.5898 H   0  0  0  0  0  0  0  0  0  0  0  0
    0.5003    4.1573   -2.2981 H   0  0  0  0  0  0  0  0  0  0  0  0
    0.7455   -1.8252    2.3775 H   0  0  0  0  0  0  0  0  0  0  0  0
    1.6540    4.5184    0.5100 H   0  0  0  0  0  0  0  0  0  0  0  0
    1.7776    5.6525   -0.8329 H   0  0  0  0  0  0  0  0  0  0  0  0
    1.9711   -2.8884    0.7960 H   0  0  0  0  0  0  0  0  0  0  0  0
    2.4558    0.5936    0.0724 H   0  0  0  0  0  0  0  0  0  0  0  0
    4.6659   -2.9367   -1.0577 H   0  0  0  0  0  0  0  0  0  0  0  0
    4.4222    1.5321    1.0764 H   0  0  0  0  0  0  0  0  0  0  0  0
    6.6898   -1.9908   -0.0335 H   0  0  0  0  0  0  0  0  0  0  0  0
    6.0300    1.6243    2.6153 H   0  0  0  0  0  0  0  0  0  0  0  0
    7.7118    1.8957    2.1721 H   0  0  0  0  0  0  0  0  0  0  0  0
    6.4704    2.4073    1.0338 H   0  0  0  0  0  0  0  0  0  0  0  0
  1  4  2  0  0  0  0
  1  5  2  0  0  0  0
  1 10  1  0  0  0  0
  1 29  1  0  0  0  0
  2 18  2  0  0  0  0
  3 21  2  0  0  0  0
  6 34  1  0  0  0  0
  6 35  1  0  0  0  0
  7 14  1  0  0  0  0
  7 15  1  0  0  0  0
  7 18  1  0  0  0  0
  8 16  1  0  0  0  0
  8 17  1  0  0  0  0
  8 21  1  0  0  0  0
  9 18  1  0  0  0  0
  9 20  1  0  0  0  0
  9 48  1  0  0  0  0
 10 24  1  0  0  0  0
 10 60  1  0  0  0  0
 11 13  1  0  0  0  0
 11 14  1  0  0  0  0
 11 16  1  0  0  0  0
 11 36  1  0  0  0  0
 12 13  1  0  0  0  0
 12 15  1  0  0  0  0
 12 17  1  0  0  0  0
 12 37  1  0  0  0  0
 13 38  1  0  0  0  0
 13 39  1  0  0  0  0
 14 40  1  0  0  0  0
 14 41  1  0  0  0  0
 15 42  1  0  0  0  0
 15 43  1  0  0  0  0
 16 44  1  0  0  0  0
 16 45  1  0  0  0  0
 17 19  2  0  0  0  0
 19 27  1  0  0  0  0
 19 47  1  0  0  0  0
 20 22  1  0  0  0  0
 20 23  1  0  0  0  0
 20 46  1  0  0  0  0
 21 24  1  0  0  0  0
 22 25  1  0  0  0  0
 22 49  1  0  0  0  0
 22 50  1  0  0  0  0
 23 26  1  0  0  0  0
 23 51  1  0  0  0  0
 23 52  1  0  0  0  0
 24 27  2  0  0  0  0
 25 28  1  0  0  0  0
 25 53  1  0  0  0  0
 25 54  1  0  0  0  0
 26 28  1  0  0  0  0
 26 55  1  0  0  0  0
 26 56  1  0  0  0  0
 27 57  1  0  0  0  0
 28 58  1  0  0  0  0
 28 59  1  0  0  0  0
 29 30  2  0  0  0  0
 29 31  1  0  0  0  0
 30 32  1  0  0  0  0
 30 61  1  0  0  0  0
 31 33  2  0  0  0  0
 31 62  1  0  0  0  0
 32 34  2  0  0  0  0
 32 63  1  0  0  0  0
 33 34  1  0  0  0  0
 33 64  1  0  0  0  0
 35 65  1  0  0  0  0
 35 66  1  0  0  0  0
 35 67  1  0  0  0  0
M  END
> <PUBCHEM_COMPOUND_CID>
11867175

> <PUBCHEM_CONFORMER_RMSD>
1

> <PUBCHEM_CONFORMER_DIVERSEORDER>
1
15
10
9
26
70
20
53
67
47
52
42
40
49
68
55
50
11
7
54
31
38
39
58
34
23
30
12
44
4
6
16
57
62
19
24
41
51
21
60
29
28
3
32
13
59
45
63
33
69
61
17
22
5
64
14
18
46
27
66
36
43
37
48
25
35
65
56
8
2

> <PUBCHEM_MMFF94_PARTIAL_CHARGES>
36
1 1.45
10 -0.75
12 0.14
14 0.3
15 0.3
16 0.3
17 -0.03
18 0.69
19 -0.15
2 -0.57
20 0.3
21 0.62
24 0.21
27 -0.15
29 -0.01
3 -0.57
30 -0.15
31 -0.15
32 -0.15
33 -0.15
34 0.08
35 0.28
4 -0.65
47 0.15
48 0.37
5 -0.65
57 0.15
6 -0.36
60 0.42
61 0.15
62 0.15
63 0.15
64 0.15
7 -0.66
8 -0.47
9 -0.73

> <PUBCHEM_EFFECTIVE_ROTOR_COUNT>
9.2

> <PUBCHEM_PHARMACOPHORE_FEATURES>
12
1 10 donor
1 2 acceptor
1 3 acceptor
1 4 acceptor
1 5 acceptor
1 6 acceptor
1 9 donor
6 20 22 23 25 26 28 rings
6 29 30 31 32 33 34 rings
6 7 11 12 13 14 15 rings
6 8 11 12 13 16 17 rings
6 8 17 19 21 24 27 rings

> <PUBCHEM_HEAVY_ATOM_COUNT>
35

> <PUBCHEM_ATOM_DEF_STEREO_COUNT>
2

> <PUBCHEM_ATOM_UDEF_STEREO_COUNT>
0

> <PUBCHEM_BOND_DEF_STEREO_COUNT>
0

> <PUBCHEM_BOND_UDEF_STEREO_COUNT>
0

> <PUBCHEM_ISOTOPIC_ATOM_COUNT>
0

> <PUBCHEM_COMPONENT_COUNT>
1

> <PUBCHEM_CACTVS_TAUTO_COUNT>
2

> <PUBCHEM_CONFORMER_ID>
00B5142700000001

> <PUBCHEM_MMFF94_ENERGY>
78.5783

> <PUBCHEM_FEATURE_SELFOVERLAP>
62.503

> <PUBCHEM_SHAPE_FINGERPRINT>
10006869 2 18046617920076597539
10256941 240 17028794440215361124
10675989 125 16891432374952715773
11828532 37 17678747949873162179
12788726 201 18189919581243371100
13402501 40 18411135822861499168
13561361 72 18410284784404710288
14028597 1 17677033682606911074
14415361 192 17531230760903864653
14725015 67 18187359982735639313
14747282 140 17186701262384826444
15264996 55 17394154440374384744
15419008 145 18265317449385018050
15840311 113 17199981894131920203
15961568 22 18412262852634721958
16067690 210 18187638064577449448
17627616 140 17832712644145281828
20764821 26 18264232290425056492
21033648 144 18202564008161069734
21344244 246 17834104626773440127
21796203 349 17974325210681041968
22223350 30 16810704466410263531
25019877 29 17131558339873156831
373842 8 18335980986811405824
392239 28 18336550430116575056
508706 21 18051140189937158540
6004065 56 18338513174499906615
6036956 94 18261961755990991396
653340 110 18266740178159455792

> <PUBCHEM_SHAPE_MULTIPOLES>
674.86
12.45
6.24
1.79
15.86
10.96
0.16
-4.24
4.36
-0.64
-1.32
-0.08
-0.78
1.76

> <PUBCHEM_SHAPE_SELFOVERLAP>
1438.021

> <PUBCHEM_SHAPE_VOLUME>
374.8

> <PUBCHEM_COORDINATE_TYPE>
2
5
10

$$$$
