26762014
  -OEChem-12032416203D

 49 54  0     1  0  0  0  0  0999 V2000
    0.7787   -0.4835   -2.2368 O   0  0  0  0  0  0  0  0  0  0  0  0
   -2.7897   -0.2247   -2.7267 O   0  0  0  0  0  0  0  0  0  0  0  0
    6.6518   -2.5312   -0.1058 O   0  0  0  0  0  0  0  0  0  0  0  0
    7.2976   -0.9767    1.6188 O   0  0  0  0  0  0  0  0  0  0  0  0
   -1.8064    0.7609   -0.8412 N   0  0  0  0  0  0  0  0  0  0  0  0
   -1.3948    2.9956    2.1175 N   0  0  0  0  0  0  0  0  0  0  0  0
   -0.5276    4.4281    0.6382 N   0  0  0  0  0  0  0  0  0  0  0  0
    1.5882    0.8239   -0.6083 N   0  0  0  0  0  0  0  0  0  0  0  0
    2.0188   -1.0283   -1.8803 N   0  0  0  0  0  0  0  0  0  0  0  0
   -7.5623   -3.1903    2.2013 N   0  0  0  0  0  0  0  0  0  0  0  0
   -0.6948    1.3854   -1.6345 C   0  0  1  0  0  0  0  0  0  0  0  0
   -0.6275    2.9250   -1.3988 C   0  0  0  0  0  0  0  0  0  0  0  0
   -1.8078    0.9631    0.6359 C   0  0  0  0  0  0  0  0  0  0  0  0
   -0.8318    3.2418    0.0322 C   0  0  0  0  0  0  0  0  0  0  0  0
   -1.3701    2.3437    0.9209 C   0  0  0  0  0  0  0  0  0  0  0  0
    0.6023    0.6035   -1.4408 C   0  0  0  0  0  0  0  0  0  0  0  0
   -2.7522   -0.0300   -1.5125 C   0  0  0  0  0  0  0  0  0  0  0  0
   -0.8778    4.2475    1.8960 C   0  0  0  0  0  0  0  0  0  0  0  0
   -3.7846   -0.7079   -0.7145 C   0  0  0  0  0  0  0  0  0  0  0  0
    2.4335   -0.2025   -0.9148 C   0  0  0  0  0  0  0  0  0  0  0  0
    3.6866   -0.3741   -0.2382 C   0  0  0  0  0  0  0  0  0  0  0  0
   -4.9959   -0.0678   -0.4522 C   0  0  0  0  0  0  0  0  0  0  0  0
   -3.5527   -1.9917   -0.2208 C   0  0  0  0  0  0  0  0  0  0  0  0
    4.5217   -1.4389   -0.5848 C   0  0  0  0  0  0  0  0  0  0  0  0
    4.0633    0.5327    0.7682 C   0  0  0  0  0  0  0  0  0  0  0  0
    5.7169   -1.5624    0.0933 C   0  0  0  0  0  0  0  0  0  0  0  0
    6.0858   -0.6748    1.0782 C   0  0  0  0  0  0  0  0  0  0  0  0
   -5.9754   -0.7117    0.3035 C   0  0  0  0  0  0  0  0  0  0  0  0
   -4.5323   -2.6355    0.5350 C   0  0  0  0  0  0  0  0  0  0  0  0
    5.2796    0.3851    1.4393 C   0  0  0  0  0  0  0  0  0  0  0  0
   -5.7438   -1.9957    0.7971 C   0  0  0  0  0  0  0  0  0  0  0  0
    7.6505   -2.1536    0.8638 C   0  0  0  0  0  0  0  0  0  0  0  0
   -6.7473   -2.6550    1.5720 C   0  0  0  0  0  0  0  0  0  0  0  0
   -0.9337    1.2672   -2.7003 H   0  0  0  0  0  0  0  0  0  0  0  0
   -1.4328    3.4073   -1.9668 H   0  0  0  0  0  0  0  0  0  0  0  0
    0.3246    3.3314   -1.7568 H   0  0  0  0  0  0  0  0  0  0  0  0
   -1.1064    0.2380    1.0622 H   0  0  0  0  0  0  0  0  0  0  0  0
   -2.7955    0.7811    1.0630 H   0  0  0  0  0  0  0  0  0  0  0  0
   -1.7270    2.6312    3.0007 H   0  0  0  0  0  0  0  0  0  0  0  0
   -0.7853    4.9738    2.6910 H   0  0  0  0  0  0  0  0  0  0  0  0
   -5.1861    0.9327   -0.8318 H   0  0  0  0  0  0  0  0  0  0  0  0
   -2.6119   -2.4987   -0.4191 H   0  0  0  0  0  0  0  0  0  0  0  0
    4.2679   -2.1600   -1.3550 H   0  0  0  0  0  0  0  0  0  0  0  0
    3.4231    1.3662    1.0484 H   0  0  0  0  0  0  0  0  0  0  0  0
   -6.9144   -0.1997    0.4998 H   0  0  0  0  0  0  0  0  0  0  0  0
   -4.3368   -3.6361    0.9132 H   0  0  0  0  0  0  0  0  0  0  0  0
    5.5740    1.0818    2.2159 H   0  0  0  0  0  0  0  0  0  0  0  0
    8.5944   -1.9644    0.3397 H   0  0  0  0  0  0  0  0  0  0  0  0
    7.7958   -2.9871    1.5606 H   0  0  0  0  0  0  0  0  0  0  0  0
  1  9  1  0  0  0  0
  1 16  1  0  0  0  0
  2 17  2  0  0  0  0
  3 26  1  0  0  0  0
  3 32  1  0  0  0  0
  4 27  1  0  0  0  0
  4 32  1  0  0  0  0
  5 11  1  0  0  0  0
  5 13  1  0  0  0  0
  5 17  1  0  0  0  0
  6 15  1  0  0  0  0
  6 18  1  0  0  0  0
  6 39  1  0  0  0  0
  7 14  1  0  0  0  0
  7 18  2  0  0  0  0
  8 16  2  0  0  0  0
  8 20  1  0  0  0  0
  9 20  2  0  0  0  0
 10 33  3  0  0  0  0
 11 12  1  0  0  0  0
 11 16  1  0  0  0  0
 11 34  1  0  0  0  0
 12 14  1  0  0  0  0
 12 35  1  0  0  0  0
 12 36  1  0  0  0  0
 13 15  1  0  0  0  0
 13 37  1  0  0  0  0
 13 38  1  0  0  0  0
 14 15  2  0  0  0  0
 17 19  1  0  0  0  0
 18 40  1  0  0  0  0
 19 22  2  0  0  0  0
 19 23  1  0  0  0  0
 20 21  1  0  0  0  0
 21 24  2  0  0  0  0
 21 25  1  0  0  0  0
 22 28  1  0  0  0  0
 22 41  1  0  0  0  0
 23 29  2  0  0  0  0
 23 42  1  0  0  0  0
 24 26  1  0  0  0  0
 24 43  1  0  0  0  0
 25 30  2  0  0  0  0
 25 44  1  0  0  0  0
 26 27  2  0  0  0  0
 27 30  1  0  0  0  0
 28 31  2  0  0  0  0
 28 45  1  0  0  0  0
 29 31  1  0  0  0  0
 29 46  1  0  0  0  0
 30 47  1  0  0  0  0
 31 33  1  0  0  0  0
 32 48  1  0  0  0  0
 32 49  1  0  0  0  0
M  END
> <PUBCHEM_COMPOUND_CID>
26762014

> <PUBCHEM_CONFORMER_RMSD>
0.8

> <PUBCHEM_CONFORMER_DIVERSEORDER>
1
72
84
27
93
83
95
71
14
68
58
80
89
105
79
42
8
99
34
74
9
76
98
101
59
11
81
85
88
46
26
28
44
78
102
48
73
36
45
70
100
56
24
38
16
97
77
65
69
25
30
10
63
51
82
21
103
64
47
86
32
87
4
94
2
6
52
75
17
53
62
13
15
61
67
104
39
50
3
37
33
35
92
90
57
96
40
43
18
20
31
41
66
91
12
29
54
23
60
5
22
7
55
49
19

> <PUBCHEM_MMFF94_PARTIAL_CHARGES>
42
1 -0.02
10 -0.56
11 0.48
12 0.18
13 0.48
14 0.05
15 -0.33
16 0.3
17 0.54
18 0.04
19 0.09
2 -0.57
20 0.46
21 0.05
22 -0.15
23 -0.15
24 -0.15
25 -0.15
26 0.08
27 0.08
28 -0.15
29 -0.15
3 -0.36
30 -0.15
31 0.07
32 0.56
33 0.48
39 0.27
4 -0.36
40 0.15
41 0.15
42 0.15
43 0.15
44 0.15
45 0.15
46 0.15
47 0.15
5 -0.66
6 0.03
7 -0.57
8 -0.57
9 -0.41

> <PUBCHEM_EFFECTIVE_ROTOR_COUNT>
5.4

> <PUBCHEM_PHARMACOPHORE_FEATURES>
13
1 10 acceptor
1 2 acceptor
1 3 acceptor
1 4 acceptor
1 6 donor
3 6 7 18 cation
3 8 9 20 cation
5 1 8 9 16 20 rings
5 3 4 26 27 32 rings
5 6 7 14 15 18 rings
6 19 22 23 28 29 31 rings
6 21 24 25 26 27 30 rings
6 5 11 12 13 14 15 rings

> <PUBCHEM_HEAVY_ATOM_COUNT>
33

> <PUBCHEM_ATOM_DEF_STEREO_COUNT>
1

> <PUBCHEM_ATOM_UDEF_STEREO_COUNT>
0

> <PUBCHEM_BOND_DEF_STEREO_COUNT>
0

> <PUBCHEM_BOND_UDEF_STEREO_COUNT>
0

> <PUBCHEM_ISOTOPIC_ATOM_COUNT>
0

> <PUBCHEM_COMPONENT_COUNT>
1

> <PUBCHEM_CACTVS_TAUTO_COUNT>
2

> <PUBCHEM_CONFORMER_ID>
01985B1E00000001

> <PUBCHEM_MMFF94_ENERGY>
75.6211

> <PUBCHEM_FEATURE_SELFOVERLAP>
66.233

> <PUBCHEM_SHAPE_FINGERPRINT>
10074138 170 18128267679510209697
10653451 467 18129941170884356257
10674148 151 16226043380256108517
11456790 92 18339377331553879699
11646440 116 18410300237106412099
12166972 35 17676773153420856758
12422481 6 17203611484087289324
12758862 11 18115850963390955405
12895837 130 10735290165990193338
13257819 101 12103578463463733201
13540713 4 17201085773198376836
13782708 43 17969787561249098363
13947930 73 18042696181144627355
14068700 675 18113338617653613782
14904525 67 11599133597082985706
14931854 50 12901539144038154667
15183329 4 12757145754003791054
15803439 3 11818990803309954161
15950262 2 12750976407335697823
16114785 44 16772945888466381869
17686467 74 18335974321454367472
17980427 23 15554167073450752669
1979834 28 17559976427191399711
20505436 4 14636815758943135957
20511986 3 8574422133249549060
20721686 146 12463304587348727003
20775438 99 14348064501678636751
21315759 148 18129377108628752838
21344244 181 15502945258997131993
21344244 78 17631473296543394217
21639891 77 18409162200176047581
21756936 100 12103552087673910252
22956985 138 17834943548842481470
23523787 8 12829484895901155097
23845131 108 17408536043570187489
2747138 104 18341892979255497754
32027 91 18119244206898690119
3380486 145 17917981772877351245
3383291 50 17895475933666936835
3418910 222 18410576185425881812
3552219 110 18337683000588215756
392239 28 17703785959292247991
4058900 60 8790343143953186621
4112364 45 15410337792525580195
4144715 1 17840593596370559454
50009960 94 18122903402950082783
5219985 13 11095892544458886147
5718773 13 17822010943027518347
58260988 114 18263928743895728286
6009941 240 18262511499652485725
6327066 14 10592047946796055283
9896288 288 18127132969997025851

> <PUBCHEM_SHAPE_MULTIPOLES>
625.76
18.44
4.39
2.09
12.76
4.28
-0.28
-25.22
10.71
-3.94
2.73
-1.07
0.4
1.63

> <PUBCHEM_SHAPE_SELFOVERLAP>
1410.763

> <PUBCHEM_SHAPE_VOLUME>
326.1

> <PUBCHEM_COORDINATE_TYPE>
2
5
10

$$$$
