75537139
  -OEChem-12032416323D

 47 49  0     1  0  0  0  0  0999 V2000
    3.7615    1.8694   -0.3083 O   0  0  0  0  0  0  0  0  0  0  0  0
    5.0766   -0.7892    0.9151 O   0  0  0  0  0  0  0  0  0  0  0  0
    1.5108    1.1990   -0.3721 N   0  0  0  0  0  0  0  0  0  0  0  0
   -1.1466    0.8413    0.4771 N   0  0  2  0  0  0  0  0  0  0  0  0
    3.0739   -0.2540   -1.0718 N   0  0  0  0  0  0  0  0  0  0  0  0
    0.7574    0.0712   -0.8792 C   0  0  2  0  0  0  0  0  0  0  0  0
   -0.3282   -0.3344    0.1172 C   0  0  0  0  0  0  0  0  0  0  0  0
    1.8240   -0.9919   -1.1345 C   0  0  0  0  0  0  0  0  0  0  0  0
    0.8013    2.3498    0.1467 C   0  0  0  0  0  0  0  0  0  0  0  0
   -0.3134    1.8946    1.0919 C   0  0  0  0  0  0  0  0  0  0  0  0
    2.8914    1.0451   -0.5564 C   0  0  0  0  0  0  0  0  0  0  0  0
   -2.2262    0.4519    1.3838 C   0  0  0  0  0  0  0  0  0  0  0  0
    4.3460   -0.8744   -1.3692 C   0  0  0  0  0  0  0  0  0  0  0  0
   -3.3520   -0.2315    0.6541 C   0  0  0  0  0  0  0  0  0  0  0  0
    4.8708   -1.6659   -0.1852 C   0  0  0  0  0  0  0  0  0  0  0  0
   -4.2626    0.5005   -0.1075 C   0  0  0  0  0  0  0  0  0  0  0  0
   -3.4767   -1.6177    0.7480 C   0  0  0  0  0  0  0  0  0  0  0  0
   -5.2981   -0.1533   -0.7753 C   0  0  0  0  0  0  0  0  0  0  0  0
   -4.1495    1.9853   -0.2230 C   0  0  0  0  0  0  0  0  0  0  0  0
   -4.5121   -2.2717    0.0802 C   0  0  0  0  0  0  0  0  0  0  0  0
   -5.4228   -1.5395   -0.6815 C   0  0  0  0  0  0  0  0  0  0  0  0
    5.5743   -1.4847    2.0498 C   0  0  0  0  0  0  0  0  0  0  0  0
    0.3071    0.3877   -1.8292 H   0  0  0  0  0  0  0  0  0  0  0  0
   -0.9357   -1.1135   -0.3554 H   0  0  0  0  0  0  0  0  0  0  0  0
    0.1259   -0.7696    1.0180 H   0  0  0  0  0  0  0  0  0  0  0  0
    1.8390   -1.7676   -0.3624 H   0  0  0  0  0  0  0  0  0  0  0  0
    1.7118   -1.4570   -2.1184 H   0  0  0  0  0  0  0  0  0  0  0  0
    0.3826    2.8877   -0.7116 H   0  0  0  0  0  0  0  0  0  0  0  0
    1.5050    3.0166    0.6548 H   0  0  0  0  0  0  0  0  0  0  0  0
    0.1295    1.5263    2.0270 H   0  0  0  0  0  0  0  0  0  0  0  0
   -0.9285    2.7679    1.3399 H   0  0  0  0  0  0  0  0  0  0  0  0
   -2.6437    1.3277    1.8977 H   0  0  0  0  0  0  0  0  0  0  0  0
   -1.8505   -0.1831    2.1987 H   0  0  0  0  0  0  0  0  0  0  0  0
    5.0546   -0.0739   -1.6098 H   0  0  0  0  0  0  0  0  0  0  0  0
    4.2275   -1.5123   -2.2507 H   0  0  0  0  0  0  0  0  0  0  0  0
    4.1601   -2.4504    0.0992 H   0  0  0  0  0  0  0  0  0  0  0  0
    5.8220   -2.1376   -0.4575 H   0  0  0  0  0  0  0  0  0  0  0  0
   -2.7752   -2.2023    1.3373 H   0  0  0  0  0  0  0  0  0  0  0  0
   -6.0164    0.4014   -1.3732 H   0  0  0  0  0  0  0  0  0  0  0  0
   -4.2342    2.4628    0.7582 H   0  0  0  0  0  0  0  0  0  0  0  0
   -3.2053    2.2730   -0.6949 H   0  0  0  0  0  0  0  0  0  0  0  0
   -4.9514    2.4004   -0.8443 H   0  0  0  0  0  0  0  0  0  0  0  0
   -4.6091   -3.3510    0.1530 H   0  0  0  0  0  0  0  0  0  0  0  0
   -6.2289   -2.0489   -1.2015 H   0  0  0  0  0  0  0  0  0  0  0  0
    5.7147   -0.7645    2.8603 H   0  0  0  0  0  0  0  0  0  0  0  0
    6.5395   -1.9481    1.8234 H   0  0  0  0  0  0  0  0  0  0  0  0
    4.8585   -2.2445    2.3783 H   0  0  0  0  0  0  0  0  0  0  0  0
  1 11  2  0  0  0  0
  2 15  1  0  0  0  0
  2 22  1  0  0  0  0
  3  6  1  0  0  0  0
  3  9  1  0  0  0  0
  3 11  1  0  0  0  0
  4  7  1  0  0  0  0
  4 10  1  0  0  0  0
  4 12  1  0  0  0  0
  5  8  1  0  0  0  0
  5 11  1  0  0  0  0
  5 13  1  0  0  0  0
  6  7  1  0  0  0  0
  6  8  1  0  0  0  0
  6 23  1  0  0  0  0
  7 24  1  0  0  0  0
  7 25  1  0  0  0  0
  8 26  1  0  0  0  0
  8 27  1  0  0  0  0
  9 10  1  0  0  0  0
  9 28  1  0  0  0  0
  9 29  1  0  0  0  0
 10 30  1  0  0  0  0
 10 31  1  0  0  0  0
 12 14  1  0  0  0  0
 12 32  1  0  0  0  0
 12 33  1  0  0  0  0
 13 15  1  0  0  0  0
 13 34  1  0  0  0  0
 13 35  1  0  0  0  0
 14 16  1  0  0  0  0
 14 17  2  0  0  0  0
 15 36  1  0  0  0  0
 15 37  1  0  0  0  0
 16 18  2  0  0  0  0
 16 19  1  0  0  0  0
 17 20  1  0  0  0  0
 17 38  1  0  0  0  0
 18 21  1  0  0  0  0
 18 39  1  0  0  0  0
 19 40  1  0  0  0  0
 19 41  1  0  0  0  0
 19 42  1  0  0  0  0
 20 21  2  0  0  0  0
 20 43  1  0  0  0  0
 21 44  1  0  0  0  0
 22 45  1  0  0  0  0
 22 46  1  0  0  0  0
 22 47  1  0  0  0  0
M  END
> <PUBCHEM_COMPOUND_CID>
75537139

> <PUBCHEM_CONFORMER_RMSD>
0.8

> <PUBCHEM_CONFORMER_DIVERSEORDER>
1
73
22
70
79
92
43
77
62
60
16
68
84
35
88
18
72
49
86
34
26
53
91
40
93
66
85
71
82
64
21
33
44
39
12
48
5
59
42
31
87
47
15
29
32
65
4
67
27
52
83
89
76
56
30
38
46
36
58
37
8
24
51
9
14
55
17
90
25
69
54
19
10
45
11
61
23
63
81
80
57
28
20
41
74
6
3
13
78
7
50
75
2

> <PUBCHEM_MMFF94_PARTIAL_CHARGES>
26
1 -0.57
10 0.27
11 0.69
12 0.41
13 0.3
14 -0.14
15 0.28
16 -0.14
17 -0.15
18 -0.15
19 0.14
2 -0.56
20 -0.15
21 -0.15
22 0.28
3 -0.66
38 0.15
39 0.15
4 -0.81
43 0.15
44 0.15
5 -0.66
6 0.3
7 0.27
8 0.3
9 0.3

> <PUBCHEM_EFFECTIVE_ROTOR_COUNT>
6.2

> <PUBCHEM_PHARMACOPHORE_FEATURES>
6
1 1 acceptor
1 2 acceptor
1 4 cation
5 3 5 6 8 11 rings
6 14 16 17 18 20 21 rings
6 3 4 6 7 9 10 rings

> <PUBCHEM_HEAVY_ATOM_COUNT>
22

> <PUBCHEM_ATOM_DEF_STEREO_COUNT>
1

> <PUBCHEM_ATOM_UDEF_STEREO_COUNT>
0

> <PUBCHEM_BOND_DEF_STEREO_COUNT>
0

> <PUBCHEM_BOND_UDEF_STEREO_COUNT>
0

> <PUBCHEM_ISOTOPIC_ATOM_COUNT>
0

> <PUBCHEM_COMPONENT_COUNT>
1

> <PUBCHEM_CACTVS_TAUTO_COUNT>
1

> <PUBCHEM_CONFORMER_ID>
04809AF300000001

> <PUBCHEM_MMFF94_ENERGY>
52.9741

> <PUBCHEM_FEATURE_SELFOVERLAP>
30.542

> <PUBCHEM_SHAPE_FINGERPRINT>
10447042 23 18272089434897546020
10613725 11 16950562151524787099
10670039 82 9223236252023577562
11273773 42 12965972793838669610
11405975 8 18410019814428070945
11796584 16 17749396948971890226
12390115 104 10737286818823262973
12596602 18 18412256225906555274
12616971 3 18337404776674310169
13899415 180 18408876352347331261
14251751 18 18187356615212292754
14251752 14 18260546698253846461
14251764 75 13397190276326980106
14848160 23 17988640774601346902
14848178 5 18343866597651912878
15183329 4 15068620453221981282
15196674 1 18271534164540925949
15788980 27 18113623386875476177
17349148 13 18342749515201814882
17857418 61 18113896044316327538
18222031 100 18271252642651767694
19377110 9 13470397907517642481
19489759 90 18409448055580855019
200 152 17703516579692243149
20028762 73 18059859463164729390
20567600 234 17274525629519762154
20626108 58 18408881862689839632
20645477 70 18341621425109688478
21315763 87 17060335240705987287
21728266 224 18335696100881017490
22079108 93 15338826569803896174
221490 88 18269566107620633421
22393880 68 18335135389138248799
23402539 116 18342460296414887549
23559900 14 18411139168546174553
23572383 38 18201439138460653495
2637199 183 10665231457825476532
3004659 81 18408611361565463014
339767 52 18412537691454976370
4325135 7 12967123917349618019
439807 62 18267583701627094991
4921388 177 17604721104977141683
5104073 3 18343028817252343057
5283173 99 18337108973671284901
559249 180 18335417920645434571
59682541 52 16443889631672993147
633830 44 12757439400680532570
76465 3 18334012778991621554
960060 61 17167868564934978310
9709674 26 18265902547930610243
9971528 1 17167863097140820268

> <PUBCHEM_SHAPE_MULTIPOLES>
426.07
13.45
2.35
1.35
2.19
0.44
0.36
-7.37
0.47
-0.5
0.24
1.42
-0.35
-0.68

> <PUBCHEM_SHAPE_SELFOVERLAP>
888.284

> <PUBCHEM_SHAPE_VOLUME>
244.2

> <PUBCHEM_COORDINATE_TYPE>
2
5
10

$$$$
