38029438
  -OEChem-12032416203D

 62 64  0     1  0  0  0  0  0999 V2000
    3.3159   -1.8995    1.0843 S   0  0  0  0  0  0  0  0  0  0  0  0
   -2.6827    2.9474    0.6297 O   0  0  0  0  0  0  0  0  0  0  0  0
    3.3565   -2.0830    2.5226 O   0  0  0  0  0  0  0  0  0  0  0  0
    4.3518   -2.4725    0.2463 O   0  0  0  0  0  0  0  0  0  0  0  0
    3.1389   -0.2161    0.7513 N   0  0  0  0  0  0  0  0  0  0  0  0
   -2.1465    0.6708    0.8482 N   0  0  0  0  0  0  0  0  0  0  0  0
   -3.3867   -1.3290    0.5044 N   0  0  0  0  0  0  0  0  0  0  0  0
    1.2137    1.1164   -1.1359 C   0  0  1  0  0  0  0  0  0  0  0  0
    2.6774    1.5477   -0.8688 C   0  0  1  0  0  0  0  0  0  0  0  0
    0.2780    2.3337   -1.0843 C   0  0  0  0  0  0  0  0  0  0  0  0
    0.3339    3.0543    0.2760 C   0  0  2  0  0  0  0  0  0  0  0  0
    1.0672    0.4065   -2.4855 C   0  0  0  0  0  0  0  0  0  0  0  0
    1.7601    3.2769    0.7370 C   0  0  0  0  0  0  0  0  0  0  0  0
    2.7958    2.6043    0.2045 C   0  0  0  0  0  0  0  0  0  0  0  0
    3.5501    0.3432   -0.4981 C   0  0  0  0  0  0  0  0  0  0  0  0
   -0.4735    2.2968    1.3359 C   0  0  0  0  0  0  0  0  0  0  0  0
    1.4608    1.3420   -3.6241 C   0  0  0  0  0  0  0  0  0  0  0  0
   -0.3605   -0.0983   -2.6690 C   0  0  0  0  0  0  0  0  0  0  0  0
    1.9743    4.3248    1.7936 C   0  0  0  0  0  0  0  0  0  0  0  0
   -1.9007    2.0401    0.8947 C   0  0  0  0  0  0  0  0  0  0  0  0
    1.7713   -2.5286    0.4983 C   0  0  0  0  0  0  0  0  0  0  0  0
   -3.3509    0.0223    0.4856 C   0  0  0  0  0  0  0  0  0  0  0  0
    1.6447   -2.9428   -0.8277 C   0  0  0  0  0  0  0  0  0  0  0  0
    0.6789   -2.6105    1.3618 C   0  0  0  0  0  0  0  0  0  0  0  0
   -4.4256    0.8220    0.1314 C   0  0  0  0  0  0  0  0  0  0  0  0
    0.4257   -3.4385   -1.2902 C   0  0  0  0  0  0  0  0  0  0  0  0
   -0.5400   -3.1066    0.8993 C   0  0  0  0  0  0  0  0  0  0  0  0
   -0.6666   -3.5204   -0.4268 C   0  0  0  0  0  0  0  0  0  0  0  0
   -5.6136    0.1942   -0.2263 C   0  0  0  0  0  0  0  0  0  0  0  0
   -4.5582   -1.9036    0.1507 C   0  0  0  0  0  0  0  0  0  0  0  0
   -5.6895   -1.1941   -0.2189 C   0  0  0  0  0  0  0  0  0  0  0  0
    0.8910    0.4181   -0.3534 H   0  0  0  0  0  0  0  0  0  0  0  0
    3.1224    2.0102   -1.7533 H   0  0  0  0  0  0  0  0  0  0  0  0
   -0.7540    2.0807   -1.3352 H   0  0  0  0  0  0  0  0  0  0  0  0
    0.5891    3.0761   -1.8303 H   0  0  0  0  0  0  0  0  0  0  0  0
   -0.1357    4.0365    0.1252 H   0  0  0  0  0  0  0  0  0  0  0  0
    1.7263   -0.4667   -2.5173 H   0  0  0  0  0  0  0  0  0  0  0  0
    3.8036    2.8386    0.5421 H   0  0  0  0  0  0  0  0  0  0  0  0
    4.5960    0.6616   -0.4056 H   0  0  0  0  0  0  0  0  0  0  0  0
    3.5255   -0.4028   -1.2968 H   0  0  0  0  0  0  0  0  0  0  0  0
   -0.5414    2.8889    2.2575 H   0  0  0  0  0  0  0  0  0  0  0  0
    0.0352    1.3673    1.6180 H   0  0  0  0  0  0  0  0  0  0  0  0
    2.5079    1.6484   -3.6012 H   0  0  0  0  0  0  0  0  0  0  0  0
    1.3384    0.8086   -4.5759 H   0  0  0  0  0  0  0  0  0  0  0  0
    0.8294    2.2304   -3.7036 H   0  0  0  0  0  0  0  0  0  0  0  0
   -0.3952   -0.8208   -3.4926 H   0  0  0  0  0  0  0  0  0  0  0  0
   -0.7289   -0.6065   -1.7729 H   0  0  0  0  0  0  0  0  0  0  0  0
   -1.0630    0.6997   -2.9285 H   0  0  0  0  0  0  0  0  0  0  0  0
    3.0364    4.4795    2.0118 H   0  0  0  0  0  0  0  0  0  0  0  0
    1.5625    5.2847    1.4657 H   0  0  0  0  0  0  0  0  0  0  0  0
    1.4852    4.0364    2.7288 H   0  0  0  0  0  0  0  0  0  0  0  0
    3.1062    0.4126    1.5630 H   0  0  0  0  0  0  0  0  0  0  0  0
   -1.3969    0.0282    1.0912 H   0  0  0  0  0  0  0  0  0  0  0  0
    2.4802   -2.8822   -1.5191 H   0  0  0  0  0  0  0  0  0  0  0  0
    0.7536   -2.2872    2.3960 H   0  0  0  0  0  0  0  0  0  0  0  0
    0.3261   -3.7577   -2.3235 H   0  0  0  0  0  0  0  0  0  0  0  0
   -1.3887   -3.1733    1.5735 H   0  0  0  0  0  0  0  0  0  0  0  0
   -4.4430    1.8988    0.1015 H   0  0  0  0  0  0  0  0  0  0  0  0
   -1.6161   -3.9056   -0.7870 H   0  0  0  0  0  0  0  0  0  0  0  0
   -6.4798    0.7845   -0.5106 H   0  0  0  0  0  0  0  0  0  0  0  0
   -4.5647   -2.9884    0.1723 H   0  0  0  0  0  0  0  0  0  0  0  0
   -6.6051   -1.7047   -0.4942 H   0  0  0  0  0  0  0  0  0  0  0  0
  1  3  2  0  0  0  0
  1  4  2  0  0  0  0
  1  5  1  0  0  0  0
  1 21  1  0  0  0  0
  2 20  2  0  0  0  0
  5 15  1  0  0  0  0
  5 52  1  0  0  0  0
  6 20  1  0  0  0  0
  6 22  1  0  0  0  0
  6 53  1  0  0  0  0
  7 22  1  0  0  0  0
  7 30  2  0  0  0  0
  8  9  1  0  0  0  0
  8 10  1  0  0  0  0
  8 12  1  0  0  0  0
  8 32  1  0  0  0  0
  9 14  1  0  0  0  0
  9 15  1  0  0  0  0
  9 33  1  0  0  0  0
 10 11  1  0  0  0  0
 10 34  1  0  0  0  0
 10 35  1  0  0  0  0
 11 13  1  0  0  0  0
 11 16  1  0  0  0  0
 11 36  1  0  0  0  0
 12 17  1  0  0  0  0
 12 18  1  0  0  0  0
 12 37  1  0  0  0  0
 13 14  2  0  0  0  0
 13 19  1  0  0  0  0
 14 38  1  0  0  0  0
 15 39  1  0  0  0  0
 15 40  1  0  0  0  0
 16 20  1  0  0  0  0
 16 41  1  0  0  0  0
 16 42  1  0  0  0  0
 17 43  1  0  0  0  0
 17 44  1  0  0  0  0
 17 45  1  0  0  0  0
 18 46  1  0  0  0  0
 18 47  1  0  0  0  0
 18 48  1  0  0  0  0
 19 49  1  0  0  0  0
 19 50  1  0  0  0  0
 19 51  1  0  0  0  0
 21 23  2  0  0  0  0
 21 24  1  0  0  0  0
 22 25  2  0  0  0  0
 23 26  1  0  0  0  0
 23 54  1  0  0  0  0
 24 27  2  0  0  0  0
 24 55  1  0  0  0  0
 25 29  1  0  0  0  0
 25 58  1  0  0  0  0
 26 28  2  0  0  0  0
 26 56  1  0  0  0  0
 27 28  1  0  0  0  0
 27 57  1  0  0  0  0
 28 59  1  0  0  0  0
 29 31  2  0  0  0  0
 29 60  1  0  0  0  0
 30 31  1  0  0  0  0
 30 61  1  0  0  0  0
 31 62  1  0  0  0  0
M  END
> <PUBCHEM_COMPOUND_CID>
38029438

> <PUBCHEM_CONFORMER_RMSD>
1.2

> <PUBCHEM_CONFORMER_DIVERSEORDER>
2
18
157
43
68
74
172
95
35
100
50
70
155
80
128
175
24
137
46
64
115
116
106
82
160
63
154
149
138
30
8
99
49
53
142
121
153
164
161
13
129
91
103
38
41
27
77
6
32
162
108
118
87
173
52
3
119
58
90
147
57
171
131
146
62
47
140
141
111
37
12
96
88
61
17
107
109
135
151
22
81
117
94
125
78
110
67
120
174
167
40
97
85
126
168
42
159
130
166
158
104
5
136
122
69
133
150
25
132
134
10
143
55
21
65
163
127
101
83
114
145
102
112
169
89
123
14
28
36
98
16
86
20
51
54
29
34
1
26
165
148
71
92
75
79
59
66
31
60
73
152
11
56
139
48
93
45
156
9
72
23
105
124
76
15
170
44
33
39
7
144
113
19
4
84

> <PUBCHEM_MMFF94_PARTIAL_CHARGES>
38
1 1.45
11 0.14
13 -0.28
14 -0.29
15 0.36
16 0.06
19 0.14
2 -0.57
20 0.57
21 -0.01
22 0.43
23 -0.15
24 -0.15
25 -0.15
26 -0.15
27 -0.15
28 -0.15
29 -0.15
3 -0.65
30 0.16
31 -0.15
38 0.15
4 -0.65
5 -0.91
52 0.42
53 0.37
54 0.15
55 0.15
56 0.15
57 0.15
58 0.15
59 0.15
6 -0.55
60 0.15
61 0.15
62 0.15
7 -0.62
9 0.14

> <PUBCHEM_EFFECTIVE_ROTOR_COUNT>
9.8

> <PUBCHEM_PHARMACOPHORE_FEATURES>
10
1 2 acceptor
1 3 acceptor
1 4 acceptor
1 5 donor
1 6 donor
1 7 acceptor
3 12 17 18 hydrophobe
6 21 23 24 26 27 28 rings
6 7 22 25 29 30 31 rings
6 8 9 10 11 13 14 rings

> <PUBCHEM_HEAVY_ATOM_COUNT>
31

> <PUBCHEM_ATOM_DEF_STEREO_COUNT>
3

> <PUBCHEM_ATOM_UDEF_STEREO_COUNT>
0

> <PUBCHEM_BOND_DEF_STEREO_COUNT>
0

> <PUBCHEM_BOND_UDEF_STEREO_COUNT>
0

> <PUBCHEM_ISOTOPIC_ATOM_COUNT>
0

> <PUBCHEM_COMPONENT_COUNT>
1

> <PUBCHEM_CACTVS_TAUTO_COUNT>
3

> <PUBCHEM_CONFORMER_ID>
0244487E00000002

> <PUBCHEM_MMFF94_ENERGY>
67.1154

> <PUBCHEM_FEATURE_SELFOVERLAP>
50.765

> <PUBCHEM_SHAPE_FINGERPRINT>
10675989 125 16755205663462833527
1100329 8 18267861864660845392
11370993 70 18192149523926249489
11513181 2 18272094838020003198
12156800 1 13023753881660393418
12166972 35 18040158388058671971
12422481 6 17535433180128084496
13122387 1 18267307718973766475
131258 38 18261660575930952306
133893 2 17532965764265815965
14081887 123 17762053233686728730
14117953 113 18196928869133934215
18336668 15 18187083906005370234
21421861 104 18268451065512824585
23419403 2 17897697964618154765
23559900 14 18340757162100292617
25222932 49 17910675698441207831
3298306 158 18192151723292662995
35225 105 17541690607943954815
463206 1 18266190443662045153
469060 322 17387129763600239266
57527573 199 16392120569513267104
6287921 2 17984714320032012747
6443956 14 18264209119192201005
6669772 16 18054218014909542401
9896288 288 17770217151448701816

> <PUBCHEM_SHAPE_MULTIPOLES>
609.26
8.24
5.57
2.28
12.73
0.39
-1.87
1.07
1.46
-3.49
2.1
-1.9
-0.43
-0.76

> <PUBCHEM_SHAPE_SELFOVERLAP>
1264.137

> <PUBCHEM_SHAPE_VOLUME>
348.2

> <PUBCHEM_COORDINATE_TYPE>
2
5
10

$$$$
