7164957
  -OEChem-12032416413D

 67 70  0     1  0  0  0  0  0999 V2000
    5.9217    1.6671    0.7996 S   0  0  0  0  0  0  0  0  0  0  0  0
   -0.1934   -4.9780   -3.0456 F   0  0  0  0  0  0  0  0  0  0  0  0
    0.5656    0.7062   -0.9665 O   0  0  0  0  0  0  0  0  0  0  0  0
    0.3396    4.6893   -0.7153 O   0  0  0  0  0  0  0  0  0  0  0  0
    3.2772    2.0920    2.1665 O   0  0  0  0  0  0  0  0  0  0  0  0
   -2.1421   -1.9349    1.0111 O   0  0  0  0  0  0  0  0  0  0  0  0
   -0.6347    2.2723    0.2686 N   0  0  0  0  0  0  0  0  0  0  0  0
    2.2074    0.3273    1.1059 N   0  0  0  0  0  0  0  0  0  0  0  0
    0.1437   -1.6130    1.3733 N   0  0  0  0  0  0  0  0  0  0  0  0
   -0.5417    4.1480   -2.7658 N   0  0  0  0  0  0  0  0  0  0  0  0
   -3.6193    2.3881    0.1736 C   0  0  0  0  0  0  0  0  0  0  0  0
   -3.8369    1.2299   -0.8092 C   0  0  0  0  0  0  0  0  0  0  0  0
   -4.9587    3.0134    0.5866 C   0  0  0  0  0  0  0  0  0  0  0  0
   -2.6955    3.4432   -0.4319 C   0  0  0  0  0  0  0  0  0  0  0  0
   -4.8005    0.1870   -0.2472 C   0  0  0  0  0  0  0  0  0  0  0  0
   -5.9202    1.9675    1.1463 C   0  0  0  0  0  0  0  0  0  0  0  0
   -6.1273    0.8136    0.1702 C   0  0  0  0  0  0  0  0  0  0  0  0
   -1.3151    2.9136   -0.8332 C   0  0  1  0  0  0  0  0  0  0  0  0
    0.8338    0.7585    1.4070 C   0  0  2  0  0  0  0  0  0  0  0  0
   -0.0218   -0.3307    2.0526 C   0  0  0  0  0  0  0  0  0  0  0  0
    0.2497    1.2202    0.1033 C   0  0  0  0  0  0  0  0  0  0  0  0
    2.3662   -1.0225    0.5286 C   0  0  0  0  0  0  0  0  0  0  0  0
    1.5343   -2.0585    1.2741 C   0  0  0  0  0  0  0  0  0  0  0  0
   -0.4095    3.9981   -1.4017 C   0  0  0  0  0  0  0  0  0  0  0  0
    3.2612    1.2555    1.2615 C   0  0  0  0  0  0  0  0  0  0  0  0
   -0.9755   -2.3152    0.9246 C   0  0  0  0  0  0  0  0  0  0  0  0
    4.3561    1.1986    0.2990 C   0  0  0  0  0  0  0  0  0  0  0  0
   -0.7619   -3.6151    0.2756 C   0  0  0  0  0  0  0  0  0  0  0  0
    4.3216    0.8059   -1.0166 C   0  0  0  0  0  0  0  0  0  0  0  0
   -0.5763   -3.6784   -1.1031 C   0  0  0  0  0  0  0  0  0  0  0  0
   -0.7462   -4.7781    1.0415 C   0  0  0  0  0  0  0  0  0  0  0  0
    5.6055    0.8901   -1.6286 C   0  0  0  0  0  0  0  0  0  0  0  0
    6.5672    1.3444   -0.7533 C   0  0  0  0  0  0  0  0  0  0  0  0
   -0.3735   -4.9130   -1.7201 C   0  0  0  0  0  0  0  0  0  0  0  0
   -0.5436   -6.0125    0.4247 C   0  0  0  0  0  0  0  0  0  0  0  0
   -0.3571   -6.0800   -0.9560 C   0  0  0  0  0  0  0  0  0  0  0  0
   -3.1523    1.9839    1.0819 H   0  0  0  0  0  0  0  0  0  0  0  0
   -2.8954    0.7168   -1.0300 H   0  0  0  0  0  0  0  0  0  0  0  0
   -4.2287    1.6115   -1.7605 H   0  0  0  0  0  0  0  0  0  0  0  0
   -5.4244    3.5042   -0.2777 H   0  0  0  0  0  0  0  0  0  0  0  0
   -4.7922    3.7909    1.3417 H   0  0  0  0  0  0  0  0  0  0  0  0
   -3.1724    3.9003   -1.3092 H   0  0  0  0  0  0  0  0  0  0  0  0
   -2.5647    4.2578    0.2937 H   0  0  0  0  0  0  0  0  0  0  0  0
   -4.9795   -0.5924   -0.9963 H   0  0  0  0  0  0  0  0  0  0  0  0
   -4.3433   -0.3020    0.6212 H   0  0  0  0  0  0  0  0  0  0  0  0
   -5.5253    1.5786    2.0930 H   0  0  0  0  0  0  0  0  0  0  0  0
   -6.8845    2.4369    1.3717 H   0  0  0  0  0  0  0  0  0  0  0  0
   -6.6542    1.1787   -0.7199 H   0  0  0  0  0  0  0  0  0  0  0  0
   -6.7667    0.0516    0.6300 H   0  0  0  0  0  0  0  0  0  0  0  0
   -1.4303    2.1625   -1.6238 H   0  0  0  0  0  0  0  0  0  0  0  0
    0.8811    1.6168    2.0881 H   0  0  0  0  0  0  0  0  0  0  0  0
   -0.7735    2.6616    1.1968 H   0  0  0  0  0  0  0  0  0  0  0  0
   -1.0770   -0.0377    2.0745 H   0  0  0  0  0  0  0  0  0  0  0  0
    0.2961   -0.4848    3.0910 H   0  0  0  0  0  0  0  0  0  0  0  0
    3.4200   -1.3159    0.5786 H   0  0  0  0  0  0  0  0  0  0  0  0
    2.0774   -1.0062   -0.5252 H   0  0  0  0  0  0  0  0  0  0  0  0
    1.6232   -3.0271    0.7783 H   0  0  0  0  0  0  0  0  0  0  0  0
    1.9064   -2.1811    2.2985 H   0  0  0  0  0  0  0  0  0  0  0  0
   -1.1791    3.5837   -3.3185 H   0  0  0  0  0  0  0  0  0  0  0  0
    0.0005    4.8435   -3.2675 H   0  0  0  0  0  0  0  0  0  0  0  0
    3.4311    0.4989   -1.5478 H   0  0  0  0  0  0  0  0  0  0  0  0
   -0.5860   -2.7746   -1.7066 H   0  0  0  0  0  0  0  0  0  0  0  0
   -0.8901   -4.7358    2.1179 H   0  0  0  0  0  0  0  0  0  0  0  0
    5.8117    0.6376   -2.6605 H   0  0  0  0  0  0  0  0  0  0  0  0
    7.6176    1.5039   -0.9519 H   0  0  0  0  0  0  0  0  0  0  0  0
   -0.5305   -6.9212    1.0194 H   0  0  0  0  0  0  0  0  0  0  0  0
   -0.1989   -7.0410   -1.4364 H   0  0  0  0  0  0  0  0  0  0  0  0
  1 27  1  0  0  0  0
  1 33  1  0  0  0  0
  2 34  1  0  0  0  0
  3 21  2  0  0  0  0
  4 24  2  0  0  0  0
  5 25  2  0  0  0  0
  6 26  2  0  0  0  0
  7 18  1  0  0  0  0
  7 21  1  0  0  0  0
  7 52  1  0  0  0  0
  8 19  1  0  0  0  0
  8 22  1  0  0  0  0
  8 25  1  0  0  0  0
  9 20  1  0  0  0  0
  9 23  1  0  0  0  0
  9 26  1  0  0  0  0
 10 24  1  0  0  0  0
 10 59  1  0  0  0  0
 10 60  1  0  0  0  0
 11 12  1  0  0  0  0
 11 13  1  0  0  0  0
 11 14  1  0  0  0  0
 11 37  1  0  0  0  0
 12 15  1  0  0  0  0
 12 38  1  0  0  0  0
 12 39  1  0  0  0  0
 13 16  1  0  0  0  0
 13 40  1  0  0  0  0
 13 41  1  0  0  0  0
 14 18  1  0  0  0  0
 14 42  1  0  0  0  0
 14 43  1  0  0  0  0
 15 17  1  0  0  0  0
 15 44  1  0  0  0  0
 15 45  1  0  0  0  0
 16 17  1  0  0  0  0
 16 46  1  0  0  0  0
 16 47  1  0  0  0  0
 17 48  1  0  0  0  0
 17 49  1  0  0  0  0
 18 24  1  0  0  0  0
 18 50  1  0  0  0  0
 19 20  1  0  0  0  0
 19 21  1  0  0  0  0
 19 51  1  0  0  0  0
 20 53  1  0  0  0  0
 20 54  1  0  0  0  0
 22 23  1  0  0  0  0
 22 55  1  0  0  0  0
 22 56  1  0  0  0  0
 23 57  1  0  0  0  0
 23 58  1  0  0  0  0
 25 27  1  0  0  0  0
 26 28  1  0  0  0  0
 27 29  2  0  0  0  0
 28 30  2  0  0  0  0
 28 31  1  0  0  0  0
 29 32  1  0  0  0  0
 29 61  1  0  0  0  0
 30 34  1  0  0  0  0
 30 62  1  0  0  0  0
 31 35  2  0  0  0  0
 31 63  1  0  0  0  0
 32 33  2  0  0  0  0
 32 64  1  0  0  0  0
 33 65  1  0  0  0  0
 34 36  2  0  0  0  0
 35 36  1  0  0  0  0
 35 66  1  0  0  0  0
 36 67  1  0  0  0  0
M  END
> <PUBCHEM_COMPOUND_CID>
7164957

> <PUBCHEM_CONFORMER_RMSD>
1.2

> <PUBCHEM_CONFORMER_DIVERSEORDER>
1
152
207
100
153
93
32
220
194
167
225
221
79
96
176
63
130
203
199
217
162
74
219
13
145
137
105
188
92
68
197
192
165
67
89
166
218
131
187
226
36
168
22
47
114
51
20
177
222
196
42
38
119
115
159
211
41
179
86
175
90
206
158
205
55
23
190
154
170
81
180
54
108
95
16
46
136
183
19
103
169
94
101
33
200
149
91
59
2
128
34
61
72
150
78
64
210
143
160
75
107
87
104
129
172
186
182
223
141
127
123
134
121
148
214
52
111
156
26
65
213
215
173
178
113
185
189
7
25
122
10
98
201
58
88
117
181
106
73
164
62
142
17
97
40
6
140
147
80
112
120
50
139
83
212
76
161
71
39
15
157
12
204
109
155
21
57
9
102
44
48
69
191
125
216
146
193
124
18
116
144
171
184
202
5
224
198
126
133
85
77
84
70
37
151
209
49
43
53
3
110
30
31
118
4
132
99
66
174
11
195
8
27
208
82
24
56
29
138
28
60
45
135
14
35
163

> <PUBCHEM_MMFF94_PARTIAL_CHARGES>
39
1 -0.08
10 -0.8
18 0.36
19 0.36
2 -0.19
20 0.3
21 0.57
22 0.3
23 0.3
24 0.57
25 0.71
26 0.54
27 -0.05
28 0.09
29 -0.15
3 -0.57
30 -0.15
31 -0.15
32 -0.15
33 -0.11
34 0.19
35 -0.15
36 -0.15
4 -0.57
5 -0.57
52 0.37
59 0.37
6 -0.57
60 0.37
61 0.15
62 0.15
63 0.15
64 0.15
65 0.15
66 0.15
67 0.15
7 -0.73
8 -0.66
9 -0.66

> <PUBCHEM_EFFECTIVE_ROTOR_COUNT>
12.4

> <PUBCHEM_PHARMACOPHORE_FEATURES>
10
1 10 donor
1 3 acceptor
1 4 acceptor
1 5 acceptor
1 6 acceptor
1 7 donor
5 1 27 29 32 33 rings
6 11 12 13 15 16 17 rings
6 28 30 31 34 35 36 rings
6 8 9 19 20 22 23 rings

> <PUBCHEM_HEAVY_ATOM_COUNT>
36

> <PUBCHEM_ATOM_DEF_STEREO_COUNT>
2

> <PUBCHEM_ATOM_UDEF_STEREO_COUNT>
0

> <PUBCHEM_BOND_DEF_STEREO_COUNT>
0

> <PUBCHEM_BOND_UDEF_STEREO_COUNT>
0

> <PUBCHEM_ISOTOPIC_ATOM_COUNT>
0

> <PUBCHEM_COMPONENT_COUNT>
1

> <PUBCHEM_CACTVS_TAUTO_COUNT>
4

> <PUBCHEM_CONFORMER_ID>
006D541D00000001

> <PUBCHEM_MMFF94_ENERGY>
86.7204

> <PUBCHEM_FEATURE_SELFOVERLAP>
50.748

> <PUBCHEM_SHAPE_FINGERPRINT>
10010297 198 18052248506491193021
102385 1 17760934339014620237
10815517 723 18124880311691554699
11014199 57 17617937375643687899
11115154 58 16978388824383496335
11445158 3 17825933842002378070
11488393 25 17978520732303906555
12058002 1 17700731481662826424
13692115 46 18124061132521011326
13757389 114 18265905820189274732
14040221 310 18055630879579172420
14068700 686 18189616030198880757
14114211 80 18339936956279661633
14556957 393 17466248722307577180
14674994 50 18199758118261933859
15131766 46 14419853755277093988
15297060 5 18342465820133662569
15444296 8 17837507605843096550
1813 80 17619915393515987274
18365409 1 18269550719080184799
21344244 181 18200606795716175542
21365058 27 18341059548956158625
21716022 299 17407975288534074990
25019877 29 18411140199707643460
255183 313 18337656598964896096
4461854 278 18267039396005029339
6442390 28 18410286982810858904
6700243 42 17621078603698164878
9658208 31 18342731966498564360

> <PUBCHEM_SHAPE_MULTIPOLES>
694.04
10.94
8.99
1.98
3.27
15.62
0.7
-14.03
-0.51
-4.23
4.57
0.81
0.43
0.09

> <PUBCHEM_SHAPE_SELFOVERLAP>
1459.818

> <PUBCHEM_SHAPE_VOLUME>
390.5

> <PUBCHEM_COORDINATE_TYPE>
2
5
10

$$$$
