23843913
  -OEChem-12032416133D

 78 81  0     1  0  0  0  0  0999 V2000
    8.4260   -3.0672   -0.7220 F   0  0  0  0  0  0  0  0  0  0  0  0
    6.4942   -3.6120   -1.5436 F   0  0  0  0  0  0  0  0  0  0  0  0
    7.5329   -1.8533   -2.2896 F   0  0  0  0  0  0  0  0  0  0  0  0
    1.5856    1.5261    0.3743 O   0  0  0  0  0  0  0  0  0  0  0  0
   -3.5899    1.1636   -2.7990 O   0  0  0  0  0  0  0  0  0  0  0  0
    1.9370    4.1755   -0.7381 O   0  0  0  0  0  0  0  0  0  0  0  0
   -5.6335   -0.0541    0.3797 O   0  0  0  0  0  0  0  0  0  0  0  0
    2.9575    1.4970    2.2038 O   0  0  0  0  0  0  0  0  0  0  0  0
   -7.2464   -1.4393    2.1719 O   0  0  0  0  0  0  0  0  0  0  0  0
   -5.2866   -2.2991   -0.0609 N   0  0  0  0  0  0  0  0  0  0  0  0
    3.4757    0.3305    0.2414 N   0  0  0  0  0  0  0  0  0  0  0  0
   -1.6890    1.2074   -0.2595 C   0  0  2  0  0  0  0  0  0  0  0  0
   -1.5692    2.7709   -0.1643 C   0  0  1  0  0  0  0  0  0  0  0  0
   -0.1209    3.3336    0.1371 C   0  0  1  0  0  0  0  0  0  0  0  0
   -3.2249    0.8343   -0.3792 C   0  0  1  0  0  0  0  0  0  0  0  0
   -1.1180    0.5673    1.0486 C   0  0  0  0  0  0  0  0  0  0  0  0
   -2.2776    3.4762   -1.3405 C   0  0  0  0  0  0  0  0  0  0  0  0
    0.6815    2.3754    1.0760 C   0  0  1  0  0  0  0  0  0  0  0  0
   -3.9750    1.5951   -1.4980 C   0  0  1  0  0  0  0  0  0  0  0  0
   -0.2396    1.4869    1.9028 C   0  0  0  0  0  0  0  0  0  0  0  0
   -3.7562    3.1012   -1.4084 C   0  0  0  0  0  0  0  0  0  0  0  0
   -0.9039    0.6330   -1.4637 C   0  0  0  0  0  0  0  0  0  0  0  0
   -3.5029   -0.6755   -0.4812 C   0  0  0  0  0  0  0  0  0  0  0  0
    0.6790    3.6780   -1.1373 C   0  0  0  0  0  0  0  0  0  0  0  0
   -0.2961    4.6740    0.9101 C   0  0  0  0  0  0  0  0  0  0  0  0
   -4.9065   -0.9677   -0.0140 C   0  0  0  0  0  0  0  0  0  0  0  0
   -6.6436   -2.7443    0.2639 C   0  0  1  0  0  0  0  0  0  0  0  0
    2.7132    1.1446    1.0563 C   0  0  0  0  0  0  0  0  0  0  0  0
   -4.4598   -3.4127   -0.5192 C   0  0  0  0  0  0  0  0  0  0  0  0
   -6.7186   -4.1505   -0.3363 C   0  0  0  0  0  0  0  0  0  0  0  0
   -5.2849   -4.6571   -0.2286 C   0  0  0  0  0  0  0  0  0  0  0  0
   -6.8838   -2.7476    1.7724 C   0  0  0  0  0  0  0  0  0  0  0  0
    4.7131   -0.2849    0.5384 C   0  0  0  0  0  0  0  0  0  0  0  0
    5.3438   -1.0809   -0.4177 C   0  0  0  0  0  0  0  0  0  0  0  0
    5.3034   -0.0957    1.7880 C   0  0  0  0  0  0  0  0  0  0  0  0
    6.5647   -1.6881   -0.1242 C   0  0  0  0  0  0  0  0  0  0  0  0
    6.5245   -0.7028    2.0815 C   0  0  0  0  0  0  0  0  0  0  0  0
    7.1550   -1.4991    1.1254 C   0  0  0  0  0  0  0  0  0  0  0  0
    7.2400   -2.5388   -1.1463 C   0  0  0  0  0  0  0  0  0  0  0  0
   -2.1716    3.0374    0.7200 H   0  0  0  0  0  0  0  0  0  0  0  0
   -3.6619    1.1964    0.5647 H   0  0  0  0  0  0  0  0  0  0  0  0
   -0.5464   -0.3376    0.8029 H   0  0  0  0  0  0  0  0  0  0  0  0
   -1.9309    0.2250    1.7017 H   0  0  0  0  0  0  0  0  0  0  0  0
   -2.2156    4.5639   -1.2258 H   0  0  0  0  0  0  0  0  0  0  0  0
   -1.7952    3.2366   -2.2938 H   0  0  0  0  0  0  0  0  0  0  0  0
    1.2588    3.0010    1.7695 H   0  0  0  0  0  0  0  0  0  0  0  0
   -5.0519    1.4134   -1.4286 H   0  0  0  0  0  0  0  0  0  0  0  0
    0.3399    0.8592    2.5905 H   0  0  0  0  0  0  0  0  0  0  0  0
   -0.8824    2.1140    2.5332 H   0  0  0  0  0  0  0  0  0  0  0  0
   -4.2638    3.4880   -0.5160 H   0  0  0  0  0  0  0  0  0  0  0  0
   -4.2039    3.6022   -2.2752 H   0  0  0  0  0  0  0  0  0  0  0  0
   -1.1632    1.1159   -2.4078 H   0  0  0  0  0  0  0  0  0  0  0  0
   -1.0884   -0.4396   -1.5856 H   0  0  0  0  0  0  0  0  0  0  0  0
    0.1749    0.7333   -1.3470 H   0  0  0  0  0  0  0  0  0  0  0  0
   -3.3792   -1.0360   -1.5074 H   0  0  0  0  0  0  0  0  0  0  0  0
   -2.8205   -1.2399    0.1610 H   0  0  0  0  0  0  0  0  0  0  0  0
    0.8349    2.8090   -1.7801 H   0  0  0  0  0  0  0  0  0  0  0  0
    0.1870    4.4558   -1.7299 H   0  0  0  0  0  0  0  0  0  0  0  0
   -0.8219    5.4233    0.3093 H   0  0  0  0  0  0  0  0  0  0  0  0
   -0.8709    4.5286    1.8320 H   0  0  0  0  0  0  0  0  0  0  0  0
    0.6650    5.1130    1.2014 H   0  0  0  0  0  0  0  0  0  0  0  0
   -4.1296    1.6490   -3.4460 H   0  0  0  0  0  0  0  0  0  0  0  0
    2.4330    4.3899   -1.5465 H   0  0  0  0  0  0  0  0  0  0  0  0
   -7.3592   -2.0724   -0.2254 H   0  0  0  0  0  0  0  0  0  0  0  0
   -3.4947   -3.4223   -0.0058 H   0  0  0  0  0  0  0  0  0  0  0  0
   -4.2929   -3.2886   -1.5946 H   0  0  0  0  0  0  0  0  0  0  0  0
   -6.9970   -4.0837   -1.3957 H   0  0  0  0  0  0  0  0  0  0  0  0
   -7.4398   -4.8070    0.1588 H   0  0  0  0  0  0  0  0  0  0  0  0
   -5.0678   -5.4761   -0.9197 H   0  0  0  0  0  0  0  0  0  0  0  0
   -5.0899   -5.0092    0.7914 H   0  0  0  0  0  0  0  0  0  0  0  0
   -5.9963   -3.0588    2.3331 H   0  0  0  0  0  0  0  0  0  0  0  0
   -7.7178   -3.4079    2.0313 H   0  0  0  0  0  0  0  0  0  0  0  0
    3.1033    0.1496   -0.6877 H   0  0  0  0  0  0  0  0  0  0  0  0
   -7.4001   -1.4640    3.1318 H   0  0  0  0  0  0  0  0  0  0  0  0
    4.8864   -1.2305   -1.3932 H   0  0  0  0  0  0  0  0  0  0  0  0
    4.8748    0.5062    2.5772 H   0  0  0  0  0  0  0  0  0  0  0  0
    6.9851   -0.5563    3.0542 H   0  0  0  0  0  0  0  0  0  0  0  0
    8.1057   -1.9634    1.3728 H   0  0  0  0  0  0  0  0  0  0  0  0
  1 39  1  0  0  0  0
  2 39  1  0  0  0  0
  3 39  1  0  0  0  0
  4 18  1  0  0  0  0
  4 28  1  0  0  0  0
  5 19  1  0  0  0  0
  5 62  1  0  0  0  0
  6 24  1  0  0  0  0
  6 63  1  0  0  0  0
  7 26  2  0  0  0  0
  8 28  2  0  0  0  0
  9 32  1  0  0  0  0
  9 74  1  0  0  0  0
 10 26  1  0  0  0  0
 10 27  1  0  0  0  0
 10 29  1  0  0  0  0
 11 28  1  0  0  0  0
 11 33  1  0  0  0  0
 11 73  1  0  0  0  0
 12 13  1  0  0  0  0
 12 15  1  0  0  0  0
 12 16  1  0  0  0  0
 12 22  1  0  0  0  0
 13 14  1  0  0  0  0
 13 17  1  0  0  0  0
 13 40  1  0  0  0  0
 14 18  1  0  0  0  0
 14 24  1  0  0  0  0
 14 25  1  0  0  0  0
 15 19  1  0  0  0  0
 15 23  1  0  0  0  0
 15 41  1  0  0  0  0
 16 20  1  0  0  0  0
 16 42  1  0  0  0  0
 16 43  1  0  0  0  0
 17 21  1  0  0  0  0
 17 44  1  0  0  0  0
 17 45  1  0  0  0  0
 18 20  1  0  0  0  0
 18 46  1  0  0  0  0
 19 21  1  0  0  0  0
 19 47  1  0  0  0  0
 20 48  1  0  0  0  0
 20 49  1  0  0  0  0
 21 50  1  0  0  0  0
 21 51  1  0  0  0  0
 22 52  1  0  0  0  0
 22 53  1  0  0  0  0
 22 54  1  0  0  0  0
 23 26  1  0  0  0  0
 23 55  1  0  0  0  0
 23 56  1  0  0  0  0
 24 57  1  0  0  0  0
 24 58  1  0  0  0  0
 25 59  1  0  0  0  0
 25 60  1  0  0  0  0
 25 61  1  0  0  0  0
 27 30  1  0  0  0  0
 27 32  1  0  0  0  0
 27 64  1  0  0  0  0
 29 31  1  0  0  0  0
 29 65  1  0  0  0  0
 29 66  1  0  0  0  0
 30 31  1  0  0  0  0
 30 67  1  0  0  0  0
 30 68  1  0  0  0  0
 31 69  1  0  0  0  0
 31 70  1  0  0  0  0
 32 71  1  0  0  0  0
 32 72  1  0  0  0  0
 33 34  1  0  0  0  0
 33 35  2  0  0  0  0
 34 36  2  0  0  0  0
 34 75  1  0  0  0  0
 35 37  1  0  0  0  0
 35 76  1  0  0  0  0
 36 38  1  0  0  0  0
 36 39  1  0  0  0  0
 37 38  2  0  0  0  0
 37 77  1  0  0  0  0
 38 78  1  0  0  0  0
M  END
> <PUBCHEM_COMPOUND_CID>
23843913

> <PUBCHEM_CONFORMER_RMSD>
1.2

> <PUBCHEM_CONFORMER_DIVERSEORDER>
1
85
113
53
33
111
106
12
46
96
30
27
70
16
55
84
67
20
115
105
59
24
15
88
62
40
4
32
94
69
26
114
103
44
23
108
14
49
52
18
60
9
109
95
21
91
74
92
83
28
34
77
66
79
25
47
58
97
51
104
101
82
11
80
29
56
78
99
48
89
65
98
42
110
93
57
107
7
2
112
38
72
31
10
102
8
45
61
73
50
13
36
54
90
22
64
68
19
76
100
17
63
81
75
86
37
39
87
71
41
5
35
6
43
3

> <PUBCHEM_MMFF94_PARTIAL_CHARGES>
35
1 -0.34
10 -0.66
11 -0.55
18 0.28
19 0.28
2 -0.34
23 0.06
24 0.28
26 0.57
27 0.3
28 0.78
29 0.3
3 -0.34
32 0.28
33 0.12
34 -0.15
35 -0.15
36 -0.14
37 -0.15
38 -0.15
39 1.16
4 -0.43
5 -0.68
6 -0.68
62 0.4
63 0.4
7 -0.57
73 0.37
74 0.4
75 0.15
76 0.15
77 0.15
78 0.15
8 -0.57
9 -0.68

> <PUBCHEM_EFFECTIVE_ROTOR_COUNT>
12.6

> <PUBCHEM_PHARMACOPHORE_FEATURES>
13
1 11 donor
1 5 acceptor
1 5 donor
1 6 acceptor
1 6 donor
1 7 acceptor
1 8 acceptor
1 9 acceptor
1 9 donor
5 10 27 29 30 31 rings
6 12 13 14 16 18 20 rings
6 12 13 15 17 19 21 rings
6 33 34 35 36 37 38 rings

> <PUBCHEM_HEAVY_ATOM_COUNT>
39

> <PUBCHEM_ATOM_DEF_STEREO_COUNT>
6

> <PUBCHEM_ATOM_UDEF_STEREO_COUNT>
1

> <PUBCHEM_BOND_DEF_STEREO_COUNT>
0

> <PUBCHEM_BOND_UDEF_STEREO_COUNT>
0

> <PUBCHEM_ISOTOPIC_ATOM_COUNT>
0

> <PUBCHEM_COMPONENT_COUNT>
1

> <PUBCHEM_CACTVS_TAUTO_COUNT>
2

> <PUBCHEM_CONFORMER_ID>
016BD44900000001

> <PUBCHEM_MMFF94_ENERGY>
126.7245

> <PUBCHEM_FEATURE_SELFOVERLAP>
65.994

> <PUBCHEM_SHAPE_FINGERPRINT>
11059845 2 17987537961246261553
11135609 127 9726264982531910627
11607047 141 18265906924803368505
117089 54 18411139172788745223
12342043 65 18271515489749031168
12422481 6 18058730346653740511
12717326 120 18338505354340842514
12988421 55 12319742436351965313
13383661 66 18272936012097624922
13540713 4 18046316856113668565
1361 4 18337953510285883982
13673619 4 18187924023684489865
13690498 29 17968086534913535141
13782708 43 18410847793622237746
14040222 275 18188219813160002834
14068700 675 18260265252772519452
14565420 104 9799428714582741112
15064986 266 18059572413510268144
15324884 4 17982976125081871961
15510800 12 18343292669698727950
15705408 1 17385723642467790876
15803439 3 13767922433810549585
17492 89 18263071270834592765
17686467 74 18336813240278832328
19246450 95 15841280238044800867
19303781 99 18190439727273710302
20775438 99 17610896068803581850
21307412 95 18338222792119694741
21716022 299 18262531406467875964
23559900 14 18198322010691736096
23569914 2 12758288301657846934
255183 451 18262517121253044613
2747138 104 18343298142140891850
32027 91 18267574900974432151
3862424 121 18272102578378641486
437795 150 18268153059376011206
44880168 125 17988352758685292023
484985 159 18340768122814932841
513202 73 18334850671788322679
57816373 69 18127402578797015599
6201320 77 17704072863444899856
9980921 52 17556275596076421431
999808 66 18202560653432317646

> <PUBCHEM_SHAPE_MULTIPOLES>
735.6
22.15
6.45
1.99
22.4
0.33
0.05
-37.21
0.21
-5.13
-1.7
0.96
0.09
4.3

> <PUBCHEM_SHAPE_SELFOVERLAP>
1553.821

> <PUBCHEM_SHAPE_VOLUME>
410.8

> <PUBCHEM_COORDINATE_TYPE>
2
5
10

$$$$
