86769019
  -OEChem-12032416383D

 34 36  0     1  0  0  0  0  0999 V2000
    3.5689   -1.4494   -0.0323 O   0  0  0  0  0  0  0  0  0  0  0  0
   -1.3966   -0.3981   -0.0746 N   0  0  2  0  0  0  0  0  0  0  0  0
    1.3869   -0.6283    0.2571 N   0  0  0  0  0  0  0  0  0  0  0  0
    3.0574    0.8529    0.0136 N   0  0  0  0  0  0  0  0  0  0  0  0
   -3.5883    0.6760   -0.1389 C   0  0  0  0  0  0  0  0  0  0  0  0
   -5.0761    0.4844   -0.2436 C   0  0  0  0  0  0  0  0  0  0  0  0
   -4.3783    0.2478    1.0666 C   0  0  0  0  0  0  0  0  0  0  0  0
   -2.6571   -0.2826   -0.8075 C   0  0  0  0  0  0  0  0  0  0  0  0
    0.7604    0.6618    0.4562 C   0  0  2  0  0  0  0  0  0  0  0  0
   -0.5265    0.7602   -0.3625 C   0  0  0  0  0  0  0  0  0  0  0  0
   -0.7175   -1.6646   -0.4158 C   0  0  0  0  0  0  0  0  0  0  0  0
    0.5864   -1.8298    0.3689 C   0  0  0  0  0  0  0  0  0  0  0  0
    1.8492    1.6581    0.0628 C   0  0  0  0  0  0  0  0  0  0  0  0
    2.7720   -0.5262    0.0710 C   0  0  0  0  0  0  0  0  0  0  0  0
    4.3592    1.4377   -0.2209 C   0  0  0  0  0  0  0  0  0  0  0  0
   -3.2422    1.7022   -0.1809 H   0  0  0  0  0  0  0  0  0  0  0  0
   -5.4540   -0.3797   -0.7759 H   0  0  0  0  0  0  0  0  0  0  0  0
   -5.6938    1.3698   -0.3321 H   0  0  0  0  0  0  0  0  0  0  0  0
   -4.5253    0.9751    1.8556 H   0  0  0  0  0  0  0  0  0  0  0  0
   -4.2891   -0.7751    1.4109 H   0  0  0  0  0  0  0  0  0  0  0  0
   -2.4951    0.0158   -1.8513 H   0  0  0  0  0  0  0  0  0  0  0  0
   -3.1505   -1.2632   -0.8474 H   0  0  0  0  0  0  0  0  0  0  0  0
    0.5405    0.7494    1.5284 H   0  0  0  0  0  0  0  0  0  0  0  0
   -1.0200    1.7025   -0.1016 H   0  0  0  0  0  0  0  0  0  0  0  0
   -0.2916    0.7981   -1.4350 H   0  0  0  0  0  0  0  0  0  0  0  0
   -0.5019   -1.6979   -1.4922 H   0  0  0  0  0  0  0  0  0  0  0  0
   -1.3651   -2.5182   -0.1827 H   0  0  0  0  0  0  0  0  0  0  0  0
    0.3783   -1.9840    1.4339 H   0  0  0  0  0  0  0  0  0  0  0  0
    1.1609   -2.6886    0.0077 H   0  0  0  0  0  0  0  0  0  0  0  0
    1.6887    2.0947   -0.9284 H   0  0  0  0  0  0  0  0  0  0  0  0
    1.9618    2.4575    0.8014 H   0  0  0  0  0  0  0  0  0  0  0  0
    4.5631    2.1724    0.5621 H   0  0  0  0  0  0  0  0  0  0  0  0
    4.3526    1.9291   -1.1975 H   0  0  0  0  0  0  0  0  0  0  0  0
    5.1301    0.6630   -0.2096 H   0  0  0  0  0  0  0  0  0  0  0  0
  1 14  2  0  0  0  0
  2  8  1  0  0  0  0
  2 10  1  0  0  0  0
  2 11  1  0  0  0  0
  3  9  1  0  0  0  0
  3 12  1  0  0  0  0
  3 14  1  0  0  0  0
  4 13  1  0  0  0  0
  4 14  1  0  0  0  0
  4 15  1  0  0  0  0
  5  6  1  0  0  0  0
  5  7  1  0  0  0  0
  5  8  1  0  0  0  0
  5 16  1  0  0  0  0
  6  7  1  0  0  0  0
  6 17  1  0  0  0  0
  6 18  1  0  0  0  0
  7 19  1  0  0  0  0
  7 20  1  0  0  0  0
  8 21  1  0  0  0  0
  8 22  1  0  0  0  0
  9 10  1  0  0  0  0
  9 13  1  0  0  0  0
  9 23  1  0  0  0  0
 10 24  1  0  0  0  0
 10 25  1  0  0  0  0
 11 12  1  0  0  0  0
 11 26  1  0  0  0  0
 11 27  1  0  0  0  0
 12 28  1  0  0  0  0
 12 29  1  0  0  0  0
 13 30  1  0  0  0  0
 13 31  1  0  0  0  0
 15 32  1  0  0  0  0
 15 33  1  0  0  0  0
 15 34  1  0  0  0  0
M  END
> <PUBCHEM_COMPOUND_CID>
86769019

> <PUBCHEM_CONFORMER_RMSD>
0.6

> <PUBCHEM_CONFORMER_DIVERSEORDER>
1
5
8
3
9
2
11
4
6
10
7

> <PUBCHEM_MMFF94_PARTIAL_CHARGES>
20
1 -0.57
10 0.27
11 0.27
12 0.3
13 0.3
14 0.69
15 0.3
16 0.1
17 0.1
18 0.1
19 0.1
2 -0.81
20 0.1
3 -0.66
4 -0.66
5 -0.19
6 -0.2
7 -0.2
8 0.37
9 0.3

> <PUBCHEM_EFFECTIVE_ROTOR_COUNT>
3.8

> <PUBCHEM_PHARMACOPHORE_FEATURES>
4
1 1 acceptor
1 2 cation
5 3 4 9 13 14 rings
6 2 3 9 10 11 12 rings

> <PUBCHEM_HEAVY_ATOM_COUNT>
15

> <PUBCHEM_ATOM_DEF_STEREO_COUNT>
1

> <PUBCHEM_ATOM_UDEF_STEREO_COUNT>
0

> <PUBCHEM_BOND_DEF_STEREO_COUNT>
0

> <PUBCHEM_BOND_UDEF_STEREO_COUNT>
0

> <PUBCHEM_ISOTOPIC_ATOM_COUNT>
0

> <PUBCHEM_COMPONENT_COUNT>
1

> <PUBCHEM_CACTVS_TAUTO_COUNT>
1

> <PUBCHEM_CONFORMER_ID>
052BFD7B00000001

> <PUBCHEM_MMFF94_ENERGY>
34.0387

> <PUBCHEM_FEATURE_SELFOVERLAP>
20.392

> <PUBCHEM_SHAPE_FINGERPRINT>
10219947 1 18334858303475650765
10980938 120 18412257311916030451
11471102 20 18410570673763359981
11543360 7 15625933317611795549
12236239 1 17917709089903922621
12346645 44 18412544301799489265
12644460 14 18187079538361000522
13380535 21 18336547230360664758
13705890 14 11600002163226727981
13760787 5 18410848850326539335
14289901 80 15574714660254821717
14943859 89 18343020012532273795
15196674 1 18410572907273175271
15775835 57 18412262865134567053
16945 1 18263346041060950894
17834072 33 18273208729719667759
17844478 74 17822006484940583989
18186145 218 18412541015759078996
18511873 20 18131348609421174423
19422 9 18202277026661213119
20279233 1 17530686485889648339
204376 136 18408324410505566491
20645477 56 18262232330593236228
20645477 70 18340203003327883999
212847 35 18202844335842916065
21501502 16 18267575978436658758
22854114 59 18260267451969620841
231179 274 18186793660984860269
23402539 116 18059850696792962588
23402655 69 18272367572816718109
23559900 14 16443626762214851955
25 1 18410007758306911486
293599 30 18411140272595492660
4047638 21 18411140242562025822
449060 50 18260550060385382493
449060 62 18411699880779163718
4990 188 17917999377414962359
5104073 3 18410852200248342331
522135 26 18411981347340026164
53655031 270 18200876175790563465
602551 16 16154004541907391193
633830 44 18411418384617981695
76465 3 10807394983014147156
7832392 63 18271238455937036292

> <PUBCHEM_SHAPE_MULTIPOLES>
287.88
8.86
1.7
0.78
5.15
0.41
0.05
-2.94
0.25
-1.38
-0.01
0.5
0
-0.2

> <PUBCHEM_SHAPE_SELFOVERLAP>
590.938

> <PUBCHEM_SHAPE_VOLUME>
168.9

> <PUBCHEM_COORDINATE_TYPE>
2
5
10

$$$$
