75536743
  -OEChem-12032416323D

 42 43  0     1  0  0  0  0  0999 V2000
   -1.4584    1.2761    0.0485 O   0  0  0  0  0  0  0  0  0  0  0  0
   -2.9165   -2.0053   -0.0612 O   0  0  0  0  0  0  0  0  0  0  0  0
    5.8208    0.7616    0.2589 O   0  0  0  0  0  0  0  0  0  0  0  0
    1.6395   -1.8839    0.2864 O   0  0  0  0  0  0  0  0  0  0  0  0
   -4.9784    0.3662   -0.0646 N   0  0  0  0  0  0  0  0  0  0  0  0
    0.9955    0.0257   -0.8103 N   0  0  0  0  0  0  0  0  0  0  0  0
    3.1339   -0.1125    0.1875 N   0  0  0  0  0  0  0  0  0  0  0  0
   -3.5966    0.2971    0.3821 C   0  0  1  0  0  0  0  0  0  0  0  0
   -2.7394   -0.6525   -0.4342 C   0  0  1  0  0  0  0  0  0  0  0  0
   -1.3423   -0.1490   -0.0981 C   0  0  1  0  0  0  0  0  0  0  0  0
   -2.8497    1.6082    0.2001 C   0  0  0  0  0  0  0  0  0  0  0  0
   -0.3139   -0.4729   -1.1671 C   0  0  0  0  0  0  0  0  0  0  0  0
   -5.7174    1.3873    0.6835 C   0  0  0  0  0  0  0  0  0  0  0  0
   -5.6371   -0.9358    0.0762 C   0  0  0  0  0  0  0  0  0  0  0  0
    1.9057   -0.7370   -0.0881 C   0  0  0  0  0  0  0  0  0  0  0  0
    3.4733    1.2913   -0.0860 C   0  0  0  0  0  0  0  0  0  0  0  0
    4.1502   -0.8412    0.9503 C   0  0  0  0  0  0  0  0  0  0  0  0
    4.8980    1.4114   -0.6162 C   0  0  0  0  0  0  0  0  0  0  0  0
    5.5329   -0.6347    0.3522 C   0  0  0  0  0  0  0  0  0  0  0  0
   -3.5533    0.0027    1.4415 H   0  0  0  0  0  0  0  0  0  0  0  0
   -2.9463   -0.5506   -1.5070 H   0  0  0  0  0  0  0  0  0  0  0  0
   -1.0068   -0.5503    0.8673 H   0  0  0  0  0  0  0  0  0  0  0  0
   -3.1494    2.1398   -0.7106 H   0  0  0  0  0  0  0  0  0  0  0  0
   -2.9634    2.2856    1.0521 H   0  0  0  0  0  0  0  0  0  0  0  0
   -0.5762    0.0151   -2.1124 H   0  0  0  0  0  0  0  0  0  0  0  0
   -0.2589   -1.5530   -1.3396 H   0  0  0  0  0  0  0  0  0  0  0  0
    1.2045    0.9696   -1.1014 H   0  0  0  0  0  0  0  0  0  0  0  0
   -2.7386   -2.0852    0.8913 H   0  0  0  0  0  0  0  0  0  0  0  0
   -6.7634    1.4187    0.3565 H   0  0  0  0  0  0  0  0  0  0  0  0
   -5.3208    2.3911    0.4995 H   0  0  0  0  0  0  0  0  0  0  0  0
   -5.7051    1.1979    1.7631 H   0  0  0  0  0  0  0  0  0  0  0  0
   -6.7070   -0.8490   -0.1488 H   0  0  0  0  0  0  0  0  0  0  0  0
   -5.5416   -1.3471    1.0876 H   0  0  0  0  0  0  0  0  0  0  0  0
   -5.2538   -1.6597   -0.6489 H   0  0  0  0  0  0  0  0  0  0  0  0
    3.3891    1.8132    0.8747 H   0  0  0  0  0  0  0  0  0  0  0  0
    2.7953    1.7752   -0.7866 H   0  0  0  0  0  0  0  0  0  0  0  0
    3.9163   -1.9088    1.0021 H   0  0  0  0  0  0  0  0  0  0  0  0
    4.1166   -0.4382    1.9695 H   0  0  0  0  0  0  0  0  0  0  0  0
    4.9851    0.9776   -1.6196 H   0  0  0  0  0  0  0  0  0  0  0  0
    5.1844    2.4657   -0.6836 H   0  0  0  0  0  0  0  0  0  0  0  0
    6.2924   -1.0931    0.9931 H   0  0  0  0  0  0  0  0  0  0  0  0
    5.6127   -1.0904   -0.6419 H   0  0  0  0  0  0  0  0  0  0  0  0
  1 10  1  0  0  0  0
  1 11  1  0  0  0  0
  2  9  1  0  0  0  0
  2 28  1  0  0  0  0
  3 18  1  0  0  0  0
  3 19  1  0  0  0  0
  4 15  2  0  0  0  0
  5  8  1  0  0  0  0
  5 13  1  0  0  0  0
  5 14  1  0  0  0  0
  6 12  1  0  0  0  0
  6 15  1  0  0  0  0
  6 27  1  0  0  0  0
  7 15  1  0  0  0  0
  7 16  1  0  0  0  0
  7 17  1  0  0  0  0
  8  9  1  0  0  0  0
  8 11  1  0  0  0  0
  8 20  1  0  0  0  0
  9 10  1  0  0  0  0
  9 21  1  0  0  0  0
 10 12  1  0  0  0  0
 10 22  1  0  0  0  0
 11 23  1  0  0  0  0
 11 24  1  0  0  0  0
 12 25  1  0  0  0  0
 12 26  1  0  0  0  0
 13 29  1  0  0  0  0
 13 30  1  0  0  0  0
 13 31  1  0  0  0  0
 14 32  1  0  0  0  0
 14 33  1  0  0  0  0
 14 34  1  0  0  0  0
 16 18  1  0  0  0  0
 16 35  1  0  0  0  0
 16 36  1  0  0  0  0
 17 19  1  0  0  0  0
 17 37  1  0  0  0  0
 17 38  1  0  0  0  0
 18 39  1  0  0  0  0
 18 40  1  0  0  0  0
 19 41  1  0  0  0  0
 19 42  1  0  0  0  0
M  END
> <PUBCHEM_COMPOUND_CID>
75536743

> <PUBCHEM_CONFORMER_RMSD>
0.8

> <PUBCHEM_CONFORMER_DIVERSEORDER>
1
16
22
12
38
11
5
18
14
13
37
10
34
25
15
19
8
17
39
20
24
27
21
7
32
31
35
30
23
36
26
2
29
4
33
3
28
9
6

> <PUBCHEM_MMFF94_PARTIAL_CHARGES>
21
1 -0.56
10 0.28
11 0.28
12 0.3
13 0.27
14 0.27
15 0.69
16 0.3
17 0.3
18 0.28
19 0.28
2 -0.68
27 0.37
28 0.4
3 -0.56
4 -0.57
5 -0.81
6 -0.73
7 -0.66
8 0.27
9 0.28

> <PUBCHEM_EFFECTIVE_ROTOR_COUNT>
7.2

> <PUBCHEM_PHARMACOPHORE_FEATURES>
9
1 1 acceptor
1 2 acceptor
1 2 donor
1 3 acceptor
1 4 acceptor
1 5 cation
1 6 donor
5 1 8 9 10 11 rings
6 3 7 16 17 18 19 rings

> <PUBCHEM_HEAVY_ATOM_COUNT>
19

> <PUBCHEM_ATOM_DEF_STEREO_COUNT>
3

> <PUBCHEM_ATOM_UDEF_STEREO_COUNT>
0

> <PUBCHEM_BOND_DEF_STEREO_COUNT>
0

> <PUBCHEM_BOND_UDEF_STEREO_COUNT>
0

> <PUBCHEM_ISOTOPIC_ATOM_COUNT>
0

> <PUBCHEM_COMPONENT_COUNT>
1

> <PUBCHEM_CACTVS_TAUTO_COUNT>
2

> <PUBCHEM_CONFORMER_ID>
0480996700000001

> <PUBCHEM_MMFF94_ENERGY>
42.6084

> <PUBCHEM_FEATURE_SELFOVERLAP>
45.672

> <PUBCHEM_SHAPE_FINGERPRINT>
10354089 29 18334575746525955520
10670039 82 17560255634747455792
11045977 3 17967819379035828272
11089746 13 17846769715553881353
117890 112 18272371936746187841
12107183 9 17688023115957116440
12236239 1 18408041814220443372
12251169 10 18409166593151364911
12516196 113 12757152389828418862
12596602 18 18113057142713904833
12815109 37 14273736256856566236
12916748 109 16415483748726480928
13167372 99 18340770338585449752
13288520 33 11097858493309670467
13533116 47 17603861153334053170
13668630 136 11963388518924582064
13897977 58 18343022194502390637
14251752 14 10303825254472633411
14251764 18 18333446556832225034
14341114 176 18408606946418093210
14341114 328 18410292510275071442
17834072 33 18409165532278657398
17834076 25 18342457049704461183
17980427 23 18411985776026633901
1813 80 16805892796862016438
18222031 100 15647057045300854134
19050596 39 18409445895001315102
20369508 70 11746944195961639214
20645477 56 17346876745553577877
21065198 48 18335980874387187258
21267235 1 18410017615520599918
212847 35 18273213102001779648
21652331 79 18410291415275065396
221357 26 11959730447538293827
22224240 67 17458624549507876544
23402539 116 18341325639808271717
23559900 14 17985846851536906351
26918003 58 17603588538658329393
300161 21 18408597071876855614
314173 85 15502093038073622919
34797466 226 17346327049954043788
351380 180 18410573989604856048
3545911 37 18343022177259075078
4214541 1 18409728443619733365
4325135 7 18201998846351459181
5104073 3 18335135436092758826
542803 24 17967534575259054764
54446538 1 18411698781853455720
59755656 215 18130515141411875878
67856867 119 18188495807900829821

> <PUBCHEM_SHAPE_MULTIPOLES>
352.59
14.77
1.66
0.83
1.77
0.03
0.06
-2.61
-2.61
-0.37
-0.08
0.19
0.02
-0.94

> <PUBCHEM_SHAPE_SELFOVERLAP>
709.163

> <PUBCHEM_SHAPE_VOLUME>
208.4

> <PUBCHEM_COORDINATE_TYPE>
2
5
10

$$$$
