45361678
  -OEChem-12032416143D

 65 67  0     1  0  0  0  0  0999 V2000
   -6.4580   -0.6867    0.8250 S   0  0  0  0  0  0  0  0  0  0  0  0
   -0.8121    2.3276    1.2632 O   0  0  0  0  0  0  0  0  0  0  0  0
    4.1353    2.2886   -0.7602 O   0  0  0  0  0  0  0  0  0  0  0  0
   -7.7077    0.0251    0.6412 O   0  0  0  0  0  0  0  0  0  0  0  0
   -5.7797   -0.6759    2.1068 O   0  0  0  0  0  0  0  0  0  0  0  0
   -5.3393   -0.2207   -0.3677 N   0  0  0  0  0  0  0  0  0  0  0  0
    3.5716    1.2512    1.2362 N   0  0  0  0  0  0  0  0  0  0  0  0
    6.0285   -2.0685   -0.7693 N   0  0  0  0  0  0  0  0  0  0  0  0
   -1.1366   -0.4756   -1.3085 C   0  0  1  0  0  0  0  0  0  0  0  0
   -1.5262    0.4319   -0.0939 C   0  0  2  0  0  0  0  0  0  0  0  0
   -3.0598    0.7776   -0.1223 C   0  0  1  0  0  0  0  0  0  0  0  0
   -0.5673    1.6510    0.0291 C   0  0  2  0  0  0  0  0  0  0  0  0
    0.3493   -0.8887   -1.1890 C   0  0  0  0  0  0  0  0  0  0  0  0
   -1.9875   -1.7664   -1.2678 C   0  0  0  0  0  0  0  0  0  0  0  0
    0.9231    1.2383    0.0412 C   0  0  1  0  0  0  0  0  0  0  0  0
   -3.8984   -0.5284   -0.1575 C   0  0  2  0  0  0  0  0  0  0  0  0
    1.2931    0.3038   -1.1103 C   0  0  0  0  0  0  0  0  0  0  0  0
   -3.4848   -1.4939   -1.2674 C   0  0  0  0  0  0  0  0  0  0  0  0
   -1.3487    0.2328   -2.6705 C   0  0  0  0  0  0  0  0  0  0  0  0
    1.8519    2.4588    0.0286 C   0  0  2  0  0  0  0  0  0  0  0  0
   -3.5140    1.6473    1.0614 C   0  0  0  0  0  0  0  0  0  0  0  0
    1.5945    3.3012   -1.2158 C   0  0  0  0  0  0  0  0  0  0  0  0
    3.3067    2.0057    0.1024 C   0  0  0  0  0  0  0  0  0  0  0  0
   -6.7267   -2.3874    0.3807 C   0  0  0  0  0  0  0  0  0  0  0  0
    4.8784    0.7082    1.5256 C   0  0  0  0  0  0  0  0  0  0  0  0
    5.0586   -0.6635    0.9425 C   0  0  0  0  0  0  0  0  0  0  0  0
    4.4579   -1.7744    1.5243 C   0  0  0  0  0  0  0  0  0  0  0  0
    5.8273   -0.8621   -0.1930 C   0  0  0  0  0  0  0  0  0  0  0  0
    4.6416   -3.0321    0.9607 C   0  0  0  0  0  0  0  0  0  0  0  0
    5.4288   -3.1248   -0.1759 C   0  0  0  0  0  0  0  0  0  0  0  0
   -1.3785   -0.1631    0.8218 H   0  0  0  0  0  0  0  0  0  0  0  0
   -3.2754    1.3580   -1.0282 H   0  0  0  0  0  0  0  0  0  0  0  0
   -0.8077    2.3464   -0.7768 H   0  0  0  0  0  0  0  0  0  0  0  0
    0.6382   -1.5189   -2.0400 H   0  0  0  0  0  0  0  0  0  0  0  0
    0.4908   -1.5051   -0.2909 H   0  0  0  0  0  0  0  0  0  0  0  0
   -1.7413   -2.4112   -2.1210 H   0  0  0  0  0  0  0  0  0  0  0  0
   -1.7401   -2.3430   -0.3663 H   0  0  0  0  0  0  0  0  0  0  0  0
    1.0811    0.6803    0.9739 H   0  0  0  0  0  0  0  0  0  0  0  0
   -3.7535   -1.0470    0.7978 H   0  0  0  0  0  0  0  0  0  0  0  0
    2.3069   -0.0924   -0.9808 H   0  0  0  0  0  0  0  0  0  0  0  0
    1.2896    0.8063   -2.0797 H   0  0  0  0  0  0  0  0  0  0  0  0
   -3.7941   -1.1079   -2.2463 H   0  0  0  0  0  0  0  0  0  0  0  0
   -4.0184   -2.4451   -1.1494 H   0  0  0  0  0  0  0  0  0  0  0  0
   -2.3954    0.4844   -2.8597 H   0  0  0  0  0  0  0  0  0  0  0  0
   -1.0222   -0.4122   -3.4948 H   0  0  0  0  0  0  0  0  0  0  0  0
   -0.7873    1.1679   -2.7481 H   0  0  0  0  0  0  0  0  0  0  0  0
    1.6685    3.0817    0.9136 H   0  0  0  0  0  0  0  0  0  0  0  0
   -3.1139    2.6619    0.9833 H   0  0  0  0  0  0  0  0  0  0  0  0
   -4.6011    1.7701    1.0824 H   0  0  0  0  0  0  0  0  0  0  0  0
   -3.2069    1.2117    2.0177 H   0  0  0  0  0  0  0  0  0  0  0  0
   -5.6461    0.0167   -1.3184 H   0  0  0  0  0  0  0  0  0  0  0  0
   -0.6581    1.6988    1.9887 H   0  0  0  0  0  0  0  0  0  0  0  0
    1.7776    2.7787   -2.1574 H   0  0  0  0  0  0  0  0  0  0  0  0
    2.2843    4.1556   -1.2185 H   0  0  0  0  0  0  0  0  0  0  0  0
    0.5944    3.7393   -1.2392 H   0  0  0  0  0  0  0  0  0  0  0  0
    2.8447    1.1055    1.9292 H   0  0  0  0  0  0  0  0  0  0  0  0
   -5.7908   -2.9387    0.4832 H   0  0  0  0  0  0  0  0  0  0  0  0
   -7.1009   -2.4309   -0.6438 H   0  0  0  0  0  0  0  0  0  0  0  0
   -7.4724   -2.7992    1.0644 H   0  0  0  0  0  0  0  0  0  0  0  0
    5.6467    1.3944    1.1507 H   0  0  0  0  0  0  0  0  0  0  0  0
    4.9881    0.6677    2.6153 H   0  0  0  0  0  0  0  0  0  0  0  0
    3.8445   -1.6710    2.4152 H   0  0  0  0  0  0  0  0  0  0  0  0
    6.3202   -0.0350   -0.6944 H   0  0  0  0  0  0  0  0  0  0  0  0
    4.1826   -3.9120    1.3967 H   0  0  0  0  0  0  0  0  0  0  0  0
    5.6028   -4.0831   -0.6542 H   0  0  0  0  0  0  0  0  0  0  0  0
  1  4  2  0  0  0  0
  1  5  2  0  0  0  0
  1  6  1  0  0  0  0
  1 24  1  0  0  0  0
  2 12  1  0  0  0  0
  2 52  1  0  0  0  0
  3 23  2  0  0  0  0
  6 16  1  0  0  0  0
  6 51  1  0  0  0  0
  7 23  1  0  0  0  0
  7 25  1  0  0  0  0
  7 56  1  0  0  0  0
  8 28  1  0  0  0  0
  8 30  2  0  0  0  0
  9 10  1  0  0  0  0
  9 13  1  0  0  0  0
  9 14  1  0  0  0  0
  9 19  1  0  0  0  0
 10 11  1  0  0  0  0
 10 12  1  0  0  0  0
 10 31  1  0  0  0  0
 11 16  1  0  0  0  0
 11 21  1  0  0  0  0
 11 32  1  0  0  0  0
 12 15  1  0  0  0  0
 12 33  1  0  0  0  0
 13 17  1  0  0  0  0
 13 34  1  0  0  0  0
 13 35  1  0  0  0  0
 14 18  1  0  0  0  0
 14 36  1  0  0  0  0
 14 37  1  0  0  0  0
 15 17  1  0  0  0  0
 15 20  1  0  0  0  0
 15 38  1  0  0  0  0
 16 18  1  0  0  0  0
 16 39  1  0  0  0  0
 17 40  1  0  0  0  0
 17 41  1  0  0  0  0
 18 42  1  0  0  0  0
 18 43  1  0  0  0  0
 19 44  1  0  0  0  0
 19 45  1  0  0  0  0
 19 46  1  0  0  0  0
 20 22  1  0  0  0  0
 20 23  1  0  0  0  0
 20 47  1  0  0  0  0
 21 48  1  0  0  0  0
 21 49  1  0  0  0  0
 21 50  1  0  0  0  0
 22 53  1  0  0  0  0
 22 54  1  0  0  0  0
 22 55  1  0  0  0  0
 24 57  1  0  0  0  0
 24 58  1  0  0  0  0
 24 59  1  0  0  0  0
 25 26  1  0  0  0  0
 25 60  1  0  0  0  0
 25 61  1  0  0  0  0
 26 27  1  0  0  0  0
 26 28  2  0  0  0  0
 27 29  2  0  0  0  0
 27 62  1  0  0  0  0
 28 63  1  0  0  0  0
 29 30  1  0  0  0  0
 29 64  1  0  0  0  0
 30 65  1  0  0  0  0
M  END
> <PUBCHEM_COMPOUND_CID>
45361678

> <PUBCHEM_CONFORMER_RMSD>
1.2

> <PUBCHEM_CONFORMER_DIVERSEORDER>
1
57
69
41
70
93
39
47
65
15
63
89
9
31
80
74
60
95
87
18
83
34
64
59
32
92
44
16
82
53
58
86
54
76
46
85
27
77
61
55
67
94
29
84
81
45
71
36
2
62
19
75
49
24
50
91
26
42
68
35
78
30
37
88
48
21
5
28
52
33
14
7
79
51
20
22
72
12
10
17
56
43
40
90
8
11
23
73
6
38
66
13
3
4
25

> <PUBCHEM_MMFF94_PARTIAL_CHARGES>
26
1 1.33
12 0.28
16 0.36
2 -0.68
20 0.06
23 0.57
24 0.11
25 0.44
26 -0.14
27 -0.15
28 0.16
29 -0.15
3 -0.57
30 0.16
4 -0.65
5 -0.65
51 0.42
52 0.4
56 0.37
6 -0.91
62 0.15
63 0.15
64 0.15
65 0.15
7 -0.73
8 -0.62

> <PUBCHEM_EFFECTIVE_ROTOR_COUNT>
8.6

> <PUBCHEM_PHARMACOPHORE_FEATURES>
12
1 2 acceptor
1 2 donor
1 22 hydrophobe
1 3 acceptor
1 4 acceptor
1 5 acceptor
1 6 donor
1 7 donor
1 8 acceptor
6 8 26 27 28 29 30 rings
6 9 10 11 14 16 18 rings
6 9 10 12 13 15 17 rings

> <PUBCHEM_HEAVY_ATOM_COUNT>
30

> <PUBCHEM_ATOM_DEF_STEREO_COUNT>
6

> <PUBCHEM_ATOM_UDEF_STEREO_COUNT>
1

> <PUBCHEM_BOND_DEF_STEREO_COUNT>
0

> <PUBCHEM_BOND_UDEF_STEREO_COUNT>
0

> <PUBCHEM_ISOTOPIC_ATOM_COUNT>
0

> <PUBCHEM_COMPONENT_COUNT>
1

> <PUBCHEM_CACTVS_TAUTO_COUNT>
2

> <PUBCHEM_CONFORMER_ID>
02B42A0E00000001

> <PUBCHEM_MMFF94_ENERGY>
80.5739

> <PUBCHEM_FEATURE_SELFOVERLAP>
60.929

> <PUBCHEM_SHAPE_FINGERPRINT>
10316853 100 18113337522622375738
10554248 39 18335690698471536413
10673678 19 8935004776117073257
10692045 39 16916795041302829110
10928967 22 18263349301659092706
11135609 127 9727360082495069995
11135926 11 18193261104903309756
11211813 74 10015593792238086587
117089 54 18052262791574199886
11991303 11 17100298987914275132
12422481 6 17846214397941812252
12553582 1 18265600010793067054
13150687 139 11386369202235574088
13383668 262 17902256707341851399
13533116 47 18409449223558875704
13551218 46 18343015592752489367
13617811 41 14779543491492129807
13782708 43 17894628167240950963
13785724 45 18340492175376287758
14289278 72 17059231241269266676
14341114 176 18342453742637847442
14767858 380 11674880004779974443
14955137 171 18413388726508010521
15669420 48 17168435926268108558
16728300 4 18269548356394568879
17349148 13 17846489340347320284
173720 79 17775570862104586115
17818456 19 17989485195679551872
1813 80 18040429963462618580
20554085 129 15267345102705603039
20775530 9 18198325305152314282
21033648 29 13470400094020103816
21421861 104 18343585166035987892
21792934 111 18060425673598934849
22033318 11 18198646379369312217
25147074 1 18059287790232280887
2838139 119 12391510841567646715
3117164 225 18201996586766475960
34797466 226 16081092618655309548
3680242 22 18201443605453007241
3886686 26 17552086090862889010
4144715 1 17749112231722268637
46194498 28 17385439943256533420
465052 167 18412545384400286302
474113 269 18200865276066276879
5104073 3 18131355189337745121
513202 73 18260546680641902221
5372103 7 15575864857714883774
54039377 194 18268995277173305774
56633871 153 18200869582995139526
6034566 193 11525939142117314082
86090 222 17748824129114863330
9831232 110 17894625959495970195

> <PUBCHEM_SHAPE_MULTIPOLES>
582.82
17.03
3.35
1.71
11.5
0.08
0.29
-12.45
-6.98
-4.35
0.01
0.51
-0.08
-0.53

> <PUBCHEM_SHAPE_SELFOVERLAP>
1194.706

> <PUBCHEM_SHAPE_VOLUME>
339.3

> <PUBCHEM_COORDINATE_TYPE>
2
5
10

$$$$
