25312695
  -OEChem-12032416193D

 71 75  0     1  0  0  0  0  0999 V2000
    2.6432    2.6556    3.2025 O   0  0  0  0  0  0  0  0  0  0  0  0
   -1.5942   -2.9929    2.4735 O   0  0  0  0  0  0  0  0  0  0  0  0
   -6.1409    3.3754   -0.2389 O   0  0  0  0  0  0  0  0  0  0  0  0
   -6.7966    1.2195    0.0818 O   0  0  0  0  0  0  0  0  0  0  0  0
    3.0891   -3.9274   -1.5715 O   0  0  0  0  0  0  0  0  0  0  0  0
    0.6028    1.4457   -1.2215 N   0  0  2  0  0  0  0  0  0  0  0  0
    2.8280    2.3134    0.8935 N   0  0  0  0  0  0  0  0  0  0  0  0
   -2.6218   -2.0414    0.5994 N   0  0  0  0  0  0  0  0  0  0  0  0
    1.5800    3.7233   -0.8432 C   0  0  1  0  0  0  0  0  0  0  0  0
    3.0343    1.8955   -1.5810 C   0  0  2  0  0  0  0  0  0  0  0  0
    2.7605    3.3882   -1.7455 C   0  0  0  0  0  0  0  0  0  0  0  0
    0.3472    2.8910   -1.2548 C   0  0  0  0  0  0  0  0  0  0  0  0
    1.7883    1.0908   -2.0161 C   0  0  0  0  0  0  0  0  0  0  0  0
   -2.8545   -0.1508   -0.9967 C   0  0  1  0  0  0  0  0  0  0  0  0
    1.9895    3.4874    0.6170 C   0  0  0  0  0  0  0  0  0  0  0  0
   -0.5692    0.6958   -1.6670 C   0  0  0  0  0  0  0  0  0  0  0  0
   -4.1590    0.2555   -0.2647 C   0  0  1  0  0  0  0  0  0  0  0  0
   -1.6209    0.6503   -0.5615 C   0  0  0  0  0  0  0  0  0  0  0  0
    3.4014    1.5710   -0.1448 C   0  0  0  0  0  0  0  0  0  0  0  0
   -2.6017   -1.6595   -0.8196 C   0  0  0  0  0  0  0  0  0  0  0  0
   -4.1521   -0.2071    1.2022 C   0  0  0  0  0  0  0  0  0  0  0  0
   -3.8528   -1.6997    1.3097 C   0  0  0  0  0  0  0  0  0  0  0  0
   -4.4585    1.7514   -0.3565 C   0  0  0  0  0  0  0  0  0  0  0  0
    4.2529    0.5685    0.1319 C   0  0  0  0  0  0  0  0  0  0  0  0
    3.1024    2.0330    2.2449 C   0  0  0  0  0  0  0  0  0  0  0  0
    4.5715    0.2290    1.4900 C   0  0  0  0  0  0  0  0  0  0  0  0
   -1.5837   -2.6765    1.2850 C   0  0  0  0  0  0  0  0  0  0  0  0
    4.0323    0.8999    2.5110 C   0  0  0  0  0  0  0  0  0  0  0  0
   -5.9191    2.0392   -0.1440 C   0  0  0  0  0  0  0  0  0  0  0  0
   -0.3633   -3.0036    0.5393 C   0  0  0  0  0  0  0  0  0  0  0  0
    0.6827   -2.0829    0.4759 C   0  0  0  0  0  0  0  0  0  0  0  0
   -0.2489   -4.2346   -0.1065 C   0  0  0  0  0  0  0  0  0  0  0  0
    1.8430   -2.3932   -0.2334 C   0  0  0  0  0  0  0  0  0  0  0  0
    0.9114   -4.5451   -0.8157 C   0  0  0  0  0  0  0  0  0  0  0  0
    1.9573   -3.6243   -0.8792 C   0  0  0  0  0  0  0  0  0  0  0  0
    4.1192   -2.9402   -1.5956 C   0  0  0  0  0  0  0  0  0  0  0  0
    1.3185    4.7824   -0.9611 H   0  0  0  0  0  0  0  0  0  0  0  0
    3.8669    1.6265   -2.2443 H   0  0  0  0  0  0  0  0  0  0  0  0
    3.6414    3.9827   -1.4731 H   0  0  0  0  0  0  0  0  0  0  0  0
    2.5240    3.6225   -2.7905 H   0  0  0  0  0  0  0  0  0  0  0  0
   -0.4689    3.1603   -0.5763 H   0  0  0  0  0  0  0  0  0  0  0  0
    0.0390    3.2008   -2.2628 H   0  0  0  0  0  0  0  0  0  0  0  0
    1.5989    1.2760   -3.0825 H   0  0  0  0  0  0  0  0  0  0  0  0
    2.0007    0.0208   -1.9161 H   0  0  0  0  0  0  0  0  0  0  0  0
   -3.0220    0.0337   -2.0670 H   0  0  0  0  0  0  0  0  0  0  0  0
    2.5721    4.3532    0.9605 H   0  0  0  0  0  0  0  0  0  0  0  0
    1.1049    3.4446    1.2649 H   0  0  0  0  0  0  0  0  0  0  0  0
   -0.9849    1.1160   -2.5920 H   0  0  0  0  0  0  0  0  0  0  0  0
   -0.2755   -0.3337   -1.9014 H   0  0  0  0  0  0  0  0  0  0  0  0
   -4.9697   -0.2905   -0.7699 H   0  0  0  0  0  0  0  0  0  0  0  0
   -1.1962    0.2545    0.3667 H   0  0  0  0  0  0  0  0  0  0  0  0
   -1.9216    1.6745   -0.3327 H   0  0  0  0  0  0  0  0  0  0  0  0
   -3.4067   -2.2258   -1.3051 H   0  0  0  0  0  0  0  0  0  0  0  0
   -1.6767   -1.9641   -1.3113 H   0  0  0  0  0  0  0  0  0  0  0  0
   -5.1143   -0.0030    1.6840 H   0  0  0  0  0  0  0  0  0  0  0  0
   -3.3915    0.3518    1.7622 H   0  0  0  0  0  0  0  0  0  0  0  0
   -3.7861   -1.9879    2.3637 H   0  0  0  0  0  0  0  0  0  0  0  0
   -4.6634   -2.2863    0.8614 H   0  0  0  0  0  0  0  0  0  0  0  0
   -3.8914    2.3168    0.3912 H   0  0  0  0  0  0  0  0  0  0  0  0
   -4.2018    2.1206   -1.3565 H   0  0  0  0  0  0  0  0  0  0  0  0
    4.7116   -0.0211   -0.6541 H   0  0  0  0  0  0  0  0  0  0  0  0
    5.2538   -0.5953    1.6648 H   0  0  0  0  0  0  0  0  0  0  0  0
    4.2596    0.6517    3.5409 H   0  0  0  0  0  0  0  0  0  0  0  0
   -7.0865    3.5995   -0.1047 H   0  0  0  0  0  0  0  0  0  0  0  0
    0.6130   -1.1266    0.9869 H   0  0  0  0  0  0  0  0  0  0  0  0
   -1.0582   -4.9589   -0.0639 H   0  0  0  0  0  0  0  0  0  0  0  0
    2.6198   -1.6421   -0.2360 H   0  0  0  0  0  0  0  0  0  0  0  0
    0.9946   -5.5055   -1.3170 H   0  0  0  0  0  0  0  0  0  0  0  0
    4.9434   -3.3477   -2.1903 H   0  0  0  0  0  0  0  0  0  0  0  0
    4.5145   -2.7473   -0.5927 H   0  0  0  0  0  0  0  0  0  0  0  0
    3.7866   -2.0251   -2.0967 H   0  0  0  0  0  0  0  0  0  0  0  0
  1 25  2  0  0  0  0
  2 27  2  0  0  0  0
  3 29  1  0  0  0  0
  3 64  1  0  0  0  0
  4 29  2  0  0  0  0
  5 35  1  0  0  0  0
  5 36  1  0  0  0  0
  6 12  1  0  0  0  0
  6 13  1  0  0  0  0
  6 16  1  0  0  0  0
  7 15  1  0  0  0  0
  7 19  1  0  0  0  0
  7 25  1  0  0  0  0
  8 20  1  0  0  0  0
  8 22  1  0  0  0  0
  8 27  1  0  0  0  0
  9 11  1  0  0  0  0
  9 12  1  0  0  0  0
  9 15  1  0  0  0  0
  9 37  1  0  0  0  0
 10 11  1  0  0  0  0
 10 13  1  0  0  0  0
 10 19  1  0  0  0  0
 10 38  1  0  0  0  0
 11 39  1  0  0  0  0
 11 40  1  0  0  0  0
 12 41  1  0  0  0  0
 12 42  1  0  0  0  0
 13 43  1  0  0  0  0
 13 44  1  0  0  0  0
 14 17  1  0  0  0  0
 14 18  1  0  0  0  0
 14 20  1  0  0  0  0
 14 45  1  0  0  0  0
 15 46  1  0  0  0  0
 15 47  1  0  0  0  0
 16 18  1  0  0  0  0
 16 48  1  0  0  0  0
 16 49  1  0  0  0  0
 17 21  1  0  0  0  0
 17 23  1  0  0  0  0
 17 50  1  0  0  0  0
 18 51  1  0  0  0  0
 18 52  1  0  0  0  0
 19 24  2  0  0  0  0
 20 53  1  0  0  0  0
 20 54  1  0  0  0  0
 21 22  1  0  0  0  0
 21 55  1  0  0  0  0
 21 56  1  0  0  0  0
 22 57  1  0  0  0  0
 22 58  1  0  0  0  0
 23 29  1  0  0  0  0
 23 59  1  0  0  0  0
 23 60  1  0  0  0  0
 24 26  1  0  0  0  0
 24 61  1  0  0  0  0
 25 28  1  0  0  0  0
 26 28  2  0  0  0  0
 26 62  1  0  0  0  0
 27 30  1  0  0  0  0
 28 63  1  0  0  0  0
 30 31  2  0  0  0  0
 30 32  1  0  0  0  0
 31 33  1  0  0  0  0
 31 65  1  0  0  0  0
 32 34  2  0  0  0  0
 32 66  1  0  0  0  0
 33 35  2  0  0  0  0
 33 67  1  0  0  0  0
 34 35  1  0  0  0  0
 34 68  1  0  0  0  0
 36 69  1  0  0  0  0
 36 70  1  0  0  0  0
 36 71  1  0  0  0  0
M  END
> <PUBCHEM_COMPOUND_CID>
25312695

> <PUBCHEM_CONFORMER_RMSD>
1

> <PUBCHEM_CONFORMER_DIVERSEORDER>
1
26
177
159
112
151
183
213
28
229
223
74
179
48
234
86
75
93
17
138
88
155
189
204
142
69
124
19
130
211
96
119
148
181
156
3
221
37
120
140
132
73
193
200
82
14
22
143
72
224
11
157
106
227
13
208
100
169
178
65
113
161
205
201
219
127
144
64
40
136
21
230
128
134
173
150
198
45
131
38
214
197
108
180
97
55
83
129
220
154
46
59
164
152
107
122
12
35
233
67
146
207
101
215
231
195
39
85
10
91
196
32
203
218
158
137
133
117
163
123
47
102
145
66
192
217
68
80
2
126
225
81
16
78
33
121
60
171
51
31
153
167
125
170
149
15
232
141
188
84
104
36
118
172
168
42
94
54
103
199
79
27
186
176
43
95
174
228
190
182
185
175
62
71
58
191
226
53
6
212
210
184
187
44
160
165
30
76
222
4
89
194
41
50
25
5
29
209
216
8
56
162
63
114
135
77
7
92
70
110
115
90
52
20
202
87
9
24
57
206
34
147
111
49
109
116
61
105
99
23
139
18
166
98

> <PUBCHEM_MMFF94_PARTIAL_CHARGES>
38
1 -0.57
10 0.14
12 0.27
13 0.27
15 0.3
16 0.27
19 -0.03
2 -0.57
20 0.3
22 0.3
23 0.06
24 -0.15
25 0.62
26 -0.15
27 0.54
28 -0.14
29 0.66
3 -0.65
30 0.09
31 -0.15
32 -0.15
33 -0.15
34 -0.15
35 0.08
36 0.28
4 -0.57
5 -0.36
6 -0.81
61 0.15
62 0.15
63 0.15
64 0.5
65 0.15
66 0.15
67 0.15
68 0.15
7 -0.47
8 -0.66

> <PUBCHEM_EFFECTIVE_ROTOR_COUNT>
10.2

> <PUBCHEM_PHARMACOPHORE_FEATURES>
12
1 1 acceptor
1 2 acceptor
1 3 acceptor
1 4 acceptor
1 5 acceptor
1 6 cation
3 3 4 29 anion
6 30 31 32 33 34 35 rings
6 6 9 10 11 12 13 rings
6 7 19 24 25 26 28 rings
6 7 9 10 11 15 19 rings
6 8 14 17 20 21 22 rings

> <PUBCHEM_HEAVY_ATOM_COUNT>
36

> <PUBCHEM_ATOM_DEF_STEREO_COUNT>
4

> <PUBCHEM_ATOM_UDEF_STEREO_COUNT>
0

> <PUBCHEM_BOND_DEF_STEREO_COUNT>
0

> <PUBCHEM_BOND_UDEF_STEREO_COUNT>
0

> <PUBCHEM_ISOTOPIC_ATOM_COUNT>
0

> <PUBCHEM_COMPONENT_COUNT>
1

> <PUBCHEM_CACTVS_TAUTO_COUNT>
3

> <PUBCHEM_CONFORMER_ID>
01823DB700000001

> <PUBCHEM_MMFF94_ENERGY>
96.2173

> <PUBCHEM_FEATURE_SELFOVERLAP>
62.509

> <PUBCHEM_SHAPE_FINGERPRINT>
10258939 38 14795351913395338556
10816530 23 18120941865093319504
10928967 22 16154247520960943777
11049842 53 17969811685679357637
11513181 2 18196663002000091822
12156800 1 12474604478884757982
12422481 6 18113334228344789035
12633257 1 17895177939838952373
12788726 201 17325206719905519173
13402501 40 18409449142498192726
13692114 37 18266167504658857463
13726171 33 17824288070442651492
14725015 67 17974562495087344690
150020 26 18338527442645092618
15274700 34 17900813062293049227
16110190 28 18043232717454671784
16988056 13 18196652899888363919
19304152 47 16545766251196658945
19311894 1 16318949170955888948
20764821 26 17691127453736153190
21033648 29 18128802218159743224
21133410 230 17759227511091110370
23559900 14 18336553711840542783
238918 7 18267561582075248890
3298306 158 18412830217914698433
5081480 168 17984448276677526895
5265222 85 17830763167722972164
550186 83 17312824866262692572
5895379 119 17904474461498003784
6287921 2 18341618134959680239

> <PUBCHEM_SHAPE_MULTIPOLES>
696.57
10.6
6.48
2.24
14.18
4.26
1.23
-7.99
2.2
-2.38
-1.42
-2.54
-0.63
2.46

> <PUBCHEM_SHAPE_SELFOVERLAP>
1492.466

> <PUBCHEM_SHAPE_VOLUME>
376.6

> <PUBCHEM_COORDINATE_TYPE>
2
5
10

$$$$
