26761929
  -OEChem-12032416353D

 46 50  0     1  0  0  0  0  0999 V2000
   -5.1992    0.9964   -2.6554 Cl  0  0  0  0  0  0  0  0  0  0  0  0
   -7.0636   -0.9579   -1.4341 F   0  0  0  0  0  0  0  0  0  0  0  0
   -0.4870   -1.1051    2.4243 O   0  0  0  0  0  0  0  0  0  0  0  0
    2.1437    0.1459    0.4487 N   0  0  2  0  0  0  0  0  0  0  0  0
    1.5574    3.3662   -1.3272 N   0  0  0  0  0  0  0  0  0  0  0  0
    1.1098    4.1623    0.7140 N   0  0  0  0  0  0  0  0  0  0  0  0
   -1.1193    0.1135    0.6546 N   0  0  0  0  0  0  0  0  0  0  0  0
   -1.8017   -1.4918    2.1350 N   0  0  0  0  0  0  0  0  0  0  0  0
    1.2439    0.4361    1.6065 C   0  0  1  0  0  0  0  0  0  0  0  0
    1.2465    1.9629    1.9753 C   0  0  0  0  0  0  0  0  0  0  0  0
    1.8276    0.8754   -0.7975 C   0  0  0  0  0  0  0  0  0  0  0  0
    1.5862    2.2998   -0.4813 C   0  0  0  0  0  0  0  0  0  0  0  0
    1.3044    2.8110    0.7613 C   0  0  0  0  0  0  0  0  0  0  0  0
    2.3511   -1.2760    0.1976 C   0  0  0  0  0  0  0  0  0  0  0  0
   -0.1628   -0.1571    1.5065 C   0  0  0  0  0  0  0  0  0  0  0  0
    3.7297   -1.5551   -0.3396 C   0  0  0  0  0  0  0  0  0  0  0  0
    1.2669    4.4669   -0.5594 C   0  0  0  0  0  0  0  0  0  0  0  0
    3.9568   -1.5451   -1.7159 C   0  0  0  0  0  0  0  0  0  0  0  0
    4.7796   -1.8235    0.5385 C   0  0  0  0  0  0  0  0  0  0  0  0
   -2.1045   -0.7296    1.0799 C   0  0  0  0  0  0  0  0  0  0  0  0
    5.2339   -1.8036   -2.2140 C   0  0  0  0  0  0  0  0  0  0  0  0
    6.0565   -2.0820    0.0406 C   0  0  0  0  0  0  0  0  0  0  0  0
   -3.3814   -0.7850    0.4290 C   0  0  0  0  0  0  0  0  0  0  0  0
    6.2837   -2.0721   -1.3357 C   0  0  0  0  0  0  0  0  0  0  0  0
   -3.6417    0.0358   -0.6684 C   0  0  0  0  0  0  0  0  0  0  0  0
   -4.3631   -1.6604    0.8936 C   0  0  0  0  0  0  0  0  0  0  0  0
   -4.8835   -0.0187   -1.3011 C   0  0  0  0  0  0  0  0  0  0  0  0
   -5.6050   -1.7150    0.2608 C   0  0  0  0  0  0  0  0  0  0  0  0
   -5.8651   -0.8942   -0.8366 C   0  0  0  0  0  0  0  0  0  0  0  0
    1.6999   -0.0526    2.4809 H   0  0  0  0  0  0  0  0  0  0  0  0
    2.1392    2.1798    2.5758 H   0  0  0  0  0  0  0  0  0  0  0  0
    0.3686    2.2203    2.5785 H   0  0  0  0  0  0  0  0  0  0  0  0
    0.9418    0.4560   -1.2894 H   0  0  0  0  0  0  0  0  0  0  0  0
    2.6652    0.8256   -1.4996 H   0  0  0  0  0  0  0  0  0  0  0  0
    1.5846   -1.6908   -0.4711 H   0  0  0  0  0  0  0  0  0  0  0  0
    2.2497   -1.8505    1.1289 H   0  0  0  0  0  0  0  0  0  0  0  0
    1.7140    3.3550   -2.3265 H   0  0  0  0  0  0  0  0  0  0  0  0
    1.1849    5.4548   -0.9901 H   0  0  0  0  0  0  0  0  0  0  0  0
    3.1468   -1.3507   -2.4138 H   0  0  0  0  0  0  0  0  0  0  0  0
    4.6168   -1.8320    1.6130 H   0  0  0  0  0  0  0  0  0  0  0  0
    5.4102   -1.7987   -3.2856 H   0  0  0  0  0  0  0  0  0  0  0  0
    6.8742   -2.2905    0.7244 H   0  0  0  0  0  0  0  0  0  0  0  0
    7.2780   -2.2740   -1.7234 H   0  0  0  0  0  0  0  0  0  0  0  0
   -2.8868    0.7240   -1.0433 H   0  0  0  0  0  0  0  0  0  0  0  0
   -4.1969   -2.3151    1.7454 H   0  0  0  0  0  0  0  0  0  0  0  0
   -6.3697   -2.3963    0.6220 H   0  0  0  0  0  0  0  0  0  0  0  0
  1 27  1  0  0  0  0
  2 29  1  0  0  0  0
  3  8  1  0  0  0  0
  3 15  1  0  0  0  0
  4  9  1  0  0  0  0
  4 11  1  0  0  0  0
  4 14  1  0  0  0  0
  5 12  1  0  0  0  0
  5 17  1  0  0  0  0
  5 37  1  0  0  0  0
  6 13  1  0  0  0  0
  6 17  2  0  0  0  0
  7 15  2  0  0  0  0
  7 20  1  0  0  0  0
  8 20  2  0  0  0  0
  9 10  1  0  0  0  0
  9 15  1  0  0  0  0
  9 30  1  0  0  0  0
 10 13  1  0  0  0  0
 10 31  1  0  0  0  0
 10 32  1  0  0  0  0
 11 12  1  0  0  0  0
 11 33  1  0  0  0  0
 11 34  1  0  0  0  0
 12 13  2  0  0  0  0
 14 16  1  0  0  0  0
 14 35  1  0  0  0  0
 14 36  1  0  0  0  0
 16 18  2  0  0  0  0
 16 19  1  0  0  0  0
 17 38  1  0  0  0  0
 18 21  1  0  0  0  0
 18 39  1  0  0  0  0
 19 22  2  0  0  0  0
 19 40  1  0  0  0  0
 20 23  1  0  0  0  0
 21 24  2  0  0  0  0
 21 41  1  0  0  0  0
 22 24  1  0  0  0  0
 22 42  1  0  0  0  0
 23 25  2  0  0  0  0
 23 26  1  0  0  0  0
 24 43  1  0  0  0  0
 25 27  1  0  0  0  0
 25 44  1  0  0  0  0
 26 28  2  0  0  0  0
 26 45  1  0  0  0  0
 27 29  2  0  0  0  0
 28 29  1  0  0  0  0
 28 46  1  0  0  0  0
M  END
> <PUBCHEM_COMPOUND_CID>
26761929

> <PUBCHEM_CONFORMER_RMSD>
0.8

> <PUBCHEM_CONFORMER_DIVERSEORDER>
3
63
77
73
68
20
53
75
29
31
61
72
37
27
69
40
25
49
60
32
17
65
64
74
70
62
6
50
55
56
48
26
51
78
33
76
28
58
71
36
30
42
38
35
23
45
22
57
54
47
21
59
4
15
43
34
39
66
16
44
9
1
14
67
11
10
13
41
8
52
18
12
24
46
7
5
19
2

> <PUBCHEM_MMFF94_PARTIAL_CHARGES>
39
1 -0.18
10 0.18
11 0.45
12 -0.33
13 0.05
14 0.41
15 0.3
16 -0.14
17 0.04
18 -0.15
19 -0.15
2 -0.19
20 0.46
21 -0.15
22 -0.15
23 0.05
24 -0.15
25 -0.15
26 -0.15
27 0.18
28 -0.15
29 0.19
3 -0.02
37 0.27
38 0.15
39 0.15
4 -0.81
40 0.15
41 0.15
42 0.15
43 0.15
44 0.15
45 0.15
46 0.15
5 0.03
6 -0.57
7 -0.57
8 -0.41
9 0.45

> <PUBCHEM_EFFECTIVE_ROTOR_COUNT>
4.8

> <PUBCHEM_PHARMACOPHORE_FEATURES>
9
1 4 cation
1 5 donor
3 5 6 17 cation
3 7 8 20 cation
5 3 7 8 15 20 rings
5 5 6 12 13 17 rings
6 16 18 19 21 22 24 rings
6 23 25 26 27 28 29 rings
6 4 9 10 11 12 13 rings

> <PUBCHEM_HEAVY_ATOM_COUNT>
29

> <PUBCHEM_ATOM_DEF_STEREO_COUNT>
1

> <PUBCHEM_ATOM_UDEF_STEREO_COUNT>
0

> <PUBCHEM_BOND_DEF_STEREO_COUNT>
0

> <PUBCHEM_BOND_UDEF_STEREO_COUNT>
0

> <PUBCHEM_ISOTOPIC_ATOM_COUNT>
0

> <PUBCHEM_COMPONENT_COUNT>
1

> <PUBCHEM_CACTVS_TAUTO_COUNT>
2

> <PUBCHEM_CONFORMER_ID>
01985AC900000003

> <PUBCHEM_MMFF94_ENERGY>
62.5689

> <PUBCHEM_FEATURE_SELFOVERLAP>
45.774

> <PUBCHEM_SHAPE_FINGERPRINT>
10670039 82 16732696122016061767
10815517 723 18055646014437730073
10930396 42 18265587985101183602
11115154 58 18341333288955667553
11135609 99 16845281783183691086
11331351 85 17630345063731163256
11386260 185 18337656608319910141
11445158 3 17538616240399470683
11720765 8 18410855490489196092
11763715 3 16987463974220056320
1200032 147 15430877571607093493
12166972 35 17917710214605385127
12422481 6 11671780455520681804
12788726 201 18043249029497524514
13540713 4 17752496609747300627
13782708 43 17344639137114595350
13899415 180 18341892965784942524
13911987 19 18189361046865087366
14068700 675 17989207018889409282
14347329 18 16298382444632511391
14508225 48 18337401444154351504
14556957 393 18046097933103181772
15021287 119 18270139945558789609
15183329 4 16732986388453573854
15419009 47 17914333468784568501
15775530 1 17609522744663591618
16992727 255 17533777104947381564
1813 80 18130239172482790734
18222031 100 18271533026749457006
18336668 15 17489868215471343815
18365409 1 17769946675446179081
19784866 240 17775852306800741747
20775438 99 17977929513166308647
2132832 1 18060430104971482873
21365058 113 18410017636742515301
21756936 100 10881983734602662442
23536364 44 18261391083843905925
23559900 14 18336263552366314515
249057 3 18271247123956564689
340366 18 18271519896507094903
34797466 226 18189888907241284671
376196 1 17540243676406876681
38570 142 13912327862775133058
4017518 198 17770228473378684868
4066623 53 18040428889293767524
4339292 15 18057891243700538790
437795 70 18197487429710257973
437815 12 18410573959429153175
4403749 210 10303224907885784671
44802255 64 16890920539816592868
46194498 28 18263083382578368903
5081480 168 18115889497589237637
508180 173 18187642462729968169
513532 50 18115577300410765432
5281201 14 18335698394978920921
5969126 39 18269278972262044790
613672 6 18340222807981689978
6691757 9 9437977328812137398
6823239 73 17822003246524810301
7471813 234 18131078138103515576

> <PUBCHEM_SHAPE_MULTIPOLES>
560.63
14.66
4.01
2.23
8.27
6.46
0.22
-14.89
9.53
-4.18
0.39
0.79
-0.16
2.07

> <PUBCHEM_SHAPE_SELFOVERLAP>
1234.298

> <PUBCHEM_SHAPE_VOLUME>
303.8

> <PUBCHEM_COORDINATE_TYPE>
2
5
10

$$$$
