45784117
  -OEChem-12032416253D

 67 70  0     1  0  0  0  0  0999 V2000
    3.1620    0.4339    0.7723 O   0  0  0  0  0  0  0  0  0  0  0  0
   -7.9289    1.3043   -1.0226 O   0  0  0  0  0  0  0  0  0  0  0  0
   -1.9944   -1.1544   -0.0546 N   0  0  0  0  0  0  0  0  0  0  0  0
    4.5365   -1.0260    1.7643 N   0  0  0  0  0  0  0  0  0  0  0  0
    5.2963    0.0366    1.3121 N   0  0  0  0  0  0  0  0  0  0  0  0
   -5.3427    0.2931   -0.5119 N   0  0  0  0  0  0  0  0  0  0  0  0
    4.0654    3.2055    0.0678 N   0  0  0  0  0  0  0  0  0  0  0  0
   -6.5563    1.8241    0.8210 N   0  0  0  0  0  0  0  0  0  0  0  0
    5.9875    3.7385   -0.9085 N   0  0  0  0  0  0  0  0  0  0  0  0
    0.6880   -1.6488   -1.2558 C   0  0  1  0  0  0  0  0  0  0  0  0
   -0.4543   -2.6880   -1.1333 C   0  0  1  0  0  0  0  0  0  0  0  0
    2.0160   -2.2526   -0.7741 C   0  0  0  0  0  0  0  0  0  0  0  0
    1.9432   -2.7278    0.6893 C   0  0  2  0  0  0  0  0  0  0  0  0
    0.8410   -1.1384   -2.6919 C   0  0  0  0  0  0  0  0  0  0  0  0
    0.6935   -3.5424    0.9554 C   0  0  0  0  0  0  0  0  0  0  0  0
   -0.3624   -3.5223    0.1228 C   0  0  0  0  0  0  0  0  0  0  0  0
   -1.8279   -2.0102   -1.1967 C   0  0  0  0  0  0  0  0  0  0  0  0
    2.0445   -1.5456    1.6595 C   0  0  0  0  0  0  0  0  0  0  0  0
    1.6520   -2.1264   -3.5242 C   0  0  0  0  0  0  0  0  0  0  0  0
    1.4944    0.2400   -2.7000 C   0  0  0  0  0  0  0  0  0  0  0  0
    0.7031   -4.4170    2.1781 C   0  0  0  0  0  0  0  0  0  0  0  0
    3.2979   -0.7513    1.4277 C   0  0  0  0  0  0  0  0  0  0  0  0
   -3.1330   -0.3953    0.1869 C   0  0  0  0  0  0  0  0  0  0  0  0
    4.4530    0.8639    0.7400 C   0  0  0  0  0  0  0  0  0  0  0  0
   -3.2294    0.4135    1.3138 C   0  0  0  0  0  0  0  0  0  0  0  0
   -4.2076   -0.4201   -0.6873 C   0  0  0  0  0  0  0  0  0  0  0  0
    4.8468    2.0872    0.1446 C   0  0  0  0  0  0  0  0  0  0  0  0
   -4.3813    1.1621    1.5290 C   0  0  0  0  0  0  0  0  0  0  0  0
   -5.4001    1.0677    0.5947 C   0  0  0  0  0  0  0  0  0  0  0  0
    6.0279    2.4405   -0.4644 C   0  0  0  0  0  0  0  0  0  0  0  0
    4.7924    4.1705   -0.5722 C   0  0  0  0  0  0  0  0  0  0  0  0
    2.7179    3.3662    0.5635 C   0  0  0  0  0  0  0  0  0  0  0  0
   -7.7069    1.8945    0.0297 C   0  0  0  0  0  0  0  0  0  0  0  0
   -8.7343    2.8245    0.6249 C   0  0  0  0  0  0  0  0  0  0  0  0
    0.4633   -0.7882   -0.6145 H   0  0  0  0  0  0  0  0  0  0  0  0
   -0.3995   -3.3928   -1.9726 H   0  0  0  0  0  0  0  0  0  0  0  0
    2.8564   -1.5722   -0.9356 H   0  0  0  0  0  0  0  0  0  0  0  0
    2.2508   -3.1545   -1.3562 H   0  0  0  0  0  0  0  0  0  0  0  0
    2.8143   -3.3800    0.8477 H   0  0  0  0  0  0  0  0  0  0  0  0
   -0.1394   -1.0237   -3.1650 H   0  0  0  0  0  0  0  0  0  0  0  0
   -1.2148   -4.1634    0.3395 H   0  0  0  0  0  0  0  0  0  0  0  0
   -1.9357   -1.4405   -2.1249 H   0  0  0  0  0  0  0  0  0  0  0  0
   -2.6080   -2.7830   -1.2015 H   0  0  0  0  0  0  0  0  0  0  0  0
    2.0689   -1.9029    2.6961 H   0  0  0  0  0  0  0  0  0  0  0  0
    1.1715   -0.8866    1.5809 H   0  0  0  0  0  0  0  0  0  0  0  0
    2.7184   -2.1265   -3.2751 H   0  0  0  0  0  0  0  0  0  0  0  0
    1.5939   -1.8384   -4.5812 H   0  0  0  0  0  0  0  0  0  0  0  0
    1.2664   -3.1483   -3.4616 H   0  0  0  0  0  0  0  0  0  0  0  0
    2.5051    0.2243   -2.2807 H   0  0  0  0  0  0  0  0  0  0  0  0
    0.9006    0.9590   -2.1254 H   0  0  0  0  0  0  0  0  0  0  0  0
    1.5700    0.6213   -3.7244 H   0  0  0  0  0  0  0  0  0  0  0  0
    0.7588   -3.8115    3.0876 H   0  0  0  0  0  0  0  0  0  0  0  0
   -0.1982   -5.0352    2.2497 H   0  0  0  0  0  0  0  0  0  0  0  0
    1.5640   -5.0929    2.1552 H   0  0  0  0  0  0  0  0  0  0  0  0
   -1.2664   -1.1103    0.6503 H   0  0  0  0  0  0  0  0  0  0  0  0
   -2.4145    0.4690    2.0308 H   0  0  0  0  0  0  0  0  0  0  0  0
   -4.2168   -1.0231   -1.5891 H   0  0  0  0  0  0  0  0  0  0  0  0
   -4.4609    1.7945    2.4073 H   0  0  0  0  0  0  0  0  0  0  0  0
    6.9086    1.8308   -0.6093 H   0  0  0  0  0  0  0  0  0  0  0  0
    4.4051    5.1616   -0.7659 H   0  0  0  0  0  0  0  0  0  0  0  0
   -6.5504    2.3890    1.6679 H   0  0  0  0  0  0  0  0  0  0  0  0
    2.4283    4.4178    0.4891 H   0  0  0  0  0  0  0  0  0  0  0  0
    2.6863    3.0559    1.6109 H   0  0  0  0  0  0  0  0  0  0  0  0
    2.0486    2.7567   -0.0486 H   0  0  0  0  0  0  0  0  0  0  0  0
   -9.6105    2.8749   -0.0274 H   0  0  0  0  0  0  0  0  0  0  0  0
   -9.0430    2.4547    1.6067 H   0  0  0  0  0  0  0  0  0  0  0  0
   -8.3116    3.8278    0.7280 H   0  0  0  0  0  0  0  0  0  0  0  0
  1 22  1  0  0  0  0
  1 24  1  0  0  0  0
  2 33  2  0  0  0  0
  3 17  1  0  0  0  0
  3 23  1  0  0  0  0
  3 55  1  0  0  0  0
  4  5  1  0  0  0  0
  4 22  2  0  0  0  0
  5 24  2  0  0  0  0
  6 26  1  0  0  0  0
  6 29  2  0  0  0  0
  7 27  1  0  0  0  0
  7 31  1  0  0  0  0
  7 32  1  0  0  0  0
  8 29  1  0  0  0  0
  8 33  1  0  0  0  0
  8 61  1  0  0  0  0
  9 30  1  0  0  0  0
  9 31  2  0  0  0  0
 10 11  1  0  0  0  0
 10 12  1  0  0  0  0
 10 14  1  0  0  0  0
 10 35  1  0  0  0  0
 11 16  1  0  0  0  0
 11 17  1  0  0  0  0
 11 36  1  0  0  0  0
 12 13  1  0  0  0  0
 12 37  1  0  0  0  0
 12 38  1  0  0  0  0
 13 15  1  0  0  0  0
 13 18  1  0  0  0  0
 13 39  1  0  0  0  0
 14 19  1  0  0  0  0
 14 20  1  0  0  0  0
 14 40  1  0  0  0  0
 15 16  2  0  0  0  0
 15 21  1  0  0  0  0
 16 41  1  0  0  0  0
 17 42  1  0  0  0  0
 17 43  1  0  0  0  0
 18 22  1  0  0  0  0
 18 44  1  0  0  0  0
 18 45  1  0  0  0  0
 19 46  1  0  0  0  0
 19 47  1  0  0  0  0
 19 48  1  0  0  0  0
 20 49  1  0  0  0  0
 20 50  1  0  0  0  0
 20 51  1  0  0  0  0
 21 52  1  0  0  0  0
 21 53  1  0  0  0  0
 21 54  1  0  0  0  0
 23 25  1  0  0  0  0
 23 26  2  0  0  0  0
 24 27  1  0  0  0  0
 25 28  2  0  0  0  0
 25 56  1  0  0  0  0
 26 57  1  0  0  0  0
 27 30  2  0  0  0  0
 28 29  1  0  0  0  0
 28 58  1  0  0  0  0
 30 59  1  0  0  0  0
 31 60  1  0  0  0  0
 32 62  1  0  0  0  0
 32 63  1  0  0  0  0
 32 64  1  0  0  0  0
 33 34  1  0  0  0  0
 34 65  1  0  0  0  0
 34 66  1  0  0  0  0
 34 67  1  0  0  0  0
M  END
> <PUBCHEM_COMPOUND_CID>
45784117

> <PUBCHEM_CONFORMER_RMSD>
1.4

> <PUBCHEM_CONFORMER_DIVERSEORDER>
1
10
42
22
64
75
31
55
105
28
82
50
54
49
14
3
101
89
59
35
48
18
85
63
53
6
78
71
60
12
51
46
37
92
61
38
86
99
69
65
45
72
21
56
66
19
41
16
84
70
47
58
104
74
91
103
13
97
40
67
62
4
80
96
68
90
106
100
29
52
94
8
43
102
17
76
27
95
77
7
5
79
87
23
11
36
93
88
98
26
44
83
73
57
25
2
34
39
24
30
81
20
15
33
32
9

> <PUBCHEM_MMFF94_PARTIAL_CHARGES>
37
1 -0.28
11 0.14
13 0.14
15 -0.28
16 -0.29
17 0.37
18 0.18
2 -0.57
21 0.14
22 0.3
23 0.1
24 0.48
25 -0.15
26 0.16
27 -0.15
28 -0.15
29 0.43
3 -0.87
30 0.08
31 0.04
32 0.26
33 0.57
34 0.06
4 -0.34
41 0.15
5 -0.34
55 0.4
56 0.15
57 0.15
58 0.15
59 0.15
6 -0.62
60 0.15
61 0.37
7 0.05
8 -0.55
9 -0.57

> <PUBCHEM_EFFECTIVE_ROTOR_COUNT>
9.8

> <PUBCHEM_PHARMACOPHORE_FEATURES>
10
1 2 acceptor
1 3 cation
1 3 donor
1 8 donor
3 14 19 20 hydrophobe
3 7 9 31 cation
5 1 4 5 22 24 rings
5 7 9 27 30 31 rings
6 10 11 12 13 15 16 rings
6 6 23 25 26 28 29 rings

> <PUBCHEM_HEAVY_ATOM_COUNT>
34

> <PUBCHEM_ATOM_DEF_STEREO_COUNT>
3

> <PUBCHEM_ATOM_UDEF_STEREO_COUNT>
0

> <PUBCHEM_BOND_DEF_STEREO_COUNT>
0

> <PUBCHEM_BOND_UDEF_STEREO_COUNT>
0

> <PUBCHEM_ISOTOPIC_ATOM_COUNT>
0

> <PUBCHEM_COMPONENT_COUNT>
1

> <PUBCHEM_CACTVS_TAUTO_COUNT>
3

> <PUBCHEM_CONFORMER_ID>
02BA9C3500000001

> <PUBCHEM_MMFF94_ENERGY>
73.8439

> <PUBCHEM_FEATURE_SELFOVERLAP>
50.746

> <PUBCHEM_SHAPE_FINGERPRINT>
10693767 8 10519987066981227279
11227150 75 11845954750092543580
11273773 38 18411698807227919816
11505856 67 18051967318786888167
11578080 2 17199147552957875382
12047536 79 15285357319329215735
12104220 4 18043262425385275732
14117953 113 18343302527049786828
14251764 75 18336263539080771697
14705955 166 17024295341207086629
15163728 17 17845665857778229702
15198563 99 17338430529052729999
15475509 35 11025805305333221029
16096371 109 18114177476412099907
21223535 225 17910957169614126556
21716022 299 14763238717705328830
27425 322 18410012151911294911
3411729 13 18341896268725348749
3472631 163 18343018887372447535
397830 11 18261121755931338843
4112364 45 18261112963537177797
44802255 64 16985475134148522116
469060 322 15143467693223167994
5109719 28 18341344336012213297
5951187 136 18342184319075606215
70251023 43 10303802199220778443
7970288 3 9367347028914604537
9849439 229 18335709364098691183

> <PUBCHEM_SHAPE_MULTIPOLES>
653.1
17.98
5.58
2.35
37.04
0.53
1.65
27.67
-2.76
-6.04
-0.76
-1.68
-1.99
-1.85

> <PUBCHEM_SHAPE_SELFOVERLAP>
1387.9

> <PUBCHEM_SHAPE_VOLUME>
365.1

> <PUBCHEM_COORDINATE_TYPE>
2
5
10

$$$$
