26742374
  -OEChem-12032416373D

 59 62  0     1  0  0  0  0  0999 V2000
   -6.3294    0.1617   -1.7224 S   0  0  0  0  0  0  0  0  0  0  0  0
   -4.5299    2.6604   -1.2878 O   0  0  0  0  0  0  0  0  0  0  0  0
   -5.9776   -2.3105    1.2556 O   0  0  0  0  0  0  0  0  0  0  0  0
   -7.7244   -1.9003   -0.1392 O   0  0  0  0  0  0  0  0  0  0  0  0
   -0.9183    2.1524    1.5246 N   0  0  2  0  0  0  0  0  0  0  0  0
   -2.7554    1.1916   -1.6110 N   0  0  0  0  0  0  0  0  0  0  0  0
    1.3514   -1.6212    0.3288 N   0  0  0  0  0  0  0  0  0  0  0  0
    3.5175   -1.7885   -0.7139 N   0  0  0  0  0  0  0  0  0  0  0  0
   -0.6526   -0.3990    1.9746 C   0  0  2  0  0  0  0  0  0  0  0  0
    0.7368    0.2633    1.7618 C   0  0  2  0  0  0  0  0  0  0  0  0
   -1.8294    1.3822    0.6375 C   0  0  2  0  0  0  0  0  0  0  0  0
   -1.5399   -0.1307    0.7407 C   0  0  0  0  0  0  0  0  0  0  0  0
   -1.3103    0.3208    3.1715 C   0  0  0  0  0  0  0  0  0  0  0  0
    0.4865    1.7281    1.3023 C   0  0  0  0  0  0  0  0  0  0  0  0
   -1.2795    1.8399    2.9282 C   0  0  0  0  0  0  0  0  0  0  0  0
   -1.7856    1.8737   -0.8109 C   0  0  0  0  0  0  0  0  0  0  0  0
    1.7472   -0.4543    0.8783 C   0  0  0  0  0  0  0  0  0  0  0  0
    2.9947    0.1018    0.6813 C   0  0  0  0  0  0  0  0  0  0  0  0
    3.8470   -0.6166   -0.1323 C   0  0  0  0  0  0  0  0  0  0  0  0
   -4.0627    1.6397   -1.7899 C   0  0  0  0  0  0  0  0  0  0  0  0
    2.2728   -2.2263   -0.4448 C   0  0  0  0  0  0  0  0  0  0  0  0
    5.1809   -0.1439   -0.4166 C   0  0  0  0  0  0  0  0  0  0  0  0
   -4.8951    0.7325   -2.6651 C   0  0  0  0  0  0  0  0  0  0  0  0
    1.8726   -3.5204   -1.0685 C   0  0  0  0  0  0  0  0  0  0  0  0
    5.3651    1.0879   -1.0446 C   0  0  0  0  0  0  0  0  0  0  0  0
    6.2855   -0.9187   -0.0634 C   0  0  0  0  0  0  0  0  0  0  0  0
    6.6540    1.5450   -1.3195 C   0  0  0  0  0  0  0  0  0  0  0  0
    7.5745   -0.4618   -0.3382 C   0  0  0  0  0  0  0  0  0  0  0  0
   -5.5235   -1.1497   -0.7735 C   0  0  0  0  0  0  0  0  0  0  0  0
    7.7588    0.7700   -0.9663 C   0  0  0  0  0  0  0  0  0  0  0  0
   -6.5319   -1.8090    0.1229 C   0  0  0  0  0  0  0  0  0  0  0  0
   -0.5702   -1.4729    2.1728 H   0  0  0  0  0  0  0  0  0  0  0  0
    1.2165    0.2999    2.7523 H   0  0  0  0  0  0  0  0  0  0  0  0
   -2.8581    1.5533    0.9888 H   0  0  0  0  0  0  0  0  0  0  0  0
   -1.0481   -0.5124   -0.1609 H   0  0  0  0  0  0  0  0  0  0  0  0
   -2.4846   -0.6775    0.8456 H   0  0  0  0  0  0  0  0  0  0  0  0
   -0.7798    0.0819    4.1006 H   0  0  0  0  0  0  0  0  0  0  0  0
   -2.3450   -0.0229    3.2904 H   0  0  0  0  0  0  0  0  0  0  0  0
    1.1510    2.3994    1.8628 H   0  0  0  0  0  0  0  0  0  0  0  0
    0.7581    1.8782    0.2511 H   0  0  0  0  0  0  0  0  0  0  0  0
   -2.2567    2.2758    3.1698 H   0  0  0  0  0  0  0  0  0  0  0  0
   -0.5670    2.3201    3.6111 H   0  0  0  0  0  0  0  0  0  0  0  0
   -0.8114    1.6943   -1.2765 H   0  0  0  0  0  0  0  0  0  0  0  0
   -1.9839    2.9510   -0.8520 H   0  0  0  0  0  0  0  0  0  0  0  0
   -2.4659    0.3292   -2.0628 H   0  0  0  0  0  0  0  0  0  0  0  0
    3.2867    1.0359    1.1465 H   0  0  0  0  0  0  0  0  0  0  0  0
   -4.3262   -0.1166   -3.0542 H   0  0  0  0  0  0  0  0  0  0  0  0
   -5.2409    1.3205   -3.5212 H   0  0  0  0  0  0  0  0  0  0  0  0
    2.1747   -4.3503   -0.4231 H   0  0  0  0  0  0  0  0  0  0  0  0
    0.7885   -3.5649   -1.2126 H   0  0  0  0  0  0  0  0  0  0  0  0
    2.3499   -3.6433   -2.0458 H   0  0  0  0  0  0  0  0  0  0  0  0
    4.5174    1.7051   -1.3332 H   0  0  0  0  0  0  0  0  0  0  0  0
    6.1623   -1.8799    0.4300 H   0  0  0  0  0  0  0  0  0  0  0  0
    6.7976    2.5035   -1.8096 H   0  0  0  0  0  0  0  0  0  0  0  0
    8.4348   -1.0646   -0.0626 H   0  0  0  0  0  0  0  0  0  0  0  0
   -4.7386   -0.7058   -0.1557 H   0  0  0  0  0  0  0  0  0  0  0  0
   -5.0970   -1.9069   -1.4369 H   0  0  0  0  0  0  0  0  0  0  0  0
    8.7624    1.1257   -1.1803 H   0  0  0  0  0  0  0  0  0  0  0  0
   -6.6452   -2.7441    1.8289 H   0  0  0  0  0  0  0  0  0  0  0  0
  1 23  1  0  0  0  0
  1 29  1  0  0  0  0
  2 20  2  0  0  0  0
  3 31  1  0  0  0  0
  3 59  1  0  0  0  0
  4 31  2  0  0  0  0
  5 11  1  0  0  0  0
  5 14  1  0  0  0  0
  5 15  1  0  0  0  0
  6 16  1  0  0  0  0
  6 20  1  0  0  0  0
  6 45  1  0  0  0  0
  7 17  2  0  0  0  0
  7 21  1  0  0  0  0
  8 19  1  0  0  0  0
  8 21  2  0  0  0  0
  9 10  1  0  0  0  0
  9 12  1  0  0  0  0
  9 13  1  0  0  0  0
  9 32  1  0  0  0  0
 10 14  1  0  0  0  0
 10 17  1  0  0  0  0
 10 33  1  0  0  0  0
 11 12  1  0  0  0  0
 11 16  1  0  0  0  0
 11 34  1  0  0  0  0
 12 35  1  0  0  0  0
 12 36  1  0  0  0  0
 13 15  1  0  0  0  0
 13 37  1  0  0  0  0
 13 38  1  0  0  0  0
 14 39  1  0  0  0  0
 14 40  1  0  0  0  0
 15 41  1  0  0  0  0
 15 42  1  0  0  0  0
 16 43  1  0  0  0  0
 16 44  1  0  0  0  0
 17 18  1  0  0  0  0
 18 19  2  0  0  0  0
 18 46  1  0  0  0  0
 19 22  1  0  0  0  0
 20 23  1  0  0  0  0
 21 24  1  0  0  0  0
 22 25  2  0  0  0  0
 22 26  1  0  0  0  0
 23 47  1  0  0  0  0
 23 48  1  0  0  0  0
 24 49  1  0  0  0  0
 24 50  1  0  0  0  0
 24 51  1  0  0  0  0
 25 27  1  0  0  0  0
 25 52  1  0  0  0  0
 26 28  2  0  0  0  0
 26 53  1  0  0  0  0
 27 30  2  0  0  0  0
 27 54  1  0  0  0  0
 28 30  1  0  0  0  0
 28 55  1  0  0  0  0
 29 31  1  0  0  0  0
 29 56  1  0  0  0  0
 29 57  1  0  0  0  0
 30 58  1  0  0  0  0
M  END
> <PUBCHEM_COMPOUND_CID>
26742374

> <PUBCHEM_CONFORMER_RMSD>
1

> <PUBCHEM_CONFORMER_DIVERSEORDER>
1
18
39
66
13
29
46
55
15
49
64
43
14
47
37
31
44
40
41
42
25
17
54
33
8
32
19
24
10
22
57
52
23
5
3
30
56
58
50
26
12
45
21
65
6
48
53
61
27
4
34
11
28
38
59
36
16
60
9
2
20
7
35
62
51
63

> <PUBCHEM_MMFF94_PARTIAL_CHARGES>
35
1 -0.46
10 0.14
11 0.27
14 0.27
15 0.27
16 0.3
17 0.17
18 -0.15
19 0.31
2 -0.57
20 0.57
21 0.48
23 0.29
24 0.14
25 -0.15
26 -0.15
27 -0.15
28 -0.15
29 0.29
3 -0.65
30 -0.15
31 0.66
4 -0.57
45 0.37
46 0.15
5 -0.81
52 0.15
53 0.15
54 0.15
55 0.15
58 0.15
59 0.5
6 -0.73
7 -0.62
8 -0.62

> <PUBCHEM_EFFECTIVE_ROTOR_COUNT>
10.2

> <PUBCHEM_PHARMACOPHORE_FEATURES>
11
1 2 acceptor
1 3 acceptor
1 4 acceptor
1 5 cation
1 6 donor
1 7 acceptor
3 3 4 31 anion
3 7 8 21 cation
6 22 25 26 27 28 30 rings
6 7 8 17 18 19 21 rings
8 5 9 10 11 12 13 14 15 rings

> <PUBCHEM_HEAVY_ATOM_COUNT>
31

> <PUBCHEM_ATOM_DEF_STEREO_COUNT>
3

> <PUBCHEM_ATOM_UDEF_STEREO_COUNT>
0

> <PUBCHEM_BOND_DEF_STEREO_COUNT>
0

> <PUBCHEM_BOND_UDEF_STEREO_COUNT>
0

> <PUBCHEM_ISOTOPIC_ATOM_COUNT>
0

> <PUBCHEM_COMPONENT_COUNT>
1

> <PUBCHEM_CACTVS_TAUTO_COUNT>
2

> <PUBCHEM_CONFORMER_ID>
01980E6600000001

> <PUBCHEM_MMFF94_ENERGY>
80.6472

> <PUBCHEM_FEATURE_SELFOVERLAP>
55.879

> <PUBCHEM_SHAPE_FINGERPRINT>
10076449 9 18272091638405821923
10190108 129 16200163100587320926
10577160 103 17531817989880077428
10794284 68 16772976768990921777
11135609 12 13398632753882627752
11146851 88 12179846078760765295
11374522 165 11170727539360911935
11478447 183 17168135781375102031
11672396 43 18199744744589284070
11961588 58 17240196629906073888
12373685 5 16950555576663035458
12633257 1 10665529395786717056
12788726 201 16916495935564040991
13103583 49 15267050489629389309
13540713 5 17557429782336661562
13726171 33 17750224821736308573
13911987 19 18412554210837998828
13914758 101 16732699463521411482
14040221 97 17766550636478762280
14767858 380 18131348601221513236
15142383 8 9223232949420053814
15361156 5 18339347610174794421
15537594 2 17489575749863207767
15669420 48 18040154041756873239
19304144 158 18263067856287873372
208703 8 15697707216902940959
21403212 168 11530753821281801240
21591331 117 16630526254129736097
22440779 20 17703786986586420313
25269216 80 17895185624611254391
2838139 119 16370723695279903852
4098825 35 18187925041001141891
4366758 6 14345788366405971433
437815 12 14548723019847215693
46194498 28 18262793094771962861
57366028 249 17844813784128899072
5912855 24 17416414160188200011
6086070 43 8141797236695764359
6371009 1 13840263667557185799
6691757 9 15140970542980575536

> <PUBCHEM_SHAPE_MULTIPOLES>
604.28
19.9
2.77
2.52
5.02
1.25
-0.6
6
11.63
-1.57
-0.2
-3.29
-1.47
0.67

> <PUBCHEM_SHAPE_SELFOVERLAP>
1274.515

> <PUBCHEM_SHAPE_VOLUME>
340.3

> <PUBCHEM_COORDINATE_TYPE>
2
5
10

$$$$
