11882969
  -OEChem-12032416123D

 71 74  0     1  0  0  0  0  0999 V2000
   -0.0158   -2.8586    0.5052 S   0  0  0  0  0  0  0  0  0  0  0  0
    7.0686    0.2040   -0.9291 O   0  0  0  0  0  0  0  0  0  0  0  0
    7.0151   -1.5373    0.7169 O   0  0  0  0  0  0  0  0  0  0  0  0
   -0.7738    2.0891   -1.3630 O   0  0  0  0  0  0  0  0  0  0  0  0
   -3.7435   -0.0692    0.1766 O   0  0  0  0  0  0  0  0  0  0  0  0
   -0.7893   -0.4142    0.1597 N   0  0  0  0  0  0  0  0  0  0  0  0
   -2.5161   -2.0707    0.4483 N   0  0  0  0  0  0  0  0  0  0  0  0
   -1.0485    3.6657    0.3223 N   0  0  0  0  0  0  0  0  0  0  0  0
    2.9151    0.6440    0.3209 C   0  0  2  0  0  0  0  0  0  0  0  0
    3.4169   -0.7326   -0.3024 C   0  0  1  0  0  0  0  0  0  0  0  0
    4.9764   -0.9553   -0.3839 C   0  0  1  0  0  0  0  0  0  0  0  0
    1.3837    0.8422   -0.0907 C   0  0  1  0  0  0  0  0  0  0  0  0
    3.7380    1.8128   -0.2804 C   0  0  0  0  0  0  0  0  0  0  0  0
    5.6468    0.3230   -0.9625 C   0  0  1  0  0  0  0  0  0  0  0  0
    2.6410   -1.9433    0.2935 C   0  0  0  0  0  0  0  0  0  0  0  0
    5.2439    1.5974   -0.2290 C   0  0  0  0  0  0  0  0  0  0  0  0
    3.0435    0.6878    1.8635 C   0  0  0  0  0  0  0  0  0  0  0  0
    0.5931   -0.4203    0.1384 C   0  0  0  0  0  0  0  0  0  0  0  0
    5.6354   -1.3664    0.9513 C   0  0  0  0  0  0  0  0  0  0  0  0
    5.2713   -2.1196   -1.3715 C   0  0  0  0  0  0  0  0  0  0  0  0
    1.1764   -1.6617    0.2901 C   0  0  0  0  0  0  0  0  0  0  0  0
    0.7021    2.0567    0.5540 C   0  0  0  0  0  0  0  0  0  0  0  0
   -0.4415    2.5766   -0.2860 C   0  0  0  0  0  0  0  0  0  0  0  0
   -1.2187   -1.6423    0.3539 C   0  0  0  0  0  0  0  0  0  0  0  0
   -4.9213   -2.1023    0.5061 C   0  0  0  0  0  0  0  0  0  0  0  0
   -3.6739   -1.2803    0.3567 C   0  0  0  0  0  0  0  0  0  0  0  0
   -2.1702    4.3695   -0.2563 C   0  0  0  0  0  0  0  0  0  0  0  0
   -6.0318   -1.2976    1.1844 C   0  0  0  0  0  0  0  0  0  0  0  0
   -5.3447   -2.6681   -0.8510 C   0  0  0  0  0  0  0  0  0  0  0  0
   -6.6990   -0.2812    0.2581 C   0  0  0  0  0  0  0  0  0  0  0  0
   -6.0032   -1.6270   -1.7547 C   0  0  0  0  0  0  0  0  0  0  0  0
   -7.1538   -0.9175   -1.0501 C   0  0  0  0  0  0  0  0  0  0  0  0
   -3.4392    3.7863    0.1782 C   0  0  0  0  0  0  0  0  0  0  0  0
   -4.4829    3.3103    0.5323 C   0  0  0  0  0  0  0  0  0  0  0  0
    3.1002   -0.6757   -1.3585 H   0  0  0  0  0  0  0  0  0  0  0  0
    1.3856    0.9829   -1.1821 H   0  0  0  0  0  0  0  0  0  0  0  0
    3.4507    1.9626   -1.3296 H   0  0  0  0  0  0  0  0  0  0  0  0
    3.5131    2.7534    0.2348 H   0  0  0  0  0  0  0  0  0  0  0  0
    5.3645    0.4259   -2.0188 H   0  0  0  0  0  0  0  0  0  0  0  0
    2.9629   -2.1478    1.3201 H   0  0  0  0  0  0  0  0  0  0  0  0
    2.8356   -2.8437   -0.2986 H   0  0  0  0  0  0  0  0  0  0  0  0
    5.6094    1.5829    0.8037 H   0  0  0  0  0  0  0  0  0  0  0  0
    5.7452    2.4561   -0.6940 H   0  0  0  0  0  0  0  0  0  0  0  0
    2.4819   -0.1115    2.3548 H   0  0  0  0  0  0  0  0  0  0  0  0
    4.0741    0.6272    2.2066 H   0  0  0  0  0  0  0  0  0  0  0  0
    2.6641    1.6336    2.2659 H   0  0  0  0  0  0  0  0  0  0  0  0
    5.5335   -0.6117    1.7269 H   0  0  0  0  0  0  0  0  0  0  0  0
    5.2328   -2.3107    1.3302 H   0  0  0  0  0  0  0  0  0  0  0  0
    4.7555   -1.9642   -2.3261 H   0  0  0  0  0  0  0  0  0  0  0  0
    4.9450   -3.0854   -0.9720 H   0  0  0  0  0  0  0  0  0  0  0  0
    6.3387   -2.2119   -1.6017 H   0  0  0  0  0  0  0  0  0  0  0  0
    0.3213    1.8140    1.5541 H   0  0  0  0  0  0  0  0  0  0  0  0
    1.4017    2.8920    0.6594 H   0  0  0  0  0  0  0  0  0  0  0  0
    7.4409    1.0020   -1.3415 H   0  0  0  0  0  0  0  0  0  0  0  0
    7.4211   -1.8054    1.5587 H   0  0  0  0  0  0  0  0  0  0  0  0
   -2.6229   -3.0713    0.5937 H   0  0  0  0  0  0  0  0  0  0  0  0
   -0.7078    3.9835    1.2252 H   0  0  0  0  0  0  0  0  0  0  0  0
   -4.6878   -2.9458    1.1701 H   0  0  0  0  0  0  0  0  0  0  0  0
   -2.0884    4.3402   -1.3478 H   0  0  0  0  0  0  0  0  0  0  0  0
   -2.0967    5.4139    0.0625 H   0  0  0  0  0  0  0  0  0  0  0  0
   -6.8008   -1.9966    1.5388 H   0  0  0  0  0  0  0  0  0  0  0  0
   -5.6479   -0.7808    2.0725 H   0  0  0  0  0  0  0  0  0  0  0  0
   -4.4881   -3.1087   -1.3752 H   0  0  0  0  0  0  0  0  0  0  0  0
   -6.0601   -3.4834   -0.6821 H   0  0  0  0  0  0  0  0  0  0  0  0
   -7.5682    0.1498    0.7692 H   0  0  0  0  0  0  0  0  0  0  0  0
   -6.0314    0.5576    0.0430 H   0  0  0  0  0  0  0  0  0  0  0  0
   -5.2582   -0.8895   -2.0767 H   0  0  0  0  0  0  0  0  0  0  0  0
   -6.3753   -2.1154   -2.6626 H   0  0  0  0  0  0  0  0  0  0  0  0
   -7.9579   -1.6358   -0.8480 H   0  0  0  0  0  0  0  0  0  0  0  0
   -7.5719   -0.1479   -1.7087 H   0  0  0  0  0  0  0  0  0  0  0  0
   -5.4092    2.8925    0.8504 H   0  0  0  0  0  0  0  0  0  0  0  0
  1 21  1  0  0  0  0
  1 24  1  0  0  0  0
  2 14  1  0  0  0  0
  2 54  1  0  0  0  0
  3 19  1  0  0  0  0
  3 55  1  0  0  0  0
  4 23  2  0  0  0  0
  5 26  2  0  0  0  0
  6 18  1  0  0  0  0
  6 24  2  0  0  0  0
  7 24  1  0  0  0  0
  7 26  1  0  0  0  0
  7 56  1  0  0  0  0
  8 23  1  0  0  0  0
  8 27  1  0  0  0  0
  8 57  1  0  0  0  0
  9 10  1  0  0  0  0
  9 12  1  0  0  0  0
  9 13  1  0  0  0  0
  9 17  1  0  0  0  0
 10 11  1  0  0  0  0
 10 15  1  0  0  0  0
 10 35  1  0  0  0  0
 11 14  1  0  0  0  0
 11 19  1  0  0  0  0
 11 20  1  0  0  0  0
 12 18  1  0  0  0  0
 12 22  1  0  0  0  0
 12 36  1  0  0  0  0
 13 16  1  0  0  0  0
 13 37  1  0  0  0  0
 13 38  1  0  0  0  0
 14 16  1  0  0  0  0
 14 39  1  0  0  0  0
 15 21  1  0  0  0  0
 15 40  1  0  0  0  0
 15 41  1  0  0  0  0
 16 42  1  0  0  0  0
 16 43  1  0  0  0  0
 17 44  1  0  0  0  0
 17 45  1  0  0  0  0
 17 46  1  0  0  0  0
 18 21  2  0  0  0  0
 19 47  1  0  0  0  0
 19 48  1  0  0  0  0
 20 49  1  0  0  0  0
 20 50  1  0  0  0  0
 20 51  1  0  0  0  0
 22 23  1  0  0  0  0
 22 52  1  0  0  0  0
 22 53  1  0  0  0  0
 25 26  1  0  0  0  0
 25 28  1  0  0  0  0
 25 29  1  0  0  0  0
 25 58  1  0  0  0  0
 27 33  1  0  0  0  0
 27 59  1  0  0  0  0
 27 60  1  0  0  0  0
 28 30  1  0  0  0  0
 28 61  1  0  0  0  0
 28 62  1  0  0  0  0
 29 31  1  0  0  0  0
 29 63  1  0  0  0  0
 29 64  1  0  0  0  0
 30 32  1  0  0  0  0
 30 65  1  0  0  0  0
 30 66  1  0  0  0  0
 31 32  1  0  0  0  0
 31 67  1  0  0  0  0
 31 68  1  0  0  0  0
 32 69  1  0  0  0  0
 32 70  1  0  0  0  0
 33 34  3  0  0  0  0
 34 71  1  0  0  0  0
M  END
> <PUBCHEM_COMPOUND_CID>
11882969

> <PUBCHEM_CONFORMER_RMSD>
1

> <PUBCHEM_CONFORMER_DIVERSEORDER>
1
33
40
50
27
42
39
28
43
16
20
55
47
34
32
23
48
31
36
4
44
18
6
49
13
21
2
12
51
26
22
30
38
46
45
41
54
5
8
15
10
37
29
24
7
19
53
25
52
35
9
17
14
11
3

> <PUBCHEM_MMFF94_PARTIAL_CHARGES>
27
1 -0.08
12 0.18
14 0.28
15 0.18
18 0.05
19 0.28
2 -0.68
21 -0.14
22 0.06
23 0.57
24 0.44
25 0.06
26 0.57
27 0.5
3 -0.68
33 -0.2
34 -0.18
4 -0.57
5 -0.57
54 0.4
55 0.4
56 0.37
57 0.37
6 -0.57
7 -0.49
71 0.18
8 -0.73

> <PUBCHEM_EFFECTIVE_ROTOR_COUNT>
10.4

> <PUBCHEM_PHARMACOPHORE_FEATURES>
13
1 2 acceptor
1 2 donor
1 3 acceptor
1 3 donor
1 34 hydrophobe
1 4 acceptor
1 5 acceptor
1 7 donor
1 8 donor
5 1 6 18 21 24 rings
6 25 28 29 30 31 32 rings
6 9 10 11 13 14 16 rings
6 9 10 12 15 18 21 rings

> <PUBCHEM_HEAVY_ATOM_COUNT>
34

> <PUBCHEM_ATOM_DEF_STEREO_COUNT>
5

> <PUBCHEM_ATOM_UDEF_STEREO_COUNT>
0

> <PUBCHEM_BOND_DEF_STEREO_COUNT>
0

> <PUBCHEM_BOND_UDEF_STEREO_COUNT>
0

> <PUBCHEM_ISOTOPIC_ATOM_COUNT>
0

> <PUBCHEM_COMPONENT_COUNT>
1

> <PUBCHEM_CACTVS_TAUTO_COUNT>
6

> <PUBCHEM_CONFORMER_ID>
00B551D900000001

> <PUBCHEM_MMFF94_ENERGY>
86.6036

> <PUBCHEM_FEATURE_SELFOVERLAP>
66.117

> <PUBCHEM_SHAPE_FINGERPRINT>
10050765 1 18193558857579212050
10670039 82 18408604746946750065
10675989 125 18046070625385212604
10815517 723 18411705361901543769
11513181 2 18199472069504295263
12107698 1 18409728465358171254
12166972 35 17894632599472737927
12516196 113 18337954605275905511
12645989 146 18270397321653837231
12788726 201 18333447646946888104
13383665 225 18263102014906603156
13782708 43 17846500335147125718
14068700 675 17988645233378865409
14681490 219 18410571803835683039
14790565 3 18336554841264110008
14931854 50 18264184982446851701
15082195 135 17968386744759579452
15183329 4 18342741840138046119
15276724 80 18413109476351031780
15927050 60 17906454329330108907
15968369 153 18130207324899818629
16087824 20 18337954469066651381
16090146 7 17023483996447299994
18608769 82 18341611491093321944
18681886 176 18269548511383124499
21236236 1 18410858728994257305
21285901 2 18201170888115404838
21360443 126 18190176789602754693
21641784 216 18041574575898385700
221357 26 18341894112314181814
22311459 1 18409448098910972858
23559900 14 18266454502826023219
244849 19 17560219363626906544
24771293 8 18127965519654204440
24771750 20 17250627945705842045
350125 39 18409732829308889432
469060 322 16805327660764830221
46939830 39 17458061608160754277
5171179 24 18201710803869470217
59520647 119 18264489482865184629
59755656 215 18335137592140480079

> <PUBCHEM_SHAPE_MULTIPOLES>
665.13
17.89
4.52
1.17
3.02
5.07
0.09
-8.5
3.2
4.86
0.02
0.09
-0.3
-0.61

> <PUBCHEM_SHAPE_SELFOVERLAP>
1384.966

> <PUBCHEM_SHAPE_VOLUME>
379.3

> <PUBCHEM_COORDINATE_TYPE>
2
5
10

$$$$
