75367699
  -OEChem-12032416403D

 46 48  0     1  0  0  0  0  0999 V2000
   -1.1386   -3.2208   -0.4397 O   0  0  0  0  0  0  0  0  0  0  0  0
   -2.0758    0.2421   -0.9543 O   0  0  0  0  0  0  0  0  0  0  0  0
    3.0004   -1.7179    1.5392 O   0  0  0  0  0  0  0  0  0  0  0  0
    0.7970   -1.1825    0.9466 N   0  0  0  0  0  0  0  0  0  0  0  0
    3.6339    0.5288   -0.3726 N   0  0  0  0  0  0  0  0  0  0  0  0
    3.9403    1.8151   -0.6126 N   0  0  0  0  0  0  0  0  0  0  0  0
   -5.6028    0.0881   -0.0057 N   0  0  0  0  0  0  0  0  0  0  0  0
   -0.1412   -0.2293    0.3422 C   0  0  0  0  0  0  0  0  0  0  0  0
   -1.4398   -0.8090   -0.2257 C   0  0  2  0  0  0  0  0  0  0  0  0
    0.2775   -2.4700    1.4108 C   0  0  0  0  0  0  0  0  0  0  0  0
   -1.2106   -1.9947   -1.1607 C   0  0  0  0  0  0  0  0  0  0  0  0
    0.0892   -3.4359    0.2480 C   0  0  0  0  0  0  0  0  0  0  0  0
    2.1745   -0.9361    1.0689 C   0  0  0  0  0  0  0  0  0  0  0  0
    2.6961    0.3585    0.6032 C   0  0  0  0  0  0  0  0  0  0  0  0
    2.3664    1.6212    1.0315 C   0  0  0  0  0  0  0  0  0  0  0  0
    4.2931   -0.5078   -1.1326 C   0  0  0  0  0  0  0  0  0  0  0  0
    3.1627    2.4777    0.2480 C   0  0  0  0  0  0  0  0  0  0  0  0
   -3.3028    0.6429   -0.5027 C   0  0  0  0  0  0  0  0  0  0  0  0
    3.7198   -0.6322   -2.5360 C   0  0  0  0  0  0  0  0  0  0  0  0
    3.2097    3.9488    0.2927 C   0  0  0  0  0  0  0  0  0  0  0  0
   -3.5227    1.9533   -0.0931 C   0  0  0  0  0  0  0  0  0  0  0  0
   -4.3662   -0.2432   -0.4400 C   0  0  0  0  0  0  0  0  0  0  0  0
   -4.7814    2.3323    0.3602 C   0  0  0  0  0  0  0  0  0  0  0  0
   -5.7786    1.3706    0.3842 C   0  0  0  0  0  0  0  0  0  0  0  0
    0.3712    0.3214   -0.4552 H   0  0  0  0  0  0  0  0  0  0  0  0
   -0.3883    0.5118    1.1126 H   0  0  0  0  0  0  0  0  0  0  0  0
   -2.0629   -1.1356    0.6184 H   0  0  0  0  0  0  0  0  0  0  0  0
   -0.6516   -2.2980    1.9640 H   0  0  0  0  0  0  0  0  0  0  0  0
    0.9966   -2.9069    2.1123 H   0  0  0  0  0  0  0  0  0  0  0  0
   -2.0590   -2.0890   -1.8478 H   0  0  0  0  0  0  0  0  0  0  0  0
   -0.3230   -1.8606   -1.7913 H   0  0  0  0  0  0  0  0  0  0  0  0
    0.9257   -3.4043   -0.4600 H   0  0  0  0  0  0  0  0  0  0  0  0
    0.0374   -4.4551    0.6456 H   0  0  0  0  0  0  0  0  0  0  0  0
    1.6573    1.8859    1.8028 H   0  0  0  0  0  0  0  0  0  0  0  0
    4.2107   -1.4614   -0.6066 H   0  0  0  0  0  0  0  0  0  0  0  0
    5.3582   -0.2530   -1.1777 H   0  0  0  0  0  0  0  0  0  0  0  0
    2.6529   -0.8784   -2.5030 H   0  0  0  0  0  0  0  0  0  0  0  0
    4.2368   -1.4232   -3.0879 H   0  0  0  0  0  0  0  0  0  0  0  0
    3.8307    0.3021   -3.0962 H   0  0  0  0  0  0  0  0  0  0  0  0
    4.2156    4.2963    0.5501 H   0  0  0  0  0  0  0  0  0  0  0  0
    2.9361    4.3745   -0.6783 H   0  0  0  0  0  0  0  0  0  0  0  0
    2.5161    4.3472    1.0404 H   0  0  0  0  0  0  0  0  0  0  0  0
   -2.7174    2.6818   -0.1247 H   0  0  0  0  0  0  0  0  0  0  0  0
   -4.2621   -1.2773   -0.7527 H   0  0  0  0  0  0  0  0  0  0  0  0
   -4.9756    3.3481    0.6847 H   0  0  0  0  0  0  0  0  0  0  0  0
   -6.7778    1.6153    0.7292 H   0  0  0  0  0  0  0  0  0  0  0  0
  1 11  1  0  0  0  0
  1 12  1  0  0  0  0
  2  9  1  0  0  0  0
  2 18  1  0  0  0  0
  3 13  2  0  0  0  0
  4  8  1  0  0  0  0
  4 10  1  0  0  0  0
  4 13  1  0  0  0  0
  5  6  1  0  0  0  0
  5 14  1  0  0  0  0
  5 16  1  0  0  0  0
  6 17  2  0  0  0  0
  7 22  1  0  0  0  0
  7 24  2  0  0  0  0
  8  9  1  0  0  0  0
  8 25  1  0  0  0  0
  8 26  1  0  0  0  0
  9 11  1  0  0  0  0
  9 27  1  0  0  0  0
 10 12  1  0  0  0  0
 10 28  1  0  0  0  0
 10 29  1  0  0  0  0
 11 30  1  0  0  0  0
 11 31  1  0  0  0  0
 12 32  1  0  0  0  0
 12 33  1  0  0  0  0
 13 14  1  0  0  0  0
 14 15  2  0  0  0  0
 15 17  1  0  0  0  0
 15 34  1  0  0  0  0
 16 19  1  0  0  0  0
 16 35  1  0  0  0  0
 16 36  1  0  0  0  0
 17 20  1  0  0  0  0
 18 21  1  0  0  0  0
 18 22  2  0  0  0  0
 19 37  1  0  0  0  0
 19 38  1  0  0  0  0
 19 39  1  0  0  0  0
 20 40  1  0  0  0  0
 20 41  1  0  0  0  0
 20 42  1  0  0  0  0
 21 23  2  0  0  0  0
 21 43  1  0  0  0  0
 22 44  1  0  0  0  0
 23 24  1  0  0  0  0
 23 45  1  0  0  0  0
 24 46  1  0  0  0  0
M  END
> <PUBCHEM_COMPOUND_CID>
75367699

> <PUBCHEM_CONFORMER_RMSD>
1

> <PUBCHEM_CONFORMER_DIVERSEORDER>
1
163
189
177
90
211
156
9
129
174
84
153
91
72
170
79
188
93
150
45
157
116
213
148
48
78
176
50
210
69
112
95
137
206
3
58
216
186
101
122
70
158
196
19
65
173
68
18
71
51
87
92
103
89
118
29
192
32
208
110
169
209
134
207
83
162
182
14
113
99
96
61
198
172
59
201
25
193
85
46
52
205
105
7
125
97
151
75
165
12
104
98
185
126
6
117
203
66
31
77
194
28
184
179
133
106
143
38
154
56
145
42
111
37
200
27
60
5
199
166
142
167
11
168
63
62
94
202
183
82
171
132
115
47
2
10
214
80
64
108
197
217
195
35
41
53
161
190
146
149
44
107
130
147
4
139
55
121
49
164
17
138
187
81
141
67
23
175
123
21
88
8
155
180
15
33
120
20
13
26
131
30
144
102
57
24
140
135
124
119
16
86
159
215
136
100
34
160
109
40
152
212
114
178
73
127
181
204
76
36
191
128
22
74
54
43
39

> <PUBCHEM_MMFF94_PARTIAL_CHARGES>
28
1 -0.56
10 0.3
11 0.28
12 0.28
13 0.71
14 -0.24
15 -0.15
16 0.26
17 0.11
18 0.08
2 -0.36
20 0.18
21 -0.15
22 0.16
23 -0.15
24 0.16
3 -0.57
34 0.15
4 -0.66
43 0.15
44 0.15
45 0.15
46 0.15
5 0.31
6 -0.71
7 -0.62
8 0.3
9 0.28

> <PUBCHEM_EFFECTIVE_ROTOR_COUNT>
6.4

> <PUBCHEM_PHARMACOPHORE_FEATURES>
8
1 1 acceptor
1 2 acceptor
1 3 acceptor
1 6 acceptor
1 7 acceptor
5 5 6 14 15 17 rings
6 7 18 21 22 23 24 rings
7 1 4 8 9 10 11 12 rings

> <PUBCHEM_HEAVY_ATOM_COUNT>
24

> <PUBCHEM_ATOM_DEF_STEREO_COUNT>
1

> <PUBCHEM_ATOM_UDEF_STEREO_COUNT>
0

> <PUBCHEM_BOND_DEF_STEREO_COUNT>
0

> <PUBCHEM_BOND_UDEF_STEREO_COUNT>
0

> <PUBCHEM_ISOTOPIC_ATOM_COUNT>
0

> <PUBCHEM_COMPONENT_COUNT>
1

> <PUBCHEM_CACTVS_TAUTO_COUNT>
1

> <PUBCHEM_CONFORMER_ID>
047E051300000001

> <PUBCHEM_MMFF94_ENERGY>
66.6388

> <PUBCHEM_FEATURE_SELFOVERLAP>
40.6

> <PUBCHEM_SHAPE_FINGERPRINT>
10165383 225 17822301171452819150
11720765 8 17631738145633324788
11796584 16 13039180403755599349
12173636 292 18268135634144798455
12403259 118 18192973960300301273
12617007 42 17988087690815370380
12788726 201 17687734352220833859
14251757 17 17774455888146516047
14528608 73 18409443687899886469
1454969 45 18341889749893876071
14790565 3 18411982481691849449
14955137 171 18118391848747277186
151778 21 18337383860020002665
17980427 23 17841112780538442514
20465049 17 18339091392993421886
20567600 9 18198348347129877721
20626108 58 10591458587051463373
21250096 35 9007054678000351465
21864079 5 18340759408030454433
23558518 356 17902508521453035460
23559900 14 17847065471491790228
2637199 183 18411140203638470195
38570 142 18041292044908300284
469060 322 16299775650445790303
474 4 18409161087393727113
5048184 11 18336822121063106337
5252454 2 18113893905533364740
57527585 21 17549813830046812212
633830 44 18343858918556057437
6442390 28 18186808006049541795
7399639 24 16980386675158746682
7808743 9 18120649386420959136

> <PUBCHEM_SHAPE_MULTIPOLES>
456.38
10.91
3.91
1.41
11.51
0.32
0.46
7.97
1.82
-1.77
-0.73
-1.68
-0.68
-0.17

> <PUBCHEM_SHAPE_SELFOVERLAP>
960.586

> <PUBCHEM_SHAPE_VOLUME>
255

> <PUBCHEM_COORDINATE_TYPE>
2
5
10

$$$$
