11943126
  -OEChem-12032416313D

 40 41  0     1  0  0  0  0  0999 V2000
   -1.2664   -0.8967   -0.1105 O   0  0  0  0  0  0  0  0  0  0  0  0
   -2.6156   -0.6566    1.7326 O   0  0  0  0  0  0  0  0  0  0  0  0
    2.3484   -1.3534    0.6392 N   0  0  2  0  0  0  0  0  0  0  0  0
   -3.4956   -0.6822   -0.4137 N   0  0  0  0  0  0  0  0  0  0  0  0
    2.7667    0.4333   -1.2062 C   0  0  1  0  0  0  0  0  0  0  0  0
    1.1091   -1.1456   -0.1570 C   0  0  2  0  0  0  0  0  0  0  0  0
    1.2798    0.0271   -1.1479 C   0  0  0  0  0  0  0  0  0  0  0  0
    3.2003    0.9583    0.1800 C   0  0  2  0  0  0  0  0  0  0  0  0
    3.5813   -0.8460   -1.4747 C   0  0  0  0  0  0  0  0  0  0  0  0
    2.7868   -0.0739    1.2512 C   0  0  0  0  0  0  0  0  0  0  0  0
    3.4133   -1.8114   -0.2871 C   0  0  0  0  0  0  0  0  0  0  0  0
   -0.1281   -0.9692    0.7260 C   0  0  0  0  0  0  0  0  0  0  0  0
    2.6385    2.2884    0.4667 C   0  0  0  0  0  0  0  0  0  0  0  0
    2.1804    3.3732    0.7000 C   0  0  0  0  0  0  0  0  0  0  0  0
   -2.4789   -0.7370    0.5163 C   0  0  0  0  0  0  0  0  0  0  0  0
   -4.8894   -0.5190   -0.0697 C   0  0  0  0  0  0  0  0  0  0  0  0
   -5.3043    0.9461   -0.0077 C   0  0  0  0  0  0  0  0  0  0  0  0
   -5.1263    1.6646   -1.3376 C   0  0  0  0  0  0  0  0  0  0  0  0
    2.9343    1.1749   -1.9951 H   0  0  0  0  0  0  0  0  0  0  0  0
    0.9273   -2.0536   -0.7507 H   0  0  0  0  0  0  0  0  0  0  0  0
    0.6653    0.8903   -0.8670 H   0  0  0  0  0  0  0  0  0  0  0  0
    0.9465   -0.2876   -2.1448 H   0  0  0  0  0  0  0  0  0  0  0  0
    4.2952    1.0514    0.1873 H   0  0  0  0  0  0  0  0  0  0  0  0
    4.6417   -0.6026   -1.6090 H   0  0  0  0  0  0  0  0  0  0  0  0
    3.2365   -1.3222   -2.4004 H   0  0  0  0  0  0  0  0  0  0  0  0
    3.6462   -0.2743    1.9054 H   0  0  0  0  0  0  0  0  0  0  0  0
    2.0131    0.3110    1.9256 H   0  0  0  0  0  0  0  0  0  0  0  0
    3.1804   -2.8181   -0.6555 H   0  0  0  0  0  0  0  0  0  0  0  0
    4.3611   -1.9108    0.2572 H   0  0  0  0  0  0  0  0  0  0  0  0
   -0.0663   -0.0530    1.3236 H   0  0  0  0  0  0  0  0  0  0  0  0
   -0.2278   -1.8268    1.4026 H   0  0  0  0  0  0  0  0  0  0  0  0
    1.7735    4.3353    0.9069 H   0  0  0  0  0  0  0  0  0  0  0  0
   -3.2488   -0.7571   -1.3959 H   0  0  0  0  0  0  0  0  0  0  0  0
   -5.0733   -0.9951    0.8996 H   0  0  0  0  0  0  0  0  0  0  0  0
   -5.4754   -1.0529   -0.8252 H   0  0  0  0  0  0  0  0  0  0  0  0
   -6.3569    1.0058    0.2918 H   0  0  0  0  0  0  0  0  0  0  0  0
   -4.7202    1.4683    0.7594 H   0  0  0  0  0  0  0  0  0  0  0  0
   -5.6901    1.1650   -2.1318 H   0  0  0  0  0  0  0  0  0  0  0  0
   -5.4906    2.6941   -1.2600 H   0  0  0  0  0  0  0  0  0  0  0  0
   -4.0736    1.7051   -1.6342 H   0  0  0  0  0  0  0  0  0  0  0  0
  1 12  1  0  0  0  0
  1 15  1  0  0  0  0
  2 15  2  0  0  0  0
  3  6  1  0  0  0  0
  3 10  1  0  0  0  0
  3 11  1  0  0  0  0
  4 15  1  0  0  0  0
  4 16  1  0  0  0  0
  4 33  1  0  0  0  0
  5  7  1  0  0  0  0
  5  8  1  0  0  0  0
  5  9  1  0  0  0  0
  5 19  1  0  0  0  0
  6  7  1  0  0  0  0
  6 12  1  0  0  0  0
  6 20  1  0  0  0  0
  7 21  1  0  0  0  0
  7 22  1  0  0  0  0
  8 10  1  0  0  0  0
  8 13  1  0  0  0  0
  8 23  1  0  0  0  0
  9 11  1  0  0  0  0
  9 24  1  0  0  0  0
  9 25  1  0  0  0  0
 10 26  1  0  0  0  0
 10 27  1  0  0  0  0
 11 28  1  0  0  0  0
 11 29  1  0  0  0  0
 12 30  1  0  0  0  0
 12 31  1  0  0  0  0
 13 14  3  0  0  0  0
 14 32  1  0  0  0  0
 16 17  1  0  0  0  0
 16 34  1  0  0  0  0
 16 35  1  0  0  0  0
 17 18  1  0  0  0  0
 17 36  1  0  0  0  0
 17 37  1  0  0  0  0
 18 38  1  0  0  0  0
 18 39  1  0  0  0  0
 18 40  1  0  0  0  0
M  END
> <PUBCHEM_COMPOUND_CID>
11943126

> <PUBCHEM_CONFORMER_RMSD>
0.8

> <PUBCHEM_CONFORMER_DIVERSEORDER>
1
53
17
56
5
57
37
62
58
2
38
54
6
60
55
31
29
44
4
20
51
40
13
19
48
18
61
8
14
32
34
23
45
41
50
26
9
33
42
49
28
22
24
16
43
10
30
35
11
47
59
12
7
3
63
27
15
64
25
21
36
52
39
46

> <PUBCHEM_MMFF94_PARTIAL_CHARGES>
15
1 -0.43
10 0.27
11 0.27
12 0.28
13 -0.2
14 -0.18
15 0.78
16 0.3
2 -0.57
3 -0.81
32 0.18
33 0.37
4 -0.73
6 0.27
8 0.2

> <PUBCHEM_EFFECTIVE_ROTOR_COUNT>
7.2

> <PUBCHEM_PHARMACOPHORE_FEATURES>
6
1 14 hydrophobe
1 18 hydrophobe
1 2 acceptor
1 3 cation
1 4 donor
8 3 5 6 7 8 9 10 11 rings

> <PUBCHEM_HEAVY_ATOM_COUNT>
18

> <PUBCHEM_ATOM_DEF_STEREO_COUNT>
3

> <PUBCHEM_ATOM_UDEF_STEREO_COUNT>
0

> <PUBCHEM_BOND_DEF_STEREO_COUNT>
0

> <PUBCHEM_BOND_UDEF_STEREO_COUNT>
0

> <PUBCHEM_ISOTOPIC_ATOM_COUNT>
0

> <PUBCHEM_COMPONENT_COUNT>
1

> <PUBCHEM_CACTVS_TAUTO_COUNT>
2

> <PUBCHEM_CONFORMER_ID>
00B63CD600000001

> <PUBCHEM_MMFF94_ENERGY>
28.7269

> <PUBCHEM_FEATURE_SELFOVERLAP>
30.446

> <PUBCHEM_SHAPE_FINGERPRINT>
11089746 13 18335691737473780479
11595378 159 15213290886217164525
12596602 18 14201411469188884149
12769317 202 18129654352065963560
13134695 92 18412265004598142254
13583140 156 18337962289146783395
14178000 15 18270121206516411906
14178342 30 17460592769194230514
14251757 17 18337379475307403521
14251764 38 18413105065784206689
14252887 29 9583520914576299815
15210252 30 17676781932535139596
15342816 4 13758075194871173723
15848702 68 18341044194511677736
1768 124 9222359984828762621
17844677 252 18342182180836007203
17868525 174 17679565762615728073
18186145 218 18272382991649252907
20621476 13 18126000705039302593
20645477 56 18334017207604297523
20645477 70 17988651795513919447
212847 35 18113618954189749335
21304303 282 16051499414171921988
21452121 103 18339916112824551024
21503847 285 18341896298563526284
21521721 280 10881690079420375830
21860390 5 18271525389807189692
22224240 67 11170208617475430758
22289505 5 18412546496570216164
22892500 29 18411139160261974382
231179 274 18340488988415744800
23557571 272 17823989037538907531
23559900 14 18131071532486135350
3060560 45 18060426811253812614
474 4 18127129899359406832
495365 180 18409162233717588762
5281201 14 18343023298298306397
5352402 22 9295289469542129757
9971528 1 18060142003419208002

> <PUBCHEM_SHAPE_MULTIPOLES>
348.73
10.54
2.43
1.34
17.72
2.44
0.09
2.18
2.2
-2.1
-0.38
-0.19
0.01
1.42

> <PUBCHEM_SHAPE_SELFOVERLAP>
704.953

> <PUBCHEM_SHAPE_VOLUME>
199.7

> <PUBCHEM_COORDINATE_TYPE>
2
5
10

$$$$
