45783645
  -OEChem-12032416363D

 59 63  0     1  0  0  0  0  0999 V2000
   -2.6687    2.3663   -1.3569 O   0  0  0  0  0  0  0  0  0  0  0  0
    7.6519   -0.4700    1.1770 O   0  0  0  0  0  0  0  0  0  0  0  0
    5.0609   -0.3580    1.4370 O   0  0  0  0  0  0  0  0  0  0  0  0
   -4.2385    0.1603    1.1278 N   0  0  1  0  0  0  0  0  0  0  0  0
   -1.8951   -2.1623   -1.9831 N   0  0  0  0  0  0  0  0  0  0  0  0
   -1.5910    1.2021    0.2241 N   0  0  0  0  0  0  0  0  0  0  0  0
   -1.3090    2.4267   -1.6877 N   0  0  0  0  0  0  0  0  0  0  0  0
    2.8735    1.8718   -1.5770 N   0  0  0  0  0  0  0  0  0  0  0  0
    4.7662    0.9477   -0.5012 N   0  0  0  0  0  0  0  0  0  0  0  0
   -4.1329    1.4118    0.3513 C   0  0  1  0  0  0  0  0  0  0  0  0
   -4.5495    2.5196    1.3363 C   0  0  0  0  0  0  0  0  0  0  0  0
   -5.2645    0.3904    2.1451 C   0  0  0  0  0  0  0  0  0  0  0  0
   -4.9291    1.7906    2.6174 C   0  0  0  0  0  0  0  0  0  0  0  0
   -4.5353   -1.0040    0.3033 C   0  0  0  0  0  0  0  0  0  0  0  0
   -2.7468    1.6277   -0.2192 C   0  0  0  0  0  0  0  0  0  0  0  0
   -3.3064   -1.5266   -0.3922 C   0  0  0  0  0  0  0  0  0  0  0  0
   -2.1078   -1.9755    0.2298 C   0  0  0  0  0  0  0  0  0  0  0  0
   -3.1451   -1.6536   -1.7526 C   0  0  0  0  0  0  0  0  0  0  0  0
   -1.2390   -2.3686   -0.7905 C   0  0  0  0  0  0  0  0  0  0  0  0
   -1.6773   -2.0852    1.5669 C   0  0  0  0  0  0  0  0  0  0  0  0
   -0.7390    1.7171   -0.7091 C   0  0  0  0  0  0  0  0  0  0  0  0
    0.0438   -2.8681   -0.5395 C   0  0  0  0  0  0  0  0  0  0  0  0
   -1.3564   -2.4374   -3.2975 C   0  0  0  0  0  0  0  0  0  0  0  0
   -0.3966   -2.5832    1.8331 C   0  0  0  0  0  0  0  0  0  0  0  0
    0.4491   -2.9680    0.7946 C   0  0  0  0  0  0  0  0  0  0  0  0
    0.6777    1.5053   -0.6340 C   0  0  0  0  0  0  0  0  0  0  0  0
    1.2374    0.7626    0.3996 C   0  0  0  0  0  0  0  0  0  0  0  0
    1.5313    2.0339   -1.5889 C   0  0  0  0  0  0  0  0  0  0  0  0
    2.6144    0.5738    0.4461 C   0  0  0  0  0  0  0  0  0  0  0  0
    3.3813    1.1441   -0.5571 C   0  0  0  0  0  0  0  0  0  0  0  0
    5.4967    0.2358    0.4554 C   0  0  0  0  0  0  0  0  0  0  0  0
    6.9827    0.2614    0.1707 C   0  0  0  0  0  0  0  0  0  0  0  0
    9.0613   -0.4879    0.9713 C   0  0  0  0  0  0  0  0  0  0  0  0
   -4.8538    1.4169   -0.4783 H   0  0  0  0  0  0  0  0  0  0  0  0
   -5.4249    3.0514    0.9440 H   0  0  0  0  0  0  0  0  0  0  0  0
   -3.7648    3.2596    1.5278 H   0  0  0  0  0  0  0  0  0  0  0  0
   -6.2749    0.3647    1.7174 H   0  0  0  0  0  0  0  0  0  0  0  0
   -5.2046   -0.3348    2.9626 H   0  0  0  0  0  0  0  0  0  0  0  0
   -5.7650    2.2707    3.1346 H   0  0  0  0  0  0  0  0  0  0  0  0
   -4.0718    1.7685    3.3016 H   0  0  0  0  0  0  0  0  0  0  0  0
   -4.8963   -1.8237    0.9404 H   0  0  0  0  0  0  0  0  0  0  0  0
   -5.3394   -0.8039   -0.4167 H   0  0  0  0  0  0  0  0  0  0  0  0
   -3.8160   -1.4223   -2.5694 H   0  0  0  0  0  0  0  0  0  0  0  0
   -2.3227   -1.7923    2.3899 H   0  0  0  0  0  0  0  0  0  0  0  0
    0.7077   -3.1678   -1.3434 H   0  0  0  0  0  0  0  0  0  0  0  0
   -0.4595   -1.8284   -3.4362 H   0  0  0  0  0  0  0  0  0  0  0  0
   -1.1161   -3.5020   -3.3562 H   0  0  0  0  0  0  0  0  0  0  0  0
   -2.0977   -2.1829   -4.0593 H   0  0  0  0  0  0  0  0  0  0  0  0
   -0.0588   -2.6693    2.8624 H   0  0  0  0  0  0  0  0  0  0  0  0
    1.4405   -3.3502    1.0240 H   0  0  0  0  0  0  0  0  0  0  0  0
    0.6251    0.3286    1.1851 H   0  0  0  0  0  0  0  0  0  0  0  0
    1.1746    2.6248   -2.4274 H   0  0  0  0  0  0  0  0  0  0  0  0
    2.9751   -0.0110    1.2762 H   0  0  0  0  0  0  0  0  0  0  0  0
    5.2836    1.3860   -1.2592 H   0  0  0  0  0  0  0  0  0  0  0  0
    7.3244    1.3025    0.1683 H   0  0  0  0  0  0  0  0  0  0  0  0
    7.1622   -0.1923   -0.8105 H   0  0  0  0  0  0  0  0  0  0  0  0
    9.3017   -0.9662    0.0169 H   0  0  0  0  0  0  0  0  0  0  0  0
    9.4637    0.5293    0.9964 H   0  0  0  0  0  0  0  0  0  0  0  0
    9.5189   -1.0661    1.7784 H   0  0  0  0  0  0  0  0  0  0  0  0
  1  7  1  0  0  0  0
  1 15  1  0  0  0  0
  2 32  1  0  0  0  0
  2 33  1  0  0  0  0
  3 31  2  0  0  0  0
  4 10  1  0  0  0  0
  4 12  1  0  0  0  0
  4 14  1  0  0  0  0
  5 18  1  0  0  0  0
  5 19  1  0  0  0  0
  5 23  1  0  0  0  0
  6 15  2  0  0  0  0
  6 21  1  0  0  0  0
  7 21  2  0  0  0  0
  8 28  1  0  0  0  0
  8 30  2  0  0  0  0
  9 30  1  0  0  0  0
  9 31  1  0  0  0  0
  9 54  1  0  0  0  0
 10 11  1  0  0  0  0
 10 15  1  0  0  0  0
 10 34  1  0  0  0  0
 11 13  1  0  0  0  0
 11 35  1  0  0  0  0
 11 36  1  0  0  0  0
 12 13  1  0  0  0  0
 12 37  1  0  0  0  0
 12 38  1  0  0  0  0
 13 39  1  0  0  0  0
 13 40  1  0  0  0  0
 14 16  1  0  0  0  0
 14 41  1  0  0  0  0
 14 42  1  0  0  0  0
 16 17  1  0  0  0  0
 16 18  2  0  0  0  0
 17 19  1  0  0  0  0
 17 20  2  0  0  0  0
 18 43  1  0  0  0  0
 19 22  2  0  0  0  0
 20 24  1  0  0  0  0
 20 44  1  0  0  0  0
 21 26  1  0  0  0  0
 22 25  1  0  0  0  0
 22 45  1  0  0  0  0
 23 46  1  0  0  0  0
 23 47  1  0  0  0  0
 23 48  1  0  0  0  0
 24 25  2  0  0  0  0
 24 49  1  0  0  0  0
 25 50  1  0  0  0  0
 26 27  1  0  0  0  0
 26 28  2  0  0  0  0
 27 29  2  0  0  0  0
 27 51  1  0  0  0  0
 28 52  1  0  0  0  0
 29 30  1  0  0  0  0
 29 53  1  0  0  0  0
 31 32  1  0  0  0  0
 32 55  1  0  0  0  0
 32 56  1  0  0  0  0
 33 57  1  0  0  0  0
 33 58  1  0  0  0  0
 33 59  1  0  0  0  0
M  END
> <PUBCHEM_COMPOUND_CID>
45783645

> <PUBCHEM_CONFORMER_RMSD>
1

> <PUBCHEM_CONFORMER_DIVERSEORDER>
1
78
26
103
47
33
52
77
51
19
62
95
102
18
79
30
93
2
17
13
89
86
84
100
106
60
16
76
74
11
15
105
70
27
57
3
55
96
99
48
69
91
20
7
28
80
40
35
50
38
68
81
88
39
29
87
23
98
10
31
22
61
64
65
46
94
32
5
9
63
101
83
75
58
43
24
53
97
41
73
49
42
82
104
85
14
72
34
21
8
66
92
37
45
44
56
4
71
59
12
90
25
36
54
67
6

> <PUBCHEM_MMFF94_PARTIAL_CHARGES>
39
1 -0.02
10 0.45
12 0.27
14 0.45
15 0.3
16 -0.18
18 -0.3
19 -0.15
2 -0.56
20 -0.15
21 0.46
22 -0.15
23 0.26
24 -0.15
25 -0.15
26 0.05
27 -0.15
28 0.16
29 -0.15
3 -0.57
30 0.43
31 0.57
32 0.34
33 0.28
4 -0.81
43 0.15
44 0.15
45 0.15
49 0.15
5 0.05
50 0.15
51 0.15
52 0.15
53 0.15
54 0.37
6 -0.57
7 -0.41
8 -0.62
9 -0.55

> <PUBCHEM_EFFECTIVE_ROTOR_COUNT>
9

> <PUBCHEM_PHARMACOPHORE_FEATURES>
11
1 2 acceptor
1 3 acceptor
1 4 cation
1 5 cation
1 9 donor
3 6 7 21 cation
5 1 6 7 15 21 rings
5 4 10 11 12 13 rings
5 5 16 17 18 19 rings
6 17 19 20 22 24 25 rings
6 8 26 27 28 29 30 rings

> <PUBCHEM_HEAVY_ATOM_COUNT>
33

> <PUBCHEM_ATOM_DEF_STEREO_COUNT>
1

> <PUBCHEM_ATOM_UDEF_STEREO_COUNT>
0

> <PUBCHEM_BOND_DEF_STEREO_COUNT>
0

> <PUBCHEM_BOND_UDEF_STEREO_COUNT>
0

> <PUBCHEM_ISOTOPIC_ATOM_COUNT>
0

> <PUBCHEM_COMPONENT_COUNT>
1

> <PUBCHEM_CACTVS_TAUTO_COUNT>
11

> <PUBCHEM_CONFORMER_ID>
02BA9A5D00000001

> <PUBCHEM_MMFF94_ENERGY>
67.5882

> <PUBCHEM_FEATURE_SELFOVERLAP>
55.926

> <PUBCHEM_SHAPE_FINGERPRINT>
10305334 12 18261116274931037883
11445158 3 17022915578773424086
11524674 6 18131069320867712942
11578080 2 18056482987704864896
12156800 1 12386472673352097391
12422481 6 18337395915803369995
12522641 33 17680406889919138117
12788726 201 17838638982376332261
14279260 333 17167853137918685346
14856354 85 18040723601449347786
14866123 147 18334297603732132770
15021287 119 17967535683777900908
15183329 4 17968086539556844242
15274700 242 17386549299123204578
15439362 3 17320683982078867709
16110190 28 18261117404528288284
20554085 129 17774441565127201953
20691752 17 17969530168201034615
20721686 56 18113899312686492771
21236236 1 18409720777867806166
21403212 168 18410016499272390249
21796203 349 17824858652257870152
3411729 13 18124336930089110593
392239 28 17895492405050418563
484985 159 17895184549825555451
5265222 85 18198359518708995892
70251023 43 16892859003990027122
7226269 152 18131918147939279216
9896288 288 18192151486658693440
9953998 17 18342730833181033952
999808 66 17095249098922424568

> <PUBCHEM_SHAPE_MULTIPOLES>
631.63
15
3.61
2.29
39.51
1.43
0.56
-3.83
-9.43
-3.58
0.84
-1.96
0.57
-2.49

> <PUBCHEM_SHAPE_SELFOVERLAP>
1379.584

> <PUBCHEM_SHAPE_VOLUME>
345.7

> <PUBCHEM_COORDINATE_TYPE>
2
5
10

$$$$
