40776827
  -OEChem-12032416173D

 69 73  0     1  0  0  0  0  0999 V2000
    2.4658    1.8827    0.5557 O   0  0  0  0  0  0  0  0  0  0  0  0
    3.0176    0.0036    1.7364 O   0  0  0  0  0  0  0  0  0  0  0  0
   -7.7152   -3.9713    1.4491 O   0  0  0  0  0  0  0  0  0  0  0  0
    9.2412   -3.1419   -1.2478 O   0  0  0  0  0  0  0  0  0  0  0  0
   -0.6376    3.5836    1.7000 N   0  0  2  0  0  0  0  0  0  0  0  0
   -2.1930    1.2684   -1.9114 N   0  0  0  0  0  0  0  0  0  0  0  0
   -3.5045   -0.7532   -1.9320 N   0  0  0  0  0  0  0  0  0  0  0  0
    4.3614    0.8052   -0.0047 N   0  0  0  0  0  0  0  0  0  0  0  0
   -1.2648    3.7524   -0.8222 C   0  0  2  0  0  0  0  0  0  0  0  0
   -2.2933    2.8682   -0.0640 C   0  0  2  0  0  0  0  0  0  0  0  0
    0.5496    3.2769    0.8594 C   0  0  2  0  0  0  0  0  0  0  0  0
    0.1506    3.1687   -0.6281 C   0  0  0  0  0  0  0  0  0  0  0  0
   -1.2814    5.1378   -0.1413 C   0  0  0  0  0  0  0  0  0  0  0  0
   -1.7452    2.6504    1.3753 C   0  0  0  0  0  0  0  0  0  0  0  0
   -1.0818    4.9601    1.3740 C   0  0  0  0  0  0  0  0  0  0  0  0
    1.2988    2.0326    1.3408 C   0  0  0  0  0  0  0  0  0  0  0  0
   -2.7399    1.5669   -0.7148 C   0  0  0  0  0  0  0  0  0  0  0  0
   -3.6628    0.7668   -0.0726 C   0  0  0  0  0  0  0  0  0  0  0  0
   -4.0114   -0.3927   -0.7348 C   0  0  0  0  0  0  0  0  0  0  0  0
   -2.6138    0.1106   -2.4555 C   0  0  0  0  0  0  0  0  0  0  0  0
    3.2739    0.8060    0.8470 C   0  0  0  0  0  0  0  0  0  0  0  0
   -4.9677   -1.3148   -0.1703 C   0  0  0  0  0  0  0  0  0  0  0  0
   -2.0328   -0.2528   -3.7800 C   0  0  0  0  0  0  0  0  0  0  0  0
   -4.7175   -1.9097    1.0663 C   0  0  0  0  0  0  0  0  0  0  0  0
   -6.1416   -1.6121   -0.8625 C   0  0  0  0  0  0  0  0  0  0  0  0
    5.4308   -0.1179   -0.0500 C   0  0  0  0  0  0  0  0  0  0  0  0
   -5.6409   -2.8021    1.6105 C   0  0  0  0  0  0  0  0  0  0  0  0
   -7.0652   -2.5045   -0.3183 C   0  0  0  0  0  0  0  0  0  0  0  0
   -6.8149   -3.0995    0.9182 C   0  0  0  0  0  0  0  0  0  0  0  0
    5.4659   -1.1893    0.8425 C   0  0  0  0  0  0  0  0  0  0  0  0
    6.4518    0.0434   -0.9866 C   0  0  0  0  0  0  0  0  0  0  0  0
    6.5220   -2.0992    0.7984 C   0  0  0  0  0  0  0  0  0  0  0  0
    7.5079   -0.8666   -1.0306 C   0  0  0  0  0  0  0  0  0  0  0  0
    7.5430   -1.9381   -0.1382 C   0  0  0  0  0  0  0  0  0  0  0  0
   -8.8942   -4.2303    0.6882 C   0  0  0  0  0  0  0  0  0  0  0  0
    8.6438   -2.8873   -0.1830 C   0  0  0  0  0  0  0  0  0  0  0  0
    9.0954   -3.6012    1.0867 C   0  0  0  0  0  0  0  0  0  0  0  0
   -1.5083    3.8463   -1.8857 H   0  0  0  0  0  0  0  0  0  0  0  0
   -3.2151    3.4654    0.0150 H   0  0  0  0  0  0  0  0  0  0  0  0
    1.2620    4.1104    0.9510 H   0  0  0  0  0  0  0  0  0  0  0  0
    0.1798    2.1309   -0.9784 H   0  0  0  0  0  0  0  0  0  0  0  0
    0.8672    3.7317   -1.2390 H   0  0  0  0  0  0  0  0  0  0  0  0
   -2.2325    5.6477   -0.3340 H   0  0  0  0  0  0  0  0  0  0  0  0
   -0.4853    5.7673   -0.5571 H   0  0  0  0  0  0  0  0  0  0  0  0
   -2.5590    2.8046    2.0967 H   0  0  0  0  0  0  0  0  0  0  0  0
   -1.4208    1.6161    1.5368 H   0  0  0  0  0  0  0  0  0  0  0  0
   -0.3469    5.6874    1.7406 H   0  0  0  0  0  0  0  0  0  0  0  0
   -2.0123    5.1872    1.9097 H   0  0  0  0  0  0  0  0  0  0  0  0
    1.5817    2.1532    2.3937 H   0  0  0  0  0  0  0  0  0  0  0  0
    0.6845    1.1309    1.2415 H   0  0  0  0  0  0  0  0  0  0  0  0
   -4.0927    1.0403    0.8839 H   0  0  0  0  0  0  0  0  0  0  0  0
   -2.6776    0.1206   -4.5809 H   0  0  0  0  0  0  0  0  0  0  0  0
   -1.0358    0.1825   -3.9008 H   0  0  0  0  0  0  0  0  0  0  0  0
   -1.9428   -1.3391   -3.8786 H   0  0  0  0  0  0  0  0  0  0  0  0
    4.4008    1.5610   -0.6842 H   0  0  0  0  0  0  0  0  0  0  0  0
   -3.8060   -1.6960    1.6197 H   0  0  0  0  0  0  0  0  0  0  0  0
   -6.3549   -1.1551   -1.8262 H   0  0  0  0  0  0  0  0  0  0  0  0
   -5.4400   -3.2637    2.5734 H   0  0  0  0  0  0  0  0  0  0  0  0
   -7.9561   -2.6901   -0.9086 H   0  0  0  0  0  0  0  0  0  0  0  0
    4.7102   -1.3796    1.5919 H   0  0  0  0  0  0  0  0  0  0  0  0
    6.4369    0.8747   -1.6870 H   0  0  0  0  0  0  0  0  0  0  0  0
    6.5184   -2.9320    1.4964 H   0  0  0  0  0  0  0  0  0  0  0  0
    8.2967   -0.7226   -1.7645 H   0  0  0  0  0  0  0  0  0  0  0  0
   -9.4969   -4.9441    1.2592 H   0  0  0  0  0  0  0  0  0  0  0  0
   -8.6584   -4.7056   -0.2700 H   0  0  0  0  0  0  0  0  0  0  0  0
   -9.5005   -3.3264    0.5654 H   0  0  0  0  0  0  0  0  0  0  0  0
   10.1628   -3.8287    1.0077 H   0  0  0  0  0  0  0  0  0  0  0  0
    8.9604   -2.9599    1.9619 H   0  0  0  0  0  0  0  0  0  0  0  0
    8.5315   -4.5296    1.2047 H   0  0  0  0  0  0  0  0  0  0  0  0
  1 16  1  0  0  0  0
  1 21  1  0  0  0  0
  2 21  2  0  0  0  0
  3 29  1  0  0  0  0
  3 35  1  0  0  0  0
  4 36  2  0  0  0  0
  5 11  1  0  0  0  0
  5 14  1  0  0  0  0
  5 15  1  0  0  0  0
  6 17  2  0  0  0  0
  6 20  1  0  0  0  0
  7 19  1  0  0  0  0
  7 20  2  0  0  0  0
  8 21  1  0  0  0  0
  8 26  1  0  0  0  0
  8 55  1  0  0  0  0
  9 10  1  0  0  0  0
  9 12  1  0  0  0  0
  9 13  1  0  0  0  0
  9 38  1  0  0  0  0
 10 14  1  0  0  0  0
 10 17  1  0  0  0  0
 10 39  1  0  0  0  0
 11 12  1  0  0  0  0
 11 16  1  0  0  0  0
 11 40  1  0  0  0  0
 12 41  1  0  0  0  0
 12 42  1  0  0  0  0
 13 15  1  0  0  0  0
 13 43  1  0  0  0  0
 13 44  1  0  0  0  0
 14 45  1  0  0  0  0
 14 46  1  0  0  0  0
 15 47  1  0  0  0  0
 15 48  1  0  0  0  0
 16 49  1  0  0  0  0
 16 50  1  0  0  0  0
 17 18  1  0  0  0  0
 18 19  2  0  0  0  0
 18 51  1  0  0  0  0
 19 22  1  0  0  0  0
 20 23  1  0  0  0  0
 22 24  2  0  0  0  0
 22 25  1  0  0  0  0
 23 52  1  0  0  0  0
 23 53  1  0  0  0  0
 23 54  1  0  0  0  0
 24 27  1  0  0  0  0
 24 56  1  0  0  0  0
 25 28  2  0  0  0  0
 25 57  1  0  0  0  0
 26 30  2  0  0  0  0
 26 31  1  0  0  0  0
 27 29  2  0  0  0  0
 27 58  1  0  0  0  0
 28 29  1  0  0  0  0
 28 59  1  0  0  0  0
 30 32  1  0  0  0  0
 30 60  1  0  0  0  0
 31 33  2  0  0  0  0
 31 61  1  0  0  0  0
 32 34  2  0  0  0  0
 32 62  1  0  0  0  0
 33 34  1  0  0  0  0
 33 63  1  0  0  0  0
 34 36  1  0  0  0  0
 35 64  1  0  0  0  0
 35 65  1  0  0  0  0
 35 66  1  0  0  0  0
 36 37  1  0  0  0  0
 37 67  1  0  0  0  0
 37 68  1  0  0  0  0
 37 69  1  0  0  0  0
M  END
> <PUBCHEM_COMPOUND_CID>
40776827

> <PUBCHEM_CONFORMER_RMSD>
1

> <PUBCHEM_CONFORMER_DIVERSEORDER>
1
75
43
19
29
110
44
33
148
78
147
3
16
102
35
40
86
115
122
83
67
104
106
36
63
80
119
77
101
60
141
53
85
140
54
66
144
52
20
150
13
95
100
109
74
132
56
125
28
105
27
151
137
14
32
98
111
71
94
128
68
149
49
143
129
55
65
135
84
25
133
45
152
38
70
46
131
24
11
87
138
73
58
64
37
81
15
62
107
41
23
47
97
113
127
123
42
48
34
99
22
134
108
142
92
76
118
72
89
57
51
10
6
59
12
26
17
79
61
18
103
9
31
21
153
5
50
90
124
126
120
117
91
69
96
114
4
7
2
139
30
93
8
130
82
112
136
146
39
121
145
88
116

> <PUBCHEM_MMFF94_PARTIAL_CHARGES>
43
1 -0.43
10 0.14
11 0.27
14 0.27
15 0.27
16 0.28
17 0.17
18 -0.15
19 0.31
2 -0.57
20 0.48
21 0.78
23 0.14
24 -0.15
25 -0.15
26 0.12
27 -0.15
28 -0.15
29 0.08
3 -0.36
30 -0.15
31 -0.15
32 -0.15
33 -0.15
34 0.09
35 0.28
36 0.42
37 0.06
4 -0.57
5 -0.81
51 0.15
55 0.37
56 0.15
57 0.15
58 0.15
59 0.15
6 -0.62
60 0.15
61 0.15
62 0.15
63 0.15
7 -0.62
8 -0.55

> <PUBCHEM_EFFECTIVE_ROTOR_COUNT>
10.2

> <PUBCHEM_PHARMACOPHORE_FEATURES>
11
1 2 acceptor
1 3 acceptor
1 4 acceptor
1 5 cation
1 6 acceptor
1 8 donor
3 6 7 20 cation
6 22 24 25 27 28 29 rings
6 26 30 31 32 33 34 rings
6 6 7 17 18 19 20 rings
8 5 9 10 11 12 13 14 15 rings

> <PUBCHEM_HEAVY_ATOM_COUNT>
37

> <PUBCHEM_ATOM_DEF_STEREO_COUNT>
3

> <PUBCHEM_ATOM_UDEF_STEREO_COUNT>
0

> <PUBCHEM_BOND_DEF_STEREO_COUNT>
0

> <PUBCHEM_BOND_UDEF_STEREO_COUNT>
0

> <PUBCHEM_ISOTOPIC_ATOM_COUNT>
0

> <PUBCHEM_COMPONENT_COUNT>
1

> <PUBCHEM_CACTVS_TAUTO_COUNT>
9

> <PUBCHEM_CONFORMER_ID>
026E347B00000001

> <PUBCHEM_MMFF94_ENERGY>
123.1589

> <PUBCHEM_FEATURE_SELFOVERLAP>
55.823

> <PUBCHEM_SHAPE_FINGERPRINT>
11211813 15 10665228155111807207
11409948 35 18263926713152125135
11421887 103 9727361181875998522
11607047 141 17825116050723319029
11607047 74 11742192068716753277
117089 54 18409171029984866259
11756154 5 18409720786067675762
12013929 27 18187086123079264910
12061779 8 11671774941489516958
12106331 60 18269261397066231594
15152005 1 18341050804155824663
15467298 65 17973998445833747610
15684393 108 18336549408615797508
15773216 30 18046634679124318364
15803439 3 14562529591446647024
16728300 4 18129948996345631657
19246450 95 17846790577196228705
19303781 99 18340754984783884750
208703 8 18409726253750739596
21057603 238 17968366932671561295
21057603 293 11095336136421354019
21130935 74 17834118925094186555
21716022 299 18042978751032128477
22899556 105 18337969964897088988
23569914 2 13827638994260491123
3862424 121 18261678172179224910
4112364 45 11527407969023731845
4330586 98 17677343817663426106
437795 150 18340486639448611294
44280117 145 18337956680658037940
44802255 64 17611744509450105740
44880168 125 17917137385990072518
474113 269 18199461242714622615
4756326 101 12966859984021872779
513202 73 18202281390036898916
5372103 7 9006789678523904723
57816373 69 17976536432434628079
58260988 114 18270967842764429632
6201320 77 16773246085204866844
86090 222 17460861050811584545
9896288 288 18058171609462135497

> <PUBCHEM_SHAPE_MULTIPOLES>
718.04
27.01
6.99
2.11
39.77
4.34
-1.62
-54.48
2.17
-6.46
3.13
-1.74
0.01
2.46

> <PUBCHEM_SHAPE_SELFOVERLAP>
1557.133

> <PUBCHEM_SHAPE_VOLUME>
387.5

> <PUBCHEM_COORDINATE_TYPE>
2
5
10

$$$$
