7134327
  -OEChem-12032416123D

 64 65  0     1  0  0  0  0  0999 V2000
    4.8603    3.3814   -0.6567 S   0  0  0  0  0  0  0  0  0  0  0  0
   -1.4669   -1.1485    1.7043 O   0  0  0  0  0  0  0  0  0  0  0  0
   -3.6135    2.2914    1.6558 O   0  0  0  0  0  0  0  0  0  0  0  0
   -5.1312    1.5223   -0.2093 O   0  0  0  0  0  0  0  0  0  0  0  0
    3.6236   -0.1936    0.3837 O   0  0  0  0  0  0  0  0  0  0  0  0
   -2.2148   -3.7671   -1.1865 O   0  0  0  0  0  0  0  0  0  0  0  0
   -8.1834    1.1891   -2.0646 O   0  0  0  0  0  0  0  0  0  0  0  0
   -7.7700    2.1831   -0.0575 O   0  0  0  0  0  0  0  0  0  0  0  0
   -1.6636    1.3033    0.8541 N   0  0  0  0  0  0  0  0  0  0  0  0
    2.5239    1.8221    0.3146 N   0  0  0  0  0  0  0  0  0  0  0  0
   -0.4075   -1.9430   -0.2103 N   0  0  0  0  0  0  0  0  0  0  0  0
   -1.8879   -5.0480    0.6916 N   0  0  0  0  0  0  0  0  0  0  0  0
    7.0356    2.1963   -1.0319 N   0  0  0  0  0  0  0  0  0  0  0  0
    6.4718    3.3909   -1.1137 N   0  0  0  0  0  0  0  0  0  0  0  0
    1.2539    1.2909    0.7472 C   0  0  2  0  0  0  0  0  0  0  0  0
   -0.9910    0.3769   -0.0712 C   0  0  1  0  0  0  0  0  0  0  0  0
    0.4221    0.8252   -0.4512 C   0  0  0  0  0  0  0  0  0  0  0  0
    0.4821    2.3321    1.5546 C   0  0  0  0  0  0  0  0  0  0  0  0
   -0.8713    1.7870    1.9910 C   0  0  0  0  0  0  0  0  0  0  0  0
   -0.9978   -0.9739    0.5828 C   0  0  0  0  0  0  0  0  0  0  0  0
   -3.0256    1.6227    0.8014 C   0  0  0  0  0  0  0  0  0  0  0  0
   -0.2674   -3.3218    0.1991 C   0  0  2  0  0  0  0  0  0  0  0  0
    0.9336   -4.0065   -0.4652 C   0  0  0  0  0  0  0  0  0  0  0  0
    2.2924   -3.3248   -0.2046 C   0  0  0  0  0  0  0  0  0  0  0  0
   -3.7975    1.1143   -0.3910 C   0  0  0  0  0  0  0  0  0  0  0  0
    3.6519    1.0179    0.1592 C   0  0  0  0  0  0  0  0  0  0  0  0
   -1.5582   -4.0338   -0.1827 C   0  0  0  0  0  0  0  0  0  0  0  0
    2.6403   -3.2683    1.2834 C   0  0  0  0  0  0  0  0  0  0  0  0
    3.3961   -4.0663   -0.9641 C   0  0  0  0  0  0  0  0  0  0  0  0
    4.8628    1.6993   -0.3198 C   0  0  0  0  0  0  0  0  0  0  0  0
    6.1373    1.2400   -0.5862 C   0  0  0  0  0  0  0  0  0  0  0  0
   -5.9724    1.0989   -1.2809 C   0  0  0  0  0  0  0  0  0  0  0  0
    6.6138   -0.1502   -0.4408 C   0  0  0  0  0  0  0  0  0  0  0  0
   -7.3819    1.5610   -1.0349 C   0  0  0  0  0  0  0  0  0  0  0  0
    1.4504    0.4259    1.3938 H   0  0  0  0  0  0  0  0  0  0  0  0
   -1.5687    0.2823   -0.9954 H   0  0  0  0  0  0  0  0  0  0  0  0
    0.3262    1.6713   -1.1473 H   0  0  0  0  0  0  0  0  0  0  0  0
    0.9704    0.0571   -1.0076 H   0  0  0  0  0  0  0  0  0  0  0  0
    1.0608    2.6336    2.4359 H   0  0  0  0  0  0  0  0  0  0  0  0
    0.3338    3.2374    0.9511 H   0  0  0  0  0  0  0  0  0  0  0  0
   -1.4163    2.5732    2.5242 H   0  0  0  0  0  0  0  0  0  0  0  0
   -0.7390    0.9640    2.7010 H   0  0  0  0  0  0  0  0  0  0  0  0
    2.5783    2.8055    0.0644 H   0  0  0  0  0  0  0  0  0  0  0  0
   -0.1665   -3.3471    1.2903 H   0  0  0  0  0  0  0  0  0  0  0  0
   -0.1664   -1.7168   -1.1705 H   0  0  0  0  0  0  0  0  0  0  0  0
    0.9795   -5.0518   -0.1312 H   0  0  0  0  0  0  0  0  0  0  0  0
    0.7659   -4.0464   -1.5505 H   0  0  0  0  0  0  0  0  0  0  0  0
    2.2572   -2.3004   -0.5928 H   0  0  0  0  0  0  0  0  0  0  0  0
   -3.7456    0.0215   -0.4258 H   0  0  0  0  0  0  0  0  0  0  0  0
   -3.3891    1.5584   -1.3046 H   0  0  0  0  0  0  0  0  0  0  0  0
    3.6494   -2.8695    1.4335 H   0  0  0  0  0  0  0  0  0  0  0  0
    1.9508   -2.6162    1.8280 H   0  0  0  0  0  0  0  0  0  0  0  0
    2.6012   -4.2640    1.7380 H   0  0  0  0  0  0  0  0  0  0  0  0
    3.1826   -4.0878   -2.0380 H   0  0  0  0  0  0  0  0  0  0  0  0
    4.3628   -3.5697   -0.8276 H   0  0  0  0  0  0  0  0  0  0  0  0
    3.4936   -5.1003   -0.6160 H   0  0  0  0  0  0  0  0  0  0  0  0
   -1.3237   -5.2725    1.5048 H   0  0  0  0  0  0  0  0  0  0  0  0
   -2.7186   -5.6118    0.5450 H   0  0  0  0  0  0  0  0  0  0  0  0
   -5.6167    1.5402   -2.2179 H   0  0  0  0  0  0  0  0  0  0  0  0
   -5.9672    0.0054   -1.3389 H   0  0  0  0  0  0  0  0  0  0  0  0
    6.0415   -0.8251   -1.0851 H   0  0  0  0  0  0  0  0  0  0  0  0
    7.6691   -0.2369   -0.7191 H   0  0  0  0  0  0  0  0  0  0  0  0
    6.5124   -0.4879    0.5955 H   0  0  0  0  0  0  0  0  0  0  0  0
   -9.1108    1.4792   -1.9298 H   0  0  0  0  0  0  0  0  0  0  0  0
  1 14  1  0  0  0  0
  1 30  1  0  0  0  0
  2 20  2  0  0  0  0
  3 21  2  0  0  0  0
  4 25  1  0  0  0  0
  4 32  1  0  0  0  0
  5 26  2  0  0  0  0
  6 27  2  0  0  0  0
  7 34  1  0  0  0  0
  7 64  1  0  0  0  0
  8 34  2  0  0  0  0
  9 16  1  0  0  0  0
  9 19  1  0  0  0  0
  9 21  1  0  0  0  0
 10 15  1  0  0  0  0
 10 26  1  0  0  0  0
 10 43  1  0  0  0  0
 11 20  1  0  0  0  0
 11 22  1  0  0  0  0
 11 45  1  0  0  0  0
 12 27  1  0  0  0  0
 12 57  1  0  0  0  0
 12 58  1  0  0  0  0
 13 14  2  0  0  0  0
 13 31  1  0  0  0  0
 15 17  1  0  0  0  0
 15 18  1  0  0  0  0
 15 35  1  0  0  0  0
 16 17  1  0  0  0  0
 16 20  1  0  0  0  0
 16 36  1  0  0  0  0
 17 37  1  0  0  0  0
 17 38  1  0  0  0  0
 18 19  1  0  0  0  0
 18 39  1  0  0  0  0
 18 40  1  0  0  0  0
 19 41  1  0  0  0  0
 19 42  1  0  0  0  0
 21 25  1  0  0  0  0
 22 23  1  0  0  0  0
 22 27  1  0  0  0  0
 22 44  1  0  0  0  0
 23 24  1  0  0  0  0
 23 46  1  0  0  0  0
 23 47  1  0  0  0  0
 24 28  1  0  0  0  0
 24 29  1  0  0  0  0
 24 48  1  0  0  0  0
 25 49  1  0  0  0  0
 25 50  1  0  0  0  0
 26 30  1  0  0  0  0
 28 51  1  0  0  0  0
 28 52  1  0  0  0  0
 28 53  1  0  0  0  0
 29 54  1  0  0  0  0
 29 55  1  0  0  0  0
 29 56  1  0  0  0  0
 30 31  2  0  0  0  0
 31 33  1  0  0  0  0
 32 34  1  0  0  0  0
 32 59  1  0  0  0  0
 32 60  1  0  0  0  0
 33 61  1  0  0  0  0
 33 62  1  0  0  0  0
 33 63  1  0  0  0  0
M  END
> <PUBCHEM_COMPOUND_CID>
7134327

> <PUBCHEM_CONFORMER_RMSD>
1.2

> <PUBCHEM_CONFORMER_DIVERSEORDER>
1
32
15
12
8
19
37
34
27
17
38
10
39
5
24
6
25
23
40
35
30
45
13
22
3
43
29
9
42
16
14
44
21
26
33
31
28
4
20
41
36
18
7
11
46
2

> <PUBCHEM_MMFF94_PARTIAL_CHARGES>
33
1 0.18
10 -0.73
11 -0.73
12 -0.8
13 -0.23
14 -0.22
15 0.3
16 0.36
19 0.3
2 -0.57
20 0.57
21 0.57
22 0.36
25 0.34
26 0.71
27 0.57
3 -0.57
30 -0.05
31 0.05
32 0.34
33 0.18
34 0.66
4 -0.56
43 0.37
45 0.37
5 -0.57
57 0.37
58 0.37
6 -0.57
64 0.5
7 -0.65
8 -0.57
9 -0.66

> <PUBCHEM_EFFECTIVE_ROTOR_COUNT>
15.2

> <PUBCHEM_PHARMACOPHORE_FEATURES>
14
1 10 donor
1 11 donor
1 12 donor
1 2 acceptor
1 3 acceptor
1 4 acceptor
1 5 acceptor
1 6 acceptor
1 7 acceptor
1 8 acceptor
3 24 28 29 hydrophobe
3 7 8 34 anion
5 1 13 14 30 31 rings
6 9 15 16 17 18 19 rings

> <PUBCHEM_HEAVY_ATOM_COUNT>
34

> <PUBCHEM_ATOM_DEF_STEREO_COUNT>
3

> <PUBCHEM_ATOM_UDEF_STEREO_COUNT>
0

> <PUBCHEM_BOND_DEF_STEREO_COUNT>
0

> <PUBCHEM_BOND_UDEF_STEREO_COUNT>
0

> <PUBCHEM_ISOTOPIC_ATOM_COUNT>
0

> <PUBCHEM_COMPONENT_COUNT>
1

> <PUBCHEM_CACTVS_TAUTO_COUNT>
8

> <PUBCHEM_CONFORMER_ID>
006CDC7700000001

> <PUBCHEM_MMFF94_ENERGY>
58.2258

> <PUBCHEM_FEATURE_SELFOVERLAP>
71.13

> <PUBCHEM_SHAPE_FINGERPRINT>
11135609 187 18411416198411471841
11763715 3 17043472842841346967
11991303 11 18262516008951090159
12522641 33 18334856100616351109
12788726 201 17978791534993781202
13540713 5 17843411674226215857
1361 2 18267863882910878907
13911987 19 18411421722056100929
14040221 97 18188790455679003621
14117953 113 18410014300486323332
15439362 3 18336827498773150005
15927050 60 18343029890725563114
20028762 73 17842830032775718575
20554085 129 18201422697911140896
21344244 246 18340485560836631231
23569943 247 13899142468666331108
25147074 1 17773317829999856081
27425 322 17458914846474344708
3633792 109 18339927017462166012
4058900 60 18339648841283849065
5265222 85 18120942968783629676
59755656 520 18409440414950230077
6898599 12 18119819263874406300

> <PUBCHEM_SHAPE_MULTIPOLES>
632.58
16.97
6.43
1.43
13.34
9.55
0.25
-20.33
-10.54
-2.96
-0.44
1.23
-0.53
-0.65

> <PUBCHEM_SHAPE_SELFOVERLAP>
1278.953

> <PUBCHEM_SHAPE_VOLUME>
369.5

> <PUBCHEM_COORDINATE_TYPE>
2
5
10

$$$$
