7050310
  -OEChem-12032416123D

 52 55  0     1  0  0  0  0  0999 V2000
    5.0947    1.6999    0.9879 S   0  0  0  0  0  0  0  0  0  0  0  0
   -1.2983    1.7611   -1.0397 O   0  0  0  0  0  0  0  0  0  0  0  0
   -1.7353   -2.1524    1.4207 O   0  0  0  0  0  0  0  0  0  0  0  0
    5.1156   -1.3658   -1.4012 O   0  0  0  0  0  0  0  0  0  0  0  0
    0.0728   -0.9264    0.6384 N   0  0  0  0  0  0  0  0  0  0  0  0
   -1.9771   -0.1280    0.2156 N   0  0  0  0  0  0  0  0  0  0  0  0
    3.3882   -0.1755   -0.4654 N   0  0  0  0  0  0  0  0  0  0  0  0
    7.5820    1.4542    0.8137 N   0  0  0  0  0  0  0  0  0  0  0  0
    6.6453    2.1984    1.3795 N   0  0  0  0  0  0  0  0  0  0  0  0
    0.3350    0.2605   -0.1287 C   0  0  1  0  0  0  0  0  0  0  0  0
    1.1113   -0.0723   -1.3990 C   0  0  0  0  0  0  0  0  0  0  0  0
    2.3435   -0.9447   -1.1018 C   0  0  2  0  0  0  0  0  0  0  0  0
    1.9716   -2.1730   -0.2527 C   0  0  0  0  0  0  0  0  0  0  0  0
    1.1774   -1.7968    0.9995 C   0  0  0  0  0  0  0  0  0  0  0  0
   -1.0802    0.7391   -0.4006 C   0  0  0  0  0  0  0  0  0  0  0  0
   -1.2867   -1.1694    0.8437 C   0  0  0  0  0  0  0  0  0  0  0  0
   -3.4016    0.0096    0.1914 C   0  0  0  0  0  0  0  0  0  0  0  0
    4.7389   -0.4502   -0.6675 C   0  0  0  0  0  0  0  0  0  0  0  0
   -4.1701   -0.4565    1.2612 C   0  0  0  0  0  0  0  0  0  0  0  0
   -4.0307    0.6106   -0.9018 C   0  0  0  0  0  0  0  0  0  0  0  0
   -6.1827    0.2780    0.1447 C   0  0  0  0  0  0  0  0  0  0  0  0
   -5.5584   -0.3227    1.2378 C   0  0  0  0  0  0  0  0  0  0  0  0
   -5.4189    0.7447   -0.9251 C   0  0  0  0  0  0  0  0  0  0  0  0
    5.6817    0.4411    0.0229 C   0  0  0  0  0  0  0  0  0  0  0  0
   -7.6672    0.4213    0.1196 C   0  0  0  0  0  0  0  0  0  0  0  0
    7.0309    0.4477    0.0368 C   0  0  0  0  0  0  0  0  0  0  0  0
   -8.3139   -0.3541   -1.0438 C   0  0  0  0  0  0  0  0  0  0  0  0
   -8.1158    1.8943    0.0788 C   0  0  0  0  0  0  0  0  0  0  0  0
    7.9481   -0.4727   -0.6650 C   0  0  0  0  0  0  0  0  0  0  0  0
    0.8532    0.9845    0.5085 H   0  0  0  0  0  0  0  0  0  0  0  0
    0.4590   -0.6178   -2.0946 H   0  0  0  0  0  0  0  0  0  0  0  0
    1.4038    0.8529   -1.9104 H   0  0  0  0  0  0  0  0  0  0  0  0
    2.7372   -1.3029   -2.0611 H   0  0  0  0  0  0  0  0  0  0  0  0
    2.8662   -2.7373    0.0352 H   0  0  0  0  0  0  0  0  0  0  0  0
    1.3548   -2.8417   -0.8674 H   0  0  0  0  0  0  0  0  0  0  0  0
    0.7971   -2.6940    1.4978 H   0  0  0  0  0  0  0  0  0  0  0  0
    1.8083   -1.2526    1.7108 H   0  0  0  0  0  0  0  0  0  0  0  0
    3.1251    0.5653    0.1780 H   0  0  0  0  0  0  0  0  0  0  0  0
   -3.7165   -0.9009    2.1418 H   0  0  0  0  0  0  0  0  0  0  0  0
   -3.4733    0.9567   -1.7665 H   0  0  0  0  0  0  0  0  0  0  0  0
   -6.1380   -0.6854    2.0825 H   0  0  0  0  0  0  0  0  0  0  0  0
   -5.8851    1.2095   -1.7894 H   0  0  0  0  0  0  0  0  0  0  0  0
   -8.0802   -0.0042    1.0444 H   0  0  0  0  0  0  0  0  0  0  0  0
   -8.0219    0.0509   -2.0187 H   0  0  0  0  0  0  0  0  0  0  0  0
   -9.4061   -0.3060   -0.9767 H   0  0  0  0  0  0  0  0  0  0  0  0
   -8.0216   -1.4098   -1.0177 H   0  0  0  0  0  0  0  0  0  0  0  0
   -7.6815    2.4564    0.9131 H   0  0  0  0  0  0  0  0  0  0  0  0
   -9.2061    1.9657    0.1568 H   0  0  0  0  0  0  0  0  0  0  0  0
   -7.8151    2.3886   -0.8512 H   0  0  0  0  0  0  0  0  0  0  0  0
    8.9934   -0.2228   -0.4560 H   0  0  0  0  0  0  0  0  0  0  0  0
    7.7816   -1.5058   -0.3439 H   0  0  0  0  0  0  0  0  0  0  0  0
    7.8013   -0.4151   -1.7482 H   0  0  0  0  0  0  0  0  0  0  0  0
  1  9  1  0  0  0  0
  1 24  1  0  0  0  0
  2 15  2  0  0  0  0
  3 16  2  0  0  0  0
  4 18  2  0  0  0  0
  5 10  1  0  0  0  0
  5 14  1  0  0  0  0
  5 16  1  0  0  0  0
  6 15  1  0  0  0  0
  6 16  1  0  0  0  0
  6 17  1  0  0  0  0
  7 12  1  0  0  0  0
  7 18  1  0  0  0  0
  7 38  1  0  0  0  0
  8  9  2  0  0  0  0
  8 26  1  0  0  0  0
 10 11  1  0  0  0  0
 10 15  1  0  0  0  0
 10 30  1  0  0  0  0
 11 12  1  0  0  0  0
 11 31  1  0  0  0  0
 11 32  1  0  0  0  0
 12 13  1  0  0  0  0
 12 33  1  0  0  0  0
 13 14  1  0  0  0  0
 13 34  1  0  0  0  0
 13 35  1  0  0  0  0
 14 36  1  0  0  0  0
 14 37  1  0  0  0  0
 17 19  2  0  0  0  0
 17 20  1  0  0  0  0
 18 24  1  0  0  0  0
 19 22  1  0  0  0  0
 19 39  1  0  0  0  0
 20 23  2  0  0  0  0
 20 40  1  0  0  0  0
 21 22  2  0  0  0  0
 21 23  1  0  0  0  0
 21 25  1  0  0  0  0
 22 41  1  0  0  0  0
 23 42  1  0  0  0  0
 24 26  2  0  0  0  0
 25 27  1  0  0  0  0
 25 28  1  0  0  0  0
 25 43  1  0  0  0  0
 26 29  1  0  0  0  0
 27 44  1  0  0  0  0
 27 45  1  0  0  0  0
 27 46  1  0  0  0  0
 28 47  1  0  0  0  0
 28 48  1  0  0  0  0
 28 49  1  0  0  0  0
 29 50  1  0  0  0  0
 29 51  1  0  0  0  0
 29 52  1  0  0  0  0
M  END
> <PUBCHEM_COMPOUND_CID>
7050310

> <PUBCHEM_CONFORMER_RMSD>
0.8

> <PUBCHEM_CONFORMER_DIVERSEORDER>
1
11
13
20
21
30
3
14
6
4
26
9
18
22
27
7
2
17
25
29
15
12
23
19
5
16
8
10
24
28

> <PUBCHEM_MMFF94_PARTIAL_CHARGES>
30
1 0.18
10 0.36
12 0.3
14 0.3
15 0.57
16 0.69
17 0.12
18 0.71
19 -0.15
2 -0.57
20 -0.15
21 -0.14
22 -0.15
23 -0.15
24 -0.05
25 0.14
26 0.05
29 0.18
3 -0.57
38 0.37
39 0.15
4 -0.57
40 0.15
41 0.15
42 0.15
5 -0.66
6 -0.24
7 -0.73
8 -0.23
9 -0.22

> <PUBCHEM_EFFECTIVE_ROTOR_COUNT>
6

> <PUBCHEM_PHARMACOPHORE_FEATURES>
9
1 2 acceptor
1 3 acceptor
1 4 acceptor
1 7 donor
3 25 27 28 hydrophobe
5 1 8 9 24 26 rings
5 5 6 10 15 16 rings
6 17 19 20 21 22 23 rings
6 5 10 11 12 13 14 rings

> <PUBCHEM_HEAVY_ATOM_COUNT>
29

> <PUBCHEM_ATOM_DEF_STEREO_COUNT>
2

> <PUBCHEM_ATOM_UDEF_STEREO_COUNT>
0

> <PUBCHEM_BOND_DEF_STEREO_COUNT>
0

> <PUBCHEM_BOND_UDEF_STEREO_COUNT>
0

> <PUBCHEM_ISOTOPIC_ATOM_COUNT>
0

> <PUBCHEM_COMPONENT_COUNT>
1

> <PUBCHEM_CACTVS_TAUTO_COUNT>
2

> <PUBCHEM_CONFORMER_ID>
006B944600000001

> <PUBCHEM_MMFF94_ENERGY>
64.7857

> <PUBCHEM_FEATURE_SELFOVERLAP>
45.784

> <PUBCHEM_SHAPE_FINGERPRINT>
10 15 17603588560460395404
10076449 9 12391513096414725691
10299344 5 16272209678334671927
11181472 205 17344357649342055689
11315181 36 17346883347936364835
11646440 116 18260277342884106393
11719270 70 17312821558921902090
12236239 1 15698285504142014132
12522641 24 18336257943608914618
12838862 33 17894619362884593863
13165053 68 17129282437066346893
13533116 47 18188485775495568746
13560911 43 16153433839586077813
13673619 4 10303815375758144010
14028597 1 15430309196688366637
14040221 8 16056602003118603537
14251764 18 14707208825034935510
14251764 46 17748830704366680335
15183329 4 15195570112645538072
15419008 47 18333446538872797252
15439362 3 16915077763391968800
15461852 350 18261115218384809479
18335252 114 17418093218034952776
19301679 30 14635411755687776896
20157964 124 17989490715166130062
20554085 129 17967529077922625114
21150785 3 16845573123662694039
21521721 280 18202284701419728107
21792934 111 17822002060744389386
22224240 67 18409446998702584054
23522609 53 15553628269091391731
23559900 14 18335423499359559104
24771293 8 18334858312255957365
335352 9 17967256411638943223
34797466 226 17775007868948349622
397830 11 18266185117860335138
4093350 32 17988927742951687542
4325135 7 17131834257209119148
4339292 15 16154001248843816555
4340502 62 18113617867647750774
4625314 4 17846499222766193191
5385378 56 17676486094913211419
5758199 1 18261111851245928891
58902169 19 16845286168582722228
59682541 35 18333733541793190073

> <PUBCHEM_SHAPE_MULTIPOLES>
558.14
24.96
1.82
1.3
2.81
0.02
-0.05
10.36
0.48
-1.49
-0.47
-0.04
-0.13
2.1

> <PUBCHEM_SHAPE_SELFOVERLAP>
1189.82

> <PUBCHEM_SHAPE_VOLUME>
313.6

> <PUBCHEM_COORDINATE_TYPE>
2
5
10

$$$$
