26743454
  -OEChem-12032416293D

 48 51  0     1  0  0  0  0  0999 V2000
    2.0010   -0.0913    0.1126 S   0  0  0  0  0  0  0  0  0  0  0  0
    7.7846    1.0215    0.3838 F   0  0  0  0  0  0  0  0  0  0  0  0
   -5.5564    3.3998    0.8488 O   0  0  0  0  0  0  0  0  0  0  0  0
   -1.8398    0.0156   -2.2598 O   0  0  0  0  0  0  0  0  0  0  0  0
    1.8269   -1.4700   -0.3049 O   0  0  0  0  0  0  0  0  0  0  0  0
    1.4162    0.3821    1.3529 O   0  0  0  0  0  0  0  0  0  0  0  0
   -3.7173    0.3396    0.6931 N   0  0  1  0  0  0  0  0  0  0  0  0
   -0.9489    1.1559   -0.5503 N   0  0  0  0  0  0  0  0  0  0  0  0
   -0.4541    0.0041   -2.4641 N   0  0  0  0  0  0  0  0  0  0  0  0
   -2.6852   -2.7653   -0.4585 N   0  0  0  0  0  0  0  0  0  0  0  0
   -3.4835    0.8703   -0.6654 C   0  0  1  0  0  0  0  0  0  0  0  0
   -3.9286    2.3429   -0.5949 C   0  0  0  0  0  0  0  0  0  0  0  0
   -4.4390    2.5330    0.8281 C   0  0  2  0  0  0  0  0  0  0  0  0
   -4.8084    1.1276    1.2632 C   0  0  0  0  0  0  0  0  0  0  0  0
   -4.0053   -1.0886    0.7101 C   0  0  0  0  0  0  0  0  0  0  0  0
   -2.0453    0.7140   -1.1127 C   0  0  0  0  0  0  0  0  0  0  0  0
   -2.7522   -1.9147    0.5900 C   0  0  0  0  0  0  0  0  0  0  0  0
    0.0010    0.6959   -1.4152 C   0  0  0  0  0  0  0  0  0  0  0  0
    1.4324    0.9425   -1.2086 C   0  0  0  0  0  0  0  0  0  0  0  0
   -1.7499   -1.7682    1.5355 C   0  0  0  0  0  0  0  0  0  0  0  0
    3.7339    0.2422    0.1946 C   0  0  0  0  0  0  0  0  0  0  0  0
   -0.6050   -2.5447    1.3954 C   0  0  0  0  0  0  0  0  0  0  0  0
   -1.5573   -3.5035   -0.5618 C   0  0  0  0  0  0  0  0  0  0  0  0
   -0.4990   -3.4312    0.3295 C   0  0  0  0  0  0  0  0  0  0  0  0
    4.2095    1.2655    1.0147 C   0  0  0  0  0  0  0  0  0  0  0  0
    4.6266   -0.5178   -0.5612 C   0  0  0  0  0  0  0  0  0  0  0  0
    5.5777    1.5286    1.0789 C   0  0  0  0  0  0  0  0  0  0  0  0
    5.9948   -0.2545   -0.4970 C   0  0  0  0  0  0  0  0  0  0  0  0
    6.4705    0.7687    0.3232 C   0  0  0  0  0  0  0  0  0  0  0  0
   -4.1354    0.3693   -1.3950 H   0  0  0  0  0  0  0  0  0  0  0  0
   -3.1226    3.0544   -0.8076 H   0  0  0  0  0  0  0  0  0  0  0  0
   -4.7267    2.5325   -1.3236 H   0  0  0  0  0  0  0  0  0  0  0  0
   -3.6515    2.9452    1.4709 H   0  0  0  0  0  0  0  0  0  0  0  0
   -4.8515    1.0481    2.3545 H   0  0  0  0  0  0  0  0  0  0  0  0
   -5.7895    0.8396    0.8628 H   0  0  0  0  0  0  0  0  0  0  0  0
   -4.7324   -1.3694   -0.0630 H   0  0  0  0  0  0  0  0  0  0  0  0
   -4.4643   -1.3667    1.6690 H   0  0  0  0  0  0  0  0  0  0  0  0
   -5.2685    4.2560    0.4886 H   0  0  0  0  0  0  0  0  0  0  0  0
    1.6139    1.9843   -0.9288 H   0  0  0  0  0  0  0  0  0  0  0  0
    2.0176    0.7038   -2.1018 H   0  0  0  0  0  0  0  0  0  0  0  0
   -1.8404   -1.0782    2.3675 H   0  0  0  0  0  0  0  0  0  0  0  0
    0.2014   -2.4618    2.1179 H   0  0  0  0  0  0  0  0  0  0  0  0
   -1.5240   -4.1791   -1.4100 H   0  0  0  0  0  0  0  0  0  0  0  0
    0.3826   -4.0489    0.2020 H   0  0  0  0  0  0  0  0  0  0  0  0
    3.5315    1.8744    1.6060 H   0  0  0  0  0  0  0  0  0  0  0  0
    4.2766   -1.3148   -1.2111 H   0  0  0  0  0  0  0  0  0  0  0  0
    5.9484    2.3263    1.7158 H   0  0  0  0  0  0  0  0  0  0  0  0
    6.6902   -0.8448   -1.0866 H   0  0  0  0  0  0  0  0  0  0  0  0
  1  5  2  0  0  0  0
  1  6  2  0  0  0  0
  1 19  1  0  0  0  0
  1 21  1  0  0  0  0
  2 29  1  0  0  0  0
  3 13  1  0  0  0  0
  3 38  1  0  0  0  0
  4  9  1  0  0  0  0
  4 16  1  0  0  0  0
  7 11  1  0  0  0  0
  7 14  1  0  0  0  0
  7 15  1  0  0  0  0
  8 16  2  0  0  0  0
  8 18  1  0  0  0  0
  9 18  2  0  0  0  0
 10 17  1  0  0  0  0
 10 23  2  0  0  0  0
 11 12  1  0  0  0  0
 11 16  1  0  0  0  0
 11 30  1  0  0  0  0
 12 13  1  0  0  0  0
 12 31  1  0  0  0  0
 12 32  1  0  0  0  0
 13 14  1  0  0  0  0
 13 33  1  0  0  0  0
 14 34  1  0  0  0  0
 14 35  1  0  0  0  0
 15 17  1  0  0  0  0
 15 36  1  0  0  0  0
 15 37  1  0  0  0  0
 17 20  2  0  0  0  0
 18 19  1  0  0  0  0
 19 39  1  0  0  0  0
 19 40  1  0  0  0  0
 20 22  1  0  0  0  0
 20 41  1  0  0  0  0
 21 25  2  0  0  0  0
 21 26  1  0  0  0  0
 22 24  2  0  0  0  0
 22 42  1  0  0  0  0
 23 24  1  0  0  0  0
 23 43  1  0  0  0  0
 24 44  1  0  0  0  0
 25 27  1  0  0  0  0
 25 45  1  0  0  0  0
 26 28  2  0  0  0  0
 26 46  1  0  0  0  0
 27 29  2  0  0  0  0
 27 47  1  0  0  0  0
 28 29  1  0  0  0  0
 28 48  1  0  0  0  0
M  END
> <PUBCHEM_COMPOUND_CID>
26743454

> <PUBCHEM_CONFORMER_RMSD>
1.4

> <PUBCHEM_CONFORMER_DIVERSEORDER>
1
8
55
39
12
59
3
9
51
56
80
27
45
41
53
65
82
44
75
29
46
76
26
10
74
73
43
17
48
37
61
66
64
63
6
50
71
52
28
16
40
25
67
58
57
34
18
14
2
68
72
70
81
79
35
47
69
54
4
11
30
23
36
77
13
32
62
31
78
24
20
60
7
49
38
42
19
21
33
15
5
22

> <PUBCHEM_MMFF94_PARTIAL_CHARGES>
37
1 1.2
10 -0.62
11 0.45
13 0.28
14 0.27
15 0.41
16 0.3
17 0.17
18 0.34
19 0.29
2 -0.19
20 -0.15
21 -0.01
22 -0.15
23 0.16
24 -0.15
25 -0.15
26 -0.15
27 -0.15
28 -0.15
29 0.19
3 -0.68
38 0.4
4 -0.02
41 0.15
42 0.15
43 0.15
44 0.15
45 0.15
46 0.15
47 0.15
48 0.15
5 -0.65
6 -0.65
7 -0.81
8 -0.57
9 -0.41

> <PUBCHEM_EFFECTIVE_ROTOR_COUNT>
7

> <PUBCHEM_PHARMACOPHORE_FEATURES>
11
1 10 acceptor
1 3 acceptor
1 3 donor
1 5 acceptor
1 6 acceptor
1 7 cation
3 8 9 18 cation
5 4 8 9 16 18 rings
5 7 11 12 13 14 rings
6 10 17 20 22 23 24 rings
6 21 25 26 27 28 29 rings

> <PUBCHEM_HEAVY_ATOM_COUNT>
29

> <PUBCHEM_ATOM_DEF_STEREO_COUNT>
2

> <PUBCHEM_ATOM_UDEF_STEREO_COUNT>
0

> <PUBCHEM_BOND_DEF_STEREO_COUNT>
0

> <PUBCHEM_BOND_UDEF_STEREO_COUNT>
0

> <PUBCHEM_ISOTOPIC_ATOM_COUNT>
0

> <PUBCHEM_COMPONENT_COUNT>
1

> <PUBCHEM_CACTVS_TAUTO_COUNT>
1

> <PUBCHEM_CONFORMER_ID>
0198129E00000001

> <PUBCHEM_MMFF94_ENERGY>
48.3559

> <PUBCHEM_FEATURE_SELFOVERLAP>
55.84

> <PUBCHEM_SHAPE_FINGERPRINT>
10493431 412 18335423426619129333
10675989 125 15801253440205724685
11014199 57 17540822019918868258
11112241 14 18272656697119607687
11370993 144 18412826880730657062
11445158 3 14346091844627266030
11552529 35 18196082463965467614
12422481 6 17531528663739819474
12616971 3 16660364801322625204
12633257 1 18113904878752923188
13009979 54 17827083118941569427
13583140 156 17489308667469637402
14068700 675 18121492716524567599
14142880 1 18333446560816410555
14840074 17 16805329911274841534
14856354 85 18334299807429754636
15537594 2 17168139031910457584
19438510 23 17773889597220442945
20554085 129 18266468620404883925
21236236 1 18261950855816829566
21756936 100 18343012290059944660
3383291 50 18115592685495804067
3411729 13 17972605381833114049
3633792 109 18188474862004262389
4073 2 18412261766630397282
469060 322 16588021342113262599
5265222 85 18265634219917514318
5283173 99 18342739650184182536
5364581 5 18122900100072291808
59755656 520 18335979788345919752
7064713 232 18260836994217819797
9862522 239 17895747410053564477

> <PUBCHEM_SHAPE_MULTIPOLES>
549.98
13.96
3.46
1.61
22.49
2.11
0.51
-9.97
-4.29
-5.35
-0.69
-0.68
-0.15
0.23

> <PUBCHEM_SHAPE_SELFOVERLAP>
1177.676

> <PUBCHEM_SHAPE_VOLUME>
306.5

> <PUBCHEM_COORDINATE_TYPE>
2
5
10

$$$$
