38027716
  -OEChem-12032416253D

 65 66  0     1  0  0  0  0  0999 V2000
   -3.5745    1.4658   -1.6732 O   0  0  0  0  0  0  0  0  0  0  0  0
    2.4400   -1.5149    2.2048 O   0  0  0  0  0  0  0  0  0  0  0  0
   -4.1833    2.4238    1.1354 O   0  0  0  0  0  0  0  0  0  0  0  0
    1.9247   -2.0108   -0.0030 N   0  0  0  0  0  0  0  0  0  0  0  0
   -1.8939    2.6432   -0.5823 N   0  0  0  0  0  0  0  0  0  0  0  0
   -1.0356   -1.8728    0.5082 C   0  0  1  0  0  0  0  0  0  0  0  0
   -0.2936   -2.9896   -0.2677 C   0  0  1  0  0  0  0  0  0  0  0  0
   -2.2726   -1.4071   -0.2748 C   0  0  0  0  0  0  0  0  0  0  0  0
   -1.9098   -0.8718   -1.6728 C   0  0  2  0  0  0  0  0  0  0  0  0
   -1.4513   -2.3331    1.9089 C   0  0  0  0  0  0  0  0  0  0  0  0
   -0.9576   -1.7986   -2.4009 C   0  0  0  0  0  0  0  0  0  0  0  0
   -0.2540   -2.7478   -1.7584 C   0  0  0  0  0  0  0  0  0  0  0  0
    1.1347   -3.1731    0.2580 C   0  0  0  0  0  0  0  0  0  0  0  0
   -1.3376    0.5476   -1.5895 C   0  0  0  0  0  0  0  0  0  0  0  0
   -1.6127   -1.1335    2.8372 C   0  0  0  0  0  0  0  0  0  0  0  0
   -2.7424   -3.1426    1.8415 C   0  0  0  0  0  0  0  0  0  0  0  0
   -0.8665   -1.6397   -3.8932 C   0  0  0  0  0  0  0  0  0  0  0  0
   -2.4084    1.5765   -1.3044 C   0  0  0  0  0  0  0  0  0  0  0  0
    2.5257   -1.2597    1.0065 C   0  0  0  0  0  0  0  0  0  0  0  0
   -2.6916    3.7756   -0.1708 C   0  0  0  0  0  0  0  0  0  0  0  0
    3.2930   -0.0641    0.5722 C   0  0  0  0  0  0  0  0  0  0  0  0
   -3.3179    3.5503    1.1933 C   0  0  0  0  0  0  0  0  0  0  0  0
    4.3482    0.4094    1.3520 C   0  0  0  0  0  0  0  0  0  0  0  0
    2.9576    0.5856   -0.6158 C   0  0  0  0  0  0  0  0  0  0  0  0
    5.0678    1.5324    0.9442 C   0  0  0  0  0  0  0  0  0  0  0  0
    3.6771    1.7088   -1.0237 C   0  0  0  0  0  0  0  0  0  0  0  0
    4.7322    2.1822   -0.2436 C   0  0  0  0  0  0  0  0  0  0  0  0
    5.5019    3.3832   -0.6793 C   0  0  0  0  0  0  0  0  0  0  0  0
   -4.7997    2.1748    2.3913 C   0  0  0  0  0  0  0  0  0  0  0  0
   -0.3630   -1.0144    0.6184 H   0  0  0  0  0  0  0  0  0  0  0  0
   -0.8170   -3.9437   -0.1271 H   0  0  0  0  0  0  0  0  0  0  0  0
   -2.8336   -0.6462    0.2789 H   0  0  0  0  0  0  0  0  0  0  0  0
   -2.9612   -2.2442   -0.4470 H   0  0  0  0  0  0  0  0  0  0  0  0
   -2.8446   -0.8501   -2.2499 H   0  0  0  0  0  0  0  0  0  0  0  0
   -0.6757   -2.9688    2.3479 H   0  0  0  0  0  0  0  0  0  0  0  0
    0.3792   -3.4159   -2.3390 H   0  0  0  0  0  0  0  0  0  0  0  0
    1.6235   -4.0067   -0.2609 H   0  0  0  0  0  0  0  0  0  0  0  0
    1.1494   -3.4197    1.3231 H   0  0  0  0  0  0  0  0  0  0  0  0
   -0.8923    0.8503   -2.5450 H   0  0  0  0  0  0  0  0  0  0  0  0
   -0.5366    0.6065   -0.8450 H   0  0  0  0  0  0  0  0  0  0  0  0
   -2.3972   -0.4488    2.5000 H   0  0  0  0  0  0  0  0  0  0  0  0
   -0.6779   -0.5674    2.9114 H   0  0  0  0  0  0  0  0  0  0  0  0
   -1.8772   -1.4645    3.8476 H   0  0  0  0  0  0  0  0  0  0  0  0
   -3.6264   -2.5267    1.6451 H   0  0  0  0  0  0  0  0  0  0  0  0
   -2.9206   -3.6166    2.8147 H   0  0  0  0  0  0  0  0  0  0  0  0
   -2.6959   -3.9527    1.1079 H   0  0  0  0  0  0  0  0  0  0  0  0
   -1.8608   -1.7165   -4.3449 H   0  0  0  0  0  0  0  0  0  0  0  0
   -0.2389   -2.4120   -4.3510 H   0  0  0  0  0  0  0  0  0  0  0  0
   -0.4368   -0.6698   -4.1589 H   0  0  0  0  0  0  0  0  0  0  0  0
    2.1174   -1.7911   -0.9747 H   0  0  0  0  0  0  0  0  0  0  0  0
   -0.9121    2.6464   -0.3223 H   0  0  0  0  0  0  0  0  0  0  0  0
   -3.4720    3.9400   -0.9217 H   0  0  0  0  0  0  0  0  0  0  0  0
   -2.0350    4.6507   -0.1499 H   0  0  0  0  0  0  0  0  0  0  0  0
   -3.8893    4.4387    1.4853 H   0  0  0  0  0  0  0  0  0  0  0  0
   -2.5363    3.3699    1.9411 H   0  0  0  0  0  0  0  0  0  0  0  0
    4.6273   -0.0863    2.2781 H   0  0  0  0  0  0  0  0  0  0  0  0
    2.1258    0.2653   -1.2362 H   0  0  0  0  0  0  0  0  0  0  0  0
    5.8895    1.8902    1.5589 H   0  0  0  0  0  0  0  0  0  0  0  0
    3.4034    2.2093   -1.9487 H   0  0  0  0  0  0  0  0  0  0  0  0
    6.3508    3.0802   -1.3003 H   0  0  0  0  0  0  0  0  0  0  0  0
    4.8718    4.0686   -1.2563 H   0  0  0  0  0  0  0  0  0  0  0  0
    5.8795    3.9443    0.1822 H   0  0  0  0  0  0  0  0  0  0  0  0
   -4.0442    1.9578    3.1528 H   0  0  0  0  0  0  0  0  0  0  0  0
   -5.4089    3.0309    2.6967 H   0  0  0  0  0  0  0  0  0  0  0  0
   -5.4502    1.3023    2.2878 H   0  0  0  0  0  0  0  0  0  0  0  0
  1 18  2  0  0  0  0
  2 19  2  0  0  0  0
  3 22  1  0  0  0  0
  3 29  1  0  0  0  0
  4 13  1  0  0  0  0
  4 19  1  0  0  0  0
  4 50  1  0  0  0  0
  5 18  1  0  0  0  0
  5 20  1  0  0  0  0
  5 51  1  0  0  0  0
  6  7  1  0  0  0  0
  6  8  1  0  0  0  0
  6 10  1  0  0  0  0
  6 30  1  0  0  0  0
  7 12  1  0  0  0  0
  7 13  1  0  0  0  0
  7 31  1  0  0  0  0
  8  9  1  0  0  0  0
  8 32  1  0  0  0  0
  8 33  1  0  0  0  0
  9 11  1  0  0  0  0
  9 14  1  0  0  0  0
  9 34  1  0  0  0  0
 10 15  1  0  0  0  0
 10 16  1  0  0  0  0
 10 35  1  0  0  0  0
 11 12  2  0  0  0  0
 11 17  1  0  0  0  0
 12 36  1  0  0  0  0
 13 37  1  0  0  0  0
 13 38  1  0  0  0  0
 14 18  1  0  0  0  0
 14 39  1  0  0  0  0
 14 40  1  0  0  0  0
 15 41  1  0  0  0  0
 15 42  1  0  0  0  0
 15 43  1  0  0  0  0
 16 44  1  0  0  0  0
 16 45  1  0  0  0  0
 16 46  1  0  0  0  0
 17 47  1  0  0  0  0
 17 48  1  0  0  0  0
 17 49  1  0  0  0  0
 19 21  1  0  0  0  0
 20 22  1  0  0  0  0
 20 52  1  0  0  0  0
 20 53  1  0  0  0  0
 21 23  2  0  0  0  0
 21 24  1  0  0  0  0
 22 54  1  0  0  0  0
 22 55  1  0  0  0  0
 23 25  1  0  0  0  0
 23 56  1  0  0  0  0
 24 26  2  0  0  0  0
 24 57  1  0  0  0  0
 25 27  2  0  0  0  0
 25 58  1  0  0  0  0
 26 27  1  0  0  0  0
 26 59  1  0  0  0  0
 27 28  1  0  0  0  0
 28 60  1  0  0  0  0
 28 61  1  0  0  0  0
 28 62  1  0  0  0  0
 29 63  1  0  0  0  0
 29 64  1  0  0  0  0
 29 65  1  0  0  0  0
M  END
> <PUBCHEM_COMPOUND_CID>
38027716

> <PUBCHEM_CONFORMER_RMSD>
1

> <PUBCHEM_CONFORMER_DIVERSEORDER>
1
7
32
11
20
85
94
95
63
137
145
97
82
59
44
21
15
46
124
54
27
141
86
65
23
90
144
4
71
127
136
30
140
13
2
84
76
61
102
35
134
34
51
103
88
101
33
50
69
91
36
45
142
43
120
130
104
121
80
3
138
55
6
74
128
114
14
126
29
109
105
40
100
57
25
96
67
26
83
8
24
139
66
47
77
53
117
75
16
122
9
79
68
70
110
17
133
119
60
38
5
73
132
81
42
18
56
115
48
107
12
89
99
64
22
52
118
72
131
31
58
147
112
87
146
129
111
10
113
93
28
106
78
39
125
92
135
108
49
123
41
143
19
116
37
62
98

> <PUBCHEM_MMFF94_PARTIAL_CHARGES>
31
1 -0.57
11 -0.28
12 -0.29
13 0.3
14 0.06
17 0.14
18 0.57
19 0.54
2 -0.57
20 0.3
21 0.09
22 0.28
23 -0.15
24 -0.15
25 -0.15
26 -0.15
27 -0.14
28 0.14
29 0.28
3 -0.56
36 0.15
4 -0.73
5 -0.73
50 0.37
51 0.37
56 0.15
57 0.15
58 0.15
59 0.15
7 0.14
9 0.14

> <PUBCHEM_EFFECTIVE_ROTOR_COUNT>
11.8

> <PUBCHEM_PHARMACOPHORE_FEATURES>
8
1 1 acceptor
1 2 acceptor
1 3 acceptor
1 4 donor
1 5 donor
3 10 15 16 hydrophobe
6 21 23 24 25 26 27 rings
6 6 7 8 9 11 12 rings

> <PUBCHEM_HEAVY_ATOM_COUNT>
29

> <PUBCHEM_ATOM_DEF_STEREO_COUNT>
3

> <PUBCHEM_ATOM_UDEF_STEREO_COUNT>
0

> <PUBCHEM_BOND_DEF_STEREO_COUNT>
0

> <PUBCHEM_BOND_UDEF_STEREO_COUNT>
0

> <PUBCHEM_ISOTOPIC_ATOM_COUNT>
0

> <PUBCHEM_COMPONENT_COUNT>
1

> <PUBCHEM_CACTVS_TAUTO_COUNT>
10

> <PUBCHEM_CONFORMER_ID>
024441C400000001

> <PUBCHEM_MMFF94_ENERGY>
61.2844

> <PUBCHEM_FEATURE_SELFOVERLAP>
40.597

> <PUBCHEM_SHAPE_FINGERPRINT>
11221954 11 18337668599045433214
11445158 3 16627748801996500367
11578080 2 17057842597054972923
11607047 403 18339096916886081339
12104220 4 15683969566132774537
12156800 1 17538615132239716597
12788726 201 18197762496062369941
13761468 95 17987258766491183840
14251757 17 14476662088772802961
15119646 57 18200319951772655168
15163728 17 17632298926216564957
20764821 26 17832412469181807032
20775530 9 8790591663329375724
21860390 5 17479186258154404467
469060 322 17910670191781963862
50150288 127 17544521816153132932
7288768 16 17822557352866067406
9981440 41 18191280828131166562

> <PUBCHEM_SHAPE_MULTIPOLES>
569.24
9.38
5.25
3
11.95
2.6
-0.99
11.17
3.25
-4.01
0.66
-2.65
-1.6
-1.46

> <PUBCHEM_SHAPE_SELFOVERLAP>
1160.891

> <PUBCHEM_SHAPE_VOLUME>
329

> <PUBCHEM_COORDINATE_TYPE>
2
5
10

$$$$
