11939955
  -OEChem-12032416383D

 70 74  0     1  0  0  0  0  0999 V2000
    0.2595   -3.8733    1.1302 O   0  0  0  0  0  0  0  0  0  0  0  0
   -0.9320   -1.1971    2.2048 O   0  0  0  0  0  0  0  0  0  0  0  0
    4.0535   -1.8046    1.0868 O   0  0  0  0  0  0  0  0  0  0  0  0
    6.8985    3.8606   -0.8877 O   0  0  0  0  0  0  0  0  0  0  0  0
    8.3436   -0.6732   -0.5138 O   0  0  0  0  0  0  0  0  0  0  0  0
   -2.0363   -3.0177   -0.7607 N   0  0  0  0  0  0  0  0  0  0  0  0
    2.0621   -0.7145    1.5240 N   0  0  0  0  0  0  0  0  0  0  0  0
    3.8372    0.5048    0.7250 N   0  0  0  0  0  0  0  0  0  0  0  0
   -3.5940   -1.2977   -0.8481 N   0  0  0  0  0  0  0  0  0  0  0  0
   -3.0030   -2.5507   -2.8198 N   0  0  0  0  0  0  0  0  0  0  0  0
   -7.2892    3.4483    1.1426 N   0  0  0  0  0  0  0  0  0  0  0  0
   -0.7897   -1.7517    0.8862 C   0  0  1  0  0  0  0  0  0  0  0  0
    0.5337   -2.4907    0.8494 C   0  0  1  0  0  0  0  0  0  0  0  0
   -1.8219   -2.8305    0.6575 C   0  0  2  0  0  0  0  0  0  0  0  0
    1.3311   -1.8737    1.9757 C   0  0  2  0  0  0  0  0  0  0  0  0
   -1.1584   -4.0579    1.2547 C   0  0  0  0  0  0  0  0  0  0  0  0
    0.2480   -1.4892    2.9679 C   0  0  0  0  0  0  0  0  0  0  0  0
   -2.9159   -2.2554   -1.5088 C   0  0  0  0  0  0  0  0  0  0  0  0
    3.3967   -0.7663    1.1041 C   0  0  0  0  0  0  0  0  0  0  0  0
   -4.4424   -0.5741   -1.6076 C   0  0  0  0  0  0  0  0  0  0  0  0
    5.1156    0.8730    0.2448 C   0  0  0  0  0  0  0  0  0  0  0  0
   -3.8696   -1.7885   -3.5188 C   0  0  0  0  0  0  0  0  0  0  0  0
   -4.6231   -0.7764   -2.9606 C   0  0  0  0  0  0  0  0  0  0  0  0
   -5.1703    0.4541   -0.9033 C   0  0  0  0  0  0  0  0  0  0  0  0
    6.1117   -0.0929    0.1020 C   0  0  0  0  0  0  0  0  0  0  0  0
    5.3800    2.2017   -0.0872 C   0  0  0  0  0  0  0  0  0  0  0  0
   -4.4796    1.4778   -0.2546 C   0  0  0  0  0  0  0  0  0  0  0  0
   -6.5646    0.4251   -0.8724 C   0  0  0  0  0  0  0  0  0  0  0  0
    6.6404    2.5644   -0.5622 C   0  0  0  0  0  0  0  0  0  0  0  0
    7.3721    0.2697   -0.3729 C   0  0  0  0  0  0  0  0  0  0  0  0
    7.6365    1.5983   -0.7050 C   0  0  0  0  0  0  0  0  0  0  0  0
   -5.1831    2.4724    0.4246 C   0  0  0  0  0  0  0  0  0  0  0  0
   -7.2681    1.4196   -0.1932 C   0  0  0  0  0  0  0  0  0  0  0  0
   -6.5773    2.4433    0.4554 C   0  0  0  0  0  0  0  0  0  0  0  0
   -6.5810    4.5089    1.8316 C   0  0  0  0  0  0  0  0  0  0  0  0
   -8.7380    3.4260    1.1807 C   0  0  0  0  0  0  0  0  0  0  0  0
    8.2083    4.1613   -1.3670 C   0  0  0  0  0  0  0  0  0  0  0  0
    9.6090   -0.2333   -1.0045 C   0  0  0  0  0  0  0  0  0  0  0  0
   -0.8291   -0.9178    0.1782 H   0  0  0  0  0  0  0  0  0  0  0  0
    1.0228   -2.4453   -0.1291 H   0  0  0  0  0  0  0  0  0  0  0  0
   -2.7715   -2.6504    1.1745 H   0  0  0  0  0  0  0  0  0  0  0  0
    2.0358   -2.5778    2.4310 H   0  0  0  0  0  0  0  0  0  0  0  0
   -1.3806   -4.1405    2.3243 H   0  0  0  0  0  0  0  0  0  0  0  0
   -1.4448   -4.9977    0.7724 H   0  0  0  0  0  0  0  0  0  0  0  0
    0.0070   -2.3287    3.6294 H   0  0  0  0  0  0  0  0  0  0  0  0
    0.5027   -0.6243    3.5880 H   0  0  0  0  0  0  0  0  0  0  0  0
   -1.4846   -3.7050   -1.2616 H   0  0  0  0  0  0  0  0  0  0  0  0
    1.5667    0.1687    1.4452 H   0  0  0  0  0  0  0  0  0  0  0  0
    3.1638    1.2629    0.8020 H   0  0  0  0  0  0  0  0  0  0  0  0
   -3.9428   -2.0208   -4.5760 H   0  0  0  0  0  0  0  0  0  0  0  0
   -5.3031   -0.1871   -3.5634 H   0  0  0  0  0  0  0  0  0  0  0  0
    5.9768   -1.1390    0.3390 H   0  0  0  0  0  0  0  0  0  0  0  0
    4.6082    2.9602    0.0210 H   0  0  0  0  0  0  0  0  0  0  0  0
   -3.3928    1.5184   -0.2706 H   0  0  0  0  0  0  0  0  0  0  0  0
   -7.1216   -0.3672   -1.3671 H   0  0  0  0  0  0  0  0  0  0  0  0
    8.6120    1.8789   -1.0730 H   0  0  0  0  0  0  0  0  0  0  0  0
   -4.6002    3.2474    0.9124 H   0  0  0  0  0  0  0  0  0  0  0  0
   -8.3514    1.3516   -0.1972 H   0  0  0  0  0  0  0  0  0  0  0  0
   -7.2713    5.2067    2.3188 H   0  0  0  0  0  0  0  0  0  0  0  0
   -5.9804    5.1024    1.1333 H   0  0  0  0  0  0  0  0  0  0  0  0
   -5.9363    4.1067    2.6210 H   0  0  0  0  0  0  0  0  0  0  0  0
   -9.1412    4.2732    1.7467 H   0  0  0  0  0  0  0  0  0  0  0  0
   -9.1071    2.5190    1.6723 H   0  0  0  0  0  0  0  0  0  0  0  0
   -9.1619    3.4965    0.1728 H   0  0  0  0  0  0  0  0  0  0  0  0
    8.9719    3.9688   -0.6054 H   0  0  0  0  0  0  0  0  0  0  0  0
    8.4200    3.6510   -2.3129 H   0  0  0  0  0  0  0  0  0  0  0  0
    8.2345    5.2360   -1.5754 H   0  0  0  0  0  0  0  0  0  0  0  0
    9.5334    0.1583   -2.0248 H   0  0  0  0  0  0  0  0  0  0  0  0
   10.0859    0.4740   -0.3173 H   0  0  0  0  0  0  0  0  0  0  0  0
   10.2585   -1.1138   -1.0518 H   0  0  0  0  0  0  0  0  0  0  0  0
  1 13  1  0  0  0  0
  1 16  1  0  0  0  0
  2 12  1  0  0  0  0
  2 17  1  0  0  0  0
  3 19  2  0  0  0  0
  4 29  1  0  0  0  0
  4 37  1  0  0  0  0
  5 30  1  0  0  0  0
  5 38  1  0  0  0  0
  6 14  1  0  0  0  0
  6 18  1  0  0  0  0
  6 47  1  0  0  0  0
  7 15  1  0  0  0  0
  7 19  1  0  0  0  0
  7 48  1  0  0  0  0
  8 19  1  0  0  0  0
  8 21  1  0  0  0  0
  8 49  1  0  0  0  0
  9 18  1  0  0  0  0
  9 20  2  0  0  0  0
 10 18  2  0  0  0  0
 10 22  1  0  0  0  0
 11 34  1  0  0  0  0
 11 35  1  0  0  0  0
 11 36  1  0  0  0  0
 12 13  1  0  0  0  0
 12 14  1  0  0  0  0
 12 39  1  0  0  0  0
 13 15  1  0  0  0  0
 13 40  1  0  0  0  0
 14 16  1  0  0  0  0
 14 41  1  0  0  0  0
 15 17  1  0  0  0  0
 15 42  1  0  0  0  0
 16 43  1  0  0  0  0
 16 44  1  0  0  0  0
 17 45  1  0  0  0  0
 17 46  1  0  0  0  0
 20 23  1  0  0  0  0
 20 24  1  0  0  0  0
 21 25  2  0  0  0  0
 21 26  1  0  0  0  0
 22 23  2  0  0  0  0
 22 50  1  0  0  0  0
 23 51  1  0  0  0  0
 24 27  2  0  0  0  0
 24 28  1  0  0  0  0
 25 30  1  0  0  0  0
 25 52  1  0  0  0  0
 26 29  2  0  0  0  0
 26 53  1  0  0  0  0
 27 32  1  0  0  0  0
 27 54  1  0  0  0  0
 28 33  2  0  0  0  0
 28 55  1  0  0  0  0
 29 31  1  0  0  0  0
 30 31  2  0  0  0  0
 31 56  1  0  0  0  0
 32 34  2  0  0  0  0
 32 57  1  0  0  0  0
 33 34  1  0  0  0  0
 33 58  1  0  0  0  0
 35 59  1  0  0  0  0
 35 60  1  0  0  0  0
 35 61  1  0  0  0  0
 36 62  1  0  0  0  0
 36 63  1  0  0  0  0
 36 64  1  0  0  0  0
 37 65  1  0  0  0  0
 37 66  1  0  0  0  0
 37 67  1  0  0  0  0
 38 68  1  0  0  0  0
 38 69  1  0  0  0  0
 38 70  1  0  0  0  0
M  END
> <PUBCHEM_COMPOUND_CID>
11939955

> <PUBCHEM_CONFORMER_RMSD>
1.2

> <PUBCHEM_CONFORMER_DIVERSEORDER>
1
142
52
54
103
20
73
92
41
81
70
133
21
114
125
16
131
116
64
144
106
120
72
130
14
100
85
35
143
76
134
32
93
68
122
107
8
40
51
156
79
91
99
57
44
4
132
12
43
117
128
145
36
31
26
15
98
150
155
84
112
88
151
11
55
147
108
86
121
129
94
67
45
37
110
39
59
77
137
53
123
58
97
78
90
75
61
148
141
153
46
118
25
6
149
126
158
27
146
124
135
28
62
115
63
48
50
19
113
49
83
66
140
5
29
69
127
22
18
24
82
9
60
157
56
30
17
109
95
104
111
138
65
23
101
105
96
42
34
33
10
154
102
119
89
38
87
47
3
136
80
7
2
13
139
152
74
71

> <PUBCHEM_MMFF94_PARTIAL_CHARGES>
49
1 -0.56
10 -0.62
11 -0.84
12 0.28
13 0.28
14 0.37
15 0.3
16 0.28
17 0.28
18 0.72
19 0.69
2 -0.56
20 0.31
21 0.12
22 0.16
23 -0.15
25 -0.15
26 -0.15
27 -0.15
28 -0.15
29 0.08
3 -0.57
30 0.08
31 -0.15
32 -0.15
33 -0.15
34 0.1
35 0.37
36 0.37
37 0.28
38 0.28
4 -0.36
47 0.4
48 0.37
49 0.37
5 -0.36
50 0.15
51 0.15
52 0.15
53 0.15
54 0.15
55 0.15
56 0.15
57 0.15
58 0.15
6 -0.87
7 -0.73
8 -0.55
9 -0.62

> <PUBCHEM_EFFECTIVE_ROTOR_COUNT>
11.2

> <PUBCHEM_PHARMACOPHORE_FEATURES>
16
1 1 acceptor
1 11 cation
1 2 acceptor
1 3 acceptor
1 4 acceptor
1 5 acceptor
1 6 donor
1 7 donor
1 8 donor
1 9 acceptor
4 6 9 10 18 cation
5 1 12 13 14 16 rings
5 2 12 13 15 17 rings
6 21 25 26 29 30 31 rings
6 24 27 28 32 33 34 rings
6 9 10 18 20 22 23 rings

> <PUBCHEM_HEAVY_ATOM_COUNT>
38

> <PUBCHEM_ATOM_DEF_STEREO_COUNT>
4

> <PUBCHEM_ATOM_UDEF_STEREO_COUNT>
0

> <PUBCHEM_BOND_DEF_STEREO_COUNT>
0

> <PUBCHEM_BOND_UDEF_STEREO_COUNT>
0

> <PUBCHEM_ISOTOPIC_ATOM_COUNT>
0

> <PUBCHEM_COMPONENT_COUNT>
1

> <PUBCHEM_CACTVS_TAUTO_COUNT>
9

> <PUBCHEM_CONFORMER_ID>
00B6307300000001

> <PUBCHEM_MMFF94_ENERGY>
149.4993

> <PUBCHEM_FEATURE_SELFOVERLAP>
81.958

> <PUBCHEM_SHAPE_FINGERPRINT>
10369192 42 18186803604056450163
10674148 151 18202276988291305136
10794284 68 18200872990059603567
10920273 25 18411144597843889889
10930396 42 15140679186127842997
11410812 94 17917423246982583872
11828042 207 18054789761273692240
1200032 147 18187365394072945842
12013929 29 18408885148904628804
12061779 8 18408602548177189577
13165053 182 18046075019063266816
13165054 27 18265635323809097145
14017578 193 18191314985568800877
14150022 121 17823144591582806603
14201967 126 18410014291238389169
14664723 55 18409164415745468269
14950920 106 11097843091283440038
15064981 194 18042419091297194958
15131766 46 18041260107652436373
15357212 105 18200314313144973495
15510800 12 13614239330004353030
15685185 35 18188494695325237393
16120349 67 18343866593789592467
16126227 98 18261674860859595241
16728433 281 17970353827101973612
16992727 255 18201436952232382304
16993427 108 7853561401878054497
17852330 134 18341620270555186118
17899979 129 18335984190925573962
19304152 47 15357962443982426463
19309040 13 18411981355962304871
19315092 285 10809352104715777535
21223535 225 18341326768968224616
21585480 29 9439410138112221964
21772528 278 18040720268517296523
21792965 184 12036033273773179944
24771750 20 17202200704323488583
32027 91 12175324972683373375
3610482 184 18200863046339634655
38570 142 18410288091075944867
397830 11 11530750493325972002
3986486 107 15410608126716041801
474113 269 9799691485419963705
50677037 204 18115576175440980092
508180 173 17989199382337382954
57634706 229 18113905991260430762
5911458 16 18411419484293457825
5937810 71 17459475623464413580
6201320 82 17534077534823389780
6698420 124 18259706709518841362
6703917 75 18410012157050593011

> <PUBCHEM_SHAPE_MULTIPOLES>
722.79
28.93
5.65
2.59
34.53
2.71
-1.07
38.5
-7.81
-4.11
1.47
-3.52
-1.79
-7.72

> <PUBCHEM_SHAPE_SELFOVERLAP>
1565.385

> <PUBCHEM_SHAPE_VOLUME>
395.2

> <PUBCHEM_COORDINATE_TYPE>
2
5
10

$$$$
