40777135
  -OEChem-12032416183D

 61 65  0     1  0  0  0  0  0999 V2000
   -3.7421   -2.6596    1.6732 Br  0  0  0  0  0  0  0  0  0  0  0  0
    4.5084    0.5026    1.6847 O   0  0  0  0  0  0  0  0  0  0  0  0
    0.4120    2.4964    1.3371 N   0  0  2  0  0  0  0  0  0  0  0  0
    2.7105   -0.3617    0.5132 N   0  0  0  0  0  0  0  0  0  0  0  0
   -1.9935    0.3761   -1.9094 N   0  0  0  0  0  0  0  0  0  0  0  0
   -3.9152   -1.0537   -1.6447 N   0  0  0  0  0  0  0  0  0  0  0  0
    4.8428   -1.0358   -0.0565 N   0  0  0  0  0  0  0  0  0  0  0  0
   -0.2280    2.5161   -1.1874 C   0  0  2  0  0  0  0  0  0  0  0  0
   -1.4627    2.1543   -0.3162 C   0  0  2  0  0  0  0  0  0  0  0  0
    1.3862    1.6862    0.5594 C   0  0  2  0  0  0  0  0  0  0  0  0
    0.9105    1.5149   -0.8993 C   0  0  0  0  0  0  0  0  0  0  0  0
    0.2580    3.9036   -0.7163 C   0  0  0  0  0  0  0  0  0  0  0  0
   -0.9603    1.9649    1.1437 C   0  0  0  0  0  0  0  0  0  0  0  0
    0.4502    3.8817    0.8103 C   0  0  0  0  0  0  0  0  0  0  0  0
    1.6862    0.3405    1.2231 C   0  0  0  0  0  0  0  0  0  0  0  0
   -2.3538    1.0083   -0.7734 C   0  0  0  0  0  0  0  0  0  0  0  0
   -3.4657    0.6721   -0.0283 C   0  0  0  0  0  0  0  0  0  0  0  0
   -4.2168   -0.3775   -0.5169 C   0  0  0  0  0  0  0  0  0  0  0  0
   -2.8068   -0.6306   -2.2818 C   0  0  0  0  0  0  0  0  0  0  0  0
    4.0819   -0.2317    0.7967 C   0  0  0  0  0  0  0  0  0  0  0  0
   -5.4050   -0.8263    0.1688 C   0  0  0  0  0  0  0  0  0  0  0  0
   -2.4421   -1.3528   -3.5346 C   0  0  0  0  0  0  0  0  0  0  0  0
   -5.3633   -1.8156    1.1511 C   0  0  0  0  0  0  0  0  0  0  0  0
   -6.6215   -0.2385   -0.1778 C   0  0  0  0  0  0  0  0  0  0  0  0
    6.2494   -1.1811   -0.0872 C   0  0  0  0  0  0  0  0  0  0  0  0
   -6.5381   -2.2171    1.7870 C   0  0  0  0  0  0  0  0  0  0  0  0
   -7.7964   -0.6399    0.4580 C   0  0  0  0  0  0  0  0  0  0  0  0
   -7.7547   -1.6292    1.4405 C   0  0  0  0  0  0  0  0  0  0  0  0
    6.8421   -2.0357   -1.0167 C   0  0  0  0  0  0  0  0  0  0  0  0
    7.0439   -0.4701    0.8121 C   0  0  0  0  0  0  0  0  0  0  0  0
    8.2294   -2.1794   -1.0469 C   0  0  0  0  0  0  0  0  0  0  0  0
    8.4309   -0.6135    0.7820 C   0  0  0  0  0  0  0  0  0  0  0  0
    9.0237   -1.4683   -0.1475 C   0  0  0  0  0  0  0  0  0  0  0  0
   -0.4704    2.5384   -2.2551 H   0  0  0  0  0  0  0  0  0  0  0  0
   -2.1214    3.0367   -0.3322 H   0  0  0  0  0  0  0  0  0  0  0  0
    2.3375    2.2387    0.5415 H   0  0  0  0  0  0  0  0  0  0  0  0
    0.5656    0.4938   -1.0963 H   0  0  0  0  0  0  0  0  0  0  0  0
    1.7490    1.7060   -1.5806 H   0  0  0  0  0  0  0  0  0  0  0  0
   -0.4696    4.6770   -0.9887 H   0  0  0  0  0  0  0  0  0  0  0  0
    1.2025    4.1564   -1.2134 H   0  0  0  0  0  0  0  0  0  0  0  0
   -1.6412    2.4874    1.8291 H   0  0  0  0  0  0  0  0  0  0  0  0
   -0.9998    0.9149    1.4560 H   0  0  0  0  0  0  0  0  0  0  0  0
    1.4036    4.3564    1.0727 H   0  0  0  0  0  0  0  0  0  0  0  0
   -0.3236    4.4869    1.2997 H   0  0  0  0  0  0  0  0  0  0  0  0
    0.8093   -0.3145    1.2376 H   0  0  0  0  0  0  0  0  0  0  0  0
    2.0083    0.4914    2.2598 H   0  0  0  0  0  0  0  0  0  0  0  0
    2.4324   -0.9842   -0.2392 H   0  0  0  0  0  0  0  0  0  0  0  0
   -3.7354    1.2018    0.8776 H   0  0  0  0  0  0  0  0  0  0  0  0
   -2.9907   -0.9265   -4.3795 H   0  0  0  0  0  0  0  0  0  0  0  0
   -1.3694   -1.2696   -3.7356 H   0  0  0  0  0  0  0  0  0  0  0  0
   -2.6907   -2.4155   -3.4536 H   0  0  0  0  0  0  0  0  0  0  0  0
    4.3307   -1.5858   -0.7416 H   0  0  0  0  0  0  0  0  0  0  0  0
   -6.6747    0.5340   -0.9417 H   0  0  0  0  0  0  0  0  0  0  0  0
   -6.5267   -2.9863    2.5551 H   0  0  0  0  0  0  0  0  0  0  0  0
   -8.7437   -0.1824    0.1882 H   0  0  0  0  0  0  0  0  0  0  0  0
   -8.6696   -1.9416    1.9353 H   0  0  0  0  0  0  0  0  0  0  0  0
    6.2346   -2.5957   -1.7232 H   0  0  0  0  0  0  0  0  0  0  0  0
    6.6597    0.2093    1.5597 H   0  0  0  0  0  0  0  0  0  0  0  0
    8.6910   -2.8448   -1.7706 H   0  0  0  0  0  0  0  0  0  0  0  0
    9.0508   -0.0604    1.4818 H   0  0  0  0  0  0  0  0  0  0  0  0
   10.1038   -1.5800   -0.1710 H   0  0  0  0  0  0  0  0  0  0  0  0
  1 23  1  0  0  0  0
  2 20  2  0  0  0  0
  3 10  1  0  0  0  0
  3 13  1  0  0  0  0
  3 14  1  0  0  0  0
  4 15  1  0  0  0  0
  4 20  1  0  0  0  0
  4 47  1  0  0  0  0
  5 16  2  0  0  0  0
  5 19  1  0  0  0  0
  6 18  1  0  0  0  0
  6 19  2  0  0  0  0
  7 20  1  0  0  0  0
  7 25  1  0  0  0  0
  7 52  1  0  0  0  0
  8  9  1  0  0  0  0
  8 11  1  0  0  0  0
  8 12  1  0  0  0  0
  8 34  1  0  0  0  0
  9 13  1  0  0  0  0
  9 16  1  0  0  0  0
  9 35  1  0  0  0  0
 10 11  1  0  0  0  0
 10 15  1  0  0  0  0
 10 36  1  0  0  0  0
 11 37  1  0  0  0  0
 11 38  1  0  0  0  0
 12 14  1  0  0  0  0
 12 39  1  0  0  0  0
 12 40  1  0  0  0  0
 13 41  1  0  0  0  0
 13 42  1  0  0  0  0
 14 43  1  0  0  0  0
 14 44  1  0  0  0  0
 15 45  1  0  0  0  0
 15 46  1  0  0  0  0
 16 17  1  0  0  0  0
 17 18  2  0  0  0  0
 17 48  1  0  0  0  0
 18 21  1  0  0  0  0
 19 22  1  0  0  0  0
 21 23  1  0  0  0  0
 21 24  2  0  0  0  0
 22 49  1  0  0  0  0
 22 50  1  0  0  0  0
 22 51  1  0  0  0  0
 23 26  2  0  0  0  0
 24 27  1  0  0  0  0
 24 53  1  0  0  0  0
 25 29  2  0  0  0  0
 25 30  1  0  0  0  0
 26 28  1  0  0  0  0
 26 54  1  0  0  0  0
 27 28  2  0  0  0  0
 27 55  1  0  0  0  0
 28 56  1  0  0  0  0
 29 31  1  0  0  0  0
 29 57  1  0  0  0  0
 30 32  2  0  0  0  0
 30 58  1  0  0  0  0
 31 33  2  0  0  0  0
 31 59  1  0  0  0  0
 32 33  1  0  0  0  0
 32 60  1  0  0  0  0
 33 61  1  0  0  0  0
M  END
> <PUBCHEM_COMPOUND_CID>
40777135

> <PUBCHEM_CONFORMER_RMSD>
1

> <PUBCHEM_CONFORMER_DIVERSEORDER>
1
118
122
167
66
245
307
16
251
253
280
119
303
148
153
276
150
260
250
275
196
267
265
64
301
85
69
105
92
292
259
232
182
237
90
147
189
115
210
81
168
123
229
159
214
97
86
233
201
199
51
112
225
304
41
32
219
87
94
183
296
249
306
211
107
108
129
281
177
89
25
254
78
188
262
300
61
144
246
316
103
228
314
194
241
170
109
277
34
284
106
52
18
145
295
157
102
184
285
187
62
286
48
67
238
315
111
248
299
58
68
17
213
223
155
252
83
117
134
99
266
309
313
227
310
28
114
152
63
71
36
8
226
55
72
258
212
209
39
156
54
191
53
165
205
263
273
24
124
50
278
26
45
88
164
173
65
139
240
6
132
215
282
135
40
96
317
30
12
305
288
20
257
162
84
146
202
216
308
82
193
264
294
203
136
70
242
21
76
287
10
7
218
293
247
73
77
270
208
35
179
298
104
93
126
222
46
279
256
166
291
23
230
128
234
154
160
140
217
14
207
142
239
192
4
80
75
143
120
297
161
98
221
198
255
127
59
220
243
274
138
172
37
74
47
22
235
236
42
190
133
38
149
302
290
158
27
15
125
224
2
195
60
44
49
289
311
185
113
197
269
312
31
130
101
186
283
231
268
261
169
56
13
200
178
100
244
131
110
141
57
163
175
5
318
79
29
91
181
180
19
272
174
33
151
206
95
137
171
11
204
3
271
9
176
43
121
116

> <PUBCHEM_MMFF94_PARTIAL_CHARGES>
41
1 -0.11
10 0.27
13 0.27
14 0.27
15 0.3
16 0.17
17 -0.15
18 0.31
19 0.48
2 -0.57
20 0.69
22 0.14
23 0.11
24 -0.15
25 0.12
26 -0.15
27 -0.15
28 -0.15
29 -0.15
3 -0.81
30 -0.15
31 -0.15
32 -0.15
33 -0.15
4 -0.73
47 0.37
48 0.15
5 -0.62
52 0.37
53 0.15
54 0.15
55 0.15
56 0.15
57 0.15
58 0.15
59 0.15
6 -0.62
60 0.15
61 0.15
7 -0.55
9 0.14

> <PUBCHEM_EFFECTIVE_ROTOR_COUNT>
8.2

> <PUBCHEM_PHARMACOPHORE_FEATURES>
11
1 1 hydrophobe
1 2 acceptor
1 3 cation
1 4 donor
1 5 acceptor
1 7 donor
3 5 6 19 cation
6 21 23 24 26 27 28 rings
6 25 29 30 31 32 33 rings
6 5 6 16 17 18 19 rings
8 3 8 9 10 11 12 13 14 rings

> <PUBCHEM_HEAVY_ATOM_COUNT>
33

> <PUBCHEM_ATOM_DEF_STEREO_COUNT>
3

> <PUBCHEM_ATOM_UDEF_STEREO_COUNT>
0

> <PUBCHEM_BOND_DEF_STEREO_COUNT>
0

> <PUBCHEM_BOND_UDEF_STEREO_COUNT>
0

> <PUBCHEM_ISOTOPIC_ATOM_COUNT>
0

> <PUBCHEM_COMPONENT_COUNT>
1

> <PUBCHEM_CACTVS_TAUTO_COUNT>
3

> <PUBCHEM_CONFORMER_ID>
026E35AF00000001

> <PUBCHEM_MMFF94_ENERGY>
98.8849

> <PUBCHEM_FEATURE_SELFOVERLAP>
55.87

> <PUBCHEM_SHAPE_FINGERPRINT>
10076449 9 17603309258568208347
10577160 103 15575578975637528804
10674148 151 17749388161769372649
11331351 85 18059855082002564520
11476731 47 18042127725702425100
11477941 20 15430032166902354174
11621639 254 14562538366317942295
11756154 5 18335417993491405114
12013929 27 18193563269085866238
12633257 1 16558466504482767889
12677640 9 16199289053716493023
13150687 139 12179842780173121360
13540713 5 17343490400507514973
13631057 29 18187366489674324976
13673619 4 17894629284027153285
13690498 29 17240474815322386271
14068700 675 17967536757677876756
14420673 8 18187931720540626355
14705955 166 15051464773357220251
14767858 380 13262391176894009749
14950920 106 15338255979024507898
14955137 171 18342458174880742025
15289351 153 8646502808304315756
15350500 55 12175631641990671795
15461852 350 17749391422298181870
15510800 12 18409451392796987066
15669420 48 15574436522272469498
15684393 108 18408892828627778166
16067689 302 18337676412609238028
18335252 98 18272369755635914050
19246450 95 17417822686687523769
195137 95 11527952231363490362
208703 8 18334016077790463756
21344244 246 17822583823546780396
21716022 299 18041576843794794020
23522609 53 14691991649248756120
23559900 14 17969785375200240165
2747138 104 18410008836924049360
335507 130 18201715164199563780
393628 194 7925628959581707598
4107672 100 17095796630275387373
437815 12 18408325510085695067
4461854 278 17917996088045923662
54039377 194 18409733958779754374
5470011 282 17894633652241203550
54728670 133 16127536951785496849
57527293 21 17203037595364206292
6009941 240 18262796264310537309
6058803 2 16984326165529630141
636775 8 18335146371654876950
9896288 288 17986397680844932105
999808 66 18343302556813715222

> <PUBCHEM_SHAPE_MULTIPOLES>
654.29
24.72
3.6
2.11
35.41
3.24
-1.59
-26.82
4.28
-0.25
0.71
-1.99
-0.75
2.77

> <PUBCHEM_SHAPE_SELFOVERLAP>
1408.317

> <PUBCHEM_SHAPE_VOLUME>
369.1

> <PUBCHEM_COORDINATE_TYPE>
2
5
10

$$$$
