45783350
  -OEChem-12032416263D

 56 60  0     1  0  0  0  0  0999 V2000
   -2.8090    2.4369   -0.4352 O   0  0  0  0  0  0  0  0  0  0  0  0
    3.7021    0.4213    0.8269 O   0  0  0  0  0  0  0  0  0  0  0  0
    5.4512   -1.7408    0.8906 O   0  0  0  0  0  0  0  0  0  0  0  0
   -3.5847   -0.8638    0.9821 N   0  0  1  0  0  0  0  0  0  0  0  0
   -1.3285    1.0238    0.4749 N   0  0  0  0  0  0  0  0  0  0  0  0
   -1.2784   -1.1739   -2.9103 N   0  0  0  0  0  0  0  0  0  0  0  0
   -1.5420    2.9311   -0.7705 N   0  0  0  0  0  0  0  0  0  0  0  0
    3.4893    2.3551   -0.4378 N   0  0  0  0  0  0  0  0  0  0  0  0
   -3.8237    0.5804    0.7882 C   0  0  1  0  0  0  0  0  0  0  0  0
   -4.3087    1.0842    2.1600 C   0  0  0  0  0  0  0  0  0  0  0  0
   -4.4910   -1.2934    2.0472 C   0  0  0  0  0  0  0  0  0  0  0  0
   -4.3686   -0.1558    3.0407 C   0  0  0  0  0  0  0  0  0  0  0  0
   -3.7615   -1.6440   -0.2360 C   0  0  0  0  0  0  0  0  0  0  0  0
   -2.5927    1.3135    0.2979 C   0  0  0  0  0  0  0  0  0  0  0  0
   -2.5593   -1.5551   -1.1381 C   0  0  0  0  0  0  0  0  0  0  0  0
   -1.2252   -1.9270   -0.8111 C   0  0  0  0  0  0  0  0  0  0  0  0
   -2.5599   -1.0960   -2.4351 C   0  0  0  0  0  0  0  0  0  0  0  0
   -0.4419   -1.6780   -1.9401 C   0  0  0  0  0  0  0  0  0  0  0  0
   -0.7222    2.0442   -0.1984 C   0  0  0  0  0  0  0  0  0  0  0  0
   -0.6071   -2.4533    0.3406 C   0  0  0  0  0  0  0  0  0  0  0  0
    0.9342   -1.9298   -1.9749 C   0  0  0  0  0  0  0  0  0  0  0  0
    0.7685   -2.7103    0.3202 C   0  0  0  0  0  0  0  0  0  0  0  0
    0.7061    2.1495   -0.2794 C   0  0  0  0  0  0  0  0  0  0  0  0
    1.5254   -2.4518   -0.8209 C   0  0  0  0  0  0  0  0  0  0  0  0
    1.5124    1.1986    0.3363 C   0  0  0  0  0  0  0  0  0  0  0  0
    1.2898    3.2030   -0.9743 C   0  0  0  0  0  0  0  0  0  0  0  0
    2.8860    1.3454    0.2288 C   0  0  0  0  0  0  0  0  0  0  0  0
    2.6733    3.2600   -1.0235 C   0  0  0  0  0  0  0  0  0  0  0  0
    5.1039    0.6190    0.6857 C   0  0  0  0  0  0  0  0  0  0  0  0
    5.8362   -0.4816    1.4289 C   0  0  0  0  0  0  0  0  0  0  0  0
    6.1258   -2.8113    1.5368 C   0  0  0  0  0  0  0  0  0  0  0  0
   -4.6364    0.7469    0.0671 H   0  0  0  0  0  0  0  0  0  0  0  0
   -3.6610    1.8470    2.6056 H   0  0  0  0  0  0  0  0  0  0  0  0
   -5.3137    1.5123    2.0611 H   0  0  0  0  0  0  0  0  0  0  0  0
   -5.5257   -1.3786    1.6917 H   0  0  0  0  0  0  0  0  0  0  0  0
   -4.1858   -2.2472    2.4887 H   0  0  0  0  0  0  0  0  0  0  0  0
   -5.2042   -0.1225    3.7460 H   0  0  0  0  0  0  0  0  0  0  0  0
   -3.4394   -0.2490    3.6166 H   0  0  0  0  0  0  0  0  0  0  0  0
   -4.6775   -1.3659   -0.7731 H   0  0  0  0  0  0  0  0  0  0  0  0
   -3.8717   -2.7070    0.0207 H   0  0  0  0  0  0  0  0  0  0  0  0
   -3.3554   -0.7195   -3.0628 H   0  0  0  0  0  0  0  0  0  0  0  0
   -0.9874   -0.9001   -3.8386 H   0  0  0  0  0  0  0  0  0  0  0  0
   -1.1806   -2.6630    1.2389 H   0  0  0  0  0  0  0  0  0  0  0  0
    1.5247   -1.7271   -2.8620 H   0  0  0  0  0  0  0  0  0  0  0  0
    1.2512   -3.1148    1.2059 H   0  0  0  0  0  0  0  0  0  0  0  0
    2.5931   -2.6562   -0.8136 H   0  0  0  0  0  0  0  0  0  0  0  0
    1.1012    0.3655    0.8966 H   0  0  0  0  0  0  0  0  0  0  0  0
    0.7122    3.9735   -1.4742 H   0  0  0  0  0  0  0  0  0  0  0  0
    3.1781    4.0614   -1.5529 H   0  0  0  0  0  0  0  0  0  0  0  0
    5.3983    1.5904    1.1003 H   0  0  0  0  0  0  0  0  0  0  0  0
    5.3692    0.5708   -0.3778 H   0  0  0  0  0  0  0  0  0  0  0  0
    6.9186   -0.3453    1.3272 H   0  0  0  0  0  0  0  0  0  0  0  0
    5.5652   -0.4550    2.4907 H   0  0  0  0  0  0  0  0  0  0  0  0
    7.2076   -2.7235    1.3970 H   0  0  0  0  0  0  0  0  0  0  0  0
    5.8834   -2.8296    2.6037 H   0  0  0  0  0  0  0  0  0  0  0  0
    5.7912   -3.7500    1.0871 H   0  0  0  0  0  0  0  0  0  0  0  0
  1  7  1  0  0  0  0
  1 14  1  0  0  0  0
  2 27  1  0  0  0  0
  2 29  1  0  0  0  0
  3 30  1  0  0  0  0
  3 31  1  0  0  0  0
  4  9  1  0  0  0  0
  4 11  1  0  0  0  0
  4 13  1  0  0  0  0
  5 14  2  0  0  0  0
  5 19  1  0  0  0  0
  6 17  1  0  0  0  0
  6 18  1  0  0  0  0
  6 42  1  0  0  0  0
  7 19  2  0  0  0  0
  8 27  2  0  0  0  0
  8 28  1  0  0  0  0
  9 10  1  0  0  0  0
  9 14  1  0  0  0  0
  9 32  1  0  0  0  0
 10 12  1  0  0  0  0
 10 33  1  0  0  0  0
 10 34  1  0  0  0  0
 11 12  1  0  0  0  0
 11 35  1  0  0  0  0
 11 36  1  0  0  0  0
 12 37  1  0  0  0  0
 12 38  1  0  0  0  0
 13 15  1  0  0  0  0
 13 39  1  0  0  0  0
 13 40  1  0  0  0  0
 15 16  1  0  0  0  0
 15 17  2  0  0  0  0
 16 18  1  0  0  0  0
 16 20  2  0  0  0  0
 17 41  1  0  0  0  0
 18 21  2  0  0  0  0
 19 23  1  0  0  0  0
 20 22  1  0  0  0  0
 20 43  1  0  0  0  0
 21 24  1  0  0  0  0
 21 44  1  0  0  0  0
 22 24  2  0  0  0  0
 22 45  1  0  0  0  0
 23 25  2  0  0  0  0
 23 26  1  0  0  0  0
 24 46  1  0  0  0  0
 25 27  1  0  0  0  0
 25 47  1  0  0  0  0
 26 28  2  0  0  0  0
 26 48  1  0  0  0  0
 28 49  1  0  0  0  0
 29 30  1  0  0  0  0
 29 50  1  0  0  0  0
 29 51  1  0  0  0  0
 30 52  1  0  0  0  0
 30 53  1  0  0  0  0
 31 54  1  0  0  0  0
 31 55  1  0  0  0  0
 31 56  1  0  0  0  0
M  END
> <PUBCHEM_COMPOUND_CID>
45783350

> <PUBCHEM_CONFORMER_RMSD>
1

> <PUBCHEM_CONFORMER_DIVERSEORDER>
1
131
189
144
154
181
62
76
54
87
55
167
135
187
116
42
168
80
130
159
137
94
169
156
65
125
172
48
67
148
138
145
41
149
75
60
152
160
61
143
182
113
162
57
52
100
158
5
184
111
58
139
171
25
141
18
185
110
72
31
153
114
142
191
39
121
35
83
118
136
63
27
170
23
56
95
13
183
151
165
51
120
74
115
119
29
107
188
163
34
129
124
49
88
178
10
108
109
43
22
164
174
4
180
92
77
30
79
84
99
21
53
155
93
82
12
190
59
44
123
19
127
134
26
166
186
86
105
173
102
2
71
33
3
177
85
150
96
81
175
16
104
106
50
24
112
40
176
28
14
161
128
147
132
157
122
46
7
126
133
91
73
38
70
101
68
140
78
69
47
15
146
37
66
103
9
32
17
89
64
179
98
117
6
8
45
97
20
90
11
36

> <PUBCHEM_MMFF94_PARTIAL_CHARGES>
37
1 -0.02
11 0.27
13 0.45
14 0.3
15 -0.18
17 -0.3
18 -0.15
19 0.46
2 -0.36
20 -0.15
21 -0.15
22 -0.15
23 0.05
24 -0.15
25 -0.15
26 -0.15
27 0.39
28 0.16
29 0.28
3 -0.56
30 0.28
31 0.28
4 -0.81
41 0.15
42 0.27
43 0.15
44 0.15
45 0.15
46 0.15
47 0.15
48 0.15
49 0.15
5 -0.57
6 0.03
7 -0.41
8 -0.62
9 0.45

> <PUBCHEM_EFFECTIVE_ROTOR_COUNT>
9

> <PUBCHEM_PHARMACOPHORE_FEATURES>
10
1 3 acceptor
1 4 cation
1 6 cation
1 6 donor
3 5 7 19 cation
5 1 5 7 14 19 rings
5 4 9 10 11 12 rings
5 6 15 16 17 18 rings
6 16 18 20 21 22 24 rings
6 8 23 25 26 27 28 rings

> <PUBCHEM_HEAVY_ATOM_COUNT>
31

> <PUBCHEM_ATOM_DEF_STEREO_COUNT>
1

> <PUBCHEM_ATOM_UDEF_STEREO_COUNT>
0

> <PUBCHEM_BOND_DEF_STEREO_COUNT>
0

> <PUBCHEM_BOND_UDEF_STEREO_COUNT>
0

> <PUBCHEM_ISOTOPIC_ATOM_COUNT>
0

> <PUBCHEM_COMPONENT_COUNT>
1

> <PUBCHEM_CACTVS_TAUTO_COUNT>
1

> <PUBCHEM_CONFORMER_ID>
02BA993600000001

> <PUBCHEM_MMFF94_ENERGY>
60.327

> <PUBCHEM_FEATURE_SELFOVERLAP>
50.84

> <PUBCHEM_SHAPE_FINGERPRINT>
11135926 11 18043527425479017140
11578080 2 15793968162206631215
12422481 6 18201158746137266218
12633257 1 18262808482975477603
12788726 201 17124255555819597381
15264996 74 17699529651049348196
15274700 242 17969200319266139338
16110190 28 18412543237127836400
19319366 153 16823623869100411061
20554085 129 16988572251966046553
20691752 17 18192738802261265383
20721686 56 18122053213967545786
20775438 99 11174169208788888601
21796203 349 18192461703751455736
3411729 13 17913247280387678473
392239 28 18262531376413342467
581034 39 17489582381235131950
6287921 2 17630352773614054039
6438718 38 17629213880998553037
7064713 232 17918000489732571960

> <PUBCHEM_SHAPE_MULTIPOLES>
595.45
10.63
4.12
2.37
11.66
1.2
0.03
-3.15
9.21
2.66
-1.18
-2.22
-1.1
-2.07

> <PUBCHEM_SHAPE_SELFOVERLAP>
1301.377

> <PUBCHEM_SHAPE_VOLUME>
325.9

> <PUBCHEM_COORDINATE_TYPE>
2
5
10

$$$$
