26743264
  -OEChem-12032416193D

 68 70  0     1  0  0  0  0  0999 V2000
   -2.7092    2.0069    0.2015 O   0  0  0  0  0  0  0  0  0  0  0  0
    5.2838    2.0730    0.5701 O   0  0  0  0  0  0  0  0  0  0  0  0
    6.8337   -1.6451    0.3293 O   0  0  0  0  0  0  0  0  0  0  0  0
    1.6410   -1.5060    2.4359 N   0  0  0  0  0  0  0  0  0  0  0  0
    5.7170    0.7610   -1.2986 N   0  0  0  0  0  0  0  0  0  0  0  0
   -1.3385    2.2353    0.1957 N   0  0  0  0  0  0  0  0  0  0  0  0
    8.2134   -0.7810   -1.3362 N   0  0  0  0  0  0  0  0  0  0  0  0
    2.8245    0.8400    1.0934 C   0  0  1  0  0  0  0  0  0  0  0  0
    1.3250    0.4770    0.9752 C   0  0  2  0  0  0  0  0  0  0  0  0
    3.3838    0.2441    2.3962 C   0  0  0  0  0  0  0  0  0  0  0  0
    1.0887   -1.0306    1.1670 C   0  0  0  0  0  0  0  0  0  0  0  0
    3.0756   -1.2460    2.5355 C   0  0  0  0  0  0  0  0  0  0  0  0
    0.6933    0.9576   -0.3320 C   0  0  0  0  0  0  0  0  0  0  0  0
    3.6682    0.4063   -0.1112 C   0  0  0  0  0  0  0  0  0  0  0  0
   -0.7975    1.0816   -0.2060 C   0  0  0  0  0  0  0  0  0  0  0  0
    4.9626    1.1843   -0.2142 C   0  0  0  0  0  0  0  0  0  0  0  0
   -1.7682    0.0987   -0.4656 C   0  0  0  0  0  0  0  0  0  0  0  0
   -2.9526    0.7312   -0.1941 C   0  0  0  0  0  0  0  0  0  0  0  0
    7.0003    1.3319   -1.6381 C   0  0  0  0  0  0  0  0  0  0  0  0
   -8.4560   -0.8006   -0.3662 C   0  0  0  0  0  0  0  0  0  0  0  0
   -4.3336    0.3472   -0.2377 C   0  0  0  0  0  0  0  0  0  0  0  0
   -7.0199   -0.4006   -0.3210 C   0  0  0  0  0  0  0  0  0  0  0  0
    8.1458    0.6042   -0.9547 C   0  0  0  0  0  0  0  0  0  0  0  0
   -4.6864   -0.9435   -0.6319 C   0  0  0  0  0  0  0  0  0  0  0  0
   -5.3241    1.2639    0.1149 C   0  0  0  0  0  0  0  0  0  0  0  0
   -6.0294   -1.3175   -0.6736 C   0  0  0  0  0  0  0  0  0  0  0  0
   -6.6672    0.8901    0.0732 C   0  0  0  0  0  0  0  0  0  0  0  0
   -8.7389   -2.0014    0.5889 C   0  0  0  0  0  0  0  0  0  0  0  0
   -8.8778   -1.2339   -1.8044 C   0  0  0  0  0  0  0  0  0  0  0  0
   -9.4759    0.3111    0.0494 C   0  0  0  0  0  0  0  0  0  0  0  0
    7.5483   -1.7936   -0.6586 C   0  0  0  0  0  0  0  0  0  0  0  0
    7.7700   -3.1456   -1.2821 C   0  0  0  0  0  0  0  0  0  0  0  0
    2.8792    1.9342    1.1784 H   0  0  0  0  0  0  0  0  0  0  0  0
    0.8207    0.9913    1.8085 H   0  0  0  0  0  0  0  0  0  0  0  0
    2.9394    0.7785    3.2468 H   0  0  0  0  0  0  0  0  0  0  0  0
    4.4658    0.4001    2.4704 H   0  0  0  0  0  0  0  0  0  0  0  0
    0.0174   -1.2510    1.1827 H   0  0  0  0  0  0  0  0  0  0  0  0
    1.5187   -1.6026    0.3355 H   0  0  0  0  0  0  0  0  0  0  0  0
    3.6220   -1.8356    1.7912 H   0  0  0  0  0  0  0  0  0  0  0  0
    3.4228   -1.5868    3.5174 H   0  0  0  0  0  0  0  0  0  0  0  0
    0.9241    0.2766   -1.1603 H   0  0  0  0  0  0  0  0  0  0  0  0
    1.0980    1.9403   -0.6075 H   0  0  0  0  0  0  0  0  0  0  0  0
    3.1368    0.5989   -1.0492 H   0  0  0  0  0  0  0  0  0  0  0  0
    3.8966   -0.6641   -0.0892 H   0  0  0  0  0  0  0  0  0  0  0  0
    1.4731   -2.5079    2.5227 H   0  0  0  0  0  0  0  0  0  0  0  0
   -1.6188   -0.9165   -0.8031 H   0  0  0  0  0  0  0  0  0  0  0  0
    5.3654    0.0098   -1.8854 H   0  0  0  0  0  0  0  0  0  0  0  0
    7.0084    2.3898   -1.3550 H   0  0  0  0  0  0  0  0  0  0  0  0
    7.0991    1.2680   -2.7271 H   0  0  0  0  0  0  0  0  0  0  0  0
    8.0434    0.6665    0.1346 H   0  0  0  0  0  0  0  0  0  0  0  0
    9.0992    1.0645   -1.2332 H   0  0  0  0  0  0  0  0  0  0  0  0
   -3.9373   -1.6796   -0.9120 H   0  0  0  0  0  0  0  0  0  0  0  0
   -5.0886    2.2782    0.4273 H   0  0  0  0  0  0  0  0  0  0  0  0
   -6.2761   -2.3287   -0.9841 H   0  0  0  0  0  0  0  0  0  0  0  0
   -7.3958    1.6413    0.3573 H   0  0  0  0  0  0  0  0  0  0  0  0
   -9.7996   -2.2780    0.5783 H   0  0  0  0  0  0  0  0  0  0  0  0
   -8.1697   -2.8933    0.3046 H   0  0  0  0  0  0  0  0  0  0  0  0
   -8.4666   -1.7505    1.6209 H   0  0  0  0  0  0  0  0  0  0  0  0
   -9.9403   -1.5007   -1.8450 H   0  0  0  0  0  0  0  0  0  0  0  0
   -8.7068   -0.4221   -2.5213 H   0  0  0  0  0  0  0  0  0  0  0  0
   -8.3126   -2.1058   -2.1515 H   0  0  0  0  0  0  0  0  0  0  0  0
  -10.5072   -0.0575   -0.0092 H   0  0  0  0  0  0  0  0  0  0  0  0
   -9.3121    0.6408    1.0821 H   0  0  0  0  0  0  0  0  0  0  0  0
   -9.4099    1.1839   -0.6106 H   0  0  0  0  0  0  0  0  0  0  0  0
    8.7657   -1.0175   -2.1555 H   0  0  0  0  0  0  0  0  0  0  0  0
    8.8313   -3.2952   -1.5008 H   0  0  0  0  0  0  0  0  0  0  0  0
    7.4423   -3.9274   -0.5915 H   0  0  0  0  0  0  0  0  0  0  0  0
    7.1934   -3.2171   -2.2083 H   0  0  0  0  0  0  0  0  0  0  0  0
  1  6  1  0  0  0  0
  1 18  1  0  0  0  0
  2 16  2  0  0  0  0
  3 31  2  0  0  0  0
  4 11  1  0  0  0  0
  4 12  1  0  0  0  0
  4 45  1  0  0  0  0
  5 16  1  0  0  0  0
  5 19  1  0  0  0  0
  5 47  1  0  0  0  0
  6 15  2  0  0  0  0
  7 23  1  0  0  0  0
  7 31  1  0  0  0  0
  7 65  1  0  0  0  0
  8  9  1  0  0  0  0
  8 10  1  0  0  0  0
  8 14  1  0  0  0  0
  8 33  1  0  0  0  0
  9 11  1  0  0  0  0
  9 13  1  0  0  0  0
  9 34  1  0  0  0  0
 10 12  1  0  0  0  0
 10 35  1  0  0  0  0
 10 36  1  0  0  0  0
 11 37  1  0  0  0  0
 11 38  1  0  0  0  0
 12 39  1  0  0  0  0
 12 40  1  0  0  0  0
 13 15  1  0  0  0  0
 13 41  1  0  0  0  0
 13 42  1  0  0  0  0
 14 16  1  0  0  0  0
 14 43  1  0  0  0  0
 14 44  1  0  0  0  0
 15 17  1  0  0  0  0
 17 18  2  0  0  0  0
 17 46  1  0  0  0  0
 18 21  1  0  0  0  0
 19 23  1  0  0  0  0
 19 48  1  0  0  0  0
 19 49  1  0  0  0  0
 20 22  1  0  0  0  0
 20 28  1  0  0  0  0
 20 29  1  0  0  0  0
 20 30  1  0  0  0  0
 21 24  2  0  0  0  0
 21 25  1  0  0  0  0
 22 26  2  0  0  0  0
 22 27  1  0  0  0  0
 23 50  1  0  0  0  0
 23 51  1  0  0  0  0
 24 26  1  0  0  0  0
 24 52  1  0  0  0  0
 25 27  2  0  0  0  0
 25 53  1  0  0  0  0
 26 54  1  0  0  0  0
 27 55  1  0  0  0  0
 28 56  1  0  0  0  0
 28 57  1  0  0  0  0
 28 58  1  0  0  0  0
 29 59  1  0  0  0  0
 29 60  1  0  0  0  0
 29 61  1  0  0  0  0
 30 62  1  0  0  0  0
 30 63  1  0  0  0  0
 30 64  1  0  0  0  0
 31 32  1  0  0  0  0
 32 66  1  0  0  0  0
 32 67  1  0  0  0  0
 32 68  1  0  0  0  0
M  END
> <PUBCHEM_COMPOUND_CID>
26743264

> <PUBCHEM_CONFORMER_RMSD>
1.2

> <PUBCHEM_CONFORMER_DIVERSEORDER>
1
32
8
63
108
43
82
130
62
123
17
74
66
142
54
143
98
132
15
14
6
111
119
65
77
114
99
19
97
102
70
61
56
124
149
129
44
118
140
57
93
7
128
121
45
24
48
76
101
154
68
120
105
9
51
11
141
144
27
55
47
153
86
60
146
104
26
42
23
81
67
94
87
75
100
148
31
39
131
147
106
113
69
136
96
103
25
73
53
117
127
138
116
83
80
126
12
134
34
155
79
13
89
16
40
152
72
36
151
33
125
4
18
41
137
71
28
95
91
29
59
64
133
110
38
150
90
92
84
58
78
135
122
20
35
49
88
21
52
107
22
115
109
139
3
145
112
5
85
2
50
10
30
37
46

> <PUBCHEM_MMFF94_PARTIAL_CHARGES>
34
1 -0.02
11 0.27
12 0.27
13 0.18
14 0.06
15 0.11
16 0.57
17 -0.15
18 0.09
19 0.3
2 -0.57
20 0.14
21 0.05
22 -0.14
23 0.3
24 -0.15
25 -0.15
26 -0.15
27 -0.15
3 -0.57
31 0.57
32 0.06
4 -0.9
45 0.36
46 0.15
47 0.37
5 -0.73
52 0.15
53 0.15
54 0.15
55 0.15
6 -0.41
65 0.37
7 -0.73

> <PUBCHEM_EFFECTIVE_ROTOR_COUNT>
12.2

> <PUBCHEM_PHARMACOPHORE_FEATURES>
11
1 2 acceptor
1 3 acceptor
1 4 cation
1 4 donor
1 5 donor
1 6 acceptor
1 7 donor
4 20 28 29 30 hydrophobe
5 1 6 15 17 18 rings
6 21 22 24 25 26 27 rings
6 4 8 9 10 11 12 rings

> <PUBCHEM_HEAVY_ATOM_COUNT>
32

> <PUBCHEM_ATOM_DEF_STEREO_COUNT>
2

> <PUBCHEM_ATOM_UDEF_STEREO_COUNT>
0

> <PUBCHEM_BOND_DEF_STEREO_COUNT>
0

> <PUBCHEM_BOND_UDEF_STEREO_COUNT>
0

> <PUBCHEM_ISOTOPIC_ATOM_COUNT>
0

> <PUBCHEM_COMPONENT_COUNT>
1

> <PUBCHEM_CACTVS_TAUTO_COUNT>
4

> <PUBCHEM_CONFORMER_ID>
019811E000000001

> <PUBCHEM_MMFF94_ENERGY>
59.1765

> <PUBCHEM_FEATURE_SELFOVERLAP>
55.822

> <PUBCHEM_SHAPE_FINGERPRINT>
10299344 5 18341897385216509053
10533779 47 13542194908847003903
11408170 132 17095791123605184981
11456790 92 13686299101859880955
11991303 11 15936706938398751714
12144603 126 18186804656877124025
12539765 74 12396300344546812640
12838863 1 18116430333933036626
13150687 139 17458352922944481938
13383665 225 15141242040521333662
13627175 4 17846203480599553367
13673619 4 17203891859610557400
13782708 43 16845282886905279414
14118638 360 16298658404818856429
1454969 45 17603584136185125001
150020 25 17749113309030656995
15064986 266 17385724644007065705
15131766 46 11387525983247782286
15183329 4 18335710412777384988
15301273 46 17417810673679872457
15419008 145 13326590535838611387
15461852 350 12612763427710580761
15664458 50 10015581770903499183
1577012 14 18186795856409844513
16991971 28 18408886265469258757
1754911 235 17603585236044763493
1818759 1 18409452488229944523
19301679 30 13397814678566691020
20105231 36 18411423951650295851
2026 5 18058452006903631262
20721686 146 11242267242648888218
20771845 171 15213017121265639978
20812841 46 10735877262291768766
21095086 128 18131914875421664357
21267235 1 18341051904500154893
21344244 181 18409171004853703882
21344244 246 18265055739727048658
21360443 126 16588030134433343346
21521239 73 18261678091518981626
21781051 124 18060138756213241174
21792934 111 12607407680327093963
21792938 324 12895068479612945770
21792938 703 18115037402269794443
232437 2 18272090518168301375
23576562 1 16371581439367656127
24771293 8 12757143559629281967
3178227 256 15410897366423644764
439807 62 18201722847358019022
44880568 143 13985206753956493975
45377200 153 18337675334156228947
504579 68 17967531276739995853
5470011 282 18187369873829083548
9962374 69 15051721006478964909

> <PUBCHEM_SHAPE_MULTIPOLES>
621.01
32.67
2.22
1.73
18.02
0.88
0.97
14.54
-14.01
-2.72
-0.27
-2.76
0.61
-0.25

> <PUBCHEM_SHAPE_SELFOVERLAP>
1290.775

> <PUBCHEM_SHAPE_VOLUME>
352.5

> <PUBCHEM_COORDINATE_TYPE>
2
5
10

$$$$
