45361326
  -OEChem-12032416333D

 64 67  0     1  0  0  0  0  0999 V2000
    3.7841    1.8878    0.8953 S   0  0  0  0  0  0  0  0  0  0  0  0
   -1.7820   -1.7837   -0.4073 O   0  0  0  0  0  0  0  0  0  0  0  0
   -5.7463    1.6627   -0.5959 O   0  0  0  0  0  0  0  0  0  0  0  0
    6.1123   -1.7575   -0.9205 O   0  0  0  0  0  0  0  0  0  0  0  0
    3.4841   -0.3736   -0.3221 N   0  0  0  0  0  0  0  0  0  0  0  0
   -6.0318   -0.1162    0.8559 N   0  0  0  0  0  0  0  0  0  0  0  0
    5.7444    0.3075    0.1639 N   0  0  0  0  0  0  0  0  0  0  0  0
   -0.2191    1.6924   -0.0280 C   0  0  1  0  0  0  0  0  0  0  0  0
   -0.3190    0.1165    0.0123 C   0  0  1  0  0  0  0  0  0  0  0  0
   -1.6345   -0.3849   -0.6481 C   0  0  2  0  0  0  0  0  0  0  0  0
   -2.8909    0.3118   -0.0816 C   0  0  1  0  0  0  0  0  0  0  0  0
   -1.5019    2.3112    0.5753 C   0  0  0  0  0  0  0  0  0  0  0  0
    0.9818   -0.5742   -0.5694 C   0  0  1  0  0  0  0  0  0  0  0  0
   -2.7757    1.8359   -0.1100 C   0  0  0  0  0  0  0  0  0  0  0  0
    0.9839    2.1679    0.8451 C   0  0  0  0  0  0  0  0  0  0  0  0
   -0.0335    2.2269   -1.4722 C   0  0  0  0  0  0  0  0  0  0  0  0
   -4.1638   -0.1202   -0.8195 C   0  0  2  0  0  0  0  0  0  0  0  0
    2.2216    0.1459   -0.0959 C   0  0  0  0  0  0  0  0  0  0  0  0
    2.2027    1.3765    0.5272 C   0  0  0  0  0  0  0  0  0  0  0  0
    1.0806   -2.0677   -0.2255 C   0  0  0  0  0  0  0  0  0  0  0  0
   -4.0423    0.2423   -2.3006 C   0  0  0  0  0  0  0  0  0  0  0  0
   -5.3837    0.5540   -0.1870 C   0  0  0  0  0  0  0  0  0  0  0  0
    4.3826    0.4524    0.1680 C   0  0  0  0  0  0  0  0  0  0  0  0
    7.9997   -0.5819   -0.1908 C   0  0  0  0  0  0  0  0  0  0  0  0
    8.5556   -0.3481    1.1833 C   0  0  0  0  0  0  0  0  0  0  0  0
    8.7840   -1.6619    0.4950 C   0  0  0  0  0  0  0  0  0  0  0  0
    6.5219   -0.7503   -0.3599 C   0  0  0  0  0  0  0  0  0  0  0  0
   -5.6903   -1.4397    1.3738 C   0  0  0  0  0  0  0  0  0  0  0  0
   -7.1846    0.5089    1.4952 C   0  0  0  0  0  0  0  0  0  0  0  0
   -6.4208   -2.4884    0.6626 C   0  0  0  0  0  0  0  0  0  0  0  0
   -7.0189   -3.3522    0.0815 C   0  0  0  0  0  0  0  0  0  0  0  0
   -0.3674   -0.1720    1.0748 H   0  0  0  0  0  0  0  0  0  0  0  0
   -1.5366   -0.2515   -1.7270 H   0  0  0  0  0  0  0  0  0  0  0  0
   -2.9948    0.0118    0.9708 H   0  0  0  0  0  0  0  0  0  0  0  0
   -1.5668    2.0561    1.6418 H   0  0  0  0  0  0  0  0  0  0  0  0
   -1.4535    3.4067    0.5263 H   0  0  0  0  0  0  0  0  0  0  0  0
    0.9617   -0.4869   -1.6639 H   0  0  0  0  0  0  0  0  0  0  0  0
   -2.7914    2.2493   -1.1201 H   0  0  0  0  0  0  0  0  0  0  0  0
   -3.6071    2.3003    0.4310 H   0  0  0  0  0  0  0  0  0  0  0  0
    1.1617    3.2398    0.6936 H   0  0  0  0  0  0  0  0  0  0  0  0
    0.7549    2.0260    1.9095 H   0  0  0  0  0  0  0  0  0  0  0  0
   -0.8224    1.8846   -2.1477 H   0  0  0  0  0  0  0  0  0  0  0  0
    0.9185    1.9187   -1.9146 H   0  0  0  0  0  0  0  0  0  0  0  0
   -0.0484    3.3232   -1.4829 H   0  0  0  0  0  0  0  0  0  0  0  0
   -4.2847   -1.2062   -0.7803 H   0  0  0  0  0  0  0  0  0  0  0  0
    0.9380   -2.2391    0.8470 H   0  0  0  0  0  0  0  0  0  0  0  0
    2.0593   -2.4805   -0.4959 H   0  0  0  0  0  0  0  0  0  0  0  0
    0.3469   -2.6601   -0.7767 H   0  0  0  0  0  0  0  0  0  0  0  0
   -1.8301   -1.9204    0.5542 H   0  0  0  0  0  0  0  0  0  0  0  0
   -3.2635   -0.3245   -2.8163 H   0  0  0  0  0  0  0  0  0  0  0  0
   -4.9808   -0.0238   -2.8050 H   0  0  0  0  0  0  0  0  0  0  0  0
   -3.9016    1.3061   -2.5026 H   0  0  0  0  0  0  0  0  0  0  0  0
    8.4915   -0.0803   -1.0181 H   0  0  0  0  0  0  0  0  0  0  0  0
    6.2466    1.0787    0.5968 H   0  0  0  0  0  0  0  0  0  0  0  0
    7.8831   -0.3416    2.0324 H   0  0  0  0  0  0  0  0  0  0  0  0
    9.3987    0.3255    1.2774 H   0  0  0  0  0  0  0  0  0  0  0  0
    9.7812   -1.8719    0.1281 H   0  0  0  0  0  0  0  0  0  0  0  0
    8.2573   -2.5272    0.8785 H   0  0  0  0  0  0  0  0  0  0  0  0
   -4.6146   -1.6112    1.2886 H   0  0  0  0  0  0  0  0  0  0  0  0
   -5.9202   -1.4678    2.4451 H   0  0  0  0  0  0  0  0  0  0  0  0
   -8.0572   -0.1398    1.3746 H   0  0  0  0  0  0  0  0  0  0  0  0
   -7.4135    1.4863    1.0632 H   0  0  0  0  0  0  0  0  0  0  0  0
   -6.9695    0.6405    2.5599 H   0  0  0  0  0  0  0  0  0  0  0  0
   -7.5494   -4.1181   -0.4343 H   0  0  0  0  0  0  0  0  0  0  0  0
  1 19  1  0  0  0  0
  1 23  1  0  0  0  0
  2 10  1  0  0  0  0
  2 49  1  0  0  0  0
  3 22  2  0  0  0  0
  4 27  2  0  0  0  0
  5 18  1  0  0  0  0
  5 23  2  0  0  0  0
  6 22  1  0  0  0  0
  6 28  1  0  0  0  0
  6 29  1  0  0  0  0
  7 23  1  0  0  0  0
  7 27  1  0  0  0  0
  7 54  1  0  0  0  0
  8  9  1  0  0  0  0
  8 12  1  0  0  0  0
  8 15  1  0  0  0  0
  8 16  1  0  0  0  0
  9 10  1  0  0  0  0
  9 13  1  0  0  0  0
  9 32  1  0  0  0  0
 10 11  1  0  0  0  0
 10 33  1  0  0  0  0
 11 14  1  0  0  0  0
 11 17  1  0  0  0  0
 11 34  1  0  0  0  0
 12 14  1  0  0  0  0
 12 35  1  0  0  0  0
 12 36  1  0  0  0  0
 13 18  1  0  0  0  0
 13 20  1  0  0  0  0
 13 37  1  0  0  0  0
 14 38  1  0  0  0  0
 14 39  1  0  0  0  0
 15 19  1  0  0  0  0
 15 40  1  0  0  0  0
 15 41  1  0  0  0  0
 16 42  1  0  0  0  0
 16 43  1  0  0  0  0
 16 44  1  0  0  0  0
 17 21  1  0  0  0  0
 17 22  1  0  0  0  0
 17 45  1  0  0  0  0
 18 19  2  0  0  0  0
 20 46  1  0  0  0  0
 20 47  1  0  0  0  0
 20 48  1  0  0  0  0
 21 50  1  0  0  0  0
 21 51  1  0  0  0  0
 21 52  1  0  0  0  0
 24 25  1  0  0  0  0
 24 26  1  0  0  0  0
 24 27  1  0  0  0  0
 24 53  1  0  0  0  0
 25 26  1  0  0  0  0
 25 55  1  0  0  0  0
 25 56  1  0  0  0  0
 26 57  1  0  0  0  0
 26 58  1  0  0  0  0
 28 30  1  0  0  0  0
 28 59  1  0  0  0  0
 28 60  1  0  0  0  0
 29 61  1  0  0  0  0
 29 62  1  0  0  0  0
 29 63  1  0  0  0  0
 30 31  3  0  0  0  0
 31 64  1  0  0  0  0
M  END
> <PUBCHEM_COMPOUND_CID>
45361326

> <PUBCHEM_CONFORMER_RMSD>
1

> <PUBCHEM_CONFORMER_DIVERSEORDER>
1
72
31
61
67
48
14
50
38
53
69
17
35
64
58
16
19
63
73
36
54
47
32
28
52
60
33
20
62
34
56
40
43
12
57
68
70
44
39
41
42
26
27
45
49
66
51
7
59
15
71
29
21
65
25
3
4
22
37
24
55
18
46
9
11
13
30
5
10
23
6
8
2

> <PUBCHEM_MMFF94_PARTIAL_CHARGES>
31
1 -0.08
10 0.28
13 0.18
15 0.18
17 0.06
18 0.05
19 -0.14
2 -0.68
22 0.57
23 0.44
24 -0.1
25 -0.2
26 -0.2
27 0.63
28 0.5
29 0.3
3 -0.57
30 -0.2
31 -0.18
4 -0.57
49 0.4
5 -0.57
53 0.1
54 0.37
55 0.1
56 0.1
57 0.1
58 0.1
6 -0.66
64 0.18
7 -0.49

> <PUBCHEM_EFFECTIVE_ROTOR_COUNT>
8.8

> <PUBCHEM_PHARMACOPHORE_FEATURES>
10
1 2 acceptor
1 2 donor
1 21 hydrophobe
1 3 acceptor
1 31 hydrophobe
1 4 acceptor
1 7 donor
5 1 5 18 19 23 rings
6 8 9 10 11 12 14 rings
6 8 9 13 15 18 19 rings

> <PUBCHEM_HEAVY_ATOM_COUNT>
31

> <PUBCHEM_ATOM_DEF_STEREO_COUNT>
5

> <PUBCHEM_ATOM_UDEF_STEREO_COUNT>
1

> <PUBCHEM_BOND_DEF_STEREO_COUNT>
0

> <PUBCHEM_BOND_UDEF_STEREO_COUNT>
0

> <PUBCHEM_ISOTOPIC_ATOM_COUNT>
0

> <PUBCHEM_COMPONENT_COUNT>
1

> <PUBCHEM_CACTVS_TAUTO_COUNT>
3

> <PUBCHEM_CONFORMER_ID>
02B428AE00000001

> <PUBCHEM_MMFF94_ENERGY>
85.6871

> <PUBCHEM_FEATURE_SELFOVERLAP>
50.826

> <PUBCHEM_SHAPE_FINGERPRINT>
11135926 11 18337665334981259703
11456790 92 17418092118639220866
11578821 258 10519692407157766050
11963148 33 18334850611032033722
12166972 35 17894635880675278116
13383668 362 18126555950649037544
13685833 64 18413671301608369376
13782708 43 18333725819072758970
13811026 1 18411976987758329582
14251764 18 17918274247423256352
14856354 85 16298390175732101315
14955137 171 18337394941284013837
15131766 46 13899896875444678962
15183329 4 18342730798388635702
15461852 350 11530489938591362281
18608769 82 18410013242853814355
21150785 3 14779270808476868000
21267235 1 18412829079801378760
21781051 124 18337122245457690142
21792934 111 18201996620857598552
21792961 116 18114455669906870765
23522609 53 18121814783042630549
23559900 14 18270950367127999544
23576562 1 9366759868256773795
3178227 256 18343869913756730946
335352 9 18343860017830594172
3383291 50 18411135857527914026
350125 39 18341609283606667276
4169191 19 7853577928200189710
4339292 15 18114172082107469775
444769 64 18202843266433112519
504579 68 14779543504435086287
5104073 3 18201150061760561633
5937810 71 11674864586254226695
59755656 215 18341611469824032142
636775 8 18411991235193765302
6691757 9 15338835387624865807
999808 66 18409733958394619323

> <PUBCHEM_SHAPE_MULTIPOLES>
609.26
23.53
2.73
1.25
25.42
0.74
0.24
15.73
-6.11
-2.84
-0.22
-1.24
-0.18
1.15

> <PUBCHEM_SHAPE_SELFOVERLAP>
1264.237

> <PUBCHEM_SHAPE_VOLUME>
351.8

> <PUBCHEM_COORDINATE_TYPE>
2
5
10

$$$$
