45784118
  -OEChem-12032416253D

 62 64  0     1  0  0  0  0  0999 V2000
    2.9190    0.7439    0.3553 O   0  0  0  0  0  0  0  0  0  0  0  0
   -3.0279   -0.0608    0.1115 N   0  0  0  0  0  0  0  0  0  0  0  0
    3.6372   -0.6439    1.9561 N   0  0  0  0  0  0  0  0  0  0  0  0
    4.7384    0.0004    1.4236 N   0  0  0  0  0  0  0  0  0  0  0  0
   -6.2624    1.6257   -0.3468 N   0  0  0  0  0  0  0  0  0  0  0  0
   -0.5742   -1.1360   -1.1947 C   0  0  1  0  0  0  0  0  0  0  0  0
   -1.7816   -1.9751   -0.7068 C   0  0  1  0  0  0  0  0  0  0  0  0
    0.7436   -1.7636   -0.7155 C   0  0  0  0  0  0  0  0  0  0  0  0
    0.8129   -1.8721    0.8195 C   0  0  2  0  0  0  0  0  0  0  0  0
   -0.5577   -0.9965   -2.7201 C   0  0  0  0  0  0  0  0  0  0  0  0
   -0.4620   -2.4483    1.4015 C   0  0  0  0  0  0  0  0  0  0  0  0
   -1.6082   -2.4981    0.6998 C   0  0  0  0  0  0  0  0  0  0  0  0
   -3.0850   -1.1730   -0.7964 C   0  0  0  0  0  0  0  0  0  0  0  0
    1.1425   -0.5167    1.4547 C   0  0  0  0  0  0  0  0  0  0  0  0
    0.2118    0.2546   -3.1318 C   0  0  0  0  0  0  0  0  0  0  0  0
    0.0489   -2.2404   -3.3615 C   0  0  0  0  0  0  0  0  0  0  0  0
   -0.3779   -3.0083    2.7941 C   0  0  0  0  0  0  0  0  0  0  0  0
    2.5980   -0.1790    1.3028 C   0  0  0  0  0  0  0  0  0  0  0  0
   -4.0534    0.8630    0.2725 C   0  0  0  0  0  0  0  0  0  0  0  0
    4.9910    1.7239   -0.3929 C   0  0  0  0  0  0  0  0  0  0  0  0
    4.2719    0.8000    0.4931 C   0  0  0  0  0  0  0  0  0  0  0  0
   -3.9328    1.9179    1.1703 C   0  0  0  0  0  0  0  0  0  0  0  0
    6.4437    1.2241   -0.7106 C   0  0  0  0  0  0  0  0  0  0  0  0
    5.1340    3.1533    0.2373 C   0  0  0  0  0  0  0  0  0  0  0  0
    4.3425    1.9777   -1.8055 C   0  0  0  0  0  0  0  0  0  0  0  0
   -5.2279    0.7622   -0.4557 C   0  0  0  0  0  0  0  0  0  0  0  0
   -4.9757    2.8268    1.3105 C   0  0  0  0  0  0  0  0  0  0  0  0
   -6.1089    2.6383    0.5359 C   0  0  0  0  0  0  0  0  0  0  0  0
   -0.6421   -0.1287   -0.7683 H   0  0  0  0  0  0  0  0  0  0  0  0
   -1.8971   -2.8576   -1.3487 H   0  0  0  0  0  0  0  0  0  0  0  0
    0.8394   -2.7918   -1.0883 H   0  0  0  0  0  0  0  0  0  0  0  0
    1.6114   -1.2132   -1.0934 H   0  0  0  0  0  0  0  0  0  0  0  0
    1.6243   -2.5789    1.0469 H   0  0  0  0  0  0  0  0  0  0  0  0
   -1.5754   -0.8804   -3.1061 H   0  0  0  0  0  0  0  0  0  0  0  0
   -2.4812   -2.9652    1.1517 H   0  0  0  0  0  0  0  0  0  0  0  0
   -3.9263   -1.8277   -0.5330 H   0  0  0  0  0  0  0  0  0  0  0  0
   -3.2568   -0.8269   -1.8204 H   0  0  0  0  0  0  0  0  0  0  0  0
    0.9405   -0.5272    2.5322 H   0  0  0  0  0  0  0  0  0  0  0  0
    0.5284    0.2916    1.0432 H   0  0  0  0  0  0  0  0  0  0  0  0
   -0.2412    1.1532   -2.6994 H   0  0  0  0  0  0  0  0  0  0  0  0
    0.1970    0.3715   -4.2211 H   0  0  0  0  0  0  0  0  0  0  0  0
    1.2603    0.2202   -2.8195 H   0  0  0  0  0  0  0  0  0  0  0  0
    1.1341   -2.3066   -3.2300 H   0  0  0  0  0  0  0  0  0  0  0  0
   -0.1173   -2.2033   -4.4454 H   0  0  0  0  0  0  0  0  0  0  0  0
   -0.4150   -3.1666   -3.0100 H   0  0  0  0  0  0  0  0  0  0  0  0
    0.4170   -3.7587    2.8543 H   0  0  0  0  0  0  0  0  0  0  0  0
   -1.3107   -3.4955    3.0979 H   0  0  0  0  0  0  0  0  0  0  0  0
   -0.1688   -2.2202    3.5230 H   0  0  0  0  0  0  0  0  0  0  0  0
   -2.2154    0.0605    0.7066 H   0  0  0  0  0  0  0  0  0  0  0  0
   -3.0322    2.0425    1.7657 H   0  0  0  0  0  0  0  0  0  0  0  0
    6.4170    0.2469   -1.2065 H   0  0  0  0  0  0  0  0  0  0  0  0
    7.0270    1.1120    0.2108 H   0  0  0  0  0  0  0  0  0  0  0  0
    6.9794    1.9235   -1.3622 H   0  0  0  0  0  0  0  0  0  0  0  0
    4.1480    3.5949    0.4234 H   0  0  0  0  0  0  0  0  0  0  0  0
    5.6952    3.8305   -0.4161 H   0  0  0  0  0  0  0  0  0  0  0  0
    5.6574    3.0995    1.1990 H   0  0  0  0  0  0  0  0  0  0  0  0
    4.9491    2.6546   -2.4173 H   0  0  0  0  0  0  0  0  0  0  0  0
    4.2293    1.0324   -2.3487 H   0  0  0  0  0  0  0  0  0  0  0  0
    3.3441    2.4179   -1.7014 H   0  0  0  0  0  0  0  0  0  0  0  0
   -5.4054   -0.0293   -1.1763 H   0  0  0  0  0  0  0  0  0  0  0  0
   -4.9038    3.6567    2.0042 H   0  0  0  0  0  0  0  0  0  0  0  0
   -6.9504    3.3194    0.6078 H   0  0  0  0  0  0  0  0  0  0  0  0
  1 18  1  0  0  0  0
  1 21  1  0  0  0  0
  2 13  1  0  0  0  0
  2 19  1  0  0  0  0
  2 49  1  0  0  0  0
  3  4  1  0  0  0  0
  3 18  2  0  0  0  0
  4 21  2  0  0  0  0
  5 26  1  0  0  0  0
  5 28  2  0  0  0  0
  6  7  1  0  0  0  0
  6  8  1  0  0  0  0
  6 10  1  0  0  0  0
  6 29  1  0  0  0  0
  7 12  1  0  0  0  0
  7 13  1  0  0  0  0
  7 30  1  0  0  0  0
  8  9  1  0  0  0  0
  8 31  1  0  0  0  0
  8 32  1  0  0  0  0
  9 11  1  0  0  0  0
  9 14  1  0  0  0  0
  9 33  1  0  0  0  0
 10 15  1  0  0  0  0
 10 16  1  0  0  0  0
 10 34  1  0  0  0  0
 11 12  2  0  0  0  0
 11 17  1  0  0  0  0
 12 35  1  0  0  0  0
 13 36  1  0  0  0  0
 13 37  1  0  0  0  0
 14 18  1  0  0  0  0
 14 38  1  0  0  0  0
 14 39  1  0  0  0  0
 15 40  1  0  0  0  0
 15 41  1  0  0  0  0
 15 42  1  0  0  0  0
 16 43  1  0  0  0  0
 16 44  1  0  0  0  0
 16 45  1  0  0  0  0
 17 46  1  0  0  0  0
 17 47  1  0  0  0  0
 17 48  1  0  0  0  0
 19 22  1  0  0  0  0
 19 26  2  0  0  0  0
 20 21  1  0  0  0  0
 20 23  1  0  0  0  0
 20 24  1  0  0  0  0
 20 25  1  0  0  0  0
 22 27  2  0  0  0  0
 22 50  1  0  0  0  0
 23 51  1  0  0  0  0
 23 52  1  0  0  0  0
 23 53  1  0  0  0  0
 24 54  1  0  0  0  0
 24 55  1  0  0  0  0
 24 56  1  0  0  0  0
 25 57  1  0  0  0  0
 25 58  1  0  0  0  0
 25 59  1  0  0  0  0
 26 60  1  0  0  0  0
 27 28  1  0  0  0  0
 27 61  1  0  0  0  0
 28 62  1  0  0  0  0
M  END
> <PUBCHEM_COMPOUND_CID>
45784118

> <PUBCHEM_CONFORMER_RMSD>
1.2

> <PUBCHEM_CONFORMER_DIVERSEORDER>
1
75
111
38
83
85
95
19
18
43
4
30
16
31
74
82
123
99
112
89
5
39
14
105
35
28
124
50
92
67
81
71
115
12
73
20
41
40
32
94
108
48
15
80
65
58
29
69
55
63
93
121
113
45
90
59
84
22
70
77
87
10
122
36
100
24
6
110
109
26
54
3
61
46
2
104
102
23
8
68
107
117
7
79
96
57
72
64
116
91
88
53
25
13
62
56
103
44
101
27
78
42
60
97
34
86
76
47
98
17
119
33
52
11
106
37
21
66
49
120
114
118
51
9

> <PUBCHEM_MMFF94_PARTIAL_CHARGES>
26
1 -0.28
11 -0.28
12 -0.29
13 0.37
14 0.18
17 0.14
18 0.3
19 0.1
2 -0.87
20 0.18
21 0.3
22 -0.15
26 0.16
27 -0.15
28 0.16
3 -0.34
35 0.15
4 -0.34
49 0.4
5 -0.62
50 0.15
60 0.15
61 0.15
62 0.15
7 0.14
9 0.14

> <PUBCHEM_EFFECTIVE_ROTOR_COUNT>
7.8

> <PUBCHEM_PHARMACOPHORE_FEATURES>
8
1 2 cation
1 2 donor
1 5 acceptor
3 10 15 16 hydrophobe
4 20 23 24 25 hydrophobe
5 1 3 4 18 21 rings
6 5 19 22 26 27 28 rings
6 6 7 8 9 11 12 rings

> <PUBCHEM_HEAVY_ATOM_COUNT>
28

> <PUBCHEM_ATOM_DEF_STEREO_COUNT>
3

> <PUBCHEM_ATOM_UDEF_STEREO_COUNT>
0

> <PUBCHEM_BOND_DEF_STEREO_COUNT>
0

> <PUBCHEM_BOND_UDEF_STEREO_COUNT>
0

> <PUBCHEM_ISOTOPIC_ATOM_COUNT>
0

> <PUBCHEM_COMPONENT_COUNT>
1

> <PUBCHEM_CACTVS_TAUTO_COUNT>
1

> <PUBCHEM_CONFORMER_ID>
02BA9C3600000001

> <PUBCHEM_MMFF94_ENERGY>
70.0439

> <PUBCHEM_FEATURE_SELFOVERLAP>
40.596

> <PUBCHEM_SHAPE_FINGERPRINT>
105312 117 17561080327979975975
10721379 63 16413524290104290783
11578080 2 17558301845439553599
11763715 3 17400932288923972814
1200032 147 17630624336069795265
12390115 104 18114186375251995130
12422481 6 16443061698936560927
12633257 1 17895179013881444074
12788726 201 18121490521522492171
13885169 86 18334019418906319857
14028597 1 15365064425914726059
14251751 18 7853856074861920013
14765038 42 17096663195773006284
14840074 17 17530969089641444125
14848178 5 8935003641976753097
14849402 71 18046063765789515955
15163728 17 18059864943494843607
15238133 3 18341320155040076568
15961568 22 18270681966111066837
16067690 210 18343022237167948064
17980427 23 17385731313785288747
17980427 26 18265040358489209079
20775438 99 11455012833326806036
21304303 94 11310610677522562581
21344244 78 11697018340571424839
21458453 9 15792310326131781585
21756936 100 18337387257481402834
23536364 44 14189581810558075315
23559900 14 16554803778227006903
2838139 119 17988631987335480345
312425 83 17487617657515337948
3729539 64 16056611927843512526
38570 142 18334585615933514586
4015057 19 13470401240618590698
4173938 306 15266761283896435394
439807 62 10519689113075617577
44802255 64 17488467558560083796
469060 322 15068895451018829483
5104073 3 17386836374526246656
550186 7 18200877387225250351
56638632 10 18040988583888805853
7288768 16 18040435516359272115
7808743 9 18341890792837309729
7970288 3 9799400123239490689
9981440 41 18200329808811731271

> <PUBCHEM_SHAPE_MULTIPOLES>
550.43
13.56
3.68
2.8
0.28
0.46
-1.76
18.15
1.66
-1.85
0.99
0.83
-2.04
-1.77

> <PUBCHEM_SHAPE_SELFOVERLAP>
1144.394

> <PUBCHEM_SHAPE_VOLUME>
313

> <PUBCHEM_COORDINATE_TYPE>
2
5
10

$$$$
