56775817
  -OEChem-12032416323D

 44 46  0     0  0  0  0  0  0999 V2000
   -4.4788    2.5206    1.0675 O   0  0  0  0  0  0  0  0  0  0  0  0
    1.0167    2.3439   -0.1388 O   0  0  0  0  0  0  0  0  0  0  0  0
   -4.0423   -1.3230   -1.1376 O   0  0  0  0  0  0  0  0  0  0  0  0
   -3.4544   -3.7725   -0.1789 O   0  0  0  0  0  0  0  0  0  0  0  0
    6.4589   -0.7675    0.4197 O   0  0  0  0  0  0  0  0  0  0  0  0
   -2.9019   -0.2635    0.5859 N   0  0  0  0  0  0  0  0  0  0  0  0
   -0.3200    2.6423   -0.3737 N   0  0  0  0  0  0  0  0  0  0  0  0
   -3.1600    1.1184    0.1451 C   0  0  0  0  0  0  0  0  0  0  0  0
   -3.0926    2.1571    1.2589 C   0  0  0  0  0  0  0  0  0  0  0  0
   -4.6370    1.4884    0.0675 C   0  0  0  0  0  0  0  0  0  0  0  0
   -2.3450    1.4244   -1.0833 C   0  0  0  0  0  0  0  0  0  0  0  0
   -0.8732    1.4835   -0.7426 C   0  0  0  0  0  0  0  0  0  0  0  0
   -3.3747   -1.3689   -0.1079 C   0  0  0  0  0  0  0  0  0  0  0  0
    0.0565    0.4294   -0.7585 C   0  0  0  0  0  0  0  0  0  0  0  0
    1.2286    1.0233   -0.3714 C   0  0  0  0  0  0  0  0  0  0  0  0
   -2.9714   -2.6677    0.5556 C   0  0  0  0  0  0  0  0  0  0  0  0
    2.5714    0.5631   -0.1671 C   0  0  0  0  0  0  0  0  0  0  0  0
    3.5607    1.4577    0.2414 C   0  0  0  0  0  0  0  0  0  0  0  0
    2.8885   -0.7788   -0.3776 C   0  0  0  0  0  0  0  0  0  0  0  0
    4.8669    1.0104    0.4396 C   0  0  0  0  0  0  0  0  0  0  0  0
    4.1946   -1.2263   -0.1795 C   0  0  0  0  0  0  0  0  0  0  0  0
   -3.0894   -5.0111    0.4231 C   0  0  0  0  0  0  0  0  0  0  0  0
    5.1838   -0.3317    0.2291 C   0  0  0  0  0  0  0  0  0  0  0  0
    6.7141   -2.1515    0.1835 C   0  0  0  0  0  0  0  0  0  0  0  0
   -2.9278    1.7705    2.2704 H   0  0  0  0  0  0  0  0  0  0  0  0
   -2.4515    3.0289    1.1089 H   0  0  0  0  0  0  0  0  0  0  0  0
   -4.9826    1.9051   -0.8837 H   0  0  0  0  0  0  0  0  0  0  0  0
   -5.3530    0.7318    0.4046 H   0  0  0  0  0  0  0  0  0  0  0  0
   -2.6362    2.3933   -1.5121 H   0  0  0  0  0  0  0  0  0  0  0  0
   -2.5055    0.6893   -1.8809 H   0  0  0  0  0  0  0  0  0  0  0  0
   -2.3495   -0.4280    1.4244 H   0  0  0  0  0  0  0  0  0  0  0  0
   -0.1118   -0.6063   -1.0155 H   0  0  0  0  0  0  0  0  0  0  0  0
   -1.8770   -2.7046    0.6090 H   0  0  0  0  0  0  0  0  0  0  0  0
   -3.3871   -2.6825    1.5699 H   0  0  0  0  0  0  0  0  0  0  0  0
    3.3532    2.5105    0.4154 H   0  0  0  0  0  0  0  0  0  0  0  0
    2.1387   -1.4986   -0.6960 H   0  0  0  0  0  0  0  0  0  0  0  0
    5.6337    1.7116    0.7573 H   0  0  0  0  0  0  0  0  0  0  0  0
    4.3719   -2.2809   -0.3611 H   0  0  0  0  0  0  0  0  0  0  0  0
   -3.4908   -5.8223   -0.1900 H   0  0  0  0  0  0  0  0  0  0  0  0
   -3.5150   -5.0872    1.4282 H   0  0  0  0  0  0  0  0  0  0  0  0
   -2.0003   -5.1089    0.4651 H   0  0  0  0  0  0  0  0  0  0  0  0
    6.1528   -2.7880    0.8759 H   0  0  0  0  0  0  0  0  0  0  0  0
    6.5376   -2.4202   -0.8636 H   0  0  0  0  0  0  0  0  0  0  0  0
    7.7771   -2.3226    0.3825 H   0  0  0  0  0  0  0  0  0  0  0  0
  1  9  1  0  0  0  0
  1 10  1  0  0  0  0
  2  7  1  0  0  0  0
  2 15  1  0  0  0  0
  3 13  2  0  0  0  0
  4 16  1  0  0  0  0
  4 22  1  0  0  0  0
  5 23  1  0  0  0  0
  5 24  1  0  0  0  0
  6  8  1  0  0  0  0
  6 13  1  0  0  0  0
  6 31  1  0  0  0  0
  7 12  2  0  0  0  0
  8  9  1  0  0  0  0
  8 10  1  0  0  0  0
  8 11  1  0  0  0  0
  9 25  1  0  0  0  0
  9 26  1  0  0  0  0
 10 27  1  0  0  0  0
 10 28  1  0  0  0  0
 11 12  1  0  0  0  0
 11 29  1  0  0  0  0
 11 30  1  0  0  0  0
 12 14  1  0  0  0  0
 13 16  1  0  0  0  0
 14 15  2  0  0  0  0
 14 32  1  0  0  0  0
 15 17  1  0  0  0  0
 16 33  1  0  0  0  0
 16 34  1  0  0  0  0
 17 18  2  0  0  0  0
 17 19  1  0  0  0  0
 18 20  1  0  0  0  0
 18 35  1  0  0  0  0
 19 21  2  0  0  0  0
 19 36  1  0  0  0  0
 20 23  2  0  0  0  0
 20 37  1  0  0  0  0
 21 23  1  0  0  0  0
 21 38  1  0  0  0  0
 22 39  1  0  0  0  0
 22 40  1  0  0  0  0
 22 41  1  0  0  0  0
 24 42  1  0  0  0  0
 24 43  1  0  0  0  0
 24 44  1  0  0  0  0
M  END
> <PUBCHEM_COMPOUND_CID>
56775817

> <PUBCHEM_CONFORMER_RMSD>
1

> <PUBCHEM_CONFORMER_DIVERSEORDER>
1
56
24
21
46
13
17
57
39
59
23
44
6
26
53
54
43
15
60
29
40
20
19
34
11
55
50
35
51
32
10
16
52
18
5
4
31
49
9
36
38
3
58
14
2
33
7
47
42
37
28
45
8
30
12
25
48
27
41
22

> <PUBCHEM_MMFF94_PARTIAL_CHARGES>
30
1 -0.52
10 0.26
11 0.18
12 0.11
13 0.57
14 -0.15
15 0.09
16 0.34
17 0.05
18 -0.15
19 -0.15
2 -0.02
20 -0.15
21 -0.15
22 0.28
23 0.08
24 0.28
3 -0.57
31 0.37
32 0.15
35 0.15
36 0.15
37 0.15
38 0.15
4 -0.56
5 -0.36
6 -0.65
7 -0.41
8 0.22
9 0.26

> <PUBCHEM_EFFECTIVE_ROTOR_COUNT>
8.8

> <PUBCHEM_PHARMACOPHORE_FEATURES>
9
1 1 acceptor
1 3 acceptor
1 4 acceptor
1 5 acceptor
1 6 donor
1 7 acceptor
4 1 8 9 10 rings
5 2 7 12 14 15 rings
6 17 18 19 20 21 23 rings

> <PUBCHEM_HEAVY_ATOM_COUNT>
24

> <PUBCHEM_ATOM_DEF_STEREO_COUNT>
0

> <PUBCHEM_ATOM_UDEF_STEREO_COUNT>
0

> <PUBCHEM_BOND_DEF_STEREO_COUNT>
0

> <PUBCHEM_BOND_UDEF_STEREO_COUNT>
0

> <PUBCHEM_ISOTOPIC_ATOM_COUNT>
0

> <PUBCHEM_COMPONENT_COUNT>
1

> <PUBCHEM_CACTVS_TAUTO_COUNT>
2

> <PUBCHEM_CONFORMER_ID>
0362548900000001

> <PUBCHEM_MMFF94_ENERGY>
59.0718

> <PUBCHEM_FEATURE_SELFOVERLAP>
45.681

> <PUBCHEM_SHAPE_FINGERPRINT>
11036077 4 18342742884315733097
11045977 3 18201995513019500560
11405975 8 18413390925695199024
11524674 6 17703784774118768742
11552529 35 18342174509343869603
12507557 5 14548723006804142793
12616971 3 17676497129121849548
13583140 156 16415469441779091044
13911852 28 17833835250566997939
14341114 176 18338519634589843872
14844126 61 18409733993255713027
14866123 147 18410860993043662627
15250474 111 18260539018546950994
15348495 7 18273206500684642288
15352361 1 18264486372126694311
15537594 2 17676771963925789170
15728490 83 18189622803093515595
15799311 1 18336844004612082318
17492 89 18121218942033821619
17780758 139 18271524212980635320
1813 80 17458072538303980188
19141452 34 18408608041466396869
20281475 54 18335143128258307948
20681677 274 18198061593680668969
21403212 168 18196096547865130889
22122407 14 16128655253973846120
23466295 7 17969230100047558499
23522609 53 18120404019909851084
23559900 14 18268136738247084833
26918003 58 18201435835957733248
312425 54 18342731880762443408
3383291 50 18411141338333328099
3633792 109 18267575807350403013
4073 2 18412263939609724594
4214541 1 18412262826443223792
4616759 239 18131057209408059682
484985 159 18334850628480408535
5104073 3 18342449353592799632
5486654 36 18334584563682266945
559249 180 18335700512360958949
5924683 9 18342174501128344839
59755656 520 18338510847123524005
7970288 3 17905608061807136443
9981440 41 16845017793155582493

> <PUBCHEM_SHAPE_MULTIPOLES>
454.6
13.76
4.38
0.92
18.43
6.31
-0.01
5.75
-2.39
-6.76
-0.67
-0.67
-0.26
-0.46

> <PUBCHEM_SHAPE_SELFOVERLAP>
965.526

> <PUBCHEM_SHAPE_VOLUME>
256

> <PUBCHEM_COORDINATE_TYPE>
2
5
10

$$$$
