11867600
  -OEChem-12032416133D

 66 68  0     1  0  0  0  0  0999 V2000
   -5.3267   -0.2158    3.1979 F   0  0  0  0  0  0  0  0  0  0  0  0
    0.8263   -0.5864    1.2085 O   0  0  0  0  0  0  0  0  0  0  0  0
    2.1142   -4.4848   -0.2372 O   0  0  0  0  0  0  0  0  0  0  0  0
   -2.9437    0.6499   -1.6261 O   0  0  0  0  0  0  0  0  0  0  0  0
    3.7331    2.5960    2.2878 O   0  0  0  0  0  0  0  0  0  0  0  0
    4.1941    0.7855    0.9470 O   0  0  0  0  0  0  0  0  0  0  0  0
    0.9178   -2.5365   -0.6574 N   0  0  0  0  0  0  0  0  0  0  0  0
   -1.6274   -1.1277   -0.8709 N   0  0  0  0  0  0  0  0  0  0  0  0
    1.7486    0.9295   -0.2983 N   0  0  0  0  0  0  0  0  0  0  0  0
    3.2823   -2.5422   -0.6190 N   0  0  0  0  0  0  0  0  0  0  0  0
   -1.5405    4.6400   -0.2795 N   0  0  0  0  0  0  0  0  0  0  0  0
    0.8575   -1.1404   -1.1162 C   0  0  1  0  0  0  0  0  0  0  0  0
   -0.4948   -0.7717   -1.7284 C   0  0  0  0  0  0  0  0  0  0  0  0
   -0.3619   -3.2398   -0.5293 C   0  0  0  0  0  0  0  0  0  0  0  0
   -1.4782   -2.3279   -0.0390 C   0  0  0  0  0  0  0  0  0  0  0  0
    1.1385   -0.2583    0.0668 C   0  0  0  0  0  0  0  0  0  0  0  0
    2.1071   -3.2754   -0.4878 C   0  0  0  0  0  0  0  0  0  0  0  0
   -2.7946   -0.3586   -0.9373 C   0  0  0  0  0  0  0  0  0  0  0  0
    2.1033    1.9602    0.6504 C   0  0  2  0  0  0  0  0  0  0  0  0
    4.5880   -3.1444   -0.4714 C   0  0  0  0  0  0  0  0  0  0  0  0
   -3.9464   -0.7751   -0.1213 C   0  0  0  0  0  0  0  0  0  0  0  0
    2.0160    3.3626    0.0301 C   0  0  0  0  0  0  0  0  0  0  0  0
    3.4600    1.7051    1.2938 C   0  0  0  0  0  0  0  0  0  0  0  0
    0.6706    3.7060   -0.5683 C   0  0  0  0  0  0  0  0  0  0  0  0
    5.0236   -3.1130    0.9878 C   0  0  0  0  0  0  0  0  0  0  0  0
    5.6037   -2.4447   -1.3659 C   0  0  0  0  0  0  0  0  0  0  0  0
   -4.0935   -0.2884    1.1777 C   0  0  0  0  0  0  0  0  0  0  0  0
   -4.8910   -1.6566   -0.6469 C   0  0  0  0  0  0  0  0  0  0  0  0
   -5.1852   -0.6832    1.9508 C   0  0  0  0  0  0  0  0  0  0  0  0
   -5.9827   -2.0515    0.1263 C   0  0  0  0  0  0  0  0  0  0  0  0
    0.3863    3.4257   -1.9002 C   0  0  0  0  0  0  0  0  0  0  0  0
   -0.3181    4.3084    0.1930 C   0  0  0  0  0  0  0  0  0  0  0  0
   -6.1299   -1.5647    1.4251 C   0  0  0  0  0  0  0  0  0  0  0  0
   -0.8603    3.7520   -2.4228 C   0  0  0  0  0  0  0  0  0  0  0  0
    4.9841    2.4141    2.9588 C   0  0  0  0  0  0  0  0  0  0  0  0
   -1.7805    4.3523   -1.5785 C   0  0  0  0  0  0  0  0  0  0  0  0
    1.6320   -0.9973   -1.8787 H   0  0  0  0  0  0  0  0  0  0  0  0
   -0.6388   -1.3216   -2.6670 H   0  0  0  0  0  0  0  0  0  0  0  0
   -0.5380    0.2950   -1.9741 H   0  0  0  0  0  0  0  0  0  0  0  0
   -0.6025   -3.6397   -1.5221 H   0  0  0  0  0  0  0  0  0  0  0  0
   -0.2543   -4.0939    0.1477 H   0  0  0  0  0  0  0  0  0  0  0  0
   -2.4170   -2.8887   -0.0243 H   0  0  0  0  0  0  0  0  0  0  0  0
   -1.2877   -1.9913    0.9857 H   0  0  0  0  0  0  0  0  0  0  0  0
    2.0325    1.0605   -1.2648 H   0  0  0  0  0  0  0  0  0  0  0  0
    1.3729    1.8923    1.4684 H   0  0  0  0  0  0  0  0  0  0  0  0
    3.2455   -1.5335   -0.7042 H   0  0  0  0  0  0  0  0  0  0  0  0
    4.5218   -4.1926   -0.7870 H   0  0  0  0  0  0  0  0  0  0  0  0
    2.2708    4.1248    0.7783 H   0  0  0  0  0  0  0  0  0  0  0  0
    2.7836    3.4668   -0.7495 H   0  0  0  0  0  0  0  0  0  0  0  0
    5.0895   -2.0846    1.3603 H   0  0  0  0  0  0  0  0  0  0  0  0
    4.3081   -3.6466    1.6230 H   0  0  0  0  0  0  0  0  0  0  0  0
    6.0036   -3.5849    1.1142 H   0  0  0  0  0  0  0  0  0  0  0  0
    5.7086   -1.3874   -1.0974 H   0  0  0  0  0  0  0  0  0  0  0  0
    5.2912   -2.4883   -2.4150 H   0  0  0  0  0  0  0  0  0  0  0  0
    6.5884   -2.9166   -1.2852 H   0  0  0  0  0  0  0  0  0  0  0  0
   -3.3629    0.3984    1.5969 H   0  0  0  0  0  0  0  0  0  0  0  0
   -4.7856   -2.0421   -1.6578 H   0  0  0  0  0  0  0  0  0  0  0  0
   -6.7182   -2.7380   -0.2829 H   0  0  0  0  0  0  0  0  0  0  0  0
    1.1269    2.9563   -2.5416 H   0  0  0  0  0  0  0  0  0  0  0  0
   -0.1563    4.5493    1.2392 H   0  0  0  0  0  0  0  0  0  0  0  0
   -6.9796   -1.8720    2.0274 H   0  0  0  0  0  0  0  0  0  0  0  0
   -1.1042    3.5419   -3.4578 H   0  0  0  0  0  0  0  0  0  0  0  0
    5.0155    1.4330    3.4423 H   0  0  0  0  0  0  0  0  0  0  0  0
    5.8121    2.5241    2.2520 H   0  0  0  0  0  0  0  0  0  0  0  0
    5.0734    3.1869    3.7269 H   0  0  0  0  0  0  0  0  0  0  0  0
   -2.7675    4.6251   -1.9372 H   0  0  0  0  0  0  0  0  0  0  0  0
  1 29  1  0  0  0  0
  2 16  2  0  0  0  0
  3 17  2  0  0  0  0
  4 18  2  0  0  0  0
  5 23  1  0  0  0  0
  5 35  1  0  0  0  0
  6 23  2  0  0  0  0
  7 12  1  0  0  0  0
  7 14  1  0  0  0  0
  7 17  1  0  0  0  0
  8 13  1  0  0  0  0
  8 15  1  0  0  0  0
  8 18  1  0  0  0  0
  9 16  1  0  0  0  0
  9 19  1  0  0  0  0
  9 44  1  0  0  0  0
 10 17  1  0  0  0  0
 10 20  1  0  0  0  0
 10 46  1  0  0  0  0
 11 32  1  0  0  0  0
 11 36  2  0  0  0  0
 12 13  1  0  0  0  0
 12 16  1  0  0  0  0
 12 37  1  0  0  0  0
 13 38  1  0  0  0  0
 13 39  1  0  0  0  0
 14 15  1  0  0  0  0
 14 40  1  0  0  0  0
 14 41  1  0  0  0  0
 15 42  1  0  0  0  0
 15 43  1  0  0  0  0
 18 21  1  0  0  0  0
 19 22  1  0  0  0  0
 19 23  1  0  0  0  0
 19 45  1  0  0  0  0
 20 25  1  0  0  0  0
 20 26  1  0  0  0  0
 20 47  1  0  0  0  0
 21 27  2  0  0  0  0
 21 28  1  0  0  0  0
 22 24  1  0  0  0  0
 22 48  1  0  0  0  0
 22 49  1  0  0  0  0
 24 31  1  0  0  0  0
 24 32  2  0  0  0  0
 25 50  1  0  0  0  0
 25 51  1  0  0  0  0
 25 52  1  0  0  0  0
 26 53  1  0  0  0  0
 26 54  1  0  0  0  0
 26 55  1  0  0  0  0
 27 29  1  0  0  0  0
 27 56  1  0  0  0  0
 28 30  2  0  0  0  0
 28 57  1  0  0  0  0
 29 33  2  0  0  0  0
 30 33  1  0  0  0  0
 30 58  1  0  0  0  0
 31 34  2  0  0  0  0
 31 59  1  0  0  0  0
 32 60  1  0  0  0  0
 33 61  1  0  0  0  0
 34 36  1  0  0  0  0
 34 62  1  0  0  0  0
 35 63  1  0  0  0  0
 35 64  1  0  0  0  0
 35 65  1  0  0  0  0
 36 66  1  0  0  0  0
M  END
> <PUBCHEM_COMPOUND_CID>
11867600

> <PUBCHEM_CONFORMER_RMSD>
1.2

> <PUBCHEM_CONFORMER_DIVERSEORDER>
1
82
23
114
81
112
208
225
229
111
14
191
173
7
174
72
245
79
244
175
209
131
234
167
228
199
97
134
186
238
74
207
92
148
181
231
60
32
164
166
232
31
119
185
159
41
196
158
247
233
128
116
239
194
198
172
165
226
69
217
37
135
188
108
190
127
203
219
28
170
243
91
26
235
144
113
206
213
96
75
94
176
40
126
120
143
240
45
157
230
224
139
100
8
162
138
43
66
39
110
227
242
214
98
171
4
54
121
129
77
169
137
152
34
53
78
130
168
115
178
17
123
50
133
195
107
117
220
155
200
147
146
211
237
83
136
59
124
153
216
99
109
106
64
70
5
88
160
202
36
149
201
189
93
62
215
154
65
24
30
48
63
246
103
197
150
57
49
13
205
179
122
47
145
193
223
25
236
35
12
180
84
87
105
29
221
177
89
184
183
58
118
125
38
56
73
18
19
21
46
71
15
61
67
161
187
151
76
90
101
95
142
218
104
85
192
241
212
156
10
132
44
33
141
222
55
2
86
42
163
3
20
22
52
204
210
140
27
80
102
51
6
182
11
68
16
9

> <PUBCHEM_MMFF94_PARTIAL_CHARGES>
44
1 -0.19
10 -0.73
11 -0.62
12 0.36
13 0.3
14 0.3
15 0.3
16 0.57
17 0.69
18 0.54
19 0.36
2 -0.57
20 0.3
21 0.09
22 0.14
23 0.66
24 -0.14
27 -0.15
28 -0.15
29 0.19
3 -0.57
30 -0.15
31 -0.15
32 0.16
33 -0.15
34 -0.15
35 0.28
36 0.16
4 -0.57
44 0.37
46 0.37
5 -0.43
56 0.15
57 0.15
58 0.15
59 0.15
6 -0.57
60 0.15
61 0.15
62 0.15
66 0.15
7 -0.66
8 -0.66
9 -0.73

> <PUBCHEM_EFFECTIVE_ROTOR_COUNT>
13.2

> <PUBCHEM_PHARMACOPHORE_FEATURES>
11
1 10 donor
1 11 acceptor
1 2 acceptor
1 3 acceptor
1 4 acceptor
1 6 acceptor
1 9 donor
3 20 25 26 hydrophobe
6 11 24 31 32 34 36 rings
6 21 27 28 29 30 33 rings
6 7 8 12 13 14 15 rings

> <PUBCHEM_HEAVY_ATOM_COUNT>
36

> <PUBCHEM_ATOM_DEF_STEREO_COUNT>
2

> <PUBCHEM_ATOM_UDEF_STEREO_COUNT>
0

> <PUBCHEM_BOND_DEF_STEREO_COUNT>
0

> <PUBCHEM_BOND_UDEF_STEREO_COUNT>
0

> <PUBCHEM_ISOTOPIC_ATOM_COUNT>
0

> <PUBCHEM_COMPONENT_COUNT>
1

> <PUBCHEM_CACTVS_TAUTO_COUNT>
4

> <PUBCHEM_CONFORMER_ID>
00B515D000000001

> <PUBCHEM_MMFF94_ENERGY>
88.5697

> <PUBCHEM_FEATURE_SELFOVERLAP>
55.823

> <PUBCHEM_SHAPE_FINGERPRINT>
11421498 54 18043266651411365986
12422481 6 18201157659241502329
12633257 1 18045499974507261353
12988421 55 17341494765449403400
14363568 33 18409453608847143972
14739800 52 17274537753827687443
14849402 71 18272661181281898330
15815584 197 18410566310213958943
16067689 391 16622364305019975150
17980427 26 16054596630799542448
18785283 64 18411139177300042114
20101258 96 18265904557843546671
20739085 24 18340781394068483887
21049683 271 18337967748234527942
4409770 3 17328598219604057807
513202 73 18261382309520996288
5171179 24 18056176022006846716
57527358 35 15624531509348964172

> <PUBCHEM_SHAPE_MULTIPOLES>
679.34
11.7
7.06
2.25
7.36
5.35
-1.22
-9.74
-7.5
-5.28
2.45
0.08
1.62
3.6

> <PUBCHEM_SHAPE_SELFOVERLAP>
1425.064

> <PUBCHEM_SHAPE_VOLUME>
381.4

> <PUBCHEM_COORDINATE_TYPE>
2
5
10

$$$$
