11913369
  -OEChem-12032416163D

 54 57  0     1  0  0  0  0  0999 V2000
    2.8699   -4.2914    1.2229 F   0  0  0  0  0  0  0  0  0  0  0  0
   -0.1022    0.8755    1.7664 O   0  0  0  0  0  0  0  0  0  0  0  0
   -0.4854    3.7675    0.6591 O   0  0  0  0  0  0  0  0  0  0  0  0
   -4.8341    1.2933    1.3248 O   0  0  0  0  0  0  0  0  0  0  0  0
   -8.5719   -3.1046   -1.6949 O   0  0  0  0  0  0  0  0  0  0  0  0
   -8.8616   -1.5253   -0.0890 O   0  0  0  0  0  0  0  0  0  0  0  0
   -2.8079    0.9724    0.2398 N   0  0  0  0  0  0  0  0  0  0  0  0
    2.0908    2.5947   -0.5924 N   0  0  0  0  0  0  0  0  0  0  0  0
    3.3095    0.6270   -0.4050 N   0  0  0  0  0  0  0  0  0  0  0  0
    3.5239    2.0513   -2.3369 N   0  0  0  0  0  0  0  0  0  0  0  0
   -0.8851    2.4709    0.1850 C   0  0  1  0  0  0  0  0  0  0  0  0
    0.2344    1.5040    0.5181 C   0  0  1  0  0  0  0  0  0  0  0  0
   -2.0626    1.9594    0.9830 C   0  0  2  0  0  0  0  0  0  0  0  0
    1.4479    2.3874    0.6867 C   0  0  2  0  0  0  0  0  0  0  0  0
   -1.3896    1.3424    2.1962 C   0  0  0  0  0  0  0  0  0  0  0  0
    0.8462    3.6872    1.1886 C   0  0  0  0  0  0  0  0  0  0  0  0
   -4.1519    0.7207    0.4794 C   0  0  0  0  0  0  0  0  0  0  0  0
    3.0148    1.7195   -1.1352 C   0  0  0  0  0  0  0  0  0  0  0  0
   -4.6862   -0.3829   -0.4181 C   0  0  0  0  0  0  0  0  0  0  0  0
   -6.1638   -0.6973   -0.1921 C   0  0  0  0  0  0  0  0  0  0  0  0
   -6.6727   -1.8037   -1.1184 C   0  0  0  0  0  0  0  0  0  0  0  0
    4.2137   -0.2041   -0.9637 C   0  0  0  0  0  0  0  0  0  0  0  0
    4.4215    1.1765   -2.8363 C   0  0  0  0  0  0  0  0  0  0  0  0
    4.8083    0.0213   -2.1884 C   0  0  0  0  0  0  0  0  0  0  0  0
    4.5314   -1.3768   -0.1847 C   0  0  0  0  0  0  0  0  0  0  0  0
   -8.1370   -2.1008   -0.8888 C   0  0  0  0  0  0  0  0  0  0  0  0
    3.5271   -2.2853    0.1494 C   0  0  0  0  0  0  0  0  0  0  0  0
    5.8428   -1.6016    0.2342 C   0  0  0  0  0  0  0  0  0  0  0  0
    3.8343   -3.4188    0.9021 C   0  0  0  0  0  0  0  0  0  0  0  0
    6.1499   -2.7350    0.9870 C   0  0  0  0  0  0  0  0  0  0  0  0
    5.1456   -3.6435    1.3209 C   0  0  0  0  0  0  0  0  0  0  0  0
   -1.0722    2.5578   -0.8902 H   0  0  0  0  0  0  0  0  0  0  0  0
    0.3429    0.7084   -0.2261 H   0  0  0  0  0  0  0  0  0  0  0  0
   -2.7460    2.7578    1.2921 H   0  0  0  0  0  0  0  0  0  0  0  0
    2.1654    2.0161    1.4275 H   0  0  0  0  0  0  0  0  0  0  0  0
   -1.9464    0.5109    2.6387 H   0  0  0  0  0  0  0  0  0  0  0  0
   -1.2186    2.0949    2.9739 H   0  0  0  0  0  0  0  0  0  0  0  0
    1.4070    4.5799    0.8949 H   0  0  0  0  0  0  0  0  0  0  0  0
    0.7595    3.6813    2.2808 H   0  0  0  0  0  0  0  0  0  0  0  0
   -2.3136    0.4047   -0.4431 H   0  0  0  0  0  0  0  0  0  0  0  0
    1.8256    3.3917   -1.1600 H   0  0  0  0  0  0  0  0  0  0  0  0
   -4.0863   -1.2838   -0.2411 H   0  0  0  0  0  0  0  0  0  0  0  0
   -4.5292   -0.0770   -1.4597 H   0  0  0  0  0  0  0  0  0  0  0  0
   -6.7585    0.2128   -0.3439 H   0  0  0  0  0  0  0  0  0  0  0  0
   -6.3202   -0.9911    0.8539 H   0  0  0  0  0  0  0  0  0  0  0  0
   -6.1050   -2.7237   -0.9408 H   0  0  0  0  0  0  0  0  0  0  0  0
   -6.5460   -1.5003   -2.1634 H   0  0  0  0  0  0  0  0  0  0  0  0
    4.8339    1.4378   -3.8051 H   0  0  0  0  0  0  0  0  0  0  0  0
    5.5297   -0.6541   -2.6313 H   0  0  0  0  0  0  0  0  0  0  0  0
    2.4995   -2.1288   -0.1700 H   0  0  0  0  0  0  0  0  0  0  0  0
    6.6397   -0.9032   -0.0104 H   0  0  0  0  0  0  0  0  0  0  0  0
    7.1706   -2.9096    1.3145 H   0  0  0  0  0  0  0  0  0  0  0  0
   -9.5223   -3.3019   -1.5523 H   0  0  0  0  0  0  0  0  0  0  0  0
    5.3843   -4.5259    1.9073 H   0  0  0  0  0  0  0  0  0  0  0  0
  1 29  1  0  0  0  0
  2 12  1  0  0  0  0
  2 15  1  0  0  0  0
  3 11  1  0  0  0  0
  3 16  1  0  0  0  0
  4 17  2  0  0  0  0
  5 26  1  0  0  0  0
  5 53  1  0  0  0  0
  6 26  2  0  0  0  0
  7 13  1  0  0  0  0
  7 17  1  0  0  0  0
  7 40  1  0  0  0  0
  8 14  1  0  0  0  0
  8 18  1  0  0  0  0
  8 41  1  0  0  0  0
  9 18  1  0  0  0  0
  9 22  2  0  0  0  0
 10 18  2  0  0  0  0
 10 23  1  0  0  0  0
 11 12  1  0  0  0  0
 11 13  1  0  0  0  0
 11 32  1  0  0  0  0
 12 14  1  0  0  0  0
 12 33  1  0  0  0  0
 13 15  1  0  0  0  0
 13 34  1  0  0  0  0
 14 16  1  0  0  0  0
 14 35  1  0  0  0  0
 15 36  1  0  0  0  0
 15 37  1  0  0  0  0
 16 38  1  0  0  0  0
 16 39  1  0  0  0  0
 17 19  1  0  0  0  0
 19 20  1  0  0  0  0
 19 42  1  0  0  0  0
 19 43  1  0  0  0  0
 20 21  1  0  0  0  0
 20 44  1  0  0  0  0
 20 45  1  0  0  0  0
 21 26  1  0  0  0  0
 21 46  1  0  0  0  0
 21 47  1  0  0  0  0
 22 24  1  0  0  0  0
 22 25  1  0  0  0  0
 23 24  2  0  0  0  0
 23 48  1  0  0  0  0
 24 49  1  0  0  0  0
 25 27  2  0  0  0  0
 25 28  1  0  0  0  0
 27 29  1  0  0  0  0
 27 50  1  0  0  0  0
 28 30  2  0  0  0  0
 28 51  1  0  0  0  0
 29 31  2  0  0  0  0
 30 31  1  0  0  0  0
 30 52  1  0  0  0  0
 31 54  1  0  0  0  0
M  END
> <PUBCHEM_COMPOUND_CID>
11913369

> <PUBCHEM_CONFORMER_RMSD>
1

> <PUBCHEM_CONFORMER_DIVERSEORDER>
1
180
173
102
49
120
116
110
196
149
74
155
158
156
143
192
85
199
179
106
174
136
81
184
214
135
168
93
200
107
133
122
88
172
134
114
151
55
153
37
161
208
202
43
57
139
127
124
164
125
103
150
63
198
154
171
146
177
108
92
53
212
189
159
89
73
215
123
197
188
91
170
77
99
216
162
181
186
145
111
204
201
207
190
80
191
83
193
10
118
141
206
167
194
166
131
95
46
183
182
185
97
138
211
62
113
128
169
18
112
75
144
22
11
187
19
176
26
178
205
115
27
39
105
121
96
72
21
87
34
152
51
147
165
7
195
94
119
163
71
117
104
132
50
68
16
69
8
79
82
148
67
28
66
32
58
15
130
54
209
44
61
109
24
137
42
90
33
47
210
160
3
157
203
36
52
100
38
142
40
20
78
56
84
9
17
76
86
35
213
48
65
64
129
30
23
140
25
70
126
4
101
45
98
12
175
29
59
5
2
41
14
13
60
6
31

> <PUBCHEM_MMFF94_PARTIAL_CHARGES>
38
1 -0.19
10 -0.62
11 0.28
12 0.28
13 0.3
14 0.37
15 0.28
16 0.28
17 0.57
18 0.72
19 0.06
2 -0.56
21 0.06
22 0.31
23 0.16
24 -0.15
26 0.66
27 -0.15
28 -0.15
29 0.19
3 -0.56
30 -0.15
31 -0.15
4 -0.57
40 0.37
41 0.4
48 0.15
49 0.15
5 -0.65
50 0.15
51 0.15
52 0.15
53 0.5
54 0.15
6 -0.57
7 -0.73
8 -0.87
9 -0.62

> <PUBCHEM_EFFECTIVE_ROTOR_COUNT>
10.2

> <PUBCHEM_PHARMACOPHORE_FEATURES>
14
1 2 acceptor
1 3 acceptor
1 4 acceptor
1 5 acceptor
1 6 acceptor
1 7 donor
1 8 donor
1 9 acceptor
3 5 6 26 anion
4 8 9 10 18 cation
5 2 11 12 13 15 rings
5 3 11 12 14 16 rings
6 25 27 28 29 30 31 rings
6 9 10 18 22 23 24 rings

> <PUBCHEM_HEAVY_ATOM_COUNT>
31

> <PUBCHEM_ATOM_DEF_STEREO_COUNT>
4

> <PUBCHEM_ATOM_UDEF_STEREO_COUNT>
0

> <PUBCHEM_BOND_DEF_STEREO_COUNT>
0

> <PUBCHEM_BOND_UDEF_STEREO_COUNT>
0

> <PUBCHEM_ISOTOPIC_ATOM_COUNT>
0

> <PUBCHEM_COMPONENT_COUNT>
1

> <PUBCHEM_CACTVS_TAUTO_COUNT>
6

> <PUBCHEM_CONFORMER_ID>
00B5C89900000001

> <PUBCHEM_MMFF94_ENERGY>
77.043

> <PUBCHEM_FEATURE_SELFOVERLAP>
71.813

> <PUBCHEM_SHAPE_FINGERPRINT>
10448021 39 18408322172463874887
10622 236 18044656399896401162
10693767 8 18408598184816827931
11069576 57 18188504467124279454
11135926 11 17461761417849567020
11399510 152 14979407148911687231
11534866 41 17556002934123902369
11801155 225 17983571090291711151
11828042 38 17676494913273043891
1200032 147 10375866407549533252
12661589 4 18059291088783091727
12758862 65 17561081449162301074
12838863 1 17969212366370589730
14347332 77 18343302570484730537
1454969 45 17896619289227457894
17134984 74 18336830908581576566
17324776 126 17972871462904426642
19315092 285 18334295323299216494
19841028 212 17987517186489566615
20567600 247 18410575072041979873
20775438 99 18191295185900875955
208703 8 18272371932240393550
21133410 171 16084430573265750930
21585481 104 17531240635618838661
21585483 132 17986656268732486391
21792938 131 18342730846156028859
24893989 43 17557140907031470183
24983565 74 17557136509586761463
397830 11 10807934921149903877
439807 62 18408603665532863551
4408954 87 17987775481259534934
463206 1 18409738343777768538
57527295 17 18339095821152976024
59025328 239 17604439471013009268
59682541 52 18040716991478238181
6058803 2 18048343067128428212
6201460 15 18049154467364100475
6636735 143 14333405662913650751
6677587 24 17025707359018476556
6697151 62 17845916499760111645
96874 4 18338511945960171691

> <PUBCHEM_SHAPE_MULTIPOLES>
581.42
20.79
5.19
2.02
47.9
1.7
-0.9
27.44
-8.08
-2.98
1.72
-1.81
-0.53
-6.43

> <PUBCHEM_SHAPE_SELFOVERLAP>
1250.288

> <PUBCHEM_SHAPE_VOLUME>
320.1

> <PUBCHEM_COORDINATE_TYPE>
2
5
10

$$$$
