26762930
  -OEChem-12032416343D

 67 70  0     1  0  0  0  0  0999 V2000
    2.6335   -2.2817   -2.8623 O   0  0  0  0  0  0  0  0  0  0  0  0
    3.0599    2.6549    2.1386 O   0  0  0  0  0  0  0  0  0  0  0  0
   -2.1815   -3.9210    0.4384 O   0  0  0  0  0  0  0  0  0  0  0  0
    2.4956   -1.8520    0.5431 N   0  0  2  0  0  0  0  0  0  0  0  0
    4.2217   -1.3477   -1.4674 N   0  0  0  0  0  0  0  0  0  0  0  0
   -0.5886   -2.2453    0.6225 N   0  0  0  0  0  0  0  0  0  0  0  0
    2.2765    3.3537    0.0659 N   0  0  0  0  0  0  0  0  0  0  0  0
   -5.9546    1.1870   -0.1376 N   0  0  0  0  0  0  0  0  0  0  0  0
    2.6082   -2.8616   -0.5077 C   0  0  1  0  0  0  0  0  0  0  0  0
    3.7874   -1.3246    0.9910 C   0  0  1  0  0  0  0  0  0  0  0  0
    0.5564   -3.1142    0.7625 C   0  0  1  0  0  0  0  0  0  0  0  0
    1.1933   -3.4210   -0.6011 C   0  0  0  0  0  0  0  0  0  0  0  0
    1.6666   -2.4546    1.5820 C   0  0  0  0  0  0  0  0  0  0  0  0
    4.8312   -1.3459   -0.1487 C   0  0  0  0  0  0  0  0  0  0  0  0
    3.5829    0.1068    1.4945 C   0  0  0  0  0  0  0  0  0  0  0  0
    3.1176   -2.1433   -1.7432 C   0  0  0  0  0  0  0  0  0  0  0  0
    3.0217    1.0251    0.4194 C   0  0  0  0  0  0  0  0  0  0  0  0
    2.7914    2.4143    0.9588 C   0  0  0  0  0  0  0  0  0  0  0  0
   -1.8796   -2.7308    0.4701 C   0  0  0  0  0  0  0  0  0  0  0  0
    2.0233    4.7244    0.5154 C   0  0  0  0  0  0  0  0  0  0  0  0
    1.9892    3.1090   -1.3531 C   0  0  0  0  0  0  0  0  0  0  0  0
    0.5853    5.1398    0.2165 C   0  0  0  0  0  0  0  0  0  0  0  0
    0.5501    3.4949   -1.6889 C   0  0  0  0  0  0  0  0  0  0  0  0
    0.2440    4.9283   -1.2576 C   0  0  0  0  0  0  0  0  0  0  0  0
   -2.9447   -1.7074    0.3119 C   0  0  0  0  0  0  0  0  0  0  0  0
   -4.1136   -2.0191   -0.3827 C   0  0  0  0  0  0  0  0  0  0  0  0
   -2.7759   -0.4346    0.8572 C   0  0  0  0  0  0  0  0  0  0  0  0
   -5.1133   -1.0581   -0.5324 C   0  0  0  0  0  0  0  0  0  0  0  0
   -3.7756    0.5265    0.7076 C   0  0  0  0  0  0  0  0  0  0  0  0
   -4.9442    0.2147    0.0128 C   0  0  0  0  0  0  0  0  0  0  0  0
   -7.1733    0.8740   -0.8572 C   0  0  0  0  0  0  0  0  0  0  0  0
   -5.7912    2.5098    0.4320 C   0  0  0  0  0  0  0  0  0  0  0  0
    3.3073   -3.6647   -0.2375 H   0  0  0  0  0  0  0  0  0  0  0  0
    4.1949   -1.9225    1.8170 H   0  0  0  0  0  0  0  0  0  0  0  0
    0.2292   -4.0418    1.2465 H   0  0  0  0  0  0  0  0  0  0  0  0
    0.6181   -2.9838   -1.4256 H   0  0  0  0  0  0  0  0  0  0  0  0
    1.2303   -4.5039   -0.7677 H   0  0  0  0  0  0  0  0  0  0  0  0
    1.2836   -1.7168    2.2943 H   0  0  0  0  0  0  0  0  0  0  0  0
    2.2262   -3.2207    2.1337 H   0  0  0  0  0  0  0  0  0  0  0  0
    5.5361   -0.5099   -0.0960 H   0  0  0  0  0  0  0  0  0  0  0  0
    5.4145   -2.2730   -0.0881 H   0  0  0  0  0  0  0  0  0  0  0  0
    4.5409    0.5017    1.8585 H   0  0  0  0  0  0  0  0  0  0  0  0
    2.9141    0.0972    2.3654 H   0  0  0  0  0  0  0  0  0  0  0  0
    4.6694   -0.8413   -2.2249 H   0  0  0  0  0  0  0  0  0  0  0  0
   -0.4010   -1.2525    0.5289 H   0  0  0  0  0  0  0  0  0  0  0  0
    3.7254    1.1095   -0.4143 H   0  0  0  0  0  0  0  0  0  0  0  0
    2.0621    0.6477    0.0506 H   0  0  0  0  0  0  0  0  0  0  0  0
    2.7288    5.3769   -0.0124 H   0  0  0  0  0  0  0  0  0  0  0  0
    2.2217    4.8267    1.5869 H   0  0  0  0  0  0  0  0  0  0  0  0
    2.1581    2.0691   -1.6371 H   0  0  0  0  0  0  0  0  0  0  0  0
    2.6916    3.7194   -1.9333 H   0  0  0  0  0  0  0  0  0  0  0  0
    0.4366    6.1909    0.4868 H   0  0  0  0  0  0  0  0  0  0  0  0
   -0.1007    4.5451    0.8326 H   0  0  0  0  0  0  0  0  0  0  0  0
   -0.1382    2.8109   -1.1766 H   0  0  0  0  0  0  0  0  0  0  0  0
    0.3762    3.3850   -2.7649 H   0  0  0  0  0  0  0  0  0  0  0  0
   -0.8148    5.1507   -1.4300 H   0  0  0  0  0  0  0  0  0  0  0  0
    0.8249    5.6273   -1.8718 H   0  0  0  0  0  0  0  0  0  0  0  0
   -4.2613   -3.0037   -0.8185 H   0  0  0  0  0  0  0  0  0  0  0  0
   -1.8946   -0.1614    1.4301 H   0  0  0  0  0  0  0  0  0  0  0  0
   -6.0032   -1.3489   -1.0818 H   0  0  0  0  0  0  0  0  0  0  0  0
   -3.5994    1.4996    1.1551 H   0  0  0  0  0  0  0  0  0  0  0  0
   -7.8561    1.7304   -0.8891 H   0  0  0  0  0  0  0  0  0  0  0  0
   -7.7205    0.0576   -0.3727 H   0  0  0  0  0  0  0  0  0  0  0  0
   -6.9609    0.6070   -1.8984 H   0  0  0  0  0  0  0  0  0  0  0  0
   -6.6592    3.1475    0.2304 H   0  0  0  0  0  0  0  0  0  0  0  0
   -4.9230    3.0217    0.0020 H   0  0  0  0  0  0  0  0  0  0  0  0
   -5.6870    2.4615    1.5217 H   0  0  0  0  0  0  0  0  0  0  0  0
  1 16  2  0  0  0  0
  2 18  2  0  0  0  0
  3 19  2  0  0  0  0
  4  9  1  0  0  0  0
  4 10  1  0  0  0  0
  4 13  1  0  0  0  0
  5 14  1  0  0  0  0
  5 16  1  0  0  0  0
  5 44  1  0  0  0  0
  6 11  1  0  0  0  0
  6 19  1  0  0  0  0
  6 45  1  0  0  0  0
  7 18  1  0  0  0  0
  7 20  1  0  0  0  0
  7 21  1  0  0  0  0
  8 30  1  0  0  0  0
  8 31  1  0  0  0  0
  8 32  1  0  0  0  0
  9 12  1  0  0  0  0
  9 16  1  0  0  0  0
  9 33  1  0  0  0  0
 10 14  1  0  0  0  0
 10 15  1  0  0  0  0
 10 34  1  0  0  0  0
 11 12  1  0  0  0  0
 11 13  1  0  0  0  0
 11 35  1  0  0  0  0
 12 36  1  0  0  0  0
 12 37  1  0  0  0  0
 13 38  1  0  0  0  0
 13 39  1  0  0  0  0
 14 40  1  0  0  0  0
 14 41  1  0  0  0  0
 15 17  1  0  0  0  0
 15 42  1  0  0  0  0
 15 43  1  0  0  0  0
 17 18  1  0  0  0  0
 17 46  1  0  0  0  0
 17 47  1  0  0  0  0
 19 25  1  0  0  0  0
 20 22  1  0  0  0  0
 20 48  1  0  0  0  0
 20 49  1  0  0  0  0
 21 23  1  0  0  0  0
 21 50  1  0  0  0  0
 21 51  1  0  0  0  0
 22 24  1  0  0  0  0
 22 52  1  0  0  0  0
 22 53  1  0  0  0  0
 23 24  1  0  0  0  0
 23 54  1  0  0  0  0
 23 55  1  0  0  0  0
 24 56  1  0  0  0  0
 24 57  1  0  0  0  0
 25 26  2  0  0  0  0
 25 27  1  0  0  0  0
 26 28  1  0  0  0  0
 26 58  1  0  0  0  0
 27 29  2  0  0  0  0
 27 59  1  0  0  0  0
 28 30  2  0  0  0  0
 28 60  1  0  0  0  0
 29 30  1  0  0  0  0
 29 61  1  0  0  0  0
 31 62  1  0  0  0  0
 31 63  1  0  0  0  0
 31 64  1  0  0  0  0
 32 65  1  0  0  0  0
 32 66  1  0  0  0  0
 32 67  1  0  0  0  0
M  END
> <PUBCHEM_COMPOUND_CID>
26762930

> <PUBCHEM_CONFORMER_RMSD>
1

> <PUBCHEM_CONFORMER_DIVERSEORDER>
1
117
89
54
149
65
105
103
57
71
88
58
12
161
104
39
128
29
108
163
136
115
111
35
119
84
70
97
151
113
9
114
46
42
32
51
100
50
52
153
25
48
15
92
148
90
162
55
93
62
133
137
145
13
7
56
85
87
36
53
139
140
17
24
49
60
152
123
72
142
79
143
83
41
8
30
146
131
156
47
75
135
28
134
144
160
37
155
150
61
63
124
106
130
69
3
159
118
23
67
110
14
4
129
45
31
43
132
73
19
112
95
74
77
101
64
44
127
122
99
40
158
154
5
18
121
125
109
26
86
126
94
141
11
34
22
116
33
6
27
81
38
91
80
21
78
2
157
147
20
138
107
98
66
10
120
76
82
68
59
16
102
96

> <PUBCHEM_MMFF94_PARTIAL_CHARGES>
33
1 -0.57
10 0.27
11 0.3
13 0.27
14 0.3
16 0.57
17 0.06
18 0.57
19 0.54
2 -0.57
20 0.3
21 0.3
25 0.09
26 -0.15
27 -0.15
28 -0.15
29 -0.15
3 -0.57
30 0.1
31 0.37
32 0.37
4 -0.81
44 0.37
45 0.37
5 -0.73
58 0.15
59 0.15
6 -0.73
60 0.15
61 0.15
7 -0.66
8 -0.84
9 0.33

> <PUBCHEM_EFFECTIVE_ROTOR_COUNT>
10.4

> <PUBCHEM_PHARMACOPHORE_FEATURES>
11
1 1 acceptor
1 2 acceptor
1 3 acceptor
1 4 cation
1 5 donor
1 6 donor
1 8 cation
5 4 9 11 12 13 rings
6 25 26 27 28 29 30 rings
6 4 5 9 10 14 16 rings
6 7 20 21 22 23 24 rings

> <PUBCHEM_HEAVY_ATOM_COUNT>
32

> <PUBCHEM_ATOM_DEF_STEREO_COUNT>
3

> <PUBCHEM_ATOM_UDEF_STEREO_COUNT>
0

> <PUBCHEM_BOND_DEF_STEREO_COUNT>
0

> <PUBCHEM_BOND_UDEF_STEREO_COUNT>
0

> <PUBCHEM_ISOTOPIC_ATOM_COUNT>
0

> <PUBCHEM_COMPONENT_COUNT>
1

> <PUBCHEM_CACTVS_TAUTO_COUNT>
6

> <PUBCHEM_CONFORMER_ID>
01985EB200000001

> <PUBCHEM_MMFF94_ENERGY>
85.8507

> <PUBCHEM_FEATURE_SELFOVERLAP>
55.916

> <PUBCHEM_SHAPE_FINGERPRINT>
10439779 11 18193545890840577504
11059048 146 17903653113153145353
11513181 2 18055075629657931934
11828042 226 17831568783925781573
12788726 201 17974019340110202247
12925494 130 18408318879268282089
12978246 48 17831858327889233889
14251764 38 18193836170226028851
15210252 30 18188505596457812166
15320291 9 18120651598693002701
15475509 84 17611168382731458434
16067690 210 14707776066003935341
16988056 13 18413110558819771428
20567600 299 18339643467905130920
20764821 26 17829882136174639105
21857420 4 18340216185141425268
21860390 5 18341897428456482038
21987440 362 18048039859363914900
23559900 14 18413107281833428065
325973 47 18338516455986952017
3493558 16 18202003192716262785
4066623 53 18052545365835133486
44426695 316 16622397320106252393
5109719 28 18335144237219356355
53794403 172 18337113474838812677
550186 83 17749933514841148072
9961470 85 18337946896622330265

> <PUBCHEM_SHAPE_MULTIPOLES>
616.03
12.23
7.47
1.66
22.19
8.82
0.59
0.15
0.83
-4.52
0.89
-1.94
-0.02
1.27

> <PUBCHEM_SHAPE_SELFOVERLAP>
1294.447

> <PUBCHEM_SHAPE_VOLUME>
345.1

> <PUBCHEM_COORDINATE_TYPE>
2
5
10

$$$$
