51138178
  -OEChem-12032416273D

 53 56  0     1  0  0  0  0  0999 V2000
   -3.8994    3.4663    0.8908 O   0  0  0  0  0  0  0  0  0  0  0  0
   -4.2633    2.5615   -1.1694 O   0  0  0  0  0  0  0  0  0  0  0  0
   -2.8901    0.3816   -0.4054 N   0  0  0  0  0  0  0  0  0  0  0  0
    2.0351    0.7462    0.6499 N   0  0  0  0  0  0  0  0  0  0  0  0
    5.6070    0.0487   -0.2247 N   0  0  0  0  0  0  0  0  0  0  0  0
    3.7858   -0.0489   -1.4917 N   0  0  0  0  0  0  0  0  0  0  0  0
   -2.5519   -0.8370    0.3421 C   0  0  2  0  0  0  0  0  0  0  0  0
   -1.0623   -1.0570    0.6248 C   0  0  0  0  0  0  0  0  0  0  0  0
   -0.0531   -0.0553    0.5330 C   0  0  0  0  0  0  0  0  0  0  0  0
   -3.1721   -1.9819   -0.4787 C   0  0  0  0  0  0  0  0  0  0  0  0
   -0.0601    1.3436    0.2000 C   0  0  0  0  0  0  0  0  0  0  0  0
   -2.5742    1.6248    0.2832 C   0  0  1  0  0  0  0  0  0  0  0  0
   -1.2304    2.1917   -0.1706 C   0  0  0  0  0  0  0  0  0  0  0  0
    1.2741   -0.3842    0.8323 C   0  0  0  0  0  0  0  0  0  0  0  0
   -4.6894   -2.0927   -0.2997 C   0  0  0  0  0  0  0  0  0  0  0  0
    1.2433    1.7913    0.2759 C   0  0  0  0  0  0  0  0  0  0  0  0
   -0.6405   -2.3287    1.0899 C   0  0  0  0  0  0  0  0  0  0  0  0
    1.6769   -1.6557    1.2441 C   0  0  0  0  0  0  0  0  0  0  0  0
    3.4667    0.8382    0.8421 C   0  0  0  0  0  0  0  0  0  0  0  0
    0.6901   -2.6234    1.3809 C   0  0  0  0  0  0  0  0  0  0  0  0
   -3.6644    2.5766   -0.1044 C   0  0  0  0  0  0  0  0  0  0  0  0
   -5.4273   -0.8231   -0.7265 C   0  0  0  0  0  0  0  0  0  0  0  0
   -5.2067   -3.2871   -1.1050 C   0  0  0  0  0  0  0  0  0  0  0  0
    4.2618    0.2773   -0.3105 C   0  0  0  0  0  0  0  0  0  0  0  0
    6.0146   -0.4554   -1.4276 C   0  0  0  0  0  0  0  0  0  0  0  0
    6.4565    0.2892    0.9179 C   0  0  0  0  0  0  0  0  0  0  0  0
    4.8733   -0.5063   -2.1928 C   0  0  0  0  0  0  0  0  0  0  0  0
   -3.0470   -0.8045    1.3224 H   0  0  0  0  0  0  0  0  0  0  0  0
   -2.9188   -1.8724   -1.5438 H   0  0  0  0  0  0  0  0  0  0  0  0
   -2.7579   -2.9556   -0.2018 H   0  0  0  0  0  0  0  0  0  0  0  0
   -2.6133    1.4893    1.3720 H   0  0  0  0  0  0  0  0  0  0  0  0
   -1.0977    3.1893    0.2704 H   0  0  0  0  0  0  0  0  0  0  0  0
   -1.2240    2.3450   -1.2589 H   0  0  0  0  0  0  0  0  0  0  0  0
   -2.4794    0.3623   -1.3381 H   0  0  0  0  0  0  0  0  0  0  0  0
   -4.9140   -2.2830    0.7576 H   0  0  0  0  0  0  0  0  0  0  0  0
    1.6594    2.7736    0.0934 H   0  0  0  0  0  0  0  0  0  0  0  0
   -1.3645   -3.1203    1.2686 H   0  0  0  0  0  0  0  0  0  0  0  0
    2.7113   -1.8878    1.4730 H   0  0  0  0  0  0  0  0  0  0  0  0
    3.7223    1.8957    0.9785 H   0  0  0  0  0  0  0  0  0  0  0  0
    3.7077    0.3202    1.7770 H   0  0  0  0  0  0  0  0  0  0  0  0
    0.9570   -3.6179    1.7286 H   0  0  0  0  0  0  0  0  0  0  0  0
   -5.1066   -0.4730   -1.7131 H   0  0  0  0  0  0  0  0  0  0  0  0
   -5.3167   -0.0221    0.0092 H   0  0  0  0  0  0  0  0  0  0  0  0
   -6.5051   -1.0156   -0.7897 H   0  0  0  0  0  0  0  0  0  0  0  0
   -4.7152   -4.2140   -0.7908 H   0  0  0  0  0  0  0  0  0  0  0  0
   -6.2840   -3.4190   -0.9578 H   0  0  0  0  0  0  0  0  0  0  0  0
   -5.0260   -3.1528   -2.1771 H   0  0  0  0  0  0  0  0  0  0  0  0
   -4.6102    4.0999    0.6555 H   0  0  0  0  0  0  0  0  0  0  0  0
    7.0413   -0.7258   -1.6315 H   0  0  0  0  0  0  0  0  0  0  0  0
    7.4974    0.0978    0.6448 H   0  0  0  0  0  0  0  0  0  0  0  0
    6.1534   -0.3867    1.7213 H   0  0  0  0  0  0  0  0  0  0  0  0
    6.3430    1.3321    1.2242 H   0  0  0  0  0  0  0  0  0  0  0  0
    4.7793   -0.8493   -3.2127 H   0  0  0  0  0  0  0  0  0  0  0  0
  1 21  1  0  0  0  0
  1 48  1  0  0  0  0
  2 21  2  0  0  0  0
  3  7  1  0  0  0  0
  3 12  1  0  0  0  0
  3 34  1  0  0  0  0
  4 14  1  0  0  0  0
  4 16  1  0  0  0  0
  4 19  1  0  0  0  0
  5 24  1  0  0  0  0
  5 25  1  0  0  0  0
  5 26  1  0  0  0  0
  6 24  2  0  0  0  0
  6 27  1  0  0  0  0
  7  8  1  0  0  0  0
  7 10  1  0  0  0  0
  7 28  1  0  0  0  0
  8  9  2  0  0  0  0
  8 17  1  0  0  0  0
  9 11  1  0  0  0  0
  9 14  1  0  0  0  0
 10 15  1  0  0  0  0
 10 29  1  0  0  0  0
 10 30  1  0  0  0  0
 11 13  1  0  0  0  0
 11 16  2  0  0  0  0
 12 13  1  0  0  0  0
 12 21  1  0  0  0  0
 12 31  1  0  0  0  0
 13 32  1  0  0  0  0
 13 33  1  0  0  0  0
 14 18  2  0  0  0  0
 15 22  1  0  0  0  0
 15 23  1  0  0  0  0
 15 35  1  0  0  0  0
 16 36  1  0  0  0  0
 17 20  2  0  0  0  0
 17 37  1  0  0  0  0
 18 20  1  0  0  0  0
 18 38  1  0  0  0  0
 19 24  1  0  0  0  0
 19 39  1  0  0  0  0
 19 40  1  0  0  0  0
 20 41  1  0  0  0  0
 22 42  1  0  0  0  0
 22 43  1  0  0  0  0
 22 44  1  0  0  0  0
 23 45  1  0  0  0  0
 23 46  1  0  0  0  0
 23 47  1  0  0  0  0
 25 27  2  0  0  0  0
 25 49  1  0  0  0  0
 26 50  1  0  0  0  0
 26 51  1  0  0  0  0
 26 52  1  0  0  0  0
 27 53  1  0  0  0  0
M  END
> <PUBCHEM_COMPOUND_CID>
51138178

> <PUBCHEM_CONFORMER_RMSD>
0.8

> <PUBCHEM_CONFORMER_DIVERSEORDER>
1
39
12
26
43
44
20
30
50
23
18
24
22
25
49
11
5
4
48
40
42
14
36
31
28
19
6
13
2
17
7
47
16
46
35
27
10
29
45
8
52
38
15
34
9
21
51
41
32
33
37
3

> <PUBCHEM_MMFF94_PARTIAL_CHARGES>
30
1 -0.65
11 -0.18
12 0.33
13 0.18
14 -0.15
16 -0.3
17 -0.15
18 -0.15
19 0.44
2 -0.57
20 -0.15
21 0.66
24 0.01
25 -0.3
26 0.26
27 0.08
3 -0.9
34 0.36
36 0.15
37 0.15
38 0.15
4 0.05
41 0.15
48 0.5
49 0.15
5 0.05
53 0.15
6 -0.57
7 0.41
8 -0.14

> <PUBCHEM_EFFECTIVE_ROTOR_COUNT>
5.8

> <PUBCHEM_PHARMACOPHORE_FEATURES>
12
1 1 acceptor
1 2 acceptor
1 3 cation
1 3 donor
1 4 cation
3 1 2 21 anion
3 15 22 23 hydrophobe
3 5 6 24 cation
5 4 9 11 14 16 rings
5 5 6 24 25 27 rings
6 8 9 14 17 18 20 rings
7 3 7 8 9 11 12 13 rings

> <PUBCHEM_HEAVY_ATOM_COUNT>
27

> <PUBCHEM_ATOM_DEF_STEREO_COUNT>
2

> <PUBCHEM_ATOM_UDEF_STEREO_COUNT>
0

> <PUBCHEM_BOND_DEF_STEREO_COUNT>
0

> <PUBCHEM_BOND_UDEF_STEREO_COUNT>
0

> <PUBCHEM_ISOTOPIC_ATOM_COUNT>
0

> <PUBCHEM_COMPONENT_COUNT>
1

> <PUBCHEM_CACTVS_TAUTO_COUNT>
1

> <PUBCHEM_CONFORMER_ID>
030C4E8200000001

> <PUBCHEM_MMFF94_ENERGY>
53.8289

> <PUBCHEM_FEATURE_SELFOVERLAP>
61.083

> <PUBCHEM_SHAPE_FINGERPRINT>
10190108 129 18188793711760151931
10670039 82 18186522098892830718
10693767 8 17912070952943409071
12107698 1 18341609373183477604
12616971 3 16877949309011270748
12954195 1 18342179947088847325
13140716 1 17757540125191624131
13540713 5 18116136788879139531
13583140 156 14979967938612610226
13782708 43 17704070720204023838
14068700 675 18263357152679240957
14251751 93 18342738520212228991
14294032 229 18042119852172725149
14347332 77 18341613758566684687
14790565 3 17692821384685737785
14931854 50 18263342777851066863
16087824 20 18337949001699715437
16752209 62 18333450971568151090
20775438 99 17190640794797404351
20871999 31 18335431179204040172
21033650 10 18265640731008605692
21236236 1 18409164411276492497
21267235 1 18337672048732574203
21641784 216 17967808366998183637
22122407 14 14923941262672568326
221357 26 18342174509391394147
22393880 68 18411692184335192185
23366157 5 17533491227734836938
23559900 14 18194678391969832952
23569914 2 13265205011738768334
244849 19 17202747285269892432
25147074 1 18042393664716146490
283562 15 18336820996340370131
2838139 119 15502364634546795670
350125 39 18408037399669413489
4058900 60 17313375691718966843
46194498 28 17988082322021841132
5283173 99 18412827993348979712
59755656 215 18412261740254432519
59755656 520 17987250932455051337
7237137 82 18334290968429270357

> <PUBCHEM_SHAPE_MULTIPOLES>
523.98
13.35
3.37
1.41
10.15
0.82
-0.43
-2.29
-5.83
-6.54
0.28
1.46
-0.53
-0.47

> <PUBCHEM_SHAPE_SELFOVERLAP>
1134.784

> <PUBCHEM_SHAPE_VOLUME>
287.4

> <PUBCHEM_COORDINATE_TYPE>
2
5
10

$$$$
