45361032
  -OEChem-12032416283D

 55 58  0     1  0  0  0  0  0999 V2000
    7.8142   -1.7316   -1.4389 S   0  0  0  0  0  0  0  0  0  0  0  0
   -7.5609   -1.1869   -1.4292 S   0  0  0  0  0  0  0  0  0  0  0  0
    2.3474   -1.6571   -0.8177 O   0  0  0  0  0  0  0  0  0  0  0  0
   -4.1684    0.8822   -1.4518 O   0  0  0  0  0  0  0  0  0  0  0  0
    0.7399    1.8230   -0.2754 N   0  0  1  0  0  0  0  0  0  0  0  0
    4.0067    0.2339    0.1638 N   0  0  1  0  0  0  0  0  0  0  0  0
    0.5279   -0.9759    0.3912 N   0  0  0  0  0  0  0  0  0  0  0  0
    7.3044   -1.1722    0.9495 N   0  0  0  0  0  0  0  0  0  0  0  0
   -5.3024    1.1315    0.5583 N   0  0  0  0  0  0  0  0  0  0  0  0
    8.2916   -1.5592    0.1575 N   0  0  0  0  0  0  0  0  0  0  0  0
    2.0756    1.6927    0.3479 C   0  0  1  0  0  0  0  0  0  0  0  0
    2.6154    0.2643    0.6524 C   0  0  1  0  0  0  0  0  0  0  0  0
    3.2181    2.2952   -0.4907 C   0  0  0  0  0  0  0  0  0  0  0  0
    4.4549    1.6180    0.0607 C   0  0  0  0  0  0  0  0  0  0  0  0
   -0.3836    1.3208    0.5640 C   0  0  2  0  0  0  0  0  0  0  0  0
    1.8451   -0.8727   -0.0140 C   0  0  0  0  0  0  0  0  0  0  0  0
   -0.1146   -0.0213    1.2726 C   0  0  0  0  0  0  0  0  0  0  0  0
   -1.6585    1.1483   -0.2881 C   0  0  0  0  0  0  0  0  0  0  0  0
    4.8935   -0.5692    0.9961 C   0  0  0  0  0  0  0  0  0  0  0  0
    0.4872    3.2146   -0.6861 C   0  0  0  0  0  0  0  0  0  0  0  0
   -2.8998    1.2275    0.5812 C   0  0  0  0  0  0  0  0  0  0  0  0
    6.1222   -1.0083    0.2450 C   0  0  0  0  0  0  0  0  0  0  0  0
   -4.1678    1.0590   -0.2365 C   0  0  0  0  0  0  0  0  0  0  0  0
    6.1948   -1.2722   -1.1082 C   0  0  0  0  0  0  0  0  0  0  0  0
   -6.6337    1.0018    0.0150 C   0  0  0  0  0  0  0  0  0  0  0  0
   -7.1119   -0.4256    0.0375 C   0  0  0  0  0  0  0  0  0  0  0  0
   -7.2537   -1.2653    1.1204 C   0  0  0  0  0  0  0  0  0  0  0  0
   -7.7371   -2.5508    0.7409 C   0  0  0  0  0  0  0  0  0  0  0  0
   -7.9464   -2.6445   -0.6174 C   0  0  0  0  0  0  0  0  0  0  0  0
    2.0655    2.2433    1.3015 H   0  0  0  0  0  0  0  0  0  0  0  0
    2.5975    0.1056    1.7389 H   0  0  0  0  0  0  0  0  0  0  0  0
    3.0983    2.0505   -1.5547 H   0  0  0  0  0  0  0  0  0  0  0  0
    3.2829    3.3835   -0.3898 H   0  0  0  0  0  0  0  0  0  0  0  0
    4.7147    2.0470    1.0369 H   0  0  0  0  0  0  0  0  0  0  0  0
    5.3068    1.7344   -0.6162 H   0  0  0  0  0  0  0  0  0  0  0  0
   -0.5798    2.0618    1.3518 H   0  0  0  0  0  0  0  0  0  0  0  0
   -1.0276   -0.4978    1.6394 H   0  0  0  0  0  0  0  0  0  0  0  0
    0.5152    0.1340    2.1544 H   0  0  0  0  0  0  0  0  0  0  0  0
   -1.6324    0.1940   -0.8310 H   0  0  0  0  0  0  0  0  0  0  0  0
   -1.7600    1.9066   -1.0679 H   0  0  0  0  0  0  0  0  0  0  0  0
    5.1734   -0.0479    1.9202 H   0  0  0  0  0  0  0  0  0  0  0  0
    4.3861   -1.4939    1.3027 H   0  0  0  0  0  0  0  0  0  0  0  0
   -0.0348   -1.7266    0.0027 H   0  0  0  0  0  0  0  0  0  0  0  0
   -0.4820    3.3685   -1.1637 H   0  0  0  0  0  0  0  0  0  0  0  0
    1.2108    3.5413   -1.4400 H   0  0  0  0  0  0  0  0  0  0  0  0
    0.5472    3.8996    0.1679 H   0  0  0  0  0  0  0  0  0  0  0  0
   -2.9051    0.4544    1.3558 H   0  0  0  0  0  0  0  0  0  0  0  0
   -2.9496    2.2031    1.0801 H   0  0  0  0  0  0  0  0  0  0  0  0
    5.4313   -1.2268   -1.8717 H   0  0  0  0  0  0  0  0  0  0  0  0
   -5.2042    1.2645    1.5608 H   0  0  0  0  0  0  0  0  0  0  0  0
   -7.2964    1.6132    0.6377 H   0  0  0  0  0  0  0  0  0  0  0  0
   -6.6501    1.4217   -0.9970 H   0  0  0  0  0  0  0  0  0  0  0  0
   -7.0238   -0.9757    2.1379 H   0  0  0  0  0  0  0  0  0  0  0  0
   -7.9221   -3.3652    1.4292 H   0  0  0  0  0  0  0  0  0  0  0  0
   -8.3074   -3.4992   -1.1719 H   0  0  0  0  0  0  0  0  0  0  0  0
  1 10  1  0  0  0  0
  1 24  1  0  0  0  0
  2 26  1  0  0  0  0
  2 29  1  0  0  0  0
  3 16  2  0  0  0  0
  4 23  2  0  0  0  0
  5 11  1  0  0  0  0
  5 15  1  0  0  0  0
  5 20  1  0  0  0  0
  6 12  1  0  0  0  0
  6 14  1  0  0  0  0
  6 19  1  0  0  0  0
  7 16  1  0  0  0  0
  7 17  1  0  0  0  0
  7 43  1  0  0  0  0
  8 10  2  0  0  0  0
  8 22  1  0  0  0  0
  9 23  1  0  0  0  0
  9 25  1  0  0  0  0
  9 50  1  0  0  0  0
 11 12  1  0  0  0  0
 11 13  1  0  0  0  0
 11 30  1  0  0  0  0
 12 16  1  0  0  0  0
 12 31  1  0  0  0  0
 13 14  1  0  0  0  0
 13 32  1  0  0  0  0
 13 33  1  0  0  0  0
 14 34  1  0  0  0  0
 14 35  1  0  0  0  0
 15 17  1  0  0  0  0
 15 18  1  0  0  0  0
 15 36  1  0  0  0  0
 17 37  1  0  0  0  0
 17 38  1  0  0  0  0
 18 21  1  0  0  0  0
 18 39  1  0  0  0  0
 18 40  1  0  0  0  0
 19 22  1  0  0  0  0
 19 41  1  0  0  0  0
 19 42  1  0  0  0  0
 20 44  1  0  0  0  0
 20 45  1  0  0  0  0
 20 46  1  0  0  0  0
 21 23  1  0  0  0  0
 21 47  1  0  0  0  0
 21 48  1  0  0  0  0
 22 24  2  0  0  0  0
 24 49  1  0  0  0  0
 25 26  1  0  0  0  0
 25 51  1  0  0  0  0
 25 52  1  0  0  0  0
 26 27  2  0  0  0  0
 27 28  1  0  0  0  0
 27 53  1  0  0  0  0
 28 29  2  0  0  0  0
 28 54  1  0  0  0  0
 29 55  1  0  0  0  0
M  END
> <PUBCHEM_COMPOUND_CID>
45361032

> <PUBCHEM_CONFORMER_RMSD>
1.4

> <PUBCHEM_CONFORMER_DIVERSEORDER>
2
35
50
82
1
75
54
38
22
70
41
26
80
66
43
62
86
37
18
72
9
27
67
81
46
68
77
13
30
69
3
15
85
61
78
71
47
24
23
94
74
63
84
51
65
79
34
16
59
20
55
58
6
10
57
52
92
17
90
60
64
29
73
87
32
28
88
45
89
36
7
83
53
40
44
4
14
5
31
93
11
48
39
25
19
42
56
91
76
49
33
12
8
21

> <PUBCHEM_MMFF94_PARTIAL_CHARGES>
33
1 0.18
10 -0.22
11 0.27
12 0.33
14 0.27
15 0.27
16 0.57
17 0.3
19 0.45
2 -0.08
20 0.27
21 0.06
22 0.05
23 0.57
24 -0.11
25 0.48
26 -0.14
27 -0.15
28 -0.15
29 -0.11
3 -0.57
4 -0.57
43 0.37
49 0.15
5 -0.81
50 0.37
53 0.15
54 0.15
55 0.15
6 -0.81
7 -0.73
8 -0.23
9 -0.73

> <PUBCHEM_EFFECTIVE_ROTOR_COUNT>
9.4

> <PUBCHEM_PHARMACOPHORE_FEATURES>
10
1 3 acceptor
1 4 acceptor
1 5 cation
1 6 cation
1 7 donor
1 9 donor
5 1 8 10 22 24 rings
5 2 26 27 28 29 rings
5 6 11 12 13 14 rings
7 5 7 11 12 15 16 17 rings

> <PUBCHEM_HEAVY_ATOM_COUNT>
29

> <PUBCHEM_ATOM_DEF_STEREO_COUNT>
3

> <PUBCHEM_ATOM_UDEF_STEREO_COUNT>
0

> <PUBCHEM_BOND_DEF_STEREO_COUNT>
0

> <PUBCHEM_BOND_UDEF_STEREO_COUNT>
0

> <PUBCHEM_ISOTOPIC_ATOM_COUNT>
0

> <PUBCHEM_COMPONENT_COUNT>
1

> <PUBCHEM_CACTVS_TAUTO_COUNT>
6

> <PUBCHEM_CONFORMER_ID>
02B4278800000002

> <PUBCHEM_MMFF94_ENERGY>
57.2588

> <PUBCHEM_FEATURE_SELFOVERLAP>
50.783

> <PUBCHEM_SHAPE_FINGERPRINT>
10 15 12391517485892342771
11135609 99 18342738550171725895
11386260 185 16805328837797093868
11963148 33 18335413526446297050
12166972 35 18113339721439870109
12539765 74 8430312476622254648
12645989 146 18260550039459354109
13668630 136 18411981342860559441
13782708 43 18113893880053600681
14202775 3 18200033925122608406
15350500 55 9511466606631361051
15461852 350 17167581583873647095
15510800 12 18272380762466462926
16991971 28 18409452479286296366
16994733 274 9583518702931750565
1754908 1 16630240368032221883
1818759 1 18060707178155159046
20028762 73 18413671296596412422
2026 5 18412266094919240919
21150785 3 16298391244925613666
21267235 1 18411703170771890584
21781051 124 18272661168349621302
23569917 315 18343309149805559174
23569943 247 17695359075341057690
23576562 1 14129920205285921551
2747138 104 18273491252172767104
3178227 256 16702302364569500426
335352 9 18334861611027723574
3383291 50 18343580759305525231
4169191 19 9727637194333426355
4340502 62 15051730872551600636
4625314 4 18408884049556401357
484989 97 18114471157664630427
54039377 194 18342177769329756879
5758199 1 9799689303070518861
5937810 71 12973878183853368247
59682541 35 17989480832055927090
6328613 192 8718833089668095481
636775 72 9655574111296093491
636775 8 18340494383068677174
999808 66 18059856165003794167

> <PUBCHEM_SHAPE_MULTIPOLES>
562.88
27.17
2.85
1.19
16.65
0.43
0.17
-24.24
2.86
0.68
0.56
0.14
-0.34
0.57

> <PUBCHEM_SHAPE_SELFOVERLAP>
1156.268

> <PUBCHEM_SHAPE_VOLUME>
325.5

> <PUBCHEM_COORDINATE_TYPE>
2
5
10

$$$$
