75536759
  -OEChem-12032416333D

 46 48  0     1  0  0  0  0  0999 V2000
   -0.0352    0.9842    0.0140 O   0  0  0  0  0  0  0  0  0  0  0  0
    1.1240   -2.4160    0.0417 O   0  0  0  0  0  0  0  0  0  0  0  0
   -7.3294    1.1270   -0.2527 O   0  0  0  0  0  0  0  0  0  0  0  0
   -3.4001   -1.8793   -0.3289 O   0  0  0  0  0  0  0  0  0  0  0  0
    3.3887   -0.2389    0.1224 N   0  0  0  0  0  0  0  0  0  0  0  0
   -2.5976   -0.0651    0.8238 N   0  0  0  0  0  0  0  0  0  0  0  0
   -4.7316    0.0150   -0.1899 N   0  0  0  0  0  0  0  0  0  0  0  0
    6.4894    1.4338   -0.2374 N   0  0  0  0  0  0  0  0  0  0  0  0
    7.7972   -0.2710    0.3237 N   0  0  0  0  0  0  0  0  0  0  0  0
    2.0100   -0.1723   -0.3340 C   0  0  1  0  0  0  0  0  0  0  0  0
    1.0650   -1.0634    0.4508 C   0  0  1  0  0  0  0  0  0  0  0  0
   -0.2789   -0.4283    0.1206 C   0  0  1  0  0  0  0  0  0  0  0  0
    1.3813    1.1948   -0.1203 C   0  0  0  0  0  0  0  0  0  0  0  0
   -1.3408   -0.6879    1.1742 C   0  0  0  0  0  0  0  0  0  0  0  0
    4.2943    0.3557   -0.8534 C   0  0  0  0  0  0  0  0  0  0  0  0
   -3.5662   -0.7237    0.0756 C   0  0  0  0  0  0  0  0  0  0  0  0
   -4.9469    1.4357    0.1203 C   0  0  0  0  0  0  0  0  0  0  0  0
   -5.8024   -0.5993   -0.9783 C   0  0  0  0  0  0  0  0  0  0  0  0
    5.7260    0.3107   -0.3898 C   0  0  0  0  0  0  0  0  0  0  0  0
   -6.3596    1.6681    0.6453 C   0  0  0  0  0  0  0  0  0  0  0  0
   -7.1661   -0.2864   -0.3828 C   0  0  0  0  0  0  0  0  0  0  0  0
    6.5547   -0.7284   -0.0377 C   0  0  0  0  0  0  0  0  0  0  0  0
    7.7244    1.0350    0.1923 C   0  0  0  0  0  0  0  0  0  0  0  0
    1.9471   -0.4595   -1.3932 H   0  0  0  0  0  0  0  0  0  0  0  0
    1.2741   -1.0100    1.5265 H   0  0  0  0  0  0  0  0  0  0  0  0
   -0.6411   -0.7718   -0.8573 H   0  0  0  0  0  0  0  0  0  0  0  0
    1.5677    1.8807   -0.9522 H   0  0  0  0  0  0  0  0  0  0  0  0
    1.7255    1.6720    0.8045 H   0  0  0  0  0  0  0  0  0  0  0  0
   -1.0440   -0.2509    2.1342 H   0  0  0  0  0  0  0  0  0  0  0  0
   -1.4932   -1.7630    1.3166 H   0  0  0  0  0  0  0  0  0  0  0  0
    3.6456   -1.2167    0.2608 H   0  0  0  0  0  0  0  0  0  0  0  0
    4.0174    1.3996   -1.0444 H   0  0  0  0  0  0  0  0  0  0  0  0
    4.2337   -0.1804   -1.8090 H   0  0  0  0  0  0  0  0  0  0  0  0
   -2.7242    0.8856    1.1396 H   0  0  0  0  0  0  0  0  0  0  0  0
    0.9391   -2.4554   -0.9120 H   0  0  0  0  0  0  0  0  0  0  0  0
   -4.8087    1.9737   -0.8251 H   0  0  0  0  0  0  0  0  0  0  0  0
   -4.2343    1.8381    0.8379 H   0  0  0  0  0  0  0  0  0  0  0  0
   -5.6641   -1.6817   -1.0581 H   0  0  0  0  0  0  0  0  0  0  0  0
   -5.7247   -0.1735   -1.9858 H   0  0  0  0  0  0  0  0  0  0  0  0
   -6.4932    1.2169    1.6359 H   0  0  0  0  0  0  0  0  0  0  0  0
   -6.5515    2.7415    0.7402 H   0  0  0  0  0  0  0  0  0  0  0  0
   -7.9581   -0.6578   -1.0405 H   0  0  0  0  0  0  0  0  0  0  0  0
   -7.2943   -0.7598    0.5979 H   0  0  0  0  0  0  0  0  0  0  0  0
    6.1977    2.3868   -0.4098 H   0  0  0  0  0  0  0  0  0  0  0  0
    6.3224   -1.7836   -0.0257 H   0  0  0  0  0  0  0  0  0  0  0  0
    8.5192    1.7401    0.3894 H   0  0  0  0  0  0  0  0  0  0  0  0
  1 12  1  0  0  0  0
  1 13  1  0  0  0  0
  2 11  1  0  0  0  0
  2 35  1  0  0  0  0
  3 20  1  0  0  0  0
  3 21  1  0  0  0  0
  4 16  2  0  0  0  0
  5 10  1  0  0  0  0
  5 15  1  0  0  0  0
  5 31  1  0  0  0  0
  6 14  1  0  0  0  0
  6 16  1  0  0  0  0
  6 34  1  0  0  0  0
  7 16  1  0  0  0  0
  7 17  1  0  0  0  0
  7 18  1  0  0  0  0
  8 19  1  0  0  0  0
  8 23  1  0  0  0  0
  8 44  1  0  0  0  0
  9 22  1  0  0  0  0
  9 23  2  0  0  0  0
 10 11  1  0  0  0  0
 10 13  1  0  0  0  0
 10 24  1  0  0  0  0
 11 12  1  0  0  0  0
 11 25  1  0  0  0  0
 12 14  1  0  0  0  0
 12 26  1  0  0  0  0
 13 27  1  0  0  0  0
 13 28  1  0  0  0  0
 14 29  1  0  0  0  0
 14 30  1  0  0  0  0
 15 19  1  0  0  0  0
 15 32  1  0  0  0  0
 15 33  1  0  0  0  0
 17 20  1  0  0  0  0
 17 36  1  0  0  0  0
 17 37  1  0  0  0  0
 18 21  1  0  0  0  0
 18 38  1  0  0  0  0
 18 39  1  0  0  0  0
 19 22  2  0  0  0  0
 20 40  1  0  0  0  0
 20 41  1  0  0  0  0
 21 42  1  0  0  0  0
 21 43  1  0  0  0  0
 22 45  1  0  0  0  0
 23 46  1  0  0  0  0
M  END
> <PUBCHEM_COMPOUND_CID>
75536759

> <PUBCHEM_CONFORMER_RMSD>
1

> <PUBCHEM_CONFORMER_DIVERSEORDER>
1
74
90
33
69
73
54
41
35
85
18
94
87
58
38
55
80
12
86
64
63
84
37
7
97
21
88
72
96
60
62
68
17
77
70
71
49
6
78
61
31
29
2
34
75
30
32
82
22
47
9
57
66
81
50
92
8
42
53
93
43
89
19
52
91
95
44
23
15
59
76
45
13
65
25
11
3
39
5
24
51
4
14
27
46
56
36
67
83
16
79
28
20
10
48
26
40

> <PUBCHEM_MMFF94_PARTIAL_CHARGES>
29
1 -0.56
10 0.27
11 0.28
12 0.28
13 0.28
14 0.3
15 0.45
16 0.69
17 0.3
18 0.3
19 -0.33
2 -0.68
20 0.28
21 0.28
22 0.08
23 0.04
3 -0.56
31 0.36
34 0.37
35 0.4
4 -0.57
44 0.27
45 0.15
46 0.15
5 -0.9
6 -0.73
7 -0.66
8 0.03
9 -0.57

> <PUBCHEM_EFFECTIVE_ROTOR_COUNT>
9.2

> <PUBCHEM_PHARMACOPHORE_FEATURES>
13
1 1 acceptor
1 2 acceptor
1 2 donor
1 3 acceptor
1 4 acceptor
1 5 cation
1 5 donor
1 6 donor
1 8 donor
3 8 9 23 cation
5 1 10 11 12 13 rings
5 8 9 19 22 23 rings
6 3 7 17 18 20 21 rings

> <PUBCHEM_HEAVY_ATOM_COUNT>
23

> <PUBCHEM_ATOM_DEF_STEREO_COUNT>
3

> <PUBCHEM_ATOM_UDEF_STEREO_COUNT>
0

> <PUBCHEM_BOND_DEF_STEREO_COUNT>
0

> <PUBCHEM_BOND_UDEF_STEREO_COUNT>
0

> <PUBCHEM_ISOTOPIC_ATOM_COUNT>
0

> <PUBCHEM_COMPONENT_COUNT>
1

> <PUBCHEM_CACTVS_TAUTO_COUNT>
4

> <PUBCHEM_CONFORMER_ID>
0480997700000001

> <PUBCHEM_MMFF94_ENERGY>
35.829

> <PUBCHEM_FEATURE_SELFOVERLAP>
65.973

> <PUBCHEM_SHAPE_FINGERPRINT>
10 15 14129065823877311871
10050765 1 18050004394188444756
10087517 78 18335139752746634413
10670039 82 18411413987278735265
10730089 173 18412545397417310177
10968037 39 17632578254015588815
11135609 99 9871164165248193609
11315181 36 17131836486587166323
11719270 70 17775284937679602614
12082328 90 18201718449332535503
12091667 2 18343585153378029971
125118 31 18334860545855443276
13533116 47 17386277706919262130
13914758 101 18335985285735474592
13968360 50 17918277519877645910
14123256 10 18409166610558165205
14251764 18 18113898264539820619
14251764 46 17748545943903394913
14729087 3 18408884035880085049
15183329 4 18113614582029171120
15419008 47 16702014262300302960
15716309 27 9295289434617869449
15849732 13 17275102842743451956
18335252 98 18335146397735962891
18681886 176 17845926420558708259
20157964 124 18343024372525784470
20281389 69 17676485042746216412
20554085 129 17988349426370874010
21150785 3 17418374696652210397
22224240 67 17967813855528725690
23198884 109 18413109455419156655
23402539 116 18412262865704311854
23559900 14 17703783752042723849
246663 6 10735878382740084540
2838139 119 18113617902260645197
3009799 131 17846499235793545592
328311 84 12396293751861280848
33532 11 9151183043315998444
335352 9 18334016116476629444
4073 2 18113904909297911250
4339292 15 17203035409958900951
4340502 62 15719391729238150042
5385378 56 17313381184844845754
5758199 1 18335139786609766458
59682541 35 8430309143173478188
59755656 520 16805322223589635971

> <PUBCHEM_SHAPE_MULTIPOLES>
424.95
23.91
1.59
0.82
10.11
0.19
-0.03
-7.37
2.03
-0.83
-0.07
-0.37
0.04
-0.65

> <PUBCHEM_SHAPE_SELFOVERLAP>
879.108

> <PUBCHEM_SHAPE_VOLUME>
243.9

> <PUBCHEM_COORDINATE_TYPE>
2
5
10

$$$$
