40781574
  -OEChem-12032416173D

 56 58  0     1  0  0  0  0  0999 V2000
   -2.6483   -0.5730    0.5317 O   0  0  0  0  0  0  0  0  0  0  0  0
   -5.9321   -0.1900   -0.8716 O   0  0  0  0  0  0  0  0  0  0  0  0
   -5.3524   -1.7003    1.3536 O   0  0  0  0  0  0  0  0  0  0  0  0
   -3.0973    3.4697    0.0717 O   0  0  0  0  0  0  0  0  0  0  0  0
   -0.2251   -0.8730   -1.1397 O   0  0  0  0  0  0  0  0  0  0  0  0
    3.6965    1.6628   -1.8076 O   0  0  0  0  0  0  0  0  0  0  0  0
    6.0008   -1.3167    1.1245 O   0  0  0  0  0  0  0  0  0  0  0  0
   -1.1482    2.2048    0.1160 N   0  0  0  0  0  0  0  0  0  0  0  0
   -0.8601   -2.7472    0.0580 N   0  0  0  0  0  0  0  0  0  0  0  0
    1.3238   -2.0224    0.1983 N   0  0  0  0  0  0  0  0  0  0  0  0
   -0.3236    3.1516    0.8312 C   0  0  0  0  0  0  0  0  0  0  0  0
    0.8722    2.7005    1.6175 C   0  0  0  0  0  0  0  0  0  0  0  0
   -0.3415    3.2209    2.3302 C   0  0  0  0  0  0  0  0  0  0  0  0
   -3.6929    0.2417   -0.0289 C   0  0  2  0  0  0  0  0  0  0  0  0
   -4.6321   -0.7224   -0.7335 C   0  0  1  0  0  0  0  0  0  0  0  0
   -4.5714   -1.9282    0.1811 C   0  0  1  0  0  0  0  0  0  0  0  0
   -3.1019   -1.9449    0.5872 C   0  0  1  0  0  0  0  0  0  0  0  0
   -3.0888    1.2806   -0.9568 C   0  0  0  0  0  0  0  0  0  0  0  0
   -2.4757    2.4475   -0.2051 C   0  0  0  0  0  0  0  0  0  0  0  0
   -2.2315   -2.7618   -0.3579 C   0  0  0  0  0  0  0  0  0  0  0  0
    0.0692   -1.7841   -0.3697 C   0  0  0  0  0  0  0  0  0  0  0  0
    2.5141   -1.2804    0.0163 C   0  0  0  0  0  0  0  0  0  0  0  0
    3.6844   -1.6688    0.6682 C   0  0  0  0  0  0  0  0  0  0  0  0
    2.5182   -0.1608   -0.8158 C   0  0  0  0  0  0  0  0  0  0  0  0
    3.6924    0.5703   -0.9957 C   0  0  0  0  0  0  0  0  0  0  0  0
    4.8587   -0.9379    0.4882 C   0  0  0  0  0  0  0  0  0  0  0  0
    4.8626    0.1818   -0.3437 C   0  0  0  0  0  0  0  0  0  0  0  0
    2.4653    2.0037   -2.4432 C   0  0  0  0  0  0  0  0  0  0  0  0
    7.1648   -0.5241    0.8954 C   0  0  0  0  0  0  0  0  0  0  0  0
   -0.2182    4.0891    0.2943 H   0  0  0  0  0  0  0  0  0  0  0  0
    1.7550    3.3274    1.5975 H   0  0  0  0  0  0  0  0  0  0  0  0
    1.0770    1.6390    1.6838 H   0  0  0  0  0  0  0  0  0  0  0  0
   -0.9503    2.5080    2.8726 H   0  0  0  0  0  0  0  0  0  0  0  0
   -0.2767    4.1990    2.7906 H   0  0  0  0  0  0  0  0  0  0  0  0
   -4.2051    0.7436    0.8023 H   0  0  0  0  0  0  0  0  0  0  0  0
   -4.2470   -0.9809   -1.7273 H   0  0  0  0  0  0  0  0  0  0  0  0
   -4.9292   -2.8492   -0.2878 H   0  0  0  0  0  0  0  0  0  0  0  0
   -2.9648   -2.2893    1.6189 H   0  0  0  0  0  0  0  0  0  0  0  0
   -3.8638    1.7053   -1.6069 H   0  0  0  0  0  0  0  0  0  0  0  0
   -2.3324    0.8327   -1.6117 H   0  0  0  0  0  0  0  0  0  0  0  0
   -0.7160    1.3250   -0.1537 H   0  0  0  0  0  0  0  0  0  0  0  0
   -2.2833   -2.3708   -1.3799 H   0  0  0  0  0  0  0  0  0  0  0  0
   -2.5572   -3.8069   -0.3718 H   0  0  0  0  0  0  0  0  0  0  0  0
   -6.5010   -0.8973   -1.2201 H   0  0  0  0  0  0  0  0  0  0  0  0
   -5.2536   -2.4812    1.9248 H   0  0  0  0  0  0  0  0  0  0  0  0
   -0.5483   -3.4650    0.7049 H   0  0  0  0  0  0  0  0  0  0  0  0
    1.3985   -2.8247    0.8186 H   0  0  0  0  0  0  0  0  0  0  0  0
    3.6889   -2.5406    1.3183 H   0  0  0  0  0  0  0  0  0  0  0  0
    1.6192    0.1450   -1.3188 H   0  0  0  0  0  0  0  0  0  0  0  0
    5.7424    0.7908   -0.5239 H   0  0  0  0  0  0  0  0  0  0  0  0
    2.6536    2.8961   -3.0493 H   0  0  0  0  0  0  0  0  0  0  0  0
    1.6948    2.2752   -1.7134 H   0  0  0  0  0  0  0  0  0  0  0  0
    2.1340    1.2186   -3.1315 H   0  0  0  0  0  0  0  0  0  0  0  0
    7.9781   -0.9686    1.4783 H   0  0  0  0  0  0  0  0  0  0  0  0
    7.0329    0.5000    1.2608 H   0  0  0  0  0  0  0  0  0  0  0  0
    7.4719   -0.5541   -0.1556 H   0  0  0  0  0  0  0  0  0  0  0  0
  1 14  1  0  0  0  0
  1 17  1  0  0  0  0
  2 15  1  0  0  0  0
  2 44  1  0  0  0  0
  3 16  1  0  0  0  0
  3 45  1  0  0  0  0
  4 19  2  0  0  0  0
  5 21  2  0  0  0  0
  6 25  1  0  0  0  0
  6 28  1  0  0  0  0
  7 26  1  0  0  0  0
  7 29  1  0  0  0  0
  8 11  1  0  0  0  0
  8 19  1  0  0  0  0
  8 41  1  0  0  0  0
  9 20  1  0  0  0  0
  9 21  1  0  0  0  0
  9 46  1  0  0  0  0
 10 21  1  0  0  0  0
 10 22  1  0  0  0  0
 10 47  1  0  0  0  0
 11 12  1  0  0  0  0
 11 13  1  0  0  0  0
 11 30  1  0  0  0  0
 12 13  1  0  0  0  0
 12 31  1  0  0  0  0
 12 32  1  0  0  0  0
 13 33  1  0  0  0  0
 13 34  1  0  0  0  0
 14 15  1  0  0  0  0
 14 18  1  0  0  0  0
 14 35  1  0  0  0  0
 15 16  1  0  0  0  0
 15 36  1  0  0  0  0
 16 17  1  0  0  0  0
 16 37  1  0  0  0  0
 17 20  1  0  0  0  0
 17 38  1  0  0  0  0
 18 19  1  0  0  0  0
 18 39  1  0  0  0  0
 18 40  1  0  0  0  0
 20 42  1  0  0  0  0
 20 43  1  0  0  0  0
 22 23  2  0  0  0  0
 22 24  1  0  0  0  0
 23 26  1  0  0  0  0
 23 48  1  0  0  0  0
 24 25  2  0  0  0  0
 24 49  1  0  0  0  0
 25 27  1  0  0  0  0
 26 27  2  0  0  0  0
 27 50  1  0  0  0  0
 28 51  1  0  0  0  0
 28 52  1  0  0  0  0
 28 53  1  0  0  0  0
 29 54  1  0  0  0  0
 29 55  1  0  0  0  0
 29 56  1  0  0  0  0
M  END
> <PUBCHEM_COMPOUND_CID>
40781574

> <PUBCHEM_CONFORMER_RMSD>
1.2

> <PUBCHEM_CONFORMER_DIVERSEORDER>
1
22
58
71
36
41
38
21
46
40
13
75
81
34
59
25
84
61
29
64
18
44
68
66
28
52
79
56
45
83
15
48
26
67
42
53
57
47
72
82
32
31
60
54
77
33
5
73
80
6
8
74
19
12
65
4
27
49
86
35
62
87
70
11
50
24
2
76
78
37
30
43
23
69
9
39
85
7
10
51
20
14
88
3
17
16
55
63

> <PUBCHEM_MMFF94_PARTIAL_CHARGES>
42
1 -0.56
10 -0.55
11 0.05
12 -0.2
13 -0.2
14 0.28
15 0.28
16 0.28
17 0.28
18 0.06
19 0.57
2 -0.68
20 0.3
21 0.69
22 0.12
23 -0.15
24 -0.15
25 0.08
26 0.08
27 -0.15
28 0.28
29 0.28
3 -0.68
30 0.1
31 0.1
32 0.1
33 0.1
34 0.1
4 -0.57
41 0.37
44 0.4
45 0.4
46 0.37
47 0.37
48 0.15
49 0.15
5 -0.57
50 0.15
6 -0.36
7 -0.36
8 -0.58
9 -0.73

> <PUBCHEM_EFFECTIVE_ROTOR_COUNT>
12.6

> <PUBCHEM_PHARMACOPHORE_FEATURES>
14
1 1 acceptor
1 10 donor
1 2 acceptor
1 2 donor
1 3 acceptor
1 3 donor
1 4 acceptor
1 5 acceptor
1 6 acceptor
1 7 acceptor
1 8 donor
1 9 donor
5 1 14 15 16 17 rings
6 22 23 24 25 26 27 rings

> <PUBCHEM_HEAVY_ATOM_COUNT>
29

> <PUBCHEM_ATOM_DEF_STEREO_COUNT>
4

> <PUBCHEM_ATOM_UDEF_STEREO_COUNT>
0

> <PUBCHEM_BOND_DEF_STEREO_COUNT>
0

> <PUBCHEM_BOND_UDEF_STEREO_COUNT>
0

> <PUBCHEM_ISOTOPIC_ATOM_COUNT>
0

> <PUBCHEM_COMPONENT_COUNT>
1

> <PUBCHEM_CACTVS_TAUTO_COUNT>
6

> <PUBCHEM_CONFORMER_ID>
026E470600000001

> <PUBCHEM_MMFF94_ENERGY>
90.7107

> <PUBCHEM_FEATURE_SELFOVERLAP>
71.115

> <PUBCHEM_SHAPE_FINGERPRINT>
10670039 82 18339379486846928734
11513181 2 17914329078626574334
12107183 9 17684358461024663114
12166972 35 18260267469191805068
12467345 10 18186800271060821898
12596602 18 17240765120187926610
12788726 201 18341063972740831444
13402501 40 18343013415341240097
14790565 3 17407120955220906297
15297060 5 17986109613135009522
18336668 15 18260825999550188324
20642791 105 18335698299904383229
20715895 44 18044934563632869765
20721686 56 18268135633954615243
21344244 246 17695602419755818255
23557571 272 18130508544157128550
23559900 14 18187074092331964607
329604 57 18409450297348172264
3493558 16 17909546164691631594
392239 28 18201438056371358240
439807 62 18186805807426601937
469060 322 18271261442396276985
9981440 41 18262238811899658227

> <PUBCHEM_SHAPE_MULTIPOLES>
540.78
13.05
4.06
1.59
8.6
2.76
-0.18
-5.96
1.14
-2.76
1.31
0.96
1.32
-0.83

> <PUBCHEM_SHAPE_SELFOVERLAP>
1123.985

> <PUBCHEM_SHAPE_VOLUME>
308.1

> <PUBCHEM_COORDINATE_TYPE>
2
5
10

$$$$
