25314925
  -OEChem-12032416373D

 48 51  0     1  0  0  0  0  0999 V2000
    2.4866    0.9605   -1.6013 O   0  0  0  0  0  0  0  0  0  0  0  0
    3.9420    2.0611   -0.1690 O   0  0  0  0  0  0  0  0  0  0  0  0
    2.1484    1.9136    2.0810 O   0  0  0  0  0  0  0  0  0  0  0  0
    2.5154   -4.0580    0.1081 O   0  0  0  0  0  0  0  0  0  0  0  0
   -1.7930    1.7463    1.0346 O   0  0  0  0  0  0  0  0  0  0  0  0
    2.2871   -1.2243    0.2492 N   0  0  0  0  0  0  0  0  0  0  0  0
   -0.2284    0.9720   -0.4805 N   0  0  0  0  0  0  0  0  0  0  0  0
   -2.3746    0.1786   -0.6131 N   0  0  0  0  0  0  0  0  0  0  0  0
    2.7783    0.0977    0.6317 C   0  0  2  0  0  0  0  0  0  0  0  0
    1.6110    0.9718    1.1432 C   0  0  2  0  0  0  0  0  0  0  0  0
    0.8858    1.7471    0.0212 C   0  0  1  0  0  0  0  0  0  0  0  0
    1.8163    2.1395   -1.1450 C   0  0  1  0  0  0  0  0  0  0  0  0
    3.4667    0.7661   -0.5726 C   0  0  1  0  0  0  0  0  0  0  0  0
    3.0032    2.9898   -0.7328 C   0  0  0  0  0  0  0  0  0  0  0  0
    2.0907   -2.0710    1.4341 C   0  0  0  0  0  0  0  0  0  0  0  0
    3.2147   -1.8751   -0.6864 C   0  0  0  0  0  0  0  0  0  0  0  0
    1.5902   -3.4487    1.0094 C   0  0  0  0  0  0  0  0  0  0  0  0
    2.6869   -3.2569   -1.0616 C   0  0  0  0  0  0  0  0  0  0  0  0
   -1.5084    1.0322    0.0759 C   0  0  0  0  0  0  0  0  0  0  0  0
   -3.7481   -0.0495   -0.3648 C   0  0  0  0  0  0  0  0  0  0  0  0
   -4.4611   -0.9459   -1.1611 C   0  0  0  0  0  0  0  0  0  0  0  0
   -4.3902    0.6228    0.6752 C   0  0  0  0  0  0  0  0  0  0  0  0
   -5.8161   -1.1702   -0.9173 C   0  0  0  0  0  0  0  0  0  0  0  0
   -5.7454    0.3985    0.9190 C   0  0  0  0  0  0  0  0  0  0  0  0
   -6.4581   -0.4982    0.1229 C   0  0  0  0  0  0  0  0  0  0  0  0
    3.5371    0.0162    1.4235 H   0  0  0  0  0  0  0  0  0  0  0  0
    0.8909    0.3871    1.7243 H   0  0  0  0  0  0  0  0  0  0  0  0
    0.4711    2.6747    0.4364 H   0  0  0  0  0  0  0  0  0  0  0  0
    1.2506    2.5932   -1.9653 H   0  0  0  0  0  0  0  0  0  0  0  0
    4.3440    0.2415   -0.9593 H   0  0  0  0  0  0  0  0  0  0  0  0
    3.4845    3.4404   -1.6074 H   0  0  0  0  0  0  0  0  0  0  0  0
    2.7611    3.7779   -0.0147 H   0  0  0  0  0  0  0  0  0  0  0  0
    1.3580   -1.6422    2.1242 H   0  0  0  0  0  0  0  0  0  0  0  0
    3.0370   -2.1874    1.9789 H   0  0  0  0  0  0  0  0  0  0  0  0
    4.2121   -1.9792   -0.2394 H   0  0  0  0  0  0  0  0  0  0  0  0
    3.2954   -1.3609   -1.6479 H   0  0  0  0  0  0  0  0  0  0  0  0
   -0.0519    0.2985   -1.2198 H   0  0  0  0  0  0  0  0  0  0  0  0
    1.4041    2.4207    2.4475 H   0  0  0  0  0  0  0  0  0  0  0  0
    1.5022   -4.0998    1.8851 H   0  0  0  0  0  0  0  0  0  0  0  0
    0.6018   -3.3921    0.5373 H   0  0  0  0  0  0  0  0  0  0  0  0
    1.7354   -3.1944   -1.6042 H   0  0  0  0  0  0  0  0  0  0  0  0
    3.4051   -3.7682   -1.7109 H   0  0  0  0  0  0  0  0  0  0  0  0
   -1.9774   -0.3460   -1.3885 H   0  0  0  0  0  0  0  0  0  0  0  0
   -3.9728   -1.4760   -1.9749 H   0  0  0  0  0  0  0  0  0  0  0  0
   -3.9070    1.3308    1.3334 H   0  0  0  0  0  0  0  0  0  0  0  0
   -6.3713   -1.8681   -1.5372 H   0  0  0  0  0  0  0  0  0  0  0  0
   -6.2467    0.9214    1.7284 H   0  0  0  0  0  0  0  0  0  0  0  0
   -7.5131   -0.6729    0.3128 H   0  0  0  0  0  0  0  0  0  0  0  0
  1 12  1  0  0  0  0
  1 13  1  0  0  0  0
  2 13  1  0  0  0  0
  2 14  1  0  0  0  0
  3 10  1  0  0  0  0
  3 38  1  0  0  0  0
  4 17  1  0  0  0  0
  4 18  1  0  0  0  0
  5 19  2  0  0  0  0
  6  9  1  0  0  0  0
  6 15  1  0  0  0  0
  6 16  1  0  0  0  0
  7 11  1  0  0  0  0
  7 19  1  0  0  0  0
  7 37  1  0  0  0  0
  8 19  1  0  0  0  0
  8 20  1  0  0  0  0
  8 43  1  0  0  0  0
  9 10  1  0  0  0  0
  9 13  1  0  0  0  0
  9 26  1  0  0  0  0
 10 11  1  0  0  0  0
 10 27  1  0  0  0  0
 11 12  1  0  0  0  0
 11 28  1  0  0  0  0
 12 14  1  0  0  0  0
 12 29  1  0  0  0  0
 13 30  1  0  0  0  0
 14 31  1  0  0  0  0
 14 32  1  0  0  0  0
 15 17  1  0  0  0  0
 15 33  1  0  0  0  0
 15 34  1  0  0  0  0
 16 18  1  0  0  0  0
 16 35  1  0  0  0  0
 16 36  1  0  0  0  0
 17 39  1  0  0  0  0
 17 40  1  0  0  0  0
 18 41  1  0  0  0  0
 18 42  1  0  0  0  0
 20 21  2  0  0  0  0
 20 22  1  0  0  0  0
 21 23  1  0  0  0  0
 21 44  1  0  0  0  0
 22 24  2  0  0  0  0
 22 45  1  0  0  0  0
 23 25  2  0  0  0  0
 23 46  1  0  0  0  0
 24 25  1  0  0  0  0
 24 47  1  0  0  0  0
 25 48  1  0  0  0  0
M  END
> <PUBCHEM_COMPOUND_CID>
25314925

> <PUBCHEM_CONFORMER_RMSD>
0.8

> <PUBCHEM_CONFORMER_DIVERSEORDER>
1
25
15
18
16
19
22
26
10
17
27
23
13
8
20
14
3
12
21
9
11
2
5
24
4
6
7

> <PUBCHEM_MMFF94_PARTIAL_CHARGES>
33
1 -0.56
10 0.28
11 0.3
12 0.28
13 0.56
14 0.28
15 0.27
16 0.27
17 0.28
18 0.28
19 0.69
2 -0.56
20 0.12
21 -0.15
22 -0.15
23 -0.15
24 -0.15
25 -0.15
3 -0.68
37 0.37
38 0.4
4 -0.56
43 0.37
44 0.15
45 0.15
46 0.15
47 0.15
48 0.15
5 -0.57
6 -0.81
7 -0.73
8 -0.55
9 0.27

> <PUBCHEM_EFFECTIVE_ROTOR_COUNT>
7.4

> <PUBCHEM_PHARMACOPHORE_FEATURES>
12
1 1 acceptor
1 2 acceptor
1 3 acceptor
1 3 donor
1 4 acceptor
1 5 acceptor
1 6 cation
1 7 donor
1 8 donor
6 20 21 22 23 24 25 rings
6 4 6 15 16 17 18 rings
8 1 2 9 10 11 12 13 14 rings

> <PUBCHEM_HEAVY_ATOM_COUNT>
25

> <PUBCHEM_ATOM_DEF_STEREO_COUNT>
5

> <PUBCHEM_ATOM_UDEF_STEREO_COUNT>
0

> <PUBCHEM_BOND_DEF_STEREO_COUNT>
0

> <PUBCHEM_BOND_UDEF_STEREO_COUNT>
0

> <PUBCHEM_ISOTOPIC_ATOM_COUNT>
0

> <PUBCHEM_COMPONENT_COUNT>
1

> <PUBCHEM_CACTVS_TAUTO_COUNT>
3

> <PUBCHEM_CONFORMER_ID>
0182466D00000001

> <PUBCHEM_MMFF94_ENERGY>
75.359

> <PUBCHEM_FEATURE_SELFOVERLAP>
60.999

> <PUBCHEM_SHAPE_FINGERPRINT>
11315621 136 18409171042943913495
11421498 54 18343588438511664392
114674 6 18186523176560915618
12107183 9 17909840834277153513
12788726 201 17632311046894128833
13009979 54 17772195210798875546
13150687 139 17970364809259561884
13167823 11 18341897390144459421
13464513 79 18409166572199098950
13533116 47 18343018896452895043
13583140 156 17987214725648812365
13836976 161 18187366583863048484
13955234 65 18410295830263854760
13965767 371 11454734601287832210
14251740 57 18272370850093426247
14863182 85 18411409640317501648
15142526 21 17269451516138182785
15250474 111 18272359919749811239
15537594 2 18200598115872217231
15664445 248 17022912245615155877
17138139 8 17769076188485066367
17492 54 17896343392864483038
17492 89 18338798897420656511
17818456 19 17914340065812189585
17844677 252 18040996216319710973
19427546 62 18047475809418628940
20028762 73 18341893005020124582
20511986 3 18130777997721214789
20645477 70 18260546727643468589
20775530 9 18122899833035050918
21054139 6 18197210558436711287
21197605 99 18045791340794343707
21285901 2 17312813879868237933
21315759 148 17895209813714240881
21315763 178 18343860043985305061
21421861 104 18341055120691785137
21521721 280 18341334500431759536
21623969 137 18113908208048611187
22224240 67 18341042034496633888
23466295 7 17045425566860137510
235170 7 17385997374008089543
23559900 14 18335134242371509059
238 59 18333739026171209978
239999 70 17458628951264214465
25222932 49 17273676845134449311
3060560 45 18114463469884231796
34797466 226 16443355308145325085
4340502 62 18339358694657326320
46194498 28 17603592932177869269
463206 1 18341045319761538631
59682541 52 18193807455002662023
6025842 7 18335422404179750693
7164475 11 18337389344931291997
8272917 22 18408326600717289629

> <PUBCHEM_SHAPE_MULTIPOLES>
470.2
11.86
3.85
1.39
24.78
3.34
0.23
1.74
-1.11
-6.43
-0.06
-0.45
-0.06
-1

> <PUBCHEM_SHAPE_SELFOVERLAP>
1006.385

> <PUBCHEM_SHAPE_VOLUME>
255.5

> <PUBCHEM_COORDINATE_TYPE>
2
5
10

$$$$
