51137439
  -OEChem-12032416203D

 48 51  0     1  0  0  0  0  0999 V2000
   -7.5832    0.7262    1.6700 F   0  0  0  0  0  0  0  0  0  0  0  0
   -8.1443   -0.3468   -0.1361 F   0  0  0  0  0  0  0  0  0  0  0  0
   -7.9551    1.8192   -0.1661 F   0  0  0  0  0  0  0  0  0  0  0  0
    2.9015   -0.7630    0.1519 O   0  0  0  0  0  0  0  0  0  0  0  0
   -1.1270   -0.8783   -0.3116 N   0  0  1  0  0  0  0  0  0  0  0  0
    3.1975   -2.9795    0.0910 N   0  0  0  0  0  0  0  0  0  0  0  0
    4.4415   -2.3804    0.0239 N   0  0  0  0  0  0  0  0  0  0  0  0
    0.8219   -2.0513    0.2586 C   0  0  1  0  0  0  0  0  0  0  0  0
    0.2290   -1.3953    1.5178 C   0  0  0  0  0  0  0  0  0  0  0  0
    0.1241   -1.3460   -0.9121 C   0  0  0  0  0  0  0  0  0  0  0  0
   -0.7418   -0.3445    0.9948 C   0  0  0  0  0  0  0  0  0  0  0  0
   -1.8032    0.1115   -1.1371 C   0  0  0  0  0  0  0  0  0  0  0  0
    2.3293   -1.9979    0.1646 C   0  0  0  0  0  0  0  0  0  0  0  0
   -3.2528    0.2612   -0.7587 C   0  0  0  0  0  0  0  0  0  0  0  0
   -4.1789   -0.7056   -1.1501 C   0  0  0  0  0  0  0  0  0  0  0  0
   -3.6696    1.3661   -0.0162 C   0  0  0  0  0  0  0  0  0  0  0  0
    4.2203   -1.0872    0.0623 C   0  0  0  0  0  0  0  0  0  0  0  0
   -5.5217   -0.5677   -0.7993 C   0  0  0  0  0  0  0  0  0  0  0  0
   -5.0125    1.5042    0.3347 C   0  0  0  0  0  0  0  0  0  0  0  0
   -5.9385    0.5374   -0.0568 C   0  0  0  0  0  0  0  0  0  0  0  0
    5.1364    0.0156    0.0257 C   0  0  0  0  0  0  0  0  0  0  0  0
    6.5083   -0.2203   -0.0649 C   0  0  0  0  0  0  0  0  0  0  0  0
    4.6558    1.3240    0.0801 C   0  0  0  0  0  0  0  0  0  0  0  0
   -7.3738    0.6831    0.3209 C   0  0  0  0  0  0  0  0  0  0  0  0
    7.3994    0.8520   -0.1009 C   0  0  0  0  0  0  0  0  0  0  0  0
    5.5469    2.3963    0.0442 C   0  0  0  0  0  0  0  0  0  0  0  0
    6.9188    2.1603   -0.0462 C   0  0  0  0  0  0  0  0  0  0  0  0
    7.8719    3.3069   -0.0843 C   0  0  0  0  0  0  0  0  0  0  0  0
    0.5301   -3.1108    0.2610 H   0  0  0  0  0  0  0  0  0  0  0  0
    0.9834   -0.9502    2.1750 H   0  0  0  0  0  0  0  0  0  0  0  0
   -0.3136   -2.1514    2.0990 H   0  0  0  0  0  0  0  0  0  0  0  0
    0.7218   -0.5079   -1.2940 H   0  0  0  0  0  0  0  0  0  0  0  0
   -0.0591   -2.0399   -1.7398 H   0  0  0  0  0  0  0  0  0  0  0  0
   -1.5944   -0.2273    1.6709 H   0  0  0  0  0  0  0  0  0  0  0  0
   -0.2266    0.6209    0.9079 H   0  0  0  0  0  0  0  0  0  0  0  0
   -1.2906    1.0829   -1.1218 H   0  0  0  0  0  0  0  0  0  0  0  0
   -1.7829   -0.2056   -2.1896 H   0  0  0  0  0  0  0  0  0  0  0  0
   -3.8662   -1.5711   -1.7285 H   0  0  0  0  0  0  0  0  0  0  0  0
   -2.9580    2.1255    0.2966 H   0  0  0  0  0  0  0  0  0  0  0  0
   -6.2269   -1.3321   -1.1136 H   0  0  0  0  0  0  0  0  0  0  0  0
   -5.3277    2.3679    0.9141 H   0  0  0  0  0  0  0  0  0  0  0  0
    6.9051   -1.2317   -0.1092 H   0  0  0  0  0  0  0  0  0  0  0  0
    3.5943    1.5476    0.1504 H   0  0  0  0  0  0  0  0  0  0  0  0
    8.4659    0.6557   -0.1733 H   0  0  0  0  0  0  0  0  0  0  0  0
    5.1607    3.4114    0.0856 H   0  0  0  0  0  0  0  0  0  0  0  0
    8.8311    3.0387    0.3716 H   0  0  0  0  0  0  0  0  0  0  0  0
    7.4811    4.1645    0.4738 H   0  0  0  0  0  0  0  0  0  0  0  0
    8.0492    3.6137   -1.1199 H   0  0  0  0  0  0  0  0  0  0  0  0
  1 24  1  0  0  0  0
  2 24  1  0  0  0  0
  3 24  1  0  0  0  0
  4 13  1  0  0  0  0
  4 17  1  0  0  0  0
  5 10  1  0  0  0  0
  5 11  1  0  0  0  0
  5 12  1  0  0  0  0
  6  7  1  0  0  0  0
  6 13  2  0  0  0  0
  7 17  2  0  0  0  0
  8  9  1  0  0  0  0
  8 10  1  0  0  0  0
  8 13  1  0  0  0  0
  8 29  1  0  0  0  0
  9 11  1  0  0  0  0
  9 30  1  0  0  0  0
  9 31  1  0  0  0  0
 10 32  1  0  0  0  0
 10 33  1  0  0  0  0
 11 34  1  0  0  0  0
 11 35  1  0  0  0  0
 12 14  1  0  0  0  0
 12 36  1  0  0  0  0
 12 37  1  0  0  0  0
 14 15  2  0  0  0  0
 14 16  1  0  0  0  0
 15 18  1  0  0  0  0
 15 38  1  0  0  0  0
 16 19  2  0  0  0  0
 16 39  1  0  0  0  0
 17 21  1  0  0  0  0
 18 20  2  0  0  0  0
 18 40  1  0  0  0  0
 19 20  1  0  0  0  0
 19 41  1  0  0  0  0
 20 24  1  0  0  0  0
 21 22  2  0  0  0  0
 21 23  1  0  0  0  0
 22 25  1  0  0  0  0
 22 42  1  0  0  0  0
 23 26  2  0  0  0  0
 23 43  1  0  0  0  0
 25 27  2  0  0  0  0
 25 44  1  0  0  0  0
 26 27  1  0  0  0  0
 26 45  1  0  0  0  0
 27 28  1  0  0  0  0
 28 46  1  0  0  0  0
 28 47  1  0  0  0  0
 28 48  1  0  0  0  0
M  END
> <PUBCHEM_COMPOUND_CID>
51137439

> <PUBCHEM_CONFORMER_RMSD>
0.8

> <PUBCHEM_CONFORMER_DIVERSEORDER>
1
21
15
36
9
22
41
8
59
7
6
47
64
45
28
31
20
50
55
30
27
66
16
60
42
29
63
48
58
56
62
13
34
12
5
10
32
54
35
33
3
24
19
52
49
18
44
14
11
68
37
17
57
67
25
46
38
2
40
65
23
53
39
4
61
43
26
51

> <PUBCHEM_MMFF94_PARTIAL_CHARGES>
35
1 -0.34
10 0.27
11 0.27
12 0.41
13 0.3
14 -0.14
15 -0.15
16 -0.15
17 0.43
18 -0.15
19 -0.15
2 -0.34
20 -0.14
21 0.05
22 -0.15
23 -0.15
24 1.16
25 -0.15
26 -0.15
27 -0.14
28 0.14
3 -0.34
38 0.15
39 0.15
4 -0.28
40 0.15
41 0.15
42 0.15
43 0.15
44 0.15
45 0.15
5 -0.81
6 -0.34
7 -0.34
8 0.18

> <PUBCHEM_EFFECTIVE_ROTOR_COUNT>
6

> <PUBCHEM_PHARMACOPHORE_FEATURES>
5
1 5 cation
5 4 6 7 13 17 rings
5 5 8 9 10 11 rings
6 14 15 16 18 19 20 rings
6 21 22 23 25 26 27 rings

> <PUBCHEM_HEAVY_ATOM_COUNT>
28

> <PUBCHEM_ATOM_DEF_STEREO_COUNT>
1

> <PUBCHEM_ATOM_UDEF_STEREO_COUNT>
0

> <PUBCHEM_BOND_DEF_STEREO_COUNT>
0

> <PUBCHEM_BOND_UDEF_STEREO_COUNT>
0

> <PUBCHEM_ISOTOPIC_ATOM_COUNT>
0

> <PUBCHEM_COMPONENT_COUNT>
1

> <PUBCHEM_CACTVS_TAUTO_COUNT>
1

> <PUBCHEM_CONFORMER_ID>
030C4B9F00000001

> <PUBCHEM_MMFF94_ENERGY>
54.9412

> <PUBCHEM_FEATURE_SELFOVERLAP>
25.374

> <PUBCHEM_SHAPE_FINGERPRINT>
10 15 17821729437700466009
10074138 170 16226617410718726026
10299344 5 18060135427845402927
10319688 67 16298385794359044624
10411042 1 17905606602652476938
10595046 47 18341889675877060095
10673678 19 18343867727581648806
11273773 42 18342453798393379492
11315181 36 18343301449961957289
11374522 155 18042410286535780284
11456790 92 18187919557024335392
11578821 258 18411134694030042237
11719270 70 13190341245014538897
1200032 147 18260829341583150168
12035758 1 16805322214503595086
12522641 24 17604702249627770242
12592606 108 9007059067119584141
12730499 353 18187366480868755450
12760667 363 10159707905970127518
12821665 9 18340200911995406503
13668630 136 11167935858073608781
13685833 64 9943808889577643934
13690498 29 17344333695624176935
13914758 101 9007062374956552199
14142895 15 18411416250383121991
14216079 64 9943812183749137604
14394314 77 18341337708583159689
14461889 52 17313394430339285819
14565420 104 18040713654473720578
14617042 71 18410579491680196781
14849402 71 18412546548083911081
14856354 85 17131830976544961215
14919807 6 12894807882956602369
14931854 50 17917441973251348312
14933364 13 18412825772201657903
15183329 4 16845577525624611592
15188451 53 12035442840065412054
15276724 80 18340204081839519901
15419008 145 18116700834766678296
15475509 8 13973969800622641843
15685185 35 18266743674384647588
15728490 51 18336264639531571519
1577012 14 18343576356530666646
15840311 113 18410014303836934861
16126227 98 18339360867799722534
16994733 274 18409726249071047161
1768 4 18335424603103097601
17857418 61 8358258163717469126
18393751 57 17676485077411929050
18608769 82 18335983172379397939
19302320 297 18187080707326269620
20157964 124 18410856538861649130
2026 5 9583251529927947644
21033648 29 18264199396325337504
21298829 104 18339360872664876380
21304303 64 18335136526904071500
21307412 95 13038907776047736180
21521721 280 18408325462862537067
21585481 104 17131569271013245432
21585482 111 18263361404270590068
21641784 216 16415204429533222923
22224240 67 17748826319585048163
23389318 12 18341600548086260679
23522609 53 17775015544434742025
23576562 1 16055731301183116313
24771293 8 18114461253095369644
25269216 80 16916494991124943661
2747138 104 17603878775526774197
2838139 119 18335128792311023446
28498 318 10303816475575129211
3004659 81 11024104344008268710
306946 40 17313369116651259157
335352 9 18410578376053706310
34797466 226 18202286866157124807
3711267 37 17989495112422000641
397830 11 18114474434809164115
4073 2 18333733550019803483
4093350 32 17989211425926749422
4169191 19 18272087163688436997
4325135 7 18341611499445587375
437815 12 11312058755278521050
444735 82 18260833665719009749
445580 126 18412255143632636712
445580 167 18412818102096962319
474113 269 10809333464710056825
5080951 261 16371285649566018235
5104073 3 17024298627025314097
5265222 85 17488735821637558911
5372103 7 15983959619376602296
54076057 255 17917987274197174592
543368 44 18411416224449651365
5758199 1 18334294279358535679
5911458 16 18131638880370114457
59682541 35 17821452378514573249
6328613 192 18272932705161931121
6438161 24 8935000356590437788
9689198 14 18342461447529465357
9980921 177 18263905745395996336

> <PUBCHEM_SHAPE_MULTIPOLES>
533.59
25.65
2.8
0.99
12.98
0.18
-0.13
19.6
-0.93
-5.6
-0.16
1.13
-0.14
-0.79

> <PUBCHEM_SHAPE_SELFOVERLAP>
1163.677

> <PUBCHEM_SHAPE_VOLUME>
294.7

> <PUBCHEM_COORDINATE_TYPE>
2
5
10

$$$$
