26763546
  -OEChem-12032416123D

 69 73  0     1  0  0  0  0  0999 V2000
   -0.7068    3.6254    0.2252 S   0  0  0  0  0  0  0  0  0  0  0  0
    4.5089    4.6921   -0.0817 S   0  0  0  0  0  0  0  0  0  0  0  0
   -5.9232   -2.1647   -0.7175 O   0  0  0  0  0  0  0  0  0  0  0  0
   -6.5388   -0.4740    0.8657 O   0  0  0  0  0  0  0  0  0  0  0  0
    1.7982   -0.5963   -1.5475 O   0  0  0  0  0  0  0  0  0  0  0  0
    0.9998    1.7061   -0.0851 N   0  0  0  0  0  0  0  0  0  0  0  0
    3.0082   -1.8351    0.0010 N   0  0  0  0  0  0  0  0  0  0  0  0
   -1.9200   -0.7806    0.3151 C   0  0  2  0  0  0  0  0  0  0  0  0
   -2.9714    0.2306   -0.3233 C   0  0  1  0  0  0  0  0  0  0  0  0
   -4.4841   -0.2167   -0.3262 C   0  0  1  0  0  0  0  0  0  0  0  0
   -0.4611   -0.3484   -0.1725 C   0  0  1  0  0  0  0  0  0  0  0  0
   -2.2038   -2.2144   -0.2032 C   0  0  0  0  0  0  0  0  0  0  0  0
   -4.5830   -1.6860   -0.8258 C   0  0  1  0  0  0  0  0  0  0  0  0
   -2.7480    1.6826    0.1907 C   0  0  0  0  0  0  0  0  0  0  0  0
   -3.6597   -2.6394   -0.0756 C   0  0  0  0  0  0  0  0  0  0  0  0
   -1.9627   -0.7944    1.8629 C   0  0  0  0  0  0  0  0  0  0  0  0
   -0.2595    1.1382   -0.0290 C   0  0  0  0  0  0  0  0  0  0  0  0
   -5.2053   -0.0461    1.0292 C   0  0  0  0  0  0  0  0  0  0  0  0
   -5.2724    0.6680   -1.3331 C   0  0  0  0  0  0  0  0  0  0  0  0
   -1.3003    2.0329    0.1149 C   0  0  0  0  0  0  0  0  0  0  0  0
    0.6867   -1.1356    0.4741 C   0  0  0  0  0  0  0  0  0  0  0  0
    1.8760   -1.1595   -0.4527 C   0  0  0  0  0  0  0  0  0  0  0  0
    0.8864    3.0101    0.0460 C   0  0  0  0  0  0  0  0  0  0  0  0
    3.1308   -2.5137    1.2965 C   0  0  0  0  0  0  0  0  0  0  0  0
    4.2167   -1.8689   -0.8243 C   0  0  0  0  0  0  0  0  0  0  0  0
    2.0676    3.9009    0.0373 C   0  0  0  0  0  0  0  0  0  0  0  0
    3.5707   -3.9647    1.1083 C   0  0  0  0  0  0  0  0  0  0  0  0
    4.6773   -3.3058   -1.0578 C   0  0  0  0  0  0  0  0  0  0  0  0
    4.8560   -4.0549    0.2715 C   0  0  0  0  0  0  0  0  0  0  0  0
    5.2438   -5.5112    0.0269 C   0  0  0  0  0  0  0  0  0  0  0  0
    2.0305    5.3188    0.1731 C   0  0  0  0  0  0  0  0  0  0  0  0
    3.3534    3.4287   -0.1089 C   0  0  0  0  0  0  0  0  0  0  0  0
    3.2893    5.8760    0.1259 C   0  0  0  0  0  0  0  0  0  0  0  0
   -2.6991    0.2557   -1.3929 H   0  0  0  0  0  0  0  0  0  0  0  0
   -0.4659   -0.5334   -1.2570 H   0  0  0  0  0  0  0  0  0  0  0  0
   -1.5893   -2.9498    0.3283 H   0  0  0  0  0  0  0  0  0  0  0  0
   -1.9194   -2.2862   -1.2614 H   0  0  0  0  0  0  0  0  0  0  0  0
   -4.3230   -1.7177   -1.8922 H   0  0  0  0  0  0  0  0  0  0  0  0
   -3.0873    1.7880    1.2266 H   0  0  0  0  0  0  0  0  0  0  0  0
   -3.3215    2.3899   -0.4175 H   0  0  0  0  0  0  0  0  0  0  0  0
   -3.7753   -3.6514   -0.4847 H   0  0  0  0  0  0  0  0  0  0  0  0
   -3.9598   -2.7242    0.9747 H   0  0  0  0  0  0  0  0  0  0  0  0
   -1.7682    0.1902    2.2973 H   0  0  0  0  0  0  0  0  0  0  0  0
   -1.2087   -1.4750    2.2738 H   0  0  0  0  0  0  0  0  0  0  0  0
   -2.9115   -1.1497    2.2597 H   0  0  0  0  0  0  0  0  0  0  0  0
   -5.2184    0.9985    1.3547 H   0  0  0  0  0  0  0  0  0  0  0  0
   -4.7705   -0.6493    1.8220 H   0  0  0  0  0  0  0  0  0  0  0  0
   -6.2891    0.2983   -1.5072 H   0  0  0  0  0  0  0  0  0  0  0  0
   -4.7740    0.6903   -2.3092 H   0  0  0  0  0  0  0  0  0  0  0  0
   -5.3627    1.7018   -0.9837 H   0  0  0  0  0  0  0  0  0  0  0  0
    0.3984   -2.1774    0.6386 H   0  0  0  0  0  0  0  0  0  0  0  0
    0.9785   -0.6889    1.4315 H   0  0  0  0  0  0  0  0  0  0  0  0
   -5.9449   -3.0655   -1.0831 H   0  0  0  0  0  0  0  0  0  0  0  0
   -6.9884   -0.3545    1.7195 H   0  0  0  0  0  0  0  0  0  0  0  0
    2.1997   -2.4920    1.8648 H   0  0  0  0  0  0  0  0  0  0  0  0
    3.8774   -1.9621    1.8803 H   0  0  0  0  0  0  0  0  0  0  0  0
    4.9900   -1.2985   -0.2963 H   0  0  0  0  0  0  0  0  0  0  0  0
    4.0464   -1.3751   -1.7862 H   0  0  0  0  0  0  0  0  0  0  0  0
    5.6697   -3.5765    0.8328 H   0  0  0  0  0  0  0  0  0  0  0  0
    3.7265   -4.4295    2.0889 H   0  0  0  0  0  0  0  0  0  0  0  0
    2.7667   -4.5221    0.6104 H   0  0  0  0  0  0  0  0  0  0  0  0
    3.9349   -3.8260   -1.6769 H   0  0  0  0  0  0  0  0  0  0  0  0
    5.6194   -3.3017   -1.6182 H   0  0  0  0  0  0  0  0  0  0  0  0
    4.4661   -6.0428   -0.5320 H   0  0  0  0  0  0  0  0  0  0  0  0
    5.3977   -6.0361    0.9755 H   0  0  0  0  0  0  0  0  0  0  0  0
    6.1750   -5.5735   -0.5460 H   0  0  0  0  0  0  0  0  0  0  0  0
    1.1421    5.9242    0.3001 H   0  0  0  0  0  0  0  0  0  0  0  0
    3.6834    2.4058   -0.2314 H   0  0  0  0  0  0  0  0  0  0  0  0
    3.5513    6.9219    0.2032 H   0  0  0  0  0  0  0  0  0  0  0  0
  1 20  1  0  0  0  0
  1 23  1  0  0  0  0
  2 32  1  0  0  0  0
  2 33  1  0  0  0  0
  3 13  1  0  0  0  0
  3 53  1  0  0  0  0
  4 18  1  0  0  0  0
  4 54  1  0  0  0  0
  5 22  2  0  0  0  0
  6 17  1  0  0  0  0
  6 23  2  0  0  0  0
  7 22  1  0  0  0  0
  7 24  1  0  0  0  0
  7 25  1  0  0  0  0
  8  9  1  0  0  0  0
  8 11  1  0  0  0  0
  8 12  1  0  0  0  0
  8 16  1  0  0  0  0
  9 10  1  0  0  0  0
  9 14  1  0  0  0  0
  9 34  1  0  0  0  0
 10 13  1  0  0  0  0
 10 18  1  0  0  0  0
 10 19  1  0  0  0  0
 11 17  1  0  0  0  0
 11 21  1  0  0  0  0
 11 35  1  0  0  0  0
 12 15  1  0  0  0  0
 12 36  1  0  0  0  0
 12 37  1  0  0  0  0
 13 15  1  0  0  0  0
 13 38  1  0  0  0  0
 14 20  1  0  0  0  0
 14 39  1  0  0  0  0
 14 40  1  0  0  0  0
 15 41  1  0  0  0  0
 15 42  1  0  0  0  0
 16 43  1  0  0  0  0
 16 44  1  0  0  0  0
 16 45  1  0  0  0  0
 17 20  2  0  0  0  0
 18 46  1  0  0  0  0
 18 47  1  0  0  0  0
 19 48  1  0  0  0  0
 19 49  1  0  0  0  0
 19 50  1  0  0  0  0
 21 22  1  0  0  0  0
 21 51  1  0  0  0  0
 21 52  1  0  0  0  0
 23 26  1  0  0  0  0
 24 27  1  0  0  0  0
 24 55  1  0  0  0  0
 24 56  1  0  0  0  0
 25 28  1  0  0  0  0
 25 57  1  0  0  0  0
 25 58  1  0  0  0  0
 26 31  1  0  0  0  0
 26 32  2  0  0  0  0
 27 29  1  0  0  0  0
 27 60  1  0  0  0  0
 27 61  1  0  0  0  0
 28 29  1  0  0  0  0
 28 62  1  0  0  0  0
 28 63  1  0  0  0  0
 29 30  1  0  0  0  0
 29 59  1  0  0  0  0
 30 64  1  0  0  0  0
 30 65  1  0  0  0  0
 30 66  1  0  0  0  0
 31 33  2  0  0  0  0
 31 67  1  0  0  0  0
 32 68  1  0  0  0  0
 33 69  1  0  0  0  0
M  END
> <PUBCHEM_COMPOUND_CID>
26763546

> <PUBCHEM_CONFORMER_RMSD>
1

> <PUBCHEM_CONFORMER_DIVERSEORDER>
1
18
12
28
19
14
8
15
20
3
27
21
22
7
16
17
5
25
10
24
4
26
9
13
6
11
2
23

> <PUBCHEM_MMFF94_PARTIAL_CHARGES>
26
1 -0.08
11 0.18
13 0.28
14 0.18
17 0.05
18 0.28
2 -0.08
20 -0.14
21 0.06
22 0.57
23 0.38
24 0.3
25 0.3
3 -0.68
31 -0.15
32 -0.11
33 -0.11
4 -0.68
5 -0.57
53 0.4
54 0.4
6 -0.57
67 0.15
68 0.15
69 0.15
7 -0.66

> <PUBCHEM_EFFECTIVE_ROTOR_COUNT>
7.4

> <PUBCHEM_PHARMACOPHORE_FEATURES>
11
1 3 acceptor
1 3 donor
1 4 acceptor
1 4 donor
1 5 acceptor
1 6 acceptor
5 1 6 17 20 23 rings
5 2 26 31 32 33 rings
6 7 24 25 27 28 29 rings
6 8 9 10 12 13 15 rings
6 8 9 11 14 17 20 rings

> <PUBCHEM_HEAVY_ATOM_COUNT>
33

> <PUBCHEM_ATOM_DEF_STEREO_COUNT>
5

> <PUBCHEM_ATOM_UDEF_STEREO_COUNT>
0

> <PUBCHEM_BOND_DEF_STEREO_COUNT>
0

> <PUBCHEM_BOND_UDEF_STEREO_COUNT>
0

> <PUBCHEM_ISOTOPIC_ATOM_COUNT>
0

> <PUBCHEM_COMPONENT_COUNT>
1

> <PUBCHEM_CACTVS_TAUTO_COUNT>
1

> <PUBCHEM_CONFORMER_ID>
0198611A00000001

> <PUBCHEM_MMFF94_ENERGY>
91.2975

> <PUBCHEM_FEATURE_SELFOVERLAP>
55.971

> <PUBCHEM_SHAPE_FINGERPRINT>
10050765 1 18410854400384283997
10411042 1 18266741277127686594
10622 236 17843661474373357615
1100329 8 18195249910520562425
11056379 131 17619069430771311694
11135926 11 18267580402479950557
11578080 2 17678151915575572365
11763715 3 18121238488878164614
11991303 11 17251737362092425588
12107183 9 18199200499181046457
12160290 23 17252333924026998756
12788726 201 17828482462241502554
13540713 4 18114459059406070383
13757389 114 17330284870894734206
138480 1 18410855443528944064
14150023 79 18049718813006702030
14394314 77 18194684769758858339
14790565 3 17834114525871593453
14844126 61 17832149320666258386
15042514 8 18050851013630775530
15200665 1 16969985346963714392
15320294 125 17900517268307032008
15400415 2 17834393801698655876
15439362 3 18337668736974951413
15664445 248 18271258165843080214
15775530 1 17463431738260885402
15815584 197 17978250552927471820
15876981 60 17902524688152939596
15927050 60 18052541259434831087
16087824 20 17689996735757862197
16719943 64 17689994961619325176
20775438 99 18048299326954742607
21033650 10 17400108291776282814
21133665 82 17980204412031874452
21796203 349 17905649594161163707
21927370 108 18123486993945570818
22311459 1 18410575132604506120
23366157 5 18335705000048148837
23559900 14 18410566275943884067
244849 19 17896336864218638395
24771750 20 18044669830354179140
255183 313 17408255667793381497
3298306 158 18051695735093382612
3383291 50 17618781805354162096
3418910 222 18265896862064057442
38695281 34 17905604759229798560
4017518 198 17978795941772970012
4058900 60 17976828906031500672
4409770 3 17614278862366183789
463206 1 18334298634772859635
5171179 24 18337383851435875493
5385378 56 18267311009235759009
563151 97 17979915239871551053
6058803 2 18201725102421421449
6669772 16 18193275410526158255
6673363 416 18196102054577577150
6679774 75 18048857879266738000
6700243 42 17556042198915616630
77188 2 18338515223415428564
79837 15 17328867007088990746
9896288 288 17113265434272200928
9981440 41 17758678132405383273

> <PUBCHEM_SHAPE_MULTIPOLES>
659.25
12.43
8.72
1.09
9.28
6.74
-0.12
-10.65
1.07
-20
-0.53
0.31
-0.6
-0.32

> <PUBCHEM_SHAPE_SELFOVERLAP>
1384.375

> <PUBCHEM_SHAPE_VOLUME>
375.6

> <PUBCHEM_COORDINATE_TYPE>
2
5
10

$$$$
