75536855
  -OEChem-12032416303D

 41 43  0     1  0  0  0  0  0999 V2000
   -0.9093   -2.7128   -0.7198 O   0  0  0  0  0  0  0  0  0  0  0  0
   -1.4321    0.8622   -0.4346 O   0  0  0  0  0  0  0  0  0  0  0  0
    3.6734   -2.0662    0.6537 O   0  0  0  0  0  0  0  0  0  0  0  0
    1.4969   -1.1987    0.5995 N   0  0  0  0  0  0  0  0  0  0  0  0
   -3.5147   -0.1266   -0.1927 N   0  0  0  0  0  0  0  0  0  0  0  0
    3.2697    1.1833    1.0304 N   0  0  0  0  0  0  0  0  0  0  0  0
    4.8335    1.5291   -1.2720 N   0  0  0  0  0  0  0  0  0  0  0  0
   -0.8331   -0.3717   -0.0362 C   0  0  2  0  0  0  0  0  0  0  0  0
    0.6107   -0.0530    0.3624 C   0  0  0  0  0  0  0  0  0  0  0  0
    0.8909   -2.4909    0.9245 C   0  0  0  0  0  0  0  0  0  0  0  0
   -0.9325   -1.3683   -1.1892 C   0  0  0  0  0  0  0  0  0  0  0  0
    0.3758   -3.1851   -0.3298 C   0  0  0  0  0  0  0  0  0  0  0  0
    2.8958   -1.1258    0.4946 C   0  0  0  0  0  0  0  0  0  0  0  0
   -2.7694    1.0012   -0.1842 C   0  0  0  0  0  0  0  0  0  0  0  0
    3.5047    0.1735    0.1690 C   0  0  0  0  0  0  0  0  0  0  0  0
   -3.2794    2.2663    0.0588 C   0  0  0  0  0  0  0  0  0  0  0  0
    4.2727    0.3435   -0.9620 C   0  0  0  0  0  0  0  0  0  0  0  0
   -4.8351    0.0244    0.0549 C   0  0  0  0  0  0  0  0  0  0  0  0
   -4.6423    2.3813    0.3095 C   0  0  0  0  0  0  0  0  0  0  0  0
   -5.4420    1.2438    0.3094 C   0  0  0  0  0  0  0  0  0  0  0  0
   -5.6634   -1.2169    0.0441 C   0  0  0  0  0  0  0  0  0  0  0  0
    3.8306    2.3688    0.7202 C   0  0  0  0  0  0  0  0  0  0  0  0
    4.5986    2.5388   -0.4106 C   0  0  0  0  0  0  0  0  0  0  0  0
   -1.3390   -0.7706    0.8543 H   0  0  0  0  0  0  0  0  0  0  0  0
    1.0529    0.5894   -0.4083 H   0  0  0  0  0  0  0  0  0  0  0  0
    0.6023    0.5442    1.2830 H   0  0  0  0  0  0  0  0  0  0  0  0
    0.1018   -2.3347    1.6673 H   0  0  0  0  0  0  0  0  0  0  0  0
    1.6511   -3.1293    1.3877 H   0  0  0  0  0  0  0  0  0  0  0  0
   -1.8706   -1.2497   -1.7398 H   0  0  0  0  0  0  0  0  0  0  0  0
   -0.1401   -1.2088   -1.9317 H   0  0  0  0  0  0  0  0  0  0  0  0
    1.0760   -3.1037   -1.1694 H   0  0  0  0  0  0  0  0  0  0  0  0
    0.2514   -4.2513   -0.1123 H   0  0  0  0  0  0  0  0  0  0  0  0
   -2.6420    3.1437    0.0553 H   0  0  0  0  0  0  0  0  0  0  0  0
    4.4644   -0.4620   -1.6612 H   0  0  0  0  0  0  0  0  0  0  0  0
   -5.0803    3.3555    0.5044 H   0  0  0  0  0  0  0  0  0  0  0  0
   -6.5064    1.3209    0.5032 H   0  0  0  0  0  0  0  0  0  0  0  0
   -6.4367   -1.1520   -0.7278 H   0  0  0  0  0  0  0  0  0  0  0  0
   -5.0482   -2.0978   -0.1673 H   0  0  0  0  0  0  0  0  0  0  0  0
   -6.1407   -1.3647    1.0180 H   0  0  0  0  0  0  0  0  0  0  0  0
    3.6419    3.1806    1.4117 H   0  0  0  0  0  0  0  0  0  0  0  0
    5.0487    3.4919   -0.6592 H   0  0  0  0  0  0  0  0  0  0  0  0
  1 11  1  0  0  0  0
  1 12  1  0  0  0  0
  2  8  1  0  0  0  0
  2 14  1  0  0  0  0
  3 13  2  0  0  0  0
  4  9  1  0  0  0  0
  4 10  1  0  0  0  0
  4 13  1  0  0  0  0
  5 14  1  0  0  0  0
  5 18  2  0  0  0  0
  6 15  2  0  0  0  0
  6 22  1  0  0  0  0
  7 17  2  0  0  0  0
  7 23  1  0  0  0  0
  8  9  1  0  0  0  0
  8 11  1  0  0  0  0
  8 24  1  0  0  0  0
  9 25  1  0  0  0  0
  9 26  1  0  0  0  0
 10 12  1  0  0  0  0
 10 27  1  0  0  0  0
 10 28  1  0  0  0  0
 11 29  1  0  0  0  0
 11 30  1  0  0  0  0
 12 31  1  0  0  0  0
 12 32  1  0  0  0  0
 13 15  1  0  0  0  0
 14 16  2  0  0  0  0
 15 17  1  0  0  0  0
 16 19  1  0  0  0  0
 16 33  1  0  0  0  0
 17 34  1  0  0  0  0
 18 20  1  0  0  0  0
 18 21  1  0  0  0  0
 19 20  2  0  0  0  0
 19 35  1  0  0  0  0
 20 36  1  0  0  0  0
 21 37  1  0  0  0  0
 21 38  1  0  0  0  0
 21 39  1  0  0  0  0
 22 23  2  0  0  0  0
 22 40  1  0  0  0  0
 23 41  1  0  0  0  0
M  END
> <PUBCHEM_COMPOUND_CID>
75536855

> <PUBCHEM_CONFORMER_RMSD>
1

> <PUBCHEM_CONFORMER_DIVERSEORDER>
1
118
156
64
164
85
37
109
166
24
36
32
116
23
72
125
78
168
80
86
128
149
136
4
159
39
144
172
87
100
69
134
97
148
34
153
154
79
49
114
31
107
111
71
88
82
30
123
140
5
141
55
15
171
133
93
105
151
173
6
46
139
66
143
162
165
50
81
126
161
113
112
17
110
65
108
167
129
2
138
90
43
89
67
94
53
74
124
96
22
137
101
163
12
91
155
99
60
35
25
120
158
135
58
54
61
13
26
40
170
42
51
127
142
20
98
38
41
84
7
27
106
48
56
115
95
68
11
10
122
76
8
75
3
102
121
117
19
70
150
45
44
145
52
62
146
18
63
132
73
160
83
14
21
119
147
47
104
9
103
28
59
16
77
157
152
131
29
57
169
33
92
130

> <PUBCHEM_MMFF94_PARTIAL_CHARGES>
29
1 -0.56
10 0.3
11 0.28
12 0.28
13 0.54
14 0.39
15 0.4
16 -0.15
17 0.16
18 0.17
19 -0.15
2 -0.36
20 -0.15
21 0.14
22 0.16
23 0.16
3 -0.57
33 0.15
34 0.15
35 0.15
36 0.15
4 -0.66
40 0.15
41 0.15
5 -0.62
6 -0.62
7 -0.62
8 0.28
9 0.3

> <PUBCHEM_EFFECTIVE_ROTOR_COUNT>
5.4

> <PUBCHEM_PHARMACOPHORE_FEATURES>
9
1 1 acceptor
1 2 acceptor
1 3 acceptor
1 5 acceptor
1 6 acceptor
1 7 acceptor
6 5 14 16 18 19 20 rings
6 6 7 15 17 22 23 rings
7 1 4 8 9 10 11 12 rings

> <PUBCHEM_HEAVY_ATOM_COUNT>
23

> <PUBCHEM_ATOM_DEF_STEREO_COUNT>
1

> <PUBCHEM_ATOM_UDEF_STEREO_COUNT>
0

> <PUBCHEM_BOND_DEF_STEREO_COUNT>
0

> <PUBCHEM_BOND_UDEF_STEREO_COUNT>
0

> <PUBCHEM_ISOTOPIC_ATOM_COUNT>
0

> <PUBCHEM_COMPONENT_COUNT>
1

> <PUBCHEM_CACTVS_TAUTO_COUNT>
1

> <PUBCHEM_CONFORMER_ID>
048099D700000001

> <PUBCHEM_MMFF94_ENERGY>
76.4376

> <PUBCHEM_FEATURE_SELFOVERLAP>
45.727

> <PUBCHEM_SHAPE_FINGERPRINT>
10493431 412 18337387257275992636
10670039 82 18335989701030914220
10906281 52 18059017152149407189
11488393 25 17844268240855060567
11720765 8 17559966416281736060
12173636 292 18341040925867323598
12403259 118 18264192630781025513
12788726 201 17323538743718345374
14251764 75 18340217357103773792
14257110 125 18334860567023928540
14528608 73 18411136939700780077
1454969 45 18342454894385649135
146900 427 18412551989891260905
14787075 74 18342172297984461619
14790565 3 18412546522213230693
14840074 17 17313673762159081492
14955137 171 18121208784863824730
15342168 16 17968381242473455964
17349148 13 12324247127000904689
17844677 252 18339648828419747273
17980427 23 17984105315903730482
18681886 176 18269547257125762002
18785283 64 18263923246391135994
20465049 17 18339092493006320238
21709351 56 18193266408301300655
21756936 100 18270673285691160436
22620623 9 17201913945529473815
23227448 37 18197497526734791068
23559900 14 17982163418985737419
245318 6 17606138383227618332
25147074 1 18264188349158119338
2637199 183 18341616992782514414
350125 39 18335980862087737124
38570 142 17677629691024043956
394222 165 18335414621683504994
474 4 17968098650662940164
5048184 11 18410011082875654484
5104073 3 18333732377862315201
5312544 6 18409446964274053098
633830 44 18272084955341614999
6442390 28 18409449210605603138
7288768 16 17895471556978216778
7808743 9 18266175222435370664
8988823 20 13334739076029223190
960060 61 12463287042301612816
9999458 23 18189336779909409494

> <PUBCHEM_SHAPE_MULTIPOLES>
435.8
12.45
3.4
0.96
6.46
0.89
-0.09
-7.98
-0.2
-1.17
0.08
-0.74
0.07
-0.87

> <PUBCHEM_SHAPE_SELFOVERLAP>
926.819

> <PUBCHEM_SHAPE_VOLUME>
237.7

> <PUBCHEM_COORDINATE_TYPE>
2
5
10

$$$$
