11912477
  -OEChem-12032416113D

 60 62  0     1  0  0  0  0  0999 V2000
    6.0432   -2.4889    1.6636 F   0  0  0  0  0  0  0  0  0  0  0  0
    6.5335   -3.1443   -0.3449 F   0  0  0  0  0  0  0  0  0  0  0  0
    4.5418   -3.4948    0.4543 F   0  0  0  0  0  0  0  0  0  0  0  0
    2.6753    3.4876   -0.3241 O   0  0  0  0  0  0  0  0  0  0  0  0
   -4.4598    1.3985    1.2715 O   0  0  0  0  0  0  0  0  0  0  0  0
    0.7073    2.7906    0.6678 N   0  0  0  0  0  0  0  0  0  0  0  0
   -5.0476    0.6817   -0.8597 N   0  0  0  0  0  0  0  0  0  0  0  0
    2.6057    1.3909    0.6660 N   0  0  0  0  0  0  0  0  0  0  0  0
   -2.1467    2.6973    0.1972 C   0  0  1  0  0  0  0  0  0  0  0  0
   -1.3636    1.4283    0.6266 C   0  0  2  0  0  0  0  0  0  0  0  0
   -1.2386    3.7163   -0.5150 C   0  0  0  0  0  0  0  0  0  0  0  0
   -0.1177    1.8402    1.4287 C   0  0  0  0  0  0  0  0  0  0  0  0
    0.0103    4.0265    0.3092 C   0  0  0  0  0  0  0  0  0  0  0  0
   -0.9727    0.5115   -0.5382 C   0  0  0  0  0  0  0  0  0  0  0  0
   -3.3766    2.3839   -0.6542 C   0  0  0  0  0  0  0  0  0  0  0  0
   -0.2969   -0.7486   -0.0395 C   0  0  0  0  0  0  0  0  0  0  0  0
    2.0582    2.6193    0.2980 C   0  0  0  0  0  0  0  0  0  0  0  0
   -4.3389    1.4522    0.0506 C   0  0  0  0  0  0  0  0  0  0  0  0
   -6.0346   -0.2974   -0.4659 C   0  0  0  0  0  0  0  0  0  0  0  0
    3.6324    0.6740    0.0028 C   0  0  0  0  0  0  0  0  0  0  0  0
   -5.4277   -1.6547   -0.2576 C   0  0  0  0  0  0  0  0  0  0  0  0
    4.0667   -0.5513    0.5088 C   0  0  0  0  0  0  0  0  0  0  0  0
    4.2088    1.1936   -1.1563 C   0  0  0  0  0  0  0  0  0  0  0  0
    5.0772   -1.2569   -0.1446 C   0  0  0  0  0  0  0  0  0  0  0  0
   -5.3437   -2.5520   -1.3223 C   0  0  0  0  0  0  0  0  0  0  0  0
   -4.9471   -2.0184    1.0005 C   0  0  0  0  0  0  0  0  0  0  0  0
    5.2194    0.4879   -1.8093 C   0  0  0  0  0  0  0  0  0  0  0  0
    5.6536   -0.7371   -1.3035 C   0  0  0  0  0  0  0  0  0  0  0  0
    5.5412   -2.5670    0.3957 C   0  0  0  0  0  0  0  0  0  0  0  0
   -4.7796   -3.8130   -1.1289 C   0  0  0  0  0  0  0  0  0  0  0  0
   -4.3830   -3.2794    1.1937 C   0  0  0  0  0  0  0  0  0  0  0  0
   -4.2993   -4.1766    0.1289 C   0  0  0  0  0  0  0  0  0  0  0  0
   -2.4981    3.1796    1.1218 H   0  0  0  0  0  0  0  0  0  0  0  0
   -1.9944    0.8449    1.3092 H   0  0  0  0  0  0  0  0  0  0  0  0
   -0.9380    3.3257   -1.4952 H   0  0  0  0  0  0  0  0  0  0  0  0
   -1.7899    4.6460   -0.6989 H   0  0  0  0  0  0  0  0  0  0  0  0
   -0.4344    2.3704    2.3371 H   0  0  0  0  0  0  0  0  0  0  0  0
    0.4314    0.9734    1.7886 H   0  0  0  0  0  0  0  0  0  0  0  0
   -0.2603    4.5369    1.2411 H   0  0  0  0  0  0  0  0  0  0  0  0
    0.6627    4.7009   -0.2538 H   0  0  0  0  0  0  0  0  0  0  0  0
   -0.3172    1.0198   -1.2534 H   0  0  0  0  0  0  0  0  0  0  0  0
   -1.8662    0.2027   -1.0904 H   0  0  0  0  0  0  0  0  0  0  0  0
   -3.9292    3.3102   -0.8575 H   0  0  0  0  0  0  0  0  0  0  0  0
   -3.0828    1.9787   -1.6288 H   0  0  0  0  0  0  0  0  0  0  0  0
    0.7154   -0.5725    0.3260 H   0  0  0  0  0  0  0  0  0  0  0  0
   -0.2087   -1.4667   -0.8624 H   0  0  0  0  0  0  0  0  0  0  0  0
   -0.8778   -1.2304    0.7538 H   0  0  0  0  0  0  0  0  0  0  0  0
   -4.8704    0.7918   -1.8538 H   0  0  0  0  0  0  0  0  0  0  0  0
    2.2425    0.9279    1.4908 H   0  0  0  0  0  0  0  0  0  0  0  0
   -6.5378    0.0396    0.4482 H   0  0  0  0  0  0  0  0  0  0  0  0
   -6.7961   -0.3331   -1.2533 H   0  0  0  0  0  0  0  0  0  0  0  0
    3.6189   -0.9601    1.4119 H   0  0  0  0  0  0  0  0  0  0  0  0
    3.8986    2.1236   -1.6155 H   0  0  0  0  0  0  0  0  0  0  0  0
   -5.7126   -2.2798   -2.3077 H   0  0  0  0  0  0  0  0  0  0  0  0
   -5.0076   -1.3309    1.8396 H   0  0  0  0  0  0  0  0  0  0  0  0
    5.6643    0.8888   -2.7155 H   0  0  0  0  0  0  0  0  0  0  0  0
    6.4407   -1.2724   -1.8272 H   0  0  0  0  0  0  0  0  0  0  0  0
   -4.7137   -4.5114   -1.9581 H   0  0  0  0  0  0  0  0  0  0  0  0
   -4.0088   -3.5628    2.1731 H   0  0  0  0  0  0  0  0  0  0  0  0
   -3.8597   -5.1583    0.2794 H   0  0  0  0  0  0  0  0  0  0  0  0
  1 29  1  0  0  0  0
  2 29  1  0  0  0  0
  3 29  1  0  0  0  0
  4 17  2  0  0  0  0
  5 18  2  0  0  0  0
  6 12  1  0  0  0  0
  6 13  1  0  0  0  0
  6 17  1  0  0  0  0
  7 18  1  0  0  0  0
  7 19  1  0  0  0  0
  7 48  1  0  0  0  0
  8 17  1  0  0  0  0
  8 20  1  0  0  0  0
  8 49  1  0  0  0  0
  9 10  1  0  0  0  0
  9 11  1  0  0  0  0
  9 15  1  0  0  0  0
  9 33  1  0  0  0  0
 10 12  1  0  0  0  0
 10 14  1  0  0  0  0
 10 34  1  0  0  0  0
 11 13  1  0  0  0  0
 11 35  1  0  0  0  0
 11 36  1  0  0  0  0
 12 37  1  0  0  0  0
 12 38  1  0  0  0  0
 13 39  1  0  0  0  0
 13 40  1  0  0  0  0
 14 16  1  0  0  0  0
 14 41  1  0  0  0  0
 14 42  1  0  0  0  0
 15 18  1  0  0  0  0
 15 43  1  0  0  0  0
 15 44  1  0  0  0  0
 16 45  1  0  0  0  0
 16 46  1  0  0  0  0
 16 47  1  0  0  0  0
 19 21  1  0  0  0  0
 19 50  1  0  0  0  0
 19 51  1  0  0  0  0
 20 22  1  0  0  0  0
 20 23  2  0  0  0  0
 21 25  2  0  0  0  0
 21 26  1  0  0  0  0
 22 24  2  0  0  0  0
 22 52  1  0  0  0  0
 23 27  1  0  0  0  0
 23 53  1  0  0  0  0
 24 28  1  0  0  0  0
 24 29  1  0  0  0  0
 25 30  1  0  0  0  0
 25 54  1  0  0  0  0
 26 31  2  0  0  0  0
 26 55  1  0  0  0  0
 27 28  2  0  0  0  0
 27 56  1  0  0  0  0
 28 57  1  0  0  0  0
 30 32  2  0  0  0  0
 30 58  1  0  0  0  0
 31 32  1  0  0  0  0
 31 59  1  0  0  0  0
 32 60  1  0  0  0  0
M  END
> <PUBCHEM_COMPOUND_CID>
11912477

> <PUBCHEM_CONFORMER_RMSD>
1.4

> <PUBCHEM_CONFORMER_DIVERSEORDER>
2
36
70
66
72
104
78
112
50
6
27
90
103
69
30
67
105
114
47
86
100
24
58
57
85
13
4
59
92
65
7
10
115
73
106
96
71
81
113
48
98
102
68
99
18
20
107
46
76
34
77
82
79
43
111
52
108
56
74
101
37
23
64
83
54
110
44
29
91
61
28
15
88
94
33
95
40
53
35
41
93
12
1
39
32
60
38
31
84
9
97
3
49
109
5
45
63
19
62
42
87
55
75
8
80
22
89
14
26
17
25
51
11
21
16

> <PUBCHEM_MMFF94_PARTIAL_CHARGES>
38
1 -0.34
12 0.3
13 0.3
15 0.06
17 0.69
18 0.57
19 0.44
2 -0.34
20 0.12
21 -0.14
22 -0.15
23 -0.15
24 -0.14
25 -0.15
26 -0.15
27 -0.15
28 -0.15
29 1.16
3 -0.34
30 -0.15
31 -0.15
32 -0.15
4 -0.57
48 0.37
49 0.37
5 -0.57
52 0.15
53 0.15
54 0.15
55 0.15
56 0.15
57 0.15
58 0.15
59 0.15
6 -0.66
60 0.15
7 -0.73
8 -0.55

> <PUBCHEM_EFFECTIVE_ROTOR_COUNT>
11.2

> <PUBCHEM_PHARMACOPHORE_FEATURES>
8
1 16 hydrophobe
1 4 acceptor
1 5 acceptor
1 7 donor
1 8 donor
6 20 22 23 24 27 28 rings
6 21 25 26 30 31 32 rings
6 6 9 10 11 12 13 rings

> <PUBCHEM_HEAVY_ATOM_COUNT>
32

> <PUBCHEM_ATOM_DEF_STEREO_COUNT>
2

> <PUBCHEM_ATOM_UDEF_STEREO_COUNT>
0

> <PUBCHEM_BOND_DEF_STEREO_COUNT>
0

> <PUBCHEM_BOND_UDEF_STEREO_COUNT>
0

> <PUBCHEM_ISOTOPIC_ATOM_COUNT>
0

> <PUBCHEM_COMPONENT_COUNT>
1

> <PUBCHEM_CACTVS_TAUTO_COUNT>
4

> <PUBCHEM_CONFORMER_ID>
00B5C51D00000002

> <PUBCHEM_MMFF94_ENERGY>
72.4871

> <PUBCHEM_FEATURE_SELFOVERLAP>
40.596

> <PUBCHEM_SHAPE_FINGERPRINT>
10622 236 18187921717303369986
10838868 158 17682130103269326875
11135609 99 18410853219105267102
11136131 41 18049148171263167808
117089 54 18339645645659628999
11756154 67 18339645538622530750
12422481 6 17131564919873154789
12717326 69 18195223720099187736
131258 38 18334846243503038630
13165053 137 17764866888606894763
1361 4 18412546488270282526
13690498 29 18186520986734379509
14040221 299 18200037231197017151
14150023 24 17837498449812273209
15019793 15 18124874809511634711
15684393 108 17749966569062120175
15728490 83 18337117881908282339
19246450 95 11453673516800441404
19301676 85 18337946797753946527
21599406 157 17458623475217959343
23379529 103 18266177417327026761
23559900 14 18338791338595012577
25222932 49 18270684306804329612
2838139 119 10953737837092321360
32027 91 18341603841872800633
373842 8 18270400477711449566
437795 163 18408606985679518934
4440575 13 18042678413566264810
463206 1 18339081488556133872
50009960 94 18265026146948211738
5104073 3 17918277571290594361
7970288 3 18339358570055425168
8863177 126 18343301512973105924
9511036 111 17972300843056851426

> <PUBCHEM_SHAPE_MULTIPOLES>
610.04
17.28
6.01
1.29
5.98
1.2
0.07
19.56
2.7
-1.65
-0.56
0.31
0.36
-1.12

> <PUBCHEM_SHAPE_SELFOVERLAP>
1284.224

> <PUBCHEM_SHAPE_VOLUME>
342

> <PUBCHEM_COORDINATE_TYPE>
2
5
10

$$$$
