71694382
  -OEChem-12032416203D

 46 48  0     0  0  0  0  0  0999 V2000
    1.0513    1.8702   -1.4576 O   0  0  0  0  0  0  0  0  0  0  0  0
    3.6766   -0.0692    1.4599 O   0  0  0  0  0  0  0  0  0  0  0  0
    5.5583    0.2667   -1.2018 O   0  0  0  0  0  0  0  0  0  0  0  0
   -1.6449    1.5952    0.2037 N   0  0  0  0  0  0  0  0  0  0  0  0
   -5.0827   -0.8300   -0.3997 N   0  0  0  0  0  0  0  0  0  0  0  0
    2.4116    0.4236    1.7561 N   0  0  0  0  0  0  0  0  0  0  0  0
   -0.2746    1.1031    0.0323 C   0  0  0  0  0  0  0  0  0  0  0  0
   -2.5562    0.4591    0.3205 C   0  0  0  0  0  0  0  0  0  0  0  0
    0.6566    2.3117   -0.1317 C   0  0  0  0  0  0  0  0  0  0  0  0
   -0.0166    0.8861   -1.4648 C   0  0  0  0  0  0  0  0  0  0  0  0
    0.0956    0.0199    1.0119 C   0  0  0  0  0  0  0  0  0  0  0  0
   -3.8952    0.8903    0.9258 C   0  0  0  0  0  0  0  0  0  0  0  0
   -2.7851   -0.1797   -1.0517 C   0  0  0  0  0  0  0  0  0  0  0  0
   -4.8883   -0.2746    0.9469 C   0  0  0  0  0  0  0  0  0  0  0  0
   -3.8143   -1.3099   -0.9659 C   0  0  0  0  0  0  0  0  0  0  0  0
    1.5809   -0.2558    0.9603 C   0  0  0  0  0  0  0  0  0  0  0  0
   -6.0707   -1.9080   -0.3709 C   0  0  0  0  0  0  0  0  0  0  0  0
    2.2579   -1.1818    0.1480 C   0  0  0  0  0  0  0  0  0  0  0  0
    3.5721   -1.0245    0.5010 C   0  0  0  0  0  0  0  0  0  0  0  0
    4.8237   -1.6560    0.0661 C   0  0  0  0  0  0  0  0  0  0  0  0
    5.3440   -1.1363   -1.2882 C   0  0  0  0  0  0  0  0  0  0  0  0
   -2.2135   -0.3036    1.0236 H   0  0  0  0  0  0  0  0  0  0  0  0
   -1.7468    2.1876    1.0284 H   0  0  0  0  0  0  0  0  0  0  0  0
    1.5165    2.4136    0.5317 H   0  0  0  0  0  0  0  0  0  0  0  0
    0.1782    3.2977   -0.1921 H   0  0  0  0  0  0  0  0  0  0  0  0
    0.3588   -0.0962   -1.7648 H   0  0  0  0  0  0  0  0  0  0  0  0
   -0.7821    1.2058   -2.1801 H   0  0  0  0  0  0  0  0  0  0  0  0
   -0.3829   -0.9396    0.7810 H   0  0  0  0  0  0  0  0  0  0  0  0
   -0.1714    0.2958    2.0405 H   0  0  0  0  0  0  0  0  0  0  0  0
   -4.3232    1.7195    0.3460 H   0  0  0  0  0  0  0  0  0  0  0  0
   -3.7497    1.2599    1.9486 H   0  0  0  0  0  0  0  0  0  0  0  0
   -1.8785   -0.6452   -1.4431 H   0  0  0  0  0  0  0  0  0  0  0  0
   -3.1261    0.5693   -1.7783 H   0  0  0  0  0  0  0  0  0  0  0  0
   -4.5365   -1.0479    1.6426 H   0  0  0  0  0  0  0  0  0  0  0  0
   -5.8437    0.1001    1.3341 H   0  0  0  0  0  0  0  0  0  0  0  0
   -3.9836   -1.6952   -1.9789 H   0  0  0  0  0  0  0  0  0  0  0  0
   -3.4072   -2.1358   -0.3674 H   0  0  0  0  0  0  0  0  0  0  0  0
   -7.0320   -1.5391    0.0038 H   0  0  0  0  0  0  0  0  0  0  0  0
   -5.7524   -2.7451    0.2608 H   0  0  0  0  0  0  0  0  0  0  0  0
   -6.2543   -2.2889   -1.3817 H   0  0  0  0  0  0  0  0  0  0  0  0
    1.8537   -1.8648   -0.5843 H   0  0  0  0  0  0  0  0  0  0  0  0
    4.6843   -2.7412   -0.0014 H   0  0  0  0  0  0  0  0  0  0  0  0
    5.5963   -1.4821    0.8257 H   0  0  0  0  0  0  0  0  0  0  0  0
    4.6174   -1.3285   -2.0846 H   0  0  0  0  0  0  0  0  0  0  0  0
    6.2907   -1.6235   -1.5414 H   0  0  0  0  0  0  0  0  0  0  0  0
    5.8866    0.5585   -2.0693 H   0  0  0  0  0  0  0  0  0  0  0  0
  1  9  1  0  0  0  0
  1 10  1  0  0  0  0
  2  6  1  0  0  0  0
  2 19  1  0  0  0  0
  3 21  1  0  0  0  0
  3 46  1  0  0  0  0
  4  7  1  0  0  0  0
  4  8  1  0  0  0  0
  4 23  1  0  0  0  0
  5 14  1  0  0  0  0
  5 15  1  0  0  0  0
  5 17  1  0  0  0  0
  6 16  2  0  0  0  0
  7  9  1  0  0  0  0
  7 10  1  0  0  0  0
  7 11  1  0  0  0  0
  8 12  1  0  0  0  0
  8 13  1  0  0  0  0
  8 22  1  0  0  0  0
  9 24  1  0  0  0  0
  9 25  1  0  0  0  0
 10 26  1  0  0  0  0
 10 27  1  0  0  0  0
 11 16  1  0  0  0  0
 11 28  1  0  0  0  0
 11 29  1  0  0  0  0
 12 14  1  0  0  0  0
 12 30  1  0  0  0  0
 12 31  1  0  0  0  0
 13 15  1  0  0  0  0
 13 32  1  0  0  0  0
 13 33  1  0  0  0  0
 14 34  1  0  0  0  0
 14 35  1  0  0  0  0
 15 36  1  0  0  0  0
 15 37  1  0  0  0  0
 16 18  1  0  0  0  0
 17 38  1  0  0  0  0
 17 39  1  0  0  0  0
 17 40  1  0  0  0  0
 18 19  2  0  0  0  0
 18 41  1  0  0  0  0
 19 20  1  0  0  0  0
 20 21  1  0  0  0  0
 20 42  1  0  0  0  0
 20 43  1  0  0  0  0
 21 44  1  0  0  0  0
 21 45  1  0  0  0  0
M  END
> <PUBCHEM_COMPOUND_CID>
71694382

> <PUBCHEM_CONFORMER_RMSD>
0.8

> <PUBCHEM_CONFORMER_DIVERSEORDER>
1
61
97
141
135
116
103
53
52
121
153
54
111
96
49
115
88
140
85
110
79
163
80
129
106
57
99
24
67
151
13
62
87
154
50
104
158
113
132
164
70
68
18
9
8
98
16
162
72
64
10
71
147
128
77
127
34
134
29
117
17
6
161
69
149
38
118
22
102
4
23
137
7
139
157
74
136
43
44
94
15
60
75
35
95
90
131
156
76
46
145
125
47
86
5
91
123
81
100
51
45
14
148
138
84
3
82
27
114
166
101
122
58
83
65
112
133
41
126
92
11
55
130
142
25
146
19
48
26
108
36
143
109
165
66
40
28
89
20
120
56
63
155
73
2
159
119
78
144
105
59
31
150
21
30
12
42
32
107
33
124
37
152
39
93
160

> <PUBCHEM_MMFF94_PARTIAL_CHARGES>
22
1 -0.52
10 0.26
11 0.18
14 0.27
15 0.27
16 0.11
17 0.27
18 -0.15
19 -0.04
2 -0.02
20 0.18
21 0.28
23 0.36
3 -0.68
4 -0.84
41 0.15
46 0.4
5 -0.81
6 -0.41
7 0.21
8 0.27
9 0.26

> <PUBCHEM_EFFECTIVE_ROTOR_COUNT>
8

> <PUBCHEM_PHARMACOPHORE_FEATURES>
10
1 1 acceptor
1 3 acceptor
1 3 donor
1 4 cation
1 4 donor
1 5 cation
1 6 acceptor
4 1 7 9 10 rings
5 2 6 16 18 19 rings
6 5 8 12 13 14 15 rings

> <PUBCHEM_HEAVY_ATOM_COUNT>
21

> <PUBCHEM_ATOM_DEF_STEREO_COUNT>
0

> <PUBCHEM_ATOM_UDEF_STEREO_COUNT>
0

> <PUBCHEM_BOND_DEF_STEREO_COUNT>
0

> <PUBCHEM_BOND_UDEF_STEREO_COUNT>
0

> <PUBCHEM_ISOTOPIC_ATOM_COUNT>
0

> <PUBCHEM_COMPONENT_COUNT>
1

> <PUBCHEM_CACTVS_TAUTO_COUNT>
1

> <PUBCHEM_CONFORMER_ID>
0445F82E00000001

> <PUBCHEM_MMFF94_ENERGY>
35.1236

> <PUBCHEM_FEATURE_SELFOVERLAP>
50.746

> <PUBCHEM_SHAPE_FINGERPRINT>
10042902 136 18200871893661197223
10692045 39 10735888244465265620
11128504 68 18040722450508388638
11315621 136 17971760127452314143
117890 112 10809351048633460734
11961588 58 13262394496940711219
121448 382 8069732006264499925
12553582 1 18114174216468235227
12633257 1 15482382153616293895
12892183 10 17418084412797724937
13464513 79 18408601470055560410
13533116 47 18200305667111445651
13583140 156 17346014728606641945
13675066 3 14979662270332774442
13911987 19 16588319275568025930
13914758 101 12757142473149761292
14123256 34 18335143137544698011
14178000 29 18410011026729570468
14178342 30 17560254539688511625
14251732 14 18410299116225079086
14251757 5 17604725489263746682
14251758 9 13614243659473421952
14251764 18 12679169519070022148
14251764 30 18059301950797711766
14341114 176 17132113562968882691
14466204 15 11095889237218803410
14767858 380 17968390004438822414
15061688 2 8070018987177754824
15209294 21 10015577302976967346
15295992 7 11959429228596910166
15537594 2 18336829697638689203
17492 54 17167871872012174094
1813 80 18333726909973463732
18222031 100 18333724719524117155
18769570 83 10809343360088236806
193927 3 18334858346636469931
19784866 240 18410854387246388791
19784866 9 11959734858437700774
200 152 16733264539262085010
20388580 30 18259703414830493109
20645477 70 17896029001010190045
20871999 31 17313103012586818833
21267235 1 18341898515447295347
212916 134 8069736361381963148
21403212 168 11815620722797533620
22950370 63 18340771455350370738
23016692 55 18410295804678576351
23402539 116 17895475796174169698
23522609 53 18126877969626723696
23559900 14 18059563698614923137
23622692 88 18339927018147649817
2838139 119 11530487748068941686
2916195 48 10809354342461855303
3004659 81 18260823848119550543
314194 84 18259991456859763283
351380 180 11386380252537702998
351380 3 18410008827864927819
3737641 26 18127416657056772878
4325135 7 18342173389280376334
465052 167 16774082877630038374
5104073 3 17560790005539921930
57724786 102 12607109756179566722
58807428 26 13110960920557554516
7970288 3 18335697226395337131

> <PUBCHEM_SHAPE_MULTIPOLES>
399.62
12.74
1.9
1.45
1.51
0.29
0.07
-8.59
1.31
0.38
0.41
-0.82
0.2
-0.55

> <PUBCHEM_SHAPE_SELFOVERLAP>
826.04

> <PUBCHEM_SHAPE_VOLUME>
231.4

> <PUBCHEM_COORDINATE_TYPE>
2
5
10

$$$$
