11882857
  -OEChem-12032416313D

 74 78  0     1  0  0  0  0  0999 V2000
   -0.5207    2.7979    0.2487 S   0  0  0  0  0  0  0  0  0  0  0  0
    3.2272   -3.6672   -1.1610 S   0  0  0  0  0  0  0  0  0  0  0  0
   -7.9744    0.5378   -0.7314 O   0  0  0  0  0  0  0  0  0  0  0  0
   -7.6354    2.3050    0.8518 O   0  0  0  0  0  0  0  0  0  0  0  0
   -0.4324   -2.2527   -1.4911 O   0  0  0  0  0  0  0  0  0  0  0  0
    2.8245   -0.4121   -0.1721 O   0  0  0  0  0  0  0  0  0  0  0  0
    8.0992    3.0232    0.0436 O   0  0  0  0  0  0  0  0  0  0  0  0
   -0.0506    0.2721   -0.0542 N   0  0  0  0  0  0  0  0  0  0  0  0
   -0.2504   -3.8045    0.2295 N   0  0  0  0  0  0  0  0  0  0  0  0
    1.8669    1.7250    0.0939 N   0  0  0  0  0  0  0  0  0  0  0  0
   -3.8378   -0.3458    0.3250 C   0  0  2  0  0  0  0  0  0  0  0  0
   -4.2117    1.0623   -0.3176 C   0  0  1  0  0  0  0  0  0  0  0  0
   -5.7376    1.4615   -0.3289 C   0  0  1  0  0  0  0  0  0  0  0  0
   -2.3631   -0.7309   -0.1551 C   0  0  1  0  0  0  0  0  0  0  0  0
   -4.8194   -1.4274   -0.1960 C   0  0  0  0  0  0  0  0  0  0  0  0
   -6.5792    0.2543   -0.8313 C   0  0  1  0  0  0  0  0  0  0  0  0
   -3.2721    2.1907    0.1990 C   0  0  0  0  0  0  0  0  0  0  0  0
   -6.2860   -1.0379   -0.0771 C   0  0  0  0  0  0  0  0  0  0  0  0
   -3.8884   -0.3328    1.8728 C   0  0  0  0  0  0  0  0  0  0  0  0
   -1.4225    0.4375   -0.0071 C   0  0  0  0  0  0  0  0  0  0  0  0
   -6.2736    1.9820    1.0230 C   0  0  0  0  0  0  0  0  0  0  0  0
   -5.9497    2.6251   -1.3385 C   0  0  0  0  0  0  0  0  0  0  0  0
   -1.8515    1.7417    0.1323 C   0  0  0  0  0  0  0  0  0  0  0  0
   -1.7913   -1.9982    0.4946 C   0  0  0  0  0  0  0  0  0  0  0  0
   -0.7606   -2.6693   -0.3834 C   0  0  0  0  0  0  0  0  0  0  0  0
    0.5258    1.4470    0.0780 C   0  0  0  0  0  0  0  0  0  0  0  0
    0.7513   -4.6486   -0.3805 C   0  0  0  0  0  0  0  0  0  0  0  0
    2.9180    0.8020   -0.0292 C   0  0  0  0  0  0  0  0  0  0  0  0
    2.1155   -4.1873    0.0331 C   0  0  0  0  0  0  0  0  0  0  0  0
    4.2848    1.3874   -0.0090 C   0  0  0  0  0  0  0  0  0  0  0  0
    2.6470   -4.1128    1.3018 C   0  0  0  0  0  0  0  0  0  0  0  0
    5.3329    0.7338   -0.6569 C   0  0  0  0  0  0  0  0  0  0  0  0
    4.5187    2.5905    0.6572 C   0  0  0  0  0  0  0  0  0  0  0  0
    3.9846   -3.6218    1.2935 C   0  0  0  0  0  0  0  0  0  0  0  0
    4.4243   -3.3400    0.0188 C   0  0  0  0  0  0  0  0  0  0  0  0
    6.6149    1.2830   -0.6387 C   0  0  0  0  0  0  0  0  0  0  0  0
    5.8007    3.1397    0.6755 C   0  0  0  0  0  0  0  0  0  0  0  0
    6.8487    2.4861    0.0276 C   0  0  0  0  0  0  0  0  0  0  0  0
    9.1238    2.3038   -0.6406 C   0  0  0  0  0  0  0  0  0  0  0  0
   -3.9599    0.9407   -1.3856 H   0  0  0  0  0  0  0  0  0  0  0  0
   -2.4389   -0.8998   -1.2398 H   0  0  0  0  0  0  0  0  0  0  0  0
   -4.6764   -2.3735    0.3381 H   0  0  0  0  0  0  0  0  0  0  0  0
   -4.6070   -1.6377   -1.2527 H   0  0  0  0  0  0  0  0  0  0  0  0
   -6.3669    0.0910   -1.8963 H   0  0  0  0  0  0  0  0  0  0  0  0
   -3.3938    3.0913   -0.4120 H   0  0  0  0  0  0  0  0  0  0  0  0
   -3.5138    2.4586    1.2329 H   0  0  0  0  0  0  0  0  0  0  0  0
   -6.5923   -0.9534    0.9713 H   0  0  0  0  0  0  0  0  0  0  0  0
   -6.9061   -1.8450   -0.4882 H   0  0  0  0  0  0  0  0  0  0  0  0
   -3.5987   -1.3050    2.2867 H   0  0  0  0  0  0  0  0  0  0  0  0
   -4.8858   -0.1442    2.2644 H   0  0  0  0  0  0  0  0  0  0  0  0
   -3.2141    0.4091    2.3091 H   0  0  0  0  0  0  0  0  0  0  0  0
   -6.2176    1.2418    1.8170 H   0  0  0  0  0  0  0  0  0  0  0  0
   -5.7464    2.8833    1.3503 H   0  0  0  0  0  0  0  0  0  0  0  0
   -7.0102    2.8339   -1.5185 H   0  0  0  0  0  0  0  0  0  0  0  0
   -5.4945    3.5571   -0.9877 H   0  0  0  0  0  0  0  0  0  0  0  0
   -5.5064    2.3852   -2.3119 H   0  0  0  0  0  0  0  0  0  0  0  0
   -1.3326   -1.7742    1.4660 H   0  0  0  0  0  0  0  0  0  0  0  0
   -2.5750   -2.7438    0.6620 H   0  0  0  0  0  0  0  0  0  0  0  0
   -8.4567   -0.2226   -1.0984 H   0  0  0  0  0  0  0  0  0  0  0  0
   -7.9630    2.6409    1.7033 H   0  0  0  0  0  0  0  0  0  0  0  0
   -0.5790   -4.0577    1.1572 H   0  0  0  0  0  0  0  0  0  0  0  0
    2.0743    2.7161    0.1659 H   0  0  0  0  0  0  0  0  0  0  0  0
    0.5803   -5.6706   -0.0261 H   0  0  0  0  0  0  0  0  0  0  0  0
    0.6188   -4.6384   -1.4677 H   0  0  0  0  0  0  0  0  0  0  0  0
    2.1068   -4.3961    2.1963 H   0  0  0  0  0  0  0  0  0  0  0  0
    5.1702   -0.2010   -1.1869 H   0  0  0  0  0  0  0  0  0  0  0  0
    3.7422    3.1155    1.2052 H   0  0  0  0  0  0  0  0  0  0  0  0
    4.5930   -3.4816    2.1774 H   0  0  0  0  0  0  0  0  0  0  0  0
    5.3909   -2.9564   -0.2760 H   0  0  0  0  0  0  0  0  0  0  0  0
    7.3824    0.7241   -1.1632 H   0  0  0  0  0  0  0  0  0  0  0  0
    5.9789    4.0732    1.2023 H   0  0  0  0  0  0  0  0  0  0  0  0
    9.2950    1.3204   -0.1896 H   0  0  0  0  0  0  0  0  0  0  0  0
    8.9206    2.2380   -1.7149 H   0  0  0  0  0  0  0  0  0  0  0  0
   10.0514    2.8741   -0.5252 H   0  0  0  0  0  0  0  0  0  0  0  0
  1 23  1  0  0  0  0
  1 26  1  0  0  0  0
  2 29  1  0  0  0  0
  2 35  1  0  0  0  0
  3 16  1  0  0  0  0
  3 59  1  0  0  0  0
  4 21  1  0  0  0  0
  4 60  1  0  0  0  0
  5 25  2  0  0  0  0
  6 28  2  0  0  0  0
  7 38  1  0  0  0  0
  7 39  1  0  0  0  0
  8 20  1  0  0  0  0
  8 26  2  0  0  0  0
  9 25  1  0  0  0  0
  9 27  1  0  0  0  0
  9 61  1  0  0  0  0
 10 26  1  0  0  0  0
 10 28  1  0  0  0  0
 10 62  1  0  0  0  0
 11 12  1  0  0  0  0
 11 14  1  0  0  0  0
 11 15  1  0  0  0  0
 11 19  1  0  0  0  0
 12 13  1  0  0  0  0
 12 17  1  0  0  0  0
 12 40  1  0  0  0  0
 13 16  1  0  0  0  0
 13 21  1  0  0  0  0
 13 22  1  0  0  0  0
 14 20  1  0  0  0  0
 14 24  1  0  0  0  0
 14 41  1  0  0  0  0
 15 18  1  0  0  0  0
 15 42  1  0  0  0  0
 15 43  1  0  0  0  0
 16 18  1  0  0  0  0
 16 44  1  0  0  0  0
 17 23  1  0  0  0  0
 17 45  1  0  0  0  0
 17 46  1  0  0  0  0
 18 47  1  0  0  0  0
 18 48  1  0  0  0  0
 19 49  1  0  0  0  0
 19 50  1  0  0  0  0
 19 51  1  0  0  0  0
 20 23  2  0  0  0  0
 21 52  1  0  0  0  0
 21 53  1  0  0  0  0
 22 54  1  0  0  0  0
 22 55  1  0  0  0  0
 22 56  1  0  0  0  0
 24 25  1  0  0  0  0
 24 57  1  0  0  0  0
 24 58  1  0  0  0  0
 27 29  1  0  0  0  0
 27 63  1  0  0  0  0
 27 64  1  0  0  0  0
 28 30  1  0  0  0  0
 29 31  2  0  0  0  0
 30 32  2  0  0  0  0
 30 33  1  0  0  0  0
 31 34  1  0  0  0  0
 31 65  1  0  0  0  0
 32 36  1  0  0  0  0
 32 66  1  0  0  0  0
 33 37  2  0  0  0  0
 33 67  1  0  0  0  0
 34 35  2  0  0  0  0
 34 68  1  0  0  0  0
 35 69  1  0  0  0  0
 36 38  2  0  0  0  0
 36 70  1  0  0  0  0
 37 38  1  0  0  0  0
 37 71  1  0  0  0  0
 39 72  1  0  0  0  0
 39 73  1  0  0  0  0
 39 74  1  0  0  0  0
M  END
> <PUBCHEM_COMPOUND_CID>
11882857

> <PUBCHEM_CONFORMER_RMSD>
1.2

> <PUBCHEM_CONFORMER_DIVERSEORDER>
1
16
31
28
12
24
34
32
2
14
20
21
22
30
10
23
18
9
19
3
11
17
26
13
15
6
27
8
5
29
7
4
25
33

> <PUBCHEM_MMFF94_PARTIAL_CHARGES>
43
1 -0.08
10 -0.49
14 0.18
16 0.28
17 0.18
2 -0.08
20 0.05
21 0.28
23 -0.14
24 0.06
25 0.57
26 0.44
27 0.48
28 0.54
29 -0.14
3 -0.68
30 0.09
31 -0.15
32 -0.15
33 -0.15
34 -0.15
35 -0.11
36 -0.15
37 -0.15
38 0.08
39 0.28
4 -0.68
5 -0.57
59 0.4
6 -0.57
60 0.4
61 0.37
62 0.37
65 0.15
66 0.15
67 0.15
68 0.15
69 0.15
7 -0.36
70 0.15
71 0.15
8 -0.57
9 -0.73

> <PUBCHEM_EFFECTIVE_ROTOR_COUNT>
11.2

> <PUBCHEM_PHARMACOPHORE_FEATURES>
14
1 10 donor
1 3 acceptor
1 3 donor
1 4 acceptor
1 4 donor
1 5 acceptor
1 6 acceptor
1 7 acceptor
1 9 donor
5 1 8 20 23 26 rings
5 2 29 31 34 35 rings
6 11 12 13 15 16 18 rings
6 11 12 14 17 20 23 rings
6 30 32 33 36 37 38 rings

> <PUBCHEM_HEAVY_ATOM_COUNT>
39

> <PUBCHEM_ATOM_DEF_STEREO_COUNT>
5

> <PUBCHEM_ATOM_UDEF_STEREO_COUNT>
0

> <PUBCHEM_BOND_DEF_STEREO_COUNT>
0

> <PUBCHEM_BOND_UDEF_STEREO_COUNT>
0

> <PUBCHEM_ISOTOPIC_ATOM_COUNT>
0

> <PUBCHEM_COMPONENT_COUNT>
1

> <PUBCHEM_CACTVS_TAUTO_COUNT>
6

> <PUBCHEM_CONFORMER_ID>
00B5516900000001

> <PUBCHEM_MMFF94_ENERGY>
119.4927

> <PUBCHEM_FEATURE_SELFOVERLAP>
71.195

> <PUBCHEM_SHAPE_FINGERPRINT>
10050765 1 18194682562067007724
10190206 1 18126270072518608335
10290309 65 18337100195022012364
10864689 126 18341332310119822976
11007060 377 18128536157461604025
11062273 19 18267868268910855390
11135609 187 18410855464660649057
11135926 11 18336254709049816076
11136131 41 18261386733422415242
11719270 70 18410568497038042808
12522641 33 18408602565134836948
13811026 1 18334575746457715187
14040222 383 18267862968620642480
14394314 77 18411986862321452497
14856354 85 16443622518618339033
15001296 14 18337669711516082131
15351339 4 18343587313978663184
15400415 2 18338796835873719416
15439362 3 18337953394585368267
15890870 6 18410855503447307964
15927050 60 18341326803165043670
16067689 302 18413110568270166223
20609170 92 18187353300410222573
20771845 165 18115018581438338509
21133665 82 18410857707387880126
21360443 120 18407759252912477430
23559900 14 18195235621475007467
249057 3 18336828701401838540
3383291 50 18267585899863834219
3411729 13 18408885122802456878
4017518 198 18271530896440352310
4073 2 18335425689760978473
5265222 85 18120940765913942556
6371380 46 18200027477611201928
6669772 16 18410856551134621678
99344 41 18410572885713949372

> <PUBCHEM_SHAPE_MULTIPOLES>
766.01
21.37
6.12
1.08
5.13
7.03
-0.12
-21.93
2.06
9.18
-0.41
-0.43
0.33
-0.3

> <PUBCHEM_SHAPE_SELFOVERLAP>
1622.258

> <PUBCHEM_SHAPE_VOLUME>
431.6

> <PUBCHEM_COORDINATE_TYPE>
2
5
10

$$$$
