40780321
  -OEChem-12032416163D

 69 73  0     1  0  0  0  0  0999 V2000
    4.9834    4.7466   -1.5419 F   0  0  0  0  0  0  0  0  0  0  0  0
    4.9414    4.8187    0.6309 F   0  0  0  0  0  0  0  0  0  0  0  0
    3.4325    5.8727   -0.5269 F   0  0  0  0  0  0  0  0  0  0  0  0
   -1.4399    1.5689    2.9388 O   0  0  0  0  0  0  0  0  0  0  0  0
   -0.5586   -0.4609    2.2754 O   0  0  0  0  0  0  0  0  0  0  0  0
    4.9816   -4.0802    1.1327 O   0  0  0  0  0  0  0  0  0  0  0  0
   -0.6563    0.2363   -0.3685 N   0  0  2  0  0  0  0  0  0  0  0  0
    0.7325   -3.1441   -0.5014 N   0  0  0  0  0  0  0  0  0  0  0  0
   -3.9597   -1.5138   -0.7252 N   0  0  0  0  0  0  0  0  0  0  0  0
    3.4910   -5.5537    0.1171 N   0  0  0  0  0  0  0  0  0  0  0  0
   -1.4689   -1.0189   -0.3980 C   0  0  2  0  0  0  0  0  0  0  0  0
    0.8010   -0.0443   -0.3188 C   0  0  1  0  0  0  0  0  0  0  0  0
   -1.0781   -1.8883   -1.6056 C   0  0  0  0  0  0  0  0  0  0  0  0
    0.4115   -2.2382   -1.6052 C   0  0  1  0  0  0  0  0  0  0  0  0
    1.2300   -0.9515   -1.4994 C   0  0  0  0  0  0  0  0  0  0  0  0
   -1.1394    1.2159    0.6426 C   0  0  1  0  0  0  0  0  0  0  0  0
   -2.9280   -0.6718   -0.4167 C   0  0  0  0  0  0  0  0  0  0  0  0
   -2.5947    1.6771    0.3746 C   0  0  0  0  0  0  0  0  0  0  0  0
   -3.4619    0.5441   -0.0497 C   0  0  0  0  0  0  0  0  0  0  0  0
    1.6780    1.2055   -0.3579 C   0  0  0  0  0  0  0  0  0  0  0  0
   -4.8750    0.4530   -0.1727 C   0  0  0  0  0  0  0  0  0  0  0  0
   -5.1605   -0.8480   -0.5988 C   0  0  0  0  0  0  0  0  0  0  0  0
   -1.0011    0.6530    2.0291 C   0  0  0  0  0  0  0  0  0  0  0  0
    1.9747   -3.8533   -0.7634 C   0  0  0  0  0  0  0  0  0  0  0  0
    2.5562    1.4739    0.6921 C   0  0  0  0  0  0  0  0  0  0  0  0
    1.6015    2.0780   -1.4435 C   0  0  0  0  0  0  0  0  0  0  0  0
   -5.9442    1.3461    0.0401 C   0  0  0  0  0  0  0  0  0  0  0  0
   -6.4666   -1.2981   -0.8227 C   0  0  0  0  0  0  0  0  0  0  0  0
    2.2801   -4.8214    0.3701 C   0  0  0  0  0  0  0  0  0  0  0  0
    3.3576    2.6150    0.6566 C   0  0  0  0  0  0  0  0  0  0  0  0
    2.4028    3.2191   -1.4790 C   0  0  0  0  0  0  0  0  0  0  0  0
   -7.2549    0.9088   -0.1818 C   0  0  0  0  0  0  0  0  0  0  0  0
   -7.5098   -0.3933   -0.6065 C   0  0  0  0  0  0  0  0  0  0  0  0
    3.2809    3.4876   -0.4290 C   0  0  0  0  0  0  0  0  0  0  0  0
   -1.3637    1.1605    4.3082 C   0  0  0  0  0  0  0  0  0  0  0  0
    4.1400    4.7058   -0.4682 C   0  0  0  0  0  0  0  0  0  0  0  0
    4.7464   -5.1194    0.5217 C   0  0  0  0  0  0  0  0  0  0  0  0
    5.8380   -6.0872    0.1509 C   0  0  0  0  0  0  0  0  0  0  0  0
   -1.3021   -1.6249    0.4985 H   0  0  0  0  0  0  0  0  0  0  0  0
    1.0449   -0.5947    0.5966 H   0  0  0  0  0  0  0  0  0  0  0  0
   -1.6712   -2.8122   -1.6269 H   0  0  0  0  0  0  0  0  0  0  0  0
   -1.3209   -1.3564   -2.5368 H   0  0  0  0  0  0  0  0  0  0  0  0
    0.6258   -2.7293   -2.5635 H   0  0  0  0  0  0  0  0  0  0  0  0
    1.1011   -0.4145   -2.4499 H   0  0  0  0  0  0  0  0  0  0  0  0
    2.3049   -1.1613   -1.4393 H   0  0  0  0  0  0  0  0  0  0  0  0
   -0.5210    2.1205    0.6114 H   0  0  0  0  0  0  0  0  0  0  0  0
   -2.5818    2.4090   -0.4441 H   0  0  0  0  0  0  0  0  0  0  0  0
   -3.0383    2.1783    1.2415 H   0  0  0  0  0  0  0  0  0  0  0  0
   -0.0178   -3.8258   -0.3883 H   0  0  0  0  0  0  0  0  0  0  0  0
   -3.8654   -2.4800   -1.0061 H   0  0  0  0  0  0  0  0  0  0  0  0
    2.8171   -3.1605   -0.8633 H   0  0  0  0  0  0  0  0  0  0  0  0
    1.9061   -4.4174   -1.7026 H   0  0  0  0  0  0  0  0  0  0  0  0
    2.6263    0.8040    1.5449 H   0  0  0  0  0  0  0  0  0  0  0  0
    0.9163    1.8942   -2.2665 H   0  0  0  0  0  0  0  0  0  0  0  0
   -5.7610    2.3640    0.3723 H   0  0  0  0  0  0  0  0  0  0  0  0
   -6.6669   -2.3122   -1.1519 H   0  0  0  0  0  0  0  0  0  0  0  0
    1.4768   -5.5584    0.4804 H   0  0  0  0  0  0  0  0  0  0  0  0
    2.3804   -4.2835    1.3201 H   0  0  0  0  0  0  0  0  0  0  0  0
    4.0350    2.8058    1.4844 H   0  0  0  0  0  0  0  0  0  0  0  0
    2.3347    3.8942   -2.3279 H   0  0  0  0  0  0  0  0  0  0  0  0
   -8.0827    1.5940   -0.0196 H   0  0  0  0  0  0  0  0  0  0  0  0
   -8.5358   -0.7123   -0.7720 H   0  0  0  0  0  0  0  0  0  0  0  0
   -1.7415    1.9777    4.9282 H   0  0  0  0  0  0  0  0  0  0  0  0
   -0.3246    0.9597    4.5860 H   0  0  0  0  0  0  0  0  0  0  0  0
   -1.9865    0.2763    4.4744 H   0  0  0  0  0  0  0  0  0  0  0  0
    3.4136   -6.4328   -0.3862 H   0  0  0  0  0  0  0  0  0  0  0  0
    5.7345   -6.3951   -0.8935 H   0  0  0  0  0  0  0  0  0  0  0  0
    6.8130   -5.6092    0.2791 H   0  0  0  0  0  0  0  0  0  0  0  0
    5.7796   -6.9669    0.7977 H   0  0  0  0  0  0  0  0  0  0  0  0
  1 36  1  0  0  0  0
  2 36  1  0  0  0  0
  3 36  1  0  0  0  0
  4 23  1  0  0  0  0
  4 35  1  0  0  0  0
  5 23  2  0  0  0  0
  6 37  2  0  0  0  0
  7 11  1  0  0  0  0
  7 12  1  0  0  0  0
  7 16  1  0  0  0  0
  8 14  1  0  0  0  0
  8 24  1  0  0  0  0
  8 49  1  0  0  0  0
  9 17  1  0  0  0  0
  9 22  1  0  0  0  0
  9 50  1  0  0  0  0
 10 29  1  0  0  0  0
 10 37  1  0  0  0  0
 10 66  1  0  0  0  0
 11 13  1  0  0  0  0
 11 17  1  0  0  0  0
 11 39  1  0  0  0  0
 12 15  1  0  0  0  0
 12 20  1  0  0  0  0
 12 40  1  0  0  0  0
 13 14  1  0  0  0  0
 13 41  1  0  0  0  0
 13 42  1  0  0  0  0
 14 15  1  0  0  0  0
 14 43  1  0  0  0  0
 15 44  1  0  0  0  0
 15 45  1  0  0  0  0
 16 18  1  0  0  0  0
 16 23  1  0  0  0  0
 16 46  1  0  0  0  0
 17 19  2  0  0  0  0
 18 19  1  0  0  0  0
 18 47  1  0  0  0  0
 18 48  1  0  0  0  0
 19 21  1  0  0  0  0
 20 25  2  0  0  0  0
 20 26  1  0  0  0  0
 21 22  1  0  0  0  0
 21 27  2  0  0  0  0
 22 28  2  0  0  0  0
 24 29  1  0  0  0  0
 24 51  1  0  0  0  0
 24 52  1  0  0  0  0
 25 30  1  0  0  0  0
 25 53  1  0  0  0  0
 26 31  2  0  0  0  0
 26 54  1  0  0  0  0
 27 32  1  0  0  0  0
 27 55  1  0  0  0  0
 28 33  1  0  0  0  0
 28 56  1  0  0  0  0
 29 57  1  0  0  0  0
 29 58  1  0  0  0  0
 30 34  2  0  0  0  0
 30 59  1  0  0  0  0
 31 34  1  0  0  0  0
 31 60  1  0  0  0  0
 32 33  2  0  0  0  0
 32 61  1  0  0  0  0
 33 62  1  0  0  0  0
 34 36  1  0  0  0  0
 35 63  1  0  0  0  0
 35 64  1  0  0  0  0
 35 65  1  0  0  0  0
 37 38  1  0  0  0  0
 38 67  1  0  0  0  0
 38 68  1  0  0  0  0
 38 69  1  0  0  0  0
M  END
> <PUBCHEM_COMPOUND_CID>
40780321

> <PUBCHEM_CONFORMER_RMSD>
1.2

> <PUBCHEM_CONFORMER_DIVERSEORDER>
1
8
17
11
13
18
10
2
9
6
3
15
4
16
12
14
5
7

> <PUBCHEM_MMFF94_PARTIAL_CHARGES>
46
1 -0.34
10 -0.73
11 0.45
12 0.41
14 0.27
16 0.33
17 -0.33
18 0.18
19 -0.18
2 -0.34
20 -0.14
22 -0.15
23 0.66
24 0.27
25 -0.15
26 -0.15
27 -0.15
28 -0.15
29 0.3
3 -0.34
30 -0.15
31 -0.15
32 -0.15
33 -0.15
34 -0.14
35 0.28
36 1.16
37 0.57
38 0.06
4 -0.43
49 0.36
5 -0.57
50 0.27
53 0.15
54 0.15
55 0.15
56 0.15
59 0.15
6 -0.57
60 0.15
61 0.15
62 0.15
66 0.37
7 -0.81
8 -0.9
9 0.03

> <PUBCHEM_EFFECTIVE_ROTOR_COUNT>
10.2

> <PUBCHEM_PHARMACOPHORE_FEATURES>
13
1 10 donor
1 5 acceptor
1 6 acceptor
1 7 cation
1 8 cation
1 8 donor
1 9 cation
1 9 donor
5 9 17 19 21 22 rings
6 20 25 26 30 31 34 rings
6 21 22 27 28 32 33 rings
6 7 11 12 13 14 15 rings
6 7 11 16 17 18 19 rings

> <PUBCHEM_HEAVY_ATOM_COUNT>
38

> <PUBCHEM_ATOM_DEF_STEREO_COUNT>
4

> <PUBCHEM_ATOM_UDEF_STEREO_COUNT>
0

> <PUBCHEM_BOND_DEF_STEREO_COUNT>
0

> <PUBCHEM_BOND_UDEF_STEREO_COUNT>
0

> <PUBCHEM_ISOTOPIC_ATOM_COUNT>
0

> <PUBCHEM_COMPONENT_COUNT>
1

> <PUBCHEM_CACTVS_TAUTO_COUNT>
2

> <PUBCHEM_CONFORMER_ID>
026E422100000001

> <PUBCHEM_MMFF94_ENERGY>
72.2777

> <PUBCHEM_FEATURE_SELFOVERLAP>
66.165

> <PUBCHEM_SHAPE_FINGERPRINT>
10290309 65 18049175641684121050
10721379 63 18341345404741339895
11763715 3 17762076341038764126
11963148 33 18125993018071521743
12293681 160 17559409152137397633
12522641 126 18339067268072703063
12633257 1 15287312387936809460
12788726 201 17131009700724417465
12977781 61 17896339045930721187
13248334 5 18409445878059186830
14068700 675 18056754339222137907
14394314 77 17833270818585732251
14849402 71 18410575054672765359
15439362 3 18408039628335317005
15927050 60 18197214965237609982
18393751 57 18047474714702784205
19319366 153 18271239555718047223
20238998 120 18049437041851438422
20505436 4 17680418146711661952
20771845 171 18339065069740017535
21927370 108 18051704239239755723
23559900 14 18337668621116524479
244849 19 17895779347509668035
3380486 145 17618519683082829402
3627633 1 17689434884835137758
3633792 109 18272662284962328124
4058900 60 18268721669631805521
44802255 64 17902527213225204196
469060 322 17836373644109006955
5265222 85 17838618117304324021
6058803 2 18201719531986144783
6673363 416 18051142389874395446
9981440 41 18119255205760711449

> <PUBCHEM_SHAPE_MULTIPOLES>
722.67
14.18
8.59
2.09
17.41
0.03
2.76
7.53
-1.71
-27.02
-1.19
0.42
-1.08
-3.39

> <PUBCHEM_SHAPE_SELFOVERLAP>
1567.618

> <PUBCHEM_SHAPE_VOLUME>
395.7

> <PUBCHEM_COORDINATE_TYPE>
2
5
10

$$$$
