75536274
  -OEChem-12032416303D

 54 56  0     1  0  0  0  0  0999 V2000
    3.1683    0.2676    0.8534 O   0  0  0  0  0  0  0  0  0  0  0  0
    5.9854    1.1158    1.0346 O   0  0  0  0  0  0  0  0  0  0  0  0
   -0.8828   -1.4924    1.3400 O   0  0  0  0  0  0  0  0  0  0  0  0
    0.4445    0.8077   -1.8571 O   0  0  0  0  0  0  0  0  0  0  0  0
   -2.0006    1.2268   -0.8114 O   0  0  0  0  0  0  0  0  0  0  0  0
   -2.6231   -3.8243   -0.4064 O   0  0  0  0  0  0  0  0  0  0  0  0
    1.4694    2.2091   -0.3071 N   0  0  0  0  0  0  0  0  0  0  0  0
    0.4620   -1.3613    1.6641 N   0  0  0  0  0  0  0  0  0  0  0  0
    3.7106    1.4860    0.3273 C   0  0  1  0  0  0  0  0  0  0  0  0
    3.2416   -0.8592   -0.0234 C   0  0  1  0  0  0  0  0  0  0  0  0
    5.1657    1.3012   -0.1224 C   0  0  2  0  0  0  0  0  0  0  0  0
    4.6919   -1.1524   -0.4042 C   0  0  0  0  0  0  0  0  0  0  0  0
    5.3459    0.0807   -1.0210 C   0  0  0  0  0  0  0  0  0  0  0  0
    2.6207   -2.0463    0.7030 C   0  0  0  0  0  0  0  0  0  0  0  0
    2.8154    2.0581   -0.7699 C   0  0  0  0  0  0  0  0  0  0  0  0
    1.1168   -1.9879    0.6826 C   0  0  0  0  0  0  0  0  0  0  0  0
    0.2463   -2.5287   -0.2794 C   0  0  0  0  0  0  0  0  0  0  0  0
    0.3811    1.5659   -0.8931 C   0  0  0  0  0  0  0  0  0  0  0  0
   -0.9985   -2.1894    0.1807 C   0  0  0  0  0  0  0  0  0  0  0  0
   -0.9224    1.9045   -0.2018 C   0  0  0  0  0  0  0  0  0  0  0  0
   -2.3619   -2.4212   -0.3112 C   0  0  0  0  0  0  0  0  0  0  0  0
   -3.2528    1.4377   -0.2841 C   0  0  0  0  0  0  0  0  0  0  0  0
   -3.9367   -4.0701   -0.8804 C   0  0  0  0  0  0  0  0  0  0  0  0
   -3.4157    2.2913    0.8069 C   0  0  0  0  0  0  0  0  0  0  0  0
   -4.3604    0.7980   -0.8406 C   0  0  0  0  0  0  0  0  0  0  0  0
   -4.6861    2.5052    1.3417 C   0  0  0  0  0  0  0  0  0  0  0  0
   -5.6308    1.0119   -0.3059 C   0  0  0  0  0  0  0  0  0  0  0  0
   -5.7937    1.8655    0.7853 C   0  0  0  0  0  0  0  0  0  0  0  0
    3.6997    2.1852    1.1734 H   0  0  0  0  0  0  0  0  0  0  0  0
    2.6686   -0.6519   -0.9345 H   0  0  0  0  0  0  0  0  0  0  0  0
    5.5256    2.2044   -0.6275 H   0  0  0  0  0  0  0  0  0  0  0  0
    4.7442   -1.9908   -1.1079 H   0  0  0  0  0  0  0  0  0  0  0  0
    5.2581   -1.4417    0.4903 H   0  0  0  0  0  0  0  0  0  0  0  0
    6.4105   -0.1249   -1.1826 H   0  0  0  0  0  0  0  0  0  0  0  0
    4.8996    0.2739   -2.0034 H   0  0  0  0  0  0  0  0  0  0  0  0
    2.9672   -2.0889    1.7436 H   0  0  0  0  0  0  0  0  0  0  0  0
    2.9235   -2.9855    0.2227 H   0  0  0  0  0  0  0  0  0  0  0  0
    2.8266    1.4379   -1.6706 H   0  0  0  0  0  0  0  0  0  0  0  0
    3.1698    3.0540   -1.0579 H   0  0  0  0  0  0  0  0  0  0  0  0
    6.9077    1.0485    0.7337 H   0  0  0  0  0  0  0  0  0  0  0  0
    1.3030    2.8477    0.4655 H   0  0  0  0  0  0  0  0  0  0  0  0
    0.4863   -3.0817   -1.1754 H   0  0  0  0  0  0  0  0  0  0  0  0
   -0.8129    1.5973    0.8460 H   0  0  0  0  0  0  0  0  0  0  0  0
   -1.0504    2.9913   -0.2843 H   0  0  0  0  0  0  0  0  0  0  0  0
   -3.0960   -1.9655    0.3635 H   0  0  0  0  0  0  0  0  0  0  0  0
   -2.4734   -1.9653   -1.3019 H   0  0  0  0  0  0  0  0  0  0  0  0
   -4.0860   -5.1517   -0.9379 H   0  0  0  0  0  0  0  0  0  0  0  0
   -4.0708   -3.6470   -1.8808 H   0  0  0  0  0  0  0  0  0  0  0  0
   -4.6789   -3.6527   -0.1929 H   0  0  0  0  0  0  0  0  0  0  0  0
   -2.5991    2.8195    1.2872 H   0  0  0  0  0  0  0  0  0  0  0  0
   -4.2396    0.1320   -1.6904 H   0  0  0  0  0  0  0  0  0  0  0  0
   -4.8140    3.1696    2.1915 H   0  0  0  0  0  0  0  0  0  0  0  0
   -6.4931    0.5135   -0.7390 H   0  0  0  0  0  0  0  0  0  0  0  0
   -6.7829    2.0318    1.2016 H   0  0  0  0  0  0  0  0  0  0  0  0
  1  9  1  0  0  0  0
  1 10  1  0  0  0  0
  2 11  1  0  0  0  0
  2 40  1  0  0  0  0
  3  8  1  0  0  0  0
  3 19  1  0  0  0  0
  4 18  2  0  0  0  0
  5 20  1  0  0  0  0
  5 22  1  0  0  0  0
  6 21  1  0  0  0  0
  6 23  1  0  0  0  0
  7 15  1  0  0  0  0
  7 18  1  0  0  0  0
  7 41  1  0  0  0  0
  8 16  2  0  0  0  0
  9 11  1  0  0  0  0
  9 15  1  0  0  0  0
  9 29  1  0  0  0  0
 10 12  1  0  0  0  0
 10 14  1  0  0  0  0
 10 30  1  0  0  0  0
 11 13  1  0  0  0  0
 11 31  1  0  0  0  0
 12 13  1  0  0  0  0
 12 32  1  0  0  0  0
 12 33  1  0  0  0  0
 13 34  1  0  0  0  0
 13 35  1  0  0  0  0
 14 16  1  0  0  0  0
 14 36  1  0  0  0  0
 14 37  1  0  0  0  0
 15 38  1  0  0  0  0
 15 39  1  0  0  0  0
 16 17  1  0  0  0  0
 17 19  2  0  0  0  0
 17 42  1  0  0  0  0
 18 20  1  0  0  0  0
 19 21  1  0  0  0  0
 20 43  1  0  0  0  0
 20 44  1  0  0  0  0
 21 45  1  0  0  0  0
 21 46  1  0  0  0  0
 22 24  2  0  0  0  0
 22 25  1  0  0  0  0
 23 47  1  0  0  0  0
 23 48  1  0  0  0  0
 23 49  1  0  0  0  0
 24 26  1  0  0  0  0
 24 50  1  0  0  0  0
 25 27  2  0  0  0  0
 25 51  1  0  0  0  0
 26 28  2  0  0  0  0
 26 52  1  0  0  0  0
 27 28  1  0  0  0  0
 27 53  1  0  0  0  0
 28 54  1  0  0  0  0
M  END
> <PUBCHEM_COMPOUND_CID>
75536274

> <PUBCHEM_CONFORMER_RMSD>
1

> <PUBCHEM_CONFORMER_DIVERSEORDER>
1
113
16
51
93
92
9
140
63
77
69
4
144
72
99
109
29
84
86
75
12
130
34
40
47
20
28
112
88
106
96
105
98
73
49
91
50
68
103
44
138
74
102
136
65
70
54
79
48
7
125
142
119
132
120
11
114
108
76
129
87
124
89
80
101
94
57
52
56
104
100
117
83
121
60
123
128
36
59
135
85
38
41
139
127
97
39
81
23
27
110
58
2
131
32
95
13
145
141
45
116
149
17
148
143
111
78
53
37
107
61
67
137
62
14
24
122
133
19
18
43
35
21
64
90
31
66
118
146
71
115
82
30
55
8
22
42
26
147
15
10
134
33
46
126
25
6
5
3

> <PUBCHEM_MMFF94_PARTIAL_CHARGES>
34
1 -0.56
10 0.28
11 0.28
14 0.18
15 0.3
16 0.11
17 -0.15
18 0.57
19 -0.04
2 -0.68
20 0.34
21 0.46
22 0.08
23 0.28
24 -0.15
25 -0.15
26 -0.15
27 -0.15
28 -0.15
3 -0.02
4 -0.57
40 0.4
41 0.37
42 0.15
5 -0.36
50 0.15
51 0.15
52 0.15
53 0.15
54 0.15
6 -0.56
7 -0.73
8 -0.41
9 0.28

> <PUBCHEM_EFFECTIVE_ROTOR_COUNT>
11.2

> <PUBCHEM_PHARMACOPHORE_FEATURES>
11
1 1 acceptor
1 2 acceptor
1 2 donor
1 4 acceptor
1 5 acceptor
1 6 acceptor
1 7 donor
1 8 acceptor
5 3 8 16 17 19 rings
6 1 9 10 11 12 13 rings
6 22 24 25 26 27 28 rings

> <PUBCHEM_HEAVY_ATOM_COUNT>
28

> <PUBCHEM_ATOM_DEF_STEREO_COUNT>
3

> <PUBCHEM_ATOM_UDEF_STEREO_COUNT>
0

> <PUBCHEM_BOND_DEF_STEREO_COUNT>
0

> <PUBCHEM_BOND_UDEF_STEREO_COUNT>
0

> <PUBCHEM_ISOTOPIC_ATOM_COUNT>
0

> <PUBCHEM_COMPONENT_COUNT>
1

> <PUBCHEM_CACTVS_TAUTO_COUNT>
2

> <PUBCHEM_CONFORMER_ID>
0480979200000001

> <PUBCHEM_MMFF94_ENERGY>
55.7238

> <PUBCHEM_FEATURE_SELFOVERLAP>
55.833

> <PUBCHEM_SHAPE_FINGERPRINT>
10493431 412 18409448063780685377
1100329 8 18409449197757533548
11513181 2 18202281381663775599
12596602 18 17989204811414031801
12633257 1 18260256465507009964
12788726 201 17761224605825640333
14341114 328 18129941166008496865
14464042 87 18264484169246340999
14681490 219 17906728460197983223
14790565 3 18267869372116433737
14840074 17 18041566849526506781
14866123 147 18337390543105497635
15297060 5 18131072623555476651
20642791 13 18265611177307038670
20691752 17 17385714829426253182
21197605 99 18262251018222606459
23227448 37 18410855468950594927
23558518 356 18046631384351022077
338550 245 18187653556039221413
3633792 109 18265885871137706973
3680242 22 18114737145284397760
38695281 34 18266460910911927789
4340502 62 18410572869024982816
469060 322 16733258032371359847
6036956 94 17107355005375988220
6287921 2 17910955738893371635

> <PUBCHEM_SHAPE_MULTIPOLES>
531.05
12.69
4.32
1.23
0.61
4.24
-0.08
-6.73
-0.63
-4.57
0.24
-0.12
-0.1
-1.55

> <PUBCHEM_SHAPE_SELFOVERLAP>
1106.412

> <PUBCHEM_SHAPE_VOLUME>
301.8

> <PUBCHEM_COORDINATE_TYPE>
2
5
10

$$$$
