26744397
  -OEChem-12032416263D

 42 45  0     1  0  0  0  0  0999 V2000
   -6.3637   -0.8647    1.0602 F   0  0  0  0  0  0  0  0  0  0  0  0
    4.5004   -3.5577    0.5741 O   0  0  0  0  0  0  0  0  0  0  0  0
    0.5457   -0.0471   -2.0638 O   0  0  0  0  0  0  0  0  0  0  0  0
    2.9260   -0.3503    0.5039 N   0  0  1  0  0  0  0  0  0  0  0  0
   -0.0893   -0.9747   -0.1266 N   0  0  0  0  0  0  0  0  0  0  0  0
   -0.8475    0.0851   -2.0069 N   0  0  0  0  0  0  0  0  0  0  0  0
    0.8219    3.6801   -0.6938 N   0  0  0  0  0  0  0  0  0  0  0  0
    2.3902   -0.9467   -0.7366 C   0  0  1  0  0  0  0  0  0  0  0  0
    2.7170   -2.4475   -0.6249 C   0  0  0  0  0  0  0  0  0  0  0  0
    3.4759   -2.5893    0.6886 C   0  0  2  0  0  0  0  0  0  0  0  0
    4.0378   -1.2004    0.9254 C   0  0  0  0  0  0  0  0  0  0  0  0
    3.3292    1.0409    0.3448 C   0  0  0  0  0  0  0  0  0  0  0  0
    0.9106   -0.6815   -0.9190 C   0  0  0  0  0  0  0  0  0  0  0  0
    2.1494    1.9753    0.3908 C   0  0  0  0  0  0  0  0  0  0  0  0
   -1.1470   -0.4850   -0.8360 C   0  0  0  0  0  0  0  0  0  0  0  0
    1.3144    2.0214    1.5017 C   0  0  0  0  0  0  0  0  0  0  0  0
    1.8626    2.8174   -0.6715 C   0  0  0  0  0  0  0  0  0  0  0  0
   -2.4920   -0.5829   -0.3471 C   0  0  0  0  0  0  0  0  0  0  0  0
    0.2334    2.8959    1.5160 C   0  0  0  0  0  0  0  0  0  0  0  0
    0.0323    3.6969    0.4034 C   0  0  0  0  0  0  0  0  0  0  0  0
   -2.7446   -1.1908    0.8828 C   0  0  0  0  0  0  0  0  0  0  0  0
   -3.5474   -0.0700   -1.1014 C   0  0  0  0  0  0  0  0  0  0  0  0
   -4.0523   -1.2860    1.3581 C   0  0  0  0  0  0  0  0  0  0  0  0
   -4.8552   -0.1652   -0.6261 C   0  0  0  0  0  0  0  0  0  0  0  0
   -5.1077   -0.7732    0.6038 C   0  0  0  0  0  0  0  0  0  0  0  0
    2.9277   -0.5625   -1.6151 H   0  0  0  0  0  0  0  0  0  0  0  0
    1.8288   -3.0898   -0.6218 H   0  0  0  0  0  0  0  0  0  0  0  0
    3.3402   -2.7634   -1.4711 H   0  0  0  0  0  0  0  0  0  0  0  0
    2.7965   -2.8780    1.5000 H   0  0  0  0  0  0  0  0  0  0  0  0
    4.2980   -1.0515    1.9786 H   0  0  0  0  0  0  0  0  0  0  0  0
    4.9432   -1.0375    0.3258 H   0  0  0  0  0  0  0  0  0  0  0  0
    3.9238    1.1914   -0.5657 H   0  0  0  0  0  0  0  0  0  0  0  0
    3.9829    1.3376    1.1770 H   0  0  0  0  0  0  0  0  0  0  0  0
    4.0783   -4.4041    0.3485 H   0  0  0  0  0  0  0  0  0  0  0  0
    1.4962    1.3854    2.3637 H   0  0  0  0  0  0  0  0  0  0  0  0
    2.4755    2.8270   -1.5674 H   0  0  0  0  0  0  0  0  0  0  0  0
   -0.4308    2.9488    2.3710 H   0  0  0  0  0  0  0  0  0  0  0  0
   -0.7971    4.3953    0.3647 H   0  0  0  0  0  0  0  0  0  0  0  0
   -1.9438   -1.5995    1.4940 H   0  0  0  0  0  0  0  0  0  0  0  0
   -3.3893    0.4106   -2.0636 H   0  0  0  0  0  0  0  0  0  0  0  0
   -4.2497   -1.7591    2.3155 H   0  0  0  0  0  0  0  0  0  0  0  0
   -5.6775    0.2339   -1.2127 H   0  0  0  0  0  0  0  0  0  0  0  0
  1 25  1  0  0  0  0
  2 10  1  0  0  0  0
  2 34  1  0  0  0  0
  3  6  1  0  0  0  0
  3 13  1  0  0  0  0
  4  8  1  0  0  0  0
  4 11  1  0  0  0  0
  4 12  1  0  0  0  0
  5 13  2  0  0  0  0
  5 15  1  0  0  0  0
  6 15  2  0  0  0  0
  7 17  1  0  0  0  0
  7 20  2  0  0  0  0
  8  9  1  0  0  0  0
  8 13  1  0  0  0  0
  8 26  1  0  0  0  0
  9 10  1  0  0  0  0
  9 27  1  0  0  0  0
  9 28  1  0  0  0  0
 10 11  1  0  0  0  0
 10 29  1  0  0  0  0
 11 30  1  0  0  0  0
 11 31  1  0  0  0  0
 12 14  1  0  0  0  0
 12 32  1  0  0  0  0
 12 33  1  0  0  0  0
 14 16  1  0  0  0  0
 14 17  2  0  0  0  0
 15 18  1  0  0  0  0
 16 19  2  0  0  0  0
 16 35  1  0  0  0  0
 17 36  1  0  0  0  0
 18 21  2  0  0  0  0
 18 22  1  0  0  0  0
 19 20  1  0  0  0  0
 19 37  1  0  0  0  0
 20 38  1  0  0  0  0
 21 23  1  0  0  0  0
 21 39  1  0  0  0  0
 22 24  2  0  0  0  0
 22 40  1  0  0  0  0
 23 25  2  0  0  0  0
 23 41  1  0  0  0  0
 24 25  1  0  0  0  0
 24 42  1  0  0  0  0
M  END
> <PUBCHEM_COMPOUND_CID>
26744397

> <PUBCHEM_CONFORMER_RMSD>
0.8

> <PUBCHEM_CONFORMER_DIVERSEORDER>
1
68
33
49
47
58
24
17
2
31
52
35
4
53
55
51
29
74
69
19
57
66
50
32
6
60
12
63
30
54
20
73
56
64
13
5
34
61
14
39
22
75
11
59
25
70
67
71
28
26
48
46
42
36
10
62
18
43
40
37
44
8
15
7
23
16
72
41
3
21
9
38
45
65
27

> <PUBCHEM_MMFF94_PARTIAL_CHARGES>
33
1 -0.19
10 0.28
11 0.27
12 0.41
13 0.3
14 -0.14
15 0.46
16 -0.15
17 0.16
18 0.05
19 -0.15
2 -0.68
20 0.16
21 -0.15
22 -0.15
23 -0.15
24 -0.15
25 0.19
3 -0.02
34 0.4
35 0.15
36 0.15
37 0.15
38 0.15
39 0.15
4 -0.81
40 0.15
41 0.15
42 0.15
5 -0.57
6 -0.41
7 -0.62
8 0.45

> <PUBCHEM_EFFECTIVE_ROTOR_COUNT>
5

> <PUBCHEM_PHARMACOPHORE_FEATURES>
9
1 2 acceptor
1 2 donor
1 4 cation
1 7 acceptor
3 5 6 15 cation
5 3 5 6 13 15 rings
5 4 8 9 10 11 rings
6 18 21 22 23 24 25 rings
6 7 14 16 17 19 20 rings

> <PUBCHEM_HEAVY_ATOM_COUNT>
25

> <PUBCHEM_ATOM_DEF_STEREO_COUNT>
2

> <PUBCHEM_ATOM_UDEF_STEREO_COUNT>
0

> <PUBCHEM_BOND_DEF_STEREO_COUNT>
0

> <PUBCHEM_BOND_UDEF_STEREO_COUNT>
0

> <PUBCHEM_ISOTOPIC_ATOM_COUNT>
0

> <PUBCHEM_COMPONENT_COUNT>
1

> <PUBCHEM_CACTVS_TAUTO_COUNT>
1

> <PUBCHEM_CONFORMER_ID>
0198164D00000001

> <PUBCHEM_MMFF94_ENERGY>
52.5459

> <PUBCHEM_FEATURE_SELFOVERLAP>
45.672

> <PUBCHEM_SHAPE_FINGERPRINT>
10165383 225 17900269902894534332
10382601 240 18058718243325202080
104564 63 18202285758467291412
10688039 33 18335698291451696124
11545043 162 17749103379741274391
12422481 6 17630900300334608529
12633257 1 18044640125869366194
13052359 8 17544471951808698260
13134695 92 18271795839481298053
13140716 1 17909260630854541352
13533116 47 18334300907284565755
13583140 156 18267302226201549495
13965767 371 17274525603702491570
14790565 3 17978784937676763360
14866123 147 17039502493231272722
151778 21 17975417128917336325
15420108 30 17344607457086821740
17349148 13 17275103959814490519
17980427 23 16916488350730969807
1813 80 18130516223279508126
21033648 29 18115569553001803165
21041028 32 18270392789798395948
21304303 94 12829488142685323657
21344244 78 18202841046093153075
23559900 14 17603305977387468919
3380486 145 17840546450134853860
345986 75 18059856129900075880
3472631 163 14405179595229625515
474 4 18128254695628277317
484985 159 17322382701879309890
5283268 108 18272094850919955696
5895379 119 14835585646435986649
621550 5 17968093075531341078
6442390 28 17399526013667312056
6786 2 17468775425275724356
7097593 13 18270111443428221615
81228 2 17910408181559335892
8509985 295 18342461452193769169
8988823 20 18337672031362697119

> <PUBCHEM_SHAPE_MULTIPOLES>
475.55
9.48
4.03
1.52
12.64
2.94
0.22
-7.37
-3.09
-5.23
-0.84
0.45
0.14
0.13

> <PUBCHEM_SHAPE_SELFOVERLAP>
1040.501

> <PUBCHEM_SHAPE_VOLUME>
260.2

> <PUBCHEM_COORDINATE_TYPE>
2
5
10

$$$$
