40586262
  -OEChem-12032416213D

 56 60  0     1  0  0  0  0  0999 V2000
   -1.0597   -0.7527    1.9587 O   0  0  0  0  0  0  0  0  0  0  0  0
    2.8934    0.5215   -2.0980 O   0  0  0  0  0  0  0  0  0  0  0  0
   -6.7497    1.0466    0.0515 O   0  0  0  0  0  0  0  0  0  0  0  0
    3.3736   -0.9625   -0.3886 N   0  0  0  0  0  0  0  0  0  0  0  0
    0.5363   -1.9210    0.7230 N   0  0  0  0  0  0  0  0  0  0  0  0
    3.4287    1.3646   -0.0046 N   0  0  0  0  0  0  0  0  0  0  0  0
    2.8890   -2.3941    1.6109 C   0  0  2  0  0  0  0  0  0  0  0  0
    2.2526   -3.1726   -0.6304 C   0  0  2  0  0  0  0  0  0  0  0  0
    2.8401   -3.6181    0.7061 C   0  0  0  0  0  0  0  0  0  0  0  0
    1.4544   -1.9170    1.8697 C   0  0  0  0  0  0  0  0  0  0  0  0
    3.7619   -1.2825    0.9945 C   0  0  0  0  0  0  0  0  0  0  0  0
    3.1829   -2.1244   -1.2657 C   0  0  0  0  0  0  0  0  0  0  0  0
    0.8626   -2.5897   -0.4589 C   0  0  0  0  0  0  0  0  0  0  0  0
   -0.0387   -2.6852   -1.4492 C   0  0  0  0  0  0  0  0  0  0  0  0
   -0.7220   -1.3181    0.9172 C   0  0  0  0  0  0  0  0  0  0  0  0
    3.2007    0.3358   -0.9178 C   0  0  0  0  0  0  0  0  0  0  0  0
   -1.6963   -1.4060   -0.2264 C   0  0  0  0  0  0  0  0  0  0  0  0
   -1.3338   -2.0781   -1.3293 C   0  0  0  0  0  0  0  0  0  0  0  0
   -3.0199   -0.7637   -0.1521 C   0  0  0  0  0  0  0  0  0  0  0  0
    2.8210    2.6442    0.0135 C   0  0  0  0  0  0  0  0  0  0  0  0
   -4.1767   -1.5341   -0.2716 C   0  0  0  0  0  0  0  0  0  0  0  0
   -3.1166    0.6150    0.0363 C   0  0  0  0  0  0  0  0  0  0  0  0
   -5.4300   -0.9258   -0.2029 C   0  0  0  0  0  0  0  0  0  0  0  0
   -4.3699    1.2234    0.1049 C   0  0  0  0  0  0  0  0  0  0  0  0
    3.2214    3.5924    0.9548 C   0  0  0  0  0  0  0  0  0  0  0  0
    1.8227    2.9560   -0.9093 C   0  0  0  0  0  0  0  0  0  0  0  0
   -5.5265    0.4530   -0.0146 C   0  0  0  0  0  0  0  0  0  0  0  0
    2.6235    4.8525    0.9734 C   0  0  0  0  0  0  0  0  0  0  0  0
    1.2249    4.2162   -0.8910 C   0  0  0  0  0  0  0  0  0  0  0  0
    1.6253    5.1644    0.0506 C   0  0  0  0  0  0  0  0  0  0  0  0
   -6.7756    2.4599    0.2454 C   0  0  0  0  0  0  0  0  0  0  0  0
    3.3365   -2.6683    2.5743 H   0  0  0  0  0  0  0  0  0  0  0  0
    2.2092   -4.0462   -1.2936 H   0  0  0  0  0  0  0  0  0  0  0  0
    2.2272   -4.4086    1.1567 H   0  0  0  0  0  0  0  0  0  0  0  0
    3.8463   -4.0316    0.5661 H   0  0  0  0  0  0  0  0  0  0  0  0
    0.9942   -2.5753    2.6193 H   0  0  0  0  0  0  0  0  0  0  0  0
    1.4581   -0.9130    2.3123 H   0  0  0  0  0  0  0  0  0  0  0  0
    3.7246   -0.4091    1.6477 H   0  0  0  0  0  0  0  0  0  0  0  0
    4.8069   -1.6130    0.9535 H   0  0  0  0  0  0  0  0  0  0  0  0
    4.1763   -2.5571   -1.4382 H   0  0  0  0  0  0  0  0  0  0  0  0
    2.7986   -1.8163   -2.2440 H   0  0  0  0  0  0  0  0  0  0  0  0
    0.1931   -3.1889   -2.3817 H   0  0  0  0  0  0  0  0  0  0  0  0
   -1.9923   -2.1681   -2.1885 H   0  0  0  0  0  0  0  0  0  0  0  0
    4.1089    1.2069    0.7319 H   0  0  0  0  0  0  0  0  0  0  0  0
   -4.1229   -2.6109   -0.4132 H   0  0  0  0  0  0  0  0  0  0  0  0
   -2.2249    1.2312    0.1257 H   0  0  0  0  0  0  0  0  0  0  0  0
   -6.3277   -1.5311   -0.2955 H   0  0  0  0  0  0  0  0  0  0  0  0
   -4.3725    2.2981    0.2511 H   0  0  0  0  0  0  0  0  0  0  0  0
    3.9981    3.3622    1.6797 H   0  0  0  0  0  0  0  0  0  0  0  0
    1.4504    2.2493   -1.6415 H   0  0  0  0  0  0  0  0  0  0  0  0
    2.9349    5.5907    1.7068 H   0  0  0  0  0  0  0  0  0  0  0  0
    0.4422    4.4574   -1.6044 H   0  0  0  0  0  0  0  0  0  0  0  0
    1.1585    6.1449    0.0661 H   0  0  0  0  0  0  0  0  0  0  0  0
   -7.8274    2.7629    0.2744 H   0  0  0  0  0  0  0  0  0  0  0  0
   -6.3134    2.9899   -0.5945 H   0  0  0  0  0  0  0  0  0  0  0  0
   -6.3349    2.7423    1.2075 H   0  0  0  0  0  0  0  0  0  0  0  0
  1 15  2  0  0  0  0
  2 16  2  0  0  0  0
  3 27  1  0  0  0  0
  3 31  1  0  0  0  0
  4 11  1  0  0  0  0
  4 12  1  0  0  0  0
  4 16  1  0  0  0  0
  5 10  1  0  0  0  0
  5 13  1  0  0  0  0
  5 15  1  0  0  0  0
  6 16  1  0  0  0  0
  6 20  1  0  0  0  0
  6 44  1  0  0  0  0
  7  9  1  0  0  0  0
  7 10  1  0  0  0  0
  7 11  1  0  0  0  0
  7 32  1  0  0  0  0
  8  9  1  0  0  0  0
  8 12  1  0  0  0  0
  8 13  1  0  0  0  0
  8 33  1  0  0  0  0
  9 34  1  0  0  0  0
  9 35  1  0  0  0  0
 10 36  1  0  0  0  0
 10 37  1  0  0  0  0
 11 38  1  0  0  0  0
 11 39  1  0  0  0  0
 12 40  1  0  0  0  0
 12 41  1  0  0  0  0
 13 14  2  0  0  0  0
 14 18  1  0  0  0  0
 14 42  1  0  0  0  0
 15 17  1  0  0  0  0
 17 18  2  0  0  0  0
 17 19  1  0  0  0  0
 18 43  1  0  0  0  0
 19 21  2  0  0  0  0
 19 22  1  0  0  0  0
 20 25  2  0  0  0  0
 20 26  1  0  0  0  0
 21 23  1  0  0  0  0
 21 45  1  0  0  0  0
 22 24  2  0  0  0  0
 22 46  1  0  0  0  0
 23 27  2  0  0  0  0
 23 47  1  0  0  0  0
 24 27  1  0  0  0  0
 24 48  1  0  0  0  0
 25 28  1  0  0  0  0
 25 49  1  0  0  0  0
 26 29  2  0  0  0  0
 26 50  1  0  0  0  0
 28 30  2  0  0  0  0
 28 51  1  0  0  0  0
 29 30  1  0  0  0  0
 29 52  1  0  0  0  0
 30 53  1  0  0  0  0
 31 54  1  0  0  0  0
 31 55  1  0  0  0  0
 31 56  1  0  0  0  0
M  END
> <PUBCHEM_COMPOUND_CID>
40586262

> <PUBCHEM_CONFORMER_RMSD>
0.8

> <PUBCHEM_CONFORMER_DIVERSEORDER>
1
13
2
16
11
20
18
12
14
15
4
17
3
9
7
19
5
8
6
10

> <PUBCHEM_MMFF94_PARTIAL_CHARGES>
41
1 -0.57
10 0.3
11 0.3
12 0.3
13 -0.03
14 -0.15
15 0.62
16 0.69
17 -0.01
18 -0.15
19 0.03
2 -0.57
20 0.12
21 -0.15
22 -0.15
23 -0.15
24 -0.15
25 -0.15
26 -0.15
27 0.08
28 -0.15
29 -0.15
3 -0.36
30 -0.15
31 0.28
4 -0.66
42 0.15
43 0.15
44 0.37
45 0.15
46 0.15
47 0.15
48 0.15
49 0.15
5 -0.47
50 0.15
51 0.15
52 0.15
53 0.15
6 -0.55
8 0.14

> <PUBCHEM_EFFECTIVE_ROTOR_COUNT>
6

> <PUBCHEM_PHARMACOPHORE_FEATURES>
9
1 1 acceptor
1 2 acceptor
1 3 acceptor
1 6 donor
6 19 21 22 23 24 27 rings
6 20 25 26 28 29 30 rings
6 4 7 8 9 11 12 rings
6 5 13 14 15 17 18 rings
6 5 7 8 9 10 13 rings

> <PUBCHEM_HEAVY_ATOM_COUNT>
31

> <PUBCHEM_ATOM_DEF_STEREO_COUNT>
2

> <PUBCHEM_ATOM_UDEF_STEREO_COUNT>
0

> <PUBCHEM_BOND_DEF_STEREO_COUNT>
0

> <PUBCHEM_BOND_UDEF_STEREO_COUNT>
0

> <PUBCHEM_ISOTOPIC_ATOM_COUNT>
0

> <PUBCHEM_COMPONENT_COUNT>
1

> <PUBCHEM_CACTVS_TAUTO_COUNT>
6

> <PUBCHEM_CONFORMER_ID>
026B4C1600000001

> <PUBCHEM_MMFF94_ENERGY>
102.9104

> <PUBCHEM_FEATURE_SELFOVERLAP>
47.241

> <PUBCHEM_SHAPE_FINGERPRINT>
10439779 11 18339071705206326168
10673678 19 18272938262886554875
10675989 125 18342181119441970249
10937287 8 18050846924964146180
11331351 85 17902777571063940242
11578080 2 17097525122040637099
12107183 9 17904460142446772464
12633257 1 15864902304516651846
12788726 201 17902803959685176802
12925494 130 18408886265822771089
13583140 156 18188221956691718067
13878862 14 18042947836462998053
13944108 23 18335147457659520476
14028597 1 17387967578918828946
14150022 121 17612848437474919754
14468879 13 17903361742233473473
14955137 171 18408880712240471626
15001296 14 18412265034779503657
15082195 135 18269818914134002399
15475509 84 17900530177959708826
17980427 23 18126254611227283186
18681886 176 18342737382257742766
20567600 299 18411419496824775876
20715895 44 18343580763388807569
21344244 78 17827621579044301818
21591340 35 18339366391101863248
21860390 5 18410296895632009014
22122407 14 18337964394250256705
23559900 14 18269841908941343495
3298306 158 18194404626427705065
345986 75 17317027057975815962
3493558 16 18270970042467972209
376196 1 17770219680767655356
463206 1 17689989042569296820
508180 173 18268450043315733100
508706 21 17187861246993419980
513532 50 18202007590715242830
5776283 40 18121800562737976868
60111433 81 18059561516619504768
7288768 16 17682389604997262298
9981440 41 17832417974965214977

> <PUBCHEM_SHAPE_MULTIPOLES>
605.41
11.31
6.57
1.46
24.57
8.67
-0.1
5.11
-0.57
-8.2
-0.31
-1.26
-0.66
-0.54

> <PUBCHEM_SHAPE_SELFOVERLAP>
1330.381

> <PUBCHEM_SHAPE_VOLUME>
319.3

> <PUBCHEM_COORDINATE_TYPE>
2
5
10

$$$$
