38029086
  -OEChem-12032416243D

 68 70  0     1  0  0  0  0  0999 V2000
   -3.0557    1.6348    0.4476 S   0  0  0  0  0  0  0  0  0  0  0  0
    3.5956   -2.0846    0.1368 O   0  0  0  0  0  0  0  0  0  0  0  0
   -2.6438    2.3085   -0.7692 O   0  0  0  0  0  0  0  0  0  0  0  0
   -2.7370    2.2068    1.7417 O   0  0  0  0  0  0  0  0  0  0  0  0
   -2.5188    0.0185    0.4043 N   0  0  0  0  0  0  0  0  0  0  0  0
    3.6674   -0.3775    1.7053 N   0  0  0  0  0  0  0  0  0  0  0  0
    6.0405    3.2279    0.1081 N   0  0  0  0  0  0  0  0  0  0  0  0
   -0.4157   -1.1912   -1.3546 C   0  0  1  0  0  0  0  0  0  0  0  0
   -1.7414   -1.8753   -0.9368 C   0  0  1  0  0  0  0  0  0  0  0  0
    0.7703   -2.1435   -1.1388 C   0  0  0  0  0  0  0  0  0  0  0  0
    0.8954   -2.5950    0.3286 C   0  0  2  0  0  0  0  0  0  0  0  0
   -0.4501   -0.7281   -2.8144 C   0  0  0  0  0  0  0  0  0  0  0  0
   -0.4380   -3.0351    0.8979 C   0  0  0  0  0  0  0  0  0  0  0  0
   -1.6053   -2.7154    0.3114 C   0  0  0  0  0  0  0  0  0  0  0  0
   -2.8578   -0.8435   -0.7387 C   0  0  0  0  0  0  0  0  0  0  0  0
    1.5254   -1.4969    1.1926 C   0  0  0  0  0  0  0  0  0  0  0  0
    0.5348    0.4160   -3.0331 C   0  0  0  0  0  0  0  0  0  0  0  0
   -0.1423   -1.8932   -3.7495 C   0  0  0  0  0  0  0  0  0  0  0  0
   -0.3975   -3.8908    2.1334 C   0  0  0  0  0  0  0  0  0  0  0  0
    3.0175   -1.3607    0.9517 C   0  0  0  0  0  0  0  0  0  0  0  0
   -4.8108    1.4324    0.3910 C   0  0  0  0  0  0  0  0  0  0  0  0
    5.1013   -0.1222    1.5895 C   0  0  0  0  0  0  0  0  0  0  0  0
    2.9630    0.4663    2.6628 C   0  0  0  0  0  0  0  0  0  0  0  0
    5.4023    0.9433    0.5756 C   0  0  0  0  0  0  0  0  0  0  0  0
   -5.5370    1.3090    1.5755 C   0  0  0  0  0  0  0  0  0  0  0  0
   -5.4691    1.3925   -0.8380 C   0  0  0  0  0  0  0  0  0  0  0  0
   -6.9217    1.1456    1.5310 C   0  0  0  0  0  0  0  0  0  0  0  0
   -6.8536    1.2291   -0.8827 C   0  0  0  0  0  0  0  0  0  0  0  0
    5.3302    0.6769   -0.7873 C   0  0  0  0  0  0  0  0  0  0  0  0
    5.7589    2.2234    0.9680 C   0  0  0  0  0  0  0  0  0  0  0  0
   -7.5799    1.1057    0.3018 C   0  0  0  0  0  0  0  0  0  0  0  0
    5.6129    1.6845   -1.7029 C   0  0  0  0  0  0  0  0  0  0  0  0
    5.9599    2.9314   -1.2084 C   0  0  0  0  0  0  0  0  0  0  0  0
   -0.2639   -0.3074   -0.7236 H   0  0  0  0  0  0  0  0  0  0  0  0
   -2.0671   -2.5587   -1.7310 H   0  0  0  0  0  0  0  0  0  0  0  0
    1.7055   -1.6886   -1.4794 H   0  0  0  0  0  0  0  0  0  0  0  0
    0.6385   -3.0645   -1.7212 H   0  0  0  0  0  0  0  0  0  0  0  0
    1.5528   -3.4760    0.3317 H   0  0  0  0  0  0  0  0  0  0  0  0
   -1.4419   -0.3423   -3.0711 H   0  0  0  0  0  0  0  0  0  0  0  0
   -2.5303   -3.0983    0.7382 H   0  0  0  0  0  0  0  0  0  0  0  0
   -3.8043   -1.3520   -0.5194 H   0  0  0  0  0  0  0  0  0  0  0  0
   -3.0077   -0.2497   -1.6432 H   0  0  0  0  0  0  0  0  0  0  0  0
    1.4027   -1.7509    2.2515 H   0  0  0  0  0  0  0  0  0  0  0  0
    1.0389   -0.5340    1.0086 H   0  0  0  0  0  0  0  0  0  0  0  0
    1.5696    0.1186   -2.8365 H   0  0  0  0  0  0  0  0  0  0  0  0
    0.2972    1.2662   -2.3847 H   0  0  0  0  0  0  0  0  0  0  0  0
    0.4859    0.7698   -4.0689 H   0  0  0  0  0  0  0  0  0  0  0  0
    0.9123   -2.1882   -3.7370 H   0  0  0  0  0  0  0  0  0  0  0  0
   -0.3539   -1.5905   -4.7826 H   0  0  0  0  0  0  0  0  0  0  0  0
   -0.7654   -2.7703   -3.5516 H   0  0  0  0  0  0  0  0  0  0  0  0
    0.2381   -4.7670    1.9684 H   0  0  0  0  0  0  0  0  0  0  0  0
   -1.3917   -4.2569    2.4118 H   0  0  0  0  0  0  0  0  0  0  0  0
   -0.0051   -3.3313    2.9872 H   0  0  0  0  0  0  0  0  0  0  0  0
   -2.3819   -0.4559    1.3053 H   0  0  0  0  0  0  0  0  0  0  0  0
    5.6033   -1.0483    1.2829 H   0  0  0  0  0  0  0  0  0  0  0  0
    5.5059    0.1340    2.5760 H   0  0  0  0  0  0  0  0  0  0  0  0
    3.4449    0.3589    3.6399 H   0  0  0  0  0  0  0  0  0  0  0  0
    1.9060    0.2406    2.7906 H   0  0  0  0  0  0  0  0  0  0  0  0
    3.0475    1.5078    2.3381 H   0  0  0  0  0  0  0  0  0  0  0  0
   -5.0442    1.3292    2.5433 H   0  0  0  0  0  0  0  0  0  0  0  0
   -4.9234    1.4838   -1.7727 H   0  0  0  0  0  0  0  0  0  0  0  0
   -7.4871    1.0474    2.4530 H   0  0  0  0  0  0  0  0  0  0  0  0
   -7.3663    1.1971   -1.8397 H   0  0  0  0  0  0  0  0  0  0  0  0
    5.0646   -0.3097   -1.1536 H   0  0  0  0  0  0  0  0  0  0  0  0
    5.8305    2.4938    2.0170 H   0  0  0  0  0  0  0  0  0  0  0  0
   -8.6578    0.9777    0.2670 H   0  0  0  0  0  0  0  0  0  0  0  0
    5.5647    1.4993   -2.7698 H   0  0  0  0  0  0  0  0  0  0  0  0
    6.1901    3.7511   -1.8811 H   0  0  0  0  0  0  0  0  0  0  0  0
  1  3  2  0  0  0  0
  1  4  2  0  0  0  0
  1  5  1  0  0  0  0
  1 21  1  0  0  0  0
  2 20  2  0  0  0  0
  5 15  1  0  0  0  0
  5 54  1  0  0  0  0
  6 20  1  0  0  0  0
  6 22  1  0  0  0  0
  6 23  1  0  0  0  0
  7 30  1  0  0  0  0
  7 33  2  0  0  0  0
  8  9  1  0  0  0  0
  8 10  1  0  0  0  0
  8 12  1  0  0  0  0
  8 34  1  0  0  0  0
  9 14  1  0  0  0  0
  9 15  1  0  0  0  0
  9 35  1  0  0  0  0
 10 11  1  0  0  0  0
 10 36  1  0  0  0  0
 10 37  1  0  0  0  0
 11 13  1  0  0  0  0
 11 16  1  0  0  0  0
 11 38  1  0  0  0  0
 12 17  1  0  0  0  0
 12 18  1  0  0  0  0
 12 39  1  0  0  0  0
 13 14  2  0  0  0  0
 13 19  1  0  0  0  0
 14 40  1  0  0  0  0
 15 41  1  0  0  0  0
 15 42  1  0  0  0  0
 16 20  1  0  0  0  0
 16 43  1  0  0  0  0
 16 44  1  0  0  0  0
 17 45  1  0  0  0  0
 17 46  1  0  0  0  0
 17 47  1  0  0  0  0
 18 48  1  0  0  0  0
 18 49  1  0  0  0  0
 18 50  1  0  0  0  0
 19 51  1  0  0  0  0
 19 52  1  0  0  0  0
 19 53  1  0  0  0  0
 21 25  2  0  0  0  0
 21 26  1  0  0  0  0
 22 24  1  0  0  0  0
 22 55  1  0  0  0  0
 22 56  1  0  0  0  0
 23 57  1  0  0  0  0
 23 58  1  0  0  0  0
 23 59  1  0  0  0  0
 24 29  1  0  0  0  0
 24 30  2  0  0  0  0
 25 27  1  0  0  0  0
 25 60  1  0  0  0  0
 26 28  2  0  0  0  0
 26 61  1  0  0  0  0
 27 31  2  0  0  0  0
 27 62  1  0  0  0  0
 28 31  1  0  0  0  0
 28 63  1  0  0  0  0
 29 32  2  0  0  0  0
 29 64  1  0  0  0  0
 30 65  1  0  0  0  0
 31 66  1  0  0  0  0
 32 33  1  0  0  0  0
 32 67  1  0  0  0  0
 33 68  1  0  0  0  0
M  END
> <PUBCHEM_COMPOUND_CID>
38029086

> <PUBCHEM_CONFORMER_RMSD>
1.4

> <PUBCHEM_CONFORMER_DIVERSEORDER>
1
28
18
39
19
146
119
90
144
22
148
33
94
101
118
78
62
127
129
50
152
25
110
109
60
41
98
130
58
140
97
115
145
79
137
77
132
134
71
2
69
92
72
113
76
84
66
30
46
105
150
131
75
114
128
20
88
65
135
59
54
32
73
83
67
100
102
24
104
122
16
136
10
55
86
106
82
31
93
68
48
149
111
14
120
8
117
23
123
112
27
56
26
80
45
143
96
95
51
147
47
52
13
42
61
138
151
124
116
49
5
87
36
99
70
38
103
89
35
12
21
74
108
64
29
17
9
63
44
126
133
37
11
107
85
91
81
4
141
34
125
40
15
121
142
7
139
3
6
57
53
43
153

> <PUBCHEM_MMFF94_PARTIAL_CHARGES>
39
1 1.45
11 0.14
13 -0.28
14 -0.29
15 0.36
16 0.06
19 0.14
2 -0.57
20 0.57
21 -0.01
22 0.44
23 0.3
24 -0.14
25 -0.15
26 -0.15
27 -0.15
28 -0.15
29 -0.15
3 -0.65
30 0.16
31 -0.15
32 -0.15
33 0.16
4 -0.65
40 0.15
5 -0.91
54 0.42
6 -0.66
60 0.15
61 0.15
62 0.15
63 0.15
64 0.15
65 0.15
66 0.15
67 0.15
68 0.15
7 -0.62
9 0.14

> <PUBCHEM_EFFECTIVE_ROTOR_COUNT>
10.8

> <PUBCHEM_PHARMACOPHORE_FEATURES>
9
1 2 acceptor
1 3 acceptor
1 4 acceptor
1 5 donor
1 7 acceptor
3 12 17 18 hydrophobe
6 21 25 26 27 28 31 rings
6 7 24 29 30 32 33 rings
6 8 9 10 11 13 14 rings

> <PUBCHEM_HEAVY_ATOM_COUNT>
33

> <PUBCHEM_ATOM_DEF_STEREO_COUNT>
3

> <PUBCHEM_ATOM_UDEF_STEREO_COUNT>
0

> <PUBCHEM_BOND_DEF_STEREO_COUNT>
0

> <PUBCHEM_BOND_UDEF_STEREO_COUNT>
0

> <PUBCHEM_ISOTOPIC_ATOM_COUNT>
0

> <PUBCHEM_COMPONENT_COUNT>
1

> <PUBCHEM_CACTVS_TAUTO_COUNT>
1

> <PUBCHEM_CONFORMER_ID>
0244471E00000001

> <PUBCHEM_MMFF94_ENERGY>
69.0493

> <PUBCHEM_FEATURE_SELFOVERLAP>
45.69

> <PUBCHEM_SHAPE_FINGERPRINT>
10693767 8 10879983649594428941
11578080 2 17131287800394832231
11720765 8 10519687995640420147
12373685 5 15719973439877699947
12422481 6 16805317799625374734
13004483 165 8070020082231249155
13885169 86 18335140920513112480
14537116 161 17131830928578342857
14565420 104 18040713628303081307
14765038 42 17460039698546610396
14840074 17 18186803590659741428
14849402 71 18192150387146962370
15131766 46 17459758214821826068
15163728 17 17703794699556093887
15183329 4 8934992698906439489
15297060 5 18411698829393456584
15338160 23 18042410307857064179
17980427 23 17822013138140818079
18393751 57 17967531268598844395
19309040 13 18339642356310338046
19319366 153 18339632357072656466
20567600 234 18113337488251372693
20775438 99 10518825952785601188
21315764 119 13470682646775383257
21458453 9 17894643555808066953
21716022 299 15121842227448855694
23536364 44 12535353350896821091
2838139 119 17774990246502426651
354706 35 12247389173034837572
3729539 64 12247679361941211397
4112364 45 17750251338326518829
44344687 77 11815626328189421701
50009960 94 14202261494867075737
6523845 18 17822295626909094030

> <PUBCHEM_SHAPE_MULTIPOLES>
650.42
17.36
3.97
2.86
7.42
1.63
-1.92
-20.7
4.11
-2.14
0.79
-0.99
0.9
-1.6

> <PUBCHEM_SHAPE_SELFOVERLAP>
1342.005

> <PUBCHEM_SHAPE_VOLUME>
374.7

> <PUBCHEM_COORDINATE_TYPE>
2
5
10

$$$$
