25390456
  -OEChem-12032416373D

 62 64  0     1  0  0  0  0  0999 V2000
   -1.3040    3.3321   -0.9618 S   0  0  0  0  0  0  0  0  0  0  0  0
   -3.1689   -1.0225   -1.2424 O   0  0  0  0  0  0  0  0  0  0  0  0
   -4.6740   -2.5783    1.6235 O   0  0  0  0  0  0  0  0  0  0  0  0
   -5.8400   -0.5733    0.1441 O   0  0  0  0  0  0  0  0  0  0  0  0
   -0.8372   -2.6919    1.3289 O   0  0  0  0  0  0  0  0  0  0  0  0
    6.1768   -1.2400   -0.6007 O   0  0  0  0  0  0  0  0  0  0  0  0
   -2.1909    4.1318   -0.1385 O   0  0  0  0  0  0  0  0  0  0  0  0
   -0.7936    3.8620   -2.2117 O   0  0  0  0  0  0  0  0  0  0  0  0
   -2.0208    1.8162   -1.2535 N   0  0  0  0  0  0  0  0  0  0  0  0
   -0.2875   -1.9796   -0.8138 N   0  0  0  0  0  0  0  0  0  0  0  0
    3.3863   -1.6814   -0.2541 N   0  0  0  0  0  0  0  0  0  0  0  0
   -3.8403   -1.6833    0.9189 C   0  0  2  0  0  0  0  0  0  0  0  0
   -4.5076   -0.3594    0.6085 C   0  0  1  0  0  0  0  0  0  0  0  0
   -3.5076   -2.1905   -0.4741 C   0  0  2  0  0  0  0  0  0  0  0  0
   -3.6741    0.1493   -0.5624 C   0  0  1  0  0  0  0  0  0  0  0  0
   -2.3492   -3.1715   -0.4972 C   0  0  0  0  0  0  0  0  0  0  0  0
   -2.4791    0.9852   -0.1247 C   0  0  0  0  0  0  0  0  0  0  0  0
   -1.0905   -2.6020    0.1306 C   0  0  0  0  0  0  0  0  0  0  0  0
    0.9713   -1.3498   -0.4875 C   0  0  0  0  0  0  0  0  0  0  0  0
    2.1253   -2.3356   -0.5976 C   0  0  0  0  0  0  0  0  0  0  0  0
    3.9076   -0.9200   -1.3979 C   0  0  0  0  0  0  0  0  0  0  0  0
    4.3815   -2.6672    0.1901 C   0  0  0  0  0  0  0  0  0  0  0  0
    5.2292   -0.2572   -1.0199 C   0  0  0  0  0  0  0  0  0  0  0  0
    5.6913   -1.9627    0.5313 C   0  0  0  0  0  0  0  0  0  0  0  0
    0.0967    2.8863    0.0201 C   0  0  0  0  0  0  0  0  0  0  0  0
    1.3129    2.5895   -0.5950 C   0  0  0  0  0  0  0  0  0  0  0  0
   -0.0149    2.8287    1.4093 C   0  0  0  0  0  0  0  0  0  0  0  0
    2.4177    2.2350    0.1793 C   0  0  0  0  0  0  0  0  0  0  0  0
    1.0898    2.4741    2.1834 C   0  0  0  0  0  0  0  0  0  0  0  0
    2.3062    2.1774    1.5686 C   0  0  0  0  0  0  0  0  0  0  0  0
    3.4875    1.7985    2.3963 C   0  0  0  0  0  0  0  0  0  0  0  0
   -2.9519   -1.4855    1.5241 H   0  0  0  0  0  0  0  0  0  0  0  0
   -4.5596    0.3139    1.4689 H   0  0  0  0  0  0  0  0  0  0  0  0
   -4.3804   -2.6620   -0.9428 H   0  0  0  0  0  0  0  0  0  0  0  0
   -4.2918    0.7027   -1.2797 H   0  0  0  0  0  0  0  0  0  0  0  0
   -2.1319   -3.4683   -1.5304 H   0  0  0  0  0  0  0  0  0  0  0  0
   -2.6098   -4.0854    0.0493 H   0  0  0  0  0  0  0  0  0  0  0  0
   -1.6475    0.3585    0.2085 H   0  0  0  0  0  0  0  0  0  0  0  0
   -2.7806    1.6429    0.6968 H   0  0  0  0  0  0  0  0  0  0  0  0
   -4.9538   -2.1340    2.4419 H   0  0  0  0  0  0  0  0  0  0  0  0
   -6.2155    0.2973   -0.0728 H   0  0  0  0  0  0  0  0  0  0  0  0
   -1.7429    1.3021   -2.0990 H   0  0  0  0  0  0  0  0  0  0  0  0
   -0.5870   -1.9518   -1.7840 H   0  0  0  0  0  0  0  0  0  0  0  0
    0.9085   -0.9366    0.5259 H   0  0  0  0  0  0  0  0  0  0  0  0
    1.0824   -0.5171   -1.1879 H   0  0  0  0  0  0  0  0  0  0  0  0
    2.1586   -2.7999   -1.5921 H   0  0  0  0  0  0  0  0  0  0  0  0
    1.9228   -3.1525    0.1086 H   0  0  0  0  0  0  0  0  0  0  0  0
    3.2068   -0.1411   -1.7127 H   0  0  0  0  0  0  0  0  0  0  0  0
    4.0737   -1.5874   -2.2539 H   0  0  0  0  0  0  0  0  0  0  0  0
    4.5587   -3.4094   -0.5993 H   0  0  0  0  0  0  0  0  0  0  0  0
    4.0251   -3.1960    1.0816 H   0  0  0  0  0  0  0  0  0  0  0  0
    5.6488    0.2605   -1.8884 H   0  0  0  0  0  0  0  0  0  0  0  0
    5.1043    0.4820   -0.2211 H   0  0  0  0  0  0  0  0  0  0  0  0
    5.5731   -1.2775    1.3798 H   0  0  0  0  0  0  0  0  0  0  0  0
    6.4514   -2.7012    0.8054 H   0  0  0  0  0  0  0  0  0  0  0  0
    1.4212    2.6222   -1.6754 H   0  0  0  0  0  0  0  0  0  0  0  0
   -0.9533    3.0521    1.9088 H   0  0  0  0  0  0  0  0  0  0  0  0
    3.3608    2.0202   -0.3119 H   0  0  0  0  0  0  0  0  0  0  0  0
    0.9888    2.4300    3.2646 H   0  0  0  0  0  0  0  0  0  0  0  0
    4.4098    2.2094    1.9719 H   0  0  0  0  0  0  0  0  0  0  0  0
    3.4024    2.1870    3.4167 H   0  0  0  0  0  0  0  0  0  0  0  0
    3.5770    0.7085    2.4449 H   0  0  0  0  0  0  0  0  0  0  0  0
  1  7  2  0  0  0  0
  1  8  2  0  0  0  0
  1  9  1  0  0  0  0
  1 25  1  0  0  0  0
  2 14  1  0  0  0  0
  2 15  1  0  0  0  0
  3 12  1  0  0  0  0
  3 40  1  0  0  0  0
  4 13  1  0  0  0  0
  4 41  1  0  0  0  0
  5 18  2  0  0  0  0
  6 23  1  0  0  0  0
  6 24  1  0  0  0  0
  9 17  1  0  0  0  0
  9 42  1  0  0  0  0
 10 18  1  0  0  0  0
 10 19  1  0  0  0  0
 10 43  1  0  0  0  0
 11 20  1  0  0  0  0
 11 21  1  0  0  0  0
 11 22  1  0  0  0  0
 12 13  1  0  0  0  0
 12 14  1  0  0  0  0
 12 32  1  0  0  0  0
 13 15  1  0  0  0  0
 13 33  1  0  0  0  0
 14 16  1  0  0  0  0
 14 34  1  0  0  0  0
 15 17  1  0  0  0  0
 15 35  1  0  0  0  0
 16 18  1  0  0  0  0
 16 36  1  0  0  0  0
 16 37  1  0  0  0  0
 17 38  1  0  0  0  0
 17 39  1  0  0  0  0
 19 20  1  0  0  0  0
 19 44  1  0  0  0  0
 19 45  1  0  0  0  0
 20 46  1  0  0  0  0
 20 47  1  0  0  0  0
 21 23  1  0  0  0  0
 21 48  1  0  0  0  0
 21 49  1  0  0  0  0
 22 24  1  0  0  0  0
 22 50  1  0  0  0  0
 22 51  1  0  0  0  0
 23 52  1  0  0  0  0
 23 53  1  0  0  0  0
 24 54  1  0  0  0  0
 24 55  1  0  0  0  0
 25 26  2  0  0  0  0
 25 27  1  0  0  0  0
 26 28  1  0  0  0  0
 26 56  1  0  0  0  0
 27 29  2  0  0  0  0
 27 57  1  0  0  0  0
 28 30  2  0  0  0  0
 28 58  1  0  0  0  0
 29 30  1  0  0  0  0
 29 59  1  0  0  0  0
 30 31  1  0  0  0  0
 31 60  1  0  0  0  0
 31 61  1  0  0  0  0
 31 62  1  0  0  0  0
M  END
> <PUBCHEM_COMPOUND_CID>
25390456

> <PUBCHEM_CONFORMER_RMSD>
1.4

> <PUBCHEM_CONFORMER_DIVERSEORDER>
1
12
21
61
58
17
67
53
19
14
83
106
97
57
55
101
34
90
118
29
103
104
46
108
75
6
25
20
39
95
81
68
11
114
73
18
109
87
44
116
24
59
48
80
37
54
98
3
72
50
52
36
35
115
66
107
112
93
111
5
117
32
110
27
56
86
82
62
23
60
84
105
96
99
22
33
77
30
51
47
85
7
43
45
42
13
49
4
76
88
78
113
102
71
64
15
26
92
41
10
65
31
94
40
70
63
2
91
9
74
28
69
16
100
79
38
8
89

> <PUBCHEM_MMFF94_PARTIAL_CHARGES>
39
1 1.45
10 -0.73
11 -0.81
12 0.28
13 0.28
14 0.28
15 0.28
16 0.06
17 0.36
18 0.57
19 0.3
2 -0.56
20 0.27
21 0.27
22 0.27
23 0.28
24 0.28
25 -0.01
26 -0.15
27 -0.15
28 -0.15
29 -0.15
3 -0.68
30 -0.14
31 0.14
4 -0.68
40 0.4
41 0.4
42 0.42
43 0.37
5 -0.57
56 0.15
57 0.15
58 0.15
59 0.15
6 -0.56
7 -0.65
8 -0.65
9 -0.91

> <PUBCHEM_EFFECTIVE_ROTOR_COUNT>
12.2

> <PUBCHEM_PHARMACOPHORE_FEATURES>
15
1 10 donor
1 11 cation
1 2 acceptor
1 3 acceptor
1 3 donor
1 4 acceptor
1 4 donor
1 5 acceptor
1 6 acceptor
1 7 acceptor
1 8 acceptor
1 9 donor
5 2 12 13 14 15 rings
6 25 26 27 28 29 30 rings
6 6 11 21 22 23 24 rings

> <PUBCHEM_HEAVY_ATOM_COUNT>
31

> <PUBCHEM_ATOM_DEF_STEREO_COUNT>
4

> <PUBCHEM_ATOM_UDEF_STEREO_COUNT>
0

> <PUBCHEM_BOND_DEF_STEREO_COUNT>
0

> <PUBCHEM_BOND_UDEF_STEREO_COUNT>
0

> <PUBCHEM_ISOTOPIC_ATOM_COUNT>
0

> <PUBCHEM_COMPONENT_COUNT>
1

> <PUBCHEM_CACTVS_TAUTO_COUNT>
2

> <PUBCHEM_CONFORMER_ID>
01836D7800000001

> <PUBCHEM_MMFF94_ENERGY>
51.4617

> <PUBCHEM_FEATURE_SELFOVERLAP>
76.155

> <PUBCHEM_SHAPE_FINGERPRINT>
12156800 1 17903326270288610330
12422481 6 18126538302300942224
12788726 201 18336555923860093294
13402501 40 18413107268848377278
13615921 28 17060050398406124401
14020679 6 17485649256090963769
14363568 33 18194973061033121480
14725015 67 18337946792856955795
14932702 115 18341055091118131396
150020 26 18053395575690262250
19311894 1 14887079710635145975
20642791 105 18046619015409484374
20721686 56 18338793515378404210
20764821 26 18266169716139331662
20775530 9 18413106182126738272
21344244 246 18054768840861624335
23559900 14 18263925608680476143
238918 7 17912053322065008072
329604 57 18336831901278054686
3737641 26 18341897454031431456
4112364 45 16200162018830569243
469060 322 18118144496847369616
508706 21 18263064626551100549
550186 83 17970891474859598752
57527585 103 17608362764313054707

> <PUBCHEM_SHAPE_MULTIPOLES>
585.79
10.85
5.6
1.71
4.92
3.06
0.5
-9.12
0.49
-0.72
-0.16
0.53
1.23
2.28

> <PUBCHEM_SHAPE_SELFOVERLAP>
1197.621

> <PUBCHEM_SHAPE_VOLUME>
340

> <PUBCHEM_COORDINATE_TYPE>
2
5
10

$$$$
