40777677
  -OEChem-12032416183D

 61 63  0     1  0  0  0  0  0999 V2000
   -8.0724    2.6022    0.9195 F   0  0  0  0  0  0  0  0  0  0  0  0
   -9.0111    0.6489    0.7430 F   0  0  0  0  0  0  0  0  0  0  0  0
   -8.6381    1.8466   -1.0331 F   0  0  0  0  0  0  0  0  0  0  0  0
    4.4879    1.5392   -0.6440 O   0  0  0  0  0  0  0  0  0  0  0  0
    9.3602    1.7953   -0.7034 O   0  0  0  0  0  0  0  0  0  0  0  0
    7.3090    2.4504   -1.4190 O   0  0  0  0  0  0  0  0  0  0  0  0
    3.6858   -0.4081    0.3313 N   0  0  0  0  0  0  0  0  0  0  0  0
   -3.0033   -0.9980   -0.3679 N   0  0  0  0  0  0  0  0  0  0  0  0
   -2.8819   -2.1225   -1.0938 N   0  0  0  0  0  0  0  0  0  0  0  0
    0.5991   -1.4591    0.1116 C   0  0  2  0  0  0  0  0  0  0  0  0
    1.3169   -0.1729   -0.3474 C   0  0  0  0  0  0  0  0  0  0  0  0
    2.3952    0.1044    0.7073 C   0  0  1  0  0  0  0  0  0  0  0  0
   -0.8760   -1.4700   -0.2176 C   0  0  0  0  0  0  0  0  0  0  0  0
    0.9153   -1.4984    1.5786 C   0  0  0  0  0  0  0  0  0  0  0  0
    1.8966   -0.6478    1.8971 C   0  0  0  0  0  0  0  0  0  0  0  0
    7.0215   -0.2418    0.4723 C   0  0  0  0  0  0  0  0  0  0  0  0
    5.9214   -0.3936   -0.6091 C   0  0  0  0  0  0  0  0  0  0  0  0
   -1.8306   -0.5654    0.1782 C   0  0  0  0  0  0  0  0  0  0  0  0
    4.6342    0.3624   -0.3205 C   0  0  0  0  0  0  0  0  0  0  0  0
   -1.5802   -2.4061   -0.9983 C   0  0  0  0  0  0  0  0  0  0  0  0
    7.4804    1.2237    0.6616 C   0  0  0  0  0  0  0  0  0  0  0  0
    8.2186   -1.1243    0.0592 C   0  0  0  0  0  0  0  0  0  0  0  0
    6.5133   -0.7613    1.8338 C   0  0  0  0  0  0  0  0  0  0  0  0
   -1.7240    0.6491    1.0122 C   0  0  0  0  0  0  0  0  0  0  0  0
   -1.0466   -3.5983   -1.6804 C   0  0  0  0  0  0  0  0  0  0  0  0
   -4.2527   -0.3913   -0.2354 C   0  0  0  0  0  0  0  0  0  0  0  0
    8.0120    1.8896   -0.5886 C   0  0  0  0  0  0  0  0  0  0  0  0
   -5.3112   -1.0917    0.3432 C   0  0  0  0  0  0  0  0  0  0  0  0
   -4.4440    0.9150   -0.6855 C   0  0  0  0  0  0  0  0  0  0  0  0
   -6.5608   -0.4856    0.4717 C   0  0  0  0  0  0  0  0  0  0  0  0
   -5.6937    1.5210   -0.5570 C   0  0  0  0  0  0  0  0  0  0  0  0
   -6.7522    0.8207    0.0217 C   0  0  0  0  0  0  0  0  0  0  0  0
   -8.0887    1.4679    0.1588 C   0  0  0  0  0  0  0  0  0  0  0  0
    1.0806   -2.3277   -0.3562 H   0  0  0  0  0  0  0  0  0  0  0  0
    1.7325   -0.2938   -1.3553 H   0  0  0  0  0  0  0  0  0  0  0  0
    0.6350    0.6840   -0.3982 H   0  0  0  0  0  0  0  0  0  0  0  0
    2.4653    1.1780    0.9114 H   0  0  0  0  0  0  0  0  0  0  0  0
    0.4349   -2.1594    2.2864 H   0  0  0  0  0  0  0  0  0  0  0  0
    2.2963   -0.5312    2.8946 H   0  0  0  0  0  0  0  0  0  0  0  0
    3.8934   -1.3844    0.5237 H   0  0  0  0  0  0  0  0  0  0  0  0
    5.6787   -1.4566   -0.7423 H   0  0  0  0  0  0  0  0  0  0  0  0
    6.2857   -0.0564   -1.5873 H   0  0  0  0  0  0  0  0  0  0  0  0
    8.2597    1.2850    1.4331 H   0  0  0  0  0  0  0  0  0  0  0  0
    6.6604    1.8490    1.0366 H   0  0  0  0  0  0  0  0  0  0  0  0
    9.0486   -1.0245    0.7677 H   0  0  0  0  0  0  0  0  0  0  0  0
    7.9360   -2.1830    0.0272 H   0  0  0  0  0  0  0  0  0  0  0  0
    8.5920   -0.8571   -0.9352 H   0  0  0  0  0  0  0  0  0  0  0  0
    5.7141   -0.1302    2.2365 H   0  0  0  0  0  0  0  0  0  0  0  0
    6.1288   -1.7841    1.7507 H   0  0  0  0  0  0  0  0  0  0  0  0
    7.3200   -0.7716    2.5761 H   0  0  0  0  0  0  0  0  0  0  0  0
   -1.6608    1.5440    0.3848 H   0  0  0  0  0  0  0  0  0  0  0  0
   -2.5819    0.7564    1.6843 H   0  0  0  0  0  0  0  0  0  0  0  0
   -0.8388    0.6353    1.6518 H   0  0  0  0  0  0  0  0  0  0  0  0
   -0.2758   -3.3140   -2.4042 H   0  0  0  0  0  0  0  0  0  0  0  0
   -1.8274   -4.1430   -2.2217 H   0  0  0  0  0  0  0  0  0  0  0  0
   -0.6004   -4.2876   -0.9562 H   0  0  0  0  0  0  0  0  0  0  0  0
   -5.1787   -2.1094    0.7027 H   0  0  0  0  0  0  0  0  0  0  0  0
   -3.6372    1.4734   -1.1537 H   0  0  0  0  0  0  0  0  0  0  0  0
   -7.3719   -1.0481    0.9259 H   0  0  0  0  0  0  0  0  0  0  0  0
   -5.8342    2.5379   -0.9138 H   0  0  0  0  0  0  0  0  0  0  0  0
    9.6891    2.2266   -1.5207 H   0  0  0  0  0  0  0  0  0  0  0  0
  1 33  1  0  0  0  0
  2 33  1  0  0  0  0
  3 33  1  0  0  0  0
  4 19  2  0  0  0  0
  5 27  1  0  0  0  0
  5 61  1  0  0  0  0
  6 27  2  0  0  0  0
  7 12  1  0  0  0  0
  7 19  1  0  0  0  0
  7 40  1  0  0  0  0
  8  9  1  0  0  0  0
  8 18  1  0  0  0  0
  8 26  1  0  0  0  0
  9 20  2  0  0  0  0
 10 11  1  0  0  0  0
 10 13  1  0  0  0  0
 10 14  1  0  0  0  0
 10 34  1  0  0  0  0
 11 12  1  0  0  0  0
 11 35  1  0  0  0  0
 11 36  1  0  0  0  0
 12 15  1  0  0  0  0
 12 37  1  0  0  0  0
 13 18  2  0  0  0  0
 13 20  1  0  0  0  0
 14 15  2  0  0  0  0
 14 38  1  0  0  0  0
 15 39  1  0  0  0  0
 16 17  1  0  0  0  0
 16 21  1  0  0  0  0
 16 22  1  0  0  0  0
 16 23  1  0  0  0  0
 17 19  1  0  0  0  0
 17 41  1  0  0  0  0
 17 42  1  0  0  0  0
 18 24  1  0  0  0  0
 20 25  1  0  0  0  0
 21 27  1  0  0  0  0
 21 43  1  0  0  0  0
 21 44  1  0  0  0  0
 22 45  1  0  0  0  0
 22 46  1  0  0  0  0
 22 47  1  0  0  0  0
 23 48  1  0  0  0  0
 23 49  1  0  0  0  0
 23 50  1  0  0  0  0
 24 51  1  0  0  0  0
 24 52  1  0  0  0  0
 24 53  1  0  0  0  0
 25 54  1  0  0  0  0
 25 55  1  0  0  0  0
 25 56  1  0  0  0  0
 26 28  2  0  0  0  0
 26 29  1  0  0  0  0
 28 30  1  0  0  0  0
 28 57  1  0  0  0  0
 29 31  2  0  0  0  0
 29 58  1  0  0  0  0
 30 32  2  0  0  0  0
 30 59  1  0  0  0  0
 31 32  1  0  0  0  0
 31 60  1  0  0  0  0
 32 33  1  0  0  0  0
M  END
> <PUBCHEM_COMPOUND_CID>
40777677

> <PUBCHEM_CONFORMER_RMSD>
1.2

> <PUBCHEM_CONFORMER_DIVERSEORDER>
1
17
53
64
78
91
56
22
104
70
29
20
15
81
58
39
98
5
54
65
74
21
72
76
75
66
61
47
60
63
82
31
49
6
99
38
97
30
106
80
28
9
37
77
45
27
18
32
35
95
3
93
100
62
8
36
12
67
24
101
83
41
103
71
26
92
105
84
88
85
50
23
69
42
89
102
87
43
68
51
19
46
73
48
52
7
55
16
33
25
96
40
94
14
44
79
59
90
11
86
4
34
57
10
13
2

> <PUBCHEM_MMFF94_PARTIAL_CHARGES>
37
1 -0.34
10 0.32
12 0.44
13 -0.18
14 -0.29
15 -0.29
17 0.06
18 -0.33
19 0.57
2 -0.34
20 0.11
21 0.06
24 0.18
25 0.18
26 -0.02
27 0.66
28 -0.15
29 -0.15
3 -0.34
30 -0.15
31 -0.15
32 -0.14
33 1.16
38 0.15
39 0.15
4 -0.57
40 0.37
5 -0.65
57 0.15
58 0.15
59 0.15
6 -0.57
60 0.15
61 0.5
7 -0.73
8 0.59
9 -0.71

> <PUBCHEM_EFFECTIVE_ROTOR_COUNT>
9.6

> <PUBCHEM_PHARMACOPHORE_FEATURES>
10
1 4 acceptor
1 5 acceptor
1 6 acceptor
1 7 donor
1 9 acceptor
3 16 22 23 hydrophobe
3 5 6 27 anion
5 10 11 12 14 15 rings
5 8 9 13 18 20 rings
6 26 28 29 30 31 32 rings

> <PUBCHEM_HEAVY_ATOM_COUNT>
33

> <PUBCHEM_ATOM_DEF_STEREO_COUNT>
2

> <PUBCHEM_ATOM_UDEF_STEREO_COUNT>
0

> <PUBCHEM_BOND_DEF_STEREO_COUNT>
0

> <PUBCHEM_BOND_UDEF_STEREO_COUNT>
0

> <PUBCHEM_ISOTOPIC_ATOM_COUNT>
0

> <PUBCHEM_COMPONENT_COUNT>
1

> <PUBCHEM_CACTVS_TAUTO_COUNT>
2

> <PUBCHEM_CONFORMER_ID>
026E37CD00000001

> <PUBCHEM_MMFF94_ENERGY>
79.5657

> <PUBCHEM_FEATURE_SELFOVERLAP>
50.806

> <PUBCHEM_SHAPE_FINGERPRINT>
10 15 18113899326420012273
10165383 225 18202844336544490215
10369192 42 18342453721574377301
10391435 84 11959432505904649940
10670039 82 17418094274659977825
10904742 90 18335137587850670755
11135609 99 9295279547624493712
11181472 205 18342182120637783000
11386260 185 15985094250097538672
12120059 9 15267337419299216110
12236239 1 18261106396563921618
12539765 74 18410860958404505390
13540713 4 16771524425504698051
14040221 8 17988368079598073440
14150022 121 14635141284138016631
14150023 24 18412259515514711655
14849402 71 17677053546245624764
14856354 85 17240204360963472115
15183329 4 17846503651484058610
15188451 53 9799695896029720230
15301273 46 14562525146429664411
15461852 350 17917986218257906687
1577012 14 18335978748921954398
15840311 113 18187930547713698702
15890870 6 18342174445784438877
16989713 51 17702656826230490167
20105231 36 13045940175905872984
2026 5 10735878370393941797
20505436 4 18333724728041140922
20554085 129 17417517047682123034
20721686 146 18336543816605652213
21756936 100 18187643660630159275
21781055 127 17560239107138379347
22224240 67 16153426159973100698
23559900 14 17417241169527243250
23576562 1 16271347738581069889
249057 3 17988924509078937024
3009799 131 16200432481421669298
3178227 256 15502095259046422756
335352 9 18131347527421796637
3711267 37 18261402113515731037
4073 2 17968380147605565922
4093350 32 18040429950467168218
4516262 110 18114170926444412015
45266715 3 15267355011305834820
474113 269 15913055258243347326
5219985 9 8070023381156606775
5265222 85 18057040422999392142
5758199 1 17385442124530187842
59682541 35 16298391257990091257
59755656 520 17603862334060188994
6698420 124 17821451257438594770
9689198 14 18260269650518213826
9953998 17 16443348685110621331

> <PUBCHEM_SHAPE_MULTIPOLES>
624.75
29.99
2.58
1.33
6.44
0.69
-0.26
-23.08
1.11
-1.08
1.18
0.98
0.33
-2.09

> <PUBCHEM_SHAPE_SELFOVERLAP>
1330.499

> <PUBCHEM_SHAPE_VOLUME>
351.1

> <PUBCHEM_COORDINATE_TYPE>
2
5
10

$$$$
