45783798
  -OEChem-12032416263D

 49 52  0     1  0  0  0  0  0999 V2000
   -4.7228    4.9355   -0.2256 Cl  0  0  0  0  0  0  0  0  0  0  0  0
    0.2894   -3.1265    1.1231 O   0  0  0  0  0  0  0  0  0  0  0  0
   -2.6738   -1.4394   -0.2473 N   0  0  1  0  0  0  0  0  0  0  0  0
    0.3058   -1.2843   -0.1508 N   0  0  0  0  0  0  0  0  0  0  0  0
    1.5897   -2.6115    1.1998 N   0  0  0  0  0  0  0  0  0  0  0  0
    4.9692   -0.1510    0.6185 N   0  0  0  0  0  0  0  0  0  0  0  0
    5.9458    1.7713   -0.3945 N   0  0  0  0  0  0  0  0  0  0  0  0
   -1.8550   -2.6287    0.0615 C   0  0  1  0  0  0  0  0  0  0  0  0
   -2.0488   -3.5618   -1.1479 C   0  0  0  0  0  0  0  0  0  0  0  0
   -3.0379   -2.8404   -2.0524 C   0  0  0  0  0  0  0  0  0  0  0  0
   -3.7616   -1.8993   -1.1107 C   0  0  0  0  0  0  0  0  0  0  0  0
   -3.1685   -0.7579    0.9420 C   0  0  0  0  0  0  0  0  0  0  0  0
   -0.4007   -2.2861    0.3084 C   0  0  0  0  0  0  0  0  0  0  0  0
   -3.5582    0.6669    0.6505 C   0  0  0  0  0  0  0  0  0  0  0  0
   -2.6153    1.6870    0.7760 C   0  0  0  0  0  0  0  0  0  0  0  0
   -4.8618    0.9668    0.2549 C   0  0  0  0  0  0  0  0  0  0  0  0
    1.5199   -1.5263    0.4231 C   0  0  0  0  0  0  0  0  0  0  0  0
    2.6444   -0.6644    0.1986 C   0  0  0  0  0  0  0  0  0  0  0  0
   -2.9758    3.0071    0.5061 C   0  0  0  0  0  0  0  0  0  0  0  0
   -5.2224    2.2869   -0.0150 C   0  0  0  0  0  0  0  0  0  0  0  0
   -4.2794    3.3071    0.1105 C   0  0  0  0  0  0  0  0  0  0  0  0
    2.5366    0.4563   -0.6174 C   0  0  0  0  0  0  0  0  0  0  0  0
    3.8715   -0.9219    0.7881 C   0  0  0  0  0  0  0  0  0  0  0  0
    3.6439    1.2736   -0.8162 C   0  0  0  0  0  0  0  0  0  0  0  0
    4.8264    0.9295   -0.1813 C   0  0  0  0  0  0  0  0  0  0  0  0
    7.2100    1.4764    0.2432 C   0  0  0  0  0  0  0  0  0  0  0  0
    5.8294    2.9351   -1.2450 C   0  0  0  0  0  0  0  0  0  0  0  0
   -2.2488   -3.1424    0.9501 H   0  0  0  0  0  0  0  0  0  0  0  0
   -1.1218   -3.7869   -1.6864 H   0  0  0  0  0  0  0  0  0  0  0  0
   -2.4829   -4.5121   -0.8139 H   0  0  0  0  0  0  0  0  0  0  0  0
   -3.7170   -3.5331   -2.5581 H   0  0  0  0  0  0  0  0  0  0  0  0
   -2.4960   -2.2731   -2.8194 H   0  0  0  0  0  0  0  0  0  0  0  0
   -4.5318   -2.4459   -0.5518 H   0  0  0  0  0  0  0  0  0  0  0  0
   -4.2336   -1.0857   -1.6690 H   0  0  0  0  0  0  0  0  0  0  0  0
   -4.0035   -1.2966    1.4106 H   0  0  0  0  0  0  0  0  0  0  0  0
   -2.3863   -0.7276    1.7133 H   0  0  0  0  0  0  0  0  0  0  0  0
   -1.5954    1.4664    1.0802 H   0  0  0  0  0  0  0  0  0  0  0  0
   -5.6083    0.1830    0.1586 H   0  0  0  0  0  0  0  0  0  0  0  0
   -2.2302    3.7916    0.6069 H   0  0  0  0  0  0  0  0  0  0  0  0
   -6.2420    2.5060   -0.3215 H   0  0  0  0  0  0  0  0  0  0  0  0
    1.6030    0.7161   -1.1098 H   0  0  0  0  0  0  0  0  0  0  0  0
    4.0391   -1.7754    1.4384 H   0  0  0  0  0  0  0  0  0  0  0  0
    3.5167    2.1362   -1.4589 H   0  0  0  0  0  0  0  0  0  0  0  0
    7.1052    1.4856    1.3337 H   0  0  0  0  0  0  0  0  0  0  0  0
    7.5800    0.4927   -0.0661 H   0  0  0  0  0  0  0  0  0  0  0  0
    7.9829    2.2084   -0.0143 H   0  0  0  0  0  0  0  0  0  0  0  0
    5.5671    2.6572   -2.2721 H   0  0  0  0  0  0  0  0  0  0  0  0
    5.0959    3.6479   -0.8515 H   0  0  0  0  0  0  0  0  0  0  0  0
    6.7785    3.4796   -1.3101 H   0  0  0  0  0  0  0  0  0  0  0  0
  1 21  1  0  0  0  0
  2  5  1  0  0  0  0
  2 13  1  0  0  0  0
  3  8  1  0  0  0  0
  3 11  1  0  0  0  0
  3 12  1  0  0  0  0
  4 13  2  0  0  0  0
  4 17  1  0  0  0  0
  5 17  2  0  0  0  0
  6 23  1  0  0  0  0
  6 25  2  0  0  0  0
  7 25  1  0  0  0  0
  7 26  1  0  0  0  0
  7 27  1  0  0  0  0
  8  9  1  0  0  0  0
  8 13  1  0  0  0  0
  8 28  1  0  0  0  0
  9 10  1  0  0  0  0
  9 29  1  0  0  0  0
  9 30  1  0  0  0  0
 10 11  1  0  0  0  0
 10 31  1  0  0  0  0
 10 32  1  0  0  0  0
 11 33  1  0  0  0  0
 11 34  1  0  0  0  0
 12 14  1  0  0  0  0
 12 35  1  0  0  0  0
 12 36  1  0  0  0  0
 14 15  2  0  0  0  0
 14 16  1  0  0  0  0
 15 19  1  0  0  0  0
 15 37  1  0  0  0  0
 16 20  2  0  0  0  0
 16 38  1  0  0  0  0
 17 18  1  0  0  0  0
 18 22  1  0  0  0  0
 18 23  2  0  0  0  0
 19 21  2  0  0  0  0
 19 39  1  0  0  0  0
 20 21  1  0  0  0  0
 20 40  1  0  0  0  0
 22 24  2  0  0  0  0
 22 41  1  0  0  0  0
 23 42  1  0  0  0  0
 24 25  1  0  0  0  0
 24 43  1  0  0  0  0
 26 44  1  0  0  0  0
 26 45  1  0  0  0  0
 26 46  1  0  0  0  0
 27 47  1  0  0  0  0
 27 48  1  0  0  0  0
 27 49  1  0  0  0  0
M  END
> <PUBCHEM_COMPOUND_CID>
45783798

> <PUBCHEM_CONFORMER_RMSD>
0.8

> <PUBCHEM_CONFORMER_DIVERSEORDER>
1
26
57
9
17
28
58
52
11
38
36
30
51
16
55
8
15
33
6
4
56
29
45
44
19
46
13
43
47
3
18
41
10
54
49
34
27
7
21
31
37
40
53
23
59
24
20
48
2
35
50
39
25
14
12
22
32
42
5

> <PUBCHEM_MMFF94_PARTIAL_CHARGES>
32
1 -0.18
11 0.27
12 0.41
13 0.3
14 -0.14
15 -0.15
16 -0.15
17 0.46
18 0.05
19 -0.15
2 -0.02
20 -0.15
21 0.18
22 -0.15
23 0.16
24 -0.15
25 0.41
26 0.37
27 0.37
3 -0.81
37 0.15
38 0.15
39 0.15
4 -0.57
40 0.15
41 0.15
42 0.15
43 0.15
5 -0.41
6 -0.62
7 -0.84
8 0.45

> <PUBCHEM_EFFECTIVE_ROTOR_COUNT>
6

> <PUBCHEM_PHARMACOPHORE_FEATURES>
7
1 3 cation
3 4 5 17 cation
3 6 7 25 cation
5 2 4 5 13 17 rings
5 3 8 9 10 11 rings
6 14 15 16 19 20 21 rings
6 6 18 22 23 24 25 rings

> <PUBCHEM_HEAVY_ATOM_COUNT>
27

> <PUBCHEM_ATOM_DEF_STEREO_COUNT>
1

> <PUBCHEM_ATOM_UDEF_STEREO_COUNT>
0

> <PUBCHEM_BOND_DEF_STEREO_COUNT>
0

> <PUBCHEM_BOND_UDEF_STEREO_COUNT>
0

> <PUBCHEM_ISOTOPIC_ATOM_COUNT>
0

> <PUBCHEM_COMPONENT_COUNT>
1

> <PUBCHEM_CACTVS_TAUTO_COUNT>
1

> <PUBCHEM_CONFORMER_ID>
02BA9AF600000001

> <PUBCHEM_MMFF94_ENERGY>
69.5038

> <PUBCHEM_FEATURE_SELFOVERLAP>
35.524

> <PUBCHEM_SHAPE_FINGERPRINT>
10087517 78 18267864059415909932
10411042 1 17763464315592074451
10670039 82 18340201998679667186
10864689 126 18268714918323739004
10871710 139 18411979196062817687
10917259 69 18266746784441766244
10937287 8 18339643317950319683
11477941 20 17770210875657145524
11828042 200 18268696360549937791
12107183 9 18191577563437923090
12788726 201 18271507772542424983
13761468 95 17915206579099429921
14114211 80 17915752985661824897
14251764 75 18197225741574091753
14294032 229 18273498979573247787
14556957 393 18196086870670037981
14790565 3 18334582360580555440
15064981 113 18060693988358287390
15183329 4 17969212495451138166
15289351 153 17977663440960991524
15575132 122 18411982443147465397
16988056 13 16900182262805436477
16992828 155 18334288747747342101
20511986 3 18114453483536934537
20715895 44 17472693629804441329
21033650 10 18196396864614838598
23516275 100 17406259410061028800
23559900 14 17333649376686815795
23569914 152 8212718954341561025
23576562 1 17767401284763693799
245318 6 18043269971452579029
2838139 119 18265051340935900987
312425 83 18201732742752114454
3388396 114 17619907704754849629
44249763 50 17774147033180392016
44802255 64 17488189382365936244
5048184 11 18410577240963716321
508706 21 18127959996030778352
5171179 24 17700405064211296832
531348 171 18130232639991151182
5372103 7 17606098617085481869
550186 7 18059583537100382238
550186 72 18410575055696372213
6036956 94 18044665432160644005
6299153 45 18335135355205817778
6327066 14 18339077086773974045
636775 72 18195526129122149152
6608658 132 18270110352912723823
6700243 42 17409407243236415606
7288768 16 17821734935554465843
7808743 9 18412262839322513427
7970288 3 9727341420651483841
9981440 41 18259994768511631595

> <PUBCHEM_SHAPE_MULTIPOLES>
526.74
15.02
5.57
1.19
19.85
2.24
-0.32
17.06
-1.45
-7.46
-1.15
-0.18
-0.72
-2.75

> <PUBCHEM_SHAPE_SELFOVERLAP>
1127.347

> <PUBCHEM_SHAPE_VOLUME>
296.2

> <PUBCHEM_COORDINATE_TYPE>
2
5
10

$$$$
