7143727
  -OEChem-12032416153D

 56 60  0     1  0  0  0  0  0999 V2000
    4.0082   -1.7018   -0.2680 S   0  0  0  0  0  0  0  0  0  0  0  0
    3.9999   -2.1606   -1.6400 O   0  0  0  0  0  0  0  0  0  0  0  0
    3.3796   -2.4610    0.7911 O   0  0  0  0  0  0  0  0  0  0  0  0
   -1.1094    1.2284   -1.8289 O   0  0  0  0  0  0  0  0  0  0  0  0
    3.4189   -0.0962   -0.2200 N   0  0  2  0  0  0  0  0  0  0  0  0
    0.7323    1.5525   -0.4352 N   0  0  0  0  0  0  0  0  0  0  0  0
    3.0642    2.1083   -1.3373 C   0  0  1  0  0  0  0  0  0  0  0  0
    2.7114    1.8991    1.0840 C   0  0  2  0  0  0  0  0  0  0  0  0
    3.2559    2.8198   -0.0046 C   0  0  0  0  0  0  0  0  0  0  0  0
    3.8333    0.7772   -1.3550 C   0  0  0  0  0  0  0  0  0  0  0  0
    3.5206    0.5896    1.1029 C   0  0  0  0  0  0  0  0  0  0  0  0
    1.5631    1.9208   -1.5900 C   0  0  0  0  0  0  0  0  0  0  0  0
    1.2387    1.6062    0.8654 C   0  0  0  0  0  0  0  0  0  0  0  0
    0.4301    1.3789    1.9127 C   0  0  0  0  0  0  0  0  0  0  0  0
   -0.6184    1.2503   -0.6988 C   0  0  0  0  0  0  0  0  0  0  0  0
    5.6933   -1.4008    0.1990 C   0  0  0  0  0  0  0  0  0  0  0  0
   -1.4917    0.9644    0.4932 C   0  0  0  0  0  0  0  0  0  0  0  0
   -0.9531    1.0475    1.7190 C   0  0  0  0  0  0  0  0  0  0  0  0
    6.4942   -2.6915    0.2439 C   0  0  0  0  0  0  0  0  0  0  0  0
   -2.9077    0.5917    0.3305 C   0  0  0  0  0  0  0  0  0  0  0  0
    7.9328   -2.4389    0.6629 C   0  0  0  0  0  0  0  0  0  0  0  0
   -3.2664   -0.7503    0.1951 C   0  0  0  0  0  0  0  0  0  0  0  0
   -3.8894    1.5788    0.3123 C   0  0  0  0  0  0  0  0  0  0  0  0
   -4.6121   -1.1212    0.0395 C   0  0  0  0  0  0  0  0  0  0  0  0
   -5.2312    1.2285    0.1589 C   0  0  0  0  0  0  0  0  0  0  0  0
   -5.6092   -0.1172    0.0213 C   0  0  0  0  0  0  0  0  0  0  0  0
   -4.9899   -2.4669   -0.0978 C   0  0  0  0  0  0  0  0  0  0  0  0
   -6.9548   -0.4882   -0.1344 C   0  0  0  0  0  0  0  0  0  0  0  0
   -6.3315   -2.8175   -0.2516 C   0  0  0  0  0  0  0  0  0  0  0  0
   -7.3120   -1.8301   -0.2701 C   0  0  0  0  0  0  0  0  0  0  0  0
    3.4698    2.7316   -2.1442 H   0  0  0  0  0  0  0  0  0  0  0  0
    2.8463    2.4010    2.0513 H   0  0  0  0  0  0  0  0  0  0  0  0
    2.7293    3.7825   -0.0006 H   0  0  0  0  0  0  0  0  0  0  0  0
    4.3177    3.0342    0.1674 H   0  0  0  0  0  0  0  0  0  0  0  0
    3.6397    0.2706   -2.3064 H   0  0  0  0  0  0  0  0  0  0  0  0
    4.9071    0.9842   -1.2913 H   0  0  0  0  0  0  0  0  0  0  0  0
    4.5646    0.8336    1.3254 H   0  0  0  0  0  0  0  0  0  0  0  0
    3.1430   -0.0677    1.8941 H   0  0  0  0  0  0  0  0  0  0  0  0
    1.1497    2.8694   -1.9595 H   0  0  0  0  0  0  0  0  0  0  0  0
    1.3951    1.1882   -2.3894 H   0  0  0  0  0  0  0  0  0  0  0  0
    0.7994    1.4074    2.9326 H   0  0  0  0  0  0  0  0  0  0  0  0
    5.7046   -0.9521    1.1946 H   0  0  0  0  0  0  0  0  0  0  0  0
    6.1386   -0.7126   -0.5234 H   0  0  0  0  0  0  0  0  0  0  0  0
   -1.5385    0.8498    2.6122 H   0  0  0  0  0  0  0  0  0  0  0  0
    6.0344   -3.3977    0.9452 H   0  0  0  0  0  0  0  0  0  0  0  0
    6.4851   -3.1747   -0.7402 H   0  0  0  0  0  0  0  0  0  0  0  0
    8.4915   -3.3798    0.6866 H   0  0  0  0  0  0  0  0  0  0  0  0
    8.4334   -1.7644   -0.0392 H   0  0  0  0  0  0  0  0  0  0  0  0
    7.9785   -1.9919    1.6611 H   0  0  0  0  0  0  0  0  0  0  0  0
   -2.4937   -1.5181    0.2093 H   0  0  0  0  0  0  0  0  0  0  0  0
   -3.6262    2.6289    0.4156 H   0  0  0  0  0  0  0  0  0  0  0  0
   -5.9807    2.0170    0.1475 H   0  0  0  0  0  0  0  0  0  0  0  0
   -4.2404   -3.2556   -0.0864 H   0  0  0  0  0  0  0  0  0  0  0  0
   -7.7380    0.2669   -0.1515 H   0  0  0  0  0  0  0  0  0  0  0  0
   -6.6102   -3.8619   -0.3571 H   0  0  0  0  0  0  0  0  0  0  0  0
   -8.3563   -2.1037   -0.3898 H   0  0  0  0  0  0  0  0  0  0  0  0
  1  2  2  0  0  0  0
  1  3  2  0  0  0  0
  1  5  1  0  0  0  0
  1 16  1  0  0  0  0
  4 15  2  0  0  0  0
  5 10  1  0  0  0  0
  5 11  1  0  0  0  0
  6 12  1  0  0  0  0
  6 13  1  0  0  0  0
  6 15  1  0  0  0  0
  7  9  1  0  0  0  0
  7 10  1  0  0  0  0
  7 12  1  0  0  0  0
  7 31  1  0  0  0  0
  8  9  1  0  0  0  0
  8 11  1  0  0  0  0
  8 13  1  0  0  0  0
  8 32  1  0  0  0  0
  9 33  1  0  0  0  0
  9 34  1  0  0  0  0
 10 35  1  0  0  0  0
 10 36  1  0  0  0  0
 11 37  1  0  0  0  0
 11 38  1  0  0  0  0
 12 39  1  0  0  0  0
 12 40  1  0  0  0  0
 13 14  2  0  0  0  0
 14 18  1  0  0  0  0
 14 41  1  0  0  0  0
 15 17  1  0  0  0  0
 16 19  1  0  0  0  0
 16 42  1  0  0  0  0
 16 43  1  0  0  0  0
 17 18  2  0  0  0  0
 17 20  1  0  0  0  0
 18 44  1  0  0  0  0
 19 21  1  0  0  0  0
 19 45  1  0  0  0  0
 19 46  1  0  0  0  0
 20 22  2  0  0  0  0
 20 23  1  0  0  0  0
 21 47  1  0  0  0  0
 21 48  1  0  0  0  0
 21 49  1  0  0  0  0
 22 24  1  0  0  0  0
 22 50  1  0  0  0  0
 23 25  2  0  0  0  0
 23 51  1  0  0  0  0
 24 26  1  0  0  0  0
 24 27  2  0  0  0  0
 25 26  1  0  0  0  0
 25 52  1  0  0  0  0
 26 28  2  0  0  0  0
 27 29  1  0  0  0  0
 27 53  1  0  0  0  0
 28 30  1  0  0  0  0
 28 54  1  0  0  0  0
 29 30  2  0  0  0  0
 29 55  1  0  0  0  0
 30 56  1  0  0  0  0
M  END
> <PUBCHEM_COMPOUND_CID>
7143727

> <PUBCHEM_CONFORMER_RMSD>
0.8

> <PUBCHEM_CONFORMER_DIVERSEORDER>
1
13
12
27
25
21
5
10
22
7
17
19
28
6
9
2
18
11
15
20
26
23
8
16
4
3
14
24

> <PUBCHEM_MMFF94_PARTIAL_CHARGES>
33
1 1.33
10 0.36
11 0.36
12 0.3
13 -0.03
14 -0.15
15 0.62
16 0.11
17 -0.01
18 -0.15
2 -0.65
20 0.03
22 -0.15
23 -0.15
25 -0.15
27 -0.15
28 -0.15
29 -0.15
3 -0.65
30 -0.15
4 -0.57
41 0.15
44 0.15
5 -0.85
50 0.15
51 0.15
52 0.15
53 0.15
54 0.15
55 0.15
56 0.15
6 -0.47
8 0.14

> <PUBCHEM_EFFECTIVE_ROTOR_COUNT>
5

> <PUBCHEM_PHARMACOPHORE_FEATURES>
9
1 2 acceptor
1 21 hydrophobe
1 3 acceptor
1 4 acceptor
6 20 22 23 24 25 26 rings
6 24 26 27 28 29 30 rings
6 5 7 8 9 10 11 rings
6 6 13 14 15 17 18 rings
6 6 7 8 9 12 13 rings

> <PUBCHEM_HEAVY_ATOM_COUNT>
30

> <PUBCHEM_ATOM_DEF_STEREO_COUNT>
2

> <PUBCHEM_ATOM_UDEF_STEREO_COUNT>
0

> <PUBCHEM_BOND_DEF_STEREO_COUNT>
0

> <PUBCHEM_BOND_UDEF_STEREO_COUNT>
0

> <PUBCHEM_ISOTOPIC_ATOM_COUNT>
0

> <PUBCHEM_COMPONENT_COUNT>
1

> <PUBCHEM_CACTVS_TAUTO_COUNT>
1

> <PUBCHEM_CONFORMER_ID>
006D012F00000001

> <PUBCHEM_MMFF94_ENERGY>
74.158

> <PUBCHEM_FEATURE_SELFOVERLAP>
47.3

> <PUBCHEM_SHAPE_FINGERPRINT>
10595046 47 18338523057404654181
10670039 82 14562808807312393470
11135609 12 18412254048252633906
11135609 99 18273212006727350246
117089 54 18117003393406172635
11796584 16 18201167589522239085
11963148 33 17981319303204197487
11991303 11 14490478629644799945
12107183 9 18195534697064537377
12120059 20 18268451117395583054
12522641 33 18041849549423731652
12895836 83 12107800617688566616
13533116 47 18340487867376487473
1361 2 18114465659731684699
1361 4 18265899253638570235
13782708 43 18409728460720253911
14068700 675 18337673019194359560
14211702 104 18263086673072541571
14251751 18 18412824668405612178
14347332 77 18410292515298214181
14910302 57 18335693962514921989
14951699 99 9295289443482136883
15183329 4 18186800322985428127
15475509 35 18131347539789942107
15510800 12 18059862718554455382
15799311 1 18270136702906024643
16993427 108 17677879142846025794
17349148 13 15769787887594486609
17857418 61 18342178886395546503
19438510 23 10015572905389515974
1979834 28 16200442355150173500
19958102 18 18261664966020024903
20028762 73 18342177747971672950
20567600 247 18408324380076798746
20775438 99 17823978038128143258
21033648 29 14261364522573167289
21033650 10 16588299424566924453
21585483 132 18336811079077449187
21641784 216 14996550781973206479
23522609 53 18121253975892872220
23559900 14 18268986652614698745
23569943 247 18042122068364865563
25222932 49 17559106803529606925
25269216 80 14707501347443512235
2838139 119 8213840584485576434
29717793 49 18040710420500366277
3004659 81 18335136496701767218
338550 245 18411136982423788255
34797466 226 17604148254971161109
376196 1 15796536977931452620
3886686 26 16910337437645428635
4066623 53 15502093047460188814
4073 2 18191590959245194585
4340502 62 18058164106439242536
439807 62 18411421730698380251
46194498 28 17603865658385539996
465052 167 17846785130170511829
5104073 3 17632584863859819761
513532 50 17894906386680034800
5718773 13 18410572864555805834
6695519 79 17331705924579615832
7970288 3 18053951658429275214

> <PUBCHEM_SHAPE_MULTIPOLES>
593.67
18.96
3.44
1.39
7.74
1.5
-0.08
19.62
-0.11
-3.03
-0.15
-1.17
-0.66
-1.06

> <PUBCHEM_SHAPE_SELFOVERLAP>
1288.357

> <PUBCHEM_SHAPE_VOLUME>
325.2

> <PUBCHEM_COORDINATE_TYPE>
2
5
10

$$$$
