75536062
  -OEChem-12032416293D

 42 44  0     1  0  0  0  0  0999 V2000
    0.0782    3.3439   -0.2145 O   0  0  0  0  0  0  0  0  0  0  0  0
    2.7871    2.9661   -0.4568 O   0  0  0  0  0  0  0  0  0  0  0  0
   -1.5329    0.9487   -1.6230 O   0  0  0  0  0  0  0  0  0  0  0  0
   -5.0268   -0.7936    0.0173 O   0  0  0  0  0  0  0  0  0  0  0  0
   -0.5789    0.3758    0.4121 N   0  0  0  0  0  0  0  0  0  0  0  0
    3.1233   -3.1113    0.1053 N   0  0  0  0  0  0  0  0  0  0  0  0
   -4.3585   -1.7071    0.8235 N   0  0  0  0  0  0  0  0  0  0  0  0
    1.8278    0.3411    0.9963 C   0  0  2  0  0  0  0  0  0  0  0  0
    0.6943    1.0126    0.1886 C   0  0  2  0  0  0  0  0  0  0  0  0
    0.7063    2.4557    0.6906 C   0  0  1  0  0  0  0  0  0  0  0  0
    2.7722    1.4903    1.4346 C   0  0  0  0  0  0  0  0  0  0  0  0
    2.1930    2.7639    0.8218 C   0  0  1  0  0  0  0  0  0  0  0  0
    2.5141   -0.7755    0.2382 C   0  0  0  0  0  0  0  0  0  0  0  0
    3.1502   -0.5330   -0.9741 C   0  0  0  0  0  0  0  0  0  0  0  0
   -1.6011    0.3980   -0.5273 C   0  0  0  0  0  0  0  0  0  0  0  0
    2.5288   -2.0705    0.7307 C   0  0  0  0  0  0  0  0  0  0  0  0
   -2.8618   -0.2825   -0.1344 C   0  0  0  0  0  0  0  0  0  0  0  0
    3.7730   -1.5782   -1.6474 C   0  0  0  0  0  0  0  0  0  0  0  0
    3.7315   -2.8372   -1.0705 C   0  0  0  0  0  0  0  0  0  0  0  0
   -4.1249    0.0494   -0.5476 C   0  0  0  0  0  0  0  0  0  0  0  0
   -3.0670   -1.3820    0.7170 C   0  0  0  0  0  0  0  0  0  0  0  0
   -4.6703    1.0845   -1.4363 C   0  0  0  0  0  0  0  0  0  0  0  0
   -2.0577   -2.1591    1.4559 C   0  0  0  0  0  0  0  0  0  0  0  0
    1.4086   -0.0874    1.9185 H   0  0  0  0  0  0  0  0  0  0  0  0
    0.8863    1.0023   -0.8914 H   0  0  0  0  0  0  0  0  0  0  0  0
    0.2061    2.5331    1.6644 H   0  0  0  0  0  0  0  0  0  0  0  0
    2.7359    1.5689    2.5285 H   0  0  0  0  0  0  0  0  0  0  0  0
    3.8159    1.3221    1.1488 H   0  0  0  0  0  0  0  0  0  0  0  0
    2.3809    3.6564    1.4260 H   0  0  0  0  0  0  0  0  0  0  0  0
   -0.7569   -0.0029    1.3355 H   0  0  0  0  0  0  0  0  0  0  0  0
    0.2063    4.2459    0.1255 H   0  0  0  0  0  0  0  0  0  0  0  0
    3.7372    3.1185   -0.3166 H   0  0  0  0  0  0  0  0  0  0  0  0
    3.1762    0.4607   -1.4100 H   0  0  0  0  0  0  0  0  0  0  0  0
    2.0494   -2.3254    1.6707 H   0  0  0  0  0  0  0  0  0  0  0  0
    4.2757   -1.4124   -2.5933 H   0  0  0  0  0  0  0  0  0  0  0  0
    4.2023   -3.6860   -1.5555 H   0  0  0  0  0  0  0  0  0  0  0  0
   -4.4325    0.8567   -2.4799 H   0  0  0  0  0  0  0  0  0  0  0  0
   -5.7588    1.1570   -1.3456 H   0  0  0  0  0  0  0  0  0  0  0  0
   -4.2496    2.0653   -1.1937 H   0  0  0  0  0  0  0  0  0  0  0  0
   -1.7734   -1.6467    2.3804 H   0  0  0  0  0  0  0  0  0  0  0  0
   -2.4427   -3.1470    1.7330 H   0  0  0  0  0  0  0  0  0  0  0  0
   -1.1594   -2.3256    0.8529 H   0  0  0  0  0  0  0  0  0  0  0  0
  1 10  1  0  0  0  0
  1 31  1  0  0  0  0
  2 12  1  0  0  0  0
  2 32  1  0  0  0  0
  3 15  2  0  0  0  0
  4  7  1  0  0  0  0
  4 20  1  0  0  0  0
  5  9  1  0  0  0  0
  5 15  1  0  0  0  0
  5 30  1  0  0  0  0
  6 16  1  0  0  0  0
  6 19  2  0  0  0  0
  7 21  2  0  0  0  0
  8  9  1  0  0  0  0
  8 11  1  0  0  0  0
  8 13  1  0  0  0  0
  8 24  1  0  0  0  0
  9 10  1  0  0  0  0
  9 25  1  0  0  0  0
 10 12  1  0  0  0  0
 10 26  1  0  0  0  0
 11 12  1  0  0  0  0
 11 27  1  0  0  0  0
 11 28  1  0  0  0  0
 12 29  1  0  0  0  0
 13 14  1  0  0  0  0
 13 16  2  0  0  0  0
 14 18  2  0  0  0  0
 14 33  1  0  0  0  0
 15 17  1  0  0  0  0
 16 34  1  0  0  0  0
 17 20  2  0  0  0  0
 17 21  1  0  0  0  0
 18 19  1  0  0  0  0
 18 35  1  0  0  0  0
 19 36  1  0  0  0  0
 20 22  1  0  0  0  0
 21 23  1  0  0  0  0
 22 37  1  0  0  0  0
 22 38  1  0  0  0  0
 22 39  1  0  0  0  0
 23 40  1  0  0  0  0
 23 41  1  0  0  0  0
 23 42  1  0  0  0  0
M  END
> <PUBCHEM_COMPOUND_CID>
75536062

> <PUBCHEM_CONFORMER_RMSD>
0.8

> <PUBCHEM_CONFORMER_DIVERSEORDER>
1
60
28
26
41
22
49
43
51
15
17
42
52
38
57
24
2
36
39
27
45
58
40
11
53
35
16
25
23
7
8
14
32
5
10
29
50
55
31
6
44
37
4
56
59
30
33
12
47
18
34
13
46
21
19
48
9
20
3
54

> <PUBCHEM_MMFF94_PARTIAL_CHARGES>
29
1 -0.68
10 0.28
12 0.28
13 -0.14
14 -0.15
15 0.72
16 0.16
17 -0.09
18 -0.15
19 0.16
2 -0.68
20 -0.04
21 0.11
22 0.18
23 0.18
3 -0.57
30 0.37
31 0.4
32 0.4
33 0.15
34 0.15
35 0.15
36 0.15
4 -0.02
5 -0.73
6 -0.62
7 -0.41
8 0.14
9 0.3

> <PUBCHEM_EFFECTIVE_ROTOR_COUNT>
5

> <PUBCHEM_PHARMACOPHORE_FEATURES>
11
1 1 acceptor
1 1 donor
1 2 acceptor
1 2 donor
1 3 acceptor
1 5 donor
1 6 acceptor
1 7 acceptor
5 4 7 17 20 21 rings
5 8 9 10 11 12 rings
6 6 13 14 16 18 19 rings

> <PUBCHEM_HEAVY_ATOM_COUNT>
23

> <PUBCHEM_ATOM_DEF_STEREO_COUNT>
4

> <PUBCHEM_ATOM_UDEF_STEREO_COUNT>
0

> <PUBCHEM_BOND_DEF_STEREO_COUNT>
0

> <PUBCHEM_BOND_UDEF_STEREO_COUNT>
0

> <PUBCHEM_ISOTOPIC_ATOM_COUNT>
0

> <PUBCHEM_COMPONENT_COUNT>
1

> <PUBCHEM_CACTVS_TAUTO_COUNT>
2

> <PUBCHEM_CONFORMER_ID>
048096BE00000001

> <PUBCHEM_MMFF94_ENERGY>
52.6763

> <PUBCHEM_FEATURE_SELFOVERLAP>
55.834

> <PUBCHEM_SHAPE_FINGERPRINT>
10369192 42 17973442393418332116
114674 6 18335980960339904650
11595378 159 15051737503669570387
116883 192 18339916009355374408
12363563 72 18129101121871101926
12553582 1 18267033751689806970
12623949 98 18123771991302547919
12707595 3 18341895156223765702
12788726 201 17905048053884311266
13533116 47 18272655701299131179
13544592 145 18261949661757684711
13583140 156 17201343308185374513
14251757 17 18335414664964980219
14251757 5 18119536427139471853
14866123 147 17620757180919189155
15422964 175 18411411817460089464
15635459 17 18336546113547868291
15664445 248 17531252806749475644
1813 80 17559973042820246398
20600515 1 17904171786415254896
20645477 70 18272364299998722239
20693207 138 18333729100570126799
20832881 197 18265332807507410571
20871999 31 18191874426759624356
21279426 13 18265319618064174157
2215653 11 18410286979069480871
23557571 272 17895188947777004149
23559900 14 18335978705423434325
2838139 119 16009898167626926358
3004659 81 17896039841297493130
314173 41 18411423877712581726
329604 57 18338242557780859998
3421961 26 18343300362185459010
5895379 119 15142616447325482966
633830 44 18336529561540260693
6823239 73 18334859449973540722
81228 2 17695904432801674088
9709674 26 18263640835248380299

> <PUBCHEM_SHAPE_MULTIPOLES>
434.91
9.02
3.7
1.42
8.39
1.15
0.19
-4.86
2.22
-3.85
-0.37
-0.14
-0.22
2.27

> <PUBCHEM_SHAPE_SELFOVERLAP>
931.917

> <PUBCHEM_SHAPE_VOLUME>
241.4

> <PUBCHEM_COORDINATE_TYPE>
2
5
10

$$$$
