40586225
  -OEChem-12032416113D

 70 74  0     1  0  0  0  0  0999 V2000
    1.0949    2.5908   -2.0019 O   0  0  0  0  0  0  0  0  0  0  0  0
    2.8079   -2.1885   -1.6825 O   0  0  0  0  0  0  0  0  0  0  0  0
   -2.3494    1.7831    1.3026 O   0  0  0  0  0  0  0  0  0  0  0  0
   -1.8476   -2.8644   -2.4231 O   0  0  0  0  0  0  0  0  0  0  0  0
   -2.2596   -3.8330    2.2327 O   0  0  0  0  0  0  0  0  0  0  0  0
    2.5407    1.8260   -0.3332 N   0  0  0  0  0  0  0  0  0  0  0  0
    3.8696   -1.0084   -0.0029 N   0  0  0  0  0  0  0  0  0  0  0  0
   -1.0077    2.8821   -0.2568 N   0  0  0  0  0  0  0  0  0  0  0  0
    1.9658   -2.3139    0.4759 N   0  0  0  0  0  0  0  0  0  0  0  0
    4.9428    1.0792   -0.8193 C   0  0  2  0  0  0  0  0  0  0  0  0
    4.0646    0.9662    1.4804 C   0  0  2  0  0  0  0  0  0  0  0  0
    5.2119    1.5008    0.6221 C   0  0  0  0  0  0  0  0  0  0  0  0
    3.6528    1.7615   -1.2932 C   0  0  0  0  0  0  0  0  0  0  0  0
    4.8604   -0.4564   -0.9300 C   0  0  0  0  0  0  0  0  0  0  0  0
    4.0440   -0.5720    1.3931 C   0  0  0  0  0  0  0  0  0  0  0  0
    2.7319    1.5259    1.0201 C   0  0  0  0  0  0  0  0  0  0  0  0
    1.7298    1.6954    1.8987 C   0  0  0  0  0  0  0  0  0  0  0  0
    1.3061    2.2967   -0.8245 C   0  0  0  0  0  0  0  0  0  0  0  0
    2.8730   -1.8802   -0.4898 C   0  0  0  0  0  0  0  0  0  0  0  0
    0.2078    2.4467    0.1822 C   0  0  0  0  0  0  0  0  0  0  0  0
    0.4429    2.1638    1.4677 C   0  0  0  0  0  0  0  0  0  0  0  0
   -3.3904    3.1540   -0.3494 C   0  0  0  0  0  0  0  0  0  0  0  0
   -3.8620    2.2890   -1.5200 C   0  0  0  0  0  0  0  0  0  0  0  0
   -4.5019    3.4363    0.6635 C   0  0  0  0  0  0  0  0  0  0  0  0
   -4.6470    1.0520   -1.0845 C   0  0  0  0  0  0  0  0  0  0  0  0
   -5.2636    2.1798    1.0821 C   0  0  0  0  0  0  0  0  0  0  0  0
   -5.7779    1.4052   -0.1257 C   0  0  0  0  0  0  0  0  0  0  0  0
   -2.2097    2.5327    0.3388 C   0  0  0  0  0  0  0  0  0  0  0  0
    0.6070   -2.6640    0.2828 C   0  0  0  0  0  0  0  0  0  0  0  0
   -0.1665   -3.0813    1.3659 C   0  0  0  0  0  0  0  0  0  0  0  0
    0.0420   -2.5911   -0.9905 C   0  0  0  0  0  0  0  0  0  0  0  0
   -1.2963   -2.9353   -1.1807 C   0  0  0  0  0  0  0  0  0  0  0  0
   -1.5049   -3.4255    1.1758 C   0  0  0  0  0  0  0  0  0  0  0  0
   -2.0697   -3.3525   -0.0975 C   0  0  0  0  0  0  0  0  0  0  0  0
   -3.2211   -3.2309   -2.5455 C   0  0  0  0  0  0  0  0  0  0  0  0
   -3.6206   -4.1696    1.9667 C   0  0  0  0  0  0  0  0  0  0  0  0
    5.7671    1.4145   -1.4607 H   0  0  0  0  0  0  0  0  0  0  0  0
    4.2524    1.2554    2.5224 H   0  0  0  0  0  0  0  0  0  0  0  0
    5.2803    2.5931    0.6998 H   0  0  0  0  0  0  0  0  0  0  0  0
    6.1703    1.0934    0.9666 H   0  0  0  0  0  0  0  0  0  0  0  0
    3.8809    2.8049   -1.5504 H   0  0  0  0  0  0  0  0  0  0  0  0
    3.2901    1.2955   -2.2181 H   0  0  0  0  0  0  0  0  0  0  0  0
    4.6409   -0.7468   -1.9624 H   0  0  0  0  0  0  0  0  0  0  0  0
    5.8273   -0.9032   -0.6680 H   0  0  0  0  0  0  0  0  0  0  0  0
    4.9965   -0.9879    1.7436 H   0  0  0  0  0  0  0  0  0  0  0  0
    3.2683   -0.9561    2.0563 H   0  0  0  0  0  0  0  0  0  0  0  0
    1.8508    1.4590    2.9508 H   0  0  0  0  0  0  0  0  0  0  0  0
   -0.2854    2.2980    2.2587 H   0  0  0  0  0  0  0  0  0  0  0  0
   -3.0650    4.1237   -0.7511 H   0  0  0  0  0  0  0  0  0  0  0  0
   -3.0130    1.9749   -2.1391 H   0  0  0  0  0  0  0  0  0  0  0  0
   -4.5091    2.8985   -2.1640 H   0  0  0  0  0  0  0  0  0  0  0  0
   -5.2143    4.1401    0.2137 H   0  0  0  0  0  0  0  0  0  0  0  0
   -4.0978    3.9299    1.5559 H   0  0  0  0  0  0  0  0  0  0  0  0
   -3.9689    0.3374   -0.6022 H   0  0  0  0  0  0  0  0  0  0  0  0
   -5.0568    0.5489   -1.9678 H   0  0  0  0  0  0  0  0  0  0  0  0
   -6.1168    2.4750    1.7050 H   0  0  0  0  0  0  0  0  0  0  0  0
   -4.6511    1.5246    1.7084 H   0  0  0  0  0  0  0  0  0  0  0  0
   -6.5303    2.0049   -0.6526 H   0  0  0  0  0  0  0  0  0  0  0  0
   -6.2778    0.4891    0.2088 H   0  0  0  0  0  0  0  0  0  0  0  0
   -1.0353    3.2968   -1.1851 H   0  0  0  0  0  0  0  0  0  0  0  0
    2.2843   -2.3899    1.4352 H   0  0  0  0  0  0  0  0  0  0  0  0
    0.2668   -3.1401    2.3615 H   0  0  0  0  0  0  0  0  0  0  0  0
    0.5842   -2.2478   -1.8628 H   0  0  0  0  0  0  0  0  0  0  0  0
   -3.1058   -3.6184   -0.2445 H   0  0  0  0  0  0  0  0  0  0  0  0
   -3.4912   -3.1150   -3.6005 H   0  0  0  0  0  0  0  0  0  0  0  0
   -3.8715   -2.5566   -1.9776 H   0  0  0  0  0  0  0  0  0  0  0  0
   -3.3832   -4.2842   -2.2920 H   0  0  0  0  0  0  0  0  0  0  0  0
   -4.0684   -4.4710    2.9195 H   0  0  0  0  0  0  0  0  0  0  0  0
   -3.7003   -5.0305    1.2941 H   0  0  0  0  0  0  0  0  0  0  0  0
   -4.1892   -3.3037    1.6106 H   0  0  0  0  0  0  0  0  0  0  0  0
  1 18  2  0  0  0  0
  2 19  2  0  0  0  0
  3 28  2  0  0  0  0
  4 32  1  0  0  0  0
  4 35  1  0  0  0  0
  5 33  1  0  0  0  0
  5 36  1  0  0  0  0
  6 13  1  0  0  0  0
  6 16  1  0  0  0  0
  6 18  1  0  0  0  0
  7 14  1  0  0  0  0
  7 15  1  0  0  0  0
  7 19  1  0  0  0  0
  8 20  1  0  0  0  0
  8 28  1  0  0  0  0
  8 60  1  0  0  0  0
  9 19  1  0  0  0  0
  9 29  1  0  0  0  0
  9 61  1  0  0  0  0
 10 12  1  0  0  0  0
 10 13  1  0  0  0  0
 10 14  1  0  0  0  0
 10 37  1  0  0  0  0
 11 12  1  0  0  0  0
 11 15  1  0  0  0  0
 11 16  1  0  0  0  0
 11 38  1  0  0  0  0
 12 39  1  0  0  0  0
 12 40  1  0  0  0  0
 13 41  1  0  0  0  0
 13 42  1  0  0  0  0
 14 43  1  0  0  0  0
 14 44  1  0  0  0  0
 15 45  1  0  0  0  0
 15 46  1  0  0  0  0
 16 17  2  0  0  0  0
 17 21  1  0  0  0  0
 17 47  1  0  0  0  0
 18 20  1  0  0  0  0
 20 21  2  0  0  0  0
 21 48  1  0  0  0  0
 22 23  1  0  0  0  0
 22 24  1  0  0  0  0
 22 28  1  0  0  0  0
 22 49  1  0  0  0  0
 23 25  1  0  0  0  0
 23 50  1  0  0  0  0
 23 51  1  0  0  0  0
 24 26  1  0  0  0  0
 24 52  1  0  0  0  0
 24 53  1  0  0  0  0
 25 27  1  0  0  0  0
 25 54  1  0  0  0  0
 25 55  1  0  0  0  0
 26 27  1  0  0  0  0
 26 56  1  0  0  0  0
 26 57  1  0  0  0  0
 27 58  1  0  0  0  0
 27 59  1  0  0  0  0
 29 30  2  0  0  0  0
 29 31  1  0  0  0  0
 30 33  1  0  0  0  0
 30 62  1  0  0  0  0
 31 32  2  0  0  0  0
 31 63  1  0  0  0  0
 32 34  1  0  0  0  0
 33 34  2  0  0  0  0
 34 64  1  0  0  0  0
 35 65  1  0  0  0  0
 35 66  1  0  0  0  0
 35 67  1  0  0  0  0
 36 68  1  0  0  0  0
 36 69  1  0  0  0  0
 36 70  1  0  0  0  0
M  END
> <PUBCHEM_COMPOUND_CID>
40586225

> <PUBCHEM_CONFORMER_RMSD>
1

> <PUBCHEM_CONFORMER_DIVERSEORDER>
1
4
58
107
100
110
25
79
93
76
96
19
101
13
48
41
72
84
114
106
98
115
36
81
31
99
89
22
88
68
51
42
59
67
43
70
103
6
12
95
52
50
38
18
91
75
97
54
74
104
35
102
23
92
30
94
2
64
113
20
9
82
90
49
78
53
55
27
11
66
28
77
47
61
10
56
8
44
73
15
5
39
65
105
80
108
46
62
37
24
7
3
60
83
34
17
71
40
14
63
16
33
85
57
86
21
69
45
111
26
112
87
32
109
29

> <PUBCHEM_MMFF94_PARTIAL_CHARGES>
36
1 -0.57
11 0.14
13 0.3
14 0.3
15 0.3
16 -0.03
17 -0.15
18 0.62
19 0.69
2 -0.57
20 0.12
21 -0.15
22 0.06
28 0.57
29 0.12
3 -0.57
30 -0.15
31 -0.15
32 0.08
33 0.08
34 -0.15
35 0.28
36 0.28
4 -0.36
47 0.15
48 0.15
5 -0.36
6 -0.47
60 0.37
61 0.37
62 0.15
63 0.15
64 0.15
7 -0.66
8 -0.54
9 -0.55

> <PUBCHEM_EFFECTIVE_ROTOR_COUNT>
10.2

> <PUBCHEM_PHARMACOPHORE_FEATURES>
12
1 1 acceptor
1 2 acceptor
1 3 acceptor
1 4 acceptor
1 5 acceptor
1 8 donor
1 9 donor
6 22 23 24 25 26 27 rings
6 29 30 31 32 33 34 rings
6 6 10 11 12 13 16 rings
6 6 16 17 18 20 21 rings
6 7 10 11 12 14 15 rings

> <PUBCHEM_HEAVY_ATOM_COUNT>
36

> <PUBCHEM_ATOM_DEF_STEREO_COUNT>
2

> <PUBCHEM_ATOM_UDEF_STEREO_COUNT>
0

> <PUBCHEM_BOND_DEF_STEREO_COUNT>
0

> <PUBCHEM_BOND_UDEF_STEREO_COUNT>
0

> <PUBCHEM_ISOTOPIC_ATOM_COUNT>
0

> <PUBCHEM_COMPONENT_COUNT>
1

> <PUBCHEM_CACTVS_TAUTO_COUNT>
12

> <PUBCHEM_CONFORMER_ID>
026B4BF100000001

> <PUBCHEM_MMFF94_ENERGY>
114.8074

> <PUBCHEM_FEATURE_SELFOVERLAP>
62.496

> <PUBCHEM_SHAPE_FINGERPRINT>
10032420 55 17249785247272941182
10316853 100 18336836273291134881
11421498 54 17105108685465195069
11513181 2 17989199305318479207
12156800 1 17975170730637371743
12788726 201 17978226385431496356
1361 2 18263087617348064257
15276724 80 17839753900569328932
15484559 13 17906738003261419215
15968369 153 18127686248354392723
17138139 8 18058707170535607213
20587220 17 17339316353947971585
20764821 26 18189635941829827209
20775438 99 18269827645001148975
21133410 62 18115853145713746543
21133410 90 17417258770244882345
23516275 137 17202505311170700159
3052486 1 18335419114725236700
338550 245 18409448094003712261
394071 54 17623017794555009137
4340502 62 18200866297930973728
463206 1 18413385427947240313
508706 21 18335702797067620403
66674814 147 18193844734311326024
86090 222 18124043329469734769

> <PUBCHEM_SHAPE_MULTIPOLES>
691.59
10.86
6.46
2.11
1.06
4.85
-0.25
-6.49
-0.28
7.41
0.7
0.79
1.4
0.36

> <PUBCHEM_SHAPE_SELFOVERLAP>
1490.088

> <PUBCHEM_SHAPE_VOLUME>
371.9

> <PUBCHEM_COORDINATE_TYPE>
2
5
10

$$$$
