11911845
  -OEChem-12032416123D

 39 41  0     1  0  0  0  0  0999 V2000
    6.1916   -1.5127    0.8138 S   0  0  0  0  0  0  0  0  0  0  0  0
   -3.7989   -1.4665   -0.7006 O   0  0  0  0  0  0  0  0  0  0  0  0
   -4.1365    1.4572    0.1660 O   0  0  0  0  0  0  0  0  0  0  0  0
   -6.0264   -1.4822    0.9543 O   0  0  0  0  0  0  0  0  0  0  0  0
    0.1560    1.8279   -0.5561 O   0  0  0  0  0  0  0  0  0  0  0  0
   -0.9631   -0.1941   -0.6266 N   0  0  0  0  0  0  0  0  0  0  0  0
    1.2943   -0.1943   -0.2015 N   0  0  0  0  0  0  0  0  0  0  0  0
   -3.0602    0.5172    0.3681 C   0  0  1  0  0  0  0  0  0  0  0  0
   -3.6983   -0.8397    0.5886 C   0  0  1  0  0  0  0  0  0  0  0  0
   -2.2744    0.3482   -0.9111 C   0  0  2  0  0  0  0  0  0  0  0  0
   -5.0557   -0.4772    1.1413 C   0  0  1  0  0  0  0  0  0  0  0  0
   -3.1101   -0.6656   -1.6731 C   0  0  0  0  0  0  0  0  0  0  0  0
   -5.3861    0.7830    0.3737 C   0  0  0  0  0  0  0  0  0  0  0  0
    0.1772    0.6027   -0.4670 C   0  0  0  0  0  0  0  0  0  0  0  0
    2.6268    0.2252    0.0204 C   0  0  0  0  0  0  0  0  0  0  0  0
    3.6051   -0.7232    0.2707 C   0  0  0  0  0  0  0  0  0  0  0  0
    2.9256    1.5774   -0.0159 C   0  0  0  0  0  0  0  0  0  0  0  0
    4.9183   -0.3080    0.4905 C   0  0  0  0  0  0  0  0  0  0  0  0
    4.2389    1.9928    0.2039 C   0  0  0  0  0  0  0  0  0  0  0  0
    5.2353    1.0500    0.4571 C   0  0  0  0  0  0  0  0  0  0  0  0
    6.1406   -2.5178   -0.6966 C   0  0  0  0  0  0  0  0  0  0  0  0
   -2.4736    0.8645    1.2247 H   0  0  0  0  0  0  0  0  0  0  0  0
   -3.1237   -1.5062    1.2381 H   0  0  0  0  0  0  0  0  0  0  0  0
   -2.1645    1.2772   -1.4797 H   0  0  0  0  0  0  0  0  0  0  0  0
   -4.9748   -0.2498    2.2105 H   0  0  0  0  0  0  0  0  0  0  0  0
   -3.8752   -0.1642   -2.2757 H   0  0  0  0  0  0  0  0  0  0  0  0
   -2.5268   -1.3163   -2.3320 H   0  0  0  0  0  0  0  0  0  0  0  0
   -5.8412    0.5747   -0.6011 H   0  0  0  0  0  0  0  0  0  0  0  0
   -6.0679    1.4372    0.9254 H   0  0  0  0  0  0  0  0  0  0  0  0
   -0.8764   -1.1941   -0.4713 H   0  0  0  0  0  0  0  0  0  0  0  0
   -6.0437   -1.7115    0.0095 H   0  0  0  0  0  0  0  0  0  0  0  0
    1.1383   -1.1984   -0.1626 H   0  0  0  0  0  0  0  0  0  0  0  0
    3.3441   -1.7784    0.3015 H   0  0  0  0  0  0  0  0  0  0  0  0
    2.2134    2.3667   -0.2047 H   0  0  0  0  0  0  0  0  0  0  0  0
    4.4870    3.0500    0.1781 H   0  0  0  0  0  0  0  0  0  0  0  0
    6.2532    1.3927    0.6258 H   0  0  0  0  0  0  0  0  0  0  0  0
    5.1916   -3.0546   -0.7733 H   0  0  0  0  0  0  0  0  0  0  0  0
    6.9514   -3.2505   -0.6662 H   0  0  0  0  0  0  0  0  0  0  0  0
    6.2737   -1.8858   -1.5789 H   0  0  0  0  0  0  0  0  0  0  0  0
  1 18  1  0  0  0  0
  1 21  1  0  0  0  0
  2  9  1  0  0  0  0
  2 12  1  0  0  0  0
  3  8  1  0  0  0  0
  3 13  1  0  0  0  0
  4 11  1  0  0  0  0
  4 31  1  0  0  0  0
  5 14  2  0  0  0  0
  6 10  1  0  0  0  0
  6 14  1  0  0  0  0
  6 30  1  0  0  0  0
  7 14  1  0  0  0  0
  7 15  1  0  0  0  0
  7 32  1  0  0  0  0
  8  9  1  0  0  0  0
  8 10  1  0  0  0  0
  8 22  1  0  0  0  0
  9 11  1  0  0  0  0
  9 23  1  0  0  0  0
 10 12  1  0  0  0  0
 10 24  1  0  0  0  0
 11 13  1  0  0  0  0
 11 25  1  0  0  0  0
 12 26  1  0  0  0  0
 12 27  1  0  0  0  0
 13 28  1  0  0  0  0
 13 29  1  0  0  0  0
 15 16  2  0  0  0  0
 15 17  1  0  0  0  0
 16 18  1  0  0  0  0
 16 33  1  0  0  0  0
 17 19  2  0  0  0  0
 17 34  1  0  0  0  0
 18 20  2  0  0  0  0
 19 20  1  0  0  0  0
 19 35  1  0  0  0  0
 20 36  1  0  0  0  0
 21 37  1  0  0  0  0
 21 38  1  0  0  0  0
 21 39  1  0  0  0  0
M  END
> <PUBCHEM_COMPOUND_CID>
11911845

> <PUBCHEM_CONFORMER_RMSD>
0.8

> <PUBCHEM_CONFORMER_DIVERSEORDER>
1
56
35
3
54
48
37
64
20
19
38
53
18
43
62
55
5
9
46
8
22
47
41
57
32
49
60
29
23
25
36
33
50
45
7
51
16
30
10
63
42
59
11
58
26
6
21
31
39
4
61
13
34
44
28
52
27
12
15
2
24
17
14
40

> <PUBCHEM_MMFF94_PARTIAL_CHARGES>
28
1 -0.33
10 0.3
11 0.28
12 0.28
13 0.28
14 0.69
15 0.12
16 -0.15
17 -0.15
18 0.1
19 -0.15
2 -0.56
20 -0.15
21 0.23
3 -0.56
30 0.37
31 0.4
32 0.37
33 0.15
34 0.15
35 0.15
36 0.15
4 -0.68
5 -0.57
6 -0.73
7 -0.55
8 0.28
9 0.28

> <PUBCHEM_EFFECTIVE_ROTOR_COUNT>
6.2

> <PUBCHEM_PHARMACOPHORE_FEATURES>
11
1 2 acceptor
1 21 hydrophobe
1 3 acceptor
1 4 acceptor
1 4 donor
1 5 acceptor
1 6 donor
1 7 donor
5 2 8 9 10 12 rings
5 3 8 9 11 13 rings
6 15 16 17 18 19 20 rings

> <PUBCHEM_HEAVY_ATOM_COUNT>
21

> <PUBCHEM_ATOM_DEF_STEREO_COUNT>
4

> <PUBCHEM_ATOM_UDEF_STEREO_COUNT>
0

> <PUBCHEM_BOND_DEF_STEREO_COUNT>
0

> <PUBCHEM_BOND_UDEF_STEREO_COUNT>
0

> <PUBCHEM_ISOTOPIC_ATOM_COUNT>
0

> <PUBCHEM_COMPONENT_COUNT>
1

> <PUBCHEM_CACTVS_TAUTO_COUNT>
3

> <PUBCHEM_CONFORMER_ID>
00B5C2A500000001

> <PUBCHEM_MMFF94_ENERGY>
62.7649

> <PUBCHEM_FEATURE_SELFOVERLAP>
56.592

> <PUBCHEM_SHAPE_FINGERPRINT>
10014705 185 11527947867781809637
10912923 1 17703502307046537300
11089746 13 16630516324170830625
11128504 68 14273745036276296982
12107183 9 17838060294913548713
12236239 1 18202001040357145033
12596602 18 18411984680287480545
12616971 3 18202559596854369860
12633257 1 16917348164365711201
13167823 11 18411976979448073786
13288520 33 17821447959098694415
13533116 47 18273215296877644202
13955234 65 18339353172125884728
1420 363 17603585231559924194
14251718 22 8574424331328467840
14251758 9 17846219917117160652
14251764 18 18059852900306078236
14341114 176 18410858767511748008
14350574 20 18114180814033769734
14420673 8 18336832995883408923
14455015 7 18259983764995075442
15348495 7 18411419552600952154
15788980 27 18413668019594011148
15880784 105 18334580165440577305
17844677 252 18408326575069149268
1813 80 17022620888082188180
18222031 100 15791729724120541630
20281389 69 17132113537267644265
20645477 70 18334855018369046770
21150785 3 15791740698337261958
21267235 1 18410576142412073842
220451 1 17989207079551590798
2297311 6 16443066075793059047
2303208 19 17748826302389250498
23081809 10 17632288008420364844
23522609 53 17825418231220984060
23559900 14 18113615711769340504
239999 70 18113336419279204858
2767999 5 10663811975920018482
2916195 48 11383824966044955870
351380 3 17967811630941459778
4073 2 18114748256359602338
465052 167 18410576159333662222
5104073 3 17916863641991015370
542803 24 17346599702978023544
5924683 9 18129939121931176783
8863177 126 18114187462374684314

> <PUBCHEM_SHAPE_MULTIPOLES>
402.58
17.11
1.98
1.06
2.76
0.14
0.15
6.71
-4.32
2.49
0.1
-0.83
0.3
0.42

> <PUBCHEM_SHAPE_SELFOVERLAP>
842.301

> <PUBCHEM_SHAPE_VOLUME>
230.6

> <PUBCHEM_COORDINATE_TYPE>
2
5
10

$$$$
