28962277
  -OEChem-12032416283D

 57 59  0     1  0  0  0  0  0999 V2000
   -5.0415    2.5423    0.7956 F   0  0  0  0  0  0  0  0  0  0  0  0
   -7.4975   -1.1999   -0.7359 F   0  0  0  0  0  0  0  0  0  0  0  0
    1.5009    2.9855   -0.6533 O   0  0  0  0  0  0  0  0  0  0  0  0
    3.8190    2.7996    1.2335 O   0  0  0  0  0  0  0  0  0  0  0  0
    1.8003    5.7704   -0.8969 O   0  0  0  0  0  0  0  0  0  0  0  0
   -1.0945   -0.5508    0.0651 O   0  0  0  0  0  0  0  0  0  0  0  0
    3.6874    0.1477    0.1509 N   0  0  1  0  0  0  0  0  0  0  0  0
   -0.3840    1.5056    0.8510 N   0  0  0  0  0  0  0  0  0  0  0  0
   -2.6400    1.1550    0.5259 N   0  0  0  0  0  0  0  0  0  0  0  0
    3.2137   -4.3270   -0.3927 N   0  0  0  0  0  0  0  0  0  0  0  0
    3.1802    1.3004   -0.5728 C   0  0  1  0  0  0  0  0  0  0  0  0
    1.6734    1.5643   -0.4573 C   0  0  1  0  0  0  0  0  0  0  0  0
    3.7933    2.6352   -0.1784 C   0  0  1  0  0  0  0  0  0  0  0  0
    2.7949    3.5998   -0.8072 C   0  0  2  0  0  0  0  0  0  0  0  0
    1.0169    1.2085    0.8720 C   0  0  0  0  0  0  0  0  0  0  0  0
    2.7630    4.9922   -0.2041 C   0  0  0  0  0  0  0  0  0  0  0  0
    2.9916   -1.0753   -0.2618 C   0  0  0  0  0  0  0  0  0  0  0  0
    5.1315   -0.0028   -0.0533 C   0  0  0  0  0  0  0  0  0  0  0  0
    3.1806   -2.1878    0.7700 C   0  0  0  0  0  0  0  0  0  0  0  0
    2.4881   -3.4587    0.3469 C   0  0  0  0  0  0  0  0  0  0  0  0
   -1.3657    0.5872    0.4406 C   0  0  0  0  0  0  0  0  0  0  0  0
    1.1730   -3.6734    0.7268 C   0  0  0  0  0  0  0  0  0  0  0  0
    0.5635   -4.8558    0.3218 C   0  0  0  0  0  0  0  0  0  0  0  0
   -3.8804    0.5561    0.2047 C   0  0  0  0  0  0  0  0  0  0  0  0
    2.5879   -5.4652   -0.7679 C   0  0  0  0  0  0  0  0  0  0  0  0
    1.2776   -5.7740   -0.4400 C   0  0  0  0  0  0  0  0  0  0  0  0
   -5.0651    1.2779    0.3506 C   0  0  0  0  0  0  0  0  0  0  0  0
   -3.9176   -0.7590   -0.2594 C   0  0  0  0  0  0  0  0  0  0  0  0
   -6.2869    0.6847    0.0329 C   0  0  0  0  0  0  0  0  0  0  0  0
   -5.1395   -1.3523   -0.5768 C   0  0  0  0  0  0  0  0  0  0  0  0
   -6.3241   -0.6304   -0.4308 C   0  0  0  0  0  0  0  0  0  0  0  0
    3.3869    1.1660   -1.6471 H   0  0  0  0  0  0  0  0  0  0  0  0
    1.1398    1.0614   -1.2735 H   0  0  0  0  0  0  0  0  0  0  0  0
    4.8052    2.7859   -0.5678 H   0  0  0  0  0  0  0  0  0  0  0  0
    2.9644    3.6683   -1.8896 H   0  0  0  0  0  0  0  0  0  0  0  0
    1.4332    1.8189    1.6804 H   0  0  0  0  0  0  0  0  0  0  0  0
    1.1323    0.1627    1.1592 H   0  0  0  0  0  0  0  0  0  0  0  0
    3.7391    5.4795   -0.2878 H   0  0  0  0  0  0  0  0  0  0  0  0
    2.4559    4.9652    0.8463 H   0  0  0  0  0  0  0  0  0  0  0  0
    1.9168   -0.9399   -0.4099 H   0  0  0  0  0  0  0  0  0  0  0  0
    3.3598   -1.4085   -1.2431 H   0  0  0  0  0  0  0  0  0  0  0  0
    5.5410   -0.8470    0.5086 H   0  0  0  0  0  0  0  0  0  0  0  0
    5.6794    0.8686    0.3199 H   0  0  0  0  0  0  0  0  0  0  0  0
    5.3887   -0.1406   -1.1102 H   0  0  0  0  0  0  0  0  0  0  0  0
    4.3137    3.6142    1.4258 H   0  0  0  0  0  0  0  0  0  0  0  0
    2.8019   -1.8696    1.7499 H   0  0  0  0  0  0  0  0  0  0  0  0
    4.2384   -2.4307    0.9175 H   0  0  0  0  0  0  0  0  0  0  0  0
   -0.6816    2.4335    1.1363 H   0  0  0  0  0  0  0  0  0  0  0  0
    1.8036    6.6554   -0.4940 H   0  0  0  0  0  0  0  0  0  0  0  0
    0.6237   -2.9496    1.3194 H   0  0  0  0  0  0  0  0  0  0  0  0
   -2.6927    2.1149    0.8577 H   0  0  0  0  0  0  0  0  0  0  0  0
   -0.4662   -5.0607    0.5985 H   0  0  0  0  0  0  0  0  0  0  0  0
    3.1878   -6.1479   -1.3606 H   0  0  0  0  0  0  0  0  0  0  0  0
    0.8227   -6.7019   -0.7671 H   0  0  0  0  0  0  0  0  0  0  0  0
   -3.0456   -1.3820   -0.3988 H   0  0  0  0  0  0  0  0  0  0  0  0
   -7.2091    1.2465    0.1465 H   0  0  0  0  0  0  0  0  0  0  0  0
   -5.1703   -2.3762   -0.9379 H   0  0  0  0  0  0  0  0  0  0  0  0
  1 27  1  0  0  0  0
  2 31  1  0  0  0  0
  3 12  1  0  0  0  0
  3 14  1  0  0  0  0
  4 13  1  0  0  0  0
  4 45  1  0  0  0  0
  5 16  1  0  0  0  0
  5 49  1  0  0  0  0
  6 21  2  0  0  0  0
  7 11  1  0  0  0  0
  7 17  1  0  0  0  0
  7 18  1  0  0  0  0
  8 15  1  0  0  0  0
  8 21  1  0  0  0  0
  8 48  1  0  0  0  0
  9 21  1  0  0  0  0
  9 24  1  0  0  0  0
  9 51  1  0  0  0  0
 10 20  1  0  0  0  0
 10 25  2  0  0  0  0
 11 12  1  0  0  0  0
 11 13  1  0  0  0  0
 11 32  1  0  0  0  0
 12 15  1  0  0  0  0
 12 33  1  0  0  0  0
 13 14  1  0  0  0  0
 13 34  1  0  0  0  0
 14 16  1  0  0  0  0
 14 35  1  0  0  0  0
 15 36  1  0  0  0  0
 15 37  1  0  0  0  0
 16 38  1  0  0  0  0
 16 39  1  0  0  0  0
 17 19  1  0  0  0  0
 17 40  1  0  0  0  0
 17 41  1  0  0  0  0
 18 42  1  0  0  0  0
 18 43  1  0  0  0  0
 18 44  1  0  0  0  0
 19 20  1  0  0  0  0
 19 46  1  0  0  0  0
 19 47  1  0  0  0  0
 20 22  2  0  0  0  0
 22 23  1  0  0  0  0
 22 50  1  0  0  0  0
 23 26  2  0  0  0  0
 23 52  1  0  0  0  0
 24 27  2  0  0  0  0
 24 28  1  0  0  0  0
 25 26  1  0  0  0  0
 25 53  1  0  0  0  0
 26 54  1  0  0  0  0
 27 29  1  0  0  0  0
 28 30  2  0  0  0  0
 28 55  1  0  0  0  0
 29 31  2  0  0  0  0
 29 56  1  0  0  0  0
 30 31  1  0  0  0  0
 30 57  1  0  0  0  0
M  END
> <PUBCHEM_COMPOUND_CID>
28962277

> <PUBCHEM_CONFORMER_RMSD>
1

> <PUBCHEM_CONFORMER_DIVERSEORDER>
1
78
147
38
83
109
95
127
84
13
24
85
125
59
99
34
100
156
102
77
119
16
92
113
169
42
164
57
89
137
87
39
110
134
138
166
80
159
45
131
115
37
23
60
71
117
20
129
41
148
76
143
103
64
155
116
31
66
3
97
75
43
112
48
47
50
65
30
52
157
161
128
167
154
153
53
63
27
33
79
88
96
73
172
72
25
141
152
126
130
51
142
114
82
124
62
15
55
98
22
40
121
170
91
104
14
151
2
150
18
56
32
111
106
133
9
81
21
132
67
58
136
35
145
61
86
158
105
139
120
101
165
5
163
17
168
90
118
74
26
70
93
29
28
6
68
135
11
122
10
123
171
107
12
69
54
162
8
140
160
49
108
4
36
46
94
44
7
149
146
144
19

> <PUBCHEM_MMFF94_PARTIAL_CHARGES>
42
1 -0.19
10 -0.62
11 0.27
12 0.28
13 0.28
14 0.28
15 0.3
16 0.28
17 0.27
18 0.27
19 0.14
2 -0.19
20 0.17
21 0.69
22 -0.15
23 -0.15
24 0.12
25 0.16
26 -0.15
27 0.19
28 -0.15
29 -0.15
3 -0.56
30 -0.15
31 0.19
4 -0.68
45 0.4
48 0.37
49 0.4
5 -0.68
50 0.15
51 0.37
52 0.15
53 0.15
54 0.15
55 0.15
56 0.15
57 0.15
6 -0.57
7 -0.81
8 -0.73
9 -0.55

> <PUBCHEM_EFFECTIVE_ROTOR_COUNT>
11

> <PUBCHEM_PHARMACOPHORE_FEATURES>
13
1 10 acceptor
1 3 acceptor
1 4 acceptor
1 4 donor
1 5 acceptor
1 5 donor
1 6 acceptor
1 7 cation
1 8 donor
1 9 donor
5 3 11 12 13 14 rings
6 10 20 22 23 25 26 rings
6 24 27 28 29 30 31 rings

> <PUBCHEM_HEAVY_ATOM_COUNT>
31

> <PUBCHEM_ATOM_DEF_STEREO_COUNT>
4

> <PUBCHEM_ATOM_UDEF_STEREO_COUNT>
0

> <PUBCHEM_BOND_DEF_STEREO_COUNT>
0

> <PUBCHEM_BOND_UDEF_STEREO_COUNT>
0

> <PUBCHEM_ISOTOPIC_ATOM_COUNT>
0

> <PUBCHEM_COMPONENT_COUNT>
1

> <PUBCHEM_CACTVS_TAUTO_COUNT>
6

> <PUBCHEM_CONFORMER_ID>
01B9EDE500000001

> <PUBCHEM_MMFF94_ENERGY>
78.8479

> <PUBCHEM_FEATURE_SELFOVERLAP>
66.027

> <PUBCHEM_SHAPE_FINGERPRINT>
10050765 1 17473828802862654700
10483366 6 18338531742477529574
11014199 57 17763745391062713834
11756154 67 17476928952177568623
12107183 9 17838345077785678201
1361 2 18409729564627465746
13692114 37 18196923577697562114
13785724 45 17909839729995745967
138480 1 18194122915312279922
14790565 3 18194402423009274735
15250474 111 18342447167417834079
15320467 1 18410575080737883463
15400415 2 18194683894007906013
15483637 11 17688874558927697538
15484559 13 18410580600003026398
16993438 75 17614002210643151419
18681886 176 18409443722312366336
19319366 153 18199462337055043895
19427546 62 18192992853313017684
20028762 73 18343018900415799958
21133410 171 16886070121379765987
23559900 14 18408322198502385897
23929065 36 16972229454559999000
3004659 81 18343303682026763385
3103668 31 17256537842406086894
5309563 4 18121780526319667614
613672 6 17760060953040487390
653340 110 17187000337809520112
6700243 42 16836022507956473454
9777508 108 17692247856517432104

> <PUBCHEM_SHAPE_MULTIPOLES>
580.02
13.38
8.81
0.9
30.23
5.63
0.05
-1.81
-1.32
-13.85
-1.76
-0.18
-0.12
-1

> <PUBCHEM_SHAPE_SELFOVERLAP>
1221.866

> <PUBCHEM_SHAPE_VOLUME>
325.9

> <PUBCHEM_COORDINATE_TYPE>
2
5
10

$$$$
