75537105
  -OEChem-12032416343D

 36 38  0     1  0  0  0  0  0999 V2000
    4.6370    0.9474   -0.1107 O   0  0  0  0  0  0  0  0  0  0  0  0
    2.3180    0.6115   -0.2790 N   0  0  0  0  0  0  0  0  0  0  0  0
   -0.4293    0.9816    0.1969 N   0  0  2  0  0  0  0  0  0  0  0  0
    3.6444   -1.1924   -0.1042 N   0  0  0  0  0  0  0  0  0  0  0  0
   -4.2524   -1.5598    0.4898 N   0  0  0  0  0  0  0  0  0  0  0  0
    1.4211   -0.5149   -0.4312 C   0  0  2  0  0  0  0  0  0  0  0  0
    0.1875   -0.3358    0.4532 C   0  0  0  0  0  0  0  0  0  0  0  0
    2.2912   -1.7208   -0.0825 C   0  0  0  0  0  0  0  0  0  0  0  0
    1.7876    1.9564   -0.3635 C   0  0  0  0  0  0  0  0  0  0  0  0
    0.5214    2.0738    0.4886 C   0  0  0  0  0  0  0  0  0  0  0  0
    3.6573    0.2158   -0.1626 C   0  0  0  0  0  0  0  0  0  0  0  0
   -1.6453    1.1383    0.9944 C   0  0  0  0  0  0  0  0  0  0  0  0
    4.8018   -2.0418    0.0703 C   0  0  0  0  0  0  0  0  0  0  0  0
   -2.8022    0.3730    0.4089 C   0  0  0  0  0  0  0  0  0  0  0  0
   -3.4812    0.8449   -0.7088 C   0  0  0  0  0  0  0  0  0  0  0  0
   -3.2232   -0.8238    0.9661 C   0  0  0  0  0  0  0  0  0  0  0  0
   -4.5454    0.1159   -1.2280 C   0  0  0  0  0  0  0  0  0  0  0  0
   -4.8883   -1.0694   -0.5978 C   0  0  0  0  0  0  0  0  0  0  0  0
    1.1319   -0.5536   -1.4897 H   0  0  0  0  0  0  0  0  0  0  0  0
   -0.5062   -1.1517    0.2236 H   0  0  0  0  0  0  0  0  0  0  0  0
    0.4629   -0.4245    1.5130 H   0  0  0  0  0  0  0  0  0  0  0  0
    2.1919   -2.5259   -0.8167 H   0  0  0  0  0  0  0  0  0  0  0  0
    2.0933   -2.1127    0.9205 H   0  0  0  0  0  0  0  0  0  0  0  0
    1.5618    2.1512   -1.4182 H   0  0  0  0  0  0  0  0  0  0  0  0
    2.5503    2.6726   -0.0419 H   0  0  0  0  0  0  0  0  0  0  0  0
    0.7953    2.0603    1.5521 H   0  0  0  0  0  0  0  0  0  0  0  0
    0.0586    3.0457    0.2799 H   0  0  0  0  0  0  0  0  0  0  0  0
   -1.9524    2.1934    1.0184 H   0  0  0  0  0  0  0  0  0  0  0  0
   -1.4832    0.8613    2.0450 H   0  0  0  0  0  0  0  0  0  0  0  0
    4.7416   -2.5201    1.0514 H   0  0  0  0  0  0  0  0  0  0  0  0
    5.7185   -1.4498    0.0109 H   0  0  0  0  0  0  0  0  0  0  0  0
    4.8030   -2.8033   -0.7137 H   0  0  0  0  0  0  0  0  0  0  0  0
   -3.1901    1.7781   -1.1831 H   0  0  0  0  0  0  0  0  0  0  0  0
   -2.7337   -1.2444    1.8391 H   0  0  0  0  0  0  0  0  0  0  0  0
   -5.0891    0.4643   -2.0986 H   0  0  0  0  0  0  0  0  0  0  0  0
   -5.7107   -1.6752   -0.9637 H   0  0  0  0  0  0  0  0  0  0  0  0
  1 11  2  0  0  0  0
  2  6  1  0  0  0  0
  2  9  1  0  0  0  0
  2 11  1  0  0  0  0
  3  7  1  0  0  0  0
  3 10  1  0  0  0  0
  3 12  1  0  0  0  0
  4  8  1  0  0  0  0
  4 11  1  0  0  0  0
  4 13  1  0  0  0  0
  5 16  1  0  0  0  0
  5 18  2  0  0  0  0
  6  7  1  0  0  0  0
  6  8  1  0  0  0  0
  6 19  1  0  0  0  0
  7 20  1  0  0  0  0
  7 21  1  0  0  0  0
  8 22  1  0  0  0  0
  8 23  1  0  0  0  0
  9 10  1  0  0  0  0
  9 24  1  0  0  0  0
  9 25  1  0  0  0  0
 10 26  1  0  0  0  0
 10 27  1  0  0  0  0
 12 14  1  0  0  0  0
 12 28  1  0  0  0  0
 12 29  1  0  0  0  0
 13 30  1  0  0  0  0
 13 31  1  0  0  0  0
 13 32  1  0  0  0  0
 14 15  1  0  0  0  0
 14 16  2  0  0  0  0
 15 17  2  0  0  0  0
 15 33  1  0  0  0  0
 16 34  1  0  0  0  0
 17 18  1  0  0  0  0
 17 35  1  0  0  0  0
 18 36  1  0  0  0  0
M  END
> <PUBCHEM_COMPOUND_CID>
75537105

> <PUBCHEM_CONFORMER_RMSD>
0.6

> <PUBCHEM_CONFORMER_DIVERSEORDER>
1
26
3
14
15
20
24
27
4
28
21
17
19
16
9
13
8
23
22
25
12
10
18
2
7
6
5
11

> <PUBCHEM_MMFF94_PARTIAL_CHARGES>
22
1 -0.57
10 0.27
11 0.69
12 0.41
13 0.3
14 -0.14
15 -0.15
16 0.16
17 -0.15
18 0.16
2 -0.66
3 -0.81
33 0.15
34 0.15
35 0.15
36 0.15
4 -0.66
5 -0.62
6 0.3
7 0.27
8 0.3
9 0.3

> <PUBCHEM_EFFECTIVE_ROTOR_COUNT>
3.2

> <PUBCHEM_PHARMACOPHORE_FEATURES>
6
1 1 acceptor
1 3 cation
1 5 acceptor
5 2 4 6 8 11 rings
6 2 3 6 7 9 10 rings
6 5 14 15 16 17 18 rings

> <PUBCHEM_HEAVY_ATOM_COUNT>
18

> <PUBCHEM_ATOM_DEF_STEREO_COUNT>
1

> <PUBCHEM_ATOM_UDEF_STEREO_COUNT>
0

> <PUBCHEM_BOND_DEF_STEREO_COUNT>
0

> <PUBCHEM_BOND_UDEF_STEREO_COUNT>
0

> <PUBCHEM_ISOTOPIC_ATOM_COUNT>
0

> <PUBCHEM_COMPONENT_COUNT>
1

> <PUBCHEM_CACTVS_TAUTO_COUNT>
1

> <PUBCHEM_CONFORMER_ID>
04809AD100000001

> <PUBCHEM_MMFF94_ENERGY>
42.8816

> <PUBCHEM_FEATURE_SELFOVERLAP>
30.542

> <PUBCHEM_SHAPE_FINGERPRINT>
10447042 23 18341606019035649846
11089746 13 13623807284431096142
11806522 49 18413389847452464872
12892183 10 12535352302924553845
13544653 18 18343585126880342969
13862211 1 18411699847211144894
14289901 80 15841559543672636232
14576447 43 18271523190614479238
15188451 53 15410596122155322877
15196674 1 18411139116995770618
15239154 128 8934994871737975834
15352361 1 18411419488187180055
17834072 14 18334856104135897112
1798214 20 18412823586131778549
18186145 218 17603586326882190185
18222031 100 18059856147459616220
193927 3 18130517335792030206
19433438 38 18113897178313975837
19784866 170 10879994670327561867
200 152 18273213106122530497
20261772 1 17703787037350171190
20281475 54 18411707564502432961
20645477 70 18335701671416468987
20671657 53 18412830192008147305
21250096 35 18343581832745889473
21267235 1 18341341015443421262
212847 35 11458424639445531990
221357 26 18335130999945488029
221490 88 18263370359339782899
22393880 68 17967805033866548083
22646028 1 18131350804160057615
22646028 28 18130790066378459957
23402539 116 18341048497952551882
23403322 49 18410855456413625115
23559900 14 18335696148125618712
27216 239 10015863185344387255
2871803 45 18334293149803170898
3004659 81 18187363186496515650
314194 84 18273214218086881303
46194498 28 17604429721057120949
4921388 177 16805612499191459475
5104073 3 18343303634855470344
5281201 14 17895196636158535965
5283173 99 18115016386356401189
633830 44 8718825375511550776
76465 3 18341891870341318298
9709674 26 18188494704352444027

> <PUBCHEM_SHAPE_MULTIPOLES>
344.64
10.63
2.04
0.92
1.37
0.08
0.01
-4.83
1.85
-1.35
-0.13
0.89
0.04
0.04

> <PUBCHEM_SHAPE_SELFOVERLAP>
727.819

> <PUBCHEM_SHAPE_VOLUME>
194.2

> <PUBCHEM_COORDINATE_TYPE>
2
5
10

$$$$
