7051417
  -OEChem-12032416223D

 63 67  0     1  0  0  0  0  0999 V2000
   -7.1504    3.2536   -1.8354 Cl  0  0  0  0  0  0  0  0  0  0  0  0
   -3.2718   -0.4184    1.4232 S   0  0  0  0  0  0  0  0  0  0  0  0
   -0.9876   -2.4527    2.0535 O   0  0  0  0  0  0  0  0  0  0  0  0
    4.1254    4.7125    1.7533 O   0  0  0  0  0  0  0  0  0  0  0  0
   -3.9785   -0.8414    2.6175 O   0  0  0  0  0  0  0  0  0  0  0  0
   -2.0047    0.2795    1.5324 O   0  0  0  0  0  0  0  0  0  0  0  0
    3.1399   -0.9559   -0.3782 N   0  0  2  0  0  0  0  0  0  0  0  0
    0.5144   -2.6483    0.2661 N   0  0  0  0  0  0  0  0  0  0  0  0
    4.2342    3.1000    0.0842 N   0  0  0  0  0  0  0  0  0  0  0  0
   -3.1118   -1.7270    0.3617 N   0  0  0  0  0  0  0  0  0  0  0  0
    2.9804   -3.2728    0.5661 C   0  0  1  0  0  0  0  0  0  0  0  0
    2.1068   -2.8231   -1.6778 C   0  0  2  0  0  0  0  0  0  0  0  0
    2.8499   -3.8560   -0.8348 C   0  0  0  0  0  0  0  0  0  0  0  0
    3.7608   -1.9422    0.5144 C   0  0  0  0  0  0  0  0  0  0  0  0
    2.9214   -1.5103   -1.7227 C   0  0  0  0  0  0  0  0  0  0  0  0
    3.9342    0.2686   -0.4398 C   0  0  0  0  0  0  0  0  0  0  0  0
    1.5780   -3.1103    1.1678 C   0  0  0  0  0  0  0  0  0  0  0  0
    0.7191   -2.5684   -1.1181 C   0  0  0  0  0  0  0  0  0  0  0  0
    3.2105    1.3235   -1.2869 C   0  0  0  0  0  0  0  0  0  0  0  0
    4.1906    0.8017    0.9756 C   0  0  0  0  0  0  0  0  0  0  0  0
    3.9779    2.6455   -1.2882 C   0  0  0  0  0  0  0  0  0  0  0  0
    4.9379    2.1333    0.9296 C   0  0  0  0  0  0  0  0  0  0  0  0
   -0.2971   -2.2497   -1.9404 C   0  0  0  0  0  0  0  0  0  0  0  0
   -0.7427   -2.3852    0.8496 C   0  0  0  0  0  0  0  0  0  0  0  0
   -1.8177   -2.0172   -0.1058 C   0  0  0  0  0  0  0  0  0  0  0  0
   -1.6076   -1.9638   -1.4217 C   0  0  0  0  0  0  0  0  0  0  0  0
    3.8992    4.3538    0.5947 C   0  0  0  0  0  0  0  0  0  0  0  0
    3.2165    5.3084   -0.3519 C   0  0  0  0  0  0  0  0  0  0  0  0
   -4.3684    0.6196    0.5020 C   0  0  0  0  0  0  0  0  0  0  0  0
   -5.7340    0.4770    0.6715 C   0  0  0  0  0  0  0  0  0  0  0  0
   -3.8390    1.5541   -0.3705 C   0  0  0  0  0  0  0  0  0  0  0  0
   -6.5987    1.2956   -0.0550 C   0  0  0  0  0  0  0  0  0  0  0  0
   -4.7037    2.3727   -1.0968 C   0  0  0  0  0  0  0  0  0  0  0  0
   -6.0836    2.2435   -0.9392 C   0  0  0  0  0  0  0  0  0  0  0  0
    3.5486   -3.9659    1.1993 H   0  0  0  0  0  0  0  0  0  0  0  0
    2.0257   -3.2145   -2.7006 H   0  0  0  0  0  0  0  0  0  0  0  0
    2.3082   -4.8098   -0.8121 H   0  0  0  0  0  0  0  0  0  0  0  0
    3.8404   -4.0580   -1.2603 H   0  0  0  0  0  0  0  0  0  0  0  0
    4.7946   -2.1477    0.2054 H   0  0  0  0  0  0  0  0  0  0  0  0
    3.7862   -1.5879    1.5494 H   0  0  0  0  0  0  0  0  0  0  0  0
    2.3520   -0.8223   -2.3549 H   0  0  0  0  0  0  0  0  0  0  0  0
    3.8801   -1.6991   -2.2245 H   0  0  0  0  0  0  0  0  0  0  0  0
    4.9083    0.0595   -0.9058 H   0  0  0  0  0  0  0  0  0  0  0  0
    1.2432   -4.0879    1.5411 H   0  0  0  0  0  0  0  0  0  0  0  0
    1.6051   -2.4487    2.0429 H   0  0  0  0  0  0  0  0  0  0  0  0
    2.1982    1.4933   -0.8970 H   0  0  0  0  0  0  0  0  0  0  0  0
    3.1185    1.0242   -2.3352 H   0  0  0  0  0  0  0  0  0  0  0  0
    4.8193    0.1290    1.5674 H   0  0  0  0  0  0  0  0  0  0  0  0
    3.2411    0.9381    1.5100 H   0  0  0  0  0  0  0  0  0  0  0  0
    4.9528    2.5217   -1.7748 H   0  0  0  0  0  0  0  0  0  0  0  0
    3.4208    3.3850   -1.8659 H   0  0  0  0  0  0  0  0  0  0  0  0
    5.0632    2.5221    1.9452 H   0  0  0  0  0  0  0  0  0  0  0  0
    5.9401    1.9977    0.5056 H   0  0  0  0  0  0  0  0  0  0  0  0
   -0.1577   -2.1754   -3.0138 H   0  0  0  0  0  0  0  0  0  0  0  0
   -2.3840   -1.6998   -2.1318 H   0  0  0  0  0  0  0  0  0  0  0  0
   -3.8229   -1.7647   -0.3823 H   0  0  0  0  0  0  0  0  0  0  0  0
    3.0309    6.2578    0.1598 H   0  0  0  0  0  0  0  0  0  0  0  0
    2.2543    4.8994   -0.6712 H   0  0  0  0  0  0  0  0  0  0  0  0
    3.8557    5.5076   -1.2160 H   0  0  0  0  0  0  0  0  0  0  0  0
   -6.1540   -0.2600    1.3490 H   0  0  0  0  0  0  0  0  0  0  0  0
   -2.7684    1.6639   -0.5128 H   0  0  0  0  0  0  0  0  0  0  0  0
   -7.6718    1.1827    0.0767 H   0  0  0  0  0  0  0  0  0  0  0  0
   -4.2883    3.1057   -1.7836 H   0  0  0  0  0  0  0  0  0  0  0  0
  1 34  1  0  0  0  0
  2  5  2  0  0  0  0
  2  6  2  0  0  0  0
  2 10  1  0  0  0  0
  2 29  1  0  0  0  0
  3 24  2  0  0  0  0
  4 27  2  0  0  0  0
  7 14  1  0  0  0  0
  7 15  1  0  0  0  0
  7 16  1  0  0  0  0
  8 17  1  0  0  0  0
  8 18  1  0  0  0  0
  8 24  1  0  0  0  0
  9 21  1  0  0  0  0
  9 22  1  0  0  0  0
  9 27  1  0  0  0  0
 10 25  1  0  0  0  0
 10 56  1  0  0  0  0
 11 13  1  0  0  0  0
 11 14  1  0  0  0  0
 11 17  1  0  0  0  0
 11 35  1  0  0  0  0
 12 13  1  0  0  0  0
 12 15  1  0  0  0  0
 12 18  1  0  0  0  0
 12 36  1  0  0  0  0
 13 37  1  0  0  0  0
 13 38  1  0  0  0  0
 14 39  1  0  0  0  0
 14 40  1  0  0  0  0
 15 41  1  0  0  0  0
 15 42  1  0  0  0  0
 16 19  1  0  0  0  0
 16 20  1  0  0  0  0
 16 43  1  0  0  0  0
 17 44  1  0  0  0  0
 17 45  1  0  0  0  0
 18 23  2  0  0  0  0
 19 21  1  0  0  0  0
 19 46  1  0  0  0  0
 19 47  1  0  0  0  0
 20 22  1  0  0  0  0
 20 48  1  0  0  0  0
 20 49  1  0  0  0  0
 21 50  1  0  0  0  0
 21 51  1  0  0  0  0
 22 52  1  0  0  0  0
 22 53  1  0  0  0  0
 23 26  1  0  0  0  0
 23 54  1  0  0  0  0
 24 25  1  0  0  0  0
 25 26  2  0  0  0  0
 26 55  1  0  0  0  0
 27 28  1  0  0  0  0
 28 57  1  0  0  0  0
 28 58  1  0  0  0  0
 28 59  1  0  0  0  0
 29 30  2  0  0  0  0
 29 31  1  0  0  0  0
 30 32  1  0  0  0  0
 30 60  1  0  0  0  0
 31 33  2  0  0  0  0
 31 61  1  0  0  0  0
 32 34  2  0  0  0  0
 32 62  1  0  0  0  0
 33 34  1  0  0  0  0
 33 63  1  0  0  0  0
M  END
> <PUBCHEM_COMPOUND_CID>
7051417

> <PUBCHEM_CONFORMER_RMSD>
1

> <PUBCHEM_CONFORMER_DIVERSEORDER>
1
26
18
27
31
7
12
4
24
5
15
29
23
30
6
21
22
19
8
34
17
32
13
9
2
20
35
28
25
3
16
11
36
14
33
10

> <PUBCHEM_MMFF94_PARTIAL_CHARGES>
37
1 -0.18
10 -0.75
12 0.14
14 0.27
15 0.27
16 0.27
17 0.3
18 -0.03
2 1.45
21 0.3
22 0.3
23 -0.15
24 0.62
25 0.21
26 -0.15
27 0.57
28 0.06
29 -0.01
3 -0.57
30 -0.15
31 -0.15
32 -0.15
33 -0.15
34 0.18
4 -0.57
5 -0.65
54 0.15
55 0.15
56 0.42
6 -0.65
60 0.15
61 0.15
62 0.15
63 0.15
7 -0.81
8 -0.47
9 -0.66

> <PUBCHEM_EFFECTIVE_ROTOR_COUNT>
7.2

> <PUBCHEM_PHARMACOPHORE_FEATURES>
11
1 10 donor
1 3 acceptor
1 4 acceptor
1 5 acceptor
1 6 acceptor
1 7 cation
6 29 30 31 32 33 34 rings
6 7 11 12 13 14 15 rings
6 8 11 12 13 17 18 rings
6 8 18 23 24 25 26 rings
6 9 16 19 20 21 22 rings

> <PUBCHEM_HEAVY_ATOM_COUNT>
34

> <PUBCHEM_ATOM_DEF_STEREO_COUNT>
2

> <PUBCHEM_ATOM_UDEF_STEREO_COUNT>
0

> <PUBCHEM_BOND_DEF_STEREO_COUNT>
0

> <PUBCHEM_BOND_UDEF_STEREO_COUNT>
0

> <PUBCHEM_ISOTOPIC_ATOM_COUNT>
0

> <PUBCHEM_COMPONENT_COUNT>
1

> <PUBCHEM_CACTVS_TAUTO_COUNT>
1

> <PUBCHEM_CONFORMER_ID>
006B989900000001

> <PUBCHEM_MMFF94_ENERGY>
74.8463

> <PUBCHEM_FEATURE_SELFOVERLAP>
57.395

> <PUBCHEM_SHAPE_FINGERPRINT>
10673678 19 18343297038339552103
10675989 125 18343305868244667792
10838868 217 18269262612838019072
10928967 22 10301610898352802684
10937287 8 18126851723239397598
11374522 363 18192987356030082261
11386260 185 18199185075199008767
11456790 92 17536319129013115441
11479125 193 18341320189215970953
12166972 35 17842837724650532663
12422481 6 18260256478381050632
13383661 66 9436834115359705404
13583140 156 18189352173098897235
13878862 14 18189321386624925351
14068700 686 18193846061778616363
14251764 38 18265904562080660241
14725015 67 17825379674819142893
14739800 52 17896031058384122835
15320291 9 18195810665434913889
15629462 23 16971112861282797535
16067690 210 16538174167031108912
16988056 13 18269282279313126838
19053607 189 18114185263019548285
19246450 95 18266156492610585792
19304152 47 17828212313182975056
20764821 26 18127392652605731992
21033648 29 17749965366460818595
21049683 118 17240481369516567475
21133410 127 18115593801828767548
21388113 180 18409450318812900857
21475661 188 18334017168158495982
21792965 301 17258181118538010493
22122407 14 18266186020156966505
22889206 1 18114176407276681122
23466295 7 9330472162092975114
23569914 2 17462804828388092221
2838139 119 18412258471504641543
3298306 158 18411704317623162817
345986 75 12901549018378933071
376196 1 18338519758911780634
44317340 157 18339930299549779467
5109719 28 18334864896725691393
54728670 133 17616218440629460930
6086070 43 18338804390304786862

> <PUBCHEM_SHAPE_MULTIPOLES>
662.02
14.8
6.77
1.93
23.93
6.94
-0.17
16.56
1.45
-9.72
0.08
0.7
-0.46
3.46

> <PUBCHEM_SHAPE_SELFOVERLAP>
1406.895

> <PUBCHEM_SHAPE_VOLUME>
369.2

> <PUBCHEM_COORDINATE_TYPE>
2
5
10

$$$$
