44716947
  -OEChem-12032416133D

 79 82  0     1  0  0  0  0  0999 V2000
    1.8034   -1.0984    0.2386 O   0  0  0  0  0  0  0  0  0  0  0  0
   -5.3684   -2.0987    0.3925 O   0  0  0  0  0  0  0  0  0  0  0  0
    1.1269   -3.7423    0.5383 O   0  0  0  0  0  0  0  0  0  0  0  0
   -5.3065    1.7094   -1.6088 O   0  0  0  0  0  0  0  0  0  0  0  0
    2.5172    0.8272   -0.7674 O   0  0  0  0  0  0  0  0  0  0  0  0
    6.6679    3.0590   -1.2515 O   0  0  0  0  0  0  0  0  0  0  0  0
    8.7147   -0.4393    1.2698 O   0  0  0  0  0  0  0  0  0  0  0  0
   -6.7764    1.9524    0.1570 N   0  0  0  0  0  0  0  0  0  0  0  0
    3.9803   -0.5915    0.3845 N   0  0  0  0  0  0  0  0  0  0  0  0
   -2.5240   -0.7674    0.2973 C   0  0  2  0  0  0  0  0  0  0  0  0
   -1.8423   -1.7561   -0.7258 C   0  0  1  0  0  0  0  0  0  0  0  0
   -0.3363   -2.1326   -0.4495 C   0  0  1  0  0  0  0  0  0  0  0  0
   -3.8899   -0.2964   -0.3546 C   0  0  1  0  0  0  0  0  0  0  0  0
   -1.5965    0.4636    0.4835 C   0  0  0  0  0  0  0  0  0  0  0  0
   -2.7628   -2.9596   -1.0262 C   0  0  0  0  0  0  0  0  0  0  0  0
    0.4729   -0.8241   -0.1999 C   0  0  1  0  0  0  0  0  0  0  0  0
   -4.8152   -1.4679   -0.7581 C   0  0  1  0  0  0  0  0  0  0  0  0
   -0.1577    0.1021    0.8342 C   0  0  0  0  0  0  0  0  0  0  0  0
   -4.0968   -2.5034   -1.6185 C   0  0  0  0  0  0  0  0  0  0  0  0
   -2.7744   -1.3932    1.6910 C   0  0  0  0  0  0  0  0  0  0  0  0
   -0.1401   -3.1432    0.6990 C   0  0  0  0  0  0  0  0  0  0  0  0
   -4.6800    0.7319    0.4709 C   0  0  0  0  0  0  0  0  0  0  0  0
    0.2587   -2.8133   -1.7164 C   0  0  0  0  0  0  0  0  0  0  0  0
   -5.6076    1.5051   -0.4316 C   0  0  0  0  0  0  0  0  0  0  0  0
    2.7594   -0.1803   -0.1141 C   0  0  0  0  0  0  0  0  0  0  0  0
   -7.1931    1.7417    1.5399 C   0  0  0  0  0  0  0  0  0  0  0  0
   -7.7723    2.7189   -0.5775 C   0  0  0  0  0  0  0  0  0  0  0  0
   -8.3900    2.6646    1.7202 C   0  0  0  0  0  0  0  0  0  0  0  0
   -8.9974    2.7134    0.3239 C   0  0  0  0  0  0  0  0  0  0  0  0
    5.2330    0.0509    0.2581 C   0  0  0  0  0  0  0  0  0  0  0  0
    6.3692   -0.5178    0.8335 C   0  0  0  0  0  0  0  0  0  0  0  0
    5.3333    1.2528   -0.4426 C   0  0  0  0  0  0  0  0  0  0  0  0
    6.5698    1.8862   -0.5678 C   0  0  0  0  0  0  0  0  0  0  0  0
    7.6058    0.1154    0.7082 C   0  0  0  0  0  0  0  0  0  0  0  0
    7.7060    1.3175    0.0076 C   0  0  0  0  0  0  0  0  0  0  0  0
    7.9626    3.6520   -1.3406 C   0  0  0  0  0  0  0  0  0  0  0  0
    9.9464    0.2615    1.1029 C   0  0  0  0  0  0  0  0  0  0  0  0
   -1.7988   -1.1904   -1.6720 H   0  0  0  0  0  0  0  0  0  0  0  0
   -3.5908    0.1823   -1.2987 H   0  0  0  0  0  0  0  0  0  0  0  0
   -1.9742    1.1198    1.2756 H   0  0  0  0  0  0  0  0  0  0  0  0
   -1.5876    1.0614   -0.4374 H   0  0  0  0  0  0  0  0  0  0  0  0
   -2.2969   -3.6324   -1.7530 H   0  0  0  0  0  0  0  0  0  0  0  0
   -2.9452   -3.5575   -0.1283 H   0  0  0  0  0  0  0  0  0  0  0  0
    0.5017   -0.2875   -1.1595 H   0  0  0  0  0  0  0  0  0  0  0  0
   -5.6642   -1.0812   -1.3342 H   0  0  0  0  0  0  0  0  0  0  0  0
   -0.0932   -0.3389    1.8351 H   0  0  0  0  0  0  0  0  0  0  0  0
    0.4246    1.0294    0.9073 H   0  0  0  0  0  0  0  0  0  0  0  0
   -3.9116   -2.0751   -2.6117 H   0  0  0  0  0  0  0  0  0  0  0  0
   -4.7347   -3.3837   -1.7622 H   0  0  0  0  0  0  0  0  0  0  0  0
   -3.3668   -0.7244    2.3244 H   0  0  0  0  0  0  0  0  0  0  0  0
   -1.8523   -1.5757    2.2430 H   0  0  0  0  0  0  0  0  0  0  0  0
   -3.3003   -2.3481    1.6439 H   0  0  0  0  0  0  0  0  0  0  0  0
   -0.8855   -3.9421    0.6715 H   0  0  0  0  0  0  0  0  0  0  0  0
   -0.1678   -2.6753    1.6837 H   0  0  0  0  0  0  0  0  0  0  0  0
   -5.2173    0.2308    1.2784 H   0  0  0  0  0  0  0  0  0  0  0  0
   -4.0277    1.4800    0.9292 H   0  0  0  0  0  0  0  0  0  0  0  0
    1.3537   -2.8607   -1.6934 H   0  0  0  0  0  0  0  0  0  0  0  0
   -0.0015   -2.2483   -2.6195 H   0  0  0  0  0  0  0  0  0  0  0  0
   -0.1134   -3.8347   -1.8503 H   0  0  0  0  0  0  0  0  0  0  0  0
   -5.9663   -2.8015    0.0861 H   0  0  0  0  0  0  0  0  0  0  0  0
    1.2395   -4.3805    1.2632 H   0  0  0  0  0  0  0  0  0  0  0  0
   -6.3815    1.9708    2.2362 H   0  0  0  0  0  0  0  0  0  0  0  0
   -7.4821    0.6906    1.6485 H   0  0  0  0  0  0  0  0  0  0  0  0
   -7.9589    2.2760   -1.5603 H   0  0  0  0  0  0  0  0  0  0  0  0
   -7.3779    3.7318   -0.7146 H   0  0  0  0  0  0  0  0  0  0  0  0
   -8.0513    3.6663    2.0112 H   0  0  0  0  0  0  0  0  0  0  0  0
   -9.0893    2.3047    2.4797 H   0  0  0  0  0  0  0  0  0  0  0  0
   -9.6410    3.5830    0.1664 H   0  0  0  0  0  0  0  0  0  0  0  0
   -9.5907    1.8082    0.1466 H   0  0  0  0  0  0  0  0  0  0  0  0
    3.9815   -1.4638    0.9075 H   0  0  0  0  0  0  0  0  0  0  0  0
    6.2987   -1.4547    1.3811 H   0  0  0  0  0  0  0  0  0  0  0  0
    4.4938    1.7469   -0.9124 H   0  0  0  0  0  0  0  0  0  0  0  0
    8.6632    1.8076   -0.0893 H   0  0  0  0  0  0  0  0  0  0  0  0
    7.8529    4.5762   -1.9178 H   0  0  0  0  0  0  0  0  0  0  0  0
    8.6619    3.0156   -1.8936 H   0  0  0  0  0  0  0  0  0  0  0  0
    8.3448    3.9391   -0.3549 H   0  0  0  0  0  0  0  0  0  0  0  0
   10.7195   -0.3230    1.6129 H   0  0  0  0  0  0  0  0  0  0  0  0
    9.9220    1.2435    1.5876 H   0  0  0  0  0  0  0  0  0  0  0  0
   10.2390    0.3200    0.0489 H   0  0  0  0  0  0  0  0  0  0  0  0
  1 16  1  0  0  0  0
  1 25  1  0  0  0  0
  2 17  1  0  0  0  0
  2 60  1  0  0  0  0
  3 21  1  0  0  0  0
  3 61  1  0  0  0  0
  4 24  2  0  0  0  0
  5 25  2  0  0  0  0
  6 33  1  0  0  0  0
  6 36  1  0  0  0  0
  7 34  1  0  0  0  0
  7 37  1  0  0  0  0
  8 24  1  0  0  0  0
  8 26  1  0  0  0  0
  8 27  1  0  0  0  0
  9 25  1  0  0  0  0
  9 30  1  0  0  0  0
  9 70  1  0  0  0  0
 10 11  1  0  0  0  0
 10 13  1  0  0  0  0
 10 14  1  0  0  0  0
 10 20  1  0  0  0  0
 11 12  1  0  0  0  0
 11 15  1  0  0  0  0
 11 38  1  0  0  0  0
 12 16  1  0  0  0  0
 12 21  1  0  0  0  0
 12 23  1  0  0  0  0
 13 17  1  0  0  0  0
 13 22  1  0  0  0  0
 13 39  1  0  0  0  0
 14 18  1  0  0  0  0
 14 40  1  0  0  0  0
 14 41  1  0  0  0  0
 15 19  1  0  0  0  0
 15 42  1  0  0  0  0
 15 43  1  0  0  0  0
 16 18  1  0  0  0  0
 16 44  1  0  0  0  0
 17 19  1  0  0  0  0
 17 45  1  0  0  0  0
 18 46  1  0  0  0  0
 18 47  1  0  0  0  0
 19 48  1  0  0  0  0
 19 49  1  0  0  0  0
 20 50  1  0  0  0  0
 20 51  1  0  0  0  0
 20 52  1  0  0  0  0
 21 53  1  0  0  0  0
 21 54  1  0  0  0  0
 22 24  1  0  0  0  0
 22 55  1  0  0  0  0
 22 56  1  0  0  0  0
 23 57  1  0  0  0  0
 23 58  1  0  0  0  0
 23 59  1  0  0  0  0
 26 28  1  0  0  0  0
 26 62  1  0  0  0  0
 26 63  1  0  0  0  0
 27 29  1  0  0  0  0
 27 64  1  0  0  0  0
 27 65  1  0  0  0  0
 28 29  1  0  0  0  0
 28 66  1  0  0  0  0
 28 67  1  0  0  0  0
 29 68  1  0  0  0  0
 29 69  1  0  0  0  0
 30 31  2  0  0  0  0
 30 32  1  0  0  0  0
 31 34  1  0  0  0  0
 31 71  1  0  0  0  0
 32 33  2  0  0  0  0
 32 72  1  0  0  0  0
 33 35  1  0  0  0  0
 34 35  2  0  0  0  0
 35 73  1  0  0  0  0
 36 74  1  0  0  0  0
 36 75  1  0  0  0  0
 36 76  1  0  0  0  0
 37 77  1  0  0  0  0
 37 78  1  0  0  0  0
 37 79  1  0  0  0  0
M  END
> <PUBCHEM_COMPOUND_CID>
44716947

> <PUBCHEM_CONFORMER_RMSD>
1.2

> <PUBCHEM_CONFORMER_DIVERSEORDER>
1
52
71
15
79
73
48
47
55
13
76
57
69
40
33
59
80
26
3
6
74
51
16
22
28
45
72
17
23
61
5
8
19
64
75
7
65
38
11
68
10
29
44
66
35
58
24
34
20
39
60
46
53
63
56
54
4
12
70
49
36
62
9
31
25
37
50
77
42
21
78
18
43
14
32
67
27
30
2
41

> <PUBCHEM_MMFF94_PARTIAL_CHARGES>
31
1 -0.43
16 0.28
17 0.28
2 -0.68
21 0.28
22 0.06
24 0.57
25 0.78
26 0.3
27 0.3
3 -0.68
30 0.12
31 -0.15
32 -0.15
33 0.08
34 0.08
35 -0.15
36 0.28
37 0.28
4 -0.57
5 -0.57
6 -0.36
60 0.4
61 0.4
7 -0.36
70 0.37
71 0.15
72 0.15
73 0.15
8 -0.66
9 -0.55

> <PUBCHEM_EFFECTIVE_ROTOR_COUNT>
12.6

> <PUBCHEM_PHARMACOPHORE_FEATURES>
13
1 2 acceptor
1 2 donor
1 3 acceptor
1 3 donor
1 4 acceptor
1 5 acceptor
1 6 acceptor
1 7 acceptor
1 9 donor
5 8 26 27 28 29 rings
6 10 11 12 14 16 18 rings
6 10 11 13 15 17 19 rings
6 30 31 32 33 34 35 rings

> <PUBCHEM_HEAVY_ATOM_COUNT>
37

> <PUBCHEM_ATOM_DEF_STEREO_COUNT>
5

> <PUBCHEM_ATOM_UDEF_STEREO_COUNT>
1

> <PUBCHEM_BOND_DEF_STEREO_COUNT>
0

> <PUBCHEM_BOND_UDEF_STEREO_COUNT>
0

> <PUBCHEM_ISOTOPIC_ATOM_COUNT>
0

> <PUBCHEM_COMPONENT_COUNT>
1

> <PUBCHEM_CACTVS_TAUTO_COUNT>
2

> <PUBCHEM_CONFORMER_ID>
02AA539300000001

> <PUBCHEM_MMFF94_ENERGY>
143.833

> <PUBCHEM_FEATURE_SELFOVERLAP>
65.99

> <PUBCHEM_SHAPE_FINGERPRINT>
10 15 18040438755244719073
10165383 225 18271240535540237393
10930396 42 17313106329341269181
11135926 11 18335130965068934407
11181472 205 18409172121818948916
11475781 23 18060427910786208156
11578821 258 18199183061524887872
12013929 29 18265338477076199708
12236239 1 18335416928856155310
12539765 74 18271815622675638062
12895837 130 18412265060559096693
13248334 5 17981048514232960095
13740195 50 18113905983693473409
14040222 383 18343297098553620235
14340393 91 13686299037561602715
14394314 77 18409443691878518096
15183329 4 18199473328551606918
15439362 3 18341897329303716150
1577012 14 18335140938499940780
15840311 113 18337113345715740999
16126227 98 18342741789479055801
19302320 297 18113905952816903436
20105231 36 12685089251626269120
21033648 29 18339349860046697056
21756936 100 18113335306930297531
24771293 8 18341051818791025165
3633792 109 18202004283822773234
4760202 70 10303803320734133746
504843 32 18272089435267766319
5470011 282 12751228216666996080
5776283 40 17989484096658899153
99344 41 18412541012166199214
9962374 69 11314611843343826097

> <PUBCHEM_SHAPE_MULTIPOLES>
710.4
29.79
4.1
1.42
28.45
0.3
0.03
-33.75
-5.31
-3.7
1.15
-0.44
-0.07
-3.8

> <PUBCHEM_SHAPE_SELFOVERLAP>
1492

> <PUBCHEM_SHAPE_VOLUME>
397.5

> <PUBCHEM_COORDINATE_TYPE>
2
5
10

$$$$
