45784207
  -OEChem-12032416363D

 41 44  0     1  0  0  0  0  0999 V2000
    3.3340   -0.9992    0.8185 O   0  0  0  0  0  0  0  0  0  0  0  0
   -3.8944   -2.4720   -1.3594 O   0  5  0  0  0  0  0  0  0  0  0  0
   -3.1362   -2.3469    0.6969 O   0  0  0  0  0  0  0  0  0  0  0  0
   -1.1810    0.1591    0.0521 N   0  0  1  0  0  0  0  0  0  0  0  0
    2.9920    0.9222   -0.3340 N   0  0  0  0  0  0  0  0  0  0  0  0
   -3.7454   -1.8514   -0.2803 N   0  3  0  0  0  0  0  0  0  0  0  0
    1.0158   -0.2476    0.7648 C   0  0  1  0  0  0  0  0  0  0  0  0
    0.4077    0.8944    1.5974 C   0  0  0  0  0  0  0  0  0  0  0  0
    0.0843   -0.3834   -0.4472 C   0  0  0  0  0  0  0  0  0  0  0  0
   -0.8071    1.3572    0.8037 C   0  0  0  0  0  0  0  0  0  0  0  0
   -2.1225    0.4485   -1.0194 C   0  0  0  0  0  0  0  0  0  0  0  0
    2.4628   -0.0495    0.3764 C   0  0  0  0  0  0  0  0  0  0  0  0
   -3.5321    0.5801   -0.5070 C   0  0  0  0  0  0  0  0  0  0  0  0
    4.5394   -0.5790    0.3338 C   0  0  0  0  0  0  0  0  0  0  0  0
    4.3262    0.5968   -0.3708 C   0  0  0  0  0  0  0  0  0  0  0  0
   -4.2857   -0.5413   -0.1608 C   0  0  0  0  0  0  0  0  0  0  0  0
   -4.0821    1.8558   -0.3820 C   0  0  0  0  0  0  0  0  0  0  0  0
    5.7759   -1.1915    0.4962 C   0  0  0  0  0  0  0  0  0  0  0  0
    5.4206    1.2340   -0.9727 C   0  0  0  0  0  0  0  0  0  0  0  0
   -5.5895   -0.3871    0.3105 C   0  0  0  0  0  0  0  0  0  0  0  0
   -5.3860    2.0100    0.0892 C   0  0  0  0  0  0  0  0  0  0  0  0
   -6.1396    0.8886    0.4355 C   0  0  0  0  0  0  0  0  0  0  0  0
    6.8571   -0.5433   -0.1106 C   0  0  0  0  0  0  0  0  0  0  0  0
    6.6857    0.6454   -0.8308 C   0  0  0  0  0  0  0  0  0  0  0  0
    0.9461   -1.1671    1.3634 H   0  0  0  0  0  0  0  0  0  0  0  0
    0.0935    0.5050    2.5739 H   0  0  0  0  0  0  0  0  0  0  0  0
    1.1046    1.7199    1.7774 H   0  0  0  0  0  0  0  0  0  0  0  0
    0.4571    0.1933   -1.3043 H   0  0  0  0  0  0  0  0  0  0  0  0
   -0.0166   -1.4297   -0.7555 H   0  0  0  0  0  0  0  0  0  0  0  0
   -1.6030    1.7018    1.4713 H   0  0  0  0  0  0  0  0  0  0  0  0
   -0.5202    2.1847    0.1421 H   0  0  0  0  0  0  0  0  0  0  0  0
   -1.8291    1.3444   -1.5845 H   0  0  0  0  0  0  0  0  0  0  0  0
   -2.1099   -0.3567   -1.7667 H   0  0  0  0  0  0  0  0  0  0  0  0
   -3.5074    2.7397   -0.6459 H   0  0  0  0  0  0  0  0  0  0  0  0
    5.8978   -2.1108    1.0551 H   0  0  0  0  0  0  0  0  0  0  0  0
    5.2994    2.1551   -1.5330 H   0  0  0  0  0  0  0  0  0  0  0  0
   -6.1892   -1.2518    0.5843 H   0  0  0  0  0  0  0  0  0  0  0  0
   -5.8142    3.0033    0.1870 H   0  0  0  0  0  0  0  0  0  0  0  0
   -7.1547    1.0089    0.8025 H   0  0  0  0  0  0  0  0  0  0  0  0
    7.8523   -0.9721   -0.0208 H   0  0  0  0  0  0  0  0  0  0  0  0
    7.5490    1.1216   -1.2890 H   0  0  0  0  0  0  0  0  0  0  0  0
  1 12  1  0  0  0  0
  1 14  1  0  0  0  0
  2  6  1  0  0  0  0
  3  6  2  0  0  0  0
  4  9  1  0  0  0  0
  4 10  1  0  0  0  0
  4 11  1  0  0  0  0
  5 12  2  0  0  0  0
  5 15  1  0  0  0  0
  6 16  1  0  0  0  0
  7  8  1  0  0  0  0
  7  9  1  0  0  0  0
  7 12  1  0  0  0  0
  7 25  1  0  0  0  0
  8 10  1  0  0  0  0
  8 26  1  0  0  0  0
  8 27  1  0  0  0  0
  9 28  1  0  0  0  0
  9 29  1  0  0  0  0
 10 30  1  0  0  0  0
 10 31  1  0  0  0  0
 11 13  1  0  0  0  0
 11 32  1  0  0  0  0
 11 33  1  0  0  0  0
 13 16  1  0  0  0  0
 13 17  2  0  0  0  0
 14 15  1  0  0  0  0
 14 18  2  0  0  0  0
 15 19  2  0  0  0  0
 16 20  2  0  0  0  0
 17 21  1  0  0  0  0
 17 34  1  0  0  0  0
 18 23  1  0  0  0  0
 18 35  1  0  0  0  0
 19 24  1  0  0  0  0
 19 36  1  0  0  0  0
 20 22  1  0  0  0  0
 20 37  1  0  0  0  0
 21 22  2  0  0  0  0
 21 38  1  0  0  0  0
 22 39  1  0  0  0  0
 23 24  2  0  0  0  0
 23 40  1  0  0  0  0
 24 41  1  0  0  0  0
M  CHG  2   2  -1   6   1
M  END
> <PUBCHEM_COMPOUND_CID>
45784207

> <PUBCHEM_CONFORMER_RMSD>
0.8

> <PUBCHEM_CONFORMER_DIVERSEORDER>
1
4
64
52
41
61
73
82
34
57
54
62
49
72
69
11
76
44
51
32
53
33
35
71
75
63
80
13
38
60
26
2
25
43
31
9
66
37
19
7
70
36
29
40
59
48
20
3
68
46
24
77
79
81
27
56
45
47
17
5
6
58
67
74
42
14
15
18
22
21
39
8
55
65
28
12
10
30
16
23
50
78

> <PUBCHEM_MMFF94_PARTIAL_CHARGES>
31
1 -0.28
10 0.27
11 0.41
12 0.3
13 -0.14
14 0.14
15 0.23
16 0.13
17 -0.15
18 -0.15
19 -0.15
2 -0.52
20 -0.15
21 -0.15
22 -0.15
23 -0.15
24 -0.15
3 -0.52
34 0.15
35 0.15
36 0.15
37 0.15
38 0.15
39 0.15
4 -0.81
40 0.15
41 0.15
5 -0.57
6 0.91
7 0.18
9 0.27

> <PUBCHEM_EFFECTIVE_ROTOR_COUNT>
5

> <PUBCHEM_PHARMACOPHORE_FEATURES>
8
1 2 acceptor
1 2 anion
1 3 acceptor
1 4 cation
5 1 5 12 14 15 rings
5 4 7 8 9 10 rings
6 13 16 17 20 21 22 rings
6 14 15 18 19 23 24 rings

> <PUBCHEM_HEAVY_ATOM_COUNT>
24

> <PUBCHEM_ATOM_DEF_STEREO_COUNT>
1

> <PUBCHEM_ATOM_UDEF_STEREO_COUNT>
0

> <PUBCHEM_BOND_DEF_STEREO_COUNT>
0

> <PUBCHEM_BOND_UDEF_STEREO_COUNT>
0

> <PUBCHEM_ISOTOPIC_ATOM_COUNT>
0

> <PUBCHEM_COMPONENT_COUNT>
1

> <PUBCHEM_CACTVS_TAUTO_COUNT>
1

> <PUBCHEM_CONFORMER_ID>
02BA9C8F00000001

> <PUBCHEM_MMFF94_ENERGY>
59.1484

> <PUBCHEM_FEATURE_SELFOVERLAP>
40.797

> <PUBCHEM_SHAPE_FINGERPRINT>
10299344 5 18408042909774772483
10595046 47 18260266352236505452
11315181 36 18260831505961934237
11524674 6 16988560212872107071
11796584 16 18202283593851039350
12107183 9 17468185648613655288
12166972 35 17967537865806033820
12236239 1 18335421253455517212
12516196 113 14189569732730087712
12616971 3 17603309266757209836
12730499 353 16805326557422218424
12788726 201 17844808092605479521
12821665 9 18042695090011028108
13533116 47 18342173311908129394
13690498 29 18269549597935523295
14251752 14 18341894069681182472
14251764 18 18342177769936112715
14856354 85 18341899610494728869
14933364 13 18334860506730842988
15183329 4 18113330908314145218
15250474 111 18262783134036870394
17093844 174 17560793342570916667
17834072 33 18333449850792611556
17844677 252 18273215339141950040
19489759 90 9655577413734911085
200 152 18334295375039179664
21236236 1 18409449211085540579
21267235 1 18410857707424822747
220451 1 18408322177185830682
23035841 295 18411419501019120179
23081809 10 18260543437893841622
23198884 109 18187086143825808401
23402539 116 18259702298334044844
23516275 137 18193859066739636330
23522609 53 18264513761096704868
23536379 177 18333732394894600928
23559900 14 18272925050871203856
23569943 247 16372398170295793362
24771293 8 18115022043804523140
2838139 119 16950280728668056676
29717793 49 18342463608826319684
3004659 81 18408886209898291538
314173 85 15985387785178768376
335352 9 18342735214026700037
4073 2 17749678480099433698
4325135 7 18186803577732056868
5265222 85 18341334495308428670
542803 24 18259983764815766340
59755656 215 17703514290253284822
59755656 520 16443068300406829306
7226269 152 18131071498516618705
7495541 125 18201997776751848832
999808 66 17894925052929423307

> <PUBCHEM_SHAPE_MULTIPOLES>
461.36
18.26
1.86
1.05
11.72
0.63
-0.06
-0.96
2.22
-2.43
0.19
0.09
-0.01
-1.12

> <PUBCHEM_SHAPE_SELFOVERLAP>
1014.64

> <PUBCHEM_SHAPE_VOLUME>
250.8

> <PUBCHEM_COORDINATE_TYPE>
2
5
10

$$$$
