11911940
  -OEChem-12032416123D

 60 64  0     1  0  0  0  0  0999 V2000
   -0.5314   -3.2950    1.0577 O   0  0  0  0  0  0  0  0  0  0  0  0
   -0.9093   -2.0775   -1.8175 O   0  0  0  0  0  0  0  0  0  0  0  0
   -5.2264   -1.6951    0.1548 O   0  0  0  0  0  0  0  0  0  0  0  0
    2.2265   -1.8412    0.0400 N   0  0  0  0  0  0  0  0  0  0  0  0
   -3.0639   -0.8650    0.0414 N   0  0  0  0  0  0  0  0  0  0  0  0
    2.1324   -1.2670    1.2503 N   0  0  0  0  0  0  0  0  0  0  0  0
    3.3030   -0.6930    1.5064 N   0  0  0  0  0  0  0  0  0  0  0  0
   -0.1481   -1.6868   -0.6601 C   0  0  1  0  0  0  0  0  0  0  0  0
   -0.9823   -2.0254    0.5600 C   0  0  1  0  0  0  0  0  0  0  0  0
    1.0868   -2.5591   -0.5368 C   0  0  2  0  0  0  0  0  0  0  0  0
   -2.3928   -2.1423    0.0276 C   0  0  2  0  0  0  0  0  0  0  0  0
    0.5886   -3.7444    0.2829 C   0  0  0  0  0  0  0  0  0  0  0  0
   -2.1639   -2.6275   -1.3917 C   0  0  0  0  0  0  0  0  0  0  0  0
    5.5905    0.9876   -0.2002 C   0  0  0  0  0  0  0  0  0  0  0  0
    5.1474    2.0525    0.8123 C   0  0  0  0  0  0  0  0  0  0  0  0
    7.0129    1.2695   -0.7025 C   0  0  0  0  0  0  0  0  0  0  0  0
    5.5015   -0.4090    0.4120 C   0  0  0  0  0  0  0  0  0  0  0  0
    5.2782    3.4625    0.2410 C   0  0  0  0  0  0  0  0  0  0  0  0
    7.1407    2.6809   -1.2710 C   0  0  0  0  0  0  0  0  0  0  0  0
    3.4562   -1.6517   -0.5113 C   0  0  0  0  0  0  0  0  0  0  0  0
    4.0986   -0.9291    0.4379 C   0  0  0  0  0  0  0  0  0  0  0  0
    6.6911    3.7359   -0.2651 C   0  0  0  0  0  0  0  0  0  0  0  0
   -4.4451   -0.7487    0.1048 C   0  0  0  0  0  0  0  0  0  0  0  0
   -4.9827    0.6360    0.0839 C   0  0  0  0  0  0  0  0  0  0  0  0
   -6.2531    0.8505   -0.4091 C   0  0  0  0  0  0  0  0  0  0  0  0
   -4.1947    1.6635    0.5600 C   0  0  0  0  0  0  0  0  0  0  0  0
   -6.7581    2.1507   -0.4270 C   0  0  0  0  0  0  0  0  0  0  0  0
   -4.6998    2.9636    0.5423 C   0  0  0  0  0  0  0  0  0  0  0  0
   -5.9814    3.2072    0.0487 C   0  0  0  0  0  0  0  0  0  0  0  0
   -6.5215    4.5973    0.0284 C   0  0  0  0  0  0  0  0  0  0  0  0
    0.0582   -0.6159   -0.7558 H   0  0  0  0  0  0  0  0  0  0  0  0
   -0.8710   -1.2981    1.3707 H   0  0  0  0  0  0  0  0  0  0  0  0
    1.4328   -2.9162   -1.5147 H   0  0  0  0  0  0  0  0  0  0  0  0
   -2.9997   -2.8650    0.5838 H   0  0  0  0  0  0  0  0  0  0  0  0
    1.3456   -4.1657    0.9513 H   0  0  0  0  0  0  0  0  0  0  0  0
    0.2265   -4.5433   -0.3734 H   0  0  0  0  0  0  0  0  0  0  0  0
   -2.0685   -3.7185   -1.4228 H   0  0  0  0  0  0  0  0  0  0  0  0
   -2.9471   -2.3298   -2.0955 H   0  0  0  0  0  0  0  0  0  0  0  0
    4.9201    1.0443   -1.0698 H   0  0  0  0  0  0  0  0  0  0  0  0
   -2.4888   -0.0438   -0.1142 H   0  0  0  0  0  0  0  0  0  0  0  0
    4.1049    1.8922    1.1088 H   0  0  0  0  0  0  0  0  0  0  0  0
    5.7532    1.9784    1.7245 H   0  0  0  0  0  0  0  0  0  0  0  0
    7.2882    0.5447   -1.4780 H   0  0  0  0  0  0  0  0  0  0  0  0
    7.7297    1.1444    0.1193 H   0  0  0  0  0  0  0  0  0  0  0  0
    6.1073   -1.1126   -0.1743 H   0  0  0  0  0  0  0  0  0  0  0  0
    5.9188   -0.4204    1.4267 H   0  0  0  0  0  0  0  0  0  0  0  0
    5.0138    4.1974    1.0097 H   0  0  0  0  0  0  0  0  0  0  0  0
    4.5643    3.5903   -0.5821 H   0  0  0  0  0  0  0  0  0  0  0  0
    6.5351    2.7634   -2.1820 H   0  0  0  0  0  0  0  0  0  0  0  0
    8.1807    2.8683   -1.5612 H   0  0  0  0  0  0  0  0  0  0  0  0
    3.7383   -2.0326   -1.4824 H   0  0  0  0  0  0  0  0  0  0  0  0
    6.7317    4.7283   -0.7281 H   0  0  0  0  0  0  0  0  0  0  0  0
    7.3861    3.7503    0.5836 H   0  0  0  0  0  0  0  0  0  0  0  0
   -6.8684    0.0400   -0.7880 H   0  0  0  0  0  0  0  0  0  0  0  0
   -3.2072    1.5116    0.9832 H   0  0  0  0  0  0  0  0  0  0  0  0
   -7.7569    2.3283   -0.8168 H   0  0  0  0  0  0  0  0  0  0  0  0
   -4.0876    3.7779    0.9207 H   0  0  0  0  0  0  0  0  0  0  0  0
   -6.1061    5.1949    0.8470 H   0  0  0  0  0  0  0  0  0  0  0  0
   -7.6101    4.5998    0.1508 H   0  0  0  0  0  0  0  0  0  0  0  0
   -6.2739    5.0826   -0.9208 H   0  0  0  0  0  0  0  0  0  0  0  0
  1  9  1  0  0  0  0
  1 12  1  0  0  0  0
  2  8  1  0  0  0  0
  2 13  1  0  0  0  0
  3 23  2  0  0  0  0
  4  6  1  0  0  0  0
  4 10  1  0  0  0  0
  4 20  1  0  0  0  0
  5 11  1  0  0  0  0
  5 23  1  0  0  0  0
  5 40  1  0  0  0  0
  6  7  2  0  0  0  0
  7 21  1  0  0  0  0
  8  9  1  0  0  0  0
  8 10  1  0  0  0  0
  8 31  1  0  0  0  0
  9 11  1  0  0  0  0
  9 32  1  0  0  0  0
 10 12  1  0  0  0  0
 10 33  1  0  0  0  0
 11 13  1  0  0  0  0
 11 34  1  0  0  0  0
 12 35  1  0  0  0  0
 12 36  1  0  0  0  0
 13 37  1  0  0  0  0
 13 38  1  0  0  0  0
 14 15  1  0  0  0  0
 14 16  1  0  0  0  0
 14 17  1  0  0  0  0
 14 39  1  0  0  0  0
 15 18  1  0  0  0  0
 15 41  1  0  0  0  0
 15 42  1  0  0  0  0
 16 19  1  0  0  0  0
 16 43  1  0  0  0  0
 16 44  1  0  0  0  0
 17 21  1  0  0  0  0
 17 45  1  0  0  0  0
 17 46  1  0  0  0  0
 18 22  1  0  0  0  0
 18 47  1  0  0  0  0
 18 48  1  0  0  0  0
 19 22  1  0  0  0  0
 19 49  1  0  0  0  0
 19 50  1  0  0  0  0
 20 21  2  0  0  0  0
 20 51  1  0  0  0  0
 22 52  1  0  0  0  0
 22 53  1  0  0  0  0
 23 24  1  0  0  0  0
 24 25  2  0  0  0  0
 24 26  1  0  0  0  0
 25 27  1  0  0  0  0
 25 54  1  0  0  0  0
 26 28  2  0  0  0  0
 26 55  1  0  0  0  0
 27 29  2  0  0  0  0
 27 56  1  0  0  0  0
 28 29  1  0  0  0  0
 28 57  1  0  0  0  0
 29 30  1  0  0  0  0
 30 58  1  0  0  0  0
 30 59  1  0  0  0  0
 30 60  1  0  0  0  0
M  END
> <PUBCHEM_COMPOUND_CID>
11911940

> <PUBCHEM_CONFORMER_RMSD>
1

> <PUBCHEM_CONFORMER_DIVERSEORDER>
1
44
107
71
65
49
8
104
94
83
79
78
119
69
51
64
100
68
109
33
26
52
102
50
42
84
99
36
11
116
101
72
103
81
43
45
53
96
57
108
67
32
117
30
85
76
62
16
21
97
98
40
115
87
35
88
92
14
59
82
105
80
95
118
61
3
27
48
24
13
10
56
93
25
12
15
73
106
54
77
39
111
34
4
90
19
75
29
120
38
23
60
20
9
113
121
74
55
86
17
114
41
91
58
63
37
22
7
6
31
28
66
18
2
5
89
110
70
112
46
47

> <PUBCHEM_MMFF94_PARTIAL_CHARGES>
30
1 -0.56
10 0.26
11 0.3
12 0.28
13 0.28
17 0.18
2 -0.56
20 -0.3
21 0.05
23 0.54
24 0.09
25 -0.15
26 -0.15
27 -0.15
28 -0.15
29 -0.14
3 -0.57
30 0.14
4 0.31
40 0.37
5 -0.73
51 0.15
54 0.15
55 0.15
56 0.15
57 0.15
6 -0.42
7 -0.23
8 0.28
9 0.28

> <PUBCHEM_EFFECTIVE_ROTOR_COUNT>
8.4

> <PUBCHEM_PHARMACOPHORE_FEATURES>
9
1 1 acceptor
1 2 acceptor
1 3 acceptor
1 5 donor
5 1 8 9 10 12 rings
5 2 8 9 11 13 rings
5 4 6 7 20 21 rings
6 14 15 16 18 19 22 rings
6 24 25 26 27 28 29 rings

> <PUBCHEM_HEAVY_ATOM_COUNT>
30

> <PUBCHEM_ATOM_DEF_STEREO_COUNT>
4

> <PUBCHEM_ATOM_UDEF_STEREO_COUNT>
0

> <PUBCHEM_BOND_DEF_STEREO_COUNT>
0

> <PUBCHEM_BOND_UDEF_STEREO_COUNT>
0

> <PUBCHEM_ISOTOPIC_ATOM_COUNT>
0

> <PUBCHEM_COMPONENT_COUNT>
1

> <PUBCHEM_CACTVS_TAUTO_COUNT>
2

> <PUBCHEM_CONFORMER_ID>
00B5C30400000001

> <PUBCHEM_MMFF94_ENERGY>
59.6231

> <PUBCHEM_FEATURE_SELFOVERLAP>
46.365

> <PUBCHEM_SHAPE_FINGERPRINT>
10280341 67 18270668892473354360
10864689 126 18272088301670615600
10883706 163 18188767250098025469
11273773 38 18411698772894639528
11374522 155 18267024960879065753
11409948 35 9366756592273613641
11991303 11 16988559164504662767
12895837 130 18341611508668310511
12975358 362 18194141628849617353
13782708 43 10303807679334433571
13944108 23 18196935479072830344
14202776 33 18059286695026469047
14617042 71 18270405959192317857
14739800 52 18190456065687818931
14790565 3 18410855490551681106
14951699 99 18334017198286376028
15064981 113 17203337680623367756
15198563 99 17768240568169865391
15475509 35 11026385838872612103
155225 6 18338801109181686161
15575132 122 18342741848674642211
15950262 2 18334579031410987818
15979999 66 17337882525870510542
15980000 95 17400924098980904586
16112460 7 18409164402971823244
16993089 31 13326278347919954629
19053607 189 18340758274064435808
19438510 23 18114181964699948874
20058555 10 18411138034843912209
20691028 202 18336263530991886556
20766409 102 18411139139874542373
20775438 99 11670335714416222502
21223535 225 18200307862003861892
21424621 283 18334015020986103914
21585481 104 13830133867351991513
21585482 111 18261955141704217820
22122407 14 18335141998786962762
23569943 247 9294991485228936669
24204213 149 17535163590112191346
270888 7 18409166623427385702
2748736 6 18410283709839803816
2838139 119 18343295963917700615
3388396 114 16974197567119220028
3418910 222 18189626115034409589
3918712 181 18410288086644074349
392239 28 15357975728542729386
393628 194 18340485552775029557
4144715 1 18261685851655233794
4169191 19 18336825304309294533
44249763 50 17559944601678687138
44802255 64 17703235138701323326
50009960 94 8862656846453423744
5718773 13 9655582898445038758
57724786 102 18335130982687042890
6201320 77 12390081640240720053
636775 72 18195807599587354664
6673363 416 18051980508477888975
7288768 16 18041277754940423883
7970288 3 9475713249780157641

> <PUBCHEM_SHAPE_MULTIPOLES>
579.85
21.63
5.89
1.08
5.11
3.19
-0.12
31.41
-2.21
-1.88
-0.21
0.64
-0.36
-1.34

> <PUBCHEM_SHAPE_SELFOVERLAP>
1247.903

> <PUBCHEM_SHAPE_VOLUME>
319.6

> <PUBCHEM_COORDINATE_TYPE>
2
5
10

$$$$
