95790522
  -OEChem-12032416403D

 83 86  0     1  0  0  0  0  0999 V2000
   -0.7532    0.5777   -1.6266 O   0  0  0  0  0  0  0  0  0  0  0  0
    0.8777    3.8155   -1.7754 O   0  0  0  0  0  0  0  0  0  0  0  0
    5.5443   -0.2637    2.3403 O   0  0  0  0  0  0  0  0  0  0  0  0
    1.6451    3.3452    0.3586 N   0  0  0  0  0  0  0  0  0  0  0  0
    4.0155   -1.9483    1.8655 N   0  0  0  0  0  0  0  0  0  0  0  0
   -1.5042    3.2374    0.1603 N   0  0  0  0  0  0  0  0  0  0  0  0
   -6.1440    0.0094   -0.3113 N   0  0  3  0  0  0  0  0  0  0  0  0
    6.3597   -2.1822   -0.4872 N   0  0  0  0  0  0  0  0  0  0  0  0
   -7.2539   -3.2228    1.1444 N   0  0  0  0  0  0  0  0  0  0  0  0
    2.8862    1.2099    0.4846 C   0  0  2  0  0  0  0  0  0  0  0  0
    3.0282    1.4102    2.0202 C   0  0  1  0  0  0  0  0  0  0  0  0
    1.8502    2.2265    2.5804 C   0  0  0  0  0  0  0  0  0  0  0  0
    2.8088    2.6129   -0.1514 C   0  0  0  0  0  0  0  0  0  0  0  0
    1.6658    0.3325    0.1154 C   0  0  0  0  0  0  0  0  0  0  0  0
    1.6364    3.5349    1.8160 C   0  0  0  0  0  0  0  0  0  0  0  0
    3.1959    0.1015    2.7921 C   0  0  0  0  0  0  0  0  0  0  0  0
    1.5399   -0.0213   -1.3744 C   0  0  0  0  0  0  0  0  0  0  0  0
    0.7096    3.8430   -0.5505 C   0  0  0  0  0  0  0  0  0  0  0  0
    4.3941   -0.6931    2.3189 C   0  0  0  0  0  0  0  0  0  0  0  0
    0.1311   -0.5454   -1.6721 C   0  0  0  0  0  0  0  0  0  0  0  0
   -0.6045    4.3795   -0.0126 C   0  0  0  0  0  0  0  0  0  0  0  0
   -2.2110    2.9060   -1.0824 C   0  0  0  0  0  0  0  0  0  0  0  0
   -2.0733    0.3680   -1.3323 C   0  0  0  0  0  0  0  0  0  0  0  0
    4.9553   -2.9188    1.3532 C   0  0  0  0  0  0  0  0  0  0  0  0
   -2.8287    1.5240   -1.0367 C   0  0  0  0  0  0  0  0  0  0  0  0
   -4.1824    1.3895   -0.6927 C   0  0  0  0  0  0  0  0  0  0  0  0
   -2.6947   -0.8847   -1.3296 C   0  0  0  0  0  0  0  0  0  0  0  0
    5.1893   -2.7510   -0.1203 C   0  0  0  0  0  0  0  0  0  0  0  0
   -4.7864    0.1338   -0.6709 C   0  0  0  0  0  0  0  0  0  0  0  0
   -4.0455   -0.9988   -0.9963 C   0  0  0  0  0  0  0  0  0  0  0  0
   -6.7794   -1.2930   -0.2844 C   0  0  0  0  0  0  0  0  0  0  0  0
    4.2200   -3.1769   -1.0141 C   0  0  0  0  0  0  0  0  0  0  0  0
   -6.9233    1.1829    0.0290 C   0  0  0  0  0  0  0  0  0  0  0  0
   -6.5968   -1.9229    1.0905 C   0  0  0  0  0  0  0  0  0  0  0  0
    4.4677   -3.0084   -2.3718 C   0  0  0  0  0  0  0  0  0  0  0  0
    6.5652   -2.0348   -1.8153 C   0  0  0  0  0  0  0  0  0  0  0  0
    5.6604   -2.4273   -2.7884 C   0  0  0  0  0  0  0  0  0  0  0  0
   -6.4294   -4.2452    0.4972 C   0  0  0  0  0  0  0  0  0  0  0  0
   -7.5359   -3.6014    2.5304 C   0  0  0  0  0  0  0  0  0  0  0  0
    3.7900    0.7211    0.0998 H   0  0  0  0  0  0  0  0  0  0  0  0
    3.9415    2.0016    2.1839 H   0  0  0  0  0  0  0  0  0  0  0  0
    2.0231    2.4552    3.6390 H   0  0  0  0  0  0  0  0  0  0  0  0
    0.9292    1.6323    2.5405 H   0  0  0  0  0  0  0  0  0  0  0  0
    3.7005    3.1991    0.1044 H   0  0  0  0  0  0  0  0  0  0  0  0
    2.7898    2.5480   -1.2422 H   0  0  0  0  0  0  0  0  0  0  0  0
    0.7459    0.8260    0.4465 H   0  0  0  0  0  0  0  0  0  0  0  0
    1.7060   -0.6155    0.6612 H   0  0  0  0  0  0  0  0  0  0  0  0
    0.7177    3.9999    2.1705 H   0  0  0  0  0  0  0  0  0  0  0  0
    2.4528    4.2315    2.0425 H   0  0  0  0  0  0  0  0  0  0  0  0
    2.2775   -0.4942    2.7691 H   0  0  0  0  0  0  0  0  0  0  0  0
    3.3741    0.3231    3.8526 H   0  0  0  0  0  0  0  0  0  0  0  0
    1.7279    0.8531   -2.0034 H   0  0  0  0  0  0  0  0  0  0  0  0
    2.2833   -0.7835   -1.6278 H   0  0  0  0  0  0  0  0  0  0  0  0
    0.0955   -0.9777   -2.6776 H   0  0  0  0  0  0  0  0  0  0  0  0
   -0.1253   -1.3114   -0.9311 H   0  0  0  0  0  0  0  0  0  0  0  0
   -1.0108    5.1182   -0.7144 H   0  0  0  0  0  0  0  0  0  0  0  0
   -0.4685    4.9186    0.9251 H   0  0  0  0  0  0  0  0  0  0  0  0
    3.0351   -2.2127    1.8716 H   0  0  0  0  0  0  0  0  0  0  0  0
   -2.1974    3.4614    0.8746 H   0  0  0  0  0  0  0  0  0  0  0  0
   -1.5479    2.9498   -1.9546 H   0  0  0  0  0  0  0  0  0  0  0  0
   -2.9897    3.6563   -1.2722 H   0  0  0  0  0  0  0  0  0  0  0  0
    4.5575   -3.9174    1.5645 H   0  0  0  0  0  0  0  0  0  0  0  0
    5.9014   -2.8195    1.8977 H   0  0  0  0  0  0  0  0  0  0  0  0
   -4.7331    2.2949   -0.4538 H   0  0  0  0  0  0  0  0  0  0  0  0
   -2.1557   -1.7915   -1.5863 H   0  0  0  0  0  0  0  0  0  0  0  0
   -4.4502   -2.0046   -0.9913 H   0  0  0  0  0  0  0  0  0  0  0  0
   -7.8571   -1.1660   -0.4623 H   0  0  0  0  0  0  0  0  0  0  0  0
   -6.4642   -1.9293   -1.1166 H   0  0  0  0  0  0  0  0  0  0  0  0
    3.2921   -3.6276   -0.6787 H   0  0  0  0  0  0  0  0  0  0  0  0
   -5.5382   -1.9943    1.3721 H   0  0  0  0  0  0  0  0  0  0  0  0
   -7.0547   -1.2436    1.8231 H   0  0  0  0  0  0  0  0  0  0  0  0
   -7.9500    0.9160    0.3051 H   0  0  0  0  0  0  0  0  0  0  0  0
   -6.9946    1.8714   -0.8202 H   0  0  0  0  0  0  0  0  0  0  0  0
   -6.4982    1.7054    0.8932 H   0  0  0  0  0  0  0  0  0  0  0  0
    3.7322   -3.3280   -3.1038 H   0  0  0  0  0  0  0  0  0  0  0  0
    7.5099   -1.5762   -2.0880 H   0  0  0  0  0  0  0  0  0  0  0  0
    5.8744   -2.2856   -3.8415 H   0  0  0  0  0  0  0  0  0  0  0  0
   -5.4477   -4.3494    0.9739 H   0  0  0  0  0  0  0  0  0  0  0  0
   -6.9306   -5.2192    0.5395 H   0  0  0  0  0  0  0  0  0  0  0  0
   -6.2765   -4.0324   -0.5650 H   0  0  0  0  0  0  0  0  0  0  0  0
   -6.6229   -3.6719    3.1327 H   0  0  0  0  0  0  0  0  0  0  0  0
   -8.0505   -4.5681    2.5686 H   0  0  0  0  0  0  0  0  0  0  0  0
   -8.2066   -2.8739    3.0011 H   0  0  0  0  0  0  0  0  0  0  0  0
  1 20  1  0  0  0  0
  1 23  1  0  0  0  0
  2 18  2  0  0  0  0
  3 19  2  0  0  0  0
  4 13  1  0  0  0  0
  4 15  1  0  0  0  0
  4 18  1  0  0  0  0
  5 19  1  0  0  0  0
  5 24  1  0  0  0  0
  5 58  1  0  0  0  0
  6 21  1  0  0  0  0
  6 22  1  0  0  0  0
  6 59  1  0  0  0  0
  7 29  1  0  0  0  0
  7 31  1  0  0  0  0
  7 33  1  0  0  0  0
  8 28  1  0  0  0  0
  8 36  2  0  0  0  0
  9 34  1  0  0  0  0
  9 38  1  0  0  0  0
  9 39  1  0  0  0  0
 10 11  1  0  0  0  0
 10 13  1  0  0  0  0
 10 14  1  0  0  0  0
 10 40  1  0  0  0  0
 11 12  1  0  0  0  0
 11 16  1  0  0  0  0
 11 41  1  0  0  0  0
 12 15  1  0  0  0  0
 12 42  1  0  0  0  0
 12 43  1  0  0  0  0
 13 44  1  0  0  0  0
 13 45  1  0  0  0  0
 14 17  1  0  0  0  0
 14 46  1  0  0  0  0
 14 47  1  0  0  0  0
 15 48  1  0  0  0  0
 15 49  1  0  0  0  0
 16 19  1  0  0  0  0
 16 50  1  0  0  0  0
 16 51  1  0  0  0  0
 17 20  1  0  0  0  0
 17 52  1  0  0  0  0
 17 53  1  0  0  0  0
 18 21  1  0  0  0  0
 20 54  1  0  0  0  0
 20 55  1  0  0  0  0
 21 56  1  0  0  0  0
 21 57  1  0  0  0  0
 22 25  1  0  0  0  0
 22 60  1  0  0  0  0
 22 61  1  0  0  0  0
 23 25  2  0  0  0  0
 23 27  1  0  0  0  0
 24 28  1  0  0  0  0
 24 62  1  0  0  0  0
 24 63  1  0  0  0  0
 25 26  1  0  0  0  0
 26 29  2  0  0  0  0
 26 64  1  0  0  0  0
 27 30  2  0  0  0  0
 27 65  1  0  0  0  0
 28 32  2  0  0  0  0
 29 30  1  0  0  0  0
 30 66  1  0  0  0  0
 31 34  1  0  0  0  0
 31 67  1  0  0  0  0
 31 68  1  0  0  0  0
 32 35  1  0  0  0  0
 32 69  1  0  0  0  0
 33 72  1  0  0  0  0
 33 73  1  0  0  0  0
 33 74  1  0  0  0  0
 34 70  1  0  0  0  0
 34 71  1  0  0  0  0
 35 37  2  0  0  0  0
 35 75  1  0  0  0  0
 36 37  1  0  0  0  0
 36 76  1  0  0  0  0
 37 77  1  0  0  0  0
 38 78  1  0  0  0  0
 38 79  1  0  0  0  0
 38 80  1  0  0  0  0
 39 81  1  0  0  0  0
 39 82  1  0  0  0  0
 39 83  1  0  0  0  0
M  END
> <PUBCHEM_COMPOUND_CID>
95790522

> <PUBCHEM_CONFORMER_RMSD>
1.2

> <PUBCHEM_CONFORMER_DIVERSEORDER>
10
37
39
123
90
13
91
121
36
113
93
51
120
23
97
118
110
56
52
84
60
114
108
129
81
87
107
115
2
17
71
122
53
6
29
116
69
21
125
65
138
88
31
78
85
70
77
76
66
100
95
103
28
26
24
47
136
4
43
55
96
30
119
35
7
18
94
132
40
16
75
127
49
112
63
48
68
46
135
3
9
86
109
82
1
102
73
139
134
133
83
59
106
89
27
105
25
42
67
32
140
61
92
130
8
58
137
126
5
131
50
11
99
64
15
20
38
111
62
124
104
19
101
72
12
45
117
128
80
22
54
79
44
34
74
57
14
41
33
98

> <PUBCHEM_MMFF94_PARTIAL_CHARGES>
43
1 -0.36
13 0.3
15 0.3
16 0.06
18 0.57
19 0.57
2 -0.57
20 0.28
21 0.33
22 0.41
23 0.08
24 0.44
25 -0.14
26 -0.15
27 -0.15
28 0.17
29 0.1
3 -0.57
30 -0.15
31 0.37
32 -0.15
33 0.37
34 0.27
35 -0.15
36 0.16
37 -0.15
38 0.27
39 0.27
4 -0.66
5 -0.73
58 0.37
59 0.36
6 -0.9
64 0.15
65 0.15
66 0.15
69 0.15
7 -0.84
75 0.15
76 0.15
77 0.15
8 -0.62
9 -0.81

> <PUBCHEM_EFFECTIVE_ROTOR_COUNT>
11.2

> <PUBCHEM_PHARMACOPHORE_FEATURES>
12
1 1 acceptor
1 2 acceptor
1 3 acceptor
1 5 donor
1 6 cation
1 6 donor
1 7 cation
1 8 acceptor
1 9 cation
6 23 25 26 27 29 30 rings
6 4 10 11 12 13 15 rings
6 8 28 32 35 36 37 rings

> <PUBCHEM_HEAVY_ATOM_COUNT>
39

> <PUBCHEM_ATOM_DEF_STEREO_COUNT>
2

> <PUBCHEM_ATOM_UDEF_STEREO_COUNT>
0

> <PUBCHEM_BOND_DEF_STEREO_COUNT>
0

> <PUBCHEM_BOND_UDEF_STEREO_COUNT>
0

> <PUBCHEM_ISOTOPIC_ATOM_COUNT>
0

> <PUBCHEM_COMPONENT_COUNT>
1

> <PUBCHEM_CACTVS_TAUTO_COUNT>
22

> <PUBCHEM_CONFORMER_ID>
05B5A5BA0000000A

> <PUBCHEM_MMFF94_ENERGY>
116.674

> <PUBCHEM_FEATURE_SELFOVERLAP>
60.897

> <PUBCHEM_SHAPE_FINGERPRINT>
10319926 262 18411415073593724863
11135609 12 18271235020190572512
117089 54 18409736166398238595
12422481 6 17703494515823232189
12661589 4 17822859796142896163
13383661 66 18272092647907961354
13383668 262 17605844839487256998
13782708 43 18409728456948078479
15351334 14 11458710555983026923
15419008 47 17916585319994826092
20501277 246 18131079186245023143
20587220 46 18124035890939858531
394071 54 16343418410963518846
4112364 45 13470395673850065389
4144715 1 18410289195225411865
56633871 153 18201422693352299181
6201320 77 16126707899223155894

> <PUBCHEM_SHAPE_MULTIPOLES>
755.11
19.3
6.1
2.77
23.93
1.64
-1.18
-27.28
-4.16
0.32
-0.38
-3.36
-1.07
6.12

> <PUBCHEM_SHAPE_SELFOVERLAP>
1565.935

> <PUBCHEM_SHAPE_VOLUME>
426.2

> <PUBCHEM_COORDINATE_TYPE>
2
5
10

$$$$
