75368547
  -OEChem-12032416393D

 36 37  0     1  0  0  0  0  0999 V2000
   -4.1243    1.5862   -0.3215 O   0  0  0  0  0  0  0  0  0  0  0  0
   -2.1479    0.4366    0.2348 N   0  0  0  0  0  0  0  0  0  0  0  0
    0.5778   -0.2538    0.2493 N   0  0  2  0  0  0  0  0  0  0  0  0
   -3.9947   -0.7552   -0.2284 N   0  0  0  0  0  0  0  0  0  0  0  0
   -1.7732   -0.9360    0.5021 C   0  0  2  0  0  0  0  0  0  0  0  0
   -0.4297   -1.2566   -0.1521 C   0  0  0  0  0  0  0  0  0  0  0  0
   -1.1808    1.4917    0.4536 C   0  0  0  0  0  0  0  0  0  0  0  0
    0.1650    1.1030   -0.1638 C   0  0  0  0  0  0  0  0  0  0  0  0
   -2.9559   -1.7408   -0.0304 C   0  0  0  0  0  0  0  0  0  0  0  0
    1.8824   -0.5854   -0.3232 C   0  0  0  0  0  0  0  0  0  0  0  0
   -3.4943    0.5564   -0.1241 C   0  0  0  0  0  0  0  0  0  0  0  0
    2.9996    0.0403    0.5137 C   0  0  0  0  0  0  0  0  0  0  0  0
    4.4101   -0.2695   -0.0227 C   0  0  0  0  0  0  0  0  0  0  0  0
    5.5131    0.3143    0.8615 C   0  0  0  0  0  0  0  0  0  0  0  0
    4.5530    0.2689   -1.4486 C   0  0  0  0  0  0  0  0  0  0  0  0
   -1.7048   -1.0438    1.5926 H   0  0  0  0  0  0  0  0  0  0  0  0
   -0.1196   -2.2590    0.1675 H   0  0  0  0  0  0  0  0  0  0  0  0
   -0.5279   -1.2735   -1.2460 H   0  0  0  0  0  0  0  0  0  0  0  0
   -1.0838    1.6250    1.5372 H   0  0  0  0  0  0  0  0  0  0  0  0
   -1.5575    2.4275    0.0288 H   0  0  0  0  0  0  0  0  0  0  0  0
    0.0834    1.1561   -1.2580 H   0  0  0  0  0  0  0  0  0  0  0  0
    0.8990    1.8544    0.1442 H   0  0  0  0  0  0  0  0  0  0  0  0
   -2.7544   -2.2131   -0.9968 H   0  0  0  0  0  0  0  0  0  0  0  0
   -3.3018   -2.4987    0.6778 H   0  0  0  0  0  0  0  0  0  0  0  0
    2.0395   -1.6720   -0.3030 H   0  0  0  0  0  0  0  0  0  0  0  0
    1.9259   -0.2831   -1.3749 H   0  0  0  0  0  0  0  0  0  0  0  0
    2.9271   -0.3318    1.5444 H   0  0  0  0  0  0  0  0  0  0  0  0
    2.8838    1.1289    0.5702 H   0  0  0  0  0  0  0  0  0  0  0  0
   -4.9493   -0.9753   -0.4944 H   0  0  0  0  0  0  0  0  0  0  0  0
    4.5457   -1.3581   -0.0502 H   0  0  0  0  0  0  0  0  0  0  0  0
    5.4460    1.4065    0.9094 H   0  0  0  0  0  0  0  0  0  0  0  0
    5.4348   -0.0746    1.8821 H   0  0  0  0  0  0  0  0  0  0  0  0
    6.5040    0.0503    0.4774 H   0  0  0  0  0  0  0  0  0  0  0  0
    4.2816    1.3285   -1.5070 H   0  0  0  0  0  0  0  0  0  0  0  0
    5.5878    0.1703   -1.7956 H   0  0  0  0  0  0  0  0  0  0  0  0
    3.9340   -0.2879   -2.1580 H   0  0  0  0  0  0  0  0  0  0  0  0
  1 11  2  0  0  0  0
  2  5  1  0  0  0  0
  2  7  1  0  0  0  0
  2 11  1  0  0  0  0
  3  6  1  0  0  0  0
  3  8  1  0  0  0  0
  3 10  1  0  0  0  0
  4  9  1  0  0  0  0
  4 11  1  0  0  0  0
  4 29  1  0  0  0  0
  5  6  1  0  0  0  0
  5  9  1  0  0  0  0
  5 16  1  0  0  0  0
  6 17  1  0  0  0  0
  6 18  1  0  0  0  0
  7  8  1  0  0  0  0
  7 19  1  0  0  0  0
  7 20  1  0  0  0  0
  8 21  1  0  0  0  0
  8 22  1  0  0  0  0
  9 23  1  0  0  0  0
  9 24  1  0  0  0  0
 10 12  1  0  0  0  0
 10 25  1  0  0  0  0
 10 26  1  0  0  0  0
 12 13  1  0  0  0  0
 12 27  1  0  0  0  0
 12 28  1  0  0  0  0
 13 14  1  0  0  0  0
 13 15  1  0  0  0  0
 13 30  1  0  0  0  0
 14 31  1  0  0  0  0
 14 32  1  0  0  0  0
 14 33  1  0  0  0  0
 15 34  1  0  0  0  0
 15 35  1  0  0  0  0
 15 36  1  0  0  0  0
M  END
> <PUBCHEM_COMPOUND_CID>
75368547

> <PUBCHEM_CONFORMER_RMSD>
0.6

> <PUBCHEM_CONFORMER_DIVERSEORDER>
2
21
15
11
6
18
14
3
4
8
19
12
16
9
13
10
20
1
5
7
17

> <PUBCHEM_MMFF94_PARTIAL_CHARGES>
12
1 -0.57
10 0.27
11 0.69
2 -0.66
29 0.37
3 -0.81
4 -0.73
5 0.3
6 0.27
7 0.3
8 0.27
9 0.3

> <PUBCHEM_EFFECTIVE_ROTOR_COUNT>
4.2

> <PUBCHEM_PHARMACOPHORE_FEATURES>
6
1 1 acceptor
1 3 cation
1 4 donor
3 13 14 15 hydrophobe
5 2 4 5 9 11 rings
6 2 3 5 6 7 8 rings

> <PUBCHEM_HEAVY_ATOM_COUNT>
15

> <PUBCHEM_ATOM_DEF_STEREO_COUNT>
1

> <PUBCHEM_ATOM_UDEF_STEREO_COUNT>
0

> <PUBCHEM_BOND_DEF_STEREO_COUNT>
0

> <PUBCHEM_BOND_UDEF_STEREO_COUNT>
0

> <PUBCHEM_ISOTOPIC_ATOM_COUNT>
0

> <PUBCHEM_COMPONENT_COUNT>
1

> <PUBCHEM_CACTVS_TAUTO_COUNT>
2

> <PUBCHEM_CONFORMER_ID>
047E086300000002

> <PUBCHEM_MMFF94_ENERGY>
25.9637

> <PUBCHEM_FEATURE_SELFOVERLAP>
30.541

> <PUBCHEM_SHAPE_FINGERPRINT>
10014705 185 18334011683574786829
10912923 1 17385443254391305882
11132069 177 18411421696063971404
11401426 45 18410570682337476757
12119455 92 17275099527096874798
12236239 1 17894347779159549946
13214271 11 18272082811973585879
13760787 5 16732702761987735750
14123238 8 12463568487323997016
15375358 24 18272933808414729222
15536298 74 18269555103835748072
200 152 16128654141450500411
20279233 1 17918278649648605670
20645477 56 18410013200521157365
20645477 70 16343431618414526686
21267235 1 18337679701752197051
22485316 2 18412823582106057370
23402539 116 18412255143047158494
23532345 42 18340199791013879008
23557571 272 18200610153800365342
23559900 14 18270966748275307966
293599 30 18267305340195322161
4175511 318 18261107452751044565
5104073 3 18409730703136522392
542803 24 17530969081404423740
573450 72 18187355532906888674

> <PUBCHEM_SHAPE_MULTIPOLES>
287.88
10.34
1.47
0.87
9.22
0.04
-0.14
0.76
-0.43
-1.7
0
0.96
0.05
0.11

> <PUBCHEM_SHAPE_SELFOVERLAP>
576.086

> <PUBCHEM_SHAPE_VOLUME>
171.9

> <PUBCHEM_COORDINATE_TYPE>
2
5
10

$$$$
