56774668
  -OEChem-12032416393D

 57 60  0     1  0  0  0  0  0999 V2000
   -7.4947    0.5105   -0.7660 F   0  0  0  0  0  0  0  0  0  0  0  0
   -2.1421    2.3117    1.4871 O   0  0  0  0  0  0  0  0  0  0  0  0
   -2.1003    0.3575   -2.2402 O   0  0  0  0  0  0  0  0  0  0  0  0
   -5.4574    2.5440    0.0745 O   0  0  0  0  0  0  0  0  0  0  0  0
    4.9704    1.0733   -0.1877 O   0  0  0  0  0  0  0  0  0  0  0  0
   -3.9041    0.8201   -0.1037 N   0  0  0  0  0  0  0  0  0  0  0  0
    3.7516   -0.9265   -0.2543 N   0  0  0  0  0  0  0  0  0  0  0  0
    6.0422   -0.9934    0.0338 N   0  0  0  0  0  0  0  0  0  0  0  0
   -2.5239    0.3792    0.1335 C   0  0  1  0  0  0  0  0  0  0  0  0
   -1.6056    0.8486   -0.9988 C   0  0  1  0  0  0  0  0  0  0  0  0
   -2.0371    0.8929    1.4832 C   0  0  0  0  0  0  0  0  0  0  0  0
   -4.7162    0.0274   -1.0171 C   0  0  0  0  0  0  0  0  0  0  0  0
   -4.3752    2.0394    0.3792 C   0  0  0  0  0  0  0  0  0  0  0  0
   -0.1871    0.3782   -0.8011 C   0  0  0  0  0  0  0  0  0  0  0  0
   -3.4904    2.7188    1.4183 C   0  0  0  0  0  0  0  0  0  0  0  0
   -5.6449   -0.8974   -0.2849 C   0  0  0  0  0  0  0  0  0  0  0  0
    0.0893   -0.9857   -0.7076 C   0  0  0  0  0  0  0  0  0  0  0  0
    0.8494    1.3075   -0.7120 C   0  0  0  0  0  0  0  0  0  0  0  0
    1.4021   -1.4205   -0.5253 C   0  0  0  0  0  0  0  0  0  0  0  0
    2.1621    0.8730   -0.5297 C   0  0  0  0  0  0  0  0  0  0  0  0
   -7.0051   -0.6006   -0.1986 C   0  0  0  0  0  0  0  0  0  0  0  0
   -5.1446   -2.0554    0.3105 C   0  0  0  0  0  0  0  0  0  0  0  0
    2.4384   -0.4911   -0.4365 C   0  0  0  0  0  0  0  0  0  0  0  0
   -7.8649   -1.4618    0.4831 C   0  0  0  0  0  0  0  0  0  0  0  0
   -6.0045   -2.9165    0.9924 C   0  0  0  0  0  0  0  0  0  0  0  0
   -7.3646   -2.6198    1.0787 C   0  0  0  0  0  0  0  0  0  0  0  0
    4.9317   -0.1520   -0.1404 C   0  0  0  0  0  0  0  0  0  0  0  0
    7.3994   -0.6237    0.1871 C   0  0  0  0  0  0  0  0  0  0  0  0
    8.3751   -1.6071    0.3506 C   0  0  0  0  0  0  0  0  0  0  0  0
    7.7619    0.7231    0.1747 C   0  0  0  0  0  0  0  0  0  0  0  0
    9.7133   -1.2436    0.5019 C   0  0  0  0  0  0  0  0  0  0  0  0
    9.1000    1.0867    0.3258 C   0  0  0  0  0  0  0  0  0  0  0  0
   10.0757    0.1033    0.4895 C   0  0  0  0  0  0  0  0  0  0  0  0
   -2.5438   -0.7140    0.1786 H   0  0  0  0  0  0  0  0  0  0  0  0
   -1.6344    1.9418   -1.0783 H   0  0  0  0  0  0  0  0  0  0  0  0
   -2.6421    0.4829    2.3025 H   0  0  0  0  0  0  0  0  0  0  0  0
   -0.9994    0.6214    1.6952 H   0  0  0  0  0  0  0  0  0  0  0  0
   -4.1008   -0.5808   -1.6837 H   0  0  0  0  0  0  0  0  0  0  0  0
   -5.2841    0.7076   -1.6630 H   0  0  0  0  0  0  0  0  0  0  0  0
   -3.9551    2.5677    2.3998 H   0  0  0  0  0  0  0  0  0  0  0  0
   -3.4969    3.7940    1.2111 H   0  0  0  0  0  0  0  0  0  0  0  0
   -1.9354   -0.5985   -2.2952 H   0  0  0  0  0  0  0  0  0  0  0  0
   -0.6993   -1.7295   -0.7786 H   0  0  0  0  0  0  0  0  0  0  0  0
    0.6478    2.3732   -0.7821 H   0  0  0  0  0  0  0  0  0  0  0  0
    1.6033   -2.4865   -0.4552 H   0  0  0  0  0  0  0  0  0  0  0  0
    2.9069    1.6536   -0.4704 H   0  0  0  0  0  0  0  0  0  0  0  0
   -4.0925   -2.3137    0.2425 H   0  0  0  0  0  0  0  0  0  0  0  0
   -8.9238   -1.2304    0.5503 H   0  0  0  0  0  0  0  0  0  0  0  0
   -5.6156   -3.8199    1.4530 H   0  0  0  0  0  0  0  0  0  0  0  0
   -8.0342   -3.2906    1.6089 H   0  0  0  0  0  0  0  0  0  0  0  0
    3.8735   -1.9345   -0.1959 H   0  0  0  0  0  0  0  0  0  0  0  0
    5.8587   -1.9933    0.0535 H   0  0  0  0  0  0  0  0  0  0  0  0
    8.1062   -2.6602    0.3620 H   0  0  0  0  0  0  0  0  0  0  0  0
    7.0676    1.5421    0.0532 H   0  0  0  0  0  0  0  0  0  0  0  0
   10.4731   -2.0092    0.6292 H   0  0  0  0  0  0  0  0  0  0  0  0
    9.3838    2.1351    0.3163 H   0  0  0  0  0  0  0  0  0  0  0  0
   11.1176    0.3864    0.6073 H   0  0  0  0  0  0  0  0  0  0  0  0
  1 21  1  0  0  0  0
  2 11  1  0  0  0  0
  2 15  1  0  0  0  0
  3 10  1  0  0  0  0
  3 42  1  0  0  0  0
  4 13  2  0  0  0  0
  5 27  2  0  0  0  0
  6  9  1  0  0  0  0
  6 12  1  0  0  0  0
  6 13  1  0  0  0  0
  7 23  1  0  0  0  0
  7 27  1  0  0  0  0
  7 51  1  0  0  0  0
  8 27  1  0  0  0  0
  8 28  1  0  0  0  0
  8 52  1  0  0  0  0
  9 10  1  0  0  0  0
  9 11  1  0  0  0  0
  9 34  1  0  0  0  0
 10 14  1  0  0  0  0
 10 35  1  0  0  0  0
 11 36  1  0  0  0  0
 11 37  1  0  0  0  0
 12 16  1  0  0  0  0
 12 38  1  0  0  0  0
 12 39  1  0  0  0  0
 13 15  1  0  0  0  0
 14 17  2  0  0  0  0
 14 18  1  0  0  0  0
 15 40  1  0  0  0  0
 15 41  1  0  0  0  0
 16 21  1  0  0  0  0
 16 22  2  0  0  0  0
 17 19  1  0  0  0  0
 17 43  1  0  0  0  0
 18 20  2  0  0  0  0
 18 44  1  0  0  0  0
 19 23  2  0  0  0  0
 19 45  1  0  0  0  0
 20 23  1  0  0  0  0
 20 46  1  0  0  0  0
 21 24  2  0  0  0  0
 22 25  1  0  0  0  0
 22 47  1  0  0  0  0
 24 26  1  0  0  0  0
 24 48  1  0  0  0  0
 25 26  2  0  0  0  0
 25 49  1  0  0  0  0
 26 50  1  0  0  0  0
 28 29  2  0  0  0  0
 28 30  1  0  0  0  0
 29 31  1  0  0  0  0
 29 53  1  0  0  0  0
 30 32  2  0  0  0  0
 30 54  1  0  0  0  0
 31 33  2  0  0  0  0
 31 55  1  0  0  0  0
 32 33  1  0  0  0  0
 32 56  1  0  0  0  0
 33 57  1  0  0  0  0
M  END
> <PUBCHEM_COMPOUND_CID>
56774668

> <PUBCHEM_CONFORMER_RMSD>
1

> <PUBCHEM_CONFORMER_DIVERSEORDER>
1
82
76
26
91
83
101
127
30
131
110
59
95
65
40
106
92
38
98
37
15
113
117
125
80
104
43
105
93
63
79
50
75
73
108
118
119
126
123
107
121
114
36
21
115
100
90
128
61
74
34
52
116
68
46
112
94
47
69
31
99
85
62
111
97
25
66
70
29
54
124
57
84
81
20
103
51
24
58
89
33
32
130
27
56
71
87
88
96
72
35
12
16
122
78
86
49
6
23
133
45
53
14
19
48
132
44
64
109
102
67
11
22
60
129
41
17
120
42
8
39
13
18
9
77
28
10
5
7
4
3
55
2

> <PUBCHEM_MMFF94_PARTIAL_CHARGES>
49
1 -0.19
10 0.42
11 0.28
12 0.44
13 0.57
14 -0.14
15 0.34
16 -0.14
17 -0.15
18 -0.15
19 -0.15
2 -0.56
20 -0.15
21 0.19
22 -0.15
23 0.12
24 -0.15
25 -0.15
26 -0.15
27 0.69
28 0.12
29 -0.15
3 -0.68
30 -0.15
31 -0.15
32 -0.15
33 -0.15
4 -0.57
42 0.4
43 0.15
44 0.15
45 0.15
46 0.15
47 0.15
48 0.15
49 0.15
5 -0.57
50 0.15
51 0.37
52 0.37
53 0.15
54 0.15
55 0.15
56 0.15
57 0.15
6 -0.66
7 -0.55
8 -0.55
9 0.3

> <PUBCHEM_EFFECTIVE_ROTOR_COUNT>
9

> <PUBCHEM_PHARMACOPHORE_FEATURES>
11
1 2 acceptor
1 3 acceptor
1 3 donor
1 4 acceptor
1 5 acceptor
1 7 donor
1 8 donor
6 14 17 18 19 20 23 rings
6 16 21 22 24 25 26 rings
6 2 6 9 11 13 15 rings
6 28 29 30 31 32 33 rings

> <PUBCHEM_HEAVY_ATOM_COUNT>
33

> <PUBCHEM_ATOM_DEF_STEREO_COUNT>
2

> <PUBCHEM_ATOM_UDEF_STEREO_COUNT>
0

> <PUBCHEM_BOND_DEF_STEREO_COUNT>
0

> <PUBCHEM_BOND_UDEF_STEREO_COUNT>
0

> <PUBCHEM_ISOTOPIC_ATOM_COUNT>
0

> <PUBCHEM_COMPONENT_COUNT>
1

> <PUBCHEM_CACTVS_TAUTO_COUNT>
6

> <PUBCHEM_CONFORMER_ID>
0362500C00000001

> <PUBCHEM_MMFF94_ENERGY>
103.4881

> <PUBCHEM_FEATURE_SELFOVERLAP>
55.872

> <PUBCHEM_SHAPE_FINGERPRINT>
10 15 17918273151874150198
10100884 174 18264206001189610059
10165383 225 14477244860284710063
10190206 1 11747202564141353063
106641 1 18411981382164046630
10674148 151 17603585236777986153
11135609 99 18261959664341456583
11315181 36 18335139791358453205
12013929 94 18335424608162994986
12082328 90 18341330007410177396
12104220 1 18409165498483486517
13383668 251 18041551564107490212
13383668 90 16081361986942930899
13740195 50 18343297094337741730
13811026 1 18410012122078099990
14118638 360 16988567849598128670
14251764 18 18413668011879653092
14428016 248 13830129525446347682
15183329 4 11818987500379434167
15461852 350 17458063763907035006
15728490 51 18408885152714331642
17686467 74 18411414029769550520
18335252 98 17988928860244915222
18608769 82 18273213123017900854
19611394 137 18270684280454192563
20721686 146 11167404768821112419
21130935 74 18337673006473468530
23559900 14 18337387262388793297
23569917 315 18334584542477553538
23576562 1 9006757771032670947
249057 3 12757154588883465622
3092352 35 13973964311965355844
3178227 256 17917713526536756046
335507 130 17917991685983084204
3418910 222 18202294614737738312
395649 100 18408040711168215883
4017518 198 14923945648161180112
4073 2 18270968929506907399
4625314 4 18113335340440826844
57527295 17 15864333737379237477
59682541 35 18342734135783732154
5969126 39 16443058392028170879
6691757 9 16415471666714576205
67123 10 18334012805378642774
70634741 139 18408322168796349763
9663363 56 17989204855370487015
9953998 17 18413393116523840593

> <PUBCHEM_SHAPE_MULTIPOLES>
633.43
31.76
2.53
1.17
60.96
0.03
-0.04
-12.81
7.33
-5.05
1.06
-1.29
0.29
0.4

> <PUBCHEM_SHAPE_SELFOVERLAP>
1371.266

> <PUBCHEM_SHAPE_VOLUME>
344.2

> <PUBCHEM_COORDINATE_TYPE>
2
5
10

$$$$
