11867500
  -OEChem-12032416283D

 62 66  0     1  0  0  0  0  0999 V2000
   -1.3900    0.4864    0.8237 O   0  0  0  0  0  0  0  0  0  0  0  0
    0.5600   -1.8058    0.1168 O   0  0  0  0  0  0  0  0  0  0  0  0
   -3.0028   -1.5453   -0.1464 O   0  0  0  0  0  0  0  0  0  0  0  0
   -3.5771   -0.0358   -1.7795 O   0  0  0  0  0  0  0  0  0  0  0  0
    1.5749    1.7138    0.0957 N   0  0  0  0  0  0  0  0  0  0  0  0
   -5.1491   -0.9094   -0.3139 N   0  0  0  0  0  0  0  0  0  0  0  0
    0.8095    2.7814   -0.1536 N   0  0  0  0  0  0  0  0  0  0  0  0
    2.9187    3.1777   -0.7574 N   0  0  0  0  0  0  0  0  0  0  0  0
    1.6383    3.6768   -0.6765 N   0  0  0  0  0  0  0  0  0  0  0  0
    7.1053   -1.7170    0.2390 N   0  0  0  0  0  0  0  0  0  0  0  0
    0.4473   -0.4465   -0.3596 C   0  0  1  0  0  0  0  0  0  0  0  0
   -1.0331   -0.1269   -0.4249 C   0  0  1  0  0  0  0  0  0  0  0  0
    0.9960    0.5047    0.6860 C   0  0  2  0  0  0  0  0  0  0  0  0
   -1.6616   -1.4916   -0.5766 C   0  0  1  0  0  0  0  0  0  0  0  0
   -0.2063    0.7332    1.5964 C   0  0  0  0  0  0  0  0  0  0  0  0
   -0.7564   -2.3538    0.2721 C   0  0  0  0  0  0  0  0  0  0  0  0
   -6.3132   -0.2157   -0.8185 C   0  0  0  0  0  0  0  0  0  0  0  0
   -6.4779    1.1490   -0.1413 C   0  0  0  0  0  0  0  0  0  0  0  0
   -7.5753   -1.0703   -0.6601 C   0  0  0  0  0  0  0  0  0  0  0  0
    2.8551    1.9590   -0.2724 C   0  0  0  0  0  0  0  0  0  0  0  0
   -6.9281    1.0290    1.3147 C   0  0  0  0  0  0  0  0  0  0  0  0
   -8.0238   -1.1867    0.7967 C   0  0  0  0  0  0  0  0  0  0  0  0
   -8.1916    0.1839    1.4454 C   0  0  0  0  0  0  0  0  0  0  0  0
   -3.8821   -0.7600   -0.8375 C   0  0  0  0  0  0  0  0  0  0  0  0
    3.9403    1.0208   -0.1415 C   0  0  0  0  0  0  0  0  0  0  0  0
    4.7037    0.9925    1.0267 C   0  0  0  0  0  0  0  0  0  0  0  0
    4.2305    0.1379   -1.1831 C   0  0  0  0  0  0  0  0  0  0  0  0
    5.7544    0.0837    1.1530 C   0  0  0  0  0  0  0  0  0  0  0  0
    5.2812   -0.7709   -1.0566 C   0  0  0  0  0  0  0  0  0  0  0  0
    6.0431   -0.7980    0.1114 C   0  0  0  0  0  0  0  0  0  0  0  0
    7.0472   -3.0030   -0.4271 C   0  0  0  0  0  0  0  0  0  0  0  0
    8.2627   -1.3931    1.0491 C   0  0  0  0  0  0  0  0  0  0  0  0
    0.9426   -0.3985   -1.3344 H   0  0  0  0  0  0  0  0  0  0  0  0
   -1.2717    0.5815   -1.2226 H   0  0  0  0  0  0  0  0  0  0  0  0
    1.7974    0.0508    1.2804 H   0  0  0  0  0  0  0  0  0  0  0  0
   -1.5851   -1.8280   -1.6197 H   0  0  0  0  0  0  0  0  0  0  0  0
   -0.2586    1.7324    2.0388 H   0  0  0  0  0  0  0  0  0  0  0  0
   -0.2072    0.0054    2.4158 H   0  0  0  0  0  0  0  0  0  0  0  0
   -1.0298   -2.3275    1.3329 H   0  0  0  0  0  0  0  0  0  0  0  0
   -0.7591   -3.4005   -0.0466 H   0  0  0  0  0  0  0  0  0  0  0  0
   -6.1473   -0.0454   -1.8896 H   0  0  0  0  0  0  0  0  0  0  0  0
   -7.2263    1.7318   -0.6934 H   0  0  0  0  0  0  0  0  0  0  0  0
   -5.5404    1.7163   -0.1851 H   0  0  0  0  0  0  0  0  0  0  0  0
   -7.4097   -2.0737   -1.0704 H   0  0  0  0  0  0  0  0  0  0  0  0
   -8.3875   -0.6181   -1.2436 H   0  0  0  0  0  0  0  0  0  0  0  0
   -6.1255    0.5829    1.9145 H   0  0  0  0  0  0  0  0  0  0  0  0
   -7.1113    2.0285    1.7249 H   0  0  0  0  0  0  0  0  0  0  0  0
   -8.9744   -1.7305    0.8424 H   0  0  0  0  0  0  0  0  0  0  0  0
   -7.2981   -1.7770    1.3683 H   0  0  0  0  0  0  0  0  0  0  0  0
   -8.4463    0.0622    2.5042 H   0  0  0  0  0  0  0  0  0  0  0  0
   -9.0311    0.7094    0.9738 H   0  0  0  0  0  0  0  0  0  0  0  0
   -5.2508   -1.5095    0.4988 H   0  0  0  0  0  0  0  0  0  0  0  0
    4.4891    1.6713    1.8488 H   0  0  0  0  0  0  0  0  0  0  0  0
    3.6472    0.1481   -2.1008 H   0  0  0  0  0  0  0  0  0  0  0  0
    6.3203    0.0804    2.0802 H   0  0  0  0  0  0  0  0  0  0  0  0
    5.4871   -1.4358   -1.8906 H   0  0  0  0  0  0  0  0  0  0  0  0
    6.0508   -3.4522   -0.3457 H   0  0  0  0  0  0  0  0  0  0  0  0
    7.3107   -2.9040   -1.4854 H   0  0  0  0  0  0  0  0  0  0  0  0
    7.7505   -3.7132    0.0222 H   0  0  0  0  0  0  0  0  0  0  0  0
    8.0500   -1.5530    2.1112 H   0  0  0  0  0  0  0  0  0  0  0  0
    9.1184   -2.0251    0.7855 H   0  0  0  0  0  0  0  0  0  0  0  0
    8.5805   -0.3552    0.8985 H   0  0  0  0  0  0  0  0  0  0  0  0
  1 12  1  0  0  0  0
  1 15  1  0  0  0  0
  2 11  1  0  0  0  0
  2 16  1  0  0  0  0
  3 14  1  0  0  0  0
  3 24  1  0  0  0  0
  4 24  2  0  0  0  0
  5  7  1  0  0  0  0
  5 13  1  0  0  0  0
  5 20  1  0  0  0  0
  6 17  1  0  0  0  0
  6 24  1  0  0  0  0
  6 52  1  0  0  0  0
  7  9  2  0  0  0  0
  8  9  1  0  0  0  0
  8 20  2  0  0  0  0
 10 30  1  0  0  0  0
 10 31  1  0  0  0  0
 10 32  1  0  0  0  0
 11 12  1  0  0  0  0
 11 13  1  0  0  0  0
 11 33  1  0  0  0  0
 12 14  1  0  0  0  0
 12 34  1  0  0  0  0
 13 15  1  0  0  0  0
 13 35  1  0  0  0  0
 14 16  1  0  0  0  0
 14 36  1  0  0  0  0
 15 37  1  0  0  0  0
 15 38  1  0  0  0  0
 16 39  1  0  0  0  0
 16 40  1  0  0  0  0
 17 18  1  0  0  0  0
 17 19  1  0  0  0  0
 17 41  1  0  0  0  0
 18 21  1  0  0  0  0
 18 42  1  0  0  0  0
 18 43  1  0  0  0  0
 19 22  1  0  0  0  0
 19 44  1  0  0  0  0
 19 45  1  0  0  0  0
 20 25  1  0  0  0  0
 21 23  1  0  0  0  0
 21 46  1  0  0  0  0
 21 47  1  0  0  0  0
 22 23  1  0  0  0  0
 22 48  1  0  0  0  0
 22 49  1  0  0  0  0
 23 50  1  0  0  0  0
 23 51  1  0  0  0  0
 25 26  2  0  0  0  0
 25 27  1  0  0  0  0
 26 28  1  0  0  0  0
 26 53  1  0  0  0  0
 27 29  2  0  0  0  0
 27 54  1  0  0  0  0
 28 30  2  0  0  0  0
 28 55  1  0  0  0  0
 29 30  1  0  0  0  0
 29 56  1  0  0  0  0
 31 57  1  0  0  0  0
 31 58  1  0  0  0  0
 31 59  1  0  0  0  0
 32 60  1  0  0  0  0
 32 61  1  0  0  0  0
 32 62  1  0  0  0  0
M  END
> <PUBCHEM_COMPOUND_CID>
11867500

> <PUBCHEM_CONFORMER_RMSD>
1

> <PUBCHEM_CONFORMER_DIVERSEORDER>
1
59
131
31
108
138
84
6
57
52
73
20
26
12
123
81
33
80
93
130
85
125
34
58
48
122
4
29
67
28
117
53
66
39
76
72
14
19
44
112
121
135
75
100
63
79
134
45
119
114
25
11
103
83
65
40
8
86
105
82
113
37
136
35
23
38
27
7
51
120
3
99
116
2
118
115
140
69
49
21
142
46
141
132
88
143
24
9
22
61
96
89
71
64
109
87
137
10
128
68
104
50
78
98
43
129
133
107
15
5
36
124
41
70
111
126
54
17
55
94
101
42
90
13
91
97
62
110
30
106
95
56
32
102
16
47
139
127
77
18
74
60
92

> <PUBCHEM_MMFF94_PARTIAL_CHARGES>
31
1 -0.56
10 -0.84
11 0.28
12 0.28
13 0.26
14 0.28
15 0.28
16 0.28
17 0.3
2 -0.56
20 0.13
24 0.78
25 0.05
26 -0.15
27 -0.15
28 -0.15
29 -0.15
3 -0.43
30 0.1
31 0.37
32 0.37
4 -0.57
5 0.31
52 0.37
53 0.15
54 0.15
55 0.15
56 0.15
6 -0.73
7 -0.42
8 -0.34

> <PUBCHEM_EFFECTIVE_ROTOR_COUNT>
9.4

> <PUBCHEM_PHARMACOPHORE_FEATURES>
11
1 1 acceptor
1 10 cation
1 2 acceptor
1 4 acceptor
1 6 donor
3 5 8 20 cation
5 1 11 12 13 15 rings
5 2 11 12 14 16 rings
5 5 7 8 9 20 rings
6 17 18 19 21 22 23 rings
6 25 26 27 28 29 30 rings

> <PUBCHEM_HEAVY_ATOM_COUNT>
32

> <PUBCHEM_ATOM_DEF_STEREO_COUNT>
4

> <PUBCHEM_ATOM_UDEF_STEREO_COUNT>
0

> <PUBCHEM_BOND_DEF_STEREO_COUNT>
0

> <PUBCHEM_BOND_UDEF_STEREO_COUNT>
0

> <PUBCHEM_ISOTOPIC_ATOM_COUNT>
0

> <PUBCHEM_COMPONENT_COUNT>
1

> <PUBCHEM_CACTVS_TAUTO_COUNT>
2

> <PUBCHEM_CONFORMER_ID>
00B5156C00000001

> <PUBCHEM_MMFF94_ENERGY>
85.3678

> <PUBCHEM_FEATURE_SELFOVERLAP>
56.523

> <PUBCHEM_SHAPE_FINGERPRINT>
10076449 9 17967534558532957492
10985338 15 14201964622274592724
11315181 36 11746935383543231503
11374522 72 14260768660106678482
11456790 92 18410294700634494336
11475781 23 14548476695436698425
12107183 9 18413107285764606391
12144603 126 18272653485206724156
12592606 108 18410572907157449079
13782708 43 18118408569128956035
13914758 101 17846782888324086571
14117953 113 18272092682637082046
14347424 109 18201434809666252096
14675020 138 15985391088034837390
14856354 85 16370728149857393267
14955137 171 17750239256899760013
15183329 4 18341617044480657181
15328829 1 17775010051040117155
15419008 145 18339361864591390409
15420108 30 17695076504509026336
15475509 8 18410012117856829672
15728490 51 10665236951394837265
1577012 14 18200599219557778861
16664035 1 18343301453798203320
19315958 150 18059285561624035760
20465049 17 17967527986884789538
20511986 3 12031791353460438317
21130935 74 18200589318962004467
21150785 3 12251904788978272138
21360443 126 10015572913821318140
21703447 108 11958638623981274452
21774942 28 16056330440340726129
21781051 124 17676780836991268611
22224240 67 10231751193519367732
23559900 14 18267295607772523112
23569917 315 18340207488065817767
24893992 56 18408041832423978275
249057 3 18335700563394547686
2838139 119 17847058913826087953
3009799 131 13398636056696608563
3178227 256 18334018298029995267
335352 9 18410011061279323774
437795 51 17313384495964165091
4625314 4 18261671602119056311
57527295 17 17556292100817509205
6299153 45 18273220764022826497
8988823 20 16702300200338584472

> <PUBCHEM_SHAPE_MULTIPOLES>
605.18
24.56
2.81
1.27
18.22
1.4
-0.14
-10.91
-5.23
-3.75
0.52
0.52
0.13
-0.86

> <PUBCHEM_SHAPE_SELFOVERLAP>
1298.22

> <PUBCHEM_SHAPE_VOLUME>
336

> <PUBCHEM_COORDINATE_TYPE>
2
5
10

$$$$
