56775585
  -OEChem-12032416403D

 43 46  0     0  0  0  0  0  0999 V2000
   -1.3760    3.6328    1.0165 O   0  0  0  0  0  0  0  0  0  0  0  0
   -5.2086   -0.5436    0.2283 O   0  0  0  0  0  0  0  0  0  0  0  0
   -4.7726   -3.1720    1.6230 O   0  0  0  0  0  0  0  0  0  0  0  0
   -0.5612    0.8144    0.2535 N   0  0  0  0  0  0  0  0  0  0  0  0
   -4.6049    0.6545   -0.1334 N   0  0  0  0  0  0  0  0  0  0  0  0
    2.9744   -2.0431   -0.4210 N   0  0  0  0  0  0  0  0  0  0  0  0
   -1.5575    1.8257   -0.1048 C   0  0  0  0  0  0  0  0  0  0  0  0
   -2.1404    2.4158    1.1742 C   0  0  0  0  0  0  0  0  0  0  0  0
   -0.8586    3.1725   -0.2527 C   0  0  0  0  0  0  0  0  0  0  0  0
   -2.4893    1.3696   -1.1855 C   0  0  0  0  0  0  0  0  0  0  0  0
    0.1728    0.4170   -0.9513 C   0  0  0  0  0  0  0  0  0  0  0  0
   -3.4323    0.3031   -0.6685 C   0  0  0  0  0  0  0  0  0  0  0  0
    1.5211   -0.1285   -0.6436 C   0  0  0  0  0  0  0  0  0  0  0  0
   -3.2430   -1.0897   -0.6714 C   0  0  0  0  0  0  0  0  0  0  0  0
   -4.3879   -1.5751   -0.0970 C   0  0  0  0  0  0  0  0  0  0  0  0
    2.5735    0.7073   -0.2989 C   0  0  0  0  0  0  0  0  0  0  0  0
    1.7721   -1.4846   -0.6901 C   0  0  0  0  0  0  0  0  0  0  0  0
    3.8358    0.1701   -0.0127 C   0  0  0  0  0  0  0  0  0  0  0  0
    3.9939   -1.2297   -0.0867 C   0  0  0  0  0  0  0  0  0  0  0  0
   -4.8740   -2.9237    0.2180 C   0  0  0  0  0  0  0  0  0  0  0  0
    4.9218    0.9894    0.3394 C   0  0  0  0  0  0  0  0  0  0  0  0
    5.2480   -1.7629    0.1979 C   0  0  0  0  0  0  0  0  0  0  0  0
    6.1650    0.4293    0.6187 C   0  0  0  0  0  0  0  0  0  0  0  0
    6.3278   -0.9487    0.5481 C   0  0  0  0  0  0  0  0  0  0  0  0
   -1.9024    1.9125    2.1174 H   0  0  0  0  0  0  0  0  0  0  0  0
   -3.2101    2.6473    1.1624 H   0  0  0  0  0  0  0  0  0  0  0  0
   -1.2230    3.8060   -1.0687 H   0  0  0  0  0  0  0  0  0  0  0  0
    0.2358    3.1949   -0.2586 H   0  0  0  0  0  0  0  0  0  0  0  0
   -1.9943    1.0238   -2.0989 H   0  0  0  0  0  0  0  0  0  0  0  0
   -3.1071    2.2164   -1.5184 H   0  0  0  0  0  0  0  0  0  0  0  0
   -0.9319   -0.0133    0.7185 H   0  0  0  0  0  0  0  0  0  0  0  0
    0.3216    1.2523   -1.6493 H   0  0  0  0  0  0  0  0  0  0  0  0
   -0.3938   -0.3388   -1.5081 H   0  0  0  0  0  0  0  0  0  0  0  0
   -2.4037   -1.6620   -1.0372 H   0  0  0  0  0  0  0  0  0  0  0  0
    2.4165    1.7831   -0.2520 H   0  0  0  0  0  0  0  0  0  0  0  0
    0.9952   -2.1971   -0.9501 H   0  0  0  0  0  0  0  0  0  0  0  0
   -5.9224   -3.0361   -0.0762 H   0  0  0  0  0  0  0  0  0  0  0  0
   -4.2847   -3.6833   -0.3055 H   0  0  0  0  0  0  0  0  0  0  0  0
    4.8050    2.0693    0.3980 H   0  0  0  0  0  0  0  0  0  0  0  0
    5.4017   -2.8394    0.1494 H   0  0  0  0  0  0  0  0  0  0  0  0
    7.0018    1.0655    0.8904 H   0  0  0  0  0  0  0  0  0  0  0  0
    7.2944   -1.3942    0.7647 H   0  0  0  0  0  0  0  0  0  0  0  0
   -5.1062   -4.0726    1.7757 H   0  0  0  0  0  0  0  0  0  0  0  0
  1  8  1  0  0  0  0
  1  9  1  0  0  0  0
  2  5  1  0  0  0  0
  2 15  1  0  0  0  0
  3 20  1  0  0  0  0
  3 43  1  0  0  0  0
  4  7  1  0  0  0  0
  4 11  1  0  0  0  0
  4 31  1  0  0  0  0
  5 12  2  0  0  0  0
  6 17  2  0  0  0  0
  6 19  1  0  0  0  0
  7  8  1  0  0  0  0
  7  9  1  0  0  0  0
  7 10  1  0  0  0  0
  8 25  1  0  0  0  0
  8 26  1  0  0  0  0
  9 27  1  0  0  0  0
  9 28  1  0  0  0  0
 10 12  1  0  0  0  0
 10 29  1  0  0  0  0
 10 30  1  0  0  0  0
 11 13  1  0  0  0  0
 11 32  1  0  0  0  0
 11 33  1  0  0  0  0
 12 14  1  0  0  0  0
 13 16  2  0  0  0  0
 13 17  1  0  0  0  0
 14 15  2  0  0  0  0
 14 34  1  0  0  0  0
 15 20  1  0  0  0  0
 16 18  1  0  0  0  0
 16 35  1  0  0  0  0
 17 36  1  0  0  0  0
 18 19  1  0  0  0  0
 18 21  2  0  0  0  0
 19 22  2  0  0  0  0
 20 37  1  0  0  0  0
 20 38  1  0  0  0  0
 21 23  1  0  0  0  0
 21 39  1  0  0  0  0
 22 24  1  0  0  0  0
 22 40  1  0  0  0  0
 23 24  2  0  0  0  0
 23 41  1  0  0  0  0
 24 42  1  0  0  0  0
M  END
> <PUBCHEM_COMPOUND_CID>
56775585

> <PUBCHEM_CONFORMER_RMSD>
0.8

> <PUBCHEM_CONFORMER_DIVERSEORDER>
1
63
120
135
195
91
13
175
136
192
156
55
161
157
111
130
69
177
131
90
31
193
66
178
123
20
171
140
106
189
141
163
119
153
167
198
134
207
77
220
158
11
121
204
233
48
216
203
230
210
143
151
74
168
234
127
40
138
144
197
114
176
19
236
219
105
32
164
159
235
142
82
70
150
81
95
146
170
9
200
224
38
166
174
185
67
72
205
147
186
231
116
92
93
115
229
208
133
99
26
78
218
182
202
45
122
61
173
108
190
215
39
110
179
14
46
196
124
191
165
209
49
221
75
85
184
232
35
152
160
213
132
83
148
181
44
118
172
76
64
101
125
117
194
128
79
22
97
68
222
104
149
112
217
155
137
183
206
27
57
214
36
223
109
25
53
113
199
107
180
29
211
162
65
73
96
188
94
228
139
226
10
100
16
51
225
33
43
60
30
154
84
47
103
12
56
169
28
59
8
21
89
187
71
24
42
237
80
15
50
212
34
98
145
58
37
102
52
126
5
41
62
7
201
227
129
18
86
23
87
4
6
88
17
54
2
3

> <PUBCHEM_MMFF94_PARTIAL_CHARGES>
32
1 -0.52
10 0.18
11 0.41
12 0.11
13 -0.14
14 -0.15
15 -0.04
16 -0.15
17 0.16
19 0.31
2 -0.02
20 0.46
21 -0.15
22 -0.15
23 -0.15
24 -0.15
3 -0.68
31 0.36
34 0.15
35 0.15
36 0.15
39 0.15
4 -0.84
40 0.15
41 0.15
42 0.15
43 0.4
5 -0.41
6 -0.62
7 0.21
8 0.26
9 0.26

> <PUBCHEM_EFFECTIVE_ROTOR_COUNT>
6.8

> <PUBCHEM_PHARMACOPHORE_FEATURES>
11
1 1 acceptor
1 3 acceptor
1 3 donor
1 4 cation
1 4 donor
1 5 acceptor
1 6 acceptor
4 1 7 8 9 rings
5 2 5 12 14 15 rings
6 18 19 21 22 23 24 rings
6 6 13 16 17 18 19 rings

> <PUBCHEM_HEAVY_ATOM_COUNT>
24

> <PUBCHEM_ATOM_DEF_STEREO_COUNT>
0

> <PUBCHEM_ATOM_UDEF_STEREO_COUNT>
0

> <PUBCHEM_BOND_DEF_STEREO_COUNT>
0

> <PUBCHEM_BOND_UDEF_STEREO_COUNT>
0

> <PUBCHEM_ISOTOPIC_ATOM_COUNT>
0

> <PUBCHEM_COMPONENT_COUNT>
1

> <PUBCHEM_CACTVS_TAUTO_COUNT>
1

> <PUBCHEM_CONFORMER_ID>
036253A100000001

> <PUBCHEM_MMFF94_ENERGY>
58.5086

> <PUBCHEM_FEATURE_SELFOVERLAP>
55.854

> <PUBCHEM_SHAPE_FINGERPRINT>
10 15 18341598357747579784
11045515 52 18113334198032949453
12107183 9 17404018124789909706
121448 382 17894632513399286161
12166972 35 17894632569730214052
12596602 18 18113890564338633904
12633257 1 16271923856708593685
13544653 18 18410294752648809749
13631057 29 18408318895409005202
13911882 115 18130794434371367134
14341114 176 18412825751106577692
14347329 18 9511192819335426495
14565420 104 16693319093106003201
14844126 61 18413106165474708251
15099037 51 7925915893587522644
15183329 4 8502378845125022870
15338160 23 17274831203321120457
15352361 1 18409730694578242015
15927050 60 17334776869436117156
16110190 28 18343025531760798399
17349148 13 17748832895221883982
17492 89 18269273470045649822
1768 85 17416385775177012000
17844677 252 18058452011329550750
18608769 82 18270956960292467754
18927931 339 18201999910807075069
19377110 9 18411150129724914992
20567600 70 18262799704289035027
20775438 99 12544676342206780651
21267235 1 18343022156417377934
21796203 349 17978822277889728979
23402539 116 18408035208513256548
23559900 14 18410281510779930321
26918003 58 18409725145306247093
329604 57 18336267941464071214
350125 39 18343579655835923140
392239 28 18412830204539290339
4015057 19 14779558910503591164
4073 2 18337955584971482794
4214541 1 18269270162957449692
5104073 3 18128808648041958506
6431902 208 18336542810955849055
7495541 125 17988916799892079392
9709674 26 18056481642867982142

> <PUBCHEM_SHAPE_MULTIPOLES>
461.36
14.48
3.44
1.01
9.41
0.78
0.12
-9.1
3.23
-4.49
1.12
-0.65
0.02
0.85

> <PUBCHEM_SHAPE_SELFOVERLAP>
1007.397

> <PUBCHEM_SHAPE_VOLUME>
252.1

> <PUBCHEM_COORDINATE_TYPE>
2
5
10

$$$$
