25338976
  -OEChem-12032416193D

 57 60  0     1  0  0  0  0  0999 V2000
    1.2948   -0.3258    1.9027 S   0  0  0  0  0  0  0  0  0  0  0  0
    4.4646    4.1828   -1.3394 F   0  0  0  0  0  0  0  0  0  0  0  0
    5.4222    2.9569    0.1799 F   0  0  0  0  0  0  0  0  0  0  0  0
    4.7845    2.0607   -1.6894 F   0  0  0  0  0  0  0  0  0  0  0  0
    2.4368   -0.5942    2.7495 O   0  0  0  0  0  0  0  0  0  0  0  0
   -0.0455   -0.2885    2.4469 O   0  0  0  0  0  0  0  0  0  0  0  0
    3.3351   -2.7816   -0.6256 O   0  0  0  0  0  0  0  0  0  0  0  0
    1.7600   -4.4514   -0.8857 O   0  0  0  0  0  0  0  0  0  0  0  0
   -5.9636    2.8462    0.5258 O   0  0  0  0  0  0  0  0  0  0  0  0
    1.3232   -1.4035    0.5672 N   0  0  1  0  0  0  0  0  0  0  0  0
   -2.0847   -2.0108   -0.8661 N   0  0  0  0  0  0  0  0  0  0  0  0
   -2.0819   -3.8047    0.4659 N   0  0  0  0  0  0  0  0  0  0  0  0
    1.5692   -2.8548    0.9039 C   0  0  1  0  0  0  0  0  0  0  0  0
    0.2866   -1.1466   -0.5055 C   0  0  0  0  0  0  0  0  0  0  0  0
    0.2864   -3.5917    1.3389 C   0  0  0  0  0  0  0  0  0  0  0  0
   -0.8491   -2.0635   -0.2945 C   0  0  0  0  0  0  0  0  0  0  0  0
   -0.8704   -3.1735    0.5142 C   0  0  0  0  0  0  0  0  0  0  0  0
    2.2061   -3.4736   -0.3008 C   0  0  0  0  0  0  0  0  0  0  0  0
   -2.5698   -1.0334   -1.8099 C   0  0  0  0  0  0  0  0  0  0  0  0
   -2.7915   -3.0804   -0.3764 C   0  0  0  0  0  0  0  0  0  0  0  0
    1.5862    1.2033    1.0703 C   0  0  0  0  0  0  0  0  0  0  0  0
   -3.4748    0.0006   -1.1876 C   0  0  0  0  0  0  0  0  0  0  0  0
    2.8385    1.4685    0.5163 C   0  0  0  0  0  0  0  0  0  0  0  0
    0.5636    2.1463    0.9666 C   0  0  0  0  0  0  0  0  0  0  0  0
    3.0683    2.6769   -0.1414 C   0  0  0  0  0  0  0  0  0  0  0  0
   -4.8029   -0.3159   -0.9012 C   0  0  0  0  0  0  0  0  0  0  0  0
   -2.9832    1.2735   -0.8982 C   0  0  0  0  0  0  0  0  0  0  0  0
    0.7935    3.3548    0.3090 C   0  0  0  0  0  0  0  0  0  0  0  0
    2.0458    3.6201   -0.2450 C   0  0  0  0  0  0  0  0  0  0  0  0
    4.0479   -3.2689   -1.7669 C   0  0  0  0  0  0  0  0  0  0  0  0
    4.4069    2.9610   -0.7340 C   0  0  0  0  0  0  0  0  0  0  0  0
   -5.6393    0.6404   -0.3258 C   0  0  0  0  0  0  0  0  0  0  0  0
   -3.8197    2.2299   -0.3227 C   0  0  0  0  0  0  0  0  0  0  0  0
   -5.1477    1.9134   -0.0365 C   0  0  0  0  0  0  0  0  0  0  0  0
   -5.3961    4.1275    0.7952 C   0  0  0  0  0  0  0  0  0  0  0  0
    2.3091   -2.9441    1.7086 H   0  0  0  0  0  0  0  0  0  0  0  0
    0.7544   -1.3302   -1.4793 H   0  0  0  0  0  0  0  0  0  0  0  0
   -0.0475   -0.1089   -0.5064 H   0  0  0  0  0  0  0  0  0  0  0  0
    0.0651   -3.3353    2.3825 H   0  0  0  0  0  0  0  0  0  0  0  0
    0.4147   -4.6788    1.2947 H   0  0  0  0  0  0  0  0  0  0  0  0
   -3.1082   -1.5747   -2.5983 H   0  0  0  0  0  0  0  0  0  0  0  0
   -1.7117   -0.5611   -2.3018 H   0  0  0  0  0  0  0  0  0  0  0  0
   -3.8105   -3.2887   -0.6723 H   0  0  0  0  0  0  0  0  0  0  0  0
    3.6382    0.7356    0.5912 H   0  0  0  0  0  0  0  0  0  0  0  0
   -0.4212    1.9651    1.3868 H   0  0  0  0  0  0  0  0  0  0  0  0
   -5.2045   -1.2990   -1.1298 H   0  0  0  0  0  0  0  0  0  0  0  0
   -1.9514    1.5329   -1.1182 H   0  0  0  0  0  0  0  0  0  0  0  0
   -0.0034    4.0883    0.2273 H   0  0  0  0  0  0  0  0  0  0  0  0
    2.2039    4.5671   -0.7534 H   0  0  0  0  0  0  0  0  0  0  0  0
    4.9233   -2.6318   -1.9182 H   0  0  0  0  0  0  0  0  0  0  0  0
    3.4160   -3.2152   -2.6586 H   0  0  0  0  0  0  0  0  0  0  0  0
    4.3856   -4.2950   -1.5928 H   0  0  0  0  0  0  0  0  0  0  0  0
   -6.6734    0.3888   -0.1070 H   0  0  0  0  0  0  0  0  0  0  0  0
   -3.3728    3.1980   -0.1240 H   0  0  0  0  0  0  0  0  0  0  0  0
   -6.1846    4.7431    1.2405 H   0  0  0  0  0  0  0  0  0  0  0  0
   -5.0803    4.6293   -0.1257 H   0  0  0  0  0  0  0  0  0  0  0  0
   -4.5872    4.0625    1.5310 H   0  0  0  0  0  0  0  0  0  0  0  0
  1  5  2  0  0  0  0
  1  6  2  0  0  0  0
  1 10  1  0  0  0  0
  1 21  1  0  0  0  0
  2 31  1  0  0  0  0
  3 31  1  0  0  0  0
  4 31  1  0  0  0  0
  7 18  1  0  0  0  0
  7 30  1  0  0  0  0
  8 18  2  0  0  0  0
  9 34  1  0  0  0  0
  9 35  1  0  0  0  0
 10 13  1  0  0  0  0
 10 14  1  0  0  0  0
 11 16  1  0  0  0  0
 11 19  1  0  0  0  0
 11 20  1  0  0  0  0
 12 17  1  0  0  0  0
 12 20  2  0  0  0  0
 13 15  1  0  0  0  0
 13 18  1  0  0  0  0
 13 36  1  0  0  0  0
 14 16  1  0  0  0  0
 14 37  1  0  0  0  0
 14 38  1  0  0  0  0
 15 17  1  0  0  0  0
 15 39  1  0  0  0  0
 15 40  1  0  0  0  0
 16 17  2  0  0  0  0
 19 22  1  0  0  0  0
 19 41  1  0  0  0  0
 19 42  1  0  0  0  0
 20 43  1  0  0  0  0
 21 23  1  0  0  0  0
 21 24  2  0  0  0  0
 22 26  2  0  0  0  0
 22 27  1  0  0  0  0
 23 25  2  0  0  0  0
 23 44  1  0  0  0  0
 24 28  1  0  0  0  0
 24 45  1  0  0  0  0
 25 29  1  0  0  0  0
 25 31  1  0  0  0  0
 26 32  1  0  0  0  0
 26 46  1  0  0  0  0
 27 33  2  0  0  0  0
 27 47  1  0  0  0  0
 28 29  2  0  0  0  0
 28 48  1  0  0  0  0
 29 49  1  0  0  0  0
 30 50  1  0  0  0  0
 30 51  1  0  0  0  0
 30 52  1  0  0  0  0
 32 34  2  0  0  0  0
 32 53  1  0  0  0  0
 33 34  1  0  0  0  0
 33 54  1  0  0  0  0
 35 55  1  0  0  0  0
 35 56  1  0  0  0  0
 35 57  1  0  0  0  0
M  END
> <PUBCHEM_COMPOUND_CID>
25338976

> <PUBCHEM_CONFORMER_RMSD>
1

> <PUBCHEM_CONFORMER_DIVERSEORDER>
2
98
132
102
36
188
209
33
203
16
131
65
59
220
135
5
17
211
56
122
84
93
200
138
237
160
73
70
91
103
197
80
225
234
171
159
221
14
81
97
42
129
117
141
208
152
206
7
158
223
233
230
189
4
113
176
75
61
185
72
236
222
183
1
161
146
62
63
22
169
82
74
199
124
128
40
6
191
218
83
174
28
180
214
67
154
196
77
89
125
192
18
57
155
144
64
110
88
101
194
166
76
119
165
54
216
69
212
86
204
207
100
139
172
201
219
149
50
195
19
170
178
111
78
68
46
182
235
205
175
229
156
10
92
21
133
55
39
99
20
3
186
210
224
53
79
137
109
226
115
85
112
173
96
35
87
227
43
25
167
150
202
13
193
118
217
231
58
215
24
168
38
127
198
45
31
228
147
23
181
151
108
126
15
190
157
104
44
106
177
34
153
140
163
105
130
120
123
107
136
145
134
143
12
8
213
60
232
49
9
29
187
52
162
90
116
51
27
142
164
94
41
47
26
66
114
184
121
37
95
11
179
30
32
48
148
71

> <PUBCHEM_MMFF94_PARTIAL_CHARGES>
44
1 1.45
10 -0.85
11 0.05
12 -0.57
13 0.42
14 0.54
15 0.18
16 -0.33
17 0.05
18 0.66
19 0.4
2 -0.34
20 0.04
21 -0.01
22 -0.14
23 -0.15
24 -0.15
25 -0.14
26 -0.15
27 -0.15
28 -0.15
29 -0.15
3 -0.34
30 0.28
31 1.16
32 -0.15
33 -0.15
34 0.08
35 0.28
4 -0.34
43 0.15
44 0.15
45 0.15
46 0.15
47 0.15
48 0.15
49 0.15
5 -0.65
53 0.15
54 0.15
6 -0.65
7 -0.43
8 -0.57
9 -0.36

> <PUBCHEM_EFFECTIVE_ROTOR_COUNT>
8.8

> <PUBCHEM_PHARMACOPHORE_FEATURES>
9
1 5 acceptor
1 6 acceptor
1 8 acceptor
1 9 acceptor
3 11 12 20 cation
5 11 12 16 17 20 rings
6 10 13 14 15 16 17 rings
6 21 23 24 25 28 29 rings
6 22 26 27 32 33 34 rings

> <PUBCHEM_HEAVY_ATOM_COUNT>
35

> <PUBCHEM_ATOM_DEF_STEREO_COUNT>
1

> <PUBCHEM_ATOM_UDEF_STEREO_COUNT>
0

> <PUBCHEM_BOND_DEF_STEREO_COUNT>
0

> <PUBCHEM_BOND_UDEF_STEREO_COUNT>
0

> <PUBCHEM_ISOTOPIC_ATOM_COUNT>
0

> <PUBCHEM_COMPONENT_COUNT>
1

> <PUBCHEM_CACTVS_TAUTO_COUNT>
1

> <PUBCHEM_CONFORMER_ID>
0182A46000000002

> <PUBCHEM_MMFF94_ENERGY>
79.9975

> <PUBCHEM_FEATURE_SELFOVERLAP>
45.793

> <PUBCHEM_SHAPE_FINGERPRINT>
10483366 6 18339371773444198646
1100329 8 18337950086986160354
11059048 146 18337948021265224517
11200772 48 18192441981530599012
11421498 54 17540820490699247995
11513181 2 18130781291813555423
12156800 1 16227201246881485003
12160290 23 17253394286779808590
12422481 6 17478842218394882058
12788726 201 18049428546859852779
14713325 29 17973728274461178123
14790565 3 18409166614779993961
15163728 17 18263083373988609686
151778 21 18337946797494996225
15210252 30 18195807362773231546
15297060 5 18269839881252094896
15439362 3 18339646642044542856
15475509 84 16535940414812295531
15927050 60 18340770429333345743
19311894 1 18266741457543122029
20642791 239 18267038171507020926
20739085 24 17979902831499965171
21987440 362 18126819760103675336
23536364 44 18056776527028041428
3298306 158 18124879221028285574
38570 142 17967817184360774320
469060 322 17619917153640182971
5081480 168 17987541250083608886
57527585 21 18124576837860907343
5776283 40 18336279959136039206

> <PUBCHEM_SHAPE_MULTIPOLES>
658.02
10.81
7.06
1.71
10.81
0.16
-0.54
10.72
3.07
-5.32
0.81
-1.16
-0.38
-1.38

> <PUBCHEM_SHAPE_SELFOVERLAP>
1414.494

> <PUBCHEM_SHAPE_VOLUME>
369.1

> <PUBCHEM_COORDINATE_TYPE>
2
5
10

$$$$
