25390203
  -OEChem-12032416313D

 55 57  0     1  0  0  0  0  0999 V2000
   -0.7752    3.6924   -2.5156 F   0  0  0  0  0  0  0  0  0  0  0  0
    2.6094   -1.0284    0.9669 O   0  0  0  0  0  0  0  0  0  0  0  0
    5.1657   -1.7413   -0.5202 O   0  0  0  0  0  0  0  0  0  0  0  0
    5.4078    0.9638   -0.0819 O   0  0  0  0  0  0  0  0  0  0  0  0
    0.4547   -2.9768   -0.0726 O   0  0  0  0  0  0  0  0  0  0  0  0
    0.2340    0.3149    2.2070 O   0  0  0  0  0  0  0  0  0  0  0  0
    1.8672    1.6909    1.3000 N   0  0  0  0  0  0  0  0  0  0  0  0
   -0.8187   -1.7618   -1.5831 N   0  0  0  0  0  0  0  0  0  0  0  0
    4.0711   -0.9109   -0.9060 C   0  0  1  0  0  0  0  0  0  0  0  0
    2.7888   -1.5409   -0.3733 C   0  0  2  0  0  0  0  0  0  0  0  0
    4.1150    0.4013   -0.1507 C   0  0  1  0  0  0  0  0  0  0  0  0
    3.6013   -0.0171    1.2168 C   0  0  1  0  0  0  0  0  0  0  0  0
    1.5572   -1.1635   -1.1852 C   0  0  0  0  0  0  0  0  0  0  0  0
    2.9809    1.1247    2.0019 C   0  0  0  0  0  0  0  0  0  0  0  0
    0.3590   -2.0553   -0.8874 C   0  0  0  0  0  0  0  0  0  0  0  0
   -2.0480   -2.5302   -1.4014 C   0  0  0  0  0  0  0  0  0  0  0  0
    0.5619    1.2339    1.4609 C   0  0  0  0  0  0  0  0  0  0  0  0
   -0.9078   -0.6671   -2.5417 C   0  0  0  0  0  0  0  0  0  0  0  0
   -2.9314   -1.9350   -0.3434 C   0  0  0  0  0  0  0  0  0  0  0  0
   -0.4768    1.9091    0.6412 C   0  0  0  0  0  0  0  0  0  0  0  0
   -2.7948   -2.3352    0.9858 C   0  0  0  0  0  0  0  0  0  0  0  0
   -3.8888   -0.9814   -0.6897 C   0  0  0  0  0  0  0  0  0  0  0  0
   -0.1318    2.4958   -0.5764 C   0  0  0  0  0  0  0  0  0  0  0  0
   -1.7969    1.9568    1.0890 C   0  0  0  0  0  0  0  0  0  0  0  0
   -3.6155   -1.7817    1.9686 C   0  0  0  0  0  0  0  0  0  0  0  0
   -4.7093   -0.4279    0.2931 C   0  0  0  0  0  0  0  0  0  0  0  0
   -1.1071    3.1300   -1.3461 C   0  0  0  0  0  0  0  0  0  0  0  0
   -2.7721    2.5912    0.3194 C   0  0  0  0  0  0  0  0  0  0  0  0
   -4.5726   -0.8280    1.6223 C   0  0  0  0  0  0  0  0  0  0  0  0
   -2.4271    3.1778   -0.8981 C   0  0  0  0  0  0  0  0  0  0  0  0
    4.1111   -0.7891   -1.9921 H   0  0  0  0  0  0  0  0  0  0  0  0
    2.8916   -2.6293   -0.2961 H   0  0  0  0  0  0  0  0  0  0  0  0
    3.4480    1.1203   -0.6389 H   0  0  0  0  0  0  0  0  0  0  0  0
    4.4022   -0.4659    1.8175 H   0  0  0  0  0  0  0  0  0  0  0  0
    1.7911   -1.2884   -2.2490 H   0  0  0  0  0  0  0  0  0  0  0  0
    1.2788   -0.1260   -0.9890 H   0  0  0  0  0  0  0  0  0  0  0  0
    3.7104    1.9224    2.1748 H   0  0  0  0  0  0  0  0  0  0  0  0
    2.6304    0.7606    2.9741 H   0  0  0  0  0  0  0  0  0  0  0  0
    5.0797   -2.5797   -1.0054 H   0  0  0  0  0  0  0  0  0  0  0  0
    5.7211    1.0878   -0.9940 H   0  0  0  0  0  0  0  0  0  0  0  0
    2.0597    2.4913    0.7072 H   0  0  0  0  0  0  0  0  0  0  0  0
   -1.7824   -3.5556   -1.1155 H   0  0  0  0  0  0  0  0  0  0  0  0
   -2.5766   -2.6112   -2.3590 H   0  0  0  0  0  0  0  0  0  0  0  0
   -1.2866   -1.0627   -3.4896 H   0  0  0  0  0  0  0  0  0  0  0  0
    0.0357   -0.1656   -2.7499 H   0  0  0  0  0  0  0  0  0  0  0  0
   -1.6107    0.0782   -2.1618 H   0  0  0  0  0  0  0  0  0  0  0  0
   -2.0546   -3.0777    1.2708 H   0  0  0  0  0  0  0  0  0  0  0  0
   -4.0084   -0.6627   -1.7217 H   0  0  0  0  0  0  0  0  0  0  0  0
    0.8775    2.4569   -0.9748 H   0  0  0  0  0  0  0  0  0  0  0  0
   -2.0835    1.5106    2.0376 H   0  0  0  0  0  0  0  0  0  0  0  0
   -3.5087   -2.0928    3.0037 H   0  0  0  0  0  0  0  0  0  0  0  0
   -5.4551    0.3142    0.0233 H   0  0  0  0  0  0  0  0  0  0  0  0
   -3.7990    2.6340    0.6702 H   0  0  0  0  0  0  0  0  0  0  0  0
   -5.2108   -0.3963    2.3876 H   0  0  0  0  0  0  0  0  0  0  0  0
   -3.1860    3.6721   -1.4972 H   0  0  0  0  0  0  0  0  0  0  0  0
  1 27  1  0  0  0  0
  2 10  1  0  0  0  0
  2 12  1  0  0  0  0
  3  9  1  0  0  0  0
  3 39  1  0  0  0  0
  4 11  1  0  0  0  0
  4 40  1  0  0  0  0
  5 15  2  0  0  0  0
  6 17  2  0  0  0  0
  7 14  1  0  0  0  0
  7 17  1  0  0  0  0
  7 41  1  0  0  0  0
  8 15  1  0  0  0  0
  8 16  1  0  0  0  0
  8 18  1  0  0  0  0
  9 10  1  0  0  0  0
  9 11  1  0  0  0  0
  9 31  1  0  0  0  0
 10 13  1  0  0  0  0
 10 32  1  0  0  0  0
 11 12  1  0  0  0  0
 11 33  1  0  0  0  0
 12 14  1  0  0  0  0
 12 34  1  0  0  0  0
 13 15  1  0  0  0  0
 13 35  1  0  0  0  0
 13 36  1  0  0  0  0
 14 37  1  0  0  0  0
 14 38  1  0  0  0  0
 16 19  1  0  0  0  0
 16 42  1  0  0  0  0
 16 43  1  0  0  0  0
 17 20  1  0  0  0  0
 18 44  1  0  0  0  0
 18 45  1  0  0  0  0
 18 46  1  0  0  0  0
 19 21  2  0  0  0  0
 19 22  1  0  0  0  0
 20 23  2  0  0  0  0
 20 24  1  0  0  0  0
 21 25  1  0  0  0  0
 21 47  1  0  0  0  0
 22 26  2  0  0  0  0
 22 48  1  0  0  0  0
 23 27  1  0  0  0  0
 23 49  1  0  0  0  0
 24 28  2  0  0  0  0
 24 50  1  0  0  0  0
 25 29  2  0  0  0  0
 25 51  1  0  0  0  0
 26 29  1  0  0  0  0
 26 52  1  0  0  0  0
 27 30  2  0  0  0  0
 28 30  1  0  0  0  0
 28 53  1  0  0  0  0
 29 54  1  0  0  0  0
 30 55  1  0  0  0  0
M  END
> <PUBCHEM_COMPOUND_CID>
25390203

> <PUBCHEM_CONFORMER_RMSD>
1.4

> <PUBCHEM_CONFORMER_DIVERSEORDER>
2
37
33
98
75
64
97
78
96
77
15
45
1
29
136
107
50
110
72
25
20
155
24
6
82
126
40
74
149
90
66
46
124
151
153
27
119
135
88
129
48
44
19
123
125
49
139
103
91
30
137
76
105
32
47
21
14
67
35
111
112
115
99
143
145
138
93
56
141
11
95
55
146
150
87
59
31
71
94
51
79
84
116
23
61
41
53
101
132
121
108
26
117
81
10
52
43
22
7
122
89
63
120
142
62
83
58
13
134
127
39
114
54
69
144
38
148
109
128
140
130
131
5
106
17
80
113
147
92
102
154
57
85
9
104
12
8
28
34
118
16
86
133
36
18
68
60
73
3
65
42
152
4
100
70

> <PUBCHEM_MMFF94_PARTIAL_CHARGES>
42
1 -0.19
10 0.28
11 0.28
12 0.28
13 0.06
14 0.3
15 0.57
16 0.44
17 0.54
18 0.3
19 -0.14
2 -0.56
20 0.09
21 -0.15
22 -0.15
23 -0.15
24 -0.15
25 -0.15
26 -0.15
27 0.19
28 -0.15
29 -0.15
3 -0.68
30 -0.15
39 0.4
4 -0.68
40 0.4
41 0.37
47 0.15
48 0.15
49 0.15
5 -0.57
50 0.15
51 0.15
52 0.15
53 0.15
54 0.15
55 0.15
6 -0.57
7 -0.73
8 -0.66
9 0.28

> <PUBCHEM_EFFECTIVE_ROTOR_COUNT>
10

> <PUBCHEM_PHARMACOPHORE_FEATURES>
11
1 2 acceptor
1 3 acceptor
1 3 donor
1 4 acceptor
1 4 donor
1 5 acceptor
1 6 acceptor
1 7 donor
5 2 9 10 11 12 rings
6 19 21 22 25 26 29 rings
6 20 23 24 27 28 30 rings

> <PUBCHEM_HEAVY_ATOM_COUNT>
30

> <PUBCHEM_ATOM_DEF_STEREO_COUNT>
4

> <PUBCHEM_ATOM_UDEF_STEREO_COUNT>
0

> <PUBCHEM_BOND_DEF_STEREO_COUNT>
0

> <PUBCHEM_BOND_UDEF_STEREO_COUNT>
0

> <PUBCHEM_ISOTOPIC_ATOM_COUNT>
0

> <PUBCHEM_COMPONENT_COUNT>
1

> <PUBCHEM_CACTVS_TAUTO_COUNT>
2

> <PUBCHEM_CONFORMER_ID>
01836C7B00000002

> <PUBCHEM_MMFF94_ENERGY>
75.9103

> <PUBCHEM_FEATURE_SELFOVERLAP>
55.835

> <PUBCHEM_SHAPE_FINGERPRINT>
11014199 57 17694776719960144615
11244481 83 17026836574740167047
11513181 2 17273140334794104606
11595378 159 18260820493275325978
12156800 1 18051451463223233765
12422481 6 18270141036264230657
12633257 1 17275116049672675171
13402501 40 18272090448889544697
14363568 33 17833846232217475793
14790565 3 17264680799952851720
14840074 17 18268723868486223617
17357779 13 18271512170081806055
1813 80 18189332532007048425
18603816 31 13829855656824713214
20691752 17 18267853050924230378
20764821 26 18057027022194545651
22182313 1 18059278908419098264
238 59 17413844575628427285
3052486 1 18261112937192296013
3187 122 18334008398119964789
35225 105 17975102402461419535
3524813 1 18202282476916669835
469060 322 18261688011843584143
57091435 65 17976273644253967405

> <PUBCHEM_SHAPE_MULTIPOLES>
570.8
8.7
4.07
2.16
5.24
2.28
-0.16
-3.28
2.19
-2.49
-1.69
-0.67
0.43
1.44

> <PUBCHEM_SHAPE_SELFOVERLAP>
1212.128

> <PUBCHEM_SHAPE_VOLUME>
318.9

> <PUBCHEM_COORDINATE_TYPE>
2
5
10

$$$$
