7675081
  -OEChem-12032416133D

 59 62  0     1  0  0  0  0  0999 V2000
    2.5906   -0.7365   -1.7141 S   0  0  0  0  0  0  0  0  0  0  0  0
    5.0374   -4.5845    2.0214 F   0  0  0  0  0  0  0  0  0  0  0  0
   -6.4968   -0.6869   -1.5644 F   0  0  0  0  0  0  0  0  0  0  0  0
   -0.4387    1.5264   -1.4435 O   0  0  0  0  0  0  0  0  0  0  0  0
    3.2501    0.5388   -1.5293 O   0  0  0  0  0  0  0  0  0  0  0  0
    2.5279   -1.3606   -3.0188 O   0  0  0  0  0  0  0  0  0  0  0  0
   -2.7199   -0.1874    2.3332 O   0  0  0  0  0  0  0  0  0  0  0  0
    2.7730    4.4493   -0.0208 O   0  0  0  0  0  0  0  0  0  0  0  0
    1.0125   -0.6494   -1.0629 N   0  0  2  0  0  0  0  0  0  0  0  0
   -1.3560   -0.8981    0.5713 N   0  0  0  0  0  0  0  0  0  0  0  0
    0.7517    2.6263    0.2273 N   0  0  0  0  0  0  0  0  0  0  0  0
    1.3531    6.1763    0.4475 N   0  0  0  0  0  0  0  0  0  0  0  0
    0.8209    0.2380    0.1174 C   0  0  2  0  0  0  0  0  0  0  0  0
   -0.1367   -0.3389    1.1560 C   0  0  0  0  0  0  0  0  0  0  0  0
    0.2492   -1.9236   -1.0213 C   0  0  0  0  0  0  0  0  0  0  0  0
   -1.2070   -1.6232   -0.6954 C   0  0  0  0  0  0  0  0  0  0  0  0
    0.2955    1.5140   -0.4592 C   0  0  0  0  0  0  0  0  0  0  0  0
    0.4093    3.9752   -0.1422 C   0  0  1  0  0  0  0  0  0  0  0  0
   -0.8658    4.4225    0.5594 C   0  0  0  0  0  0  0  0  0  0  0  0
   -1.1047    5.8993    0.2901 C   0  0  0  0  0  0  0  0  0  0  0  0
   -2.5627   -0.7872    1.2710 C   0  0  0  0  0  0  0  0  0  0  0  0
    3.3235   -1.8893   -0.5955 C   0  0  0  0  0  0  0  0  0  0  0  0
    1.6207    4.8594    0.1326 C   0  0  0  0  0  0  0  0  0  0  0  0
    0.0590    6.6990    0.8448 C   0  0  0  0  0  0  0  0  0  0  0  0
   -3.7520   -1.4396    0.7014 C   0  0  0  0  0  0  0  0  0  0  0  0
    3.2683   -3.2563   -0.8670 C   0  0  0  0  0  0  0  0  0  0  0  0
    3.9576   -1.4327    0.5599 C   0  0  0  0  0  0  0  0  0  0  0  0
   -4.5771   -0.7398   -0.1789 C   0  0  0  0  0  0  0  0  0  0  0  0
   -4.0544   -2.7580    1.0420 C   0  0  0  0  0  0  0  0  0  0  0  0
    3.8473   -4.1669    0.0170 C   0  0  0  0  0  0  0  0  0  0  0  0
    4.5364   -2.3431    1.4439 C   0  0  0  0  0  0  0  0  0  0  0  0
    4.4813   -3.7102    1.1725 C   0  0  0  0  0  0  0  0  0  0  0  0
   -5.7046   -1.3585   -0.7189 C   0  0  0  0  0  0  0  0  0  0  0  0
   -5.1818   -3.3768    0.5021 C   0  0  0  0  0  0  0  0  0  0  0  0
   -6.0069   -2.6770   -0.3784 C   0  0  0  0  0  0  0  0  0  0  0  0
    1.7756    0.4271    0.6171 H   0  0  0  0  0  0  0  0  0  0  0  0
    0.3499   -1.1623    1.6940 H   0  0  0  0  0  0  0  0  0  0  0  0
   -0.3961    0.4180    1.9050 H   0  0  0  0  0  0  0  0  0  0  0  0
    0.2966   -2.4224   -1.9944 H   0  0  0  0  0  0  0  0  0  0  0  0
    0.6574   -2.5944   -0.2592 H   0  0  0  0  0  0  0  0  0  0  0  0
   -1.6591   -1.0016   -1.4771 H   0  0  0  0  0  0  0  0  0  0  0  0
   -1.7703   -2.5600   -0.6507 H   0  0  0  0  0  0  0  0  0  0  0  0
    0.2461    4.0071   -1.2275 H   0  0  0  0  0  0  0  0  0  0  0  0
   -1.7200    3.8344    0.2033 H   0  0  0  0  0  0  0  0  0  0  0  0
   -0.7924    4.2486    1.6410 H   0  0  0  0  0  0  0  0  0  0  0  0
    1.3323    2.4949    1.0509 H   0  0  0  0  0  0  0  0  0  0  0  0
   -2.0408    6.2273    0.7544 H   0  0  0  0  0  0  0  0  0  0  0  0
   -1.1977    6.0693   -0.7895 H   0  0  0  0  0  0  0  0  0  0  0  0
    0.0402    6.6911    1.9403 H   0  0  0  0  0  0  0  0  0  0  0  0
    0.0056    7.7417    0.5166 H   0  0  0  0  0  0  0  0  0  0  0  0
    2.1529    6.7886    0.5759 H   0  0  0  0  0  0  0  0  0  0  0  0
    2.7783   -3.6350   -1.7594 H   0  0  0  0  0  0  0  0  0  0  0  0
    4.0171   -0.3734    0.7919 H   0  0  0  0  0  0  0  0  0  0  0  0
   -4.3502    0.2876   -0.4515 H   0  0  0  0  0  0  0  0  0  0  0  0
   -3.4178   -3.3123    1.7267 H   0  0  0  0  0  0  0  0  0  0  0  0
    3.8040   -5.2315   -0.1935 H   0  0  0  0  0  0  0  0  0  0  0  0
    5.0308   -1.9881    2.3433 H   0  0  0  0  0  0  0  0  0  0  0  0
   -5.4171   -4.4035    0.7669 H   0  0  0  0  0  0  0  0  0  0  0  0
   -6.8848   -3.1585   -0.7991 H   0  0  0  0  0  0  0  0  0  0  0  0
  1  5  2  0  0  0  0
  1  6  2  0  0  0  0
  1  9  1  0  0  0  0
  1 22  1  0  0  0  0
  2 32  1  0  0  0  0
  3 33  1  0  0  0  0
  4 17  2  0  0  0  0
  7 21  2  0  0  0  0
  8 23  2  0  0  0  0
  9 13  1  0  0  0  0
  9 15  1  0  0  0  0
 10 14  1  0  0  0  0
 10 16  1  0  0  0  0
 10 21  1  0  0  0  0
 11 17  1  0  0  0  0
 11 18  1  0  0  0  0
 11 46  1  0  0  0  0
 12 23  1  0  0  0  0
 12 24  1  0  0  0  0
 12 51  1  0  0  0  0
 13 14  1  0  0  0  0
 13 17  1  0  0  0  0
 13 36  1  0  0  0  0
 14 37  1  0  0  0  0
 14 38  1  0  0  0  0
 15 16  1  0  0  0  0
 15 39  1  0  0  0  0
 15 40  1  0  0  0  0
 16 41  1  0  0  0  0
 16 42  1  0  0  0  0
 18 19  1  0  0  0  0
 18 23  1  0  0  0  0
 18 43  1  0  0  0  0
 19 20  1  0  0  0  0
 19 44  1  0  0  0  0
 19 45  1  0  0  0  0
 20 24  1  0  0  0  0
 20 47  1  0  0  0  0
 20 48  1  0  0  0  0
 21 25  1  0  0  0  0
 22 26  2  0  0  0  0
 22 27  1  0  0  0  0
 24 49  1  0  0  0  0
 24 50  1  0  0  0  0
 25 28  2  0  0  0  0
 25 29  1  0  0  0  0
 26 30  1  0  0  0  0
 26 52  1  0  0  0  0
 27 31  2  0  0  0  0
 27 53  1  0  0  0  0
 28 33  1  0  0  0  0
 28 54  1  0  0  0  0
 29 34  2  0  0  0  0
 29 55  1  0  0  0  0
 30 32  2  0  0  0  0
 30 56  1  0  0  0  0
 31 32  1  0  0  0  0
 31 57  1  0  0  0  0
 33 35  2  0  0  0  0
 34 35  1  0  0  0  0
 34 58  1  0  0  0  0
 35 59  1  0  0  0  0
M  END
> <PUBCHEM_COMPOUND_CID>
7675081

> <PUBCHEM_CONFORMER_RMSD>
1

> <PUBCHEM_CONFORMER_DIVERSEORDER>
1
249
331
319
310
14
290
163
146
252
212
109
171
213
327
193
363
24
246
372
388
194
291
201
174
134
187
121
216
413
170
377
278
64
391
408
286
91
279
334
93
251
405
366
124
192
285
367
421
86
292
73
128
205
382
351
298
29
385
152
339
330
302
105
98
393
379
144
226
274
355
265
188
328
99
222
106
87
347
380
51
245
311
50
166
308
425
386
362
368
257
318
429
148
181
427
375
350
225
289
89
395
258
191
320
242
424
45
142
248
239
266
110
338
422
231
420
282
250
229
329
20
333
165
374
227
184
177
207
103
244
69
237
360
321
335
94
426
304
158
307
262
178
139
270
317
30
259
406
195
394
156
276
390
160
273
23
361
332
345
43
164
135
203
31
293
84
172
280
116
236
104
261
403
90
107
389
75
59
349
409
383
183
267
232
294
199
404
423
369
263
140
371
277
287
397
151
315
131
186
269
95
241
365
235
197
68
80
230
407
384
108
344
220
33
336
300
120
127
392
112
176
161
70
253
136
214
376
373
356
247
153
402
352
417
74
210
337
57
233
202
6
85
221
13
348
254
25
418
100
180
159
228
157
28
185
179
215
114
264
414
145
281
119
182
200
132
17
411
400
358
196
255
268
44
129
284
217
111
364
295
77
82
138
370
316
218
130
272
378
92
41
173
54
81
15
47
309
209
169
175
35
288
306
243
401
125
240
66
63
326
256
42
297
168
325
137
396
346
381
219
296
416
322
412
36
305
117
204
39
65
208
49
55
18
410
275
211
313
419
190
34
147
8
149
133
428
189
48
62
101
303
32
53
154
223
113
118
143
58
67
224
76
7
27
78
312
198
283
60
238
83
342
79
3
323
354
38
122
141
52
72
22
357
16
271
167
2
96
314
150
387
301
37
324
353
260
206
340
61
26
5
398
123
11
343
341
9
126
162
40
97
155
234
415
4
46
115
359
399
102
56
71
88
19
299
10
12
21

> <PUBCHEM_MMFF94_PARTIAL_CHARGES>
43
1 1.45
10 -0.66
11 -0.73
12 -0.73
13 0.42
14 0.3
15 0.36
16 0.3
17 0.57
18 0.36
2 -0.19
21 0.54
22 -0.01
23 0.57
24 0.3
25 0.09
26 -0.15
27 -0.15
28 -0.15
29 -0.15
3 -0.19
30 -0.15
31 -0.15
32 0.19
33 0.19
34 -0.15
35 -0.15
4 -0.57
46 0.37
5 -0.65
51 0.37
52 0.15
53 0.15
54 0.15
55 0.15
56 0.15
57 0.15
58 0.15
59 0.15
6 -0.65
7 -0.57
8 -0.57
9 -0.85

> <PUBCHEM_EFFECTIVE_ROTOR_COUNT>
9.2

> <PUBCHEM_PHARMACOPHORE_FEATURES>
11
1 11 donor
1 12 donor
1 4 acceptor
1 5 acceptor
1 6 acceptor
1 7 acceptor
1 8 acceptor
6 12 18 19 20 23 24 rings
6 22 26 27 30 31 32 rings
6 25 28 29 33 34 35 rings
6 9 10 13 14 15 16 rings

> <PUBCHEM_HEAVY_ATOM_COUNT>
35

> <PUBCHEM_ATOM_DEF_STEREO_COUNT>
2

> <PUBCHEM_ATOM_UDEF_STEREO_COUNT>
0

> <PUBCHEM_BOND_DEF_STEREO_COUNT>
0

> <PUBCHEM_BOND_UDEF_STEREO_COUNT>
0

> <PUBCHEM_ISOTOPIC_ATOM_COUNT>
0

> <PUBCHEM_COMPONENT_COUNT>
1

> <PUBCHEM_CACTVS_TAUTO_COUNT>
4

> <PUBCHEM_CONFORMER_ID>
00751CC900000001

> <PUBCHEM_MMFF94_ENERGY>
78.0344

> <PUBCHEM_FEATURE_SELFOVERLAP>
55.842

> <PUBCHEM_SHAPE_FINGERPRINT>
10074138 170 17832973954455642834
11720765 8 18410565206860881281
12160290 23 17539155877207007901
12788726 201 17902828208806454576
13583140 156 18119261794288828115
13692114 37 17401492550612624633
13955234 65 18049451627903416435
14068700 675 18115302259881133490
14150023 79 17905609161407343813
14725015 67 18340771563664465892
15439362 3 17548141481762719644
15484559 13 17909846658004945636
19246450 95 17763720480194550984
19311894 1 18195523693658849061
21304303 282 17546152014208098693
21703447 108 17832428970504583195
21792965 215 17198777988137614099
22889206 1 18119802771252093582
23559900 14 18335972156501031379
255183 313 17694796125197154961
376196 1 17336478904713734524
3882209 13 18339908330175141785
4058900 60 17403174193417181807
508180 173 18114732721911674845
59444896 2 16957587837974592057
6058803 2 17826820048585284542
6371380 46 17690570001958874284
6691757 9 17108168124721671722
6695519 79 17256833589823334867
6697151 62 18265874969935748615
79837 15 17545601154218220414
9658208 31 17261319094663731206
9777508 108 17619631280785746194
9981440 41 16895686363717551808

> <PUBCHEM_SHAPE_MULTIPOLES>
660.32
10.94
9.89
1.7
13.56
22.43
0.34
-18.7
-0.41
-7.31
-3.25
-0.9
-1.26
-1.23

> <PUBCHEM_SHAPE_SELFOVERLAP>
1404.012

> <PUBCHEM_SHAPE_VOLUME>
368.8

> <PUBCHEM_COORDINATE_TYPE>
2
5
10

$$$$
