45783582
  -OEChem-12032416313D

 48 51  0     1  0  0  0  0  0999 V2000
   -3.7065   -1.2722    0.2963 O   0  0  0  0  0  0  0  0  0  0  0  0
    3.1233    1.7960   -0.9023 O   0  0  0  0  0  0  0  0  0  0  0  0
    5.4945    0.0421    1.0082 N   0  0  1  0  0  0  0  0  0  0  0  0
    2.5727   -0.2275   -0.1157 N   0  0  0  0  0  0  0  0  0  0  0  0
    1.7234    1.7530   -0.8839 N   0  0  0  0  0  0  0  0  0  0  0  0
   -2.2397    0.4031   -0.3546 N   0  0  0  0  0  0  0  0  0  0  0  0
    5.0407    0.3829   -0.3551 C   0  0  1  0  0  0  0  0  0  0  0  0
    5.5262   -0.7857   -1.2324 C   0  0  0  0  0  0  0  0  0  0  0  0
    6.2930   -1.7004   -0.2879 C   0  0  0  0  0  0  0  0  0  0  0  0
    6.6917   -0.7838    0.8509 C   0  0  0  0  0  0  0  0  0  0  0  0
   -4.7338   -0.3528   -0.0579 C   0  0  0  0  0  0  0  0  0  0  0  0
   -5.9544   -1.1186   -0.5669 C   0  0  0  0  0  0  0  0  0  0  0  0
   -5.0794    0.5197    1.1478 C   0  0  0  0  0  0  0  0  0  0  0  0
   -7.1194   -0.1816   -0.8680 C   0  0  0  0  0  0  0  0  0  0  0  0
   -6.2446    1.4569    0.8469 C   0  0  0  0  0  0  0  0  0  0  0  0
   -7.4635    0.6921    0.3362 C   0  0  0  0  0  0  0  0  0  0  0  0
    3.5430    0.5912   -0.4351 C   0  0  0  0  0  0  0  0  0  0  0  0
    5.7411    1.2124    1.8408 C   0  0  0  0  0  0  0  0  0  0  0  0
   -2.4152   -0.8469    0.1296 C   0  0  0  0  0  0  0  0  0  0  0  0
    1.4754    0.5291   -0.4081 C   0  0  0  0  0  0  0  0  0  0  0  0
    0.1452    0.0319   -0.2148 C   0  0  0  0  0  0  0  0  0  0  0  0
   -1.3774   -1.7036    0.4595 C   0  0  0  0  0  0  0  0  0  0  0  0
   -0.0757   -1.2482    0.2812 C   0  0  0  0  0  0  0  0  0  0  0  0
   -0.9606    0.8109   -0.5146 C   0  0  0  0  0  0  0  0  0  0  0  0
    5.5434    1.2940   -0.7096 H   0  0  0  0  0  0  0  0  0  0  0  0
    6.2053   -0.4070   -2.0062 H   0  0  0  0  0  0  0  0  0  0  0  0
    4.7198   -1.3317   -1.7339 H   0  0  0  0  0  0  0  0  0  0  0  0
    7.1555   -2.1669   -0.7731 H   0  0  0  0  0  0  0  0  0  0  0  0
    5.6333   -2.4981    0.0757 H   0  0  0  0  0  0  0  0  0  0  0  0
    6.9254   -1.3475    1.7593 H   0  0  0  0  0  0  0  0  0  0  0  0
    7.5670   -0.1856    0.5674 H   0  0  0  0  0  0  0  0  0  0  0  0
   -4.4308    0.2887   -0.8970 H   0  0  0  0  0  0  0  0  0  0  0  0
   -6.2583   -1.8648    0.1787 H   0  0  0  0  0  0  0  0  0  0  0  0
   -5.6874   -1.6887   -1.4650 H   0  0  0  0  0  0  0  0  0  0  0  0
   -4.2085    1.1063    1.4620 H   0  0  0  0  0  0  0  0  0  0  0  0
   -5.3288   -0.1202    2.0044 H   0  0  0  0  0  0  0  0  0  0  0  0
   -6.8630    0.4582   -1.7214 H   0  0  0  0  0  0  0  0  0  0  0  0
   -7.9978   -0.7675   -1.1612 H   0  0  0  0  0  0  0  0  0  0  0  0
   -6.5123    2.0151    1.7511 H   0  0  0  0  0  0  0  0  0  0  0  0
   -5.9352    2.1941    0.0958 H   0  0  0  0  0  0  0  0  0  0  0  0
   -8.2551    1.3993    0.0642 H   0  0  0  0  0  0  0  0  0  0  0  0
   -7.8608    0.0616    1.1412 H   0  0  0  0  0  0  0  0  0  0  0  0
    6.0604    0.9058    2.8429 H   0  0  0  0  0  0  0  0  0  0  0  0
    6.5129    1.8673    1.4207 H   0  0  0  0  0  0  0  0  0  0  0  0
    4.8242    1.7984    1.9660 H   0  0  0  0  0  0  0  0  0  0  0  0
   -1.5670   -2.6993    0.8454 H   0  0  0  0  0  0  0  0  0  0  0  0
    0.7461   -1.9120    0.5371 H   0  0  0  0  0  0  0  0  0  0  0  0
   -0.8749    1.8206   -0.9053 H   0  0  0  0  0  0  0  0  0  0  0  0
  1 11  1  0  0  0  0
  1 19  1  0  0  0  0
  2  5  1  0  0  0  0
  2 17  1  0  0  0  0
  3  7  1  0  0  0  0
  3 10  1  0  0  0  0
  3 18  1  0  0  0  0
  4 17  2  0  0  0  0
  4 20  1  0  0  0  0
  5 20  2  0  0  0  0
  6 19  2  0  0  0  0
  6 24  1  0  0  0  0
  7  8  1  0  0  0  0
  7 17  1  0  0  0  0
  7 25  1  0  0  0  0
  8  9  1  0  0  0  0
  8 26  1  0  0  0  0
  8 27  1  0  0  0  0
  9 10  1  0  0  0  0
  9 28  1  0  0  0  0
  9 29  1  0  0  0  0
 10 30  1  0  0  0  0
 10 31  1  0  0  0  0
 11 12  1  0  0  0  0
 11 13  1  0  0  0  0
 11 32  1  0  0  0  0
 12 14  1  0  0  0  0
 12 33  1  0  0  0  0
 12 34  1  0  0  0  0
 13 15  1  0  0  0  0
 13 35  1  0  0  0  0
 13 36  1  0  0  0  0
 14 16  1  0  0  0  0
 14 37  1  0  0  0  0
 14 38  1  0  0  0  0
 15 16  1  0  0  0  0
 15 39  1  0  0  0  0
 15 40  1  0  0  0  0
 16 41  1  0  0  0  0
 16 42  1  0  0  0  0
 18 43  1  0  0  0  0
 18 44  1  0  0  0  0
 18 45  1  0  0  0  0
 19 22  1  0  0  0  0
 20 21  1  0  0  0  0
 21 23  1  0  0  0  0
 21 24  2  0  0  0  0
 22 23  2  0  0  0  0
 22 46  1  0  0  0  0
 23 47  1  0  0  0  0
 24 48  1  0  0  0  0
M  END
> <PUBCHEM_COMPOUND_CID>
45783582

> <PUBCHEM_CONFORMER_RMSD>
0.8

> <PUBCHEM_CONFORMER_DIVERSEORDER>
1
36
101
97
16
87
55
48
89
81
20
57
72
80
93
103
43
79
12
37
85
2
34
104
96
75
38
64
24
47
105
68
35
65
71
44
4
69
15
90
67
45
56
82
98
59
70
53
94
23
92
46
54
13
5
102
95
31
99
62
74
27
33
100
19
3
22
91
18
49
77
50
21
66
30
88
26
60
84
11
58
14
61
17
28
86
76
39
25
32
83
42
41
29
7
73
40
78
10
51
52
9
63
8
6

> <PUBCHEM_MMFF94_PARTIAL_CHARGES>
20
1 -0.36
10 0.27
11 0.28
17 0.3
18 0.27
19 0.39
2 -0.02
20 0.46
21 0.05
22 -0.15
23 -0.15
24 0.16
3 -0.81
4 -0.57
46 0.15
47 0.15
48 0.15
5 -0.41
6 -0.62
7 0.45

> <PUBCHEM_EFFECTIVE_ROTOR_COUNT>
6.2

> <PUBCHEM_PHARMACOPHORE_FEATURES>
6
1 3 cation
3 4 5 20 cation
5 2 4 5 17 20 rings
5 3 7 8 9 10 rings
6 11 12 13 14 15 16 rings
6 6 19 21 22 23 24 rings

> <PUBCHEM_HEAVY_ATOM_COUNT>
24

> <PUBCHEM_ATOM_DEF_STEREO_COUNT>
1

> <PUBCHEM_ATOM_UDEF_STEREO_COUNT>
0

> <PUBCHEM_BOND_DEF_STEREO_COUNT>
0

> <PUBCHEM_BOND_UDEF_STEREO_COUNT>
0

> <PUBCHEM_ISOTOPIC_ATOM_COUNT>
0

> <PUBCHEM_COMPONENT_COUNT>
1

> <PUBCHEM_CACTVS_TAUTO_COUNT>
1

> <PUBCHEM_CONFORMER_ID>
02BA9A1E00000001

> <PUBCHEM_MMFF94_ENERGY>
42.4338

> <PUBCHEM_FEATURE_SELFOVERLAP>
30.449

> <PUBCHEM_SHAPE_FINGERPRINT>
10 15 15410889674163428554
10299344 5 12396299253376737889
10554248 39 18260264195851635574
11089746 13 18341895208179877233
11315181 36 16630527341674236763
11719270 70 17917714586739947430
12236239 1 18272652359318520599
125118 31 16774082860023161873
12730499 353 8574438634123678940
13533116 47 18060423482965406942
13862211 1 18260546731664187910
13914758 101 18273217465398233321
14216079 64 18337110056546511774
14251758 9 18186806893457320019
14251764 18 18409732872263759172
14347424 109 18411695500835980592
14856354 85 13912613758159232931
15131766 46 16413203477986866552
15183329 4 18259705596689586671
15461852 350 17346599715825924701
1577012 14 18337399334913965837
18335252 98 12179850498250138880
19489759 90 17703794717516223299
20157964 124 16343988005378285798
20281389 69 18412263934924672433
20567600 234 15554445219447650096
21049683 271 11023815193804427931
21130935 74 18342457058247663650
21150785 3 14764342735254593401
21267235 1 17968097487301568874
21344244 181 12179839464627680712
21521721 280 9079107869422527422
21774942 28 16987729995694024017
21859007 373 17969201408991028669
220451 1 10881395448505455669
22224240 67 11743833651828232886
23035841 295 12107783012818203569
23081809 10 18261960755468241661
23402539 116 18273496784480800285
23424782 7 11025810798591448905
23522609 53 17751107792974860988
23536379 177 17632580439848065375
23559900 14 18189616205769689628
23569917 315 18335989748524104011
23569943 247 18194685856613217194
2838139 119 18411983564292613917
28498 318 18113334180768040606
29717793 49 18411986870857847340
3004659 81 17821731646147054278
3009799 131 16056882420826178195
328311 84 17676493856409380867
335352 9 18260832613298625486
4073 2 18042129928339528890
4340502 62 15698004033033055612
5104073 3 17969788668511690000
5207 217 12679459794144689053
59755656 215 17822008679278806599
59755656 520 17530964713855869883
8988823 20 17632856443558517946
9965369 4 18410014321312287025

> <PUBCHEM_SHAPE_MULTIPOLES>
462.25
21.8
1.6
1.13
8.01
0
0.17
0.06
2.78
-0.46
0.07
-1
-0.27
-0.15

> <PUBCHEM_SHAPE_SELFOVERLAP>
986.29

> <PUBCHEM_SHAPE_VOLUME>
256.3

> <PUBCHEM_COORDINATE_TYPE>
2
5
10

$$$$
