40777334
  -OEChem-12032416173D

 61 63  0     1  0  0  0  0  0999 V2000
    3.8744    0.3923   -1.4839 O   0  0  0  0  0  0  0  0  0  0  0  0
   -3.6527   -1.5335    0.4439 O   0  0  0  0  0  0  0  0  0  0  0  0
    2.5111   -3.9446    1.0838 N   0  0  0  0  0  0  0  0  0  0  0  0
    1.8658    1.3434   -0.8045 N   0  0  0  0  0  0  0  0  0  0  0  0
   -2.7201   -2.5393    0.2209 N   0  0  0  0  0  0  0  0  0  0  0  0
    1.3651   -1.3889    0.1557 C   0  0  1  0  0  0  0  0  0  0  0  0
    0.5599   -2.7101    0.1702 C   0  0  2  0  0  0  0  0  0  0  0  0
    2.4931   -1.4771    1.1974 C   0  0  0  0  0  0  0  0  0  0  0  0
    1.4790   -3.9370    0.0463 C   0  0  0  0  0  0  0  0  0  0  0  0
    1.9231   -1.0136   -1.2222 C   0  0  0  0  0  0  0  0  0  0  0  0
   -0.5399   -2.7533   -0.8915 C   0  0  0  0  0  0  0  0  0  0  0  0
    3.3377   -2.7404    1.0369 C   0  0  0  0  0  0  0  0  0  0  0  0
    2.3309    2.7079   -0.6893 C   0  0  0  0  0  0  0  0  0  0  0  0
    1.2143    3.7008   -1.0293 C   0  0  0  0  0  0  0  0  0  0  0  0
    2.9085    2.9773    0.7041 C   0  0  0  0  0  0  0  0  0  0  0  0
    2.6848    0.2943   -1.1953 C   0  0  0  0  0  0  0  0  0  0  0  0
    0.1363    3.7617    0.0529 C   0  0  0  0  0  0  0  0  0  0  0  0
    1.8276    3.0393    1.7834 C   0  0  0  0  0  0  0  0  0  0  0  0
    0.7341    4.0419    1.4282 C   0  0  0  0  0  0  0  0  0  0  0  0
   -1.7384   -1.9533   -0.4705 C   0  0  0  0  0  0  0  0  0  0  0  0
   -1.9939   -0.5921   -0.7109 C   0  0  0  0  0  0  0  0  0  0  0  0
   -4.0788    0.7948    0.0270 C   0  0  0  0  0  0  0  0  0  0  0  0
   -3.2091   -0.3789   -0.1157 C   0  0  0  0  0  0  0  0  0  0  0  0
   -3.9306    1.7880   -1.1784 C   0  0  0  0  0  0  0  0  0  0  0  0
   -3.7568    1.6127    1.3266 C   0  0  0  0  0  0  0  0  0  0  0  0
   -5.6251    0.5076    0.1144 C   0  0  0  0  0  0  0  0  0  0  0  0
    0.6914   -0.5934    0.4957 H   0  0  0  0  0  0  0  0  0  0  0  0
    0.0836   -2.7834    1.1608 H   0  0  0  0  0  0  0  0  0  0  0  0
    2.0393   -1.4871    2.1983 H   0  0  0  0  0  0  0  0  0  0  0  0
    3.1404   -0.5941    1.1784 H   0  0  0  0  0  0  0  0  0  0  0  0
    0.8837   -4.8508    0.1572 H   0  0  0  0  0  0  0  0  0  0  0  0
    1.9420   -3.9821   -0.9469 H   0  0  0  0  0  0  0  0  0  0  0  0
    1.1229   -0.8769   -1.9565 H   0  0  0  0  0  0  0  0  0  0  0  0
    2.5893   -1.7878   -1.6167 H   0  0  0  0  0  0  0  0  0  0  0  0
   -0.8741   -3.7928   -1.0203 H   0  0  0  0  0  0  0  0  0  0  0  0
   -0.2014   -2.4476   -1.8847 H   0  0  0  0  0  0  0  0  0  0  0  0
    3.9134   -2.7092    0.1047 H   0  0  0  0  0  0  0  0  0  0  0  0
    4.0658   -2.7855    1.8546 H   0  0  0  0  0  0  0  0  0  0  0  0
    3.1370    2.8374   -1.4222 H   0  0  0  0  0  0  0  0  0  0  0  0
    3.1036   -4.7656    0.9637 H   0  0  0  0  0  0  0  0  0  0  0  0
    0.7512    3.4392   -1.9884 H   0  0  0  0  0  0  0  0  0  0  0  0
    1.6505    4.7007   -1.1487 H   0  0  0  0  0  0  0  0  0  0  0  0
    3.4440    3.9352    0.6878 H   0  0  0  0  0  0  0  0  0  0  0  0
    3.6437    2.2089    0.9716 H   0  0  0  0  0  0  0  0  0  0  0  0
   -0.4232    2.8192    0.0810 H   0  0  0  0  0  0  0  0  0  0  0  0
   -0.5872    4.5463   -0.1974 H   0  0  0  0  0  0  0  0  0  0  0  0
    2.2820    3.3158    2.7416 H   0  0  0  0  0  0  0  0  0  0  0  0
    1.3833    2.0455    1.9186 H   0  0  0  0  0  0  0  0  0  0  0  0
    1.1513    5.0564    1.4440 H   0  0  0  0  0  0  0  0  0  0  0  0
   -0.0561    4.0102    2.1869 H   0  0  0  0  0  0  0  0  0  0  0  0
    0.8918    1.1584   -0.5889 H   0  0  0  0  0  0  0  0  0  0  0  0
   -1.3822    0.1253   -1.2377 H   0  0  0  0  0  0  0  0  0  0  0  0
   -4.5888    2.6573   -1.0676 H   0  0  0  0  0  0  0  0  0  0  0  0
   -2.9030    2.1614   -1.2573 H   0  0  0  0  0  0  0  0  0  0  0  0
   -4.1793    1.2918   -2.1238 H   0  0  0  0  0  0  0  0  0  0  0  0
   -4.3907    2.5022    1.4134 H   0  0  0  0  0  0  0  0  0  0  0  0
   -3.9073    0.9956    2.2200 H   0  0  0  0  0  0  0  0  0  0  0  0
   -2.7112    1.9420    1.3267 H   0  0  0  0  0  0  0  0  0  0  0  0
   -6.2080    1.4321    0.1934 H   0  0  0  0  0  0  0  0  0  0  0  0
   -5.9629   -0.0358   -0.7755 H   0  0  0  0  0  0  0  0  0  0  0  0
   -5.8565   -0.1136    0.9873 H   0  0  0  0  0  0  0  0  0  0  0  0
  1 16  2  0  0  0  0
  2  5  1  0  0  0  0
  2 23  1  0  0  0  0
  3  9  1  0  0  0  0
  3 12  1  0  0  0  0
  3 40  1  0  0  0  0
  4 13  1  0  0  0  0
  4 16  1  0  0  0  0
  4 51  1  0  0  0  0
  5 20  2  0  0  0  0
  6  7  1  0  0  0  0
  6  8  1  0  0  0  0
  6 10  1  0  0  0  0
  6 27  1  0  0  0  0
  7  9  1  0  0  0  0
  7 11  1  0  0  0  0
  7 28  1  0  0  0  0
  8 12  1  0  0  0  0
  8 29  1  0  0  0  0
  8 30  1  0  0  0  0
  9 31  1  0  0  0  0
  9 32  1  0  0  0  0
 10 16  1  0  0  0  0
 10 33  1  0  0  0  0
 10 34  1  0  0  0  0
 11 20  1  0  0  0  0
 11 35  1  0  0  0  0
 11 36  1  0  0  0  0
 12 37  1  0  0  0  0
 12 38  1  0  0  0  0
 13 14  1  0  0  0  0
 13 15  1  0  0  0  0
 13 39  1  0  0  0  0
 14 17  1  0  0  0  0
 14 41  1  0  0  0  0
 14 42  1  0  0  0  0
 15 18  1  0  0  0  0
 15 43  1  0  0  0  0
 15 44  1  0  0  0  0
 17 19  1  0  0  0  0
 17 45  1  0  0  0  0
 17 46  1  0  0  0  0
 18 19  1  0  0  0  0
 18 47  1  0  0  0  0
 18 48  1  0  0  0  0
 19 49  1  0  0  0  0
 19 50  1  0  0  0  0
 20 21  1  0  0  0  0
 21 23  2  0  0  0  0
 21 52  1  0  0  0  0
 22 23  1  0  0  0  0
 22 24  1  0  0  0  0
 22 25  1  0  0  0  0
 22 26  1  0  0  0  0
 24 53  1  0  0  0  0
 24 54  1  0  0  0  0
 24 55  1  0  0  0  0
 25 56  1  0  0  0  0
 25 57  1  0  0  0  0
 25 58  1  0  0  0  0
 26 59  1  0  0  0  0
 26 60  1  0  0  0  0
 26 61  1  0  0  0  0
M  END
> <PUBCHEM_COMPOUND_CID>
40777334

> <PUBCHEM_CONFORMER_RMSD>
1.2

> <PUBCHEM_CONFORMER_DIVERSEORDER>
3
26
77
61
70
45
94
86
91
22
69
60
1
98
18
17
41
43
85
64
78
59
72
80
46
65
87
90
76
73
55
48
52
10
44
9
74
28
42
34
99
25
95
68
66
79
88
57
56
50
33
5
92
35
51
71
8
12
24
49
4
14
6
20
97
31
75
67
39
54
36
84
13
27
62
19
96
82
53
47
2
37
11
93
63
89
16
21
38
40
30
32
23
83
81
29
7
15
58

> <PUBCHEM_MMFF94_PARTIAL_CHARGES>
18
1 -0.57
10 0.06
11 0.18
12 0.27
13 0.3
16 0.57
2 -0.02
20 0.11
21 -0.15
22 0.18
23 -0.04
3 -0.9
4 -0.73
40 0.36
5 -0.41
51 0.37
52 0.15
9 0.27

> <PUBCHEM_EFFECTIVE_ROTOR_COUNT>
9.4

> <PUBCHEM_PHARMACOPHORE_FEATURES>
9
1 1 acceptor
1 3 cation
1 3 donor
1 4 donor
1 5 acceptor
4 22 24 25 26 hydrophobe
5 2 5 20 21 23 rings
6 13 14 15 17 18 19 rings
6 3 6 7 8 9 12 rings

> <PUBCHEM_HEAVY_ATOM_COUNT>
26

> <PUBCHEM_ATOM_DEF_STEREO_COUNT>
2

> <PUBCHEM_ATOM_UDEF_STEREO_COUNT>
0

> <PUBCHEM_BOND_DEF_STEREO_COUNT>
0

> <PUBCHEM_BOND_UDEF_STEREO_COUNT>
0

> <PUBCHEM_ISOTOPIC_ATOM_COUNT>
0

> <PUBCHEM_COMPONENT_COUNT>
1

> <PUBCHEM_CACTVS_TAUTO_COUNT>
2

> <PUBCHEM_CONFORMER_ID>
026E367600000003

> <PUBCHEM_MMFF94_ENERGY>
32.9823

> <PUBCHEM_FEATURE_SELFOVERLAP>
45.671

> <PUBCHEM_SHAPE_FINGERPRINT>
10074138 170 16602069488955102722
11221954 11 17477211995090817468
12156800 1 16818510598891922881
12166972 35 18199177400530371659
12553582 1 18124606288187423853
12788726 201 17981331092782884030
13122387 1 18267870480154789961
13140716 1 18338794614805304549
13878862 14 18115568376322858301
14466204 15 18336542815629883792
14725015 67 17405694256909209689
14955137 171 18408039598656505810
17980427 23 17986363703321736326
20600515 1 17916856911745620562
21041028 32 18047466721304526534
21344244 78 18193543485416383235
21864079 5 18341614883906463327
23558518 356 17907855459188789510
35225 105 16014651527543458538
392239 28 17687474880657356555
5252454 2 18334862761519965725
539174 4 16744188427976294976
57091435 65 18408601439964259712
60111433 81 17703208660180997113
84936 182 18338801237940501466

> <PUBCHEM_SHAPE_MULTIPOLES>
508.39
7.92
6.41
1.43
10.44
2.17
-0.12
-0.24
-0.37
-5.22
-1.57
-0.78
0.71
-0.72

> <PUBCHEM_SHAPE_SELFOVERLAP>
1039.325

> <PUBCHEM_SHAPE_VOLUME>
293.2

> <PUBCHEM_COORDINATE_TYPE>
2
5
10

$$$$
