51138093
  -OEChem-12032416323D

 63 66  0     1  0  0  0  0  0999 V2000
   -3.2930    2.4372   -1.4218 O   0  0  0  0  0  0  0  0  0  0  0  0
   -2.2067   -0.3078   -0.5438 N   0  0  0  0  0  0  0  0  0  0  0  0
    2.5677    0.8634    0.6130 N   0  0  0  0  0  0  0  0  0  0  0  0
   -4.3942    1.6007    0.4509 N   0  0  0  0  0  0  0  0  0  0  0  0
    6.2320    0.6697   -0.1247 N   0  0  0  0  0  0  0  0  0  0  0  0
    4.4916    0.2231   -1.4296 N   0  0  0  0  0  0  0  0  0  0  0  0
   -1.7149   -1.4157    0.2862 C   0  0  2  0  0  0  0  0  0  0  0  0
   -0.2199   -1.3895    0.6201 C   0  0  0  0  0  0  0  0  0  0  0  0
   -2.1058    1.0065    0.0744 C   0  0  1  0  0  0  0  0  0  0  0  0
    0.6293   -0.2525    0.4924 C   0  0  0  0  0  0  0  0  0  0  0  0
    0.4232    1.1076    0.0733 C   0  0  0  0  0  0  0  0  0  0  0  0
   -0.8478    1.7447   -0.3791 C   0  0  0  0  0  0  0  0  0  0  0  0
   -2.1266   -2.6870   -0.4779 C   0  0  0  0  0  0  0  0  0  0  0  0
    1.9797   -0.3575    0.8454 C   0  0  0  0  0  0  0  0  0  0  0  0
   -3.6152   -3.0174   -0.3313 C   0  0  0  0  0  0  0  0  0  0  0  0
    1.6409    1.7524    0.1547 C   0  0  0  0  0  0  0  0  0  0  0  0
    0.3722   -2.5532    1.1737 C   0  0  0  0  0  0  0  0  0  0  0  0
   -3.3129    1.7570   -0.3994 C   0  0  0  0  0  0  0  0  0  0  0  0
    2.5549   -1.5269    1.3454 C   0  0  0  0  0  0  0  0  0  0  0  0
    3.9615    1.1835    0.8358 C   0  0  0  0  0  0  0  0  0  0  0  0
    1.7210   -2.6244    1.5165 C   0  0  0  0  0  0  0  0  0  0  0  0
   -3.9183   -4.3208   -1.0741 C   0  0  0  0  0  0  0  0  0  0  0  0
   -4.5207   -1.9017   -0.8548 C   0  0  0  0  0  0  0  0  0  0  0  0
    4.8716    0.6852   -0.2590 C   0  0  0  0  0  0  0  0  0  0  0  0
   -5.6716    2.2395    0.2310 C   0  0  0  0  0  0  0  0  0  0  0  0
   -6.3435    2.5517    1.5619 C   0  0  0  0  0  0  0  0  0  0  0  0
   -6.5618    1.3673   -0.6455 C   0  0  0  0  0  0  0  0  0  0  0  0
    6.7526    0.1655   -1.2832 C   0  0  0  0  0  0  0  0  0  0  0  0
    6.9954    1.1021    1.0222 C   0  0  0  0  0  0  0  0  0  0  0  0
    5.6593   -0.1026   -2.0728 C   0  0  0  0  0  0  0  0  0  0  0  0
   -2.2433   -1.4020    1.2494 H   0  0  0  0  0  0  0  0  0  0  0  0
   -2.1316    0.9480    1.1708 H   0  0  0  0  0  0  0  0  0  0  0  0
   -0.8135    1.8285   -1.4745 H   0  0  0  0  0  0  0  0  0  0  0  0
   -0.8823    2.7751    0.0012 H   0  0  0  0  0  0  0  0  0  0  0  0
   -1.8558   -2.6014   -1.5408 H   0  0  0  0  0  0  0  0  0  0  0  0
   -1.5804   -3.5686   -0.1305 H   0  0  0  0  0  0  0  0  0  0  0  0
   -1.7655   -0.3177   -1.4627 H   0  0  0  0  0  0  0  0  0  0  0  0
   -3.8453   -3.1791    0.7295 H   0  0  0  0  0  0  0  0  0  0  0  0
    1.9103    2.7745   -0.0775 H   0  0  0  0  0  0  0  0  0  0  0  0
   -0.2300   -3.4344    1.3825 H   0  0  0  0  0  0  0  0  0  0  0  0
    3.6039   -1.5851    1.6147 H   0  0  0  0  0  0  0  0  0  0  0  0
    4.0499    2.2736    0.9130 H   0  0  0  0  0  0  0  0  0  0  0  0
    4.2451    0.7627    1.8069 H   0  0  0  0  0  0  0  0  0  0  0  0
    2.1225   -3.5449    1.9319 H   0  0  0  0  0  0  0  0  0  0  0  0
   -3.7234   -4.2220   -2.1476 H   0  0  0  0  0  0  0  0  0  0  0  0
   -4.9678   -4.6071   -0.9462 H   0  0  0  0  0  0  0  0  0  0  0  0
   -3.3035   -5.1423   -0.6911 H   0  0  0  0  0  0  0  0  0  0  0  0
   -4.2153   -1.5506   -1.8457 H   0  0  0  0  0  0  0  0  0  0  0  0
   -4.5643   -1.0657   -0.1555 H   0  0  0  0  0  0  0  0  0  0  0  0
   -5.5526   -2.2616   -0.9457 H   0  0  0  0  0  0  0  0  0  0  0  0
   -4.3160    0.9597    1.2355 H   0  0  0  0  0  0  0  0  0  0  0  0
   -5.4912    3.1840   -0.2964 H   0  0  0  0  0  0  0  0  0  0  0  0
   -6.5394    1.6376    2.1336 H   0  0  0  0  0  0  0  0  0  0  0  0
   -5.7047    3.1945    2.1775 H   0  0  0  0  0  0  0  0  0  0  0  0
   -7.2963    3.0686    1.4079 H   0  0  0  0  0  0  0  0  0  0  0  0
   -6.7696    0.4042   -0.1661 H   0  0  0  0  0  0  0  0  0  0  0  0
   -6.0821    1.1591   -1.6081 H   0  0  0  0  0  0  0  0  0  0  0  0
   -7.5184    1.8613   -0.8449 H   0  0  0  0  0  0  0  0  0  0  0  0
    7.8148    0.0437   -1.4435 H   0  0  0  0  0  0  0  0  0  0  0  0
    6.7155    2.1313    1.2604 H   0  0  0  0  0  0  0  0  0  0  0  0
    6.7698    0.4351    1.8579 H   0  0  0  0  0  0  0  0  0  0  0  0
    8.0621    1.0563    0.7883 H   0  0  0  0  0  0  0  0  0  0  0  0
    5.6536   -0.5138   -3.0716 H   0  0  0  0  0  0  0  0  0  0  0  0
  1 18  2  0  0  0  0
  2  7  1  0  0  0  0
  2  9  1  0  0  0  0
  2 37  1  0  0  0  0
  3 14  1  0  0  0  0
  3 16  1  0  0  0  0
  3 20  1  0  0  0  0
  4 18  1  0  0  0  0
  4 25  1  0  0  0  0
  4 51  1  0  0  0  0
  5 24  1  0  0  0  0
  5 28  1  0  0  0  0
  5 29  1  0  0  0  0
  6 24  2  0  0  0  0
  6 30  1  0  0  0  0
  7  8  1  0  0  0  0
  7 13  1  0  0  0  0
  7 31  1  0  0  0  0
  8 10  2  0  0  0  0
  8 17  1  0  0  0  0
  9 12  1  0  0  0  0
  9 18  1  0  0  0  0
  9 32  1  0  0  0  0
 10 11  1  0  0  0  0
 10 14  1  0  0  0  0
 11 12  1  0  0  0  0
 11 16  2  0  0  0  0
 12 33  1  0  0  0  0
 12 34  1  0  0  0  0
 13 15  1  0  0  0  0
 13 35  1  0  0  0  0
 13 36  1  0  0  0  0
 14 19  2  0  0  0  0
 15 22  1  0  0  0  0
 15 23  1  0  0  0  0
 15 38  1  0  0  0  0
 16 39  1  0  0  0  0
 17 21  2  0  0  0  0
 17 40  1  0  0  0  0
 19 21  1  0  0  0  0
 19 41  1  0  0  0  0
 20 24  1  0  0  0  0
 20 42  1  0  0  0  0
 20 43  1  0  0  0  0
 21 44  1  0  0  0  0
 22 45  1  0  0  0  0
 22 46  1  0  0  0  0
 22 47  1  0  0  0  0
 23 48  1  0  0  0  0
 23 49  1  0  0  0  0
 23 50  1  0  0  0  0
 25 26  1  0  0  0  0
 25 27  1  0  0  0  0
 25 52  1  0  0  0  0
 26 53  1  0  0  0  0
 26 54  1  0  0  0  0
 26 55  1  0  0  0  0
 27 56  1  0  0  0  0
 27 57  1  0  0  0  0
 27 58  1  0  0  0  0
 28 30  2  0  0  0  0
 28 59  1  0  0  0  0
 29 60  1  0  0  0  0
 29 61  1  0  0  0  0
 29 62  1  0  0  0  0
 30 63  1  0  0  0  0
M  END
> <PUBCHEM_COMPOUND_CID>
51138093

> <PUBCHEM_CONFORMER_RMSD>
1

> <PUBCHEM_CONFORMER_DIVERSEORDER>
1
123
88
70
68
124
46
111
84
120
40
99
29
75
51
9
87
106
63
116
35
73
121
114
89
30
61
41
19
7
14
127
85
119
91
118
45
18
107
104
4
82
26
21
38
83
122
39
74
108
48
109
3
77
110
81
92
126
71
6
67
44
113
100
117
58
34
96
103
125
10
12
112
5
97
24
65
53
78
86
8
128
94
95
17
62
16
57
66
52
115
15
28
93
101
27
64
56
2
11
80
105
69
20
59
25
72
90
76
98
43
47
49
60
37
31
22
102
55
23
33
36
42
79
50
32
54
13

> <PUBCHEM_MMFF94_PARTIAL_CHARGES>
31
1 -0.57
11 -0.18
12 0.18
14 -0.15
16 -0.3
17 -0.15
18 0.57
19 -0.15
2 -0.9
20 0.44
21 -0.15
24 0.01
25 0.3
28 -0.3
29 0.26
3 0.05
30 0.08
37 0.36
39 0.15
4 -0.73
40 0.15
41 0.15
44 0.15
5 0.05
51 0.37
59 0.15
6 -0.57
63 0.15
7 0.41
8 -0.14
9 0.33

> <PUBCHEM_EFFECTIVE_ROTOR_COUNT>
7.8

> <PUBCHEM_PHARMACOPHORE_FEATURES>
12
1 1 acceptor
1 2 cation
1 2 donor
1 3 cation
1 4 donor
3 15 22 23 hydrophobe
3 25 26 27 hydrophobe
3 5 6 24 cation
5 3 10 11 14 16 rings
5 5 6 24 28 30 rings
6 8 10 14 17 19 21 rings
7 2 7 8 9 10 11 12 rings

> <PUBCHEM_HEAVY_ATOM_COUNT>
30

> <PUBCHEM_ATOM_DEF_STEREO_COUNT>
2

> <PUBCHEM_ATOM_UDEF_STEREO_COUNT>
0

> <PUBCHEM_BOND_DEF_STEREO_COUNT>
0

> <PUBCHEM_BOND_UDEF_STEREO_COUNT>
0

> <PUBCHEM_ISOTOPIC_ATOM_COUNT>
0

> <PUBCHEM_COMPONENT_COUNT>
1

> <PUBCHEM_CACTVS_TAUTO_COUNT>
2

> <PUBCHEM_CONFORMER_ID>
030C4E2D00000001

> <PUBCHEM_MMFF94_ENERGY>
57.1526

> <PUBCHEM_FEATURE_SELFOVERLAP>
61.028

> <PUBCHEM_SHAPE_FINGERPRINT>
10165383 225 18336267855807967977
10190108 129 18188788265705041587
10674148 151 17631458869569281848
12390115 104 18413111645773538491
12954195 1 18342178894505673519
13540713 5 18189032262021972499
13911987 19 18265039251231360493
14294032 229 18114457864619952220
14790565 3 18052261687123416177
14840074 17 18186802436062228989
14856354 85 17241064192157007899
15131766 46 15142682577253178150
15183329 4 17916874521638963300
15629462 23 17060072392896541969
1577012 14 17821730555447017356
15927050 60 18341612577852176543
16087824 20 18408595960883715733
16752209 62 18188206619763787458
19319366 153 17968376728046505843
21236236 1 18337668714914253843
22393880 68 18340480153514763242
23559900 14 18131345336614475384
25147074 1 18114729478414768898
350125 39 18335695057646913723
3610482 184 17969241047855464172
4073 2 18201439203338472996
46194498 28 17915181441504912324
5171179 24 18055912353580093057
5252454 2 18335130952057451153
563151 40 18335428958495354635
59755656 215 18343303651919307431
59755656 520 18342178830545478733
6669772 16 18268997496431435254

> <PUBCHEM_SHAPE_MULTIPOLES>
586.61
16.27
3.88
1.43
9.3
3.35
0.15
-9.18
3.31
-7.62
0.04
1.11
0.22
-1.59

> <PUBCHEM_SHAPE_SELFOVERLAP>
1251.823

> <PUBCHEM_SHAPE_VOLUME>
327.1

> <PUBCHEM_COORDINATE_TYPE>
2
5
10

$$$$
