7049409
  -OEChem-12032416123D

 71 73  0     1  0  0  0  0  0999 V2000
    0.9682   -0.9754   -0.9405 O   0  0  0  0  0  0  0  0  0  0  0  0
    3.9423   -0.8899   -0.2029 O   0  0  0  0  0  0  0  0  0  0  0  0
   -2.3398    1.8969    2.4956 O   0  0  0  0  0  0  0  0  0  0  0  0
   -0.8896   -5.3972   -1.3694 O   0  0  0  0  0  0  0  0  0  0  0  0
    0.6884   -5.1276    0.2801 O   0  0  0  0  0  0  0  0  0  0  0  0
    2.3385    0.3794    0.8644 N   0  0  0  0  0  0  0  0  0  0  0  0
   -0.6535    1.4453    0.9666 N   0  0  0  0  0  0  0  0  0  0  0  0
   -2.7941    1.8415    0.2194 N   0  0  0  0  0  0  0  0  0  0  0  0
    0.0832   -2.4767    0.6036 N   0  0  0  0  0  0  0  0  0  0  0  0
    4.5436    1.8328   -1.4701 N   0  0  0  0  0  0  0  0  0  0  0  0
    0.4114    1.2870    1.9245 C   0  0  1  0  0  0  0  0  0  0  0  0
    1.5742   -0.7570    1.3585 C   0  0  1  0  0  0  0  0  0  0  0  0
    0.5888   -0.1683    2.3663 C   0  0  0  0  0  0  0  0  0  0  0  0
    1.7671    1.6468    1.3260 C   0  0  0  0  0  0  0  0  0  0  0  0
   -4.2060    2.1414    0.3072 C   0  0  0  0  0  0  0  0  0  0  0  0
   -4.9864    1.4537   -0.8182 C   0  0  0  0  0  0  0  0  0  0  0  0
   -4.4489    3.6544    0.3074 C   0  0  0  0  0  0  0  0  0  0  0  0
    0.8613   -1.4004    0.2069 C   0  0  0  0  0  0  0  0  0  0  0  0
   -4.7279    2.0913   -2.1834 C   0  0  0  0  0  0  0  0  0  0  0  0
   -4.1913    4.2882   -1.0596 C   0  0  0  0  0  0  0  0  0  0  0  0
   -4.9870    3.5944   -2.1610 C   0  0  0  0  0  0  0  0  0  0  0  0
    3.5287    0.2153    0.1499 C   0  0  0  0  0  0  0  0  0  0  0  0
   -1.9654    1.7428    1.3338 C   0  0  0  0  0  0  0  0  0  0  0  0
   -0.7197   -3.2516   -0.3097 C   0  0  2  0  0  0  0  0  0  0  0  0
    4.2538    1.4323   -0.1920 C   0  0  0  0  0  0  0  0  0  0  0  0
   -2.2227   -3.2071    0.0418 C   0  0  0  0  0  0  0  0  0  0  0  0
    4.7674    2.3740    0.6720 C   0  0  0  0  0  0  0  0  0  0  0  0
   -0.2186   -4.6875   -0.4190 C   0  0  0  0  0  0  0  0  0  0  0  0
   -2.7833   -1.7832    0.1241 C   0  0  0  0  0  0  0  0  0  0  0  0
   -2.5102   -3.9580    1.3454 C   0  0  0  0  0  0  0  0  0  0  0  0
    5.2338    3.0163   -1.4351 C   0  0  0  0  0  0  0  0  0  0  0  0
    5.3876    3.3761   -0.1145 C   0  0  0  0  0  0  0  0  0  0  0  0
    4.1835    1.1280   -2.6809 C   0  0  0  0  0  0  0  0  0  0  0  0
   -0.4774   -6.7577   -1.5371 C   0  0  0  0  0  0  0  0  0  0  0  0
    0.1860    1.9290    2.7834 H   0  0  0  0  0  0  0  0  0  0  0  0
    2.2470   -1.4929    1.8133 H   0  0  0  0  0  0  0  0  0  0  0  0
   -0.3608   -0.7037    2.4562 H   0  0  0  0  0  0  0  0  0  0  0  0
    1.0633   -0.1737    3.3563 H   0  0  0  0  0  0  0  0  0  0  0  0
    2.4222    2.0335    2.1133 H   0  0  0  0  0  0  0  0  0  0  0  0
    1.7170    2.3712    0.5073 H   0  0  0  0  0  0  0  0  0  0  0  0
   -4.5626    1.7396    1.2638 H   0  0  0  0  0  0  0  0  0  0  0  0
   -4.7354    0.3879   -0.8628 H   0  0  0  0  0  0  0  0  0  0  0  0
   -6.0595    1.5177   -0.5977 H   0  0  0  0  0  0  0  0  0  0  0  0
   -3.8195    4.1458    1.0590 H   0  0  0  0  0  0  0  0  0  0  0  0
   -5.4911    3.8469    0.5930 H   0  0  0  0  0  0  0  0  0  0  0  0
   -0.4568    1.2666   -0.0136 H   0  0  0  0  0  0  0  0  0  0  0  0
   -5.3748    1.6208   -2.9329 H   0  0  0  0  0  0  0  0  0  0  0  0
   -3.6951    1.9011   -2.4982 H   0  0  0  0  0  0  0  0  0  0  0  0
   -3.1211    4.2389   -1.2946 H   0  0  0  0  0  0  0  0  0  0  0  0
   -4.4593    5.3504   -1.0271 H   0  0  0  0  0  0  0  0  0  0  0  0
   -4.7272    4.0282   -3.1332 H   0  0  0  0  0  0  0  0  0  0  0  0
   -6.0577    3.7768   -2.0063 H   0  0  0  0  0  0  0  0  0  0  0  0
   -2.3666    1.7662   -0.6983 H   0  0  0  0  0  0  0  0  0  0  0  0
    0.1242   -2.7826    1.5714 H   0  0  0  0  0  0  0  0  0  0  0  0
   -0.5914   -2.8202   -1.3109 H   0  0  0  0  0  0  0  0  0  0  0  0
   -2.7755   -3.7233   -0.7546 H   0  0  0  0  0  0  0  0  0  0  0  0
    4.7221    2.3447    1.7519 H   0  0  0  0  0  0  0  0  0  0  0  0
   -3.8711   -1.8052    0.2488 H   0  0  0  0  0  0  0  0  0  0  0  0
   -2.5606   -1.2258   -0.7915 H   0  0  0  0  0  0  0  0  0  0  0  0
   -2.3636   -1.2354    0.9727 H   0  0  0  0  0  0  0  0  0  0  0  0
   -3.5834   -3.9400    1.5659 H   0  0  0  0  0  0  0  0  0  0  0  0
   -2.2140   -5.0097    1.2847 H   0  0  0  0  0  0  0  0  0  0  0  0
   -1.9925   -3.5049    2.1973 H   0  0  0  0  0  0  0  0  0  0  0  0
    5.5606    3.5044   -2.3434 H   0  0  0  0  0  0  0  0  0  0  0  0
    5.8949    4.2614    0.2421 H   0  0  0  0  0  0  0  0  0  0  0  0
    4.7768    0.2119   -2.7337 H   0  0  0  0  0  0  0  0  0  0  0  0
    3.1154    0.8981   -2.6474 H   0  0  0  0  0  0  0  0  0  0  0  0
    4.3945    1.7595   -3.5477 H   0  0  0  0  0  0  0  0  0  0  0  0
    0.5720   -6.8005   -1.8437 H   0  0  0  0  0  0  0  0  0  0  0  0
   -0.6334   -7.3171   -0.6098 H   0  0  0  0  0  0  0  0  0  0  0  0
   -1.0915   -7.2042   -2.3236 H   0  0  0  0  0  0  0  0  0  0  0  0
  1 18  2  0  0  0  0
  2 22  2  0  0  0  0
  3 23  2  0  0  0  0
  4 28  1  0  0  0  0
  4 34  1  0  0  0  0
  5 28  2  0  0  0  0
  6 12  1  0  0  0  0
  6 14  1  0  0  0  0
  6 22  1  0  0  0  0
  7 11  1  0  0  0  0
  7 23  1  0  0  0  0
  7 46  1  0  0  0  0
  8 15  1  0  0  0  0
  8 23  1  0  0  0  0
  8 53  1  0  0  0  0
  9 18  1  0  0  0  0
  9 24  1  0  0  0  0
  9 54  1  0  0  0  0
 10 25  1  0  0  0  0
 10 31  1  0  0  0  0
 10 33  1  0  0  0  0
 11 13  1  0  0  0  0
 11 14  1  0  0  0  0
 11 35  1  0  0  0  0
 12 13  1  0  0  0  0
 12 18  1  0  0  0  0
 12 36  1  0  0  0  0
 13 37  1  0  0  0  0
 13 38  1  0  0  0  0
 14 39  1  0  0  0  0
 14 40  1  0  0  0  0
 15 16  1  0  0  0  0
 15 17  1  0  0  0  0
 15 41  1  0  0  0  0
 16 19  1  0  0  0  0
 16 42  1  0  0  0  0
 16 43  1  0  0  0  0
 17 20  1  0  0  0  0
 17 44  1  0  0  0  0
 17 45  1  0  0  0  0
 19 21  1  0  0  0  0
 19 47  1  0  0  0  0
 19 48  1  0  0  0  0
 20 21  1  0  0  0  0
 20 49  1  0  0  0  0
 20 50  1  0  0  0  0
 21 51  1  0  0  0  0
 21 52  1  0  0  0  0
 22 25  1  0  0  0  0
 24 26  1  0  0  0  0
 24 28  1  0  0  0  0
 24 55  1  0  0  0  0
 25 27  2  0  0  0  0
 26 29  1  0  0  0  0
 26 30  1  0  0  0  0
 26 56  1  0  0  0  0
 27 32  1  0  0  0  0
 27 57  1  0  0  0  0
 29 58  1  0  0  0  0
 29 59  1  0  0  0  0
 29 60  1  0  0  0  0
 30 61  1  0  0  0  0
 30 62  1  0  0  0  0
 30 63  1  0  0  0  0
 31 32  2  0  0  0  0
 31 64  1  0  0  0  0
 32 65  1  0  0  0  0
 33 66  1  0  0  0  0
 33 67  1  0  0  0  0
 33 68  1  0  0  0  0
 34 69  1  0  0  0  0
 34 70  1  0  0  0  0
 34 71  1  0  0  0  0
M  END
> <PUBCHEM_COMPOUND_CID>
7049409

> <PUBCHEM_CONFORMER_RMSD>
1.2

> <PUBCHEM_CONFORMER_DIVERSEORDER>
1
41
34
30
65
48
61
77
62
3
16
56
20
9
50
39
26
78
18
58
13
63
5
72
75
29
27
28
64
43
70
53
24
40
42
10
49
23
44
37
55
59
67
68
74
71
76
45
69
54
73
15
17
33
51
6
52
46
8
7
25
47
66
14
22
21
4
2
32
57
12
38
60
31
19
35
11
36

> <PUBCHEM_MMFF94_PARTIAL_CHARGES>
31
1 -0.57
10 0.05
11 0.3
12 0.36
14 0.3
15 0.3
18 0.57
2 -0.57
22 0.71
23 0.69
24 0.36
25 -0.24
27 -0.15
28 0.66
3 -0.57
31 -0.3
32 -0.15
33 0.26
34 0.28
4 -0.43
46 0.37
5 -0.57
53 0.37
54 0.37
57 0.15
6 -0.66
64 0.15
65 0.15
7 -0.73
8 -0.73
9 -0.73

> <PUBCHEM_EFFECTIVE_ROTOR_COUNT>
14.2

> <PUBCHEM_PHARMACOPHORE_FEATURES>
12
1 1 acceptor
1 10 cation
1 2 acceptor
1 3 acceptor
1 5 acceptor
1 7 donor
1 8 donor
1 9 donor
3 26 29 30 hydrophobe
5 10 25 27 31 32 rings
5 6 11 12 13 14 rings
6 15 16 17 19 20 21 rings

> <PUBCHEM_HEAVY_ATOM_COUNT>
34

> <PUBCHEM_ATOM_DEF_STEREO_COUNT>
3

> <PUBCHEM_ATOM_UDEF_STEREO_COUNT>
0

> <PUBCHEM_BOND_DEF_STEREO_COUNT>
0

> <PUBCHEM_BOND_UDEF_STEREO_COUNT>
0

> <PUBCHEM_ISOTOPIC_ATOM_COUNT>
0

> <PUBCHEM_COMPONENT_COUNT>
1

> <PUBCHEM_CACTVS_TAUTO_COUNT>
6

> <PUBCHEM_CONFORMER_ID>
006B90C100000001

> <PUBCHEM_MMFF94_ENERGY>
58.9245

> <PUBCHEM_FEATURE_SELFOVERLAP>
60.947

> <PUBCHEM_SHAPE_FINGERPRINT>
10258939 38 17478036625028892608
10937287 8 18409163290363777349
11069576 57 17767385904084099933
11093857 51 18198890418909799723
11285246 1 17341004125137836774
11386260 185 16829791017458763223
12422481 6 12035723176707568501
12788726 201 18119243124070650874
14114206 34 17833251392037215102
14251757 5 18196094571319798715
15878777 1 8097961318392437626
16988056 13 17471284055190166517
19319366 153 18128799877112065447
20775438 99 18060410323058875740
21033650 10 17899150570598672876
21641784 216 17830472921927144068
24941158 1 17757814650721567037
376196 1 18041285357016629296
4066623 53 17619335946112816333
4173938 77 17187578144187342937
4394409 98 18267033756539071678
4409770 3 18269554008344703267
46194498 28 17683804311680809381
563151 97 17970915694755147760
6677587 24 17609735813622650869
9831354 38 17772758169305718350

> <PUBCHEM_SHAPE_MULTIPOLES>
645.45
11.03
8.79
2.19
4.61
15.83
0.23
-18.93
5.82
-7.56
4.33
-0.16
-0.94
0.7

> <PUBCHEM_SHAPE_SELFOVERLAP>
1335.251

> <PUBCHEM_SHAPE_VOLUME>
369.4

> <PUBCHEM_COORDINATE_TYPE>
2
5
10

$$$$
