71694041
  -OEChem-12032416273D

 49 51  0     1  0  0  0  0  0999 V2000
    6.1835    1.9993    0.5202 F   0  0  0  0  0  0  0  0  0  0  0  0
    4.5931    3.1208    1.4773 F   0  0  0  0  0  0  0  0  0  0  0  0
    5.0093    3.4179   -0.6360 F   0  0  0  0  0  0  0  0  0  0  0  0
   -1.1554   -3.7551    0.9726 O   0  0  0  0  0  0  0  0  0  0  0  0
    1.5723   -4.0374    1.0482 O   0  0  0  0  0  0  0  0  0  0  0  0
   -6.3933    2.5927   -0.3100 O   0  0  0  0  0  0  0  0  0  0  0  0
   -1.1466   -0.9729   -0.3504 N   0  0  0  0  0  0  0  0  0  0  0  0
    1.1272   -1.7077   -1.0606 C   0  0  2  0  0  0  0  0  0  0  0  0
   -0.0233   -1.8493   -0.0380 C   0  0  2  0  0  0  0  0  0  0  0  0
   -0.4075   -3.3245   -0.1485 C   0  0  1  0  0  0  0  0  0  0  0  0
    1.7533   -3.1236   -1.1784 C   0  0  0  0  0  0  0  0  0  0  0  0
    0.9492   -4.0183   -0.2330 C   0  0  1  0  0  0  0  0  0  0  0  0
    2.1166   -0.6210   -0.6983 C   0  0  0  0  0  0  0  0  0  0  0  0
   -1.9891   -0.7718    0.8200 C   0  0  0  0  0  0  0  0  0  0  0  0
    2.3398    0.4395   -1.5765 C   0  0  0  0  0  0  0  0  0  0  0  0
    2.8045   -0.6793    0.5138 C   0  0  0  0  0  0  0  0  0  0  0  0
   -3.1613    0.1242    0.5197 C   0  0  0  0  0  0  0  0  0  0  0  0
    3.2509    1.4415   -1.2428 C   0  0  0  0  0  0  0  0  0  0  0  0
    3.7157    0.3226    0.8476 C   0  0  0  0  0  0  0  0  0  0  0  0
    3.9389    1.3829   -0.0307 C   0  0  0  0  0  0  0  0  0  0  0  0
   -2.9762    1.5024    0.4100 C   0  0  0  0  0  0  0  0  0  0  0  0
   -4.4325   -0.4244    0.3505 C   0  0  0  0  0  0  0  0  0  0  0  0
    4.9107    2.4560    0.3273 C   0  0  0  0  0  0  0  0  0  0  0  0
   -4.0624    2.3320    0.1316 C   0  0  0  0  0  0  0  0  0  0  0  0
   -5.5188    0.4050    0.0721 C   0  0  0  0  0  0  0  0  0  0  0  0
   -5.3337    1.7833   -0.0373 C   0  0  0  0  0  0  0  0  0  0  0  0
   -7.6649    1.9654   -0.4708 C   0  0  0  0  0  0  0  0  0  0  0  0
    0.7016   -1.4753   -2.0483 H   0  0  0  0  0  0  0  0  0  0  0  0
    0.3331   -1.6353    0.9782 H   0  0  0  0  0  0  0  0  0  0  0  0
   -0.9899   -3.5129   -1.0597 H   0  0  0  0  0  0  0  0  0  0  0  0
    1.6214   -3.4753   -2.2093 H   0  0  0  0  0  0  0  0  0  0  0  0
    2.8256   -3.1408   -0.9571 H   0  0  0  0  0  0  0  0  0  0  0  0
    0.8672   -5.0512   -0.5837 H   0  0  0  0  0  0  0  0  0  0  0  0
   -0.7874   -0.0677   -0.6551 H   0  0  0  0  0  0  0  0  0  0  0  0
   -1.2763   -4.7164    0.8900 H   0  0  0  0  0  0  0  0  0  0  0  0
   -1.4153   -0.3194    1.6401 H   0  0  0  0  0  0  0  0  0  0  0  0
   -2.3772   -1.7198    1.2044 H   0  0  0  0  0  0  0  0  0  0  0  0
    2.4506   -4.4403    0.9388 H   0  0  0  0  0  0  0  0  0  0  0  0
    1.8111    0.4996   -2.5240 H   0  0  0  0  0  0  0  0  0  0  0  0
    2.6534   -1.4985    1.2104 H   0  0  0  0  0  0  0  0  0  0  0  0
    3.4098    2.2591   -1.9404 H   0  0  0  0  0  0  0  0  0  0  0  0
    4.2479    0.2680    1.7936 H   0  0  0  0  0  0  0  0  0  0  0  0
   -1.9907    1.9418    0.5405 H   0  0  0  0  0  0  0  0  0  0  0  0
   -4.5904   -1.4968    0.4306 H   0  0  0  0  0  0  0  0  0  0  0  0
   -3.9122    3.4048    0.0474 H   0  0  0  0  0  0  0  0  0  0  0  0
   -6.4779   -0.0870   -0.0481 H   0  0  0  0  0  0  0  0  0  0  0  0
   -8.3914    2.7570   -0.6817 H   0  0  0  0  0  0  0  0  0  0  0  0
   -7.9893    1.4713    0.4514 H   0  0  0  0  0  0  0  0  0  0  0  0
   -7.6730    1.2868   -1.3305 H   0  0  0  0  0  0  0  0  0  0  0  0
  1 23  1  0  0  0  0
  2 23  1  0  0  0  0
  3 23  1  0  0  0  0
  4 10  1  0  0  0  0
  4 35  1  0  0  0  0
  5 12  1  0  0  0  0
  5 38  1  0  0  0  0
  6 26  1  0  0  0  0
  6 27  1  0  0  0  0
  7  9  1  0  0  0  0
  7 14  1  0  0  0  0
  7 34  1  0  0  0  0
  8  9  1  0  0  0  0
  8 11  1  0  0  0  0
  8 13  1  0  0  0  0
  8 28  1  0  0  0  0
  9 10  1  0  0  0  0
  9 29  1  0  0  0  0
 10 12  1  0  0  0  0
 10 30  1  0  0  0  0
 11 12  1  0  0  0  0
 11 31  1  0  0  0  0
 11 32  1  0  0  0  0
 12 33  1  0  0  0  0
 13 15  2  0  0  0  0
 13 16  1  0  0  0  0
 14 17  1  0  0  0  0
 14 36  1  0  0  0  0
 14 37  1  0  0  0  0
 15 18  1  0  0  0  0
 15 39  1  0  0  0  0
 16 19  2  0  0  0  0
 16 40  1  0  0  0  0
 17 21  2  0  0  0  0
 17 22  1  0  0  0  0
 18 20  2  0  0  0  0
 18 41  1  0  0  0  0
 19 20  1  0  0  0  0
 19 42  1  0  0  0  0
 20 23  1  0  0  0  0
 21 24  1  0  0  0  0
 21 43  1  0  0  0  0
 22 25  2  0  0  0  0
 22 44  1  0  0  0  0
 24 26  2  0  0  0  0
 24 45  1  0  0  0  0
 25 26  1  0  0  0  0
 25 46  1  0  0  0  0
 27 47  1  0  0  0  0
 27 48  1  0  0  0  0
 27 49  1  0  0  0  0
M  END
> <PUBCHEM_COMPOUND_CID>
71694041

> <PUBCHEM_CONFORMER_RMSD>
0.8

> <PUBCHEM_CONFORMER_DIVERSEORDER>
1
21
16
27
11
9
3
34
29
30
22
20
35
25
32
10
33
4
12
15
14
36
5
19
6
7
13
26
17
24
8
31
28
2
23
18

> <PUBCHEM_MMFF94_PARTIAL_CHARGES>
37
1 -0.34
10 0.28
12 0.28
13 -0.14
14 0.41
15 -0.15
16 -0.15
17 -0.14
18 -0.15
19 -0.15
2 -0.34
20 -0.14
21 -0.15
22 -0.15
23 1.16
24 -0.15
25 -0.15
26 0.08
27 0.28
3 -0.34
34 0.36
35 0.4
38 0.4
39 0.15
4 -0.68
40 0.15
41 0.15
42 0.15
43 0.15
44 0.15
45 0.15
46 0.15
5 -0.68
6 -0.36
7 -0.9
8 0.14
9 0.27

> <PUBCHEM_EFFECTIVE_ROTOR_COUNT>
7

> <PUBCHEM_PHARMACOPHORE_FEATURES>
10
1 4 acceptor
1 4 donor
1 5 acceptor
1 5 donor
1 6 acceptor
1 7 cation
1 7 donor
5 8 9 10 11 12 rings
6 13 15 16 18 19 20 rings
6 17 21 22 24 25 26 rings

> <PUBCHEM_HEAVY_ATOM_COUNT>
27

> <PUBCHEM_ATOM_DEF_STEREO_COUNT>
4

> <PUBCHEM_ATOM_UDEF_STEREO_COUNT>
0

> <PUBCHEM_BOND_DEF_STEREO_COUNT>
0

> <PUBCHEM_BOND_UDEF_STEREO_COUNT>
0

> <PUBCHEM_ISOTOPIC_ATOM_COUNT>
0

> <PUBCHEM_COMPONENT_COUNT>
1

> <PUBCHEM_CACTVS_TAUTO_COUNT>
1

> <PUBCHEM_CONFORMER_ID>
0445F6D900000001

> <PUBCHEM_MMFF94_ENERGY>
78.8974

> <PUBCHEM_FEATURE_SELFOVERLAP>
50.757

> <PUBCHEM_SHAPE_FINGERPRINT>
10937287 8 18411139172988906322
11135609 127 18266447708467537101
11211813 74 18266736876105844805
12107183 9 18335973243322130850
12166972 35 17839458891353927723
12549972 3 17534091612749648579
12633257 1 15936692674279253376
12769317 202 18201435865626722769
12788726 201 17395310451959386646
13955234 65 18191875513745696267
13965767 371 18113611292384922414
14251764 30 9511465528473445125
14251764 38 18195249923383871745
14461889 52 18113912559203916635
14468879 13 18262249888403575691
14849402 71 18265617576581963074
15198563 99 17623848337359758231
16120349 189 18336265746688706949
18681886 176 17910672064714986255
19053607 189 18187374207420144861
1979834 28 18115037316080135901
20157964 124 18337672993514083477
20554085 129 17988346135945214874
20567600 254 18413388743577317572
20715895 44 18410293601128576048
21049683 118 18196629965089928522
21133410 221 16982911102549538600
21304303 282 17986094421899799278
21403212 168 18339914923472408234
22149856 69 18192744227432825203
22950370 63 9367350348839538519
23559900 14 18194404377673231067
23569914 2 16841885495161796040
23845131 108 18335421279125640043
2838139 119 18200025282771857636
3246875 12 18410577327548604755
34797466 226 17917153793672140901
376196 1 18411985762387818370
4058900 60 18410586071363781720
44317340 157 18194684753618154117
44880168 125 13335000734301865016
474 4 18335989666591722719
495365 180 18189905214636313899
5104073 3 18190473654063796899
5219985 13 18340486772070162852
5372103 7 15265905910698904514
56633871 153 11602820220425361737
57091435 61 18340205185624931425
57124632 79 18338510846426814802
6327066 14 18339079392823330308
6371380 46 18411708682291143622
67856867 119 18265050241720036115
7288768 16 18260546766288138011
7808743 9 18267585900021933688
9849439 229 18408889567855880933
9896288 288 17972604565726654850
9981440 41 18334863861111033107

> <PUBCHEM_SHAPE_MULTIPOLES>
511.24
14.73
5.15
1.12
19.41
3.49
-0.11
-19.97
0.11
-4.93
0.54
-0.95
0.05
1.15

> <PUBCHEM_SHAPE_SELFOVERLAP>
1094.168

> <PUBCHEM_SHAPE_VOLUME>
285.9

> <PUBCHEM_COORDINATE_TYPE>
2
5
10

$$$$
