40779910
  -OEChem-12032416403D

 68 71  0     1  0  0  0  0  0999 V2000
    4.0563    3.9461    0.5517 O   0  0  0  0  0  0  0  0  0  0  0  0
   -2.5526   -1.7031    2.1801 O   0  0  0  0  0  0  0  0  0  0  0  0
    1.7585   -2.5692    1.0014 N   0  0  2  0  0  0  0  0  0  0  0  0
    4.6624    0.4205   -0.4396 N   0  0  2  0  0  0  0  0  0  0  0  0
   -1.2693   -0.3136    0.8404 N   0  0  0  0  0  0  0  0  0  0  0  0
   -7.1835    1.3463   -0.9689 N   0  0  0  0  0  0  0  0  0  0  0  0
    2.0187   -2.1420   -1.5514 C   0  0  2  0  0  0  0  0  0  0  0  0
    3.2011   -1.5298   -0.7661 C   0  0  2  0  0  0  0  0  0  0  0  0
    0.6971   -1.5550   -1.0227 C   0  0  0  0  0  0  0  0  0  0  0  0
    0.5162   -1.9564    0.4582 C   0  0  2  0  0  0  0  0  0  0  0  0
    2.9221   -1.6862    0.7456 C   0  0  0  0  0  0  0  0  0  0  0  0
    2.0060   -3.6503   -1.2371 C   0  0  0  0  0  0  0  0  0  0  0  0
    1.9850   -3.8501    0.2887 C   0  0  0  0  0  0  0  0  0  0  0  0
    3.4837   -0.0764   -1.1392 C   0  0  0  0  0  0  0  0  0  0  0  0
    0.0240   -0.7833    1.3090 C   0  0  0  0  0  0  0  0  0  0  0  0
    4.7603    1.8867   -0.4331 C   0  0  2  0  0  0  0  0  0  0  0  0
    5.8986   -0.0377   -1.0782 C   0  0  0  0  0  0  0  0  0  0  0  0
    6.2206    2.1237   -0.0418 C   0  0  0  0  0  0  0  0  0  0  0  0
    6.9618    0.8620   -0.4702 C   0  0  0  0  0  0  0  0  0  0  0  0
    3.7985    2.5532    0.5422 C   0  0  0  0  0  0  0  0  0  0  0  0
   -2.4568   -0.8249    1.3269 C   0  0  0  0  0  0  0  0  0  0  0  0
   -3.6919   -0.2582    0.7267 C   0  0  0  0  0  0  0  0  0  0  0  0
    3.1900    4.6356    1.4455 C   0  0  0  0  0  0  0  0  0  0  0  0
   -4.8609   -1.0184    0.6869 C   0  0  0  0  0  0  0  0  0  0  0  0
   -3.6827    1.0347    0.2035 C   0  0  0  0  0  0  0  0  0  0  0  0
   -6.0205   -0.4856    0.1239 C   0  0  0  0  0  0  0  0  0  0  0  0
   -4.8422    1.5676   -0.3595 C   0  0  0  0  0  0  0  0  0  0  0  0
   -6.0111    0.8075   -0.3993 C   0  0  0  0  0  0  0  0  0  0  0  0
   -8.4032    0.5646   -1.0153 C   0  0  0  0  0  0  0  0  0  0  0  0
   -7.1862    2.6917   -1.5083 C   0  0  0  0  0  0  0  0  0  0  0  0
    2.1198   -1.9731   -2.6285 H   0  0  0  0  0  0  0  0  0  0  0  0
    4.0867   -2.1308   -1.0157 H   0  0  0  0  0  0  0  0  0  0  0  0
    0.6836   -0.4692   -1.1620 H   0  0  0  0  0  0  0  0  0  0  0  0
   -0.1396   -1.9548   -1.6097 H   0  0  0  0  0  0  0  0  0  0  0  0
   -0.2730   -2.7214    0.5039 H   0  0  0  0  0  0  0  0  0  0  0  0
    3.8078   -2.1148    1.2332 H   0  0  0  0  0  0  0  0  0  0  0  0
    2.7706   -0.7215    1.2423 H   0  0  0  0  0  0  0  0  0  0  0  0
    2.8903   -4.1374   -1.6643 H   0  0  0  0  0  0  0  0  0  0  0  0
    1.1252   -4.1200   -1.6914 H   0  0  0  0  0  0  0  0  0  0  0  0
    1.2047   -4.5720    0.5597 H   0  0  0  0  0  0  0  0  0  0  0  0
    2.9284   -4.2995    0.6243 H   0  0  0  0  0  0  0  0  0  0  0  0
    2.6101    0.5231   -0.8655 H   0  0  0  0  0  0  0  0  0  0  0  0
    3.5886    0.0285   -2.2270 H   0  0  0  0  0  0  0  0  0  0  0  0
    0.7015    0.0749    1.2589 H   0  0  0  0  0  0  0  0  0  0  0  0
   -0.0677   -1.0827    2.3594 H   0  0  0  0  0  0  0  0  0  0  0  0
    4.6078    2.2959   -1.4423 H   0  0  0  0  0  0  0  0  0  0  0  0
    5.8771    0.1071   -2.1661 H   0  0  0  0  0  0  0  0  0  0  0  0
    6.1163   -1.0900   -0.8718 H   0  0  0  0  0  0  0  0  0  0  0  0
    6.3424    2.2678    1.0386 H   0  0  0  0  0  0  0  0  0  0  0  0
    6.6266    3.0094   -0.5426 H   0  0  0  0  0  0  0  0  0  0  0  0
    7.7597    1.0832   -1.1863 H   0  0  0  0  0  0  0  0  0  0  0  0
    7.4188    0.3863    0.4056 H   0  0  0  0  0  0  0  0  0  0  0  0
    3.9315    2.1481    1.5535 H   0  0  0  0  0  0  0  0  0  0  0  0
    2.7586    2.3866    0.2412 H   0  0  0  0  0  0  0  0  0  0  0  0
   -1.2605    0.3640    0.0861 H   0  0  0  0  0  0  0  0  0  0  0  0
    3.4366    5.7001    1.4101 H   0  0  0  0  0  0  0  0  0  0  0  0
    3.3327    4.2775    2.4697 H   0  0  0  0  0  0  0  0  0  0  0  0
    2.1463    4.5081    1.1425 H   0  0  0  0  0  0  0  0  0  0  0  0
   -4.8863   -2.0293    1.0856 H   0  0  0  0  0  0  0  0  0  0  0  0
   -2.8049    1.6728    0.2437 H   0  0  0  0  0  0  0  0  0  0  0  0
   -6.9036   -1.1168    0.1160 H   0  0  0  0  0  0  0  0  0  0  0  0
   -4.7862    2.5802   -0.7466 H   0  0  0  0  0  0  0  0  0  0  0  0
   -9.2217    1.1190   -1.4880 H   0  0  0  0  0  0  0  0  0  0  0  0
   -8.7451    0.3041   -0.0074 H   0  0  0  0  0  0  0  0  0  0  0  0
   -8.2658   -0.3491   -1.6044 H   0  0  0  0  0  0  0  0  0  0  0  0
   -8.1676    2.9638   -1.9128 H   0  0  0  0  0  0  0  0  0  0  0  0
   -6.4721    2.7888   -2.3337 H   0  0  0  0  0  0  0  0  0  0  0  0
   -6.9539    3.4297   -0.7325 H   0  0  0  0  0  0  0  0  0  0  0  0
  1 20  1  0  0  0  0
  1 23  1  0  0  0  0
  2 21  2  0  0  0  0
  3 10  1  0  0  0  0
  3 11  1  0  0  0  0
  3 13  1  0  0  0  0
  4 14  1  0  0  0  0
  4 16  1  0  0  0  0
  4 17  1  0  0  0  0
  5 15  1  0  0  0  0
  5 21  1  0  0  0  0
  5 55  1  0  0  0  0
  6 28  1  0  0  0  0
  6 29  1  0  0  0  0
  6 30  1  0  0  0  0
  7  8  1  0  0  0  0
  7  9  1  0  0  0  0
  7 12  1  0  0  0  0
  7 31  1  0  0  0  0
  8 11  1  0  0  0  0
  8 14  1  0  0  0  0
  8 32  1  0  0  0  0
  9 10  1  0  0  0  0
  9 33  1  0  0  0  0
  9 34  1  0  0  0  0
 10 15  1  0  0  0  0
 10 35  1  0  0  0  0
 11 36  1  0  0  0  0
 11 37  1  0  0  0  0
 12 13  1  0  0  0  0
 12 38  1  0  0  0  0
 12 39  1  0  0  0  0
 13 40  1  0  0  0  0
 13 41  1  0  0  0  0
 14 42  1  0  0  0  0
 14 43  1  0  0  0  0
 15 44  1  0  0  0  0
 15 45  1  0  0  0  0
 16 18  1  0  0  0  0
 16 20  1  0  0  0  0
 16 46  1  0  0  0  0
 17 19  1  0  0  0  0
 17 47  1  0  0  0  0
 17 48  1  0  0  0  0
 18 19  1  0  0  0  0
 18 49  1  0  0  0  0
 18 50  1  0  0  0  0
 19 51  1  0  0  0  0
 19 52  1  0  0  0  0
 20 53  1  0  0  0  0
 20 54  1  0  0  0  0
 21 22  1  0  0  0  0
 22 24  2  0  0  0  0
 22 25  1  0  0  0  0
 23 56  1  0  0  0  0
 23 57  1  0  0  0  0
 23 58  1  0  0  0  0
 24 26  1  0  0  0  0
 24 59  1  0  0  0  0
 25 27  2  0  0  0  0
 25 60  1  0  0  0  0
 26 28  2  0  0  0  0
 26 61  1  0  0  0  0
 27 28  1  0  0  0  0
 27 62  1  0  0  0  0
 29 63  1  0  0  0  0
 29 64  1  0  0  0  0
 29 65  1  0  0  0  0
 30 66  1  0  0  0  0
 30 67  1  0  0  0  0
 30 68  1  0  0  0  0
M  END
> <PUBCHEM_COMPOUND_CID>
40779910

> <PUBCHEM_CONFORMER_RMSD>
1

> <PUBCHEM_CONFORMER_DIVERSEORDER>
1
9
35
22
29
34
47
36
40
32
23
2
63
45
14
64
57
28
42
59
13
26
4
20
51
24
54
44
43
7
41
25
33
38
3
55
10
39
31
11
8
5
46
60
65
52
48
58
18
12
50
53
19
15
27
56
61
16
37
17
62
49
21
30
6

> <PUBCHEM_MMFF94_PARTIAL_CHARGES>
29
1 -0.56
10 0.27
11 0.27
13 0.27
14 0.27
15 0.3
16 0.27
17 0.27
2 -0.57
20 0.28
21 0.54
22 0.09
23 0.28
24 -0.15
25 -0.15
26 -0.15
27 -0.15
28 0.1
29 0.37
3 -0.81
30 0.37
4 -0.81
5 -0.73
55 0.37
59 0.15
6 -0.84
60 0.15
61 0.15
62 0.15

> <PUBCHEM_EFFECTIVE_ROTOR_COUNT>
11.2

> <PUBCHEM_PHARMACOPHORE_FEATURES>
9
1 1 acceptor
1 2 acceptor
1 3 cation
1 4 cation
1 5 donor
1 6 cation
5 4 16 17 18 19 rings
6 22 24 25 26 27 28 rings
8 3 7 8 9 10 11 12 13 rings

> <PUBCHEM_HEAVY_ATOM_COUNT>
30

> <PUBCHEM_ATOM_DEF_STEREO_COUNT>
4

> <PUBCHEM_ATOM_UDEF_STEREO_COUNT>
0

> <PUBCHEM_BOND_DEF_STEREO_COUNT>
0

> <PUBCHEM_BOND_UDEF_STEREO_COUNT>
0

> <PUBCHEM_ISOTOPIC_ATOM_COUNT>
0

> <PUBCHEM_COMPONENT_COUNT>
1

> <PUBCHEM_CACTVS_TAUTO_COUNT>
2

> <PUBCHEM_CONFORMER_ID>
026E408600000001

> <PUBCHEM_MMFF94_ENERGY>
89.3299

> <PUBCHEM_FEATURE_SELFOVERLAP>
45.671

> <PUBCHEM_SHAPE_FINGERPRINT>
10763959 59 18336556005664607316
10811444 77 18410858801866672924
10835480 77 18335984186555980709
11135609 127 18336255739947383959
11409948 41 17416976024227676558
11479125 193 17986381402787361729
12633257 1 15864356912495226734
12769317 202 18342179968685009970
12838862 33 18202279243713943264
13150687 139 18060432309096989750
13402501 40 18334861636296932684
13673619 4 11455891356012687651
13911987 19 17989490710639313755
14251764 30 10735891542725413022
14341114 176 9583509902660272759
14556957 393 17060070241656373873
14739800 52 18040426681453093699
14767858 380 16988849375418211931
15003188 100 18271531987177207532
15082195 135 18272086037726056041
15276724 80 18267305327542795317
15289351 153 18340768149048375416
15320295 198 18336836389139824404
15890870 6 18410295843966609516
15961568 22 18187086143678362501
15979999 66 18053394206397957774
16120349 189 18336551641866883380
18335252 114 18343303648299495358
19304152 47 17181381829445381544
20511986 3 17749384846096993003
20554085 129 17312820481195795121
20567600 254 18409736179383354214
20737093 193 14182769476645540369
20737093 207 13972866931528375268
21033648 29 17676496068106710570
21344244 78 18048862023731467010
21403212 168 18335417964138692802
21475661 188 18336270162605747888
21968339 14 18341333297481986430
23522609 53 17417268537285544617
23559900 14 17678195826841534598
2838139 119 18338799030474978486
3459 39 17023173938399463045
34797466 226 18342743966922032103
59755656 215 18333731308073151029
6371009 1 18273219716304449240

> <PUBCHEM_SHAPE_MULTIPOLES>
585.72
20.4
4.65
1.5
28.76
2.08
-0.15
16.67
7.86
-6.8
-0.74
0.57
-0.24
3.19

> <PUBCHEM_SHAPE_SELFOVERLAP>
1223.969

> <PUBCHEM_SHAPE_VOLUME>
330.3

> <PUBCHEM_COORDINATE_TYPE>
2
5
10

$$$$
