11885295
  -OEChem-12032416363D

 57 62  0     1  0  0  0  0  0999 V2000
    3.2251    5.1441   -1.0684 F   0  0  0  0  0  0  0  0  0  0  0  0
   -1.3049   -2.2412    1.4029 O   0  0  0  0  0  0  0  0  0  0  0  0
    3.4794   -0.8540    0.8249 N   0  0  2  0  0  0  0  0  0  0  0  0
    0.6643   -2.1955    0.1547 N   0  0  0  0  0  0  0  0  0  0  0  0
    2.8428   -3.2750    0.9660 C   0  0  1  0  0  0  0  0  0  0  0  0
    2.7840   -2.1387   -1.2021 C   0  0  2  0  0  0  0  0  0  0  0  0
    3.1316   -3.4580   -0.5181 C   0  0  0  0  0  0  0  0  0  0  0  0
    3.6972   -2.1216    1.5331 C   0  0  0  0  0  0  0  0  0  0  0  0
    3.6679   -1.0094   -0.6253 C   0  0  0  0  0  0  0  0  0  0  0  0
    1.3377   -3.0402    1.1517 C   0  0  0  0  0  0  0  0  0  0  0  0
    1.3144   -1.8077   -1.0193 C   0  0  0  0  0  0  0  0  0  0  0  0
    4.3436    0.1978    1.3552 C   0  0  0  0  0  0  0  0  0  0  0  0
    0.6463   -1.1319   -1.9674 C   0  0  0  0  0  0  0  0  0  0  0  0
   -0.6891   -1.8879    0.3955 C   0  0  0  0  0  0  0  0  0  0  0  0
   -1.4022   -1.0994   -0.6701 C   0  0  0  0  0  0  0  0  0  0  0  0
   -0.7303   -0.7694   -1.7833 C   0  0  0  0  0  0  0  0  0  0  0  0
    4.0449    1.5219    0.7066 C   0  0  0  0  0  0  0  0  0  0  0  0
   -2.8062   -0.6851   -0.5026 C   0  0  0  0  0  0  0  0  0  0  0  0
    4.7239    1.8874   -0.4478 C   0  0  0  0  0  0  0  0  0  0  0  0
    3.0935    2.3609    1.2711 C   0  0  0  0  0  0  0  0  0  0  0  0
   -3.1075    0.5370    0.1006 C   0  0  0  0  0  0  0  0  0  0  0  0
   -3.8339   -1.5127   -0.9470 C   0  0  0  0  0  0  0  0  0  0  0  0
    4.4462    3.1151   -1.0491 C   0  0  0  0  0  0  0  0  0  0  0  0
    2.8158    3.5885    0.6697 C   0  0  0  0  0  0  0  0  0  0  0  0
   -4.4408    0.9458    0.2671 C   0  0  0  0  0  0  0  0  0  0  0  0
    3.4922    3.9656   -0.4904 C   0  0  0  0  0  0  0  0  0  0  0  0
   -5.1642   -1.1224   -0.7901 C   0  0  0  0  0  0  0  0  0  0  0  0
   -5.4845    0.1039   -0.1851 C   0  0  0  0  0  0  0  0  0  0  0  0
   -4.7610    2.1723    0.8717 C   0  0  0  0  0  0  0  0  0  0  0  0
   -6.8178    0.5127   -0.0186 C   0  0  0  0  0  0  0  0  0  0  0  0
   -6.0912    2.5627    1.0290 C   0  0  0  0  0  0  0  0  0  0  0  0
   -7.1175    1.7345    0.5849 C   0  0  0  0  0  0  0  0  0  0  0  0
    3.1186   -4.1880    1.5084 H   0  0  0  0  0  0  0  0  0  0  0  0
    3.0088   -2.2411   -2.2721 H   0  0  0  0  0  0  0  0  0  0  0  0
    4.1881   -3.7062   -0.6762 H   0  0  0  0  0  0  0  0  0  0  0  0
    2.5406   -4.2844   -0.9321 H   0  0  0  0  0  0  0  0  0  0  0  0
    3.4539   -1.9943    2.5954 H   0  0  0  0  0  0  0  0  0  0  0  0
    4.7561   -2.4095    1.4799 H   0  0  0  0  0  0  0  0  0  0  0  0
    3.3780   -0.1056   -1.1691 H   0  0  0  0  0  0  0  0  0  0  0  0
    4.7192   -1.2231   -0.8616 H   0  0  0  0  0  0  0  0  0  0  0  0
    1.1309   -2.6341    2.1499 H   0  0  0  0  0  0  0  0  0  0  0  0
    0.8254   -4.0113    1.1097 H   0  0  0  0  0  0  0  0  0  0  0  0
    5.4063   -0.0493    1.2237 H   0  0  0  0  0  0  0  0  0  0  0  0
    4.1930    0.2975    2.4385 H   0  0  0  0  0  0  0  0  0  0  0  0
    1.1292   -0.8133   -2.8853 H   0  0  0  0  0  0  0  0  0  0  0  0
   -1.1972   -0.2000   -2.5819 H   0  0  0  0  0  0  0  0  0  0  0  0
    5.4813    1.2439   -0.8866 H   0  0  0  0  0  0  0  0  0  0  0  0
    2.5587    2.0762    2.1730 H   0  0  0  0  0  0  0  0  0  0  0  0
   -2.2992    1.1800    0.4469 H   0  0  0  0  0  0  0  0  0  0  0  0
   -3.6159   -2.4682   -1.4181 H   0  0  0  0  0  0  0  0  0  0  0  0
    4.9749    3.4105   -1.9505 H   0  0  0  0  0  0  0  0  0  0  0  0
    2.0724    4.2503    1.1038 H   0  0  0  0  0  0  0  0  0  0  0  0
   -5.9503   -1.7857   -1.1449 H   0  0  0  0  0  0  0  0  0  0  0  0
   -3.9750    2.8358    1.2265 H   0  0  0  0  0  0  0  0  0  0  0  0
   -7.6362   -0.1186   -0.3584 H   0  0  0  0  0  0  0  0  0  0  0  0
   -6.3252    3.5137    1.4985 H   0  0  0  0  0  0  0  0  0  0  0  0
   -8.1528    2.0389    0.7077 H   0  0  0  0  0  0  0  0  0  0  0  0
  1 26  1  0  0  0  0
  2 14  2  0  0  0  0
  3  8  1  0  0  0  0
  3  9  1  0  0  0  0
  3 12  1  0  0  0  0
  4 10  1  0  0  0  0
  4 11  1  0  0  0  0
  4 14  1  0  0  0  0
  5  7  1  0  0  0  0
  5  8  1  0  0  0  0
  5 10  1  0  0  0  0
  5 33  1  0  0  0  0
  6  7  1  0  0  0  0
  6  9  1  0  0  0  0
  6 11  1  0  0  0  0
  6 34  1  0  0  0  0
  7 35  1  0  0  0  0
  7 36  1  0  0  0  0
  8 37  1  0  0  0  0
  8 38  1  0  0  0  0
  9 39  1  0  0  0  0
  9 40  1  0  0  0  0
 10 41  1  0  0  0  0
 10 42  1  0  0  0  0
 11 13  2  0  0  0  0
 12 17  1  0  0  0  0
 12 43  1  0  0  0  0
 12 44  1  0  0  0  0
 13 16  1  0  0  0  0
 13 45  1  0  0  0  0
 14 15  1  0  0  0  0
 15 16  2  0  0  0  0
 15 18  1  0  0  0  0
 16 46  1  0  0  0  0
 17 19  2  0  0  0  0
 17 20  1  0  0  0  0
 18 21  2  0  0  0  0
 18 22  1  0  0  0  0
 19 23  1  0  0  0  0
 19 47  1  0  0  0  0
 20 24  2  0  0  0  0
 20 48  1  0  0  0  0
 21 25  1  0  0  0  0
 21 49  1  0  0  0  0
 22 27  2  0  0  0  0
 22 50  1  0  0  0  0
 23 26  2  0  0  0  0
 23 51  1  0  0  0  0
 24 26  1  0  0  0  0
 24 52  1  0  0  0  0
 25 28  1  0  0  0  0
 25 29  2  0  0  0  0
 27 28  1  0  0  0  0
 27 53  1  0  0  0  0
 28 30  2  0  0  0  0
 29 31  1  0  0  0  0
 29 54  1  0  0  0  0
 30 32  1  0  0  0  0
 30 55  1  0  0  0  0
 31 32  2  0  0  0  0
 31 56  1  0  0  0  0
 32 57  1  0  0  0  0
M  END
> <PUBCHEM_COMPOUND_CID>
11885295

> <PUBCHEM_CONFORMER_RMSD>
0.8

> <PUBCHEM_CONFORMER_DIVERSEORDER>
1
8
14
12
7
6
10
3
11
4
5
13
15
2
9

> <PUBCHEM_MMFF94_PARTIAL_CHARGES>
41
1 -0.19
10 0.3
11 -0.03
12 0.41
13 -0.15
14 0.62
15 -0.01
16 -0.15
17 -0.14
18 0.03
19 -0.15
2 -0.57
20 -0.15
21 -0.15
22 -0.15
23 -0.15
24 -0.15
26 0.19
27 -0.15
29 -0.15
3 -0.81
30 -0.15
31 -0.15
32 -0.15
4 -0.47
45 0.15
46 0.15
47 0.15
48 0.15
49 0.15
50 0.15
51 0.15
52 0.15
53 0.15
54 0.15
55 0.15
56 0.15
57 0.15
6 0.14
8 0.27
9 0.27

> <PUBCHEM_EFFECTIVE_ROTOR_COUNT>
4

> <PUBCHEM_PHARMACOPHORE_FEATURES>
8
1 2 acceptor
1 3 cation
6 17 19 20 23 24 26 rings
6 18 21 22 25 27 28 rings
6 25 28 29 30 31 32 rings
6 3 5 6 7 8 9 rings
6 4 11 13 14 15 16 rings
6 4 5 6 7 10 11 rings

> <PUBCHEM_HEAVY_ATOM_COUNT>
32

> <PUBCHEM_ATOM_DEF_STEREO_COUNT>
2

> <PUBCHEM_ATOM_UDEF_STEREO_COUNT>
0

> <PUBCHEM_BOND_DEF_STEREO_COUNT>
0

> <PUBCHEM_BOND_UDEF_STEREO_COUNT>
0

> <PUBCHEM_ISOTOPIC_ATOM_COUNT>
0

> <PUBCHEM_COMPONENT_COUNT>
1

> <PUBCHEM_CACTVS_TAUTO_COUNT>
1

> <PUBCHEM_CONFORMER_ID>
00B55AEF00000001

> <PUBCHEM_MMFF94_ENERGY>
95.0264

> <PUBCHEM_FEATURE_SELFOVERLAP>
42.179

> <PUBCHEM_SHAPE_FINGERPRINT>
10165383 225 17967538978476584262
10190108 129 18264473003017135514
10483366 6 18339377310031687180
10673678 19 17775282772593643419
10674148 151 18271250521603315548
10675989 125 18343303708092512488
10937287 8 18049718822261359112
11070050 100 17313105224257814691
11578080 2 18188506768520225667
12236239 1 18189905210831898823
12633257 1 17896297243198268306
12925494 130 18338515352280401897
13878862 14 18263905675674277349
13944108 23 18410579466063406468
14251764 38 18411419548554014753
14251764 75 18118968228915784924
14705955 166 17241032202708460829
14739800 52 18342457062774245893
14849402 71 18335138674809433074
15082195 135 17703519787589845071
15142526 21 18262796414328216482
151778 21 18262790895601319492
15475509 84 17470438539612842466
19302320 297 17909845241040635129
20567600 9 18412268367467968196
21315764 268 18265331716817838997
21475661 188 18410576218893199666
21641784 216 15482395257762124635
21860390 5 18342737386847544254
22122407 14 18412269449546331097
23559900 14 17416973816039453343
245318 6 18189625010553218117
25223398 141 16056020480940611110
3103668 31 17545609950838835278
3298306 158 18201155580482703017
3411729 13 18413672417540334637
3493558 16 18341898506540804401
392239 28 18114166523970999507
397830 11 18261123993503778875
4058900 60 18189622811914596584
474 4 18338228370939268206
484985 159 9405627080607894700
5104073 3 18333454223212341763
513532 50 17561367266751432900
53794403 172 18336552697896503492
57091435 61 18410854407892874829
5951187 136 18270975560857181310
6086070 43 17828171369138540135
6201320 215 16607733683621053292

> <PUBCHEM_SHAPE_MULTIPOLES>
635.44
15.17
5.35
1.51
25.53
4.58
0.12
10.75
-2.31
-8.22
0.05
-0.96
-0.35
-2.34

> <PUBCHEM_SHAPE_SELFOVERLAP>
1424.657

> <PUBCHEM_SHAPE_VOLUME>
335.8

> <PUBCHEM_COORDINATE_TYPE>
2
5
10

$$$$
