75536091
  -OEChem-12032416293D

 55 59  0     1  0  0  0  0  0999 V2000
    3.0310    2.0522   -1.1240 S   0  0  0  0  0  0  0  0  0  0  0  0
    1.4870   -4.3930   -1.3263 O   0  0  0  0  0  0  0  0  0  0  0  0
   -1.2059   -4.7351   -0.9134 O   0  0  0  0  0  0  0  0  0  0  0  0
    0.7371    0.1593   -1.3359 O   0  0  0  0  0  0  0  0  0  0  0  0
   -6.5544    3.4496   -0.1614 O   0  0  0  0  0  0  0  0  0  0  0  0
    1.6228   -1.5628   -0.0593 N   0  0  0  0  0  0  0  0  0  0  0  0
   -2.6980    0.7482    1.3390 N   0  0  0  0  0  0  0  0  0  0  0  0
   -4.5187    1.5222    0.0401 N   0  0  0  0  0  0  0  0  0  0  0  0
    3.9029    0.0538    0.2538 N   0  0  0  0  0  0  0  0  0  0  0  0
   -0.4953   -2.3189    0.9785 C   0  0  2  0  0  0  0  0  0  0  0  0
    0.5057   -2.4635   -0.1900 C   0  0  2  0  0  0  0  0  0  0  0  0
    0.9397   -3.9263   -0.1076 C   0  0  1  0  0  0  0  0  0  0  0  0
   -1.0187   -3.7498    1.2661 C   0  0  0  0  0  0  0  0  0  0  0  0
   -0.3570   -4.6535    0.2275 C   0  0  1  0  0  0  0  0  0  0  0  0
   -1.5818   -1.3004    0.7050 C   0  0  0  0  0  0  0  0  0  0  0  0
   -2.4446   -1.4447   -0.3758 C   0  0  0  0  0  0  0  0  0  0  0  0
   -1.7488   -0.1962    1.5251 C   0  0  0  0  0  0  0  0  0  0  0  0
    1.6446   -0.3077   -0.6526 C   0  0  0  0  0  0  0  0  0  0  0  0
   -3.4340   -0.4938   -0.6002 C   0  0  0  0  0  0  0  0  0  0  0  0
   -3.5181    0.5744    0.2783 C   0  0  0  0  0  0  0  0  0  0  0  0
    2.8808    0.4896   -0.4448 C   0  0  0  0  0  0  0  0  0  0  0  0
   -4.2693    2.9115    0.4487 C   0  0  0  0  0  0  0  0  0  0  0  0
   -5.9278    1.1144    0.0407 C   0  0  0  0  0  0  0  0  0  0  0  0
   -5.1931    3.8483   -0.3214 C   0  0  0  0  0  0  0  0  0  0  0  0
   -6.7636    2.1475   -0.7070 C   0  0  0  0  0  0  0  0  0  0  0  0
    4.6061    2.1891   -0.4358 C   0  0  0  0  0  0  0  0  0  0  0  0
    4.9007    1.0176    0.2682 C   0  0  0  0  0  0  0  0  0  0  0  0
    5.5153    3.2563   -0.5132 C   0  0  0  0  0  0  0  0  0  0  0  0
    6.1504    0.9131    0.9166 C   0  0  0  0  0  0  0  0  0  0  0  0
    6.7448    3.1271    0.1375 C   0  0  0  0  0  0  0  0  0  0  0  0
    7.0603    1.9716    0.8437 C   0  0  0  0  0  0  0  0  0  0  0  0
    0.0517   -1.9960    1.8767 H   0  0  0  0  0  0  0  0  0  0  0  0
    0.0411   -2.2762   -1.1660 H   0  0  0  0  0  0  0  0  0  0  0  0
    1.6801   -4.0714    0.6893 H   0  0  0  0  0  0  0  0  0  0  0  0
   -0.6817   -4.0458    2.2676 H   0  0  0  0  0  0  0  0  0  0  0  0
   -2.1115   -3.8195    1.2501 H   0  0  0  0  0  0  0  0  0  0  0  0
   -0.1817   -5.6704    0.5908 H   0  0  0  0  0  0  0  0  0  0  0  0
    2.4089   -1.8459    0.5192 H   0  0  0  0  0  0  0  0  0  0  0  0
    1.6496   -5.3465   -1.2271 H   0  0  0  0  0  0  0  0  0  0  0  0
   -2.0296   -5.1698   -0.6340 H   0  0  0  0  0  0  0  0  0  0  0  0
   -2.3644   -2.2884   -1.0539 H   0  0  0  0  0  0  0  0  0  0  0  0
   -1.1078   -0.0256    2.3844 H   0  0  0  0  0  0  0  0  0  0  0  0
   -4.0976   -0.6002   -1.4521 H   0  0  0  0  0  0  0  0  0  0  0  0
   -3.2297    3.2005    0.2537 H   0  0  0  0  0  0  0  0  0  0  0  0
   -4.4586    3.0048    1.5252 H   0  0  0  0  0  0  0  0  0  0  0  0
   -6.2686    1.0441    1.0811 H   0  0  0  0  0  0  0  0  0  0  0  0
   -6.0762    0.1349   -0.4262 H   0  0  0  0  0  0  0  0  0  0  0  0
   -4.9424    3.8682   -1.3890 H   0  0  0  0  0  0  0  0  0  0  0  0
   -5.0937    4.8689    0.0616 H   0  0  0  0  0  0  0  0  0  0  0  0
   -7.8273    1.9087   -0.6085 H   0  0  0  0  0  0  0  0  0  0  0  0
   -6.5229    2.1572   -1.7770 H   0  0  0  0  0  0  0  0  0  0  0  0
    5.2758    4.1615   -1.0628 H   0  0  0  0  0  0  0  0  0  0  0  0
    6.4071    0.0149    1.4712 H   0  0  0  0  0  0  0  0  0  0  0  0
    7.4630    3.9415    0.0901 H   0  0  0  0  0  0  0  0  0  0  0  0
    8.0215    1.8891    1.3436 H   0  0  0  0  0  0  0  0  0  0  0  0
  1 21  1  0  0  0  0
  1 26  1  0  0  0  0
  2 12  1  0  0  0  0
  2 39  1  0  0  0  0
  3 14  1  0  0  0  0
  3 40  1  0  0  0  0
  4 18  2  0  0  0  0
  5 24  1  0  0  0  0
  5 25  1  0  0  0  0
  6 11  1  0  0  0  0
  6 18  1  0  0  0  0
  6 38  1  0  0  0  0
  7 17  1  0  0  0  0
  7 20  2  0  0  0  0
  8 20  1  0  0  0  0
  8 22  1  0  0  0  0
  8 23  1  0  0  0  0
  9 21  2  0  0  0  0
  9 27  1  0  0  0  0
 10 11  1  0  0  0  0
 10 13  1  0  0  0  0
 10 15  1  0  0  0  0
 10 32  1  0  0  0  0
 11 12  1  0  0  0  0
 11 33  1  0  0  0  0
 12 14  1  0  0  0  0
 12 34  1  0  0  0  0
 13 14  1  0  0  0  0
 13 35  1  0  0  0  0
 13 36  1  0  0  0  0
 14 37  1  0  0  0  0
 15 16  1  0  0  0  0
 15 17  2  0  0  0  0
 16 19  2  0  0  0  0
 16 41  1  0  0  0  0
 17 42  1  0  0  0  0
 18 21  1  0  0  0  0
 19 20  1  0  0  0  0
 19 43  1  0  0  0  0
 22 24  1  0  0  0  0
 22 44  1  0  0  0  0
 22 45  1  0  0  0  0
 23 25  1  0  0  0  0
 23 46  1  0  0  0  0
 23 47  1  0  0  0  0
 24 48  1  0  0  0  0
 24 49  1  0  0  0  0
 25 50  1  0  0  0  0
 25 51  1  0  0  0  0
 26 27  1  0  0  0  0
 26 28  2  0  0  0  0
 27 29  2  0  0  0  0
 28 30  1  0  0  0  0
 28 52  1  0  0  0  0
 29 31  1  0  0  0  0
 29 53  1  0  0  0  0
 30 31  2  0  0  0  0
 30 54  1  0  0  0  0
 31 55  1  0  0  0  0
M  END
> <PUBCHEM_COMPOUND_CID>
75536091

> <PUBCHEM_CONFORMER_RMSD>
1

> <PUBCHEM_CONFORMER_DIVERSEORDER>
1
20
28
33
34
37
8
19
14
30
22
12
36
35
31
29
26
10
39
18
16
2
38
23
6
5
21
40
24
17
25
4
9
15
27
3
32
7
11
13

> <PUBCHEM_MMFF94_PARTIAL_CHARGES>
40
1 -0.08
10 0.14
11 0.3
12 0.28
14 0.28
15 -0.14
16 -0.15
17 0.16
18 0.71
19 -0.15
2 -0.68
20 0.41
21 0.29
22 0.37
23 0.37
24 0.28
25 0.28
26 0.04
27 0.23
28 -0.15
29 -0.15
3 -0.68
30 -0.15
31 -0.15
38 0.37
39 0.4
4 -0.57
40 0.4
41 0.15
42 0.15
43 0.15
5 -0.56
52 0.15
53 0.15
54 0.15
55 0.15
6 -0.73
7 -0.62
8 -0.84
9 -0.57

> <PUBCHEM_EFFECTIVE_ROTOR_COUNT>
7.2

> <PUBCHEM_PHARMACOPHORE_FEATURES>
14
1 2 acceptor
1 2 donor
1 3 acceptor
1 3 donor
1 4 acceptor
1 5 acceptor
1 6 donor
1 9 acceptor
3 7 8 20 cation
5 1 9 21 26 27 rings
5 10 11 12 13 14 rings
6 26 27 28 29 30 31 rings
6 5 8 22 23 24 25 rings
6 7 15 16 17 19 20 rings

> <PUBCHEM_HEAVY_ATOM_COUNT>
31

> <PUBCHEM_ATOM_DEF_STEREO_COUNT>
4

> <PUBCHEM_ATOM_UDEF_STEREO_COUNT>
0

> <PUBCHEM_BOND_DEF_STEREO_COUNT>
0

> <PUBCHEM_BOND_UDEF_STEREO_COUNT>
0

> <PUBCHEM_ISOTOPIC_ATOM_COUNT>
0

> <PUBCHEM_COMPONENT_COUNT>
1

> <PUBCHEM_CACTVS_TAUTO_COUNT>
2

> <PUBCHEM_CONFORMER_ID>
048096DB00000001

> <PUBCHEM_MMFF94_ENERGY>
90.9928

> <PUBCHEM_FEATURE_SELFOVERLAP>
71.131

> <PUBCHEM_SHAPE_FINGERPRINT>
10673678 19 18338798905978735065
10675989 125 18195815054827498544
10937287 8 18411140216829457127
11135609 127 18120925119711924317
11135609 201 18412269441431065977
11297750 10 17482546795476028403
11828042 200 18126548241684246023
12107183 9 18334284358986317922
12293681 160 17917712387805856153
12633257 1 15430332342482766097
12788726 201 17976528739489539298
13248334 5 18121215372763596115
13583140 156 17272578485085702074
14251764 30 9367345933502778248
14251764 75 18270128903087718361
14294032 229 18270403926986698595
14420673 8 9583518729229620025
15064981 113 18130514149469207038
15131766 46 18058459716707538073
15198563 99 17910108354567925431
15420108 30 18336536166583250810
15439362 3 18339643343868134878
15513586 35 16592262317565445652
15890870 6 18410573980883845085
16120349 189 18408324405999758860
16988056 13 17760651365093479150
16992779 147 17909011823689729017
19304144 158 18187078418060994381
19304671 126 17773889609609842341
20238998 120 17400921895366879746
20554085 129 18130771353100496058
20587220 17 18122896543881627789
20715895 44 18409449168056876504
21033648 29 18334588940032609716
21133410 32 15050594106134757180
21304303 282 18270110339859439047
23522609 53 17460042997350765908
23559900 14 17904485109054454547
23569914 2 16881849186614161949
23929065 36 17982998244347348122
2748736 6 18410005529119405161
376196 1 18409733923961573722
4938544 92 18195529418860719576
5171179 24 18049726218058016670
5219985 13 18410856559645187997
5372103 7 17605247676472923925
563151 97 18411129251878366031
6058803 2 17753609346106764732
6327066 14 18409164432772440708
6371380 46 18338246960180386870
6700243 42 17333693790463518638
7288768 16 18113620097057466067
9849439 229 18335428958400220613
9896288 288 18044099175367033730
9981440 41 18408329899442116435

> <PUBCHEM_SHAPE_MULTIPOLES>
598.41
16.54
6.59
1.13
7.77
6.37
-0.08
-28.26
-1.07
-3.85
0.94
0.13
0.34
0.51

> <PUBCHEM_SHAPE_SELFOVERLAP>
1291.394

> <PUBCHEM_SHAPE_VOLUME>
330.4

> <PUBCHEM_COORDINATE_TYPE>
2
5
10

$$$$
