11879575
  -OEChem-12032416253D

 63 67  0     1  0  0  0  0  0999 V2000
   -0.0474   -3.1966    0.5177 O   0  0  0  0  0  0  0  0  0  0  0  0
    0.4365   -1.5940   -2.1448 O   0  0  0  0  0  0  0  0  0  0  0  0
    4.6083   -0.6928   -0.0215 O   0  0  0  0  0  0  0  0  0  0  0  0
   -4.1583   -1.9677    0.1201 O   0  0  0  0  0  0  0  0  0  0  0  0
  -10.4066    1.0397    1.0265 O   0  0  0  0  0  0  0  0  0  0  0  0
    2.4430   -1.0913    0.8653 N   0  0  0  0  0  0  0  0  0  0  0  0
   -2.4963   -1.1536   -1.2657 N   0  0  0  0  0  0  0  0  0  0  0  0
    1.7646   -0.7704    1.9758 N   0  0  0  0  0  0  0  0  0  0  0  0
    3.8177    0.0957    2.0501 N   0  0  0  0  0  0  0  0  0  0  0  0
    2.6106   -0.0447    2.6968 N   0  0  0  0  0  0  0  0  0  0  0  0
   -4.4043    0.0925   -0.9779 N   0  0  0  0  0  0  0  0  0  0  0  0
    7.6028    3.0292   -0.7960 N   0  0  0  0  0  0  0  0  0  0  0  0
    0.5676   -1.2722   -0.7481 C   0  0  1  0  0  0  0  0  0  0  0  0
   -0.5648   -1.9692   -0.0195 C   0  0  1  0  0  0  0  0  0  0  0  0
    1.8300   -1.9018   -0.1903 C   0  0  2  0  0  0  0  0  0  0  0  0
   -1.5826   -2.2580   -1.1000 C   0  0  2  0  0  0  0  0  0  0  0  0
    1.3586   -3.2838    0.2485 C   0  0  0  0  0  0  0  0  0  0  0  0
   -0.7091   -2.4376   -2.3277 C   0  0  0  0  0  0  0  0  0  0  0  0
    3.6920   -0.5599    0.9193 C   0  0  0  0  0  0  0  0  0  0  0  0
   -3.7422   -1.0883   -0.6304 C   0  0  0  0  0  0  0  0  0  0  0  0
   -5.6792    0.5310   -0.5501 C   0  0  0  0  0  0  0  0  0  0  0  0
    5.8720   -0.1275    0.0806 C   0  0  0  0  0  0  0  0  0  0  0  0
    6.1010    1.1599   -0.4052 C   0  0  0  0  0  0  0  0  0  0  0  0
    6.9127   -0.8465    0.6684 C   0  0  0  0  0  0  0  0  0  0  0  0
   -6.1866    1.7485   -1.0044 C   0  0  0  0  0  0  0  0  0  0  0  0
   -6.4284   -0.2532    0.3270 C   0  0  0  0  0  0  0  0  0  0  0  0
    7.3707    1.7282   -0.3031 C   0  0  0  0  0  0  0  0  0  0  0  0
    8.1826   -0.2781    0.7704 C   0  0  0  0  0  0  0  0  0  0  0  0
   -7.4432    2.1814   -0.5815 C   0  0  0  0  0  0  0  0  0  0  0  0
   -7.6850    0.1799    0.7498 C   0  0  0  0  0  0  0  0  0  0  0  0
    8.4116    1.0091    0.2847 C   0  0  0  0  0  0  0  0  0  0  0  0
   -8.1925    1.3971    0.2955 C   0  0  0  0  0  0  0  0  0  0  0  0
   -9.5030    1.8487    0.7355 C   0  0  0  0  0  0  0  0  0  0  0  0
    6.5314    3.7791   -1.4210 C   0  0  0  0  0  0  0  0  0  0  0  0
    8.9190    3.6278   -0.6964 C   0  0  0  0  0  0  0  0  0  0  0  0
   -9.8036    3.3392    0.8513 C   0  0  0  0  0  0  0  0  0  0  0  0
    0.5263   -0.1815   -0.6627 H   0  0  0  0  0  0  0  0  0  0  0  0
   -0.9567   -1.3850    0.8193 H   0  0  0  0  0  0  0  0  0  0  0  0
    2.6008   -2.0149   -0.9619 H   0  0  0  0  0  0  0  0  0  0  0  0
   -2.1618   -3.1668   -0.9047 H   0  0  0  0  0  0  0  0  0  0  0  0
    1.8744   -3.6630    1.1359 H   0  0  0  0  0  0  0  0  0  0  0  0
    1.4871   -4.0112   -0.5606 H   0  0  0  0  0  0  0  0  0  0  0  0
   -1.2064   -2.1767   -3.2669 H   0  0  0  0  0  0  0  0  0  0  0  0
   -0.3459   -3.4684   -2.4035 H   0  0  0  0  0  0  0  0  0  0  0  0
   -2.1949   -0.3559   -1.8174 H   0  0  0  0  0  0  0  0  0  0  0  0
   -3.9184    0.7173   -1.6164 H   0  0  0  0  0  0  0  0  0  0  0  0
    5.2631    1.6833   -0.8561 H   0  0  0  0  0  0  0  0  0  0  0  0
    6.7412   -1.8500    1.0481 H   0  0  0  0  0  0  0  0  0  0  0  0
   -5.6138    2.3676   -1.6901 H   0  0  0  0  0  0  0  0  0  0  0  0
   -6.1032   -1.2049    0.7229 H   0  0  0  0  0  0  0  0  0  0  0  0
    8.9924   -0.8388    1.2280 H   0  0  0  0  0  0  0  0  0  0  0  0
   -7.8194    3.1275   -0.9611 H   0  0  0  0  0  0  0  0  0  0  0  0
   -8.2538   -0.4418    1.4367 H   0  0  0  0  0  0  0  0  0  0  0  0
    9.4165    1.4063    0.3871 H   0  0  0  0  0  0  0  0  0  0  0  0
    6.1544    3.2638   -2.3114 H   0  0  0  0  0  0  0  0  0  0  0  0
    5.7076    3.9521   -0.7195 H   0  0  0  0  0  0  0  0  0  0  0  0
    6.8692    4.7672   -1.7531 H   0  0  0  0  0  0  0  0  0  0  0  0
    9.2333    3.7220    0.3491 H   0  0  0  0  0  0  0  0  0  0  0  0
    9.6619    3.0452   -1.2525 H   0  0  0  0  0  0  0  0  0  0  0  0
    8.9369    4.6390   -1.1182 H   0  0  0  0  0  0  0  0  0  0  0  0
  -10.5515    3.4925    1.6351 H   0  0  0  0  0  0  0  0  0  0  0  0
   -8.9073    3.8949    1.1398 H   0  0  0  0  0  0  0  0  0  0  0  0
  -10.1907    3.7093   -0.1011 H   0  0  0  0  0  0  0  0  0  0  0  0
  1 14  1  0  0  0  0
  1 17  1  0  0  0  0
  2 13  1  0  0  0  0
  2 18  1  0  0  0  0
  3 19  1  0  0  0  0
  3 22  1  0  0  0  0
  4 20  2  0  0  0  0
  5 33  2  0  0  0  0
  6  8  1  0  0  0  0
  6 15  1  0  0  0  0
  6 19  1  0  0  0  0
  7 16  1  0  0  0  0
  7 20  1  0  0  0  0
  7 45  1  0  0  0  0
  8 10  2  0  0  0  0
  9 10  1  0  0  0  0
  9 19  2  0  0  0  0
 11 20  1  0  0  0  0
 11 21  1  0  0  0  0
 11 46  1  0  0  0  0
 12 27  1  0  0  0  0
 12 34  1  0  0  0  0
 12 35  1  0  0  0  0
 13 14  1  0  0  0  0
 13 15  1  0  0  0  0
 13 37  1  0  0  0  0
 14 16  1  0  0  0  0
 14 38  1  0  0  0  0
 15 17  1  0  0  0  0
 15 39  1  0  0  0  0
 16 18  1  0  0  0  0
 16 40  1  0  0  0  0
 17 41  1  0  0  0  0
 17 42  1  0  0  0  0
 18 43  1  0  0  0  0
 18 44  1  0  0  0  0
 21 25  2  0  0  0  0
 21 26  1  0  0  0  0
 22 23  1  0  0  0  0
 22 24  2  0  0  0  0
 23 27  2  0  0  0  0
 23 47  1  0  0  0  0
 24 28  1  0  0  0  0
 24 48  1  0  0  0  0
 25 29  1  0  0  0  0
 25 49  1  0  0  0  0
 26 30  2  0  0  0  0
 26 50  1  0  0  0  0
 27 31  1  0  0  0  0
 28 31  2  0  0  0  0
 28 51  1  0  0  0  0
 29 32  2  0  0  0  0
 29 52  1  0  0  0  0
 30 32  1  0  0  0  0
 30 53  1  0  0  0  0
 31 54  1  0  0  0  0
 32 33  1  0  0  0  0
 33 36  1  0  0  0  0
 34 55  1  0  0  0  0
 34 56  1  0  0  0  0
 34 57  1  0  0  0  0
 35 58  1  0  0  0  0
 35 59  1  0  0  0  0
 35 60  1  0  0  0  0
 36 61  1  0  0  0  0
 36 62  1  0  0  0  0
 36 63  1  0  0  0  0
M  END
> <PUBCHEM_COMPOUND_CID>
11879575

> <PUBCHEM_CONFORMER_RMSD>
1.2

> <PUBCHEM_CONFORMER_DIVERSEORDER>
1
78
73
52
111
15
113
64
133
132
122
108
50
22
2
92
46
36
107
33
30
24
31
68
42
114
125
103
47
129
69
98
19
137
71
49
7
77
97
84
106
128
66
93
131
37
130
32
134
126
16
83
20
17
96
82
88
105
60
14
44
116
75
41
80
21
34
124
3
89
91
120
76
63
85
136
86
26
112
4
40
65
38
67
6
56
121
13
39
62
100
58
45
5
81
95
54
10
118
72
115
138
25
51
74
57
79
35
90
102
123
8
59
135
23
101
55
104
29
9
87
127
43
48
28
11
61
110
94
99
12
109
27
119
18
53
117
70

> <PUBCHEM_MMFF94_PARTIAL_CHARGES>
45
1 -0.56
11 -0.55
12 -0.84
13 0.28
14 0.28
15 0.26
16 0.3
17 0.28
18 0.28
19 0.25
2 -0.56
20 0.69
21 0.12
22 0.08
23 -0.15
24 -0.15
25 -0.15
26 -0.15
27 0.1
28 -0.15
29 -0.15
3 -0.15
30 -0.15
31 -0.15
32 0.09
33 0.42
34 0.37
35 0.37
36 0.06
4 -0.57
45 0.37
46 0.37
47 0.15
48 0.15
49 0.15
5 -0.57
50 0.15
51 0.15
52 0.15
53 0.15
54 0.15
6 0.31
7 -0.73
8 -0.42
9 -0.34

> <PUBCHEM_EFFECTIVE_ROTOR_COUNT>
10.2

> <PUBCHEM_PHARMACOPHORE_FEATURES>
13
1 1 acceptor
1 11 donor
1 12 cation
1 2 acceptor
1 4 acceptor
1 5 acceptor
1 7 donor
3 6 9 19 cation
5 1 13 14 15 17 rings
5 2 13 14 16 18 rings
5 6 8 9 10 19 rings
6 21 25 26 29 30 32 rings
6 22 23 24 27 28 31 rings

> <PUBCHEM_HEAVY_ATOM_COUNT>
36

> <PUBCHEM_ATOM_DEF_STEREO_COUNT>
4

> <PUBCHEM_ATOM_UDEF_STEREO_COUNT>
0

> <PUBCHEM_BOND_DEF_STEREO_COUNT>
0

> <PUBCHEM_BOND_UDEF_STEREO_COUNT>
0

> <PUBCHEM_ISOTOPIC_ATOM_COUNT>
0

> <PUBCHEM_COMPONENT_COUNT>
1

> <PUBCHEM_CACTVS_TAUTO_COUNT>
16

> <PUBCHEM_CONFORMER_ID>
00B5449700000001

> <PUBCHEM_MMFF94_ENERGY>
113.6232

> <PUBCHEM_FEATURE_SELFOVERLAP>
66.716

> <PUBCHEM_SHAPE_FINGERPRINT>
10 15 18260546693964400763
10625338 86 18187922834200491349
10920273 25 18413116064630715285
10952577 141 18343023319356561452
11386260 185 14979664529264163482
11399510 152 15286455692674879012
11409948 41 12751247969454063028
11607047 141 18116711821114030890
11621639 336 18269556031543968416
12013929 112 14979678759139933225
12120059 9 13830130590772187422
12125137 17 18343028774720089793
12218070 45 16226618510505121635
12539765 74 18343587343580048726
12758862 65 12901554524453452188
14201967 126 18410856568457967641
14394314 77 18262518220807371020
14617042 71 18412831261787469237
14664723 55 18342183249776669376
14747281 78 17968107426394417254
15064981 194 17703226338666422727
15183329 4 16487257686108433082
15198563 99 15338851845380505466
15320295 40 9151173147362695175
15347590 135 15285348527426132540
15350500 16 12468361250188543845
15392192 104 13479134576079121568
15510800 12 11242252892392492897
15840311 113 18409173177705748630
16993427 108 8286206032640584718
18738133 361 18202283559629549609
19302320 297 18260265253205198836
2026 5 9223234040220927669
20505436 4 18201710731203491183
20691028 202 18263639736000288636
21095123 293 18411419501478738113
21360443 89 8358262536758892068
23528940 14 9511200521377917620
25242607 90 12829498064655589925
2747138 104 14634862029590857670
3383291 50 12468645997946860505
3711267 37 18342185440537454081
406291 66 9007063460960928972
4408954 87 15791733001201682155
474113 269 10087648091355180876
54039377 194 8214137469694071435
5718773 13 9727641609185201646
57359948 33 17988931055305325108
5911458 16 18408886256668581020
6126387 218 14129054791340932639
6201320 82 17607538118641374900
636783 275 10809878797225790328
9689198 14 18334577953675084390
9953998 17 17458064872478225579
9962374 69 13407091322815954659

> <PUBCHEM_SHAPE_MULTIPOLES>
676.65
35.3
4.02
1.65
32.9
1.92
-0.15
43.84
-5.94
-2.75
1.36
-0.63
-0.35
-3.82

> <PUBCHEM_SHAPE_SELFOVERLAP>
1463.872

> <PUBCHEM_SHAPE_VOLUME>
371.2

> <PUBCHEM_COORDINATE_TYPE>
2
5
10

$$$$
