51136650
  -OEChem-12032416143D

 64 66  0     1  0  0  0  0  0999 V2000
   -0.8022   -3.5328    1.3722 O   0  0  0  0  0  0  0  0  0  0  0  0
   -5.7123    3.1327    1.0561 O   0  0  0  0  0  0  0  0  0  0  0  0
   -6.1693    1.0050    0.3892 O   0  0  0  0  0  0  0  0  0  0  0  0
    5.5085    1.4014    1.2033 O   0  0  0  0  0  0  0  0  0  0  0  0
   -1.7341   -1.9152   -0.0105 N   0  0  0  0  0  0  0  0  0  0  0  0
   -0.0521    1.8581   -1.9400 N   0  0  0  0  0  0  0  0  0  0  0  0
   -2.0378    0.4503   -0.7077 C   0  0  2  0  0  0  0  0  0  0  0  0
   -3.4290    0.4342   -0.0244 C   0  0  1  0  0  0  0  0  0  0  0  0
   -1.6497   -0.9765   -1.1367 C   0  0  0  0  0  0  0  0  0  0  0  0
   -3.4876   -0.5978    1.1146 C   0  0  0  0  0  0  0  0  0  0  0  0
   -3.0446   -1.9779    0.6360 C   0  0  0  0  0  0  0  0  0  0  0  0
   -0.9283    1.0683    0.1521 C   0  0  0  0  0  0  0  0  0  0  0  0
   -3.8703    1.8108    0.4723 C   0  0  0  0  0  0  0  0  0  0  0  0
   -0.6977   -2.7325    0.4391 C   0  0  0  0  0  0  0  0  0  0  0  0
    0.2191    1.5041   -0.7272 C   0  0  0  0  0  0  0  0  0  0  0  0
    0.6226   -2.6062   -0.2782 C   0  0  0  0  0  0  0  0  0  0  0  0
   -5.3644    1.8950    0.6191 C   0  0  0  0  0  0  0  0  0  0  0  0
    1.5936    1.4986   -0.1644 C   0  0  0  0  0  0  0  0  0  0  0  0
    1.7573   -2.9042    0.7091 C   0  0  0  0  0  0  0  0  0  0  0  0
    0.6541   -3.5859   -1.4570 C   0  0  0  0  0  0  0  0  0  0  0  0
    2.6512    1.5262   -1.0823 C   0  0  0  0  0  0  0  0  0  0  0  0
    1.0538    2.3389   -2.7750 C   0  0  0  0  0  0  0  0  0  0  0  0
    2.3331    1.5441   -2.5479 C   0  0  0  0  0  0  0  0  0  0  0  0
    1.8475    1.4536    1.2077 C   0  0  0  0  0  0  0  0  0  0  0  0
    3.1386   -2.7503    0.0849 C   0  0  0  0  0  0  0  0  0  0  0  0
    0.5413   -5.0403   -1.0171 C   0  0  0  0  0  0  0  0  0  0  0  0
    3.9688    1.4820   -0.6182 C   0  0  0  0  0  0  0  0  0  0  0  0
    3.1667    1.4256    1.6621 C   0  0  0  0  0  0  0  0  0  0  0  0
    4.2244    1.4369    0.7524 C   0  0  0  0  0  0  0  0  0  0  0  0
    5.6988    1.3538    2.6165 C   0  0  0  0  0  0  0  0  0  0  0  0
   -2.1817    1.0362   -1.6242 H   0  0  0  0  0  0  0  0  0  0  0  0
   -4.1403    0.1008   -0.7948 H   0  0  0  0  0  0  0  0  0  0  0  0
   -0.6924   -0.9839   -1.6543 H   0  0  0  0  0  0  0  0  0  0  0  0
   -2.3755   -1.3346   -1.8794 H   0  0  0  0  0  0  0  0  0  0  0  0
   -4.5002   -0.6735    1.5252 H   0  0  0  0  0  0  0  0  0  0  0  0
   -2.8353   -0.2778    1.9371 H   0  0  0  0  0  0  0  0  0  0  0  0
   -3.0297   -2.6730    1.4814 H   0  0  0  0  0  0  0  0  0  0  0  0
   -3.7544   -2.3746   -0.0995 H   0  0  0  0  0  0  0  0  0  0  0  0
   -0.5968    0.3612    0.9173 H   0  0  0  0  0  0  0  0  0  0  0  0
   -1.2732    1.9737    0.6616 H   0  0  0  0  0  0  0  0  0  0  0  0
   -3.4159    2.0455    1.4412 H   0  0  0  0  0  0  0  0  0  0  0  0
   -3.5777    2.5776   -0.2548 H   0  0  0  0  0  0  0  0  0  0  0  0
    0.7942   -1.5866   -0.6251 H   0  0  0  0  0  0  0  0  0  0  0  0
    1.6758   -3.8945    1.1705 H   0  0  0  0  0  0  0  0  0  0  0  0
    1.6852   -2.1908    1.5418 H   0  0  0  0  0  0  0  0  0  0  0  0
   -0.1803   -3.3710   -2.1359 H   0  0  0  0  0  0  0  0  0  0  0  0
    1.5657   -3.4515   -2.0493 H   0  0  0  0  0  0  0  0  0  0  0  0
    2.2088    0.5107   -2.8932 H   0  0  0  0  0  0  0  0  0  0  0  0
    3.1497    1.9985   -3.1200 H   0  0  0  0  0  0  0  0  0  0  0  0
    0.7601    2.2526   -3.8269 H   0  0  0  0  0  0  0  0  0  0  0  0
    1.2139    3.4057   -2.5744 H   0  0  0  0  0  0  0  0  0  0  0  0
    1.0466    1.4538    1.9401 H   0  0  0  0  0  0  0  0  0  0  0  0
    3.2411   -1.7850   -0.4202 H   0  0  0  0  0  0  0  0  0  0  0  0
    3.9067   -2.8042    0.8636 H   0  0  0  0  0  0  0  0  0  0  0  0
    3.3493   -3.5456   -0.6356 H   0  0  0  0  0  0  0  0  0  0  0  0
    0.5304   -5.6819   -1.9057 H   0  0  0  0  0  0  0  0  0  0  0  0
    1.3917   -5.3629   -0.4111 H   0  0  0  0  0  0  0  0  0  0  0  0
   -0.3839   -5.2444   -0.4721 H   0  0  0  0  0  0  0  0  0  0  0  0
    4.7968    1.4838   -1.3227 H   0  0  0  0  0  0  0  0  0  0  0  0
   -6.6832    3.2230    1.1635 H   0  0  0  0  0  0  0  0  0  0  0  0
    3.2980    1.3944    2.7385 H   0  0  0  0  0  0  0  0  0  0  0  0
    6.7785    1.3290    2.7964 H   0  0  0  0  0  0  0  0  0  0  0  0
    5.2822    0.4373    3.0480 H   0  0  0  0  0  0  0  0  0  0  0  0
    5.3142    2.2554    3.1051 H   0  0  0  0  0  0  0  0  0  0  0  0
  1 14  2  0  0  0  0
  2 17  1  0  0  0  0
  2 60  1  0  0  0  0
  3 17  2  0  0  0  0
  4 29  1  0  0  0  0
  4 30  1  0  0  0  0
  5  9  1  0  0  0  0
  5 11  1  0  0  0  0
  5 14  1  0  0  0  0
  6 15  2  0  0  0  0
  6 22  1  0  0  0  0
  7  8  1  0  0  0  0
  7  9  1  0  0  0  0
  7 12  1  0  0  0  0
  7 31  1  0  0  0  0
  8 10  1  0  0  0  0
  8 13  1  0  0  0  0
  8 32  1  0  0  0  0
  9 33  1  0  0  0  0
  9 34  1  0  0  0  0
 10 11  1  0  0  0  0
 10 35  1  0  0  0  0
 10 36  1  0  0  0  0
 11 37  1  0  0  0  0
 11 38  1  0  0  0  0
 12 15  1  0  0  0  0
 12 39  1  0  0  0  0
 12 40  1  0  0  0  0
 13 17  1  0  0  0  0
 13 41  1  0  0  0  0
 13 42  1  0  0  0  0
 14 16  1  0  0  0  0
 15 18  1  0  0  0  0
 16 19  1  0  0  0  0
 16 20  1  0  0  0  0
 16 43  1  0  0  0  0
 18 21  2  0  0  0  0
 18 24  1  0  0  0  0
 19 25  1  0  0  0  0
 19 44  1  0  0  0  0
 19 45  1  0  0  0  0
 20 26  1  0  0  0  0
 20 46  1  0  0  0  0
 20 47  1  0  0  0  0
 21 23  1  0  0  0  0
 21 27  1  0  0  0  0
 22 23  1  0  0  0  0
 22 50  1  0  0  0  0
 22 51  1  0  0  0  0
 23 48  1  0  0  0  0
 23 49  1  0  0  0  0
 24 28  2  0  0  0  0
 24 52  1  0  0  0  0
 25 53  1  0  0  0  0
 25 54  1  0  0  0  0
 25 55  1  0  0  0  0
 26 56  1  0  0  0  0
 26 57  1  0  0  0  0
 26 58  1  0  0  0  0
 27 29  2  0  0  0  0
 27 59  1  0  0  0  0
 28 29  1  0  0  0  0
 28 61  1  0  0  0  0
 30 62  1  0  0  0  0
 30 63  1  0  0  0  0
 30 64  1  0  0  0  0
M  END
> <PUBCHEM_COMPOUND_CID>
51136650

> <PUBCHEM_CONFORMER_RMSD>
1

> <PUBCHEM_CONFORMER_DIVERSEORDER>
1
40
64
76
152
59
114
15
63
7
94
68
99
92
106
97
55
124
138
121
88
75
74
62
36
16
145
61
72
3
144
149
28
48
141
83
80
91
24
100
2
93
128
4
20
98
134
12
33
77
71
29
84
105
153
89
53
130
129
18
58
38
46
81
120
14
142
110
101
26
123
107
136
23
79
86
70
148
51
9
65
87
50
104
73
109
6
5
90
119
22
96
54
126
25
147
52
151
78
140
27
67
127
10
133
32
150
85
66
131
39
45
115
103
102
42
135
112
37
146
116
137
30
47
111
69
95
113
143
117
122
139
8
43
154
118
35
132
34
13
11
57
60
125
41
82
108
19
21
44
17
31
56
49

> <PUBCHEM_MMFF94_PARTIAL_CHARGES>
27
1 -0.57
11 0.3
12 0.06
13 0.06
14 0.57
15 0.3
16 0.06
17 0.66
18 0.09
2 -0.65
21 -0.14
22 0.25
23 0.14
24 -0.15
27 -0.15
28 -0.15
29 0.08
3 -0.57
30 0.28
4 -0.36
5 -0.66
52 0.15
59 0.15
6 -0.7
60 0.5
61 0.15
9 0.3

> <PUBCHEM_EFFECTIVE_ROTOR_COUNT>
10.6

> <PUBCHEM_PHARMACOPHORE_FEATURES>
11
1 1 acceptor
1 2 acceptor
1 25 hydrophobe
1 26 hydrophobe
1 3 acceptor
1 4 acceptor
1 6 acceptor
3 2 3 17 anion
6 18 21 24 27 28 29 rings
6 5 7 8 9 10 11 rings
6 6 15 18 21 22 23 rings

> <PUBCHEM_HEAVY_ATOM_COUNT>
30

> <PUBCHEM_ATOM_DEF_STEREO_COUNT>
2

> <PUBCHEM_ATOM_UDEF_STEREO_COUNT>
0

> <PUBCHEM_BOND_DEF_STEREO_COUNT>
0

> <PUBCHEM_BOND_UDEF_STEREO_COUNT>
0

> <PUBCHEM_ISOTOPIC_ATOM_COUNT>
0

> <PUBCHEM_COMPONENT_COUNT>
1

> <PUBCHEM_CACTVS_TAUTO_COUNT>
1

> <PUBCHEM_CONFORMER_ID>
030C488A00000001

> <PUBCHEM_MMFF94_ENERGY>
81.2695

> <PUBCHEM_FEATURE_SELFOVERLAP>
55.904

> <PUBCHEM_SHAPE_FINGERPRINT>
11049842 53 18191612846003201924
11513181 2 18130783477883759294
11582403 64 17203028764415209305
12156800 1 14423257859881881434
12422481 6 18189038842507039984
12633257 1 17095241453601010737
12788726 201 17542804439124486527
13140716 1 18336826394666368155
13692114 37 18340488975921720071
13726171 33 17900289651302140204
14178342 30 18336547230381478085
14466204 15 18413107269039022265
14840074 17 17894903053969853688
15420108 30 18342163475557613974
16110190 28 18041833034831178016
16752209 62 18121791783544468863
17492 54 17681309627171393262
20554085 129 18202271499249572921
20691752 17 17967529047536268999
20739085 24 18188217476824069437
21033648 29 18201722902770899408
22149856 69 18267611078069510265
22182313 1 17751913623713622477
23419403 2 17831005841627442309
23558518 356 18334304197245617979
23559900 14 18191887651301707951
338550 245 18261121797926008063
3411729 13 18339361855926985545
35225 105 17909008816721315275
4340502 62 18343581828525074112
469060 322 11749460067164653185
513532 50 17987807310401095348
5171179 24 17761206614582346005
5265222 85 18051429636901126908
5385378 56 18269567052793312649
7064713 232 18337103566312422280

> <PUBCHEM_SHAPE_MULTIPOLES>
583.95
10.1
5.2
2.08
4.76
7.46
-0.69
-10.29
6.75
0.23
-0.85
-2.39
-1.23
-0.06

> <PUBCHEM_SHAPE_SELFOVERLAP>
1217.691

> <PUBCHEM_SHAPE_VOLUME>
329.6

> <PUBCHEM_COORDINATE_TYPE>
2
5
10

$$$$
