11866366
  -OEChem-12032416153D

 49 50  0     1  0  0  0  0  0999 V2000
    6.7588    2.2229    1.2410 Cl  0  0  0  0  0  0  0  0  0  0  0  0
    7.0874    1.4597   -1.6054 F   0  0  0  0  0  0  0  0  0  0  0  0
   -2.1215   -1.3842    2.3496 O   0  0  0  0  0  0  0  0  0  0  0  0
    0.2776   -3.3899   -0.9259 O   0  0  0  0  0  0  0  0  0  0  0  0
   -2.5187   -3.3449   -1.4611 O   0  0  0  0  0  0  0  0  0  0  0  0
   -3.5914    0.6759    2.5559 O   0  0  0  0  0  0  0  0  0  0  0  0
    2.4165   -0.7602    1.9564 O   0  0  0  0  0  0  0  0  0  0  0  0
   -4.6450    1.5806   -2.1818 O   0  0  0  0  0  0  0  0  0  0  0  0
    1.3965   -0.8248   -0.1248 N   0  0  0  0  0  0  0  0  0  0  0  0
   -3.2192    1.3821    0.3692 N   0  0  0  0  0  0  0  0  0  0  0  0
   -6.9086    1.5203   -1.7860 N   0  0  0  0  0  0  0  0  0  0  0  0
   -2.1851   -0.6372    1.1403 C   0  0  1  0  0  0  0  0  0  0  0  0
    0.1210   -1.3330    0.3305 C   0  0  1  0  0  0  0  0  0  0  0  0
   -0.7891   -0.1659    0.7280 C   0  0  0  0  0  0  0  0  0  0  0  0
   -0.5227   -2.2183   -0.7448 C   0  0  2  0  0  0  0  0  0  0  0  0
   -2.8224   -1.5002    0.0532 C   0  0  0  0  0  0  0  0  0  0  0  0
   -1.9284   -2.6750   -0.3468 C   0  0  1  0  0  0  0  0  0  0  0  0
   -3.0678    0.5353    1.4538 C   0  0  0  0  0  0  0  0  0  0  0  0
    2.4483   -0.5794    0.7419 C   0  0  0  0  0  0  0  0  0  0  0  0
   -4.0382    2.5722    0.4037 C   0  0  0  0  0  0  0  0  0  0  0  0
    3.6829   -0.0336    0.1215 C   0  0  0  0  0  0  0  0  0  0  0  0
   -5.4755    2.2948   -0.0144 C   0  0  0  0  0  0  0  0  0  0  0  0
    4.5276    0.7420    0.8882 C   0  0  0  0  0  0  0  0  0  0  0  0
    3.9459   -0.3215   -1.2017 C   0  0  0  0  0  0  0  0  0  0  0  0
   -5.5987    1.7636   -1.4311 C   0  0  0  0  0  0  0  0  0  0  0  0
    5.6876    1.2526    0.3056 C   0  0  0  0  0  0  0  0  0  0  0  0
    5.1057    0.1894   -1.7844 C   0  0  0  0  0  0  0  0  0  0  0  0
    5.9766    0.9763   -1.0307 C   0  0  0  0  0  0  0  0  0  0  0  0
    0.3171   -1.9497    1.2178 H   0  0  0  0  0  0  0  0  0  0  0  0
   -0.8292    0.5418   -0.1092 H   0  0  0  0  0  0  0  0  0  0  0  0
   -0.3252    0.3788    1.5617 H   0  0  0  0  0  0  0  0  0  0  0  0
   -0.5486   -1.6952   -1.7095 H   0  0  0  0  0  0  0  0  0  0  0  0
   -3.7897   -1.8978    0.3896 H   0  0  0  0  0  0  0  0  0  0  0  0
   -3.0517   -0.9191   -0.8492 H   0  0  0  0  0  0  0  0  0  0  0  0
   -1.8776   -3.4019    0.4732 H   0  0  0  0  0  0  0  0  0  0  0  0
    1.4537   -0.5397   -1.0967 H   0  0  0  0  0  0  0  0  0  0  0  0
   -3.0033   -1.7523    2.5309 H   0  0  0  0  0  0  0  0  0  0  0  0
   -0.0448   -3.8472   -1.7205 H   0  0  0  0  0  0  0  0  0  0  0  0
   -2.0329   -4.1755   -1.5976 H   0  0  0  0  0  0  0  0  0  0  0  0
   -2.7653    1.1711   -0.5131 H   0  0  0  0  0  0  0  0  0  0  0  0
   -4.0205    2.9880    1.4168 H   0  0  0  0  0  0  0  0  0  0  0  0
   -3.5739    3.2994   -0.2711 H   0  0  0  0  0  0  0  0  0  0  0  0
   -5.9283    1.5603    0.6627 H   0  0  0  0  0  0  0  0  0  0  0  0
   -6.0587    3.2205    0.0552 H   0  0  0  0  0  0  0  0  0  0  0  0
    4.3014    0.9625    1.9281 H   0  0  0  0  0  0  0  0  0  0  0  0
    3.3133   -0.9578   -1.8119 H   0  0  0  0  0  0  0  0  0  0  0  0
    5.3354   -0.0315   -2.8226 H   0  0  0  0  0  0  0  0  0  0  0  0
   -7.6824    1.6823   -1.1495 H   0  0  0  0  0  0  0  0  0  0  0  0
   -7.1421    1.1653   -2.7073 H   0  0  0  0  0  0  0  0  0  0  0  0
  1 26  1  0  0  0  0
  2 28  1  0  0  0  0
  3 12  1  0  0  0  0
  3 37  1  0  0  0  0
  4 15  1  0  0  0  0
  4 38  1  0  0  0  0
  5 17  1  0  0  0  0
  5 39  1  0  0  0  0
  6 18  2  0  0  0  0
  7 19  2  0  0  0  0
  8 25  2  0  0  0  0
  9 13  1  0  0  0  0
  9 19  1  0  0  0  0
  9 36  1  0  0  0  0
 10 18  1  0  0  0  0
 10 20  1  0  0  0  0
 10 40  1  0  0  0  0
 11 25  1  0  0  0  0
 11 48  1  0  0  0  0
 11 49  1  0  0  0  0
 12 14  1  0  0  0  0
 12 16  1  0  0  0  0
 12 18  1  0  0  0  0
 13 14  1  0  0  0  0
 13 15  1  0  0  0  0
 13 29  1  0  0  0  0
 14 30  1  0  0  0  0
 14 31  1  0  0  0  0
 15 17  1  0  0  0  0
 15 32  1  0  0  0  0
 16 17  1  0  0  0  0
 16 33  1  0  0  0  0
 16 34  1  0  0  0  0
 17 35  1  0  0  0  0
 19 21  1  0  0  0  0
 20 22  1  0  0  0  0
 20 41  1  0  0  0  0
 20 42  1  0  0  0  0
 21 23  2  0  0  0  0
 21 24  1  0  0  0  0
 22 25  1  0  0  0  0
 22 43  1  0  0  0  0
 22 44  1  0  0  0  0
 23 26  1  0  0  0  0
 23 45  1  0  0  0  0
 24 27  2  0  0  0  0
 24 46  1  0  0  0  0
 26 28  2  0  0  0  0
 27 28  1  0  0  0  0
 27 47  1  0  0  0  0
M  END
> <PUBCHEM_COMPOUND_CID>
11866366

> <PUBCHEM_CONFORMER_RMSD>
1

> <PUBCHEM_CONFORMER_DIVERSEORDER>
1
261
278
202
91
204
217
216
251
228
229
119
171
272
258
224
104
96
125
36
93
279
248
164
76
52
103
246
254
249
155
72
45
156
187
124
194
86
173
131
265
175
114
101
21
280
28
174
55
144
177
85
77
157
242
212
57
19
268
128
15
214
219
165
252
43
227
143
243
74
121
281
73
244
71
94
54
182
69
107
132
58
105
277
67
83
116
4
205
158
259
123
241
270
257
66
47
120
193
70
140
137
115
102
218
215
250
183
138
276
203
63
160
16
146
41
60
221
122
273
6
231
178
39
109
53
222
255
239
230
199
264
50
118
184
223
92
269
161
38
213
65
233
235
225
166
12
133
62
180
106
142
145
210
168
154
42
152
206
186
181
84
24
79
232
7
275
113
196
61
134
95
253
198
88
29
90
17
208
209
126
68
262
98
159
162
11
207
46
172
263
32
169
274
260
108
81
64
110
18
89
167
247
100
192
234
151
25
245
129
117
195
163
127
130
34
189
37
97
150
49
99
20
136
179
31
148
170
190
197
5
40
191
35
267
211
80
176
112
9
256
147
30
201
111
185
220
200
188
271
56
75
59
78
237
153
27
14
139
10
240
82
44
149
141
22
238
135
33
13
236
226
48
3
26
51
2
23
266
8
87

> <PUBCHEM_MMFF94_PARTIAL_CHARGES>
36
1 -0.18
10 -0.73
11 -0.8
12 0.34
13 0.3
15 0.28
17 0.28
18 0.57
19 0.54
2 -0.19
20 0.3
21 0.09
22 0.06
23 -0.15
24 -0.15
25 0.57
26 0.18
27 -0.15
28 0.19
3 -0.68
36 0.37
37 0.4
38 0.4
39 0.4
4 -0.68
40 0.37
45 0.15
46 0.15
47 0.15
48 0.37
49 0.37
5 -0.68
6 -0.57
7 -0.57
8 -0.57
9 -0.73

> <PUBCHEM_EFFECTIVE_ROTOR_COUNT>
9.2

> <PUBCHEM_PHARMACOPHORE_FEATURES>
14
1 10 donor
1 11 donor
1 3 acceptor
1 3 donor
1 4 acceptor
1 4 donor
1 5 acceptor
1 5 donor
1 6 acceptor
1 7 acceptor
1 8 acceptor
1 9 donor
6 12 13 14 15 16 17 rings
6 21 23 24 26 27 28 rings

> <PUBCHEM_HEAVY_ATOM_COUNT>
28

> <PUBCHEM_ATOM_DEF_STEREO_COUNT>
4

> <PUBCHEM_ATOM_UDEF_STEREO_COUNT>
0

> <PUBCHEM_BOND_DEF_STEREO_COUNT>
0

> <PUBCHEM_BOND_UDEF_STEREO_COUNT>
0

> <PUBCHEM_ISOTOPIC_ATOM_COUNT>
0

> <PUBCHEM_COMPONENT_COUNT>
1

> <PUBCHEM_CACTVS_TAUTO_COUNT>
8

> <PUBCHEM_CONFORMER_ID>
00B510FE00000001

> <PUBCHEM_MMFF94_ENERGY>
59.1316

> <PUBCHEM_FEATURE_SELFOVERLAP>
71.076

> <PUBCHEM_SHAPE_FINGERPRINT>
10498660 4 18272374170086730760
105312 117 18413110550061038327
10554248 39 18130230359489409526
10591671 39 18410296926102883807
10674148 151 15051727565700757439
11370993 144 16298386842631680082
11961588 58 18411692171613522097
12166972 35 12247673877309665762
12422481 6 13551473622880620195
12717326 150 13684923539408609421
12969540 114 18343304738503919449
13103583 49 11314609558463272725
13257819 101 17822569405092842071
13257819 37 18272927220420486439
13782708 43 11311185722294131189
13911987 19 18341894057207977585
14211702 104 10447664469810591516
14251764 30 13254209719857854557
14904525 67 17677624223462754596
14930077 153 17985538086237718125
14950920 106 15213595549411231664
14951699 99 16660656106741160660
15513586 35 17682423655261608448
15575132 122 18410014364167176783
16994733 274 18189893116288817977
17492 54 18339909430293320589
20775438 99 14258487155987715845
21033648 29 18341898510946554720
21344244 181 15913028946830612975
21756936 100 18041290966845005458
22122407 14 17386016116581023404
255183 451 17266080465760791391
2748736 6 18260545584982552348
2838139 119 18266455412926605617
312425 54 13984668057393372592
4015057 19 16343708763826949466
439807 62 14045741508757941541
44249763 50 18341321297375308752
445580 182 13479132363706831341
463206 1 9727046751519708052
474113 269 8069728691209442649
5104073 3 15213299781215831136
563151 74 16805591539128549899
6086070 43 18201711878148545640
6327066 14 18409727331487194821
7970288 3 8718530714827622185

> <PUBCHEM_SHAPE_MULTIPOLES>
520.66
17.12
3.19
2.04
12.24
1.67
-0.15
-17.24
6.54
-3.46
0.86
-1
-0.34
1.21

> <PUBCHEM_SHAPE_SELFOVERLAP>
1084.998

> <PUBCHEM_SHAPE_VOLUME>
296.4

> <PUBCHEM_COORDINATE_TYPE>
2
5
10

$$$$
