7142733
  -OEChem-12032416223D

 57 61  0     1  0  0  0  0  0999 V2000
    2.0185    2.1186    1.6470 O   0  0  0  0  0  0  0  0  0  0  0  0
   -3.1211    0.6985    2.1431 O   0  0  0  0  0  0  0  0  0  0  0  0
   -3.3291   -1.4862    0.8885 O   0  0  0  0  0  0  0  0  0  0  0  0
    3.0068   -1.4818   -1.4461 O   0  0  0  0  0  0  0  0  0  0  0  0
   -2.8155    2.0533    0.2804 N   0  0  0  0  0  0  0  0  0  0  0  0
    0.3259    2.6266    0.1182 N   0  0  0  0  0  0  0  0  0  0  0  0
    3.2656    0.3835   -0.0807 N   0  0  0  0  0  0  0  0  0  0  0  0
    7.2892   -2.4466    0.8668 N   0  0  0  0  0  0  0  0  0  0  0  0
   -1.6110    4.2067    0.6706 C   0  0  1  0  0  0  0  0  0  0  0  0
   -1.5041    3.1321   -1.5385 C   0  0  2  0  0  0  0  0  0  0  0  0
   -1.6333    4.4782   -0.8287 C   0  0  0  0  0  0  0  0  0  0  0  0
   -2.7774    3.2861    1.0694 C   0  0  0  0  0  0  0  0  0  0  0  0
   -0.2501    3.6086    1.0465 C   0  0  0  0  0  0  0  0  0  0  0  0
   -2.7056    2.2383   -1.1744 C   0  0  0  0  0  0  0  0  0  0  0  0
   -0.2107    2.4358   -1.1591 C   0  0  0  0  0  0  0  0  0  0  0  0
    0.4002    1.6188   -2.0336 C   0  0  0  0  0  0  0  0  0  0  0  0
    1.4994    1.9694    0.5399 C   0  0  0  0  0  0  0  0  0  0  0  0
   -3.0319    0.8326    0.9200 C   0  0  0  0  0  0  0  0  0  0  0  0
    2.1354    1.0488   -0.4551 C   0  0  0  0  0  0  0  0  0  0  0  0
    1.5959    0.9118   -1.6710 C   0  0  0  0  0  0  0  0  0  0  0  0
   -3.1529   -0.3818    0.0347 C   0  0  0  0  0  0  0  0  0  0  0  0
    3.6357   -0.8489   -0.6015 C   0  0  0  0  0  0  0  0  0  0  0  0
   -4.0189   -2.5684    0.3889 C   0  0  0  0  0  0  0  0  0  0  0  0
    4.9134   -1.4078   -0.0879 C   0  0  0  0  0  0  0  0  0  0  0  0
   -3.9658   -2.8420   -0.9697 C   0  0  0  0  0  0  0  0  0  0  0  0
   -4.7547   -3.3651    1.2532 C   0  0  0  0  0  0  0  0  0  0  0  0
    5.6313   -2.2684   -0.8838 C   0  0  0  0  0  0  0  0  0  0  0  0
    5.3404   -1.0478    1.1681 C   0  0  0  0  0  0  0  0  0  0  0  0
   -4.6652   -3.9377   -1.4758 C   0  0  0  0  0  0  0  0  0  0  0  0
   -5.4540   -4.4607    0.7471 C   0  0  0  0  0  0  0  0  0  0  0  0
   -5.4092   -4.7470   -0.6175 C   0  0  0  0  0  0  0  0  0  0  0  0
    6.8153   -2.7616   -0.3596 C   0  0  0  0  0  0  0  0  0  0  0  0
    6.5374   -1.5956    1.6006 C   0  0  0  0  0  0  0  0  0  0  0  0
   -1.7334    5.1504    1.2165 H   0  0  0  0  0  0  0  0  0  0  0  0
   -1.5231    3.3135   -2.6211 H   0  0  0  0  0  0  0  0  0  0  0  0
   -0.8129    5.1490   -1.1127 H   0  0  0  0  0  0  0  0  0  0  0  0
   -2.5685    4.9748   -1.1146 H   0  0  0  0  0  0  0  0  0  0  0  0
   -2.7310    3.0597    2.1400 H   0  0  0  0  0  0  0  0  0  0  0  0
   -3.7309    3.7994    0.8935 H   0  0  0  0  0  0  0  0  0  0  0  0
    0.4854    4.4224    1.1083 H   0  0  0  0  0  0  0  0  0  0  0  0
   -0.2895    3.1621    2.0481 H   0  0  0  0  0  0  0  0  0  0  0  0
   -2.6367    1.2839   -1.7013 H   0  0  0  0  0  0  0  0  0  0  0  0
   -3.6390    2.7125   -1.5022 H   0  0  0  0  0  0  0  0  0  0  0  0
   -0.0006    1.4493   -3.0275 H   0  0  0  0  0  0  0  0  0  0  0  0
    2.0272    0.3149   -2.4652 H   0  0  0  0  0  0  0  0  0  0  0  0
   -2.2262   -0.5103   -0.5338 H   0  0  0  0  0  0  0  0  0  0  0  0
   -4.0159   -0.2244   -0.6237 H   0  0  0  0  0  0  0  0  0  0  0  0
    3.7513    0.7738    0.7196 H   0  0  0  0  0  0  0  0  0  0  0  0
   -3.3784   -2.2499   -1.6645 H   0  0  0  0  0  0  0  0  0  0  0  0
   -4.7916   -3.1443    2.3159 H   0  0  0  0  0  0  0  0  0  0  0  0
    5.3121   -2.5588   -1.8780 H   0  0  0  0  0  0  0  0  0  0  0  0
    4.7935   -0.4080    1.8484 H   0  0  0  0  0  0  0  0  0  0  0  0
   -4.6262   -4.1643   -2.5373 H   0  0  0  0  0  0  0  0  0  0  0  0
   -6.0331   -5.0912    1.4154 H   0  0  0  0  0  0  0  0  0  0  0  0
   -5.9526   -5.6010   -1.0113 H   0  0  0  0  0  0  0  0  0  0  0  0
    7.4344   -3.4444   -0.9321 H   0  0  0  0  0  0  0  0  0  0  0  0
    6.9311   -1.3644    2.5850 H   0  0  0  0  0  0  0  0  0  0  0  0
  1 17  2  0  0  0  0
  2 18  2  0  0  0  0
  3 21  1  0  0  0  0
  3 23  1  0  0  0  0
  4 22  2  0  0  0  0
  5 12  1  0  0  0  0
  5 14  1  0  0  0  0
  5 18  1  0  0  0  0
  6 13  1  0  0  0  0
  6 15  1  0  0  0  0
  6 17  1  0  0  0  0
  7 19  1  0  0  0  0
  7 22  1  0  0  0  0
  7 48  1  0  0  0  0
  8 32  2  0  0  0  0
  8 33  1  0  0  0  0
  9 11  1  0  0  0  0
  9 12  1  0  0  0  0
  9 13  1  0  0  0  0
  9 34  1  0  0  0  0
 10 11  1  0  0  0  0
 10 14  1  0  0  0  0
 10 15  1  0  0  0  0
 10 35  1  0  0  0  0
 11 36  1  0  0  0  0
 11 37  1  0  0  0  0
 12 38  1  0  0  0  0
 12 39  1  0  0  0  0
 13 40  1  0  0  0  0
 13 41  1  0  0  0  0
 14 42  1  0  0  0  0
 14 43  1  0  0  0  0
 15 16  2  0  0  0  0
 16 20  1  0  0  0  0
 16 44  1  0  0  0  0
 17 19  1  0  0  0  0
 18 21  1  0  0  0  0
 19 20  2  0  0  0  0
 20 45  1  0  0  0  0
 21 46  1  0  0  0  0
 21 47  1  0  0  0  0
 22 24  1  0  0  0  0
 23 25  2  0  0  0  0
 23 26  1  0  0  0  0
 24 27  2  0  0  0  0
 24 28  1  0  0  0  0
 25 29  1  0  0  0  0
 25 49  1  0  0  0  0
 26 30  2  0  0  0  0
 26 50  1  0  0  0  0
 27 32  1  0  0  0  0
 27 51  1  0  0  0  0
 28 33  2  0  0  0  0
 28 52  1  0  0  0  0
 29 31  2  0  0  0  0
 29 53  1  0  0  0  0
 30 31  1  0  0  0  0
 30 54  1  0  0  0  0
 31 55  1  0  0  0  0
 32 56  1  0  0  0  0
 33 57  1  0  0  0  0
M  END
> <PUBCHEM_COMPOUND_CID>
7142733

> <PUBCHEM_CONFORMER_RMSD>
1

> <PUBCHEM_CONFORMER_DIVERSEORDER>
1
5
16
26
29
13
15
19
12
18
21
20
9
25
30
6
27
10
11
4
17
14
22
7
24
23
2
3
8
28

> <PUBCHEM_MMFF94_PARTIAL_CHARGES>
43
1 -0.57
10 0.14
12 0.3
13 0.3
14 0.3
15 -0.03
16 -0.15
17 0.62
18 0.57
19 0.12
2 -0.57
20 -0.15
21 0.34
22 0.54
23 0.08
24 0.09
25 -0.15
26 -0.15
27 -0.15
28 -0.15
29 -0.15
3 -0.36
30 -0.15
31 -0.15
32 0.16
33 0.16
4 -0.57
44 0.15
45 0.15
48 0.37
49 0.15
5 -0.66
50 0.15
51 0.15
52 0.15
53 0.15
54 0.15
55 0.15
56 0.15
57 0.15
6 -0.47
7 -0.54
8 -0.62

> <PUBCHEM_EFFECTIVE_ROTOR_COUNT>
8

> <PUBCHEM_PHARMACOPHORE_FEATURES>
11
1 1 acceptor
1 2 acceptor
1 3 acceptor
1 4 acceptor
1 7 donor
1 8 acceptor
6 23 25 26 29 30 31 rings
6 5 9 10 11 12 14 rings
6 6 15 16 17 19 20 rings
6 6 9 10 11 13 15 rings
6 8 24 27 28 32 33 rings

> <PUBCHEM_HEAVY_ATOM_COUNT>
33

> <PUBCHEM_ATOM_DEF_STEREO_COUNT>
2

> <PUBCHEM_ATOM_UDEF_STEREO_COUNT>
0

> <PUBCHEM_BOND_DEF_STEREO_COUNT>
0

> <PUBCHEM_BOND_UDEF_STEREO_COUNT>
0

> <PUBCHEM_ISOTOPIC_ATOM_COUNT>
0

> <PUBCHEM_COMPONENT_COUNT>
1

> <PUBCHEM_CACTVS_TAUTO_COUNT>
2

> <PUBCHEM_CONFORMER_ID>
006CFD4D00000001

> <PUBCHEM_MMFF94_ENERGY>
104.4493

> <PUBCHEM_FEATURE_SELFOVERLAP>
57.404

> <PUBCHEM_SHAPE_FINGERPRINT>
10290309 65 17760937238222520295
10622 236 18260271879611736206
11069576 57 17830179361096890813
11135609 149 17980178006313618703
11227150 75 17342914247835741023
11497681 19 18335988645037911414
11524674 6 17974854969206365809
11607047 403 17979631557551013568
12202916 173 17987506019126068525
12977781 61 18122879140436565317
13947947 140 18343308062893937915
14114206 34 16660641838949577469
14344974 204 18410854322902182862
14347329 18 8790877467944318438
14429380 30 18336267937306962042
14674994 50 18261667074463871749
14844126 61 18263651671192314577
14856354 85 18197499528833298620
14863182 85 17402897116735714073
15803439 3 17246645106979289661
17324776 126 18266729354553057782
19315092 285 17772761699689220187
19611394 137 18200585901232972210
20721686 124 17041471190850154629
20775530 9 18194419981040847973
21360442 33 17905322185206437199
22956985 138 18267017439726328592
23523787 8 17392437088957637805
3044373 233 17539150740695908067
32027 91 18267860756907422911
3383291 50 18195815072650887505
397830 11 18341038646189008560
4017518 198 17903355901473758869
4073 2 18054224337823873786
437795 96 17984148058506326286
4616759 239 17843104923841176666
484985 159 18262511482013362277
5223283 242 18118395375732682543
57527585 21 11416183077522669148
6058803 2 18189925112782492836
6441014 3 18410292540314650906

> <PUBCHEM_SHAPE_MULTIPOLES>
635.72
15.23
7.53
1.75
20.73
0.49
0.06
28.69
-3.17
-11.06
0.23
-0.13
-0.34
-0.6

> <PUBCHEM_SHAPE_SELFOVERLAP>
1397.299

> <PUBCHEM_SHAPE_VOLUME>
332.8

> <PUBCHEM_COORDINATE_TYPE>
2
5
10

$$$$
