45783418
  -OEChem-12032416263D

 57 60  0     1  0  0  0  0  0999 V2000
    0.5376    2.9912   -1.1878 O   0  0  0  0  0  0  0  0  0  0  0  0
    1.6866   -1.2249    0.3661 O   0  0  0  0  0  0  0  0  0  0  0  0
    0.2084   -4.3445    1.5020 O   0  0  0  0  0  0  0  0  0  0  0  0
   -2.1752    1.5080    0.7989 N   0  0  1  0  0  0  0  0  0  0  0  0
   -3.1984   -1.8837   -1.5492 N   0  0  0  0  0  0  0  0  0  0  0  0
    0.7563    1.3073    0.2728 N   0  0  0  0  0  0  0  0  0  0  0  0
    1.8142    2.4553   -1.3995 N   0  0  0  0  0  0  0  0  0  0  0  0
    3.9714   -1.5215    0.2290 N   0  0  0  0  0  0  0  0  0  0  0  0
   -2.8418    0.6979   -0.2180 C   0  0  0  0  0  0  0  0  0  0  0  0
   -1.4192    2.6440    0.2348 C   0  0  1  0  0  0  0  0  0  0  0  0
   -3.1228    2.0772    1.7574 C   0  0  0  0  0  0  0  0  0  0  0  0
   -3.5945   -0.4624    0.4381 C   0  0  0  0  0  0  0  0  0  0  0  0
   -1.8333    0.1571   -1.2359 C   0  0  0  0  0  0  0  0  0  0  0  0
   -1.4335    3.7125    1.3436 C   0  0  0  0  0  0  0  0  0  0  0  0
   -2.2705    3.1118    2.4640 C   0  0  0  0  0  0  0  0  0  0  0  0
   -4.2171   -1.3795   -0.6178 C   0  0  0  0  0  0  0  0  0  0  0  0
   -2.5132   -0.7804   -2.2370 C   0  0  0  0  0  0  0  0  0  0  0  0
   -0.0171    2.2581   -0.1871 C   0  0  0  0  0  0  0  0  0  0  0  0
   -3.7999   -2.7972   -2.5203 C   0  0  0  0  0  0  0  0  0  0  0  0
    1.8685    1.4673   -0.5013 C   0  0  0  0  0  0  0  0  0  0  0  0
    3.0187    0.6235   -0.3510 C   0  0  0  0  0  0  0  0  0  0  0  0
    2.9157   -0.6913    0.0738 C   0  0  0  0  0  0  0  0  0  0  0  0
    4.2868    1.1183   -0.6348 C   0  0  0  0  0  0  0  0  0  0  0  0
    5.3974    0.2948   -0.4873 C   0  0  0  0  0  0  0  0  0  0  0  0
    5.1880   -1.0054   -0.0564 C   0  0  0  0  0  0  0  0  0  0  0  0
    1.6646   -2.5806    0.7954 C   0  0  0  0  0  0  0  0  0  0  0  0
    0.2327   -2.9825    1.0921 C   0  0  0  0  0  0  0  0  0  0  0  0
   -1.1103   -4.7703    1.8152 C   0  0  0  0  0  0  0  0  0  0  0  0
   -3.5732    1.3139   -0.7618 H   0  0  0  0  0  0  0  0  0  0  0  0
   -1.9440    3.0647   -0.6348 H   0  0  0  0  0  0  0  0  0  0  0  0
   -3.4950    1.3449    2.4800 H   0  0  0  0  0  0  0  0  0  0  0  0
   -3.9731    2.5619    1.2612 H   0  0  0  0  0  0  0  0  0  0  0  0
   -4.4067   -0.1032    1.0800 H   0  0  0  0  0  0  0  0  0  0  0  0
   -2.9153   -1.0484    1.0724 H   0  0  0  0  0  0  0  0  0  0  0  0
   -1.3869    0.9581   -1.8321 H   0  0  0  0  0  0  0  0  0  0  0  0
   -1.0298   -0.3945   -0.7323 H   0  0  0  0  0  0  0  0  0  0  0  0
   -0.4371    3.9869    1.7066 H   0  0  0  0  0  0  0  0  0  0  0  0
   -1.9184    4.6233    0.9716 H   0  0  0  0  0  0  0  0  0  0  0  0
   -1.6155    2.6305    3.2010 H   0  0  0  0  0  0  0  0  0  0  0  0
   -2.8695    3.8662    2.9826 H   0  0  0  0  0  0  0  0  0  0  0  0
   -4.6934   -2.2210   -0.1000 H   0  0  0  0  0  0  0  0  0  0  0  0
   -5.0068   -0.8391   -1.1565 H   0  0  0  0  0  0  0  0  0  0  0  0
   -3.2170   -0.2102   -2.8579 H   0  0  0  0  0  0  0  0  0  0  0  0
   -1.7421   -1.1832   -2.9052 H   0  0  0  0  0  0  0  0  0  0  0  0
   -4.2671   -3.6472   -2.0106 H   0  0  0  0  0  0  0  0  0  0  0  0
   -4.5599   -2.3043   -3.1373 H   0  0  0  0  0  0  0  0  0  0  0  0
   -3.0333   -3.2130   -3.1835 H   0  0  0  0  0  0  0  0  0  0  0  0
    4.4408    2.1424   -0.9656 H   0  0  0  0  0  0  0  0  0  0  0  0
    6.3956    0.6592   -0.7010 H   0  0  0  0  0  0  0  0  0  0  0  0
    6.0211   -1.6879    0.0752 H   0  0  0  0  0  0  0  0  0  0  0  0
    2.2679   -2.7104    1.7034 H   0  0  0  0  0  0  0  0  0  0  0  0
    2.0697   -3.2384    0.0156 H   0  0  0  0  0  0  0  0  0  0  0  0
   -0.1798   -2.3408    1.8802 H   0  0  0  0  0  0  0  0  0  0  0  0
   -0.3868   -2.8482    0.1970 H   0  0  0  0  0  0  0  0  0  0  0  0
   -1.5160   -4.1831    2.6447 H   0  0  0  0  0  0  0  0  0  0  0  0
   -1.7600   -4.6828    0.9388 H   0  0  0  0  0  0  0  0  0  0  0  0
   -1.0709   -5.8203    2.1173 H   0  0  0  0  0  0  0  0  0  0  0  0
  1  7  1  0  0  0  0
  1 18  1  0  0  0  0
  2 22  1  0  0  0  0
  2 26  1  0  0  0  0
  3 27  1  0  0  0  0
  3 28  1  0  0  0  0
  4  9  1  0  0  0  0
  4 10  1  0  0  0  0
  4 11  1  0  0  0  0
  5 16  1  0  0  0  0
  5 17  1  0  0  0  0
  5 19  1  0  0  0  0
  6 18  2  0  0  0  0
  6 20  1  0  0  0  0
  7 20  2  0  0  0  0
  8 22  1  0  0  0  0
  8 25  2  0  0  0  0
  9 12  1  0  0  0  0
  9 13  1  0  0  0  0
  9 29  1  0  0  0  0
 10 14  1  0  0  0  0
 10 18  1  0  0  0  0
 10 30  1  0  0  0  0
 11 15  1  0  0  0  0
 11 31  1  0  0  0  0
 11 32  1  0  0  0  0
 12 16  1  0  0  0  0
 12 33  1  0  0  0  0
 12 34  1  0  0  0  0
 13 17  1  0  0  0  0
 13 35  1  0  0  0  0
 13 36  1  0  0  0  0
 14 15  1  0  0  0  0
 14 37  1  0  0  0  0
 14 38  1  0  0  0  0
 15 39  1  0  0  0  0
 15 40  1  0  0  0  0
 16 41  1  0  0  0  0
 16 42  1  0  0  0  0
 17 43  1  0  0  0  0
 17 44  1  0  0  0  0
 19 45  1  0  0  0  0
 19 46  1  0  0  0  0
 19 47  1  0  0  0  0
 20 21  1  0  0  0  0
 21 22  2  0  0  0  0
 21 23  1  0  0  0  0
 23 24  2  0  0  0  0
 23 48  1  0  0  0  0
 24 25  1  0  0  0  0
 24 49  1  0  0  0  0
 25 50  1  0  0  0  0
 26 27  1  0  0  0  0
 26 51  1  0  0  0  0
 26 52  1  0  0  0  0
 27 53  1  0  0  0  0
 27 54  1  0  0  0  0
 28 55  1  0  0  0  0
 28 56  1  0  0  0  0
 28 57  1  0  0  0  0
M  END
> <PUBCHEM_COMPOUND_CID>
45783418

> <PUBCHEM_CONFORMER_RMSD>
1

> <PUBCHEM_CONFORMER_DIVERSEORDER>
1
106
136
107
49
91
37
35
20
137
19
66
36
52
98
135
105
84
33
114
74
39
144
96
38
115
55
123
24
64
13
93
94
56
92
58
122
119
15
65
79
109
88
83
3
100
61
29
40
143
62
133
116
70
90
78
73
46
126
21
68
139
57
127
32
27
111
87
75
108
14
81
89
99
140
47
54
23
97
102
69
71
18
141
120
34
101
121
26
80
63
112
45
72
43
125
82
77
51
53
86
129
124
117
16
60
44
113
48
103
2
110
12
138
41
76
128
59
42
10
104
28
9
118
50
22
67
25
5
142
134
131
95
4
85
11
17
7
30
130
31
8
132
6

> <PUBCHEM_MMFF94_PARTIAL_CHARGES>
27
1 -0.02
10 0.45
11 0.27
16 0.27
17 0.27
18 0.3
19 0.27
2 -0.36
20 0.46
21 0.05
22 0.39
23 -0.15
24 -0.15
25 0.16
26 0.28
27 0.28
28 0.28
3 -0.56
4 -0.81
48 0.15
49 0.15
5 -0.81
50 0.15
6 -0.57
7 -0.41
8 -0.62
9 0.27

> <PUBCHEM_EFFECTIVE_ROTOR_COUNT>
9.2

> <PUBCHEM_PHARMACOPHORE_FEATURES>
10
1 2 acceptor
1 3 acceptor
1 4 cation
1 5 cation
1 8 acceptor
3 6 7 20 cation
5 1 6 7 18 20 rings
5 4 10 11 14 15 rings
6 5 9 12 13 16 17 rings
6 8 21 22 23 24 25 rings

> <PUBCHEM_HEAVY_ATOM_COUNT>
28

> <PUBCHEM_ATOM_DEF_STEREO_COUNT>
1

> <PUBCHEM_ATOM_UDEF_STEREO_COUNT>
0

> <PUBCHEM_BOND_DEF_STEREO_COUNT>
0

> <PUBCHEM_BOND_UDEF_STEREO_COUNT>
0

> <PUBCHEM_ISOTOPIC_ATOM_COUNT>
0

> <PUBCHEM_COMPONENT_COUNT>
1

> <PUBCHEM_CACTVS_TAUTO_COUNT>
1

> <PUBCHEM_CONFORMER_ID>
02BA997A00000001

> <PUBCHEM_MMFF94_ENERGY>
52.8099

> <PUBCHEM_FEATURE_SELFOVERLAP>
50.797

> <PUBCHEM_SHAPE_FINGERPRINT>
1100329 8 18263934413031370499
11552529 35 18059570244245457832
11578080 2 18268970107705303597
12156800 1 14433800814660669659
12539773 59 17841144455584731355
12788726 201 18057344935726841781
13032168 30 18341891896353942728
13615921 28 18197771309625723551
14787075 74 17984694786726686624
14931854 50 18263632008610767150
150020 26 15519290873101431347
15064986 96 16903852454072787705
19319366 153 18195536895649391211
20764821 26 18046357593186952522
20775438 99 16759125383213153983
238 59 17605529206699003335
392239 28 18129933598413317472
4409770 3 15169927697784822461
463206 1 18268988872611604735
563151 248 17915203250526038827
56638632 10 16185516828765144352
6376802 137 18058441178947335562
7097593 13 17833834863232912080

> <PUBCHEM_SHAPE_MULTIPOLES>
533.71
8.69
5.51
2.03
8.3
3.18
0.08
2.02
2.46
-3.49
-3.37
-2.44
0.75
-3.37

> <PUBCHEM_SHAPE_SELFOVERLAP>
1126.086

> <PUBCHEM_SHAPE_VOLUME>
301.5

> <PUBCHEM_COORDINATE_TYPE>
2
5
10

$$$$
