38028361
  -OEChem-12032416253D

 64 66  0     1  0  0  0  0  0999 V2000
    4.7969   -3.8561    1.5568 F   0  0  0  0  0  0  0  0  0  0  0  0
   -2.9317    0.8896    2.3985 O   0  0  0  0  0  0  0  0  0  0  0  0
    2.0777   -0.1460   -2.7571 O   0  0  0  0  0  0  0  0  0  0  0  0
    2.4509    1.4270   -1.0920 N   0  0  0  0  0  0  0  0  0  0  0  0
   -1.5916   -0.9817    2.0773 N   0  0  0  0  0  0  0  0  0  0  0  0
   -4.4754   -2.0246    0.4951 N   0  0  0  0  0  0  0  0  0  0  0  0
   -0.4694    2.1166   -0.8918 C   0  0  1  0  0  0  0  0  0  0  0  0
    0.7038    3.1249   -0.9754 C   0  0  1  0  0  0  0  0  0  0  0  0
   -1.4376    2.5128    0.2333 C   0  0  0  0  0  0  0  0  0  0  0  0
   -0.7430    2.5685    1.6070 C   0  0  2  0  0  0  0  0  0  0  0  0
   -1.2289    2.0163   -2.2183 C   0  0  0  0  0  0  0  0  0  0  0  0
    0.5680    3.3256    1.5447 C   0  0  0  0  0  0  0  0  0  0  0  0
    1.1931    3.5765    0.3806 C   0  0  0  0  0  0  0  0  0  0  0  0
    1.8764    2.5441   -1.7740 C   0  0  0  0  0  0  0  0  0  0  0  0
   -0.5376    1.1617    2.1796 C   0  0  0  0  0  0  0  0  0  0  0  0
   -1.9370    0.6695   -2.3256 C   0  0  0  0  0  0  0  0  0  0  0  0
   -2.2255    3.1636   -2.3488 C   0  0  0  0  0  0  0  0  0  0  0  0
    1.1222    3.8283    2.8488 C   0  0  0  0  0  0  0  0  0  0  0  0
   -1.8284    0.3761    2.2343 C   0  0  0  0  0  0  0  0  0  0  0  0
    2.5081    0.1481   -1.6450 C   0  0  0  0  0  0  0  0  0  0  0  0
   -2.6431   -1.9726    2.0893 C   0  0  0  0  0  0  0  0  0  0  0  0
    3.1134   -0.9112   -0.7975 C   0  0  0  0  0  0  0  0  0  0  0  0
   -3.1614   -2.2588    0.7096 C   0  0  0  0  0  0  0  0  0  0  0  0
    2.7360   -2.2430   -0.9704 C   0  0  0  0  0  0  0  0  0  0  0  0
    4.0593   -0.5745    0.1709 C   0  0  0  0  0  0  0  0  0  0  0  0
    3.3043   -3.2378   -0.1751 C   0  0  0  0  0  0  0  0  0  0  0  0
    4.6276   -1.5695    0.9663 C   0  0  0  0  0  0  0  0  0  0  0  0
   -2.2908   -2.7368   -0.2566 C   0  0  0  0  0  0  0  0  0  0  0  0
    4.2502   -2.9011    0.7933 C   0  0  0  0  0  0  0  0  0  0  0  0
   -2.8018   -2.9905   -1.5246 C   0  0  0  0  0  0  0  0  0  0  0  0
   -4.9361   -2.2831   -0.7493 C   0  0  0  0  0  0  0  0  0  0  0  0
   -4.1486   -2.7619   -1.7839 C   0  0  0  0  0  0  0  0  0  0  0  0
   -0.0680    1.1248   -0.6499 H   0  0  0  0  0  0  0  0  0  0  0  0
    0.3719    4.0312   -1.4975 H   0  0  0  0  0  0  0  0  0  0  0  0
   -2.3147    1.8618    0.2458 H   0  0  0  0  0  0  0  0  0  0  0  0
   -1.8204    3.5281    0.0627 H   0  0  0  0  0  0  0  0  0  0  0  0
   -1.4214    3.1164    2.2763 H   0  0  0  0  0  0  0  0  0  0  0  0
   -0.5334    2.0742   -3.0619 H   0  0  0  0  0  0  0  0  0  0  0  0
    2.1080    4.1659    0.3919 H   0  0  0  0  0  0  0  0  0  0  0  0
    2.6721    3.2926   -1.8724 H   0  0  0  0  0  0  0  0  0  0  0  0
    1.5821    2.2679   -2.7900 H   0  0  0  0  0  0  0  0  0  0  0  0
   -0.1596    1.2159    3.2078 H   0  0  0  0  0  0  0  0  0  0  0  0
    0.2139    0.6179    1.5941 H   0  0  0  0  0  0  0  0  0  0  0  0
   -2.4526    0.5833   -3.2884 H   0  0  0  0  0  0  0  0  0  0  0  0
   -2.6846    0.5287   -1.5390 H   0  0  0  0  0  0  0  0  0  0  0  0
   -1.2182   -0.1545   -2.2635 H   0  0  0  0  0  0  0  0  0  0  0  0
   -1.7681    4.1425   -2.1782 H   0  0  0  0  0  0  0  0  0  0  0  0
   -3.0977    3.0532   -1.6958 H   0  0  0  0  0  0  0  0  0  0  0  0
   -2.6209    3.1814   -3.3720 H   0  0  0  0  0  0  0  0  0  0  0  0
    0.3839    4.4556    3.3587 H   0  0  0  0  0  0  0  0  0  0  0  0
    2.0254    4.4315    2.7079 H   0  0  0  0  0  0  0  0  0  0  0  0
    1.3838    2.9932    3.5054 H   0  0  0  0  0  0  0  0  0  0  0  0
    2.8200    1.5948   -0.1628 H   0  0  0  0  0  0  0  0  0  0  0  0
   -0.6403   -1.3122    1.9449 H   0  0  0  0  0  0  0  0  0  0  0  0
   -3.4553   -1.6255    2.7379 H   0  0  0  0  0  0  0  0  0  0  0  0
   -2.2335   -2.8891    2.5277 H   0  0  0  0  0  0  0  0  0  0  0  0
    1.9968   -2.5247   -1.7156 H   0  0  0  0  0  0  0  0  0  0  0  0
    4.4056    0.4440    0.3173 H   0  0  0  0  0  0  0  0  0  0  0  0
    3.0098   -4.2746   -0.3084 H   0  0  0  0  0  0  0  0  0  0  0  0
    5.3694   -1.3091    1.7156 H   0  0  0  0  0  0  0  0  0  0  0  0
   -1.2416   -2.9153   -0.0463 H   0  0  0  0  0  0  0  0  0  0  0  0
   -2.1515   -3.3650   -2.3093 H   0  0  0  0  0  0  0  0  0  0  0  0
   -5.9927   -2.0879   -0.9001 H   0  0  0  0  0  0  0  0  0  0  0  0
   -4.5684   -2.9520   -2.7650 H   0  0  0  0  0  0  0  0  0  0  0  0
  1 29  1  0  0  0  0
  2 19  2  0  0  0  0
  3 20  2  0  0  0  0
  4 14  1  0  0  0  0
  4 20  1  0  0  0  0
  4 53  1  0  0  0  0
  5 19  1  0  0  0  0
  5 21  1  0  0  0  0
  5 54  1  0  0  0  0
  6 23  1  0  0  0  0
  6 31  2  0  0  0  0
  7  8  1  0  0  0  0
  7  9  1  0  0  0  0
  7 11  1  0  0  0  0
  7 33  1  0  0  0  0
  8 13  1  0  0  0  0
  8 14  1  0  0  0  0
  8 34  1  0  0  0  0
  9 10  1  0  0  0  0
  9 35  1  0  0  0  0
  9 36  1  0  0  0  0
 10 12  1  0  0  0  0
 10 15  1  0  0  0  0
 10 37  1  0  0  0  0
 11 16  1  0  0  0  0
 11 17  1  0  0  0  0
 11 38  1  0  0  0  0
 12 13  2  0  0  0  0
 12 18  1  0  0  0  0
 13 39  1  0  0  0  0
 14 40  1  0  0  0  0
 14 41  1  0  0  0  0
 15 19  1  0  0  0  0
 15 42  1  0  0  0  0
 15 43  1  0  0  0  0
 16 44  1  0  0  0  0
 16 45  1  0  0  0  0
 16 46  1  0  0  0  0
 17 47  1  0  0  0  0
 17 48  1  0  0  0  0
 17 49  1  0  0  0  0
 18 50  1  0  0  0  0
 18 51  1  0  0  0  0
 18 52  1  0  0  0  0
 20 22  1  0  0  0  0
 21 23  1  0  0  0  0
 21 55  1  0  0  0  0
 21 56  1  0  0  0  0
 22 24  2  0  0  0  0
 22 25  1  0  0  0  0
 23 28  2  0  0  0  0
 24 26  1  0  0  0  0
 24 57  1  0  0  0  0
 25 27  2  0  0  0  0
 25 58  1  0  0  0  0
 26 29  2  0  0  0  0
 26 59  1  0  0  0  0
 27 29  1  0  0  0  0
 27 60  1  0  0  0  0
 28 30  1  0  0  0  0
 28 61  1  0  0  0  0
 30 32  2  0  0  0  0
 30 62  1  0  0  0  0
 31 32  1  0  0  0  0
 31 63  1  0  0  0  0
 32 64  1  0  0  0  0
M  END
> <PUBCHEM_COMPOUND_CID>
38028361

> <PUBCHEM_CONFORMER_RMSD>
1

> <PUBCHEM_CONFORMER_DIVERSEORDER>
1
123
214
219
4
224
86
74
164
71
29
206
113
92
42
129
58
225
127
93
119
94
197
77
135
68
179
195
31
172
191
30
67
3
35
25
217
199
54
157
52
91
73
56
188
160
117
24
175
146
134
76
124
204
40
208
221
51
115
107
177
27
167
180
140
98
170
111
47
101
55
34
89
185
173
53
13
45
223
171
61
69
196
87
130
141
39
10
138
109
145
163
139
220
189
46
207
192
64
150
22
155
203
218
216
65
17
125
176
209
9
184
5
116
151
168
182
169
103
106
82
112
186
14
59
154
158
81
26
149
66
212
105
147
57
15
100
194
202
97
85
181
75
41
222
83
136
79
72
126
198
161
131
63
159
104
144
137
165
210
80
143
132
12
90
88
18
193
110
102
201
48
174
166
2
200
43
84
108
205
213
38
20
78
120
183
62
156
16
187
148
70
190
44
32
95
122
114
99
215
178
50
37
96
133
36
21
118
162
7
60
152
33
211
153
8
19
11
28
6
142
128
49
121
23

> <PUBCHEM_MMFF94_PARTIAL_CHARGES>
38
1 -0.19
10 0.14
12 -0.28
13 -0.29
14 0.3
15 0.06
18 0.14
19 0.57
2 -0.57
20 0.54
21 0.44
22 0.09
23 0.17
24 -0.15
25 -0.15
26 -0.15
27 -0.15
28 -0.15
29 0.19
3 -0.57
30 -0.15
31 0.16
32 -0.15
39 0.15
4 -0.73
5 -0.73
53 0.37
54 0.37
57 0.15
58 0.15
59 0.15
6 -0.62
60 0.15
61 0.15
62 0.15
63 0.15
64 0.15
8 0.14

> <PUBCHEM_EFFECTIVE_ROTOR_COUNT>
10.8

> <PUBCHEM_PHARMACOPHORE_FEATURES>
9
1 2 acceptor
1 3 acceptor
1 4 donor
1 5 donor
1 6 acceptor
3 11 16 17 hydrophobe
6 22 24 25 26 27 29 rings
6 6 23 28 30 31 32 rings
6 7 8 9 10 12 13 rings

> <PUBCHEM_HEAVY_ATOM_COUNT>
32

> <PUBCHEM_ATOM_DEF_STEREO_COUNT>
3

> <PUBCHEM_ATOM_UDEF_STEREO_COUNT>
0

> <PUBCHEM_BOND_DEF_STEREO_COUNT>
0

> <PUBCHEM_BOND_UDEF_STEREO_COUNT>
0

> <PUBCHEM_ISOTOPIC_ATOM_COUNT>
0

> <PUBCHEM_COMPONENT_COUNT>
1

> <PUBCHEM_CACTVS_TAUTO_COUNT>
4

> <PUBCHEM_CONFORMER_ID>
0244444900000001

> <PUBCHEM_MMFF94_ENERGY>
69.5879

> <PUBCHEM_FEATURE_SELFOVERLAP>
45.671

> <PUBCHEM_SHAPE_FINGERPRINT>
11285246 1 17677041352590403935
11552529 35 18125728890123762410
12156800 1 17683199704417025939
12977781 61 18050249756938219097
14114207 22 17550631811195241634
14251757 17 16443625808732138063
14674994 50 18119525432096741748
14705955 166 15550543975819009354
19026451 147 17628922518907426271
19315092 285 17198236135464958351
20775530 9 18336282171002089426
21315764 21 17531250603341574839
3027735 51 17968936362601945355
3493558 16 8424945450970978086
35225 105 17908175129483509589
4066623 53 18269818944314837501
5081480 168 18188193408465801795
513532 50 17756114011846020135
550186 7 12908330011224118692
57527452 28 17612301953254635005

> <PUBCHEM_SHAPE_MULTIPOLES>
624.59
8.24
6.18
3.1
0.32
0.76
-0.34
-12.12
0.01
-2.32
-0.89
1.09
1.92
-0.7

> <PUBCHEM_SHAPE_SELFOVERLAP>
1311.85

> <PUBCHEM_SHAPE_VOLUME>
352.1

> <PUBCHEM_COORDINATE_TYPE>
2
5
10

$$$$
