75536819
  -OEChem-12032416313D

 42 44  0     1  0  0  0  0  0999 V2000
    6.7171   -0.7047    0.8755 S   0  0  0  0  0  0  0  0  0  0  0  0
    0.6877    0.9937   -0.0333 O   0  0  0  0  0  0  0  0  0  0  0  0
   -0.4787   -2.3993   -0.2140 O   0  0  0  0  0  0  0  0  0  0  0  0
    4.1222   -1.8690    0.0929 O   0  0  0  0  0  0  0  0  0  0  0  0
   -2.7405   -0.2196   -0.1164 N   0  0  0  0  0  0  0  0  0  0  0  0
    3.2142   -0.0153   -0.9664 N   0  0  0  0  0  0  0  0  0  0  0  0
   -7.7427    0.2677   -0.3047 N   0  0  0  0  0  0  0  0  0  0  0  0
   -1.3499   -0.1788    0.3060 C   0  0  1  0  0  0  0  0  0  0  0  0
   -0.4280   -1.0265   -0.5508 C   0  0  1  0  0  0  0  0  0  0  0  0
    0.9256   -0.4111   -0.2226 C   0  0  1  0  0  0  0  0  0  0  0  0
   -0.7243    1.1976    0.1500 C   0  0  0  0  0  0  0  0  0  0  0  0
    1.9585   -0.6139   -1.3168 C   0  0  0  0  0  0  0  0  0  0  0  0
   -3.6185    0.3218    0.9140 C   0  0  0  0  0  0  0  0  0  0  0  0
   -5.0621    0.3028    0.4871 C   0  0  0  0  0  0  0  0  0  0  0  0
    4.2105   -0.7019   -0.2790 C   0  0  0  0  0  0  0  0  0  0  0  0
   -5.5353    1.2472   -0.4172 C   0  0  0  0  0  0  0  0  0  0  0  0
   -5.9277   -0.6592    0.9959 C   0  0  0  0  0  0  0  0  0  0  0  0
    5.4429    0.0675    0.0315 C   0  0  0  0  0  0  0  0  0  0  0  0
   -6.8718    1.1872   -0.7777 C   0  0  0  0  0  0  0  0  0  0  0  0
   -7.2467   -0.6339    0.5721 C   0  0  0  0  0  0  0  0  0  0  0  0
    5.7413    1.3785   -0.2683 C   0  0  0  0  0  0  0  0  0  0  0  0
    7.0332    1.7538    0.2008 C   0  0  0  0  0  0  0  0  0  0  0  0
    7.6729    0.7156    0.8414 C   0  0  0  0  0  0  0  0  0  0  0  0
   -1.2588   -0.5232    1.3460 H   0  0  0  0  0  0  0  0  0  0  0  0
   -0.6655   -0.9148   -1.6161 H   0  0  0  0  0  0  0  0  0  0  0  0
    1.3127   -0.8074    0.7254 H   0  0  0  0  0  0  0  0  0  0  0  0
   -1.0922    1.7243   -0.7381 H   0  0  0  0  0  0  0  0  0  0  0  0
   -0.8875    1.8374    1.0225 H   0  0  0  0  0  0  0  0  0  0  0  0
    1.6359   -0.1295   -2.2450 H   0  0  0  0  0  0  0  0  0  0  0  0
    2.1069   -1.6807   -1.5155 H   0  0  0  0  0  0  0  0  0  0  0  0
   -3.0045   -1.1882   -0.2994 H   0  0  0  0  0  0  0  0  0  0  0  0
   -3.3498    1.3593    1.1503 H   0  0  0  0  0  0  0  0  0  0  0  0
   -3.5085   -0.2457    1.8474 H   0  0  0  0  0  0  0  0  0  0  0  0
   -0.2686   -2.4904    0.7308 H   0  0  0  0  0  0  0  0  0  0  0  0
    3.3514    0.9544   -1.2303 H   0  0  0  0  0  0  0  0  0  0  0  0
   -4.8876    2.0115   -0.8330 H   0  0  0  0  0  0  0  0  0  0  0  0
   -5.5935   -1.4123    1.7012 H   0  0  0  0  0  0  0  0  0  0  0  0
   -7.2902    1.9010   -1.4796 H   0  0  0  0  0  0  0  0  0  0  0  0
   -7.9619   -1.3629    0.9388 H   0  0  0  0  0  0  0  0  0  0  0  0
    5.0841    2.0565   -0.7966 H   0  0  0  0  0  0  0  0  0  0  0  0
    7.4713    2.7354    0.0749 H   0  0  0  0  0  0  0  0  0  0  0  0
    8.6557    0.7233    1.2911 H   0  0  0  0  0  0  0  0  0  0  0  0
  1 18  1  0  0  0  0
  1 23  1  0  0  0  0
  2 10  1  0  0  0  0
  2 11  1  0  0  0  0
  3  9  1  0  0  0  0
  3 34  1  0  0  0  0
  4 15  2  0  0  0  0
  5  8  1  0  0  0  0
  5 13  1  0  0  0  0
  5 31  1  0  0  0  0
  6 12  1  0  0  0  0
  6 15  1  0  0  0  0
  6 35  1  0  0  0  0
  7 19  2  0  0  0  0
  7 20  1  0  0  0  0
  8  9  1  0  0  0  0
  8 11  1  0  0  0  0
  8 24  1  0  0  0  0
  9 10  1  0  0  0  0
  9 25  1  0  0  0  0
 10 12  1  0  0  0  0
 10 26  1  0  0  0  0
 11 27  1  0  0  0  0
 11 28  1  0  0  0  0
 12 29  1  0  0  0  0
 12 30  1  0  0  0  0
 13 14  1  0  0  0  0
 13 32  1  0  0  0  0
 13 33  1  0  0  0  0
 14 16  2  0  0  0  0
 14 17  1  0  0  0  0
 15 18  1  0  0  0  0
 16 19  1  0  0  0  0
 16 36  1  0  0  0  0
 17 20  2  0  0  0  0
 17 37  1  0  0  0  0
 18 21  2  0  0  0  0
 19 38  1  0  0  0  0
 20 39  1  0  0  0  0
 21 22  1  0  0  0  0
 21 40  1  0  0  0  0
 22 23  2  0  0  0  0
 22 41  1  0  0  0  0
 23 42  1  0  0  0  0
M  END
> <PUBCHEM_COMPOUND_CID>
75536819

> <PUBCHEM_CONFORMER_RMSD>
0.8

> <PUBCHEM_CONFORMER_DIVERSEORDER>
1
218
9
48
148
201
15
42
113
116
262
19
176
98
209
251
102
10
253
165
236
85
265
238
58
39
231
219
118
104
244
142
62
56
223
51
161
215
88
257
139
233
267
237
125
55
90
86
14
2
75
216
68
167
50
197
175
80
150
141
221
137
134
136
160
258
190
203
202
171
195
20
252
144
157
228
246
117
66
128
26
106
105
138
76
120
99
147
70
232
112
67
220
259
89
178
43
73
124
129
60
212
156
96
230
101
213
135
198
214
133
107
121
8
193
240
192
93
95
173
235
127
54
242
226
7
79
145
239
179
169
65
126
83
187
57
22
217
115
132
100
234
264
103
245
91
21
151
114
53
44
174
254
183
199
260
52
210
25
204
194
29
82
24
227
205
131
207
16
164
40
64
123
152
188
206
33
49
36
168
109
266
41
78
6
163
159
63
72
154
249
81
208
130
185
263
255
23
211
111
34
122
243
200
38
61
180
84
18
229
224
94
162
17
108
87
261
27
31
191
225
241
74
45
97
77
248
12
5
11
71
196
28
247
47
181
46
110
146
170
222
177
256
143
155
13
32
149
186
140
250
4
69
189
153
3
119
37
182
30
184
59
172
35
92
166
158

> <PUBCHEM_MMFF94_PARTIAL_CHARGES>
33
1 -0.08
10 0.28
11 0.28
12 0.3
13 0.41
14 -0.14
15 0.71
16 -0.15
17 -0.15
18 -0.05
19 0.16
2 -0.56
20 0.16
21 -0.15
22 -0.15
23 -0.11
3 -0.68
31 0.36
34 0.4
35 0.37
36 0.15
37 0.15
38 0.15
39 0.15
4 -0.57
40 0.15
41 0.15
42 0.15
5 -0.9
6 -0.73
7 -0.62
8 0.27
9 0.28

> <PUBCHEM_EFFECTIVE_ROTOR_COUNT>
8

> <PUBCHEM_PHARMACOPHORE_FEATURES>
11
1 2 acceptor
1 3 acceptor
1 3 donor
1 4 acceptor
1 5 cation
1 5 donor
1 6 donor
1 7 acceptor
5 1 18 21 22 23 rings
5 2 8 9 10 11 rings
6 7 14 16 17 19 20 rings

> <PUBCHEM_HEAVY_ATOM_COUNT>
23

> <PUBCHEM_ATOM_DEF_STEREO_COUNT>
3

> <PUBCHEM_ATOM_UDEF_STEREO_COUNT>
0

> <PUBCHEM_BOND_DEF_STEREO_COUNT>
0

> <PUBCHEM_BOND_UDEF_STEREO_COUNT>
0

> <PUBCHEM_ISOTOPIC_ATOM_COUNT>
0

> <PUBCHEM_COMPONENT_COUNT>
1

> <PUBCHEM_CACTVS_TAUTO_COUNT>
2

> <PUBCHEM_CONFORMER_ID>
048099B300000001

> <PUBCHEM_MMFF94_ENERGY>
43.5574

> <PUBCHEM_FEATURE_SELFOVERLAP>
55.822

> <PUBCHEM_SHAPE_FINGERPRINT>
10 15 18334576858442313850
10299344 5 8286201656021475765
106641 1 18412546543413780435
11315181 36 18131915954197070425
11524674 6 14779269721903046369
11638347 137 18113900438405468858
11719270 70 18334860506688859218
125118 31 18260832583561350148
12592606 108 11242258467624137369
13533116 47 17131838608338434054
13885169 127 17313099735759049597
13914758 101 16660361454868283853
14123256 10 17060619996884269736
14251764 18 18187082879413130678
14251764 46 18343584044511609144
14429380 56 17988351650462397072
14849402 71 17846501477988625081
14856354 85 12967125030648467985
15131766 46 17244158325552991676
15183329 4 13551191082456582065
15849732 13 18334295378885786692
16090146 7 14117526505400034670
17093844 174 17748827415466229873
20157964 124 18202004305202469542
20281389 69 18408885139913500980
21130935 74 18334861563435560787
21150785 3 13973966515098968152
21365058 27 15554731075359692301
21521721 280 18060704991684476331
220451 1 14548738374618731485
221357 26 10735881664870844762
22224240 67 17918272060694136950
23035841 295 11386368149388239665
23081809 10 16343709772722393647
28498 318 12179837308067858872
300161 21 18342176669960540742
3009799 131 18334296457276323785
34797466 226 14261351366893413856
4325135 7 17060338521881360748
4339292 15 18263362651082152027
4340502 62 17603586322661368466
5207 217 17132114645516899415
5758199 1 16558755611373562351
59682541 35 18341331179619738554
59755656 215 8574439715885809920
636775 72 18337671902941673645
6394761 36 13190337968012390093

> <PUBCHEM_SHAPE_MULTIPOLES>
444.63
24.9
1.57
0.97
4.07
0.2
-0.01
-6.52
4.5
-1.08
-0.1
0
0.06
0.73

> <PUBCHEM_SHAPE_SELFOVERLAP>
926.555

> <PUBCHEM_SHAPE_VOLUME>
253.4

> <PUBCHEM_COORDINATE_TYPE>
2
5
10

$$$$
