45360468
  -OEChem-12032416313D

 60 64  0     1  0  0  0  0  0999 V2000
   -4.9038   -2.1357   -0.0729 O   0  0  0  0  0  0  0  0  0  0  0  0
    1.2756    2.7029    1.4491 N   0  0  2  0  0  0  0  0  0  0  0  0
    3.7518    0.2245    0.0343 N   0  0  0  0  0  0  0  0  0  0  0  0
   -1.3038    0.6880   -1.7303 N   0  0  0  0  0  0  0  0  0  0  0  0
   -3.0304   -0.9642   -1.4186 N   0  0  0  0  0  0  0  0  0  0  0  0
    0.3246    2.9206   -0.9657 C   0  0  2  0  0  0  0  0  0  0  0  0
    2.2176    2.0915    0.4748 C   0  0  2  0  0  0  0  0  0  0  0  0
   -0.7504    2.3352   -0.0086 C   0  0  2  0  0  0  0  0  0  0  0  0
    1.5810    2.0252   -0.9302 C   0  0  0  0  0  0  0  0  0  0  0  0
    0.7306    4.2950   -0.3918 C   0  0  0  0  0  0  0  0  0  0  0  0
   -0.0527    2.0478    1.3516 C   0  0  0  0  0  0  0  0  0  0  0  0
    1.1142    4.1322    1.0894 C   0  0  0  0  0  0  0  0  0  0  0  0
    2.7263    0.7239    0.9355 C   0  0  0  0  0  0  0  0  0  0  0  0
   -1.5778    1.1536   -0.4940 C   0  0  0  0  0  0  0  0  0  0  0  0
    4.2556   -1.0732    0.4797 C   0  0  0  0  0  0  0  0  0  0  0  0
    5.6468   -1.3233   -0.1127 C   0  0  0  0  0  0  0  0  0  0  0  0
    3.2752   -2.1795    0.0745 C   0  0  0  0  0  0  0  0  0  0  0  0
   -2.5497    0.6207    0.3281 C   0  0  0  0  0  0  0  0  0  0  0  0
    6.1742   -2.7051    0.2698 C   0  0  0  0  0  0  0  0  0  0  0  0
    3.8056   -3.5604    0.4562 C   0  0  0  0  0  0  0  0  0  0  0  0
    5.1959   -3.8090   -0.1217 C   0  0  0  0  0  0  0  0  0  0  0  0
   -3.2517   -0.4477   -0.1919 C   0  0  0  0  0  0  0  0  0  0  0  0
   -2.0568   -0.3570   -2.1236 C   0  0  0  0  0  0  0  0  0  0  0  0
   -4.2937   -1.0977    0.5574 C   0  0  0  0  0  0  0  0  0  0  0  0
   -1.7820   -0.9012   -3.4846 C   0  0  0  0  0  0  0  0  0  0  0  0
   -4.8350   -0.9060    1.8075 C   0  0  0  0  0  0  0  0  0  0  0  0
   -5.8422   -1.8893    1.9546 C   0  0  0  0  0  0  0  0  0  0  0  0
   -5.8448   -2.6117    0.7840 C   0  0  0  0  0  0  0  0  0  0  0  0
   -0.0511    3.0295   -1.9885 H   0  0  0  0  0  0  0  0  0  0  0  0
    3.1003    2.7467    0.4213 H   0  0  0  0  0  0  0  0  0  0  0  0
   -1.4875    3.1367    0.1552 H   0  0  0  0  0  0  0  0  0  0  0  0
    1.3141    0.9991   -1.2070 H   0  0  0  0  0  0  0  0  0  0  0  0
    2.3046    2.3793   -1.6751 H   0  0  0  0  0  0  0  0  0  0  0  0
    1.5763    4.7011   -0.9598 H   0  0  0  0  0  0  0  0  0  0  0  0
   -0.0963    5.0086   -0.4857 H   0  0  0  0  0  0  0  0  0  0  0  0
    0.0439    0.9732    1.5429 H   0  0  0  0  0  0  0  0  0  0  0  0
   -0.6888    2.4199    2.1662 H   0  0  0  0  0  0  0  0  0  0  0  0
    2.0429    4.6782    1.2960 H   0  0  0  0  0  0  0  0  0  0  0  0
    0.3536    4.5935    1.7322 H   0  0  0  0  0  0  0  0  0  0  0  0
    3.1367    0.8243    1.9488 H   0  0  0  0  0  0  0  0  0  0  0  0
    1.8918    0.0192    0.9900 H   0  0  0  0  0  0  0  0  0  0  0  0
    4.5171    0.8979    0.0011 H   0  0  0  0  0  0  0  0  0  0  0  0
    4.3700   -1.0767    1.5728 H   0  0  0  0  0  0  0  0  0  0  0  0
    6.3528   -0.5604    0.2383 H   0  0  0  0  0  0  0  0  0  0  0  0
    5.6115   -1.2445   -1.2075 H   0  0  0  0  0  0  0  0  0  0  0  0
    3.1011   -2.1505   -1.0095 H   0  0  0  0  0  0  0  0  0  0  0  0
    2.2998   -2.0470    0.5549 H   0  0  0  0  0  0  0  0  0  0  0  0
   -2.7457    1.0267    1.3130 H   0  0  0  0  0  0  0  0  0  0  0  0
    7.1399   -2.8787   -0.2182 H   0  0  0  0  0  0  0  0  0  0  0  0
    6.3519   -2.7414    1.3517 H   0  0  0  0  0  0  0  0  0  0  0  0
    3.8433   -3.6476    1.5491 H   0  0  0  0  0  0  0  0  0  0  0  0
    3.1151   -4.3323    0.0979 H   0  0  0  0  0  0  0  0  0  0  0  0
    5.5729   -4.7768    0.2276 H   0  0  0  0  0  0  0  0  0  0  0  0
    5.1308   -3.8670   -1.2152 H   0  0  0  0  0  0  0  0  0  0  0  0
   -2.0013   -1.9727   -3.5264 H   0  0  0  0  0  0  0  0  0  0  0  0
   -0.7308   -0.7594   -3.7546 H   0  0  0  0  0  0  0  0  0  0  0  0
   -2.4060   -0.3863   -4.2209 H   0  0  0  0  0  0  0  0  0  0  0  0
   -4.5496   -0.1563    2.5320 H   0  0  0  0  0  0  0  0  0  0  0  0
   -6.4859   -2.0513    2.8071 H   0  0  0  0  0  0  0  0  0  0  0  0
   -6.4234   -3.4498    0.4240 H   0  0  0  0  0  0  0  0  0  0  0  0
  1 24  1  0  0  0  0
  1 28  1  0  0  0  0
  2  7  1  0  0  0  0
  2 11  1  0  0  0  0
  2 12  1  0  0  0  0
  3 13  1  0  0  0  0
  3 15  1  0  0  0  0
  3 42  1  0  0  0  0
  4 14  2  0  0  0  0
  4 23  1  0  0  0  0
  5 22  1  0  0  0  0
  5 23  2  0  0  0  0
  6  8  1  0  0  0  0
  6  9  1  0  0  0  0
  6 10  1  0  0  0  0
  6 29  1  0  0  0  0
  7  9  1  0  0  0  0
  7 13  1  0  0  0  0
  7 30  1  0  0  0  0
  8 11  1  0  0  0  0
  8 14  1  0  0  0  0
  8 31  1  0  0  0  0
  9 32  1  0  0  0  0
  9 33  1  0  0  0  0
 10 12  1  0  0  0  0
 10 34  1  0  0  0  0
 10 35  1  0  0  0  0
 11 36  1  0  0  0  0
 11 37  1  0  0  0  0
 12 38  1  0  0  0  0
 12 39  1  0  0  0  0
 13 40  1  0  0  0  0
 13 41  1  0  0  0  0
 14 18  1  0  0  0  0
 15 16  1  0  0  0  0
 15 17  1  0  0  0  0
 15 43  1  0  0  0  0
 16 19  1  0  0  0  0
 16 44  1  0  0  0  0
 16 45  1  0  0  0  0
 17 20  1  0  0  0  0
 17 46  1  0  0  0  0
 17 47  1  0  0  0  0
 18 22  2  0  0  0  0
 18 48  1  0  0  0  0
 19 21  1  0  0  0  0
 19 49  1  0  0  0  0
 19 50  1  0  0  0  0
 20 21  1  0  0  0  0
 20 51  1  0  0  0  0
 20 52  1  0  0  0  0
 21 53  1  0  0  0  0
 21 54  1  0  0  0  0
 22 24  1  0  0  0  0
 23 25  1  0  0  0  0
 24 26  2  0  0  0  0
 25 55  1  0  0  0  0
 25 56  1  0  0  0  0
 25 57  1  0  0  0  0
 26 27  1  0  0  0  0
 26 58  1  0  0  0  0
 27 28  2  0  0  0  0
 27 59  1  0  0  0  0
 28 60  1  0  0  0  0
M  END
> <PUBCHEM_COMPOUND_CID>
45360468

> <PUBCHEM_CONFORMER_RMSD>
0.8

> <PUBCHEM_CONFORMER_DIVERSEORDER>
1
165
145
156
82
159
142
101
136
94
79
49
81
5
69
52
98
157
9
155
105
23
70
72
97
25
151
115
147
11
152
107
84
134
87
160
132
85
117
35
146
47
19
18
143
120
144
149
78
55
80
86
54
37
103
71
38
154
123
93
130
66
124
110
148
74
141
76
14
102
59
121
153
30
36
56
158
108
131
21
162
40
137
48
116
92
164
139
60
32
27
16
99
51
126
90
140
13
10
133
22
122
128
138
119
50
161
34
104
28
96
64
89
44
118
33
4
73
15
113
135
26
100
163
95
114
127
29
63
91
7
67
112
31
39
88
83
24
106
3
20
62
111
41
45
42
77
2
58
12
150
75
125
129
68
53
17
65
8
43
109
46
6
57
61

> <PUBCHEM_MMFF94_PARTIAL_CHARGES>
25
1 -0.28
11 0.27
12 0.27
13 0.27
14 0.17
15 0.27
18 -0.15
2 -0.81
22 0.36
23 0.48
24 0.09
25 0.14
26 -0.15
27 -0.15
28 -0.01
3 -0.9
4 -0.62
42 0.36
48 0.15
5 -0.62
58 0.15
59 0.15
60 0.15
7 0.27
8 0.14

> <PUBCHEM_EFFECTIVE_ROTOR_COUNT>
7.4

> <PUBCHEM_PHARMACOPHORE_FEATURES>
10
1 1 acceptor
1 2 cation
1 3 cation
1 3 donor
1 4 acceptor
3 4 5 23 cation
5 1 24 26 27 28 rings
6 15 16 17 19 20 21 rings
6 4 5 14 18 22 23 rings
8 2 6 7 8 9 10 11 12 rings

> <PUBCHEM_HEAVY_ATOM_COUNT>
28

> <PUBCHEM_ATOM_DEF_STEREO_COUNT>
3

> <PUBCHEM_ATOM_UDEF_STEREO_COUNT>
0

> <PUBCHEM_BOND_DEF_STEREO_COUNT>
0

> <PUBCHEM_BOND_UDEF_STEREO_COUNT>
0

> <PUBCHEM_ISOTOPIC_ATOM_COUNT>
0

> <PUBCHEM_COMPONENT_COUNT>
1

> <PUBCHEM_CACTVS_TAUTO_COUNT>
1

> <PUBCHEM_CONFORMER_ID>
02B4255400000001

> <PUBCHEM_MMFF94_ENERGY>
48.772

> <PUBCHEM_FEATURE_SELFOVERLAP>
50.747

> <PUBCHEM_SHAPE_FINGERPRINT>
10319688 140 18190468340514284020
10764073 3 18268157470502388421
10928967 22 18201991102394270502
10937287 8 9223219741936773672
11135609 127 10086825592892634691
11135926 11 18194109936337921068
117089 54 18337121089526471018
11954058 11 18189341332658820927
12107183 9 18270134422384217545
12422481 6 17560528287301846471
12623949 98 17679593504316239595
12633257 1 16272199795483022352
13103583 49 16773786013838318590
13533116 47 18194126437612321739
13911852 28 18410856559930193363
13911987 19 17681583607821049828
13955234 65 18052261983529050361
14251764 30 18335424564464157866
14363568 33 18340763836473987568
14863182 85 18192148428947693440
14866123 147 18123190104653254401
15475509 35 18192161605748647507
15537594 2 18202281446382800004
15728490 83 18048883991998874114
16120349 189 10663806473818882786
16728300 4 18201725046523926523
17859628 70 18192434284115462201
19319366 153 17695353959581022273
20505436 4 17340702081600122893
20775530 9 18410283688723715546
212916 134 15482127067150433773
21315759 227 18042109978322135234
21365058 27 17541954525300730964
21421861 104 17916597572962216401
21716022 299 18115048375710730796
21796203 349 18201451297987458250
23466295 7 18050290267433108840
23559900 14 18187922924267904989
3421961 26 18339080496508508816
345986 75 17917439743297918577
3737641 26 18341609305139123264
4112364 45 11815621822087979358
437795 139 16951671512119573194
437795 150 17766854832064895830
44880168 125 17060060285995872542
46194498 28 17313946462617650948
484985 159 17973723571503273538
5309563 4 18410009918612573722
56633871 153 18201717357847041423
613672 6 18192966315052552066
6422251 121 18260546680405013331
6431902 208 18266730287108632158
7970288 3 18409450280195177194
86090 222 17677053567815543867
9555976 147 17559976432209495475
9980921 177 18338817650038948355

> <PUBCHEM_SHAPE_MULTIPOLES>
550.43
13.02
5.46
1.99
0.85
2.63
-1.56
-20.72
4.84
4.8
1.22
-2.62
-0.23
1.23

> <PUBCHEM_SHAPE_SELFOVERLAP>
1182.391

> <PUBCHEM_SHAPE_VOLUME>
298.8

> <PUBCHEM_COORDINATE_TYPE>
2
5
10

$$$$
