45361402
  -OEChem-12032416313D

 76 79  0     1  0  0  0  0  0999 V2000
   -0.1860   -2.7481   -1.1446 O   0  0  0  0  0  0  0  0  0  0  0  0
    4.7323   -2.7875    0.9483 O   0  0  0  0  0  0  0  0  0  0  0  0
   -5.1597    1.9782   -1.3904 O   0  0  0  0  0  0  0  0  0  0  0  0
    6.5729    3.8036    0.1444 O   0  0  0  0  0  0  0  0  0  0  0  0
   -4.5336    0.2602    0.0350 N   0  0  0  0  0  0  0  0  0  0  0  0
    4.2572   -1.9459   -1.1603 N   0  0  0  0  0  0  0  0  0  0  0  0
   -0.3607    0.3409    1.0922 C   0  0  1  0  0  0  0  0  0  0  0  0
   -0.7914   -0.6699   -0.0222 C   0  0  2  0  0  0  0  0  0  0  0  0
   -2.3427   -0.9146    0.0143 C   0  0  1  0  0  0  0  0  0  0  0  0
    0.0886   -1.9527    0.0096 C   0  0  2  0  0  0  0  0  0  0  0  0
    1.1499    0.6458    0.9565 C   0  0  0  0  0  0  0  0  0  0  0  0
   -1.1283    1.6682    0.8931 C   0  0  0  0  0  0  0  0  0  0  0  0
    1.6021   -1.6365   -0.0214 C   0  0  1  0  0  0  0  0  0  0  0  0
   -3.1038    0.4352   -0.1113 C   0  0  2  0  0  0  0  0  0  0  0  0
    2.0172   -0.6042    1.0268 C   0  0  0  0  0  0  0  0  0  0  0  0
   -2.6399    1.4900    0.8928 C   0  0  0  0  0  0  0  0  0  0  0  0
   -0.6335   -0.1971    2.5198 C   0  0  0  0  0  0  0  0  0  0  0  0
    2.4514   -2.9029    0.1424 C   0  0  2  0  0  0  0  0  0  0  0  0
   -2.8398   -1.8788   -1.0760 C   0  0  0  0  0  0  0  0  0  0  0  0
    2.1276   -3.5843    1.4673 C   0  0  0  0  0  0  0  0  0  0  0  0
    3.9327   -2.5517    0.0449 C   0  0  0  0  0  0  0  0  0  0  0  0
   -5.4489    1.0597   -0.6278 C   0  0  0  0  0  0  0  0  0  0  0  0
   -6.8793    0.7695   -0.3509 C   0  0  0  0  0  0  0  0  0  0  0  0
    5.5990   -1.5204   -1.4845 C   0  0  0  0  0  0  0  0  0  0  0  0
   -7.8330    1.7798   -0.4740 C   0  0  0  0  0  0  0  0  0  0  0  0
   -7.2686   -0.5143    0.0310 C   0  0  0  0  0  0  0  0  0  0  0  0
    5.8594   -0.1060   -1.0533 C   0  0  0  0  0  0  0  0  0  0  0  0
   -9.1761    1.5065   -0.2152 C   0  0  0  0  0  0  0  0  0  0  0  0
   -8.6117   -0.7877    0.2897 C   0  0  0  0  0  0  0  0  0  0  0  0
   -9.5655    0.2226    0.1667 C   0  0  0  0  0  0  0  0  0  0  0  0
    5.3245    0.9557   -1.7831 C   0  0  0  0  0  0  0  0  0  0  0  0
    6.6346    0.1462    0.0786 C   0  0  0  0  0  0  0  0  0  0  0  0
    5.5647    2.2694   -1.3809 C   0  0  0  0  0  0  0  0  0  0  0  0
    6.8748    1.4600    0.4808 C   0  0  0  0  0  0  0  0  0  0  0  0
    6.3399    2.5216   -0.2489 C   0  0  0  0  0  0  0  0  0  0  0  0
    7.3738    3.9894    1.3106 C   0  0  0  0  0  0  0  0  0  0  0  0
   -0.5943   -0.1910   -0.9948 H   0  0  0  0  0  0  0  0  0  0  0  0
   -2.6061   -1.3771    0.9739 H   0  0  0  0  0  0  0  0  0  0  0  0
   -0.2043   -2.5361    0.8840 H   0  0  0  0  0  0  0  0  0  0  0  0
    1.3410    1.1492   -0.0009 H   0  0  0  0  0  0  0  0  0  0  0  0
    1.4678    1.3473    1.7386 H   0  0  0  0  0  0  0  0  0  0  0  0
   -0.8530    2.3875    1.6749 H   0  0  0  0  0  0  0  0  0  0  0  0
   -0.8335    2.1251   -0.0612 H   0  0  0  0  0  0  0  0  0  0  0  0
    1.8053   -1.1964   -1.0069 H   0  0  0  0  0  0  0  0  0  0  0  0
   -2.9192    0.8325   -1.1191 H   0  0  0  0  0  0  0  0  0  0  0  0
    3.0554   -0.2881    0.8731 H   0  0  0  0  0  0  0  0  0  0  0  0
    1.9707   -0.9947    2.0454 H   0  0  0  0  0  0  0  0  0  0  0  0
   -3.1089    2.4552    0.6612 H   0  0  0  0  0  0  0  0  0  0  0  0
   -2.9891    1.2327    1.9003 H   0  0  0  0  0  0  0  0  0  0  0  0
   -1.6962   -0.3615    2.7155 H   0  0  0  0  0  0  0  0  0  0  0  0
   -0.2773    0.5145    3.2740 H   0  0  0  0  0  0  0  0  0  0  0  0
   -0.1330   -1.1503    2.7111 H   0  0  0  0  0  0  0  0  0  0  0  0
    2.2385   -3.6079   -0.6715 H   0  0  0  0  0  0  0  0  0  0  0  0
   -2.4764   -1.5819   -2.0652 H   0  0  0  0  0  0  0  0  0  0  0  0
   -3.9331   -1.9153   -1.1221 H   0  0  0  0  0  0  0  0  0  0  0  0
   -2.5230   -2.9050   -0.8700 H   0  0  0  0  0  0  0  0  0  0  0  0
   -4.8441   -0.4031    0.7372 H   0  0  0  0  0  0  0  0  0  0  0  0
    0.0178   -2.2172   -1.9334 H   0  0  0  0  0  0  0  0  0  0  0  0
    1.1014   -3.9541    1.5212 H   0  0  0  0  0  0  0  0  0  0  0  0
    2.7616   -4.4741    1.5764 H   0  0  0  0  0  0  0  0  0  0  0  0
    2.3336   -2.9726    2.3487 H   0  0  0  0  0  0  0  0  0  0  0  0
    3.5485   -1.8337   -1.8780 H   0  0  0  0  0  0  0  0  0  0  0  0
    6.3175   -2.2089   -1.0245 H   0  0  0  0  0  0  0  0  0  0  0  0
    5.7226   -1.6090   -2.5699 H   0  0  0  0  0  0  0  0  0  0  0  0
   -7.5490    2.7873   -0.7662 H   0  0  0  0  0  0  0  0  0  0  0  0
   -6.5635   -1.3367    0.1081 H   0  0  0  0  0  0  0  0  0  0  0  0
   -9.9188    2.2932   -0.3104 H   0  0  0  0  0  0  0  0  0  0  0  0
   -8.9164   -1.7890    0.5801 H   0  0  0  0  0  0  0  0  0  0  0  0
  -10.6114    0.0093    0.3668 H   0  0  0  0  0  0  0  0  0  0  0  0
    4.7180    0.7711   -2.6658 H   0  0  0  0  0  0  0  0  0  0  0  0
    7.0552   -0.6721    0.6572 H   0  0  0  0  0  0  0  0  0  0  0  0
    5.1447    3.0923   -1.9529 H   0  0  0  0  0  0  0  0  0  0  0  0
    7.4842    1.5842    1.3693 H   0  0  0  0  0  0  0  0  0  0  0  0
    6.8947    3.5650    2.1995 H   0  0  0  0  0  0  0  0  0  0  0  0
    8.3906    3.6090    1.1653 H   0  0  0  0  0  0  0  0  0  0  0  0
    7.4571    5.0684    1.4770 H   0  0  0  0  0  0  0  0  0  0  0  0
  1 10  1  0  0  0  0
  1 58  1  0  0  0  0
  2 21  2  0  0  0  0
  3 22  2  0  0  0  0
  4 35  1  0  0  0  0
  4 36  1  0  0  0  0
  5 14  1  0  0  0  0
  5 22  1  0  0  0  0
  5 57  1  0  0  0  0
  6 21  1  0  0  0  0
  6 24  1  0  0  0  0
  6 62  1  0  0  0  0
  7  8  1  0  0  0  0
  7 11  1  0  0  0  0
  7 12  1  0  0  0  0
  7 17  1  0  0  0  0
  8  9  1  0  0  0  0
  8 10  1  0  0  0  0
  8 37  1  0  0  0  0
  9 14  1  0  0  0  0
  9 19  1  0  0  0  0
  9 38  1  0  0  0  0
 10 13  1  0  0  0  0
 10 39  1  0  0  0  0
 11 15  1  0  0  0  0
 11 40  1  0  0  0  0
 11 41  1  0  0  0  0
 12 16  1  0  0  0  0
 12 42  1  0  0  0  0
 12 43  1  0  0  0  0
 13 15  1  0  0  0  0
 13 18  1  0  0  0  0
 13 44  1  0  0  0  0
 14 16  1  0  0  0  0
 14 45  1  0  0  0  0
 15 46  1  0  0  0  0
 15 47  1  0  0  0  0
 16 48  1  0  0  0  0
 16 49  1  0  0  0  0
 17 50  1  0  0  0  0
 17 51  1  0  0  0  0
 17 52  1  0  0  0  0
 18 20  1  0  0  0  0
 18 21  1  0  0  0  0
 18 53  1  0  0  0  0
 19 54  1  0  0  0  0
 19 55  1  0  0  0  0
 19 56  1  0  0  0  0
 20 59  1  0  0  0  0
 20 60  1  0  0  0  0
 20 61  1  0  0  0  0
 22 23  1  0  0  0  0
 23 25  2  0  0  0  0
 23 26  1  0  0  0  0
 24 27  1  0  0  0  0
 24 63  1  0  0  0  0
 24 64  1  0  0  0  0
 25 28  1  0  0  0  0
 25 65  1  0  0  0  0
 26 29  2  0  0  0  0
 26 66  1  0  0  0  0
 27 31  2  0  0  0  0
 27 32  1  0  0  0  0
 28 30  2  0  0  0  0
 28 67  1  0  0  0  0
 29 30  1  0  0  0  0
 29 68  1  0  0  0  0
 30 69  1  0  0  0  0
 31 33  1  0  0  0  0
 31 70  1  0  0  0  0
 32 34  2  0  0  0  0
 32 71  1  0  0  0  0
 33 35  2  0  0  0  0
 33 72  1  0  0  0  0
 34 35  1  0  0  0  0
 34 73  1  0  0  0  0
 36 74  1  0  0  0  0
 36 75  1  0  0  0  0
 36 76  1  0  0  0  0
M  END
> <PUBCHEM_COMPOUND_CID>
45361402

> <PUBCHEM_CONFORMER_RMSD>
1

> <PUBCHEM_CONFORMER_DIVERSEORDER>
1
267
45
74
188
123
131
69
296
250
255
216
210
27
242
274
56
165
218
99
282
58
214
159
5
276
295
184
38
291
94
105
154
168
208
30
258
76
125
122
156
211
103
161
248
239
261
249
189
92
54
23
193
241
15
132
111
245
158
146
137
43
281
199
292
3
144
101
60
90
235
286
48
71
284
138
106
195
257
126
36
205
70
2
277
134
182
234
194
269
67
160
72
21
50
35
171
32
203
102
25
198
197
170
24
130
75
34
271
181
229
65
108
143
8
136
217
273
183
79
163
31
253
46
6
202
201
185
219
66
96
251
243
237
20
220
52
213
187
174
17
221
215
133
120
84
246
116
61
238
151
128
91
280
63
57
227
9
275
268
212
266
115
172
169
290
85
196
232
209
77
252
42
256
285
164
104
44
142
55
191
109
288
93
278
124
73
12
153
118
135
260
80
110
236
89
293
254
200
247
287
173
231
121
145
162
225
49
176
289
81
149
87
82
39
270
204
223
83
47
226
147
178
10
175
224
68
7
40
190
59
233
14
207
29
112
113
186
127
139
228
107
37
13
230
33
192
64
222
155
263
140
41
180
177
167
262
272
148
294
51
86
53
95
152
11
98
244
264
22
19
240
283
150
16
279
26
62
4
141
129
119
117
97
18
28
265
100
114
88
259
179
166
206
78
157

> <PUBCHEM_MMFF94_PARTIAL_CHARGES>
37
1 -0.68
10 0.28
14 0.3
18 0.06
2 -0.57
21 0.57
22 0.54
23 0.09
24 0.44
25 -0.15
26 -0.15
27 -0.14
28 -0.15
29 -0.15
3 -0.57
30 -0.15
31 -0.15
32 -0.15
33 -0.15
34 -0.15
35 0.08
36 0.28
4 -0.36
5 -0.73
57 0.37
58 0.4
6 -0.73
62 0.37
65 0.15
66 0.15
67 0.15
68 0.15
69 0.15
70 0.15
71 0.15
72 0.15
73 0.15

> <PUBCHEM_EFFECTIVE_ROTOR_COUNT>
10.6

> <PUBCHEM_PHARMACOPHORE_FEATURES>
12
1 1 acceptor
1 1 donor
1 2 acceptor
1 20 hydrophobe
1 3 acceptor
1 4 acceptor
1 5 donor
1 6 donor
6 23 25 26 28 29 30 rings
6 27 31 32 33 34 35 rings
6 7 8 10 11 13 15 rings
6 7 8 9 12 14 16 rings

> <PUBCHEM_HEAVY_ATOM_COUNT>
36

> <PUBCHEM_ATOM_DEF_STEREO_COUNT>
6

> <PUBCHEM_ATOM_UDEF_STEREO_COUNT>
1

> <PUBCHEM_BOND_DEF_STEREO_COUNT>
0

> <PUBCHEM_BOND_UDEF_STEREO_COUNT>
0

> <PUBCHEM_ISOTOPIC_ATOM_COUNT>
0

> <PUBCHEM_COMPONENT_COUNT>
1

> <PUBCHEM_CACTVS_TAUTO_COUNT>
4

> <PUBCHEM_CONFORMER_ID>
02B428FA00000001

> <PUBCHEM_MMFF94_ENERGY>
114.3327

> <PUBCHEM_FEATURE_SELFOVERLAP>
60.912

> <PUBCHEM_SHAPE_FINGERPRINT>
10533779 47 9727351372955664981
10673678 19 18411141320493738198
10816530 90 18272644667174564216
11007060 377 18261121747019416873
11135609 187 18270399529061136560
11211813 74 18410854339664580197
11607047 74 18202279192227109050
11693224 71 18198612415037031544
13165053 371 18409450263068620733
13617811 41 18413386536339323872
13782708 43 11815891245571034321
13811026 1 18113904870326304257
13947947 19 17989479741698840543
14117953 113 18335431175600501364
14675020 138 15285359496381827322
150020 25 18336557057219594303
15361156 5 18411135836875367007
15840311 113 18408888421289562830
15890870 6 18335988649438873684
16728300 4 7925648677991723696
16992787 43 18272091617052655849
17686467 74 18040438798774471773
20715895 44 18408886274549465892
21049683 118 17748824146917419562
21049683 271 18342175566607970713
21521721 280 18410016511872572539
21781055 127 15698016124167716731
23522609 53 17488482805314326097
23569914 2 16954458820818620444
34797466 226 18130793321805824574
3552219 110 17917440796261550209
3918712 181 18271238443643706192
4073 2 18187086157539295011
4098825 35 18260547771900945845
4112364 45 18188196672788204960
4149490 64 18113336392771702882
439807 62 13183026194687941852
44317340 157 18412263926466652398
4625314 4 18336267834549474503
5109719 28 18335145318717898824
5265222 85 18412544323834047367
57634706 280 18260828224285141338
636783 267 18337688507173548779
9831232 110 12031786946438617204
9849439 229 18334576889182272724

> <PUBCHEM_SHAPE_MULTIPOLES>
707.42
27.18
3.89
1.47
39.29
0.21
-0.22
19.75
4.77
-8.89
-0.57
-1.52
0.01
0.94

> <PUBCHEM_SHAPE_SELFOVERLAP>
1496.408

> <PUBCHEM_SHAPE_VOLUME>
392.4

> <PUBCHEM_COORDINATE_TYPE>
2
5
10

$$$$
