11883334
  -OEChem-12032416123D

 54 57  0     1  0  0  0  0  0999 V2000
    1.4603   -1.0545   -1.5114 O   0  0  0  0  0  0  0  0  0  0  0  0
    0.5319   -2.9241    0.7350 O   0  0  0  0  0  0  0  0  0  0  0  0
    3.7050   -1.3932    0.0864 O   0  0  0  0  0  0  0  0  0  0  0  0
   -3.4715   -1.4062   -0.0486 O   0  0  0  0  0  0  0  0  0  0  0  0
    4.1062    0.4413    1.3915 O   0  0  0  0  0  0  0  0  0  0  0  0
   -8.8112    0.4010    1.7537 O   0  0  0  0  0  0  0  0  0  0  0  0
   -1.5839   -0.5125   -1.0407 N   0  0  0  0  0  0  0  0  0  0  0  0
   -3.4651    0.7947   -0.8651 N   0  0  0  0  0  0  0  0  0  0  0  0
    5.6895   -0.3461   -0.1426 N   0  0  0  0  0  0  0  0  0  0  0  0
    0.0962   -1.6038    0.3489 C   0  0  1  0  0  0  0  0  0  0  0  0
    1.3313   -0.8461   -0.0951 C   0  0  1  0  0  0  0  0  0  0  0  0
   -0.7500   -1.6812   -0.9004 C   0  0  2  0  0  0  0  0  0  0  0  0
    2.4318   -1.5362    0.6745 C   0  0  1  0  0  0  0  0  0  0  0  0
    0.2993   -1.7463   -1.9967 C   0  0  0  0  0  0  0  0  0  0  0  0
    1.9650   -2.9744    0.6785 C   0  0  0  0  0  0  0  0  0  0  0  0
   -2.9106   -0.4596   -0.5952 C   0  0  0  0  0  0  0  0  0  0  0  0
    4.4824   -0.3431    0.5292 C   0  0  0  0  0  0  0  0  0  0  0  0
   -4.7734    1.2462   -0.5737 C   0  0  0  0  0  0  0  0  0  0  0  0
    6.7704    0.5524    0.0060 C   0  0  0  0  0  0  0  0  0  0  0  0
   -5.6804    0.3964    0.0594 C   0  0  0  0  0  0  0  0  0  0  0  0
   -5.1567    2.5419   -0.9199 C   0  0  0  0  0  0  0  0  0  0  0  0
   -6.9707    0.8422    0.3459 C   0  0  0  0  0  0  0  0  0  0  0  0
    7.9214    0.3922   -0.7656 C   0  0  0  0  0  0  0  0  0  0  0  0
    6.6866    1.5989    0.9243 C   0  0  0  0  0  0  0  0  0  0  0  0
   -6.4469    2.9878   -0.6333 C   0  0  0  0  0  0  0  0  0  0  0  0
   -7.3539    2.1379   -0.0003 C   0  0  0  0  0  0  0  0  0  0  0  0
    8.9884    1.2785   -0.6189 C   0  0  0  0  0  0  0  0  0  0  0  0
    7.7537    2.4852    1.0710 C   0  0  0  0  0  0  0  0  0  0  0  0
   -7.9165   -0.0430    1.0066 C   0  0  0  0  0  0  0  0  0  0  0  0
    8.9047    2.3250    0.2994 C   0  0  0  0  0  0  0  0  0  0  0  0
   -7.8331   -1.5513    0.7974 C   0  0  0  0  0  0  0  0  0  0  0  0
   -0.4021   -1.1526    1.2128 H   0  0  0  0  0  0  0  0  0  0  0  0
    1.2819    0.2326    0.0791 H   0  0  0  0  0  0  0  0  0  0  0  0
   -1.3864   -2.5723   -0.9263 H   0  0  0  0  0  0  0  0  0  0  0  0
    2.4217   -1.1880    1.7167 H   0  0  0  0  0  0  0  0  0  0  0  0
   -0.0208   -1.2988   -2.9427 H   0  0  0  0  0  0  0  0  0  0  0  0
    0.5990   -2.7823   -2.1899 H   0  0  0  0  0  0  0  0  0  0  0  0
    2.3470   -3.5337    1.5379 H   0  0  0  0  0  0  0  0  0  0  0  0
    2.2648   -3.5119   -0.2282 H   0  0  0  0  0  0  0  0  0  0  0  0
   -1.1706    0.3333   -1.4219 H   0  0  0  0  0  0  0  0  0  0  0  0
   -2.8621    1.4703   -1.3279 H   0  0  0  0  0  0  0  0  0  0  0  0
    5.8197   -1.0845   -0.8297 H   0  0  0  0  0  0  0  0  0  0  0  0
   -5.4237   -0.6069    0.3642 H   0  0  0  0  0  0  0  0  0  0  0  0
   -4.4599    3.2144   -1.4138 H   0  0  0  0  0  0  0  0  0  0  0  0
    7.9998   -0.4191   -1.4848 H   0  0  0  0  0  0  0  0  0  0  0  0
    5.8289    1.7856    1.5554 H   0  0  0  0  0  0  0  0  0  0  0  0
   -6.7456    3.9964   -0.9038 H   0  0  0  0  0  0  0  0  0  0  0  0
   -8.3561    2.5017    0.2116 H   0  0  0  0  0  0  0  0  0  0  0  0
    9.8847    1.1538   -1.2196 H   0  0  0  0  0  0  0  0  0  0  0  0
    7.6897    3.3005    1.7858 H   0  0  0  0  0  0  0  0  0  0  0  0
    9.7355    3.0151    0.4138 H   0  0  0  0  0  0  0  0  0  0  0  0
   -8.8341   -1.9811    0.9007 H   0  0  0  0  0  0  0  0  0  0  0  0
   -7.4786   -1.7852   -0.2101 H   0  0  0  0  0  0  0  0  0  0  0  0
   -7.1691   -1.9890    1.5467 H   0  0  0  0  0  0  0  0  0  0  0  0
  1 11  1  0  0  0  0
  1 14  1  0  0  0  0
  2 10  1  0  0  0  0
  2 15  1  0  0  0  0
  3 13  1  0  0  0  0
  3 17  1  0  0  0  0
  4 16  2  0  0  0  0
  5 17  2  0  0  0  0
  6 29  2  0  0  0  0
  7 12  1  0  0  0  0
  7 16  1  0  0  0  0
  7 40  1  0  0  0  0
  8 16  1  0  0  0  0
  8 18  1  0  0  0  0
  8 41  1  0  0  0  0
  9 17  1  0  0  0  0
  9 19  1  0  0  0  0
  9 42  1  0  0  0  0
 10 11  1  0  0  0  0
 10 12  1  0  0  0  0
 10 32  1  0  0  0  0
 11 13  1  0  0  0  0
 11 33  1  0  0  0  0
 12 14  1  0  0  0  0
 12 34  1  0  0  0  0
 13 15  1  0  0  0  0
 13 35  1  0  0  0  0
 14 36  1  0  0  0  0
 14 37  1  0  0  0  0
 15 38  1  0  0  0  0
 15 39  1  0  0  0  0
 18 20  1  0  0  0  0
 18 21  2  0  0  0  0
 19 23  2  0  0  0  0
 19 24  1  0  0  0  0
 20 22  2  0  0  0  0
 20 43  1  0  0  0  0
 21 25  1  0  0  0  0
 21 44  1  0  0  0  0
 22 26  1  0  0  0  0
 22 29  1  0  0  0  0
 23 27  1  0  0  0  0
 23 45  1  0  0  0  0
 24 28  2  0  0  0  0
 24 46  1  0  0  0  0
 25 26  2  0  0  0  0
 25 47  1  0  0  0  0
 26 48  1  0  0  0  0
 27 30  2  0  0  0  0
 27 49  1  0  0  0  0
 28 30  1  0  0  0  0
 28 50  1  0  0  0  0
 29 31  1  0  0  0  0
 30 51  1  0  0  0  0
 31 52  1  0  0  0  0
 31 53  1  0  0  0  0
 31 54  1  0  0  0  0
M  END
> <PUBCHEM_COMPOUND_CID>
11883334

> <PUBCHEM_CONFORMER_RMSD>
1

> <PUBCHEM_CONFORMER_DIVERSEORDER>
1
130
25
159
108
90
102
98
150
144
116
138
29
129
72
122
56
113
46
143
111
105
147
117
170
55
155
134
157
168
62
107
39
40
165
84
175
24
67
120
109
85
106
142
160
100
114
163
156
152
112
97
104
171
71
101
148
69
164
99
94
124
118
173
86
176
121
61
133
162
167
145
91
63
140
115
139
21
88
169
49
58
48
31
149
78
37
136
36
95
158
161
50
89
174
35
65
132
77
8
103
59
79
41
80
123
54
34
27
44
126
47
76
131
92
141
74
42
127
11
119
81
110
12
43
45
166
66
38
151
30
135
82
68
16
172
128
2
32
153
125
87
154
73
28
52
51
96
83
7
20
57
26
64
9
3
60
75
18
93
23
5
137
19
13
10
70
22
6
4
53
33
15
146
17
14

> <PUBCHEM_MMFF94_PARTIAL_CHARGES>
43
1 -0.56
10 0.28
11 0.28
12 0.3
13 0.28
14 0.28
15 0.28
16 0.69
17 0.78
18 0.12
19 0.12
2 -0.56
20 -0.15
21 -0.15
22 0.09
23 -0.15
24 -0.15
25 -0.15
26 -0.15
27 -0.15
28 -0.15
29 0.42
3 -0.43
30 -0.15
31 0.06
4 -0.57
40 0.37
41 0.37
42 0.37
43 0.15
44 0.15
45 0.15
46 0.15
47 0.15
48 0.15
49 0.15
5 -0.57
50 0.15
51 0.15
6 -0.57
7 -0.73
8 -0.55
9 -0.55

> <PUBCHEM_EFFECTIVE_ROTOR_COUNT>
10.2

> <PUBCHEM_PHARMACOPHORE_FEATURES>
12
1 1 acceptor
1 2 acceptor
1 4 acceptor
1 5 acceptor
1 6 acceptor
1 7 donor
1 8 donor
1 9 donor
5 1 10 11 12 14 rings
5 2 10 11 13 15 rings
6 18 20 21 22 25 26 rings
6 19 23 24 27 28 30 rings

> <PUBCHEM_HEAVY_ATOM_COUNT>
31

> <PUBCHEM_ATOM_DEF_STEREO_COUNT>
4

> <PUBCHEM_ATOM_UDEF_STEREO_COUNT>
0

> <PUBCHEM_BOND_DEF_STEREO_COUNT>
0

> <PUBCHEM_BOND_UDEF_STEREO_COUNT>
0

> <PUBCHEM_ISOTOPIC_ATOM_COUNT>
0

> <PUBCHEM_COMPONENT_COUNT>
1

> <PUBCHEM_CACTVS_TAUTO_COUNT>
12

> <PUBCHEM_CONFORMER_ID>
00B5534600000001

> <PUBCHEM_MMFF94_ENERGY>
94.3612

> <PUBCHEM_FEATURE_SELFOVERLAP>
61.667

> <PUBCHEM_SHAPE_FINGERPRINT>
10 15 18260547814333511259
10055352 69 18342736364413095857
10369192 42 18272649043804137895
106641 1 17095244734702751818
10674148 151 12751238090633298407
10917259 69 10087102725705368515
11103572 95 11963928365827164936
11146346 171 18339934740272521214
12013929 112 13038912097475880321
12098696 120 18343297072647114504
12202916 173 8574717914003375648
12539765 74 18272653429119578910
12643181 29 9151170953072549157
14279260 333 11169900698933827827
14565420 104 18040994004184921386
14849402 71 18335139825349407341
15183329 4 11671779348104739367
15188451 53 8070033276992943014
15347590 135 16370719314656107896
15392192 104 16298392362271485818
15706992 2 18340780307156616096
1577012 14 18341884200052201174
15840311 113 18336548227214804902
16126227 98 18409729581770307491
16664035 7 17385442129653733749
16992610 120 18187940495432911142
1768 4 18343586252636684377
17686467 74 18335702793531938331
18603816 31 12613041630301832089
19302320 297 18260545663257269316
20105231 36 11815599927679730165
2026 5 9151178657574530276
20505436 4 18343858918356578358
21130935 74 17822854152866956659
21307412 95 12679175059282734484
21424621 283 18408038516408454426
21585482 111 18263358109956768908
22224240 67 17385724690281151714
23559900 14 10303509703811302887
23729398 52 18120090581897631122
24771293 8 18261109685986384615
25269216 80 17274525634041563959
2835820 33 18261677082196847315
3633792 109 14908178686327183746
3711267 37 18272942612913927481
4339292 15 9799425421424688416
437795 150 12751228242996196853
4403749 210 18187359905895778383
5104073 3 18116997672888366339
5470011 282 10951758708115124874
5718773 13 9367344851629539804
5758199 1 18260546727649081178
59682541 35 17967255312264354785
6126387 218 12468636136669702399
9689198 14 18413390934384938124

> <PUBCHEM_SHAPE_MULTIPOLES>
587.81
31.66
3.12
1.29
11.05
0.27
-0.14
26.59
7.58
-0.21
0.08
-0.39
-0.18
1.79

> <PUBCHEM_SHAPE_SELFOVERLAP>
1268.017

> <PUBCHEM_SHAPE_VOLUME>
321.9

> <PUBCHEM_COORDINATE_TYPE>
2
5
10

$$$$
