51137058
  -OEChem-12032416243D

 45 48  0     1  0  0  0  0  0999 V2000
    2.6418    0.0029    1.3409 O   0  0  0  0  0  0  0  0  0  0  0  0
   -1.7170    1.0841   -0.1239 N   0  0  1  0  0  0  0  0  0  0  0  0
    2.4147    0.3778   -0.8828 N   0  0  0  0  0  0  0  0  0  0  0  0
   -3.7176   -0.3234   -0.3534 C   0  0  0  0  0  0  0  0  0  0  0  0
   -2.7578    0.6453   -1.0417 C   0  0  0  0  0  0  0  0  0  0  0  0
    0.4788    0.9126    0.6816 C   0  0  2  0  0  0  0  0  0  0  0  0
   -0.6363    0.1042    0.0050 C   0  0  0  0  0  0  0  0  0  0  0  0
   -4.4126    0.3549    0.8349 C   0  0  0  0  0  0  0  0  0  0  0  0
   -4.7486   -0.8662   -1.3522 C   0  0  0  0  0  0  0  0  0  0  0  0
   -1.0607    2.3123   -0.5721 C   0  0  0  0  0  0  0  0  0  0  0  0
    0.1795    2.3755    0.3100 C   0  0  0  0  0  0  0  0  0  0  0  0
   -5.4176   -0.5776    1.5074 C   0  0  0  0  0  0  0  0  0  0  0  0
   -5.7531   -1.7966   -0.6760 C   0  0  0  0  0  0  0  0  0  0  0  0
   -6.4353   -1.1219    0.5099 C   0  0  0  0  0  0  0  0  0  0  0  0
    1.8629    0.4334    0.3094 C   0  0  0  0  0  0  0  0  0  0  0  0
    3.8079   -0.3624    0.7313 C   0  0  0  0  0  0  0  0  0  0  0  0
    3.6651   -0.1317   -0.6290 C   0  0  0  0  0  0  0  0  0  0  0  0
    4.9509   -0.8759    1.3316 C   0  0  0  0  0  0  0  0  0  0  0  0
    4.7367   -0.4295   -1.4829 C   0  0  0  0  0  0  0  0  0  0  0  0
    6.0104   -1.1679    0.4658 C   0  0  0  0  0  0  0  0  0  0  0  0
    5.9079   -0.9499   -0.9137 C   0  0  0  0  0  0  0  0  0  0  0  0
   -3.1514   -1.1850    0.0260 H   0  0  0  0  0  0  0  0  0  0  0  0
   -2.3321    0.1958   -1.9484 H   0  0  0  0  0  0  0  0  0  0  0  0
   -3.3392    1.5148   -1.3786 H   0  0  0  0  0  0  0  0  0  0  0  0
    0.3669    0.8186    1.7712 H   0  0  0  0  0  0  0  0  0  0  0  0
   -0.3113   -0.2750   -0.9730 H   0  0  0  0  0  0  0  0  0  0  0  0
   -0.9253   -0.7515    0.6245 H   0  0  0  0  0  0  0  0  0  0  0  0
   -3.6806    0.6707    1.5871 H   0  0  0  0  0  0  0  0  0  0  0  0
   -4.9337    1.2603    0.4977 H   0  0  0  0  0  0  0  0  0  0  0  0
   -5.2883   -0.0337   -1.8217 H   0  0  0  0  0  0  0  0  0  0  0  0
   -4.2400   -1.4093   -2.1576 H   0  0  0  0  0  0  0  0  0  0  0  0
   -0.7648    2.2509   -1.6274 H   0  0  0  0  0  0  0  0  0  0  0  0
   -1.6945    3.1942   -0.4359 H   0  0  0  0  0  0  0  0  0  0  0  0
   -0.0360    2.9457    1.2223 H   0  0  0  0  0  0  0  0  0  0  0  0
    1.0093    2.8721   -0.2041 H   0  0  0  0  0  0  0  0  0  0  0  0
   -5.9383   -0.0417    2.3090 H   0  0  0  0  0  0  0  0  0  0  0  0
   -4.8829   -1.4129    1.9764 H   0  0  0  0  0  0  0  0  0  0  0  0
   -5.2381   -2.7027   -0.3341 H   0  0  0  0  0  0  0  0  0  0  0  0
   -6.5084   -2.1142   -1.4037 H   0  0  0  0  0  0  0  0  0  0  0  0
   -7.0969   -1.8374    1.0110 H   0  0  0  0  0  0  0  0  0  0  0  0
   -7.0670   -0.3010    0.1487 H   0  0  0  0  0  0  0  0  0  0  0  0
    5.0199   -1.0407    2.3995 H   0  0  0  0  0  0  0  0  0  0  0  0
    4.6683   -0.2647   -2.5531 H   0  0  0  0  0  0  0  0  0  0  0  0
    6.9337   -1.5728    0.8733 H   0  0  0  0  0  0  0  0  0  0  0  0
    6.7519   -1.1884   -1.5563 H   0  0  0  0  0  0  0  0  0  0  0  0
  1 15  1  0  0  0  0
  1 16  1  0  0  0  0
  2  5  1  0  0  0  0
  2  7  1  0  0  0  0
  2 10  1  0  0  0  0
  3 15  2  0  0  0  0
  3 17  1  0  0  0  0
  4  5  1  0  0  0  0
  4  8  1  0  0  0  0
  4  9  1  0  0  0  0
  4 22  1  0  0  0  0
  5 23  1  0  0  0  0
  5 24  1  0  0  0  0
  6  7  1  0  0  0  0
  6 11  1  0  0  0  0
  6 15  1  0  0  0  0
  6 25  1  0  0  0  0
  7 26  1  0  0  0  0
  7 27  1  0  0  0  0
  8 12  1  0  0  0  0
  8 28  1  0  0  0  0
  8 29  1  0  0  0  0
  9 13  1  0  0  0  0
  9 30  1  0  0  0  0
  9 31  1  0  0  0  0
 10 11  1  0  0  0  0
 10 32  1  0  0  0  0
 10 33  1  0  0  0  0
 11 34  1  0  0  0  0
 11 35  1  0  0  0  0
 12 14  1  0  0  0  0
 12 36  1  0  0  0  0
 12 37  1  0  0  0  0
 13 14  1  0  0  0  0
 13 38  1  0  0  0  0
 13 39  1  0  0  0  0
 14 40  1  0  0  0  0
 14 41  1  0  0  0  0
 16 17  1  0  0  0  0
 16 18  2  0  0  0  0
 17 19  2  0  0  0  0
 18 20  1  0  0  0  0
 18 42  1  0  0  0  0
 19 21  1  0  0  0  0
 19 43  1  0  0  0  0
 20 21  2  0  0  0  0
 20 44  1  0  0  0  0
 21 45  1  0  0  0  0
M  END
> <PUBCHEM_COMPOUND_CID>
51137058

> <PUBCHEM_CONFORMER_RMSD>
0.8

> <PUBCHEM_CONFORMER_DIVERSEORDER>
1
35
44
32
40
23
30
33
27
38
4
29
12
14
13
17
6
34
21
8
36
43
31
10
15
18
37
3
42
25
7
26
41
16
2
28
5
20
24
22
9
19
39
11

> <PUBCHEM_MMFF94_PARTIAL_CHARGES>
18
1 -0.28
10 0.27
15 0.3
16 0.14
17 0.23
18 -0.15
19 -0.15
2 -0.81
20 -0.15
21 -0.15
3 -0.57
42 0.15
43 0.15
44 0.15
45 0.15
5 0.27
6 0.18
7 0.27

> <PUBCHEM_EFFECTIVE_ROTOR_COUNT>
5.2

> <PUBCHEM_PHARMACOPHORE_FEATURES>
5
1 2 cation
5 1 3 15 16 17 rings
5 2 6 7 10 11 rings
6 16 17 18 19 20 21 rings
6 4 8 9 12 13 14 rings

> <PUBCHEM_HEAVY_ATOM_COUNT>
21

> <PUBCHEM_ATOM_DEF_STEREO_COUNT>
1

> <PUBCHEM_ATOM_UDEF_STEREO_COUNT>
0

> <PUBCHEM_BOND_DEF_STEREO_COUNT>
0

> <PUBCHEM_BOND_UDEF_STEREO_COUNT>
0

> <PUBCHEM_ISOTOPIC_ATOM_COUNT>
0

> <PUBCHEM_COMPONENT_COUNT>
1

> <PUBCHEM_CACTVS_TAUTO_COUNT>
1

> <PUBCHEM_CONFORMER_ID>
030C4A2200000001

> <PUBCHEM_MMFF94_ENERGY>
29.1578

> <PUBCHEM_FEATURE_SELFOVERLAP>
25.492

> <PUBCHEM_SHAPE_FINGERPRINT>
10 15 13470404509114634455
10319926 262 16128389198425404373
10693767 8 16807001036713119210
11089746 13 11025804219118042678
11545043 162 17988918951444075345
117890 112 10015865375044615038
12166972 35 17458350740647135900
12236239 1 17749672900825931500
12516196 113 18343302586846766488
12596602 18 15123507025534836047
12760667 363 18335138687609796131
12892183 10 15913336771046555165
13288520 33 18408604760601629349
13668630 136 17967254191077930563
13685833 64 18410857694096815747
13690498 29 15719961353966693555
13740256 8 18410011061300285929
13862211 1 18409727370036275387
14123256 34 18411423920699015599
14251752 14 17895468142790543581
14251757 5 17023477467975665363
14251764 18 13830125101234126953
14251764 30 18342459235610940051
14341114 176 15554449595950648874
14528608 73 13767924632733135187
14576447 43 17894629228197684272
15003188 100 13623821556565554222
15142383 8 15697722514990685554
15183329 4 15430029942214230299
15188451 53 17274250769183246303
15238133 3 10735868487710492958
15348495 7 16128367220540141683
15475509 84 13398080730342397482
15537594 2 18409727357209778995
17492 89 18119806911827946690
17780758 139 17489586771171106379
17844677 252 18412824685564947665
1813 80 18413113870187224989
18222031 100 18411416237123803273
19141452 34 17275098461755231143
193927 3 18412547617208423157
19784866 140 17967812743242939905
200 152 17676207940157002088
20028762 73 17988076802899929711
20281389 69 12175619572852981819
20871999 31 16515680040279898821
21150785 3 17894638054629933814
21521239 73 16153423935522880834
21637258 2 18408599271058379741
221357 26 15430032158401745942
22950370 63 18411986866489279909
23016692 55 18407760339586624189
23198884 109 13695583348127308315
23402539 116 17968097477883745205
23522609 53 18194997142667603145
23559900 14 16805889605833216173
2748736 6 9367348136879185699
2838139 119 11458419154614071895
29717793 49 17458343001311279158
3004659 81 17530961388986212378
312425 54 16917072157183276079
314173 85 18202560670517462025
329604 57 17894632547611369928
33382 64 17988928821490099622
3472631 163 9006762208097501194
34797466 226 15357703002456514391
351380 3 18408603669157865583
3737641 26 17916030066106490774
465052 167 18411423942094679007
5104073 3 17559400356698243555
5207 217 11891337573601510017
5385378 56 10087658004018491549
543368 44 11314301759879879183
559249 180 18343864416778847103
59682541 52 13768196165393293360
7970288 3 18410288116576970079
8863177 126 18043258044729155819

> <PUBCHEM_SHAPE_MULTIPOLES>
416.34
16.92
1.72
1.37
2.82
0.86
-0.03
-11.57
-0.55
0.97
0.15
-0.12
-0.25
-0.2

> <PUBCHEM_SHAPE_SELFOVERLAP>
892.541

> <PUBCHEM_SHAPE_VOLUME>
231

> <PUBCHEM_COORDINATE_TYPE>
2
5
10

$$$$
