56774399
  -OEChem-12032416243D

 38 40  0     1  0  0  0  0  0999 V2000
    1.7066    0.5217    1.2411 O   0  0  0  0  0  0  0  0  0  0  0  0
   -2.8090    0.6870   -0.1360 N   0  0  1  0  0  0  0  0  0  0  0  0
    1.3238    0.0406   -0.9404 N   0  0  0  0  0  0  0  0  0  0  0  0
   -0.5664    0.9747    0.4864 C   0  0  2  0  0  0  0  0  0  0  0  0
   -1.6341   -0.1005    0.2436 C   0  0  0  0  0  0  0  0  0  0  0  0
   -1.0241    2.1760   -0.3589 C   0  0  0  0  0  0  0  0  0  0  0  0
   -2.2987    1.7089   -1.0499 C   0  0  0  0  0  0  0  0  0  0  0  0
   -3.8514   -0.1279   -0.7423 C   0  0  0  0  0  0  0  0  0  0  0  0
   -4.4381   -1.1570    0.2393 C   0  0  0  0  0  0  0  0  0  0  0  0
    0.8350    0.4900    0.1946 C   0  0  0  0  0  0  0  0  0  0  0  0
   -5.0490   -0.4333    1.4424 C   0  0  0  0  0  0  0  0  0  0  0  0
   -5.4939   -2.0542   -0.4118 C   0  0  0  0  0  0  0  0  0  0  0  0
    2.8673    0.0407    0.7062 C   0  0  0  0  0  0  0  0  0  0  0  0
    2.6293   -0.2525   -0.6284 C   0  0  0  0  0  0  0  0  0  0  0  0
    4.0854   -0.1368    1.3508 C   0  0  0  0  0  0  0  0  0  0  0  0
    3.6764   -0.7666   -1.4066 C   0  0  0  0  0  0  0  0  0  0  0  0
    5.1193   -0.6508    0.5606 C   0  0  0  0  0  0  0  0  0  0  0  0
    4.9215   -0.9600   -0.7908 C   0  0  0  0  0  0  0  0  0  0  0  0
   -0.6091    1.2781    1.5423 H   0  0  0  0  0  0  0  0  0  0  0  0
   -1.7954   -0.6824    1.1572 H   0  0  0  0  0  0  0  0  0  0  0  0
   -1.3311   -0.7891   -0.5564 H   0  0  0  0  0  0  0  0  0  0  0  0
   -0.2749    2.5067   -1.0859 H   0  0  0  0  0  0  0  0  0  0  0  0
   -1.2433    3.0237    0.3023 H   0  0  0  0  0  0  0  0  0  0  0  0
   -3.0064    2.5327   -1.1859 H   0  0  0  0  0  0  0  0  0  0  0  0
   -2.0547    1.2892   -2.0343 H   0  0  0  0  0  0  0  0  0  0  0  0
   -4.6627    0.5252   -1.0903 H   0  0  0  0  0  0  0  0  0  0  0  0
   -3.4718   -0.6512   -1.6303 H   0  0  0  0  0  0  0  0  0  0  0  0
   -3.6468   -1.8237    0.6018 H   0  0  0  0  0  0  0  0  0  0  0  0
   -5.8311    0.2679    1.1311 H   0  0  0  0  0  0  0  0  0  0  0  0
   -5.5019   -1.1521    2.1344 H   0  0  0  0  0  0  0  0  0  0  0  0
   -4.2956    0.1244    2.0076 H   0  0  0  0  0  0  0  0  0  0  0  0
   -6.3399   -1.4655   -0.7823 H   0  0  0  0  0  0  0  0  0  0  0  0
   -5.8777   -2.7896    0.3031 H   0  0  0  0  0  0  0  0  0  0  0  0
   -5.0653   -2.6007   -1.2584 H   0  0  0  0  0  0  0  0  0  0  0  0
    4.2280    0.1055    2.3965 H   0  0  0  0  0  0  0  0  0  0  0  0
    3.5344   -1.0097   -2.4543 H   0  0  0  0  0  0  0  0  0  0  0  0
    6.0980   -0.8133    1.0059 H   0  0  0  0  0  0  0  0  0  0  0  0
    5.7482   -1.3575   -1.3743 H   0  0  0  0  0  0  0  0  0  0  0  0
  1 10  1  0  0  0  0
  1 13  1  0  0  0  0
  2  5  1  0  0  0  0
  2  7  1  0  0  0  0
  2  8  1  0  0  0  0
  3 10  2  0  0  0  0
  3 14  1  0  0  0  0
  4  5  1  0  0  0  0
  4  6  1  0  0  0  0
  4 10  1  0  0  0  0
  4 19  1  0  0  0  0
  5 20  1  0  0  0  0
  5 21  1  0  0  0  0
  6  7  1  0  0  0  0
  6 22  1  0  0  0  0
  6 23  1  0  0  0  0
  7 24  1  0  0  0  0
  7 25  1  0  0  0  0
  8  9  1  0  0  0  0
  8 26  1  0  0  0  0
  8 27  1  0  0  0  0
  9 11  1  0  0  0  0
  9 12  1  0  0  0  0
  9 28  1  0  0  0  0
 11 29  1  0  0  0  0
 11 30  1  0  0  0  0
 11 31  1  0  0  0  0
 12 32  1  0  0  0  0
 12 33  1  0  0  0  0
 12 34  1  0  0  0  0
 13 14  1  0  0  0  0
 13 15  2  0  0  0  0
 14 16  2  0  0  0  0
 15 17  1  0  0  0  0
 15 35  1  0  0  0  0
 16 18  1  0  0  0  0
 16 36  1  0  0  0  0
 17 18  2  0  0  0  0
 17 37  1  0  0  0  0
 18 38  1  0  0  0  0
M  END
> <PUBCHEM_COMPOUND_CID>
56774399

> <PUBCHEM_CONFORMER_RMSD>
0.6

> <PUBCHEM_CONFORMER_DIVERSEORDER>
1
14
19
28
30
25
26
7
13
8
11
16
29
23
2
22
18
4
15
24
6
27
17
9
12
3
21
10
5
20

> <PUBCHEM_MMFF94_PARTIAL_CHARGES>
18
1 -0.28
10 0.3
13 0.14
14 0.23
15 -0.15
16 -0.15
17 -0.15
18 -0.15
2 -0.81
3 -0.57
35 0.15
36 0.15
37 0.15
38 0.15
4 0.18
5 0.27
7 0.27
8 0.27

> <PUBCHEM_EFFECTIVE_ROTOR_COUNT>
4

> <PUBCHEM_PHARMACOPHORE_FEATURES>
5
1 2 cation
3 9 11 12 hydrophobe
5 1 3 10 13 14 rings
5 2 4 5 6 7 rings
6 13 14 15 16 17 18 rings

> <PUBCHEM_HEAVY_ATOM_COUNT>
18

> <PUBCHEM_ATOM_DEF_STEREO_COUNT>
1

> <PUBCHEM_ATOM_UDEF_STEREO_COUNT>
0

> <PUBCHEM_BOND_DEF_STEREO_COUNT>
0

> <PUBCHEM_BOND_UDEF_STEREO_COUNT>
0

> <PUBCHEM_ISOTOPIC_ATOM_COUNT>
0

> <PUBCHEM_COMPONENT_COUNT>
1

> <PUBCHEM_CACTVS_TAUTO_COUNT>
1

> <PUBCHEM_CONFORMER_ID>
03624EFF00000001

> <PUBCHEM_MMFF94_ENERGY>
27.9397

> <PUBCHEM_FEATURE_SELFOVERLAP>
25.49

> <PUBCHEM_SHAPE_FINGERPRINT>
10354089 29 14979958094542052314
11045515 52 15864073178560664093
11046707 91 18334293176095097097
11089746 13 10737285783667566422
11128504 68 17385449838096070982
11370993 144 16917076520853756735
11543360 7 14996281440115582065
11552529 35 15696849627243796223
11796584 16 18050846616323015646
12236239 1 17167861937657742808
12670546 177 15647052668301924387
12892183 10 16415491449782287971
12969540 114 11530759349194926851
13103583 49 17131565998195113435
13675066 3 16630530617932631553
13740256 8 18410857706786434747
13862211 1 18334290994109773379
14251718 22 18187085057631365276
14251752 14 17385995158131797949
14251757 5 16734126702260003051
14251758 9 12823028499309146332
14252887 29 17561363968031705498
14341114 176 16272215192909272962
14386348 63 18202282493896039967
14576447 43 17458061564799207754
15537594 2 18260270741994217539
15880784 105 18060139890221595211
16752209 62 17821719533917331889
17349148 13 17385725764207117786
17834072 33 16298391266279215290
17844677 252 18412827984110309137
1813 80 18410579513212601069
18222031 100 18409728499812829061
18785283 64 17773300447745067416
19050596 39 14548728500420280740
19141452 34 17917428770115523191
193927 3 18409456911856179899
19784866 170 12895078426645639565
200 152 16877662353118083713
20374829 77 18407757049879065183
20871999 31 17240197729781315229
21054139 6 17458341944781200698
21065201 7 18266170631046447568
21150785 3 18041573477362638646
212847 35 9223240641310673110
21728266 224 17968642835787902112
221357 26 14345785063750610071
23402539 116 17530683178168913341
23402655 69 13984653750767021279
23503953 91 13758066373134935510
23557571 272 18340484443987320685
23559900 14 17241049923832791632
23590187 135 18410006645773218774
26918003 58 17418094312924279659
2838139 119 11097846424040605919
29717793 49 17095519565681774574
312425 54 17704082789352438227
314173 85 18413109463835336241
351380 3 18113339730293139491
495365 180 11819265685622660248
5104073 3 17345472583822981842
5352402 22 17489594458439957879
542803 24 13758070809772881050
59682541 52 13768744868866646083
602551 16 18411135857184587034
7495541 125 18413386549371340248
7970288 3 18334292106564773579

> <PUBCHEM_SHAPE_MULTIPOLES>
354.6
12.52
1.6
1.29
2.95
0.35
-0.1
-7.65
-0.66
1.96
0.37
-0.5
-0.08
0.53

> <PUBCHEM_SHAPE_SELFOVERLAP>
754.316

> <PUBCHEM_SHAPE_VOLUME>
201.1

> <PUBCHEM_COORDINATE_TYPE>
2
5
10

$$$$
