75537021
  -OEChem-12032416313D

 54 57  0     1  0  0  0  0  0999 V2000
    3.9625   -2.3623    0.4724 O   0  0  0  0  0  0  0  0  0  0  0  0
   -2.8884   -3.1821    0.0237 O   0  0  0  0  0  0  0  0  0  0  0  0
    3.2051   -0.1504    0.1639 N   0  0  0  0  0  0  0  0  0  0  0  0
    1.6858   -1.7972    0.3373 N   0  0  0  0  0  0  0  0  0  0  0  0
   -0.9714   -1.9750   -0.4644 N   0  0  0  0  0  0  0  0  0  0  0  0
   -3.0544   -0.9019   -0.1513 N   0  0  0  0  0  0  0  0  0  0  0  0
    0.8990   -0.5761    0.2803 C   0  0  1  0  0  0  0  0  0  0  0  0
    4.4546    0.5632    0.0572 C   0  0  0  0  0  0  0  0  0  0  0  0
    1.9261    0.5009   -0.0587 C   0  0  0  0  0  0  0  0  0  0  0  0
    4.5976    1.5688    1.2023 C   0  0  0  0  0  0  0  0  0  0  0  0
    4.5713    1.2506   -1.3058 C   0  0  0  0  0  0  0  0  0  0  0  0
   -0.2307   -0.7254   -0.7341 C   0  0  0  0  0  0  0  0  0  0  0  0
    3.0642   -1.5407    0.3450 C   0  0  0  0  0  0  0  0  0  0  0  0
    1.0213   -3.0815    0.4791 C   0  0  0  0  0  0  0  0  0  0  0  0
    5.8879    2.3759    1.0844 C   0  0  0  0  0  0  0  0  0  0  0  0
    5.8626    2.0568   -1.4199 C   0  0  0  0  0  0  0  0  0  0  0  0
    6.0039    3.0572   -0.2762 C   0  0  0  0  0  0  0  0  0  0  0  0
   -0.1351   -3.1854   -0.5148 C   0  0  0  0  0  0  0  0  0  0  0  0
   -2.3416   -2.0939   -0.1851 C   0  0  0  0  0  0  0  0  0  0  0  0
   -4.4723   -0.8612    0.1290 C   0  0  0  0  0  0  0  0  0  0  0  0
   -5.0091    0.5409    0.1086 C   0  0  0  0  0  0  0  0  0  0  0  0
   -5.0224    1.3000    1.2786 C   0  0  0  0  0  0  0  0  0  0  0  0
   -5.4946    1.0840   -1.0808 C   0  0  0  0  0  0  0  0  0  0  0  0
   -5.5214    2.6025    1.2594 C   0  0  0  0  0  0  0  0  0  0  0  0
   -5.9935    2.3865   -1.1002 C   0  0  0  0  0  0  0  0  0  0  0  0
   -6.0069    3.1457    0.0700 C   0  0  0  0  0  0  0  0  0  0  0  0
    0.4920   -0.4158    1.2868 H   0  0  0  0  0  0  0  0  0  0  0  0
    5.2668   -0.1701    0.1441 H   0  0  0  0  0  0  0  0  0  0  0  0
    1.8562    0.8030   -1.1081 H   0  0  0  0  0  0  0  0  0  0  0  0
    1.8106    1.3775    0.5835 H   0  0  0  0  0  0  0  0  0  0  0  0
    4.5792    1.0451    2.1659 H   0  0  0  0  0  0  0  0  0  0  0  0
    3.7532    2.2683    1.2141 H   0  0  0  0  0  0  0  0  0  0  0  0
    4.5299    0.5051   -2.1091 H   0  0  0  0  0  0  0  0  0  0  0  0
    3.7317    1.9367   -1.4709 H   0  0  0  0  0  0  0  0  0  0  0  0
   -0.8529    0.1677   -0.7255 H   0  0  0  0  0  0  0  0  0  0  0  0
    0.1697   -0.8213   -1.7515 H   0  0  0  0  0  0  0  0  0  0  0  0
    0.6455   -3.1329    1.5073 H   0  0  0  0  0  0  0  0  0  0  0  0
    1.7436   -3.8912    0.3378 H   0  0  0  0  0  0  0  0  0  0  0  0
    6.7480    1.7116    1.2341 H   0  0  0  0  0  0  0  0  0  0  0  0
    5.9254    3.1299    1.8788 H   0  0  0  0  0  0  0  0  0  0  0  0
    5.8830    2.5874   -2.3785 H   0  0  0  0  0  0  0  0  0  0  0  0
    6.7205    1.3732   -1.4150 H   0  0  0  0  0  0  0  0  0  0  0  0
    6.9700    3.5689   -0.3512 H   0  0  0  0  0  0  0  0  0  0  0  0
    5.2268    3.8262   -0.3662 H   0  0  0  0  0  0  0  0  0  0  0  0
    0.2494   -3.2646   -1.5388 H   0  0  0  0  0  0  0  0  0  0  0  0
   -0.7224   -4.0858   -0.3116 H   0  0  0  0  0  0  0  0  0  0  0  0
   -2.5944   -0.0145   -0.2958 H   0  0  0  0  0  0  0  0  0  0  0  0
   -4.6442   -1.3294    1.1058 H   0  0  0  0  0  0  0  0  0  0  0  0
   -4.9882   -1.4869   -0.6094 H   0  0  0  0  0  0  0  0  0  0  0  0
   -4.6453    0.8884    2.2110 H   0  0  0  0  0  0  0  0  0  0  0  0
   -5.4879    0.5031   -1.9992 H   0  0  0  0  0  0  0  0  0  0  0  0
   -5.5315    3.1938    2.1704 H   0  0  0  0  0  0  0  0  0  0  0  0
   -6.3712    2.8097   -2.0263 H   0  0  0  0  0  0  0  0  0  0  0  0
   -6.3952    4.1599    0.0548 H   0  0  0  0  0  0  0  0  0  0  0  0
  1 13  2  0  0  0  0
  2 19  2  0  0  0  0
  3  8  1  0  0  0  0
  3  9  1  0  0  0  0
  3 13  1  0  0  0  0
  4  7  1  0  0  0  0
  4 13  1  0  0  0  0
  4 14  1  0  0  0  0
  5 12  1  0  0  0  0
  5 18  1  0  0  0  0
  5 19  1  0  0  0  0
  6 19  1  0  0  0  0
  6 20  1  0  0  0  0
  6 47  1  0  0  0  0
  7  9  1  0  0  0  0
  7 12  1  0  0  0  0
  7 27  1  0  0  0  0
  8 10  1  0  0  0  0
  8 11  1  0  0  0  0
  8 28  1  0  0  0  0
  9 29  1  0  0  0  0
  9 30  1  0  0  0  0
 10 15  1  0  0  0  0
 10 31  1  0  0  0  0
 10 32  1  0  0  0  0
 11 16  1  0  0  0  0
 11 33  1  0  0  0  0
 11 34  1  0  0  0  0
 12 35  1  0  0  0  0
 12 36  1  0  0  0  0
 14 18  1  0  0  0  0
 14 37  1  0  0  0  0
 14 38  1  0  0  0  0
 15 17  1  0  0  0  0
 15 39  1  0  0  0  0
 15 40  1  0  0  0  0
 16 17  1  0  0  0  0
 16 41  1  0  0  0  0
 16 42  1  0  0  0  0
 17 43  1  0  0  0  0
 17 44  1  0  0  0  0
 18 45  1  0  0  0  0
 18 46  1  0  0  0  0
 20 21  1  0  0  0  0
 20 48  1  0  0  0  0
 20 49  1  0  0  0  0
 21 22  2  0  0  0  0
 21 23  1  0  0  0  0
 22 24  1  0  0  0  0
 22 50  1  0  0  0  0
 23 25  2  0  0  0  0
 23 51  1  0  0  0  0
 24 26  2  0  0  0  0
 24 52  1  0  0  0  0
 25 26  1  0  0  0  0
 25 53  1  0  0  0  0
 26 54  1  0  0  0  0
M  END
> <PUBCHEM_COMPOUND_CID>
75537021

> <PUBCHEM_CONFORMER_RMSD>
0.8

> <PUBCHEM_CONFORMER_DIVERSEORDER>
1
75
137
55
140
59
128
11
135
44
108
28
119
148
84
23
39
53
136
129
56
48
99
111
79
123
41
130
138
3
64
62
91
7
104
31
145
2
65
67
113
97
33
43
58
109
19
141
115
80
21
20
71
14
70
40
32
73
63
147
8
139
25
57
95
114
50
83
10
105
106
116
61
134
126
143
78
94
127
68
12
37
13
85
125
4
22
87
74
103
98
17
81
93
5
51
82
131
142
86
90
34
122
132
6
92
16
124
89
107
54
144
52
117
110
26
47
120
46
118
72
146
35
27
30
66
121
49
96
60
15
38
42
88
24
76
100
36
102
18
9
112
133
69
29
77
45
149
101

> <PUBCHEM_MMFF94_PARTIAL_CHARGES>
27
1 -0.57
12 0.3
13 0.69
14 0.3
18 0.3
19 0.69
2 -0.57
20 0.44
21 -0.14
22 -0.15
23 -0.15
24 -0.15
25 -0.15
26 -0.15
3 -0.66
4 -0.66
47 0.37
5 -0.66
50 0.15
51 0.15
52 0.15
53 0.15
54 0.15
6 -0.73
7 0.3
8 0.3
9 0.3

> <PUBCHEM_EFFECTIVE_ROTOR_COUNT>
7.4

> <PUBCHEM_PHARMACOPHORE_FEATURES>
7
1 1 acceptor
1 2 acceptor
1 6 donor
5 3 4 7 9 13 rings
6 21 22 23 24 25 26 rings
6 4 5 7 12 14 18 rings
6 8 10 11 15 16 17 rings

> <PUBCHEM_HEAVY_ATOM_COUNT>
26

> <PUBCHEM_ATOM_DEF_STEREO_COUNT>
1

> <PUBCHEM_ATOM_UDEF_STEREO_COUNT>
0

> <PUBCHEM_BOND_DEF_STEREO_COUNT>
0

> <PUBCHEM_BOND_UDEF_STEREO_COUNT>
0

> <PUBCHEM_ISOTOPIC_ATOM_COUNT>
0

> <PUBCHEM_COMPONENT_COUNT>
1

> <PUBCHEM_CACTVS_TAUTO_COUNT>
2

> <PUBCHEM_CONFORMER_ID>
04809A7D00000001

> <PUBCHEM_MMFF94_ENERGY>
50.6009

> <PUBCHEM_FEATURE_SELFOVERLAP>
35.62

> <PUBCHEM_SHAPE_FINGERPRINT>
10816530 90 18337962178031437390
10883706 89 17532910754778526008
10906281 52 17677340536487383148
12107183 9 18263916640362313058
12390115 104 18339367464658596615
12422481 6 17458340823314506909
13540713 5 18265874973782647350
13782708 43 11819535062056377612
13878862 14 18118946036739983077
13944108 23 17982737367896853137
14251764 75 18411423890871556505
14347329 18 18343016709512760161
14790565 3 18191311687476365668
14951699 99 18260553333018658324
15198563 99 17771049795157265927
15519825 34 16444209645986973849
15684393 108 12319446753602555033
15980000 95 17547012927597769126
20058555 10 18410572886046661369
20398071 356 9223229667722466445
20691028 202 18339645543028839345
21033648 29 17241039887295710973
21279426 13 18201446895687989278
21302155 148 18334859432883621517
21424621 283 18338234981178754048
21585480 29 12758294881141730496
23559900 14 18058169414660552975
23569914 152 17413895136558092468
23569914 2 16984862606676226656
2748736 6 18410846668446697105
2838139 119 18272926145955624662
312425 54 12902085588321494709
3388396 114 16900174063286172540
350125 39 18335981966068619974
437795 171 17974003956044997765
44249763 50 17488167391479349336
5104073 3 18186515509970491595
5219985 13 18412262852313345671
57724786 102 18124321510981905043
59682541 52 16916797253754097828
6058803 2 18266155340473517063
6328613 192 18411421695895231380
636775 72 18052254287691714000
7808743 9 18410853295712727003

> <PUBCHEM_SHAPE_MULTIPOLES>
503.41
17.99
4.45
1.16
4.95
1.03
-0.04
-22.12
-0.28
0.57
0.14
-0.17
-0.74
-0.78

> <PUBCHEM_SHAPE_SELFOVERLAP>
1060.119

> <PUBCHEM_SHAPE_VOLUME>
280.7

> <PUBCHEM_COORDINATE_TYPE>
2
5
10

$$$$
