75536079
  -OEChem-12032416293D

 42 45  0     1  0  0  0  0  0999 V2000
   -2.8270   -1.3277   -1.2236 S   0  0  0  0  0  0  0  0  0  0  0  0
    1.7692    3.4499   -1.1004 O   0  0  0  0  0  0  0  0  0  0  0  0
    4.2690    2.3518   -0.8093 O   0  0  0  0  0  0  0  0  0  0  0  0
    0.1069   -0.8407   -1.4365 O   0  0  0  0  0  0  0  0  0  0  0  0
    0.2341    0.9829   -0.0089 N   0  0  0  0  0  0  0  0  0  0  0  0
    2.8041   -3.2974    1.0085 N   0  0  0  0  0  0  0  0  0  0  0  0
   -2.5464    0.7183    0.3216 N   0  0  0  0  0  0  0  0  0  0  0  0
    2.4570    0.4800    0.9613 C   0  0  2  0  0  0  0  0  0  0  0  0
    1.6519    1.2042   -0.1413 C   0  0  2  0  0  0  0  0  0  0  0  0
    2.0208    2.6738    0.0559 C   0  0  1  0  0  0  0  0  0  0  0  0
    3.6376    1.4227    1.3105 C   0  0  0  0  0  0  0  0  0  0  0  0
    3.5115    2.6174    0.3673 C   0  0  1  0  0  0  0  0  0  0  0  0
    2.8732   -0.9214    0.5672 C   0  0  0  0  0  0  0  0  0  0  0  0
    3.6752   -1.1442   -0.5465 C   0  0  0  0  0  0  0  0  0  0  0  0
    2.4678   -2.0219    1.3049 C   0  0  0  0  0  0  0  0  0  0  0  0
   -0.4291   -0.0369   -0.6782 C   0  0  0  0  0  0  0  0  0  0  0  0
    4.0423   -2.4423   -0.8836 C   0  0  0  0  0  0  0  0  0  0  0  0
   -1.8960   -0.1154   -0.4561 C   0  0  0  0  0  0  0  0  0  0  0  0
    3.5847   -3.4747   -0.0809 C   0  0  0  0  0  0  0  0  0  0  0  0
   -4.2444   -0.7064   -0.4632 C   0  0  0  0  0  0  0  0  0  0  0  0
   -3.8947    0.3921    0.3277 C   0  0  0  0  0  0  0  0  0  0  0  0
   -5.5702   -1.1588   -0.5596 C   0  0  0  0  0  0  0  0  0  0  0  0
   -4.9099    1.0599    1.0465 C   0  0  0  0  0  0  0  0  0  0  0  0
   -6.5555   -0.4801    0.1618 C   0  0  0  0  0  0  0  0  0  0  0  0
   -6.2319    0.6151    0.9551 C   0  0  0  0  0  0  0  0  0  0  0  0
    1.8340    0.4055    1.8650 H   0  0  0  0  0  0  0  0  0  0  0  0
    1.9440    0.8879   -1.1503 H   0  0  0  0  0  0  0  0  0  0  0  0
    1.4670    3.1074    0.8983 H   0  0  0  0  0  0  0  0  0  0  0  0
    3.5107    1.7659    2.3449 H   0  0  0  0  0  0  0  0  0  0  0  0
    4.6145    0.9325    1.2414 H   0  0  0  0  0  0  0  0  0  0  0  0
    3.8810    3.5506    0.8027 H   0  0  0  0  0  0  0  0  0  0  0  0
   -0.2920    1.5759    0.6270 H   0  0  0  0  0  0  0  0  0  0  0  0
    2.1141    4.3435   -0.9328 H   0  0  0  0  0  0  0  0  0  0  0  0
    5.2032    2.2875   -0.5470 H   0  0  0  0  0  0  0  0  0  0  0  0
    4.0276   -0.3230   -1.1626 H   0  0  0  0  0  0  0  0  0  0  0  0
    1.8403   -1.9154    2.1843 H   0  0  0  0  0  0  0  0  0  0  0  0
    4.6674   -2.6396   -1.7469 H   0  0  0  0  0  0  0  0  0  0  0  0
    3.8430   -4.5053   -0.3009 H   0  0  0  0  0  0  0  0  0  0  0  0
   -5.8303   -2.0132   -1.1770 H   0  0  0  0  0  0  0  0  0  0  0  0
   -4.6681    1.9166    1.6693 H   0  0  0  0  0  0  0  0  0  0  0  0
   -7.5881   -0.8139    0.1011 H   0  0  0  0  0  0  0  0  0  0  0  0
   -7.0116    1.1305    1.5092 H   0  0  0  0  0  0  0  0  0  0  0  0
  1 18  1  0  0  0  0
  1 20  1  0  0  0  0
  2 10  1  0  0  0  0
  2 33  1  0  0  0  0
  3 12  1  0  0  0  0
  3 34  1  0  0  0  0
  4 16  2  0  0  0  0
  5  9  1  0  0  0  0
  5 16  1  0  0  0  0
  5 32  1  0  0  0  0
  6 15  1  0  0  0  0
  6 19  2  0  0  0  0
  7 18  2  0  0  0  0
  7 21  1  0  0  0  0
  8  9  1  0  0  0  0
  8 11  1  0  0  0  0
  8 13  1  0  0  0  0
  8 26  1  0  0  0  0
  9 10  1  0  0  0  0
  9 27  1  0  0  0  0
 10 12  1  0  0  0  0
 10 28  1  0  0  0  0
 11 12  1  0  0  0  0
 11 29  1  0  0  0  0
 11 30  1  0  0  0  0
 12 31  1  0  0  0  0
 13 14  1  0  0  0  0
 13 15  2  0  0  0  0
 14 17  2  0  0  0  0
 14 35  1  0  0  0  0
 15 36  1  0  0  0  0
 16 18  1  0  0  0  0
 17 19  1  0  0  0  0
 17 37  1  0  0  0  0
 19 38  1  0  0  0  0
 20 21  1  0  0  0  0
 20 22  2  0  0  0  0
 21 23  2  0  0  0  0
 22 24  1  0  0  0  0
 22 39  1  0  0  0  0
 23 25  1  0  0  0  0
 23 40  1  0  0  0  0
 24 25  2  0  0  0  0
 24 41  1  0  0  0  0
 25 42  1  0  0  0  0
M  END
> <PUBCHEM_COMPOUND_CID>
75536079

> <PUBCHEM_CONFORMER_RMSD>
0.8

> <PUBCHEM_CONFORMER_DIVERSEORDER>
1
36
14
32
25
15
29
34
16
41
22
39
6
8
26
18
33
23
40
4
13
30
5
3
19
17
28
7
12
2
38
24
10
35
9
27
31
20
11
37
21

> <PUBCHEM_MMFF94_PARTIAL_CHARGES>
35
1 -0.08
10 0.28
12 0.28
13 -0.14
14 -0.15
15 0.16
16 0.71
17 -0.15
18 0.29
19 0.16
2 -0.68
20 0.04
21 0.23
22 -0.15
23 -0.15
24 -0.15
25 -0.15
3 -0.68
32 0.37
33 0.4
34 0.4
35 0.15
36 0.15
37 0.15
38 0.15
39 0.15
4 -0.57
40 0.15
41 0.15
42 0.15
5 -0.73
6 -0.62
7 -0.57
8 0.14
9 0.3

> <PUBCHEM_EFFECTIVE_ROTOR_COUNT>
5

> <PUBCHEM_PHARMACOPHORE_FEATURES>
12
1 2 acceptor
1 2 donor
1 3 acceptor
1 3 donor
1 4 acceptor
1 5 donor
1 6 acceptor
1 7 acceptor
5 1 7 18 20 21 rings
5 8 9 10 11 12 rings
6 20 21 22 23 24 25 rings
6 6 13 14 15 17 19 rings

> <PUBCHEM_HEAVY_ATOM_COUNT>
25

> <PUBCHEM_ATOM_DEF_STEREO_COUNT>
4

> <PUBCHEM_ATOM_UDEF_STEREO_COUNT>
0

> <PUBCHEM_BOND_DEF_STEREO_COUNT>
0

> <PUBCHEM_BOND_UDEF_STEREO_COUNT>
0

> <PUBCHEM_ISOTOPIC_ATOM_COUNT>
0

> <PUBCHEM_COMPONENT_COUNT>
1

> <PUBCHEM_CACTVS_TAUTO_COUNT>
2

> <PUBCHEM_CONFORMER_ID>
048096CF00000001

> <PUBCHEM_MMFF94_ENERGY>
63.0097

> <PUBCHEM_FEATURE_SELFOVERLAP>
60.981

> <PUBCHEM_SHAPE_FINGERPRINT>
10483366 6 18337126631098964668
10554248 39 18201431447023331893
11140007 195 16988562338880937350
114674 6 18113896044221609970
12107183 9 18054233120636628785
12403259 327 15051150317284704590
12553582 1 18194671584583994070
12633257 1 17896299463326841946
12788726 201 17203060633541882617
13009979 54 17845377643897059344
13167823 11 18343017800956679091
13533116 47 18412824703282360875
13583140 156 18269000958839083993
13785724 45 17840316522976354463
13911852 28 18122059797772667303
13955234 65 18412260670717612944
14251764 30 18054513504449611486
14341114 176 18341897368458574595
14739800 52 17489294343384544889
14863182 85 18335978762086405092
15142526 21 17766829903072019264
15238133 3 16702028526477048835
15250474 111 18129367354251868783
17349148 13 17561078082265961423
17492 89 18412823577864116899
17818456 19 17845658032395055393
17844677 252 18409450246293893817
1813 80 18268434525308891886
20645477 70 18408599270889671986
20739085 24 18341334413751341092
21033648 29 17313375717762531495
21065198 48 18272088314575622201
21344244 78 18200578237903917457
21421861 104 18411128130902009408
21424621 283 17983291823091213816
21859007 373 18045498617915249141
22950370 63 18266182716720811374
23081809 10 17846778517007182381
23559900 14 18411134753594094523
239999 70 18410575093654388450
25147074 1 17988351668037392655
3004659 81 18059859441430675755
3117164 225 18268994177101930841
3411729 13 18272651285787797060
3421961 26 18411133598337484682
345986 75 18199177387249545659
34797466 226 16371019511495073319
3633792 109 18263906840290811903
3680242 22 18131081415907289705
4073 2 18262805197847599363
4409770 3 17254272324493537244
465052 167 18271248213987221079
474 4 18262797513650011497
5104073 3 18130515188957151003
7097593 13 18342165683207142759
8272917 22 18409166653460358900
8509985 295 17131826543453072123
86090 222 17168439177200007035
9841814 1 18261101929660803594

> <PUBCHEM_SHAPE_MULTIPOLES>
485.79
13.51
3.57
1.22
21.56
0.18
0.05
1.86
2.02
-7.02
-0.19
-0.27
0.11
-1.2

> <PUBCHEM_SHAPE_SELFOVERLAP>
1051.982

> <PUBCHEM_SHAPE_VOLUME>
266.9

> <PUBCHEM_COORDINATE_TYPE>
2
5
10

$$$$
