11865665
  -OEChem-12032416113D

 51 52  0     1  0  0  0  0  0999 V2000
    0.2759   -2.4592   -1.8485 O   0  0  0  0  0  0  0  0  0  0  0  0
    1.8541   -3.8571    1.1413 O   0  0  0  0  0  0  0  0  0  0  0  0
   -2.5392   -1.7859    1.2827 O   0  0  0  0  0  0  0  0  0  0  0  0
    4.6770   -0.1807    0.7101 O   0  0  0  0  0  0  0  0  0  0  0  0
    3.1260    3.1891    0.8923 O   0  0  0  0  0  0  0  0  0  0  0  0
   -3.1854   -0.1097   -0.1859 N   0  0  0  0  0  0  0  0  0  0  0  0
   -0.9754   -0.7401   -0.0785 N   0  0  0  0  0  0  0  0  0  0  0  0
    3.4486    1.1016   -0.8003 N   0  0  0  0  0  0  0  0  0  0  0  0
    4.9378    4.3230    0.0452 N   0  0  0  0  0  0  0  0  0  0  0  0
   -4.5928   -0.1235    0.1457 C   0  0  0  0  0  0  0  0  0  0  0  0
   -4.8895    0.8060    1.3274 C   0  0  0  0  0  0  0  0  0  0  0  0
   -5.4496    0.2363   -1.0728 C   0  0  0  0  0  0  0  0  0  0  0  0
   -4.7843    2.2836    0.9498 C   0  0  0  0  0  0  0  0  0  0  0  0
   -5.3434    1.7149   -1.4463 C   0  0  0  0  0  0  0  0  0  0  0  0
   -5.6539    2.6196   -0.2578 C   0  0  0  0  0  0  0  0  0  0  0  0
    0.1806   -1.4772    0.3698 C   0  0  1  0  0  0  0  0  0  0  0  0
    0.3920   -2.7605   -0.4562 C   0  0  2  0  0  0  0  0  0  0  0  0
    1.7736   -3.3741   -0.1982 C   0  0  1  0  0  0  0  0  0  0  0  0
    2.9109   -2.3738   -0.4676 C   0  0  0  0  0  0  0  0  0  0  0  0
    1.3746   -0.5612    0.3615 C   0  0  0  0  0  0  0  0  0  0  0  0
    2.5912   -0.9744   -0.0244 C   0  0  0  0  0  0  0  0  0  0  0  0
   -2.2591   -0.9556    0.4191 C   0  0  0  0  0  0  0  0  0  0  0  0
    3.6814    0.0047    0.0108 C   0  0  0  0  0  0  0  0  0  0  0  0
    4.3789    2.2003   -0.9288 C   0  0  0  0  0  0  0  0  0  0  0  0
    4.0701    3.2540    0.1096 C   0  0  0  0  0  0  0  0  0  0  0  0
   -4.8448   -1.1478    0.4478 H   0  0  0  0  0  0  0  0  0  0  0  0
   -5.9067    0.6075    1.6890 H   0  0  0  0  0  0  0  0  0  0  0  0
   -4.2109    0.5963    2.1629 H   0  0  0  0  0  0  0  0  0  0  0  0
   -5.1622   -0.3776   -1.9349 H   0  0  0  0  0  0  0  0  0  0  0  0
   -6.4991    0.0034   -0.8520 H   0  0  0  0  0  0  0  0  0  0  0  0
   -5.0867    2.9018    1.8028 H   0  0  0  0  0  0  0  0  0  0  0  0
   -3.7398    2.5361    0.7305 H   0  0  0  0  0  0  0  0  0  0  0  0
   -6.0400    1.9346   -2.2636 H   0  0  0  0  0  0  0  0  0  0  0  0
   -4.3384    1.9367   -1.8239 H   0  0  0  0  0  0  0  0  0  0  0  0
   -5.5023    3.6670   -0.5419 H   0  0  0  0  0  0  0  0  0  0  0  0
   -6.7113    2.5128    0.0143 H   0  0  0  0  0  0  0  0  0  0  0  0
    0.0097   -1.7633    1.4160 H   0  0  0  0  0  0  0  0  0  0  0  0
   -0.3992   -3.4778   -0.2061 H   0  0  0  0  0  0  0  0  0  0  0  0
    1.9166   -4.2400   -0.8561 H   0  0  0  0  0  0  0  0  0  0  0  0
   -2.8401    0.5925   -0.8326 H   0  0  0  0  0  0  0  0  0  0  0  0
    3.8267   -2.7163    0.0288 H   0  0  0  0  0  0  0  0  0  0  0  0
    3.1120   -2.3437   -1.5460 H   0  0  0  0  0  0  0  0  0  0  0  0
    1.2236    0.4568    0.7146 H   0  0  0  0  0  0  0  0  0  0  0  0
   -0.8618   -0.0672   -0.8313 H   0  0  0  0  0  0  0  0  0  0  0  0
    0.3849   -3.2923   -2.3380 H   0  0  0  0  0  0  0  0  0  0  0  0
    2.7241   -4.2769    1.2511 H   0  0  0  0  0  0  0  0  0  0  0  0
    2.5901    1.1550   -1.3412 H   0  0  0  0  0  0  0  0  0  0  0  0
    4.2654    2.6257   -1.9302 H   0  0  0  0  0  0  0  0  0  0  0  0
    5.4030    1.8388   -0.7931 H   0  0  0  0  0  0  0  0  0  0  0  0
    4.8405    5.1128    0.6746 H   0  0  0  0  0  0  0  0  0  0  0  0
    5.7028    4.3614   -0.6209 H   0  0  0  0  0  0  0  0  0  0  0  0
  1 17  1  0  0  0  0
  1 45  1  0  0  0  0
  2 18  1  0  0  0  0
  2 46  1  0  0  0  0
  3 22  2  0  0  0  0
  4 23  2  0  0  0  0
  5 25  2  0  0  0  0
  6 10  1  0  0  0  0
  6 22  1  0  0  0  0
  6 40  1  0  0  0  0
  7 16  1  0  0  0  0
  7 22  1  0  0  0  0
  7 44  1  0  0  0  0
  8 23  1  0  0  0  0
  8 24  1  0  0  0  0
  8 47  1  0  0  0  0
  9 25  1  0  0  0  0
  9 50  1  0  0  0  0
  9 51  1  0  0  0  0
 10 11  1  0  0  0  0
 10 12  1  0  0  0  0
 10 26  1  0  0  0  0
 11 13  1  0  0  0  0
 11 27  1  0  0  0  0
 11 28  1  0  0  0  0
 12 14  1  0  0  0  0
 12 29  1  0  0  0  0
 12 30  1  0  0  0  0
 13 15  1  0  0  0  0
 13 31  1  0  0  0  0
 13 32  1  0  0  0  0
 14 15  1  0  0  0  0
 14 33  1  0  0  0  0
 14 34  1  0  0  0  0
 15 35  1  0  0  0  0
 15 36  1  0  0  0  0
 16 17  1  0  0  0  0
 16 20  1  0  0  0  0
 16 37  1  0  0  0  0
 17 18  1  0  0  0  0
 17 38  1  0  0  0  0
 18 19  1  0  0  0  0
 18 39  1  0  0  0  0
 19 21  1  0  0  0  0
 19 41  1  0  0  0  0
 19 42  1  0  0  0  0
 20 21  2  0  0  0  0
 20 43  1  0  0  0  0
 21 23  1  0  0  0  0
 24 25  1  0  0  0  0
 24 48  1  0  0  0  0
 24 49  1  0  0  0  0
M  END
> <PUBCHEM_COMPOUND_CID>
11865665

> <PUBCHEM_CONFORMER_RMSD>
1

> <PUBCHEM_CONFORMER_DIVERSEORDER>
1
40
76
64
74
17
53
21
41
29
51
42
33
18
71
10
37
73
70
66
62
43
72
69
34
58
22
39
26
50
31
16
54
63
3
45
15
47
35
32
4
14
77
68
5
56
6
52
19
28
30
27
55
65
7
13
25
78
20
61
24
59
57
67
36
23
38
75
46
44
12
8
9
60
48
49
2
11

> <PUBCHEM_MMFF94_PARTIAL_CHARGES>
28
1 -0.68
10 0.3
16 0.44
17 0.28
18 0.28
19 0.14
2 -0.68
20 -0.29
21 -0.12
22 0.69
23 0.62
24 0.36
25 0.57
3 -0.57
4 -0.57
40 0.37
43 0.15
44 0.37
45 0.4
46 0.4
47 0.37
5 -0.57
50 0.37
51 0.37
6 -0.73
7 -0.73
8 -0.73
9 -0.8

> <PUBCHEM_EFFECTIVE_ROTOR_COUNT>
10

> <PUBCHEM_PHARMACOPHORE_FEATURES>
13
1 1 acceptor
1 1 donor
1 2 acceptor
1 2 donor
1 3 acceptor
1 4 acceptor
1 5 acceptor
1 6 donor
1 7 donor
1 8 donor
1 9 donor
6 10 11 12 13 14 15 rings
6 16 17 18 19 20 21 rings

> <PUBCHEM_HEAVY_ATOM_COUNT>
25

> <PUBCHEM_ATOM_DEF_STEREO_COUNT>
3

> <PUBCHEM_ATOM_UDEF_STEREO_COUNT>
0

> <PUBCHEM_BOND_DEF_STEREO_COUNT>
0

> <PUBCHEM_BOND_UDEF_STEREO_COUNT>
0

> <PUBCHEM_ISOTOPIC_ATOM_COUNT>
0

> <PUBCHEM_COMPONENT_COUNT>
1

> <PUBCHEM_CACTVS_TAUTO_COUNT>
12

> <PUBCHEM_CONFORMER_ID>
00B50E4100000001

> <PUBCHEM_MMFF94_ENERGY>
33.5172

> <PUBCHEM_FEATURE_SELFOVERLAP>
66.032

> <PUBCHEM_SHAPE_FINGERPRINT>
10763959 59 18409451345673451702
10937287 8 18267021833355701990
12107183 9 18191570047698822824
12403259 118 18337100267724934466
12422481 6 17458619034105802388
12769317 202 18413668019683851016
13103583 49 11674872248216789847
13590594 115 17762629382306856946
13878862 14 18117822340394274877
13965767 371 18041829731953374052
14251764 38 18194403290988515437
14251764 75 18267595769440652640
14790565 3 18339082708538141076
14848178 96 18411981368778335817
15082195 135 18271792524304206599
15142526 21 18334012825936049523
17844677 252 18265341608185491667
20567600 9 18342186518172948212
21033648 144 18260539069753801117
21033648 29 16877930625776686381
21315763 76 18340480071905480265
21315764 268 18045219333070964317
21388113 180 18338236067209822637
23559900 14 18265615390201159323
245318 6 17825121534147031500
2838139 119 18410007758143296957
376196 1 18408888464123541666
474 4 18410575084700379099
5104073 3 18113620126699913211
550186 72 18049727618391187743
57724786 102 18198917911607001513
633830 44 18341615940526512142

> <PUBCHEM_SHAPE_MULTIPOLES>
465.22
13.79
5
1.19
13.83
2.07
0.15
14.16
0.93
-7.56
-0.23
0.94
-0.11
0.19

> <PUBCHEM_SHAPE_SELFOVERLAP>
950.246

> <PUBCHEM_SHAPE_VOLUME>
263.9

> <PUBCHEM_COORDINATE_TYPE>
2
5
10

$$$$
