51136648
  -OEChem-12032416283D

 61 64  0     1  0  0  0  0  0999 V2000
   -1.0387    4.0570    0.2262 O   0  0  0  0  0  0  0  0  0  0  0  0
   -5.8800   -1.6708   -2.1161 O   0  0  0  0  0  0  0  0  0  0  0  0
   -6.1454   -1.0132    0.0468 O   0  0  0  0  0  0  0  0  0  0  0  0
    2.6804    2.1089    1.2648 O   0  0  0  0  0  0  0  0  0  0  0  0
    4.7428   -1.1462   -1.7984 O   0  0  0  0  0  0  0  0  0  0  0  0
   -1.5239    1.8156   -0.2332 N   0  0  0  0  0  0  0  0  0  0  0  0
   -0.0838   -2.5709    2.1619 N   0  0  0  0  0  0  0  0  0  0  0  0
    2.9728    2.3167   -0.0778 N   0  0  0  0  0  0  0  0  0  0  0  0
   -1.8694   -0.5310    0.4584 C   0  0  2  0  0  0  0  0  0  0  0  0
   -3.4022   -0.3566    0.2980 C   0  0  1  0  0  0  0  0  0  0  0  0
   -3.7751    1.1283    0.4762 C   0  0  0  0  0  0  0  0  0  0  0  0
   -1.0917    0.4288   -0.4547 C   0  0  0  0  0  0  0  0  0  0  0  0
   -2.9543    2.0513   -0.4226 C   0  0  0  0  0  0  0  0  0  0  0  0
   -1.4040   -1.9709    0.2475 C   0  0  0  0  0  0  0  0  0  0  0  0
   -3.9576   -0.9034   -1.0223 C   0  0  0  0  0  0  0  0  0  0  0  0
   -0.0738   -2.1846    0.9288 C   0  0  0  0  0  0  0  0  0  0  0  0
   -0.6851    2.8874    0.0838 C   0  0  0  0  0  0  0  0  0  0  0  0
    1.1721   -1.9361    0.1594 C   0  0  0  0  0  0  0  0  0  0  0  0
   -5.4318   -1.1848   -0.9300 C   0  0  0  0  0  0  0  0  0  0  0  0
    2.3479   -1.7642    0.9009 C   0  0  0  0  0  0  0  0  0  0  0  0
    0.7439    2.6145    0.2822 C   0  0  0  0  0  0  0  0  0  0  0  0
    2.2714   -1.8262    2.3975 C   0  0  0  0  0  0  0  0  0  0  0  0
    1.2074   -2.8369    2.8051 C   0  0  0  0  0  0  0  0  0  0  0  0
    1.1959   -1.8582   -1.2344 C   0  0  0  0  0  0  0  0  0  0  0  0
    3.5470   -1.4870    0.2386 C   0  0  0  0  0  0  0  0  0  0  0  0
    1.3501    2.2891    1.4667 C   0  0  0  0  0  0  0  0  0  0  0  0
    1.8009    2.6174   -0.6443 C   0  0  0  0  0  0  0  0  0  0  0  0
    2.4009   -1.5966   -1.8878 C   0  0  0  0  0  0  0  0  0  0  0  0
    3.5726   -1.4087   -1.1540 C   0  0  0  0  0  0  0  0  0  0  0  0
    0.8706    2.1055    2.8433 C   0  0  0  0  0  0  0  0  0  0  0  0
    1.7424    2.9029   -2.0879 C   0  0  0  0  0  0  0  0  0  0  0  0
    4.6978   -1.0774   -3.2228 C   0  0  0  0  0  0  0  0  0  0  0  0
   -1.6368   -0.2409    1.4945 H   0  0  0  0  0  0  0  0  0  0  0  0
   -3.8689   -0.9114    1.1241 H   0  0  0  0  0  0  0  0  0  0  0  0
   -4.8423    1.2953    0.2954 H   0  0  0  0  0  0  0  0  0  0  0  0
   -3.5904    1.4064    1.5225 H   0  0  0  0  0  0  0  0  0  0  0  0
   -1.2636    0.2004   -1.5131 H   0  0  0  0  0  0  0  0  0  0  0  0
   -0.0237    0.3568   -0.2730 H   0  0  0  0  0  0  0  0  0  0  0  0
   -3.1804    1.8914   -1.4819 H   0  0  0  0  0  0  0  0  0  0  0  0
   -3.2049    3.0931   -0.1968 H   0  0  0  0  0  0  0  0  0  0  0  0
   -2.1166   -2.6576    0.7248 H   0  0  0  0  0  0  0  0  0  0  0  0
   -1.3843   -2.2568   -0.8042 H   0  0  0  0  0  0  0  0  0  0  0  0
   -3.4932   -1.8624   -1.2704 H   0  0  0  0  0  0  0  0  0  0  0  0
   -3.7809   -0.2168   -1.8551 H   0  0  0  0  0  0  0  0  0  0  0  0
    2.0209   -0.8301    2.7799 H   0  0  0  0  0  0  0  0  0  0  0  0
    3.2356   -2.1217    2.8259 H   0  0  0  0  0  0  0  0  0  0  0  0
    1.0715   -2.7958    3.8914 H   0  0  0  0  0  0  0  0  0  0  0  0
    1.5232   -3.8590    2.5610 H   0  0  0  0  0  0  0  0  0  0  0  0
    0.3156   -2.0008   -1.8492 H   0  0  0  0  0  0  0  0  0  0  0  0
    4.4614   -1.3323    0.8056 H   0  0  0  0  0  0  0  0  0  0  0  0
   -6.8411   -1.8657   -2.0915 H   0  0  0  0  0  0  0  0  0  0  0  0
    2.3545   -1.5500   -2.9706 H   0  0  0  0  0  0  0  0  0  0  0  0
    0.3072    2.9829    3.1755 H   0  0  0  0  0  0  0  0  0  0  0  0
    1.6998    1.9537    3.5414 H   0  0  0  0  0  0  0  0  0  0  0  0
    0.2132    1.2326    2.9047 H   0  0  0  0  0  0  0  0  0  0  0  0
    1.1471    2.1419   -2.6030 H   0  0  0  0  0  0  0  0  0  0  0  0
    2.7384    2.9140   -2.5432 H   0  0  0  0  0  0  0  0  0  0  0  0
    1.2812    3.8791   -2.2693 H   0  0  0  0  0  0  0  0  0  0  0  0
    4.4092   -2.0377   -3.6634 H   0  0  0  0  0  0  0  0  0  0  0  0
    4.0614   -0.2545   -3.5658 H   0  0  0  0  0  0  0  0  0  0  0  0
    5.7140   -0.8602   -3.5679 H   0  0  0  0  0  0  0  0  0  0  0  0
  1 17  2  0  0  0  0
  2 19  1  0  0  0  0
  2 51  1  0  0  0  0
  3 19  2  0  0  0  0
  4  8  1  0  0  0  0
  4 26  1  0  0  0  0
  5 29  1  0  0  0  0
  5 32  1  0  0  0  0
  6 12  1  0  0  0  0
  6 13  1  0  0  0  0
  6 17  1  0  0  0  0
  7 16  2  0  0  0  0
  7 23  1  0  0  0  0
  8 27  2  0  0  0  0
  9 10  1  0  0  0  0
  9 12  1  0  0  0  0
  9 14  1  0  0  0  0
  9 33  1  0  0  0  0
 10 11  1  0  0  0  0
 10 15  1  0  0  0  0
 10 34  1  0  0  0  0
 11 13  1  0  0  0  0
 11 35  1  0  0  0  0
 11 36  1  0  0  0  0
 12 37  1  0  0  0  0
 12 38  1  0  0  0  0
 13 39  1  0  0  0  0
 13 40  1  0  0  0  0
 14 16  1  0  0  0  0
 14 41  1  0  0  0  0
 14 42  1  0  0  0  0
 15 19  1  0  0  0  0
 15 43  1  0  0  0  0
 15 44  1  0  0  0  0
 16 18  1  0  0  0  0
 17 21  1  0  0  0  0
 18 20  2  0  0  0  0
 18 24  1  0  0  0  0
 20 22  1  0  0  0  0
 20 25  1  0  0  0  0
 21 26  2  0  0  0  0
 21 27  1  0  0  0  0
 22 23  1  0  0  0  0
 22 45  1  0  0  0  0
 22 46  1  0  0  0  0
 23 47  1  0  0  0  0
 23 48  1  0  0  0  0
 24 28  2  0  0  0  0
 24 49  1  0  0  0  0
 25 29  2  0  0  0  0
 25 50  1  0  0  0  0
 26 30  1  0  0  0  0
 27 31  1  0  0  0  0
 28 29  1  0  0  0  0
 28 52  1  0  0  0  0
 30 53  1  0  0  0  0
 30 54  1  0  0  0  0
 30 55  1  0  0  0  0
 31 56  1  0  0  0  0
 31 57  1  0  0  0  0
 31 58  1  0  0  0  0
 32 59  1  0  0  0  0
 32 60  1  0  0  0  0
 32 61  1  0  0  0  0
M  END
> <PUBCHEM_COMPOUND_CID>
51136648

> <PUBCHEM_CONFORMER_RMSD>
1

> <PUBCHEM_CONFORMER_DIVERSEORDER>
3
100
106
170
55
140
98
162
146
155
118
48
167
73
135
110
7
173
54
108
39
129
60
31
175
147
6
105
143
165
85
164
139
102
158
70
145
1
144
130
92
41
42
141
62
38
78
168
57
157
95
91
90
58
75
43
121
64
12
161
119
148
96
28
26
84
111
101
86
20
116
122
36
132
14
152
117
114
150
29
2
159
154
24
126
35
149
166
13
77
127
174
37
49
137
94
59
51
113
71
115
160
176
65
103
153
47
133
83
169
45
21
107
97
80
177
142
128
8
138
109
163
136
125
79
156
67
134
124
19
27
151
10
89
76
32
40
61
104
112
82
120
63
66
131
34
4
88
44
22
74
93
18
69
33
9
68
5
123
17
53
99
72
81
52
87
16
30
15
11
56
46
23
172
25
171
50

> <PUBCHEM_MMFF94_PARTIAL_CHARGES>
33
1 -0.57
12 0.3
13 0.3
14 0.06
15 0.06
16 0.3
17 0.72
18 0.09
19 0.66
2 -0.65
20 -0.14
21 -0.09
22 0.14
23 0.25
24 -0.15
25 -0.15
26 -0.04
27 0.11
28 -0.15
29 0.08
3 -0.57
30 0.18
31 0.18
32 0.28
4 -0.02
49 0.15
5 -0.36
50 0.15
51 0.5
52 0.15
6 -0.66
7 -0.7
8 -0.41

> <PUBCHEM_EFFECTIVE_ROTOR_COUNT>
8.6

> <PUBCHEM_PHARMACOPHORE_FEATURES>
11
1 1 acceptor
1 2 acceptor
1 3 acceptor
1 5 acceptor
1 7 acceptor
1 8 acceptor
3 2 3 19 anion
5 4 8 21 26 27 rings
6 18 20 24 25 28 29 rings
6 6 9 10 11 12 13 rings
6 7 16 18 20 22 23 rings

> <PUBCHEM_HEAVY_ATOM_COUNT>
32

> <PUBCHEM_ATOM_DEF_STEREO_COUNT>
2

> <PUBCHEM_ATOM_UDEF_STEREO_COUNT>
0

> <PUBCHEM_BOND_DEF_STEREO_COUNT>
0

> <PUBCHEM_BOND_UDEF_STEREO_COUNT>
0

> <PUBCHEM_ISOTOPIC_ATOM_COUNT>
0

> <PUBCHEM_COMPONENT_COUNT>
1

> <PUBCHEM_CACTVS_TAUTO_COUNT>
1

> <PUBCHEM_CONFORMER_ID>
030C488800000003

> <PUBCHEM_MMFF94_ENERGY>
83.6518

> <PUBCHEM_FEATURE_SELFOVERLAP>
55.908

> <PUBCHEM_SHAPE_FINGERPRINT>
10369192 42 16771227501852059354
10675989 125 18122334946953744949
11399939 17 15122360295036439933
12156800 1 15436735730546325680
12166972 35 17314214575877614170
12788726 201 18050014289793439345
13009979 54 17465368729862229874
13140716 1 18339638933115953313
133893 2 18334575750641646545
14787075 74 18261123936593219143
14931854 50 18261123954163303702
15297060 5 16546936672744228480
15721738 202 17846225492238386187
17492 54 17968395484679818598
17909252 39 18059869388538062350
19319366 153 17536607201259753937
20600515 1 17838880556489645800
20642791 35 18268433443256883377
20691752 17 17967531255407850457
20764821 26 18041850630626180139
20775438 99 17984965249259740119
20905425 154 18340189830789716280
23559900 14 18337394966889696503
238 59 18053669349716413451
3298306 158 18046618182232957613
35225 105 17328586635808007998
463206 1 18268705202885117191
469060 322 16738951273340548410
513532 50 18129088090786974567
59755656 215 18340480192190860332
6287921 2 17345451825544296175
6823239 73 18059850602277106786
70251023 43 18342463616862859855

> <PUBCHEM_SHAPE_MULTIPOLES>
614.26
8.86
4.5
2.62
10.52
3.33
-0.21
-5.11
6.57
-1.21
-1.19
-2.85
-1.08
-0.54

> <PUBCHEM_SHAPE_SELFOVERLAP>
1314.471

> <PUBCHEM_SHAPE_VOLUME>
339.6

> <PUBCHEM_COORDINATE_TYPE>
2
5
10

$$$$
