25313771
  -OEChem-12032416193D

 78 82  0     1  0  0  0  0  0999 V2000
    4.1529   -2.1879   -1.8021 O   0  0  0  0  0  0  0  0  0  0  0  0
    1.0540    0.5017    1.8648 O   0  0  0  0  0  0  0  0  0  0  0  0
   -0.6199    1.6825    0.7692 N   0  0  0  0  0  0  0  0  0  0  0  0
    4.9807    3.9549    0.9360 N   0  0  0  0  0  0  0  0  0  0  0  0
    4.7196   -0.9215   -1.8815 N   0  0  0  0  0  0  0  0  0  0  0  0
    3.1581    1.6455    0.7086 C   0  0  1  0  0  0  0  0  0  0  0  0
    4.2726    1.9361   -0.3247 C   0  0  2  0  0  0  0  0  0  0  0  0
    3.5401    2.2877    2.0528 C   0  0  0  0  0  0  0  0  0  0  0  0
    1.7622    2.0989    0.2646 C   0  0  0  0  0  0  0  0  0  0  0  0
    4.6174    3.4338   -0.3823 C   0  0  0  0  0  0  0  0  0  0  0  0
    3.9477    1.4055   -1.7216 C   0  0  0  0  0  0  0  0  0  0  0  0
    3.9084    3.7639    1.9103 C   0  0  0  0  0  0  0  0  0  0  0  0
   -3.2325    1.4131   -0.4622 C   0  0  0  0  0  0  0  0  0  0  0  0
    1.7085   -3.6828   -0.0240 C   0  0  0  0  0  0  0  0  0  0  0  0
   -2.0593    2.0857   -1.1911 C   0  0  0  0  0  0  0  0  0  0  0  0
   -2.7078    0.3917    0.5582 C   0  0  0  0  0  0  0  0  0  0  0  0
    0.7072    1.3531    1.0421 C   0  0  0  0  0  0  0  0  0  0  0  0
   -1.0632    2.6892   -0.2023 C   0  0  0  0  0  0  0  0  0  0  0  0
   -1.7004    1.0306    1.5111 C   0  0  0  0  0  0  0  0  0  0  0  0
    0.5165   -2.8516    0.4696 C   0  0  0  0  0  0  0  0  0  0  0  0
    1.4167   -5.1842    0.1009 C   0  0  0  0  0  0  0  0  0  0  0  0
    3.7016   -0.0753   -1.7007 C   0  0  0  0  0  0  0  0  0  0  0  0
    2.0594   -3.3195   -1.4657 C   0  0  0  0  0  0  0  0  0  0  0  0
    0.1126   -3.2345    1.8915 C   0  0  0  0  0  0  0  0  0  0  0  0
    1.0111   -5.5633    1.5234 C   0  0  0  0  0  0  0  0  0  0  0  0
   -4.1815    0.7493   -1.4570 C   0  0  0  0  0  0  0  0  0  0  0  0
   -0.1682   -4.7290    2.0137 C   0  0  0  0  0  0  0  0  0  0  0  0
    2.8192   -2.0687   -1.5776 C   0  0  0  0  0  0  0  0  0  0  0  0
    2.4806   -0.7435   -1.5047 C   0  0  0  0  0  0  0  0  0  0  0  0
   -5.5500    0.5455   -0.8671 C   0  0  0  0  0  0  0  0  0  0  0  0
   -5.8479   -0.6363   -0.1888 C   0  0  0  0  0  0  0  0  0  0  0  0
   -6.5211    1.5382   -0.9981 C   0  0  0  0  0  0  0  0  0  0  0  0
   -7.1170   -0.8256    0.3584 C   0  0  0  0  0  0  0  0  0  0  0  0
   -7.7901    1.3491   -0.4510 C   0  0  0  0  0  0  0  0  0  0  0  0
   -8.0881    0.1672    0.2273 C   0  0  0  0  0  0  0  0  0  0  0  0
    3.1581    0.5614    0.8778 H   0  0  0  0  0  0  0  0  0  0  0  0
    5.1764    1.4135    0.0266 H   0  0  0  0  0  0  0  0  0  0  0  0
    4.4027    1.7480    2.4672 H   0  0  0  0  0  0  0  0  0  0  0  0
    2.7370    2.1868    2.7908 H   0  0  0  0  0  0  0  0  0  0  0  0
    1.5758    1.8922   -0.7892 H   0  0  0  0  0  0  0  0  0  0  0  0
    1.6292    3.1735    0.4196 H   0  0  0  0  0  0  0  0  0  0  0  0
    5.4681    3.5860   -1.0565 H   0  0  0  0  0  0  0  0  0  0  0  0
    3.7798    4.0100   -0.7946 H   0  0  0  0  0  0  0  0  0  0  0  0
    4.7998    1.6057   -2.3862 H   0  0  0  0  0  0  0  0  0  0  0  0
    3.1019    1.9270   -2.1817 H   0  0  0  0  0  0  0  0  0  0  0  0
    3.0358    4.3681    1.6393 H   0  0  0  0  0  0  0  0  0  0  0  0
    4.2531    4.1354    2.8819 H   0  0  0  0  0  0  0  0  0  0  0  0
   -3.7690    2.2008    0.0861 H   0  0  0  0  0  0  0  0  0  0  0  0
    5.1937    4.9489    0.8588 H   0  0  0  0  0  0  0  0  0  0  0  0
    2.5707   -3.4612    0.6216 H   0  0  0  0  0  0  0  0  0  0  0  0
   -2.4299    2.8725   -1.8586 H   0  0  0  0  0  0  0  0  0  0  0  0
   -1.5428    1.3461   -1.8167 H   0  0  0  0  0  0  0  0  0  0  0  0
   -2.2263   -0.4446    0.0349 H   0  0  0  0  0  0  0  0  0  0  0  0
   -3.5239   -0.0235    1.1569 H   0  0  0  0  0  0  0  0  0  0  0  0
   -0.2313    3.1272   -0.7555 H   0  0  0  0  0  0  0  0  0  0  0  0
   -1.5344    3.5002    0.3659 H   0  0  0  0  0  0  0  0  0  0  0  0
   -2.1855    1.7981    2.1258 H   0  0  0  0  0  0  0  0  0  0  0  0
   -1.3028    0.2703    2.1911 H   0  0  0  0  0  0  0  0  0  0  0  0
   -0.3436   -2.9951   -0.1970 H   0  0  0  0  0  0  0  0  0  0  0  0
    0.7530   -1.7846    0.4554 H   0  0  0  0  0  0  0  0  0  0  0  0
    2.3021   -5.7645   -0.1854 H   0  0  0  0  0  0  0  0  0  0  0  0
    0.6132   -5.4663   -0.5916 H   0  0  0  0  0  0  0  0  0  0  0  0
    1.1510   -3.2566   -2.0781 H   0  0  0  0  0  0  0  0  0  0  0  0
    2.6586   -4.1260   -1.9091 H   0  0  0  0  0  0  0  0  0  0  0  0
   -0.7774   -2.6668    2.1862 H   0  0  0  0  0  0  0  0  0  0  0  0
    0.9142   -2.9547    2.5862 H   0  0  0  0  0  0  0  0  0  0  0  0
    1.8651   -5.4196    2.1968 H   0  0  0  0  0  0  0  0  0  0  0  0
    0.7505   -6.6270    1.5609 H   0  0  0  0  0  0  0  0  0  0  0  0
   -3.7774   -0.2062   -1.8159 H   0  0  0  0  0  0  0  0  0  0  0  0
   -4.2857    1.3737   -2.3546 H   0  0  0  0  0  0  0  0  0  0  0  0
   -0.3883   -4.9788    3.0577 H   0  0  0  0  0  0  0  0  0  0  0  0
   -1.0616   -4.9811    1.4292 H   0  0  0  0  0  0  0  0  0  0  0  0
    1.4927   -0.3364   -1.3558 H   0  0  0  0  0  0  0  0  0  0  0  0
   -5.1053   -1.4230   -0.0872 H   0  0  0  0  0  0  0  0  0  0  0  0
   -6.3008    2.4645   -1.5222 H   0  0  0  0  0  0  0  0  0  0  0  0
   -7.3498   -1.7468    0.8846 H   0  0  0  0  0  0  0  0  0  0  0  0
   -8.5461    2.1222   -0.5525 H   0  0  0  0  0  0  0  0  0  0  0  0
   -9.0763    0.0198    0.6531 H   0  0  0  0  0  0  0  0  0  0  0  0
  1  5  1  0  0  0  0
  1 28  1  0  0  0  0
  2 17  2  0  0  0  0
  3 17  1  0  0  0  0
  3 18  1  0  0  0  0
  3 19  1  0  0  0  0
  4 10  1  0  0  0  0
  4 12  1  0  0  0  0
  4 49  1  0  0  0  0
  5 22  2  0  0  0  0
  6  7  1  0  0  0  0
  6  8  1  0  0  0  0
  6  9  1  0  0  0  0
  6 36  1  0  0  0  0
  7 10  1  0  0  0  0
  7 11  1  0  0  0  0
  7 37  1  0  0  0  0
  8 12  1  0  0  0  0
  8 38  1  0  0  0  0
  8 39  1  0  0  0  0
  9 17  1  0  0  0  0
  9 40  1  0  0  0  0
  9 41  1  0  0  0  0
 10 42  1  0  0  0  0
 10 43  1  0  0  0  0
 11 22  1  0  0  0  0
 11 44  1  0  0  0  0
 11 45  1  0  0  0  0
 12 46  1  0  0  0  0
 12 47  1  0  0  0  0
 13 15  1  0  0  0  0
 13 16  1  0  0  0  0
 13 26  1  0  0  0  0
 13 48  1  0  0  0  0
 14 20  1  0  0  0  0
 14 21  1  0  0  0  0
 14 23  1  0  0  0  0
 14 50  1  0  0  0  0
 15 18  1  0  0  0  0
 15 51  1  0  0  0  0
 15 52  1  0  0  0  0
 16 19  1  0  0  0  0
 16 53  1  0  0  0  0
 16 54  1  0  0  0  0
 18 55  1  0  0  0  0
 18 56  1  0  0  0  0
 19 57  1  0  0  0  0
 19 58  1  0  0  0  0
 20 24  1  0  0  0  0
 20 59  1  0  0  0  0
 20 60  1  0  0  0  0
 21 25  1  0  0  0  0
 21 61  1  0  0  0  0
 21 62  1  0  0  0  0
 22 29  1  0  0  0  0
 23 28  1  0  0  0  0
 23 63  1  0  0  0  0
 23 64  1  0  0  0  0
 24 27  1  0  0  0  0
 24 65  1  0  0  0  0
 24 66  1  0  0  0  0
 25 27  1  0  0  0  0
 25 67  1  0  0  0  0
 25 68  1  0  0  0  0
 26 30  1  0  0  0  0
 26 69  1  0  0  0  0
 26 70  1  0  0  0  0
 27 71  1  0  0  0  0
 27 72  1  0  0  0  0
 28 29  2  0  0  0  0
 29 73  1  0  0  0  0
 30 31  2  0  0  0  0
 30 32  1  0  0  0  0
 31 33  1  0  0  0  0
 31 74  1  0  0  0  0
 32 34  2  0  0  0  0
 32 75  1  0  0  0  0
 33 35  2  0  0  0  0
 33 76  1  0  0  0  0
 34 35  1  0  0  0  0
 34 77  1  0  0  0  0
 35 78  1  0  0  0  0
M  END
> <PUBCHEM_COMPOUND_CID>
25313771

> <PUBCHEM_CONFORMER_RMSD>
1.6

> <PUBCHEM_CONFORMER_DIVERSEORDER>
2
88
118
67
17
120
90
94
53
16
6
113
9
15
77
60
72
119
69
126
87
110
95
115
112
74
26
65
102
76
10
27
125
70
121
99
14
29
127
101
96
79
35
114
91
86
80
108
55
31
64
71
33
100
117
78
109
92
52
3
84
123
8
116
62
83
39
40
28
56
98
63
58
107
51
49
75
104
57
32
34
97
11
59
41
81
73
111
54
85
44
93
82
23
13
42
89
48
21
105
50
124
103
47
43
46
128
12
129
66
106
20
38
122
19
18
4
7
30
5
22
1
37
25
68
45
24
61
36

> <PUBCHEM_MMFF94_PARTIAL_CHARGES>
30
1 -0.02
10 0.27
11 0.18
12 0.27
17 0.57
18 0.3
19 0.3
2 -0.57
22 0.11
23 0.18
26 0.14
28 -0.04
29 -0.15
3 -0.66
30 -0.14
31 -0.15
32 -0.15
33 -0.15
34 -0.15
35 -0.15
4 -0.9
49 0.36
5 -0.41
73 0.15
74 0.15
75 0.15
76 0.15
77 0.15
78 0.15
9 0.06

> <PUBCHEM_EFFECTIVE_ROTOR_COUNT>
12.6

> <PUBCHEM_PHARMACOPHORE_FEATURES>
9
1 2 acceptor
1 4 cation
1 4 donor
1 5 acceptor
5 1 5 22 28 29 rings
6 14 20 21 24 25 27 rings
6 3 13 15 16 18 19 rings
6 30 31 32 33 34 35 rings
6 4 6 7 8 10 12 rings

> <PUBCHEM_HEAVY_ATOM_COUNT>
35

> <PUBCHEM_ATOM_DEF_STEREO_COUNT>
2

> <PUBCHEM_ATOM_UDEF_STEREO_COUNT>
0

> <PUBCHEM_BOND_DEF_STEREO_COUNT>
0

> <PUBCHEM_BOND_UDEF_STEREO_COUNT>
0

> <PUBCHEM_ISOTOPIC_ATOM_COUNT>
0

> <PUBCHEM_COMPONENT_COUNT>
1

> <PUBCHEM_CACTVS_TAUTO_COUNT>
1

> <PUBCHEM_CONFORMER_ID>
018241EB00000002

> <PUBCHEM_MMFF94_ENERGY>
54.3684

> <PUBCHEM_FEATURE_SELFOVERLAP>
45.673

> <PUBCHEM_SHAPE_FINGERPRINT>
10675989 125 18341894082276194017
10721379 63 18268142059489505777
11093857 5 18188216519716678747
11135609 187 18200876300276894353
11991303 11 18118119402033895644
12522641 33 18340201998363747260
12539745 222 11094515965430829304
12539747 72 17621856009880262000
12597179 24 18270116962972685464
12788726 201 16611675887876464344
13165054 189 18046634683592916921
13533116 47 17775287166393127733
1361 2 18335989743727236541
14068700 675 17468475911632224826
14675020 138 18341880914275574080
14725015 67 18409726223670007816
15183329 4 16128380398243903133
15721738 202 15913327953573888842
15927050 60 18340480175697313055
15968369 26 18043790023525647339
16993438 75 17837765995634302038
17909252 39 18264766554676464539
19026451 147 18122060901410515759
19319366 153 18411696582476941887
21344244 181 18410582815704607674
21703447 108 18270956839263867409
23516275 137 16986625106445291007
24941158 1 17755546422826389694
25223398 141 17824568441512441990
437795 51 18412271653371196047
44344687 77 18197520454019465811
513532 50 17676768686876635940
5265222 85 18120094142076612493
6669772 16 18340764931168596994
86090 222 18410018748959293451

> <PUBCHEM_SHAPE_MULTIPOLES>
693.6
15.78
6.93
2.08
38.11
10.33
0.18
-11.05
-4.27
-9.85
3.46
-2.41
0.51
3.15

> <PUBCHEM_SHAPE_SELFOVERLAP>
1455.015

> <PUBCHEM_SHAPE_VOLUME>
385.1

> <PUBCHEM_COORDINATE_TYPE>
2
5
10

$$$$
