7143951
  -OEChem-12032416213D

 57 62  0     1  0  0  0  0  0999 V2000
   -1.0769   -2.0550    1.4960 O   0  0  0  0  0  0  0  0  0  0  0  0
    3.6211   -0.4497    0.7896 N   0  0  2  0  0  0  0  0  0  0  0  0
    0.8774   -1.9755    0.2263 N   0  0  0  0  0  0  0  0  0  0  0  0
    3.1170   -2.8892    1.0740 C   0  0  1  0  0  0  0  0  0  0  0  0
    2.9805   -1.8830   -1.1540 C   0  0  2  0  0  0  0  0  0  0  0  0
    3.4039   -3.1407   -0.4003 C   0  0  0  0  0  0  0  0  0  0  0  0
    3.9123   -1.6613    1.5659 C   0  0  0  0  0  0  0  0  0  0  0  0
    3.8067   -0.6771   -0.6514 C   0  0  0  0  0  0  0  0  0  0  0  0
    1.6029   -2.7249    1.2622 C   0  0  0  0  0  0  0  0  0  0  0  0
    1.4967   -1.6211   -0.9746 C   0  0  0  0  0  0  0  0  0  0  0  0
    4.4313    0.6753    1.2504 C   0  0  0  0  0  0  0  0  0  0  0  0
    0.7859   -1.0370   -1.9522 C   0  0  0  0  0  0  0  0  0  0  0  0
   -0.4888   -1.7274    0.4637 C   0  0  0  0  0  0  0  0  0  0  0  0
   -1.2514   -1.0401   -0.6370 C   0  0  0  0  0  0  0  0  0  0  0  0
   -0.6068   -0.7387   -1.7743 C   0  0  0  0  0  0  0  0  0  0  0  0
    4.0568    1.9425    0.5313 C   0  0  0  0  0  0  0  0  0  0  0  0
   -2.6744   -0.6924   -0.4783 C   0  0  0  0  0  0  0  0  0  0  0  0
    4.7066    2.2773   -0.6492 C   0  0  0  0  0  0  0  0  0  0  0  0
    3.0658    2.7608    1.0571 C   0  0  0  0  0  0  0  0  0  0  0  0
   -3.0364    0.5442    0.0589 C   0  0  0  0  0  0  0  0  0  0  0  0
   -3.6596   -1.5977   -0.8641 C   0  0  0  0  0  0  0  0  0  0  0  0
    4.3593    3.4521   -1.3162 C   0  0  0  0  0  0  0  0  0  0  0  0
    2.7186    3.9356    0.3899 C   0  0  0  0  0  0  0  0  0  0  0  0
   -4.3884    0.8901    0.2163 C   0  0  0  0  0  0  0  0  0  0  0  0
    3.3653    4.2811   -0.7967 C   0  0  0  0  0  0  0  0  0  0  0  0
   -5.0076   -1.2706   -0.7147 C   0  0  0  0  0  0  0  0  0  0  0  0
   -5.3887   -0.0308   -0.1763 C   0  0  0  0  0  0  0  0  0  0  0  0
   -4.7695    2.1298    0.7548 C   0  0  0  0  0  0  0  0  0  0  0  0
   -6.7408    0.3151   -0.0188 C   0  0  0  0  0  0  0  0  0  0  0  0
   -6.1174    2.4569    0.9040 C   0  0  0  0  0  0  0  0  0  0  0  0
   -7.1013    1.5514    0.5180 C   0  0  0  0  0  0  0  0  0  0  0  0
    3.4458   -3.7537    1.6642 H   0  0  0  0  0  0  0  0  0  0  0  0
    3.2024   -2.0341   -2.2188 H   0  0  0  0  0  0  0  0  0  0  0  0
    4.4711   -3.3408   -0.5554 H   0  0  0  0  0  0  0  0  0  0  0  0
    2.8552   -4.0198   -0.7607 H   0  0  0  0  0  0  0  0  0  0  0  0
    3.6705   -1.4869    2.6218 H   0  0  0  0  0  0  0  0  0  0  0  0
    4.9847   -1.8948    1.5178 H   0  0  0  0  0  0  0  0  0  0  0  0
    3.4644    0.1774   -1.2423 H   0  0  0  0  0  0  0  0  0  0  0  0
    4.8661   -0.8475   -0.8864 H   0  0  0  0  0  0  0  0  0  0  0  0
    1.3820   -2.2742    2.2380 H   0  0  0  0  0  0  0  0  0  0  0  0
    1.1433   -3.7228    1.2805 H   0  0  0  0  0  0  0  0  0  0  0  0
    5.5047    0.4782    1.1219 H   0  0  0  0  0  0  0  0  0  0  0  0
    4.2836    0.8286    2.3278 H   0  0  0  0  0  0  0  0  0  0  0  0
    1.2439   -0.7459   -2.8917 H   0  0  0  0  0  0  0  0  0  0  0  0
   -1.1097   -0.2415   -2.5987 H   0  0  0  0  0  0  0  0  0  0  0  0
    5.4942    1.6508   -1.0586 H   0  0  0  0  0  0  0  0  0  0  0  0
    2.5537    2.5002    1.9790 H   0  0  0  0  0  0  0  0  0  0  0  0
   -2.2611    1.2478    0.3600 H   0  0  0  0  0  0  0  0  0  0  0  0
   -3.3941   -2.5654   -1.2831 H   0  0  0  0  0  0  0  0  0  0  0  0
    4.8653    3.7230   -2.2383 H   0  0  0  0  0  0  0  0  0  0  0  0
    1.9441    4.5810    0.7939 H   0  0  0  0  0  0  0  0  0  0  0  0
    3.0953    5.1961   -1.3158 H   0  0  0  0  0  0  0  0  0  0  0  0
   -5.7597   -1.9940   -1.0230 H   0  0  0  0  0  0  0  0  0  0  0  0
   -4.0177    2.8533    1.0634 H   0  0  0  0  0  0  0  0  0  0  0  0
   -7.5265   -0.3772   -0.3137 H   0  0  0  0  0  0  0  0  0  0  0  0
   -6.3987    3.4192    1.3218 H   0  0  0  0  0  0  0  0  0  0  0  0
   -8.1506    1.8068    0.6345 H   0  0  0  0  0  0  0  0  0  0  0  0
  1 13  2  0  0  0  0
  2  7  1  0  0  0  0
  2  8  1  0  0  0  0
  2 11  1  0  0  0  0
  3  9  1  0  0  0  0
  3 10  1  0  0  0  0
  3 13  1  0  0  0  0
  4  6  1  0  0  0  0
  4  7  1  0  0  0  0
  4  9  1  0  0  0  0
  4 32  1  0  0  0  0
  5  6  1  0  0  0  0
  5  8  1  0  0  0  0
  5 10  1  0  0  0  0
  5 33  1  0  0  0  0
  6 34  1  0  0  0  0
  6 35  1  0  0  0  0
  7 36  1  0  0  0  0
  7 37  1  0  0  0  0
  8 38  1  0  0  0  0
  8 39  1  0  0  0  0
  9 40  1  0  0  0  0
  9 41  1  0  0  0  0
 10 12  2  0  0  0  0
 11 16  1  0  0  0  0
 11 42  1  0  0  0  0
 11 43  1  0  0  0  0
 12 15  1  0  0  0  0
 12 44  1  0  0  0  0
 13 14  1  0  0  0  0
 14 15  2  0  0  0  0
 14 17  1  0  0  0  0
 15 45  1  0  0  0  0
 16 18  2  0  0  0  0
 16 19  1  0  0  0  0
 17 20  2  0  0  0  0
 17 21  1  0  0  0  0
 18 22  1  0  0  0  0
 18 46  1  0  0  0  0
 19 23  2  0  0  0  0
 19 47  1  0  0  0  0
 20 24  1  0  0  0  0
 20 48  1  0  0  0  0
 21 26  2  0  0  0  0
 21 49  1  0  0  0  0
 22 25  2  0  0  0  0
 22 50  1  0  0  0  0
 23 25  1  0  0  0  0
 23 51  1  0  0  0  0
 24 27  1  0  0  0  0
 24 28  2  0  0  0  0
 25 52  1  0  0  0  0
 26 27  1  0  0  0  0
 26 53  1  0  0  0  0
 27 29  2  0  0  0  0
 28 30  1  0  0  0  0
 28 54  1  0  0  0  0
 29 31  1  0  0  0  0
 29 55  1  0  0  0  0
 30 31  2  0  0  0  0
 30 56  1  0  0  0  0
 31 57  1  0  0  0  0
M  END
> <PUBCHEM_COMPOUND_CID>
7143951

> <PUBCHEM_CONFORMER_RMSD>
0.8

> <PUBCHEM_CONFORMER_DIVERSEORDER>
1
8
15
13
7
6
11
3
14
4
10
16
5
2
12
9

> <PUBCHEM_MMFF94_PARTIAL_CHARGES>
41
1 -0.57
10 -0.03
11 0.41
12 -0.15
13 0.62
14 -0.01
15 -0.15
16 -0.14
17 0.03
18 -0.15
19 -0.15
2 -0.81
20 -0.15
21 -0.15
22 -0.15
23 -0.15
25 -0.15
26 -0.15
28 -0.15
29 -0.15
3 -0.47
30 -0.15
31 -0.15
44 0.15
45 0.15
46 0.15
47 0.15
48 0.15
49 0.15
5 0.14
50 0.15
51 0.15
52 0.15
53 0.15
54 0.15
55 0.15
56 0.15
57 0.15
7 0.27
8 0.27
9 0.3

> <PUBCHEM_EFFECTIVE_ROTOR_COUNT>
4

> <PUBCHEM_PHARMACOPHORE_FEATURES>
8
1 1 acceptor
1 2 cation
6 16 18 19 22 23 25 rings
6 17 20 21 24 26 27 rings
6 2 4 5 6 7 8 rings
6 24 27 28 29 30 31 rings
6 3 10 12 13 14 15 rings
6 3 4 5 6 9 10 rings

> <PUBCHEM_HEAVY_ATOM_COUNT>
31

> <PUBCHEM_ATOM_DEF_STEREO_COUNT>
2

> <PUBCHEM_ATOM_UDEF_STEREO_COUNT>
0

> <PUBCHEM_BOND_DEF_STEREO_COUNT>
0

> <PUBCHEM_BOND_UDEF_STEREO_COUNT>
0

> <PUBCHEM_ISOTOPIC_ATOM_COUNT>
0

> <PUBCHEM_COMPONENT_COUNT>
1

> <PUBCHEM_CACTVS_TAUTO_COUNT>
1

> <PUBCHEM_CONFORMER_ID>
006D020F00000001

> <PUBCHEM_MMFF94_ENERGY>
94.9531

> <PUBCHEM_FEATURE_SELFOVERLAP>
42.179

> <PUBCHEM_SHAPE_FINGERPRINT>
10165383 225 17894355497448182254
10483366 6 18338532889417731972
10673678 19 17846779624275334027
10675989 125 18271246126950113912
11070050 100 17168144524603813586
11578080 2 18115323287391661810
12236239 1 18188779328062688351
12633257 1 17823395241467872450
12925494 130 18338233885898991529
13878862 14 18263342738563624917
13944108 23 18410579478958968300
14251764 38 18411138077851308793
14251764 75 18045505467718354756
14705955 166 17096071503038882357
14739800 52 18341895225159422933
14849402 71 18334012779292392826
15082195 135 17774452594022423559
15142526 21 18190738833227782106
15183329 4 10881406405251669419
15238133 3 18340764936228526872
15475509 35 11530768132265838741
15475509 84 17613426749802878754
15840311 113 18336830789256279373
20567600 9 18339929311364715700
20737093 172 11985157002651563421
21315764 268 18336826373755644493
21475661 188 18410013281872191984
21641784 216 15697725818195258651
21859007 373 17751067017557529781
21860390 5 18341894074361278286
22122407 14 18411425041669630161
23559900 14 17559965316021626519
23569914 152 10948994368632548489
245318 6 18116724091075674013
3298306 158 18200312267891175833
3411729 13 18412829105043779068
3472631 163 18343019957109279311
34797466 226 17846503608677102943
3493558 16 18341335569435459121
392239 28 18040983047116147979
394071 54 17458346380944425380
397830 11 18187940508101398691
4058900 60 18116440426171680128
474 4 18337385054168565006
5104073 3 18260552217081620043
513532 50 17775291556239711500
53794403 172 18335427906180965548
54076057 255 18264789696166010148
6086070 43 17827607332452832911

> <PUBCHEM_SHAPE_MULTIPOLES>
622.13
15.28
4.86
1.5
24.81
3.92
0.13
10.2
-2.11
-7.24
-0.19
-1.1
-0.38
-2.2

> <PUBCHEM_SHAPE_SELFOVERLAP>
1393.697

> <PUBCHEM_SHAPE_VOLUME>
322.6

> <PUBCHEM_COORDINATE_TYPE>
2
5
10

$$$$
