40777896
  -OEChem-12032416173D

 57 58  0     1  0  0  0  0  0999 V2000
    1.6045    0.8035   -0.6105 O   0  0  0  0  0  0  0  0  0  0  0  0
    1.8841    4.2140    0.4804 O   0  0  0  0  0  0  0  0  0  0  0  0
    3.3753    3.0955   -1.5429 O   0  0  0  0  0  0  0  0  0  0  0  0
   -3.1625   -0.6218   -2.0202 O   0  0  0  0  0  0  0  0  0  0  0  0
   -1.2616    1.3347   -1.4197 O   0  0  0  0  0  0  0  0  0  0  0  0
    1.2119   -1.4712    1.2702 O   0  0  0  0  0  0  0  0  0  0  0  0
   -2.5390    1.0861    0.4937 N   0  0  0  0  0  0  0  0  0  0  0  0
    3.2733   -1.3648    0.2037 N   0  0  0  0  0  0  0  0  0  0  0  0
    2.0678   -3.3342    0.1835 N   0  0  0  0  0  0  0  0  0  0  0  0
    1.0126    2.0530   -0.2134 C   0  0  2  0  0  0  0  0  0  0  0  0
    2.1136    2.8213    0.4977 C   0  0  1  0  0  0  0  0  0  0  0  0
    3.3352    2.4045   -0.2949 C   0  0  1  0  0  0  0  0  0  0  0  0
    3.0442    0.9346   -0.5770 C   0  0  1  0  0  0  0  0  0  0  0  0
   -3.7975    0.7707   -0.1858 C   0  0  2  0  0  0  0  0  0  0  0  0
   -0.1998    1.7894    0.6617 C   0  0  0  0  0  0  0  0  0  0  0  0
   -4.8554    0.9503    0.9059 C   0  0  0  0  0  0  0  0  0  0  0  0
   -2.7175    1.1331    1.9428 C   0  0  0  0  0  0  0  0  0  0  0  0
   -4.1120    0.5752    2.1826 C   0  0  0  0  0  0  0  0  0  0  0  0
   -1.3741    1.3859   -0.1938 C   0  0  0  0  0  0  0  0  0  0  0  0
    3.5715    0.0039    0.5064 C   0  0  0  0  0  0  0  0  0  0  0  0
   -3.7865   -0.6486   -0.7503 C   0  0  0  0  0  0  0  0  0  0  0  0
    2.1016   -2.0098    0.6127 C   0  0  0  0  0  0  0  0  0  0  0  0
   -3.1147   -1.9153   -2.6121 C   0  0  0  0  0  0  0  0  0  0  0  0
    0.9667   -4.2226    0.4726 C   0  0  0  0  0  0  0  0  0  0  0  0
    1.4646   -5.6554    0.6102 C   0  0  0  0  0  0  0  0  0  0  0  0
   -0.1063   -4.1120   -0.6035 C   0  0  0  0  0  0  0  0  0  0  0  0
    0.7281    2.5973   -1.1236 H   0  0  0  0  0  0  0  0  0  0  0  0
    2.2061    2.4897    1.5390 H   0  0  0  0  0  0  0  0  0  0  0  0
    4.2780    2.5948    0.2256 H   0  0  0  0  0  0  0  0  0  0  0  0
    3.4202    0.6226   -1.5584 H   0  0  0  0  0  0  0  0  0  0  0  0
   -3.9487    1.4930   -0.9972 H   0  0  0  0  0  0  0  0  0  0  0  0
   -0.4778    2.6986    1.2061 H   0  0  0  0  0  0  0  0  0  0  0  0
    0.0140    0.9894    1.3772 H   0  0  0  0  0  0  0  0  0  0  0  0
   -5.7607    0.3565    0.7509 H   0  0  0  0  0  0  0  0  0  0  0  0
   -5.1516    2.0056    0.9603 H   0  0  0  0  0  0  0  0  0  0  0  0
   -2.6469    2.1798    2.2577 H   0  0  0  0  0  0  0  0  0  0  0  0
   -1.9436    0.5529    2.4523 H   0  0  0  0  0  0  0  0  0  0  0  0
   -4.5781    0.9823    3.0841 H   0  0  0  0  0  0  0  0  0  0  0  0
   -4.0697   -0.5159    2.2822 H   0  0  0  0  0  0  0  0  0  0  0  0
    3.1297    0.2419    1.4803 H   0  0  0  0  0  0  0  0  0  0  0  0
    4.6596    0.0904    0.5904 H   0  0  0  0  0  0  0  0  0  0  0  0
   -4.8141   -1.0068   -0.8835 H   0  0  0  0  0  0  0  0  0  0  0  0
   -3.2560   -1.3404   -0.0847 H   0  0  0  0  0  0  0  0  0  0  0  0
    2.6761    4.6443    0.8449 H   0  0  0  0  0  0  0  0  0  0  0  0
    4.1513    2.7700   -2.0303 H   0  0  0  0  0  0  0  0  0  0  0  0
    3.9453   -1.8915   -0.3457 H   0  0  0  0  0  0  0  0  0  0  0  0
   -2.6032   -1.8338   -3.5748 H   0  0  0  0  0  0  0  0  0  0  0  0
   -4.1269   -2.2934   -2.7846 H   0  0  0  0  0  0  0  0  0  0  0  0
   -2.5571   -2.6090   -1.9768 H   0  0  0  0  0  0  0  0  0  0  0  0
    2.8154   -3.6653   -0.4190 H   0  0  0  0  0  0  0  0  0  0  0  0
    0.5252   -3.9178    1.4291 H   0  0  0  0  0  0  0  0  0  0  0  0
    2.2214   -5.7292    1.3989 H   0  0  0  0  0  0  0  0  0  0  0  0
    1.9230   -6.0091   -0.3201 H   0  0  0  0  0  0  0  0  0  0  0  0
    0.6430   -6.3330    0.8645 H   0  0  0  0  0  0  0  0  0  0  0  0
   -0.4790   -3.0845   -0.6758 H   0  0  0  0  0  0  0  0  0  0  0  0
    0.2878   -4.3886   -1.5877 H   0  0  0  0  0  0  0  0  0  0  0  0
   -0.9562   -4.7646   -0.3792 H   0  0  0  0  0  0  0  0  0  0  0  0
  1 10  1  0  0  0  0
  1 13  1  0  0  0  0
  2 11  1  0  0  0  0
  2 44  1  0  0  0  0
  3 12  1  0  0  0  0
  3 45  1  0  0  0  0
  4 21  1  0  0  0  0
  4 23  1  0  0  0  0
  5 19  2  0  0  0  0
  6 22  2  0  0  0  0
  7 14  1  0  0  0  0
  7 17  1  0  0  0  0
  7 19  1  0  0  0  0
  8 20  1  0  0  0  0
  8 22  1  0  0  0  0
  8 46  1  0  0  0  0
  9 22  1  0  0  0  0
  9 24  1  0  0  0  0
  9 50  1  0  0  0  0
 10 11  1  0  0  0  0
 10 15  1  0  0  0  0
 10 27  1  0  0  0  0
 11 12  1  0  0  0  0
 11 28  1  0  0  0  0
 12 13  1  0  0  0  0
 12 29  1  0  0  0  0
 13 20  1  0  0  0  0
 13 30  1  0  0  0  0
 14 16  1  0  0  0  0
 14 21  1  0  0  0  0
 14 31  1  0  0  0  0
 15 19  1  0  0  0  0
 15 32  1  0  0  0  0
 15 33  1  0  0  0  0
 16 18  1  0  0  0  0
 16 34  1  0  0  0  0
 16 35  1  0  0  0  0
 17 18  1  0  0  0  0
 17 36  1  0  0  0  0
 17 37  1  0  0  0  0
 18 38  1  0  0  0  0
 18 39  1  0  0  0  0
 20 40  1  0  0  0  0
 20 41  1  0  0  0  0
 21 42  1  0  0  0  0
 21 43  1  0  0  0  0
 23 47  1  0  0  0  0
 23 48  1  0  0  0  0
 23 49  1  0  0  0  0
 24 25  1  0  0  0  0
 24 26  1  0  0  0  0
 24 51  1  0  0  0  0
 25 52  1  0  0  0  0
 25 53  1  0  0  0  0
 25 54  1  0  0  0  0
 26 55  1  0  0  0  0
 26 56  1  0  0  0  0
 26 57  1  0  0  0  0
M  END
> <PUBCHEM_COMPOUND_CID>
40777896

> <PUBCHEM_CONFORMER_RMSD>
1

> <PUBCHEM_CONFORMER_DIVERSEORDER>
1
32
61
50
86
64
43
62
59
9
69
58
26
7
52
107
112
29
65
98
54
80
82
71
101
93
56
105
18
30
11
78
70
38
111
19
47
5
104
55
34
109
88
106
100
6
42
57
79
60
63
91
44
102
76
75
53
73
27
46
99
25
36
94
72
77
21
31
28
74
87
68
16
49
13
85
48
2
84
110
37
108
35
23
81
10
89
96
39
51
40
66
33
90
83
67
4
20
24
103
22
17
14
15
92
97
3
12
8
41
95
45

> <PUBCHEM_MMFF94_PARTIAL_CHARGES>
26
1 -0.56
10 0.28
11 0.28
12 0.28
13 0.28
14 0.3
15 0.06
17 0.3
19 0.57
2 -0.68
20 0.3
21 0.28
22 0.69
23 0.28
24 0.3
3 -0.68
4 -0.56
44 0.4
45 0.4
46 0.37
5 -0.57
50 0.37
6 -0.57
7 -0.66
8 -0.73
9 -0.73

> <PUBCHEM_EFFECTIVE_ROTOR_COUNT>
12

> <PUBCHEM_PHARMACOPHORE_FEATURES>
13
1 1 acceptor
1 2 acceptor
1 2 donor
1 3 acceptor
1 3 donor
1 4 acceptor
1 5 acceptor
1 6 acceptor
1 8 donor
1 9 donor
3 24 25 26 hydrophobe
5 1 10 11 12 13 rings
5 7 14 16 17 18 rings

> <PUBCHEM_HEAVY_ATOM_COUNT>
26

> <PUBCHEM_ATOM_DEF_STEREO_COUNT>
5

> <PUBCHEM_ATOM_UDEF_STEREO_COUNT>
0

> <PUBCHEM_BOND_DEF_STEREO_COUNT>
0

> <PUBCHEM_BOND_UDEF_STEREO_COUNT>
0

> <PUBCHEM_ISOTOPIC_ATOM_COUNT>
0

> <PUBCHEM_COMPONENT_COUNT>
1

> <PUBCHEM_CACTVS_TAUTO_COUNT>
3

> <PUBCHEM_CONFORMER_ID>
026E38A800000001

> <PUBCHEM_MMFF94_ENERGY>
53.4763

> <PUBCHEM_FEATURE_SELFOVERLAP>
66.039

> <PUBCHEM_SHAPE_FINGERPRINT>
10064457 181 18122078751542232088
1100329 8 18338514248805843192
12107183 9 17620490012764151729
12156800 1 16608523072142292129
12553582 1 18122622760552584942
12788726 201 16751273814029213464
13004483 165 17545586864793454851
13583140 156 18338811112603585025
13785724 45 17621621418818235571
14659021 117 17035008802446843530
14863182 85 18335992961184761306
15422964 175 18047752590317279736
17138139 8 17698138983873848167
20645477 70 18187363229293402801
20775530 9 17831861248493784458
21796203 349 18120681066352585378
23558518 356 17766847499579241781
238 59 18187632631016362780
3737641 26 17908151979921630522
5309563 4 17977954483747211587
57091435 65 18195533584135264062
59682541 52 18120908687298867501
7097593 13 18198625428138610829

> <PUBCHEM_SHAPE_MULTIPOLES>
484.91
7.9
6.34
1.75
6.46
8.17
-0.49
-2.23
0.58
-7.52
0.33
2.24
0.31
-2.59

> <PUBCHEM_SHAPE_SELFOVERLAP>
978.301

> <PUBCHEM_SHAPE_VOLUME>
285.6

> <PUBCHEM_COORDINATE_TYPE>
2
5
10

$$$$
