45360775
  -OEChem-12032416293D

 65 68  0     1  0  0  0  0  0999 V2000
    1.2671    4.8784    0.9321 O   0  0  0  0  0  0  0  0  0  0  0  0
   -4.3096   -0.2160   -2.3701 O   0  0  0  0  0  0  0  0  0  0  0  0
   -8.2703   -2.6732    1.5348 O   0  0  0  0  0  0  0  0  0  0  0  0
    8.1076   -2.5977   -0.8475 O   0  0  0  0  0  0  0  0  0  0  0  0
   -0.7132    1.8845    0.2707 N   0  0  1  0  0  0  0  0  0  0  0  0
   -0.3144    4.5019   -0.6584 N   0  0  0  0  0  0  0  0  0  0  0  0
    2.4613    0.1476    0.0677 N   0  0  0  0  0  0  0  0  0  0  0  0
   -4.8219   -1.4258   -0.4539 N   0  0  0  0  0  0  0  0  0  0  0  0
    0.1065    2.7835    1.0929 C   0  0  1  0  0  0  0  0  0  0  0  0
   -1.7866    2.5498   -0.4594 C   0  0  1  0  0  0  0  0  0  0  0  0
    1.2149    0.6817    0.5926 C   0  0  1  0  0  0  0  0  0  0  0  0
    1.3986    1.9941    1.3554 C   0  0  0  0  0  0  0  0  0  0  0  0
    0.2041    1.0382   -0.4889 C   0  0  0  0  0  0  0  0  0  0  0  0
   -1.2311    3.6377   -1.3652 C   0  0  0  0  0  0  0  0  0  0  0  0
   -2.6622    1.5741   -1.2466 C   0  0  0  0  0  0  0  0  0  0  0  0
    0.4196    4.1270    0.4408 C   0  0  0  0  0  0  0  0  0  0  0  0
   -3.2921    0.5114   -0.3580 C   0  0  0  0  0  0  0  0  0  0  0  0
    3.2161   -0.5385    1.1087 C   0  0  0  0  0  0  0  0  0  0  0  0
   -4.1835   -0.4049   -1.1575 C   0  0  0  0  0  0  0  0  0  0  0  0
   -4.6908   -1.6743    0.9879 C   0  0  0  0  0  0  0  0  0  0  0  0
   -5.6679   -2.3848   -1.1689 C   0  0  0  0  0  0  0  0  0  0  0  0
   -6.0631   -1.7367    1.6525 C   0  0  0  0  0  0  0  0  0  0  0  0
   -7.0567   -2.4578   -0.5435 C   0  0  0  0  0  0  0  0  0  0  0  0
   -6.9731   -2.7484    0.9558 C   0  0  0  0  0  0  0  0  0  0  0  0
    4.5180   -1.0871    0.5881 C   0  0  0  0  0  0  0  0  0  0  0  0
    4.5264   -2.2460   -0.1884 C   0  0  0  0  0  0  0  0  0  0  0  0
    5.7160   -0.4360    0.8821 C   0  0  0  0  0  0  0  0  0  0  0  0
    5.7326   -2.7538   -0.6705 C   0  0  0  0  0  0  0  0  0  0  0  0
    6.9224   -0.9438    0.4001 C   0  0  0  0  0  0  0  0  0  0  0  0
    6.9306   -2.1026   -0.3763 C   0  0  0  0  0  0  0  0  0  0  0  0
    9.2948   -1.8823   -0.5089 C   0  0  0  0  0  0  0  0  0  0  0  0
   -0.4138    2.9954    2.0344 H   0  0  0  0  0  0  0  0  0  0  0  0
   -2.4326    3.0327    0.2879 H   0  0  0  0  0  0  0  0  0  0  0  0
    0.7380   -0.0565    1.2552 H   0  0  0  0  0  0  0  0  0  0  0  0
    2.2862    2.5327    1.0013 H   0  0  0  0  0  0  0  0  0  0  0  0
    1.5350    1.7967    2.4249 H   0  0  0  0  0  0  0  0  0  0  0  0
   -0.2727    0.1370   -0.8867 H   0  0  0  0  0  0  0  0  0  0  0  0
    0.6819    1.5788   -1.3149 H   0  0  0  0  0  0  0  0  0  0  0  0
   -2.0364    4.2697   -1.7551 H   0  0  0  0  0  0  0  0  0  0  0  0
   -0.6898    3.2257   -2.2239 H   0  0  0  0  0  0  0  0  0  0  0  0
   -2.0865    1.1016   -2.0533 H   0  0  0  0  0  0  0  0  0  0  0  0
   -3.4583    2.1450   -1.7443 H   0  0  0  0  0  0  0  0  0  0  0  0
   -0.1113    5.4074   -1.0705 H   0  0  0  0  0  0  0  0  0  0  0  0
    2.2506   -0.5139   -0.6800 H   0  0  0  0  0  0  0  0  0  0  0  0
   -3.8951    0.9989    0.4164 H   0  0  0  0  0  0  0  0  0  0  0  0
   -2.5190   -0.0983    0.1205 H   0  0  0  0  0  0  0  0  0  0  0  0
    3.4232    0.1419    1.9442 H   0  0  0  0  0  0  0  0  0  0  0  0
    2.6348   -1.3713    1.5267 H   0  0  0  0  0  0  0  0  0  0  0  0
   -4.1680   -2.6313    1.1033 H   0  0  0  0  0  0  0  0  0  0  0  0
   -4.0848   -0.9154    1.4849 H   0  0  0  0  0  0  0  0  0  0  0  0
   -5.7524   -2.1178   -2.2270 H   0  0  0  0  0  0  0  0  0  0  0  0
   -5.1714   -3.3610   -1.1162 H   0  0  0  0  0  0  0  0  0  0  0  0
   -5.9603   -1.9953    2.7130 H   0  0  0  0  0  0  0  0  0  0  0  0
   -6.5334   -0.7448    1.6280 H   0  0  0  0  0  0  0  0  0  0  0  0
   -7.5881   -1.5102   -0.7020 H   0  0  0  0  0  0  0  0  0  0  0  0
   -7.6573   -3.2277   -1.0418 H   0  0  0  0  0  0  0  0  0  0  0  0
   -6.5889   -3.7620    1.1208 H   0  0  0  0  0  0  0  0  0  0  0  0
    3.5996   -2.7628   -0.4234 H   0  0  0  0  0  0  0  0  0  0  0  0
    5.7234    0.4690    1.4839 H   0  0  0  0  0  0  0  0  0  0  0  0
   -8.8338   -3.3187    1.0751 H   0  0  0  0  0  0  0  0  0  0  0  0
    5.7329   -3.6568   -1.2748 H   0  0  0  0  0  0  0  0  0  0  0  0
    7.8153   -0.3883    0.6656 H   0  0  0  0  0  0  0  0  0  0  0  0
   10.1349   -2.4159   -0.9654 H   0  0  0  0  0  0  0  0  0  0  0  0
    9.4680   -1.8790    0.5726 H   0  0  0  0  0  0  0  0  0  0  0  0
    9.2902   -0.8720   -0.9318 H   0  0  0  0  0  0  0  0  0  0  0  0
  1 16  2  0  0  0  0
  2 19  2  0  0  0  0
  3 24  1  0  0  0  0
  3 60  1  0  0  0  0
  4 30  1  0  0  0  0
  4 31  1  0  0  0  0
  5  9  1  0  0  0  0
  5 10  1  0  0  0  0
  5 13  1  0  0  0  0
  6 14  1  0  0  0  0
  6 16  1  0  0  0  0
  6 43  1  0  0  0  0
  7 11  1  0  0  0  0
  7 18  1  0  0  0  0
  7 44  1  0  0  0  0
  8 19  1  0  0  0  0
  8 20  1  0  0  0  0
  8 21  1  0  0  0  0
  9 12  1  0  0  0  0
  9 16  1  0  0  0  0
  9 32  1  0  0  0  0
 10 14  1  0  0  0  0
 10 15  1  0  0  0  0
 10 33  1  0  0  0  0
 11 12  1  0  0  0  0
 11 13  1  0  0  0  0
 11 34  1  0  0  0  0
 12 35  1  0  0  0  0
 12 36  1  0  0  0  0
 13 37  1  0  0  0  0
 13 38  1  0  0  0  0
 14 39  1  0  0  0  0
 14 40  1  0  0  0  0
 15 17  1  0  0  0  0
 15 41  1  0  0  0  0
 15 42  1  0  0  0  0
 17 19  1  0  0  0  0
 17 45  1  0  0  0  0
 17 46  1  0  0  0  0
 18 25  1  0  0  0  0
 18 47  1  0  0  0  0
 18 48  1  0  0  0  0
 20 22  1  0  0  0  0
 20 49  1  0  0  0  0
 20 50  1  0  0  0  0
 21 23  1  0  0  0  0
 21 51  1  0  0  0  0
 21 52  1  0  0  0  0
 22 24  1  0  0  0  0
 22 53  1  0  0  0  0
 22 54  1  0  0  0  0
 23 24  1  0  0  0  0
 23 55  1  0  0  0  0
 23 56  1  0  0  0  0
 24 57  1  0  0  0  0
 25 26  2  0  0  0  0
 25 27  1  0  0  0  0
 26 28  1  0  0  0  0
 26 58  1  0  0  0  0
 27 29  2  0  0  0  0
 27 59  1  0  0  0  0
 28 30  2  0  0  0  0
 28 61  1  0  0  0  0
 29 30  1  0  0  0  0
 29 62  1  0  0  0  0
 31 63  1  0  0  0  0
 31 64  1  0  0  0  0
 31 65  1  0  0  0  0
M  END
> <PUBCHEM_COMPOUND_CID>
45360775

> <PUBCHEM_CONFORMER_RMSD>
1

> <PUBCHEM_CONFORMER_DIVERSEORDER>
1
271
274
194
37
239
299
245
179
282
297
120
80
263
46
198
241
117
170
21
300
215
312
248
183
88
258
142
293
84
174
176
285
224
114
67
129
118
73
311
268
39
229
173
58
303
234
167
87
254
218
199
284
318
309
20
177
104
29
146
206
57
63
316
137
77
155
276
205
112
128
281
255
296
189
113
171
227
60
83
66
265
136
168
289
272
314
260
280
257
295
4
226
132
153
55
111
267
150
269
133
266
101
208
308
125
191
34
123
140
220
68
187
154
216
225
79
165
212
320
74
156
86
251
139
230
214
286
90
283
235
42
288
159
108
64
107
292
102
10
19
310
100
149
97
48
273
315
121
301
169
201
94
85
305
197
99
89
5
44
184
193
233
313
151
13
65
76
203
33
62
202
7
126
221
110
131
148
17
3
15
232
158
122
222
72
25
209
181
219
127
250
304
144
9
186
195
135
298
172
51
175
31
185
231
247
23
277
27
317
180
18
41
24
161
92
211
22
249
291
290
294
38
279
147
82
54
35
16
182
53
252
106
143
196
69
56
217
207
98
204
141
278
116
40
190
287
134
81
237
302
11
192
93
253
259
200
236
256
152
109
243
59
12
246
162
124
242
96
223
319
105
95
244
28
130
261
2
61
115
163
188
166
275
270
75
50
213
210
264
78
71
240
91
36
52
307
14
43
138
45
145
238
26
157
306
119
262
160
164
49
103
6
32
8
30
178
47
228
70

> <PUBCHEM_MMFF94_PARTIAL_CHARGES>
34
1 -0.57
10 0.27
11 0.27
13 0.27
14 0.3
16 0.57
17 0.06
18 0.41
19 0.57
2 -0.57
20 0.3
21 0.3
24 0.28
25 -0.14
26 -0.15
27 -0.15
28 -0.15
29 -0.15
3 -0.68
30 0.08
31 0.28
4 -0.36
43 0.37
44 0.36
5 -0.81
58 0.15
59 0.15
6 -0.73
60 0.4
61 0.15
62 0.15
7 -0.9
8 -0.66
9 0.33

> <PUBCHEM_EFFECTIVE_ROTOR_COUNT>
10.4

> <PUBCHEM_PHARMACOPHORE_FEATURES>
13
1 1 acceptor
1 2 acceptor
1 3 acceptor
1 3 donor
1 4 acceptor
1 5 cation
1 6 donor
1 7 cation
1 7 donor
5 5 9 11 12 13 rings
6 25 26 27 28 29 30 rings
6 5 6 9 10 14 16 rings
6 8 20 21 22 23 24 rings

> <PUBCHEM_HEAVY_ATOM_COUNT>
31

> <PUBCHEM_ATOM_DEF_STEREO_COUNT>
3

> <PUBCHEM_ATOM_UDEF_STEREO_COUNT>
0

> <PUBCHEM_BOND_DEF_STEREO_COUNT>
0

> <PUBCHEM_BOND_UDEF_STEREO_COUNT>
0

> <PUBCHEM_ISOTOPIC_ATOM_COUNT>
0

> <PUBCHEM_COMPONENT_COUNT>
1

> <PUBCHEM_CACTVS_TAUTO_COUNT>
3

> <PUBCHEM_CONFORMER_ID>
02B4268700000001

> <PUBCHEM_MMFF94_ENERGY>
74.0954

> <PUBCHEM_FEATURE_SELFOVERLAP>
66.161

> <PUBCHEM_SHAPE_FINGERPRINT>
10076449 9 18413393142352095258
10319688 140 18193276514375659420
11059845 2 17344934939974877929
117089 54 18410013242811232967
12107183 9 18342747295864623689
1361 4 18266740169818123022
1361 87 17749948977314107859
13631057 29 18261956254569556970
13673619 4 18410290324041668075
13690498 29 18261667099985489013
14950920 106 15410028790581242043
15064981 194 18196382420857087052
15320294 125 17203332226110340743
15324884 4 17911197777101394080
15351339 4 17895746310078668794
15467298 65 17828475874047202458
15773216 30 18118974822059843276
17686467 74 18411130322116324808
19246450 95 17988376871506800859
21049683 271 18335703909601644548
21133410 32 15430905209252171185
21344244 246 18188214307940545876
21365058 113 18040998501052363157
21716022 299 18041855019983283829
21796203 349 18199767970932897315
22149856 69 18131635578093652058
22899556 105 18337407014874920652
25269216 80 16081087091792223083
255183 451 18337105769498873813
2747138 104 18342450423086894922
32027 91 18264485264758393819
3388396 114 11530747224809011119
3552219 110 17704079504002780504
393628 194 8502372269578793263
397638 26 10303810986723385350
4330586 98 16951141688568650498
437795 150 18267305335736968102
437815 12 18408041836270501051
5372103 7 9727363403022105347
54039377 194 18410015437851355590
6201320 77 17202772488539060998
636775 8 18342462496493775862
6673363 416 18341338813175179836
999808 66 18343580728844745398

> <PUBCHEM_SHAPE_MULTIPOLES>
594.56
23.62
5.71
1.49
16.7
7.04
-0.11
-39.33
-0.14
-2.02
0.12
-1.98
-0.05
3.24

> <PUBCHEM_SHAPE_SELFOVERLAP>
1245.659

> <PUBCHEM_SHAPE_VOLUME>
335.3

> <PUBCHEM_COORDINATE_TYPE>
2
5
10

$$$$
