75537087
  -OEChem-12032416303D

 44 47  0     1  0  0  0  0  0999 V2000
    5.7753   -2.6644    1.4961 F   0  0  0  0  0  0  0  0  0  0  0  0
    1.7435    3.0133    0.2940 O   0  0  0  0  0  0  0  0  0  0  0  0
   -0.2965    1.8840    0.0074 N   0  0  0  0  0  0  0  0  0  0  0  0
   -2.7290    0.6455    0.6856 N   0  0  2  0  0  0  0  0  0  0  0  0
    1.4924    1.1566   -1.1391 N   0  0  0  0  0  0  0  0  0  0  0  0
   -5.6959   -0.2358    0.0151 N   0  0  0  0  0  0  0  0  0  0  0  0
   -4.5871   -2.1593    0.0600 N   0  0  0  0  0  0  0  0  0  0  0  0
   -0.8149    0.8383   -0.8496 C   0  0  2  0  0  0  0  0  0  0  0  0
   -1.6985   -0.1170   -0.0481 C   0  0  0  0  0  0  0  0  0  0  0  0
    0.4396    0.2040   -1.4469 C   0  0  0  0  0  0  0  0  0  0  0  0
   -1.2030    2.5978    0.8824 C   0  0  0  0  0  0  0  0  0  0  0  0
   -2.1078    1.6069    1.6191 C   0  0  0  0  0  0  0  0  0  0  0  0
    1.0641    2.1329   -0.2172 C   0  0  0  0  0  0  0  0  0  0  0  0
   -3.6177   -0.2643    1.4080 C   0  0  0  0  0  0  0  0  0  0  0  0
    2.8436    0.9898   -1.6271 C   0  0  0  0  0  0  0  0  0  0  0  0
   -4.6138   -0.9193    0.4954 C   0  0  0  0  0  0  0  0  0  0  0  0
    3.6254    0.0153   -0.7945 C   0  0  0  0  0  0  0  0  0  0  0  0
    4.3569    0.4667    0.3042 C   0  0  0  0  0  0  0  0  0  0  0  0
    3.6202   -1.3414   -1.1191 C   0  0  0  0  0  0  0  0  0  0  0  0
   -6.4046   -1.0947   -0.7770 C   0  0  0  0  0  0  0  0  0  0  0  0
   -5.7008   -2.2751   -0.7338 C   0  0  0  0  0  0  0  0  0  0  0  0
    5.0835   -0.4383    1.0778 C   0  0  0  0  0  0  0  0  0  0  0  0
    4.3468   -2.2464   -0.3455 C   0  0  0  0  0  0  0  0  0  0  0  0
    5.0784   -1.7949    0.7530 C   0  0  0  0  0  0  0  0  0  0  0  0
   -1.3991    1.3305   -1.6384 H   0  0  0  0  0  0  0  0  0  0  0  0
   -2.1568   -0.8252   -0.7481 H   0  0  0  0  0  0  0  0  0  0  0  0
   -1.0875   -0.6989    0.6555 H   0  0  0  0  0  0  0  0  0  0  0  0
    0.3568    0.0722   -2.5299 H   0  0  0  0  0  0  0  0  0  0  0  0
    0.6845   -0.7544   -0.9788 H   0  0  0  0  0  0  0  0  0  0  0  0
   -1.7988    3.2704    0.2547 H   0  0  0  0  0  0  0  0  0  0  0  0
   -0.6290    3.2095    1.5855 H   0  0  0  0  0  0  0  0  0  0  0  0
   -1.5202    1.0703    2.3761 H   0  0  0  0  0  0  0  0  0  0  0  0
   -2.8812    2.1781    2.1463 H   0  0  0  0  0  0  0  0  0  0  0  0
   -4.1975    0.2895    2.1594 H   0  0  0  0  0  0  0  0  0  0  0  0
   -3.0560   -1.0285    1.9607 H   0  0  0  0  0  0  0  0  0  0  0  0
    3.3420    1.9666   -1.6093 H   0  0  0  0  0  0  0  0  0  0  0  0
    2.8043    0.6741   -2.6761 H   0  0  0  0  0  0  0  0  0  0  0  0
   -5.9304    0.7289    0.2085 H   0  0  0  0  0  0  0  0  0  0  0  0
    4.3692    1.5206    0.5687 H   0  0  0  0  0  0  0  0  0  0  0  0
    3.0548   -1.7057   -1.9727 H   0  0  0  0  0  0  0  0  0  0  0  0
   -7.3124   -0.7964   -1.2808 H   0  0  0  0  0  0  0  0  0  0  0  0
   -5.9392   -3.2024   -1.2340 H   0  0  0  0  0  0  0  0  0  0  0  0
    5.6529   -0.0874    1.9333 H   0  0  0  0  0  0  0  0  0  0  0  0
    4.3430   -3.3026   -0.5979 H   0  0  0  0  0  0  0  0  0  0  0  0
  1 24  1  0  0  0  0
  2 13  2  0  0  0  0
  3  8  1  0  0  0  0
  3 11  1  0  0  0  0
  3 13  1  0  0  0  0
  4  9  1  0  0  0  0
  4 12  1  0  0  0  0
  4 14  1  0  0  0  0
  5 10  1  0  0  0  0
  5 13  1  0  0  0  0
  5 15  1  0  0  0  0
  6 16  1  0  0  0  0
  6 20  1  0  0  0  0
  6 38  1  0  0  0  0
  7 16  2  0  0  0  0
  7 21  1  0  0  0  0
  8  9  1  0  0  0  0
  8 10  1  0  0  0  0
  8 25  1  0  0  0  0
  9 26  1  0  0  0  0
  9 27  1  0  0  0  0
 10 28  1  0  0  0  0
 10 29  1  0  0  0  0
 11 12  1  0  0  0  0
 11 30  1  0  0  0  0
 11 31  1  0  0  0  0
 12 32  1  0  0  0  0
 12 33  1  0  0  0  0
 14 16  1  0  0  0  0
 14 34  1  0  0  0  0
 14 35  1  0  0  0  0
 15 17  1  0  0  0  0
 15 36  1  0  0  0  0
 15 37  1  0  0  0  0
 17 18  2  0  0  0  0
 17 19  1  0  0  0  0
 18 22  1  0  0  0  0
 18 39  1  0  0  0  0
 19 23  2  0  0  0  0
 19 40  1  0  0  0  0
 20 21  2  0  0  0  0
 20 41  1  0  0  0  0
 21 42  1  0  0  0  0
 22 24  2  0  0  0  0
 22 43  1  0  0  0  0
 23 24  1  0  0  0  0
 23 44  1  0  0  0  0
M  END
> <PUBCHEM_COMPOUND_CID>
75537087

> <PUBCHEM_CONFORMER_RMSD>
0.8

> <PUBCHEM_CONFORMER_DIVERSEORDER>
1
12
15
35
29
18
34
23
37
41
25
26
30
17
10
6
32
19
13
31
16
4
38
36
33
39
28
5
7
24
3
22
11
2
14
9
40
27
21
8
20
42

> <PUBCHEM_MMFF94_PARTIAL_CHARGES>
31
1 -0.19
10 0.3
11 0.3
12 0.27
13 0.69
14 0.45
15 0.44
16 0.01
17 -0.14
18 -0.15
19 -0.15
2 -0.57
20 -0.3
21 0.08
22 -0.15
23 -0.15
24 0.19
3 -0.66
38 0.27
39 0.15
4 -0.81
40 0.15
41 0.15
42 0.15
43 0.15
44 0.15
5 -0.66
6 0.03
7 -0.57
8 0.3
9 0.27

> <PUBCHEM_EFFECTIVE_ROTOR_COUNT>
5.2

> <PUBCHEM_PHARMACOPHORE_FEATURES>
8
1 2 acceptor
1 4 cation
1 6 donor
3 6 7 16 cation
5 3 5 8 10 13 rings
5 6 7 16 20 21 rings
6 17 18 19 22 23 24 rings
6 3 4 8 9 11 12 rings

> <PUBCHEM_HEAVY_ATOM_COUNT>
24

> <PUBCHEM_ATOM_DEF_STEREO_COUNT>
1

> <PUBCHEM_ATOM_UDEF_STEREO_COUNT>
0

> <PUBCHEM_BOND_DEF_STEREO_COUNT>
0

> <PUBCHEM_BOND_UDEF_STEREO_COUNT>
0

> <PUBCHEM_ISOTOPIC_ATOM_COUNT>
0

> <PUBCHEM_COMPONENT_COUNT>
1

> <PUBCHEM_CACTVS_TAUTO_COUNT>
1

> <PUBCHEM_CONFORMER_ID>
04809ABF00000001

> <PUBCHEM_MMFF94_ENERGY>
44.3888

> <PUBCHEM_FEATURE_SELFOVERLAP>
40.694

> <PUBCHEM_SHAPE_FINGERPRINT>
10319926 262 17488189184380916110
10447042 23 18335703870750954796
11796584 16 17386005121712288739
12596602 18 17489874825647630194
12839892 36 17775292646818539447
12892183 10 17274262730197419856
12895836 83 8430302542088273066
13083527 12 18202006550943091301
13533116 47 18409449223685463112
13782708 43 17896608469793720651
13828863 39 10879988073547854595
13885169 86 11671480336223282306
13911852 28 18337106765999871002
14251740 57 18059304171295881870
14251751 18 18408880754872977391
14429115 67 18409452479165145822
1454969 45 18337116765327223756
14848178 5 18260832604666505611
14950920 106 14691748514585376647
15163728 17 9655567535405394408
15183329 4 16008743606996900631
15188451 53 18411975832581204882
15210252 30 10231743488691852510
15342168 16 9511467701710838953
15475509 8 15864065439082253159
17349148 13 18336560360175837703
17857418 61 18411421734776757895
17959699 21 8142086455155637584
18222031 100 18271538545280974124
1979834 28 17489317385852627671
20028762 73 18412262809744188774
20567600 234 15482666922648070467
20621476 91 16558744655165217671
20775530 9 16808982291872388866
21033648 29 15913053053922875576
21304303 282 17838331883725765697
21315764 119 16153703202760228931
21401589 2 13542165183262595382
21728266 224 18342179947131227353
22061861 79 17095243644161081263
22079108 93 13830131689418625293
23559900 14 18191874637271609097
2838139 119 11599721740881183962
3004659 81 18334303092747439694
312425 54 17416981533826457067
312425 83 15865211263052549479
339767 52 18272368689819685327
3472631 163 9079106770016453146
38570 142 10735878408900025112
3886686 26 17265264167821692010
439807 62 18192152814578983031
463206 1 18335144232276016563
5104073 3 17844823653846713419
56633871 153 17831870044792379146
5924683 9 18342181012188346801
59682541 52 16009017389629538891
6034566 193 10447343489075462274
6438161 24 18272364330997644103
76465 3 18410578392041390277
7808743 9 8862938360242660129
8988823 20 18340485672505949868
960060 61 16733274512055009126

> <PUBCHEM_SHAPE_MULTIPOLES>
455.86
14.77
2.94
1.44
8.12
0.36
-0.05
-13.9
-1.96
-0.86
-0.5
-0.7
0.01
-1.93

> <PUBCHEM_SHAPE_SELFOVERLAP>
983.127

> <PUBCHEM_SHAPE_VOLUME>
253.4

> <PUBCHEM_COORDINATE_TYPE>
2
5
10

$$$$
