11885173
  -OEChem-12032416363D

 52 56  0     1  0  0  0  0  0999 V2000
   -6.7354    3.1007    0.1364 Cl  0  0  0  0  0  0  0  0  0  0  0  0
    2.7565    6.1443    0.1192 Cl  0  0  0  0  0  0  0  0  0  0  0  0
   -1.5500   -0.5535    1.9572 O   0  0  0  0  0  0  0  0  0  0  0  0
    2.6259   -0.3317   -2.0516 O   0  0  0  0  0  0  0  0  0  0  0  0
    2.6587   -1.9483   -0.3962 N   0  0  0  0  0  0  0  0  0  0  0  0
   -0.3432   -2.0900    0.6836 N   0  0  0  0  0  0  0  0  0  0  0  0
    3.3653    0.2544    0.0671 N   0  0  0  0  0  0  0  0  0  0  0  0
    1.7678   -3.2442    1.5549 C   0  0  1  0  0  0  0  0  0  0  0  0
    0.9560   -3.7369   -0.7106 C   0  0  2  0  0  0  0  0  0  0  0  0
    1.3792   -4.3738    0.6105 C   0  0  0  0  0  0  0  0  0  0  0  0
    2.9281   -2.4105    0.9749 C   0  0  0  0  0  0  0  0  0  0  0  0
    0.5276   -2.3845    1.8294 C   0  0  0  0  0  0  0  0  0  0  0  0
    2.1530   -2.9791   -1.3113 C   0  0  0  0  0  0  0  0  0  0  0  0
   -0.2111   -2.7867   -0.5196 C   0  0  0  0  0  0  0  0  0  0  0  0
   -1.0932   -2.5895   -1.5122 C   0  0  0  0  0  0  0  0  0  0  0  0
   -1.3785   -1.1588    0.8977 C   0  0  0  0  0  0  0  0  0  0  0  0
    2.8618   -0.6367   -0.8798 C   0  0  0  0  0  0  0  0  0  0  0  0
   -2.3268   -0.9286   -0.2479 C   0  0  0  0  0  0  0  0  0  0  0  0
   -2.1617   -1.6414   -1.3723 C   0  0  0  0  0  0  0  0  0  0  0  0
   -3.4119    0.0634   -0.1528 C   0  0  0  0  0  0  0  0  0  0  0  0
    3.2198    1.6635    0.0796 C   0  0  0  0  0  0  0  0  0  0  0  0
   -4.6669   -0.3179    0.3233 C   0  0  0  0  0  0  0  0  0  0  0  0
   -3.1860    1.3849   -0.5395 C   0  0  0  0  0  0  0  0  0  0  0  0
    3.8686    2.4173    1.0535 C   0  0  0  0  0  0  0  0  0  0  0  0
    2.4287    2.2857   -0.8821 C   0  0  0  0  0  0  0  0  0  0  0  0
   -5.6945    0.6212    0.4126 C   0  0  0  0  0  0  0  0  0  0  0  0
   -4.2136    2.3239   -0.4501 C   0  0  0  0  0  0  0  0  0  0  0  0
   -5.4678    1.9421    0.0259 C   0  0  0  0  0  0  0  0  0  0  0  0
    3.7250    3.8047    1.0658 C   0  0  0  0  0  0  0  0  0  0  0  0
    2.2853    3.6731   -0.8697 C   0  0  0  0  0  0  0  0  0  0  0  0
    2.9334    4.4327    0.1041 C   0  0  0  0  0  0  0  0  0  0  0  0
    2.1093   -3.6654    2.5087 H   0  0  0  0  0  0  0  0  0  0  0  0
    0.6708   -4.5404   -1.4022 H   0  0  0  0  0  0  0  0  0  0  0  0
    0.5614   -4.9696    1.0351 H   0  0  0  0  0  0  0  0  0  0  0  0
    2.2261   -5.0535    0.4568 H   0  0  0  0  0  0  0  0  0  0  0  0
    3.1364   -1.5874    1.6599 H   0  0  0  0  0  0  0  0  0  0  0  0
    3.8346   -3.0255    0.9212 H   0  0  0  0  0  0  0  0  0  0  0  0
   -0.1083   -2.9064    2.5576 H   0  0  0  0  0  0  0  0  0  0  0  0
    0.8144   -1.4378    2.3042 H   0  0  0  0  0  0  0  0  0  0  0  0
    2.9830   -3.6720   -1.4974 H   0  0  0  0  0  0  0  0  0  0  0  0
    1.8821   -2.5435   -2.2791 H   0  0  0  0  0  0  0  0  0  0  0  0
   -1.0068   -3.1092   -2.4607 H   0  0  0  0  0  0  0  0  0  0  0  0
   -2.8171   -1.5128   -2.2288 H   0  0  0  0  0  0  0  0  0  0  0  0
    3.9312   -0.1170    0.8225 H   0  0  0  0  0  0  0  0  0  0  0  0
   -4.8588   -1.3435    0.6294 H   0  0  0  0  0  0  0  0  0  0  0  0
   -2.2133    1.6980   -0.9115 H   0  0  0  0  0  0  0  0  0  0  0  0
    4.4880    1.9398    1.8082 H   0  0  0  0  0  0  0  0  0  0  0  0
    1.8722    1.7495   -1.6405 H   0  0  0  0  0  0  0  0  0  0  0  0
   -6.6667    0.3096    0.7857 H   0  0  0  0  0  0  0  0  0  0  0  0
   -4.0224    3.3497   -0.7547 H   0  0  0  0  0  0  0  0  0  0  0  0
    4.2359    4.3839    1.8307 H   0  0  0  0  0  0  0  0  0  0  0  0
    1.6589    4.1490   -1.6201 H   0  0  0  0  0  0  0  0  0  0  0  0
  1 28  1  0  0  0  0
  2 31  1  0  0  0  0
  3 16  2  0  0  0  0
  4 17  2  0  0  0  0
  5 11  1  0  0  0  0
  5 13  1  0  0  0  0
  5 17  1  0  0  0  0
  6 12  1  0  0  0  0
  6 14  1  0  0  0  0
  6 16  1  0  0  0  0
  7 17  1  0  0  0  0
  7 21  1  0  0  0  0
  7 44  1  0  0  0  0
  8 10  1  0  0  0  0
  8 11  1  0  0  0  0
  8 12  1  0  0  0  0
  8 32  1  0  0  0  0
  9 10  1  0  0  0  0
  9 13  1  0  0  0  0
  9 14  1  0  0  0  0
  9 33  1  0  0  0  0
 10 34  1  0  0  0  0
 10 35  1  0  0  0  0
 11 36  1  0  0  0  0
 11 37  1  0  0  0  0
 12 38  1  0  0  0  0
 12 39  1  0  0  0  0
 13 40  1  0  0  0  0
 13 41  1  0  0  0  0
 14 15  2  0  0  0  0
 15 19  1  0  0  0  0
 15 42  1  0  0  0  0
 16 18  1  0  0  0  0
 18 19  2  0  0  0  0
 18 20  1  0  0  0  0
 19 43  1  0  0  0  0
 20 22  2  0  0  0  0
 20 23  1  0  0  0  0
 21 24  2  0  0  0  0
 21 25  1  0  0  0  0
 22 26  1  0  0  0  0
 22 45  1  0  0  0  0
 23 27  2  0  0  0  0
 23 46  1  0  0  0  0
 24 29  1  0  0  0  0
 24 47  1  0  0  0  0
 25 30  2  0  0  0  0
 25 48  1  0  0  0  0
 26 28  2  0  0  0  0
 26 49  1  0  0  0  0
 27 28  1  0  0  0  0
 27 50  1  0  0  0  0
 29 31  2  0  0  0  0
 29 51  1  0  0  0  0
 30 31  1  0  0  0  0
 30 52  1  0  0  0  0
M  END
> <PUBCHEM_COMPOUND_CID>
11885173

> <PUBCHEM_CONFORMER_RMSD>
0.8

> <PUBCHEM_CONFORMER_DIVERSEORDER>
1
15
13
14
16
8
20
10
11
5
21
12
19
6
17
22
4
7
9
2
18
3

> <PUBCHEM_MMFF94_PARTIAL_CHARGES>
40
1 -0.18
11 0.3
12 0.3
13 0.3
14 -0.03
15 -0.15
16 0.62
17 0.69
18 -0.01
19 -0.15
2 -0.18
20 0.03
21 0.12
22 -0.15
23 -0.15
24 -0.15
25 -0.15
26 -0.15
27 -0.15
28 0.18
29 -0.15
3 -0.57
30 -0.15
31 0.18
4 -0.57
42 0.15
43 0.15
44 0.37
45 0.15
46 0.15
47 0.15
48 0.15
49 0.15
5 -0.66
50 0.15
51 0.15
52 0.15
6 -0.47
7 -0.55
9 0.14

> <PUBCHEM_EFFECTIVE_ROTOR_COUNT>
5

> <PUBCHEM_PHARMACOPHORE_FEATURES>
8
1 3 acceptor
1 4 acceptor
1 7 donor
6 20 22 23 26 27 28 rings
6 21 24 25 29 30 31 rings
6 5 8 9 10 11 13 rings
6 6 14 15 16 18 19 rings
6 6 8 9 10 12 14 rings

> <PUBCHEM_HEAVY_ATOM_COUNT>
31

> <PUBCHEM_ATOM_DEF_STEREO_COUNT>
2

> <PUBCHEM_ATOM_UDEF_STEREO_COUNT>
0

> <PUBCHEM_BOND_DEF_STEREO_COUNT>
0

> <PUBCHEM_BOND_UDEF_STEREO_COUNT>
0

> <PUBCHEM_ISOTOPIC_ATOM_COUNT>
0

> <PUBCHEM_COMPONENT_COUNT>
1

> <PUBCHEM_CACTVS_TAUTO_COUNT>
2

> <PUBCHEM_CONFORMER_ID>
00B55A7500000001

> <PUBCHEM_MMFF94_ENERGY>
90.1645

> <PUBCHEM_FEATURE_SELFOVERLAP>
42.166

> <PUBCHEM_SHAPE_FINGERPRINT>
10439779 11 18409722946494144080
10673678 19 18272935995223060841
10675989 125 18342181054996355273
10937287 8 18267019642521428289
11059845 2 17908676756559615184
12107183 9 18120072117811373576
12633257 1 16009029535411936258
12925494 130 18193276296271603369
13583140 156 18189068503609968323
13761468 95 17331999477389723704
13944108 23 18191315883464560196
14251764 38 18051407672068947028
14468879 13 18191312769612451913
14955137 171 18192710042934307122
15082195 135 18268689655636275535
15400415 2 18266740379886879373
15475509 84 17468186743946509186
16067690 210 16394053485380994512
16988056 13 18268997496826775116
1768 85 18339095855955105185
17980427 23 18125407909664050746
18681886 176 18197494017757851995
20567600 299 18266737978545317652
21344244 78 17538830395890563531
21475661 188 18335424564627239735
21591340 35 18412271635590362448
21716022 299 14331740864110382071
21860390 5 18267024955433306334
22122407 14 18195257607602883513
3298306 158 18410578426512047993
376196 1 18128536149214580062
463206 1 17185590218052325356
469060 322 16537093364317673562
4760202 170 17904747888303056333
508180 173 18268731466805388862
508706 21 17764600106960918460
57527306 92 18056471760554850594
5776283 40 18265636423304686084
6201320 215 16900461036460390360
7288768 16 17898285254130175818
9849439 229 18192435388101541925

> <PUBCHEM_SHAPE_MULTIPOLES>
615.02
10.7
7.79
1.48
18.36
6.72
-0.07
13.6
-0.89
-9.15
-0.48
-0.7
-1.01
0.04

> <PUBCHEM_SHAPE_SELFOVERLAP>
1335.699

> <PUBCHEM_SHAPE_VOLUME>
333.8

> <PUBCHEM_COORDINATE_TYPE>
2
5
10

$$$$
