28962402
  -OEChem-12032416413D

 57 59  0     1  0  0  0  0  0999 V2000
   -0.4102    2.2156   -0.9035 O   0  0  0  0  0  0  0  0  0  0  0  0
    1.0791    1.6588    1.6343 O   0  0  0  0  0  0  0  0  0  0  0  0
   -1.0206    4.8343   -0.0822 O   0  0  0  0  0  0  0  0  0  0  0  0
    2.2251   -0.2380   -0.1854 N   0  0  0  0  0  0  0  0  0  0  0  0
   -2.0684   -0.1038   -0.9674 N   0  0  0  0  0  0  0  0  0  0  0  0
    1.6199    1.0000   -0.6444 C   0  0  1  0  0  0  0  0  0  0  0  0
    0.1644    0.9077   -1.1204 C   0  0  1  0  0  0  0  0  0  0  0  0
    1.5740    2.1199    0.3838 C   0  0  1  0  0  0  0  0  0  0  0  0
    0.5696    3.0611   -0.2705 C   0  0  2  0  0  0  0  0  0  0  0  0
    3.3944    0.0434    0.6580 C   0  0  0  0  0  0  0  0  0  0  0  0
    2.5874   -1.0877   -1.3277 C   0  0  0  0  0  0  0  0  0  0  0  0
   -0.7262   -0.1015   -0.4044 C   0  0  0  0  0  0  0  0  0  0  0  0
    4.3881   -2.2024    0.0539 C   0  0  0  0  0  0  0  0  0  0  0  0
    4.0124   -1.2498    1.1941 C   0  0  0  0  0  0  0  0  0  0  0  0
    3.1771   -2.4196   -0.8596 C   0  0  0  0  0  0  0  0  0  0  0  0
   -2.9151   -1.0897   -0.2985 C   0  0  0  0  0  0  0  0  0  0  0  0
   -0.1325    4.0235    0.6701 C   0  0  0  0  0  0  0  0  0  0  0  0
   -3.4131   -0.5276    1.0376 C   0  0  0  0  0  0  0  0  0  0  0  0
   -4.0874   -1.4727   -1.2084 C   0  0  0  0  0  0  0  0  0  0  0  0
   -4.3643   -1.5014    1.7311 C   0  0  0  0  0  0  0  0  0  0  0  0
   -5.0373   -2.4457   -0.5121 C   0  0  0  0  0  0  0  0  0  0  0  0
    4.9105   -3.5293    0.5974 C   0  0  0  0  0  0  0  0  0  0  0  0
   -5.5269   -1.8949    0.8242 C   0  0  0  0  0  0  0  0  0  0  0  0
    2.2091    1.4034   -1.4841 H   0  0  0  0  0  0  0  0  0  0  0  0
    0.1458    0.7076   -2.1993 H   0  0  0  0  0  0  0  0  0  0  0  0
    2.5386    2.6135    0.5446 H   0  0  0  0  0  0  0  0  0  0  0  0
    1.0488    3.6211   -1.0839 H   0  0  0  0  0  0  0  0  0  0  0  0
    4.1540    0.6048    0.0972 H   0  0  0  0  0  0  0  0  0  0  0  0
    3.1529    0.6247    1.5507 H   0  0  0  0  0  0  0  0  0  0  0  0
    1.7033   -1.3077   -1.9375 H   0  0  0  0  0  0  0  0  0  0  0  0
    3.3114   -0.5816   -1.9803 H   0  0  0  0  0  0  0  0  0  0  0  0
   -0.7696    0.1556    0.6577 H   0  0  0  0  0  0  0  0  0  0  0  0
   -0.2927   -1.1039   -0.4931 H   0  0  0  0  0  0  0  0  0  0  0  0
    5.1893   -1.7382   -0.5365 H   0  0  0  0  0  0  0  0  0  0  0  0
    4.9036   -1.0093    1.7863 H   0  0  0  0  0  0  0  0  0  0  0  0
    3.3016   -1.7389    1.8735 H   0  0  0  0  0  0  0  0  0  0  0  0
    2.4045   -2.9925   -0.3298 H   0  0  0  0  0  0  0  0  0  0  0  0
    3.4701   -3.0143   -1.7330 H   0  0  0  0  0  0  0  0  0  0  0  0
   -2.3448   -2.0103   -0.1111 H   0  0  0  0  0  0  0  0  0  0  0  0
   -2.0059   -0.3226   -1.9618 H   0  0  0  0  0  0  0  0  0  0  0  0
    0.5878    4.6682    1.1826 H   0  0  0  0  0  0  0  0  0  0  0  0
   -0.7369    3.4888    1.4097 H   0  0  0  0  0  0  0  0  0  0  0  0
   -3.9332    0.4259    0.8753 H   0  0  0  0  0  0  0  0  0  0  0  0
   -2.5818   -0.3223    1.7206 H   0  0  0  0  0  0  0  0  0  0  0  0
   -3.7172   -1.9330   -2.1328 H   0  0  0  0  0  0  0  0  0  0  0  0
   -4.6473   -0.5748   -1.5021 H   0  0  0  0  0  0  0  0  0  0  0  0
   -4.7521   -1.0465    2.6496 H   0  0  0  0  0  0  0  0  0  0  0  0
   -3.8123   -2.4015    2.0285 H   0  0  0  0  0  0  0  0  0  0  0  0
   -4.5248   -3.4016   -0.3475 H   0  0  0  0  0  0  0  0  0  0  0  0
   -5.8953   -2.6515   -1.1622 H   0  0  0  0  0  0  0  0  0  0  0  0
    4.1513   -4.0416    1.1981 H   0  0  0  0  0  0  0  0  0  0  0  0
    5.7908   -3.3700    1.2290 H   0  0  0  0  0  0  0  0  0  0  0  0
    5.2009   -4.1962   -0.2212 H   0  0  0  0  0  0  0  0  0  0  0  0
    1.1721    2.3855    2.2735 H   0  0  0  0  0  0  0  0  0  0  0  0
   -6.1490   -2.6443    1.3263 H   0  0  0  0  0  0  0  0  0  0  0  0
   -6.1626   -1.0188    0.6461 H   0  0  0  0  0  0  0  0  0  0  0  0
   -1.4526    5.4416    0.5423 H   0  0  0  0  0  0  0  0  0  0  0  0
  1  7  1  0  0  0  0
  1  9  1  0  0  0  0
  2  8  1  0  0  0  0
  2 54  1  0  0  0  0
  3 17  1  0  0  0  0
  3 57  1  0  0  0  0
  4  6  1  0  0  0  0
  4 10  1  0  0  0  0
  4 11  1  0  0  0  0
  5 12  1  0  0  0  0
  5 16  1  0  0  0  0
  5 40  1  0  0  0  0
  6  7  1  0  0  0  0
  6  8  1  0  0  0  0
  6 24  1  0  0  0  0
  7 12  1  0  0  0  0
  7 25  1  0  0  0  0
  8  9  1  0  0  0  0
  8 26  1  0  0  0  0
  9 17  1  0  0  0  0
  9 27  1  0  0  0  0
 10 14  1  0  0  0  0
 10 28  1  0  0  0  0
 10 29  1  0  0  0  0
 11 15  1  0  0  0  0
 11 30  1  0  0  0  0
 11 31  1  0  0  0  0
 12 32  1  0  0  0  0
 12 33  1  0  0  0  0
 13 14  1  0  0  0  0
 13 15  1  0  0  0  0
 13 22  1  0  0  0  0
 13 34  1  0  0  0  0
 14 35  1  0  0  0  0
 14 36  1  0  0  0  0
 15 37  1  0  0  0  0
 15 38  1  0  0  0  0
 16 18  1  0  0  0  0
 16 19  1  0  0  0  0
 16 39  1  0  0  0  0
 17 41  1  0  0  0  0
 17 42  1  0  0  0  0
 18 20  1  0  0  0  0
 18 43  1  0  0  0  0
 18 44  1  0  0  0  0
 19 21  1  0  0  0  0
 19 45  1  0  0  0  0
 19 46  1  0  0  0  0
 20 23  1  0  0  0  0
 20 47  1  0  0  0  0
 20 48  1  0  0  0  0
 21 23  1  0  0  0  0
 21 49  1  0  0  0  0
 21 50  1  0  0  0  0
 22 51  1  0  0  0  0
 22 52  1  0  0  0  0
 22 53  1  0  0  0  0
 23 55  1  0  0  0  0
 23 56  1  0  0  0  0
M  END
> <PUBCHEM_COMPOUND_CID>
28962402

> <PUBCHEM_CONFORMER_RMSD>
0.8

> <PUBCHEM_CONFORMER_DIVERSEORDER>
1
12
73
84
45
75
56
44
81
83
55
47
33
85
35
57
32
17
76
9
22
42
74
20
66
37
26
58
24
79
7
31
54
80
16
13
18
28
8
46
19
6
62
23
61
10
52
38
78
65
72
49
4
69
29
34
50
68
39
60
15
63
82
41
27
36
25
59
71
11
40
53
3
2
67
30
64
21
51
14
43
77
5
48
70

> <PUBCHEM_MMFF94_PARTIAL_CHARGES>
17
1 -0.56
10 0.27
11 0.27
12 0.27
16 0.27
17 0.28
2 -0.68
3 -0.68
4 -0.81
40 0.36
5 -0.9
54 0.4
57 0.4
6 0.27
7 0.28
8 0.28
9 0.28

> <PUBCHEM_EFFECTIVE_ROTOR_COUNT>
8.4

> <PUBCHEM_PHARMACOPHORE_FEATURES>
11
1 1 acceptor
1 2 acceptor
1 2 donor
1 3 acceptor
1 3 donor
1 4 cation
1 5 cation
1 5 donor
5 1 6 7 8 9 rings
6 16 18 19 20 21 23 rings
6 4 10 11 13 14 15 rings

> <PUBCHEM_HEAVY_ATOM_COUNT>
23

> <PUBCHEM_ATOM_DEF_STEREO_COUNT>
4

> <PUBCHEM_ATOM_UDEF_STEREO_COUNT>
0

> <PUBCHEM_BOND_DEF_STEREO_COUNT>
0

> <PUBCHEM_BOND_UDEF_STEREO_COUNT>
0

> <PUBCHEM_ISOTOPIC_ATOM_COUNT>
0

> <PUBCHEM_COMPONENT_COUNT>
1

> <PUBCHEM_CACTVS_TAUTO_COUNT>
1

> <PUBCHEM_CONFORMER_ID>
01B9EE6200000001

> <PUBCHEM_MMFF94_ENERGY>
33.3583

> <PUBCHEM_FEATURE_SELFOVERLAP>
55.825

> <PUBCHEM_SHAPE_FINGERPRINT>
114674 6 18115020943221769899
11796584 16 17385712595679704267
11991303 11 17682968691138105749
12107183 9 18341908355380524563
12363563 72 18335143076623670158
12553582 1 18341619225975955670
12633257 1 16702012084920642306
12788726 201 18264502710599058774
12824470 246 17823410505554957618
13052359 8 17905328424938778397
13103583 49 18130518439482593843
13134695 92 18338233872765871093
13140716 1 18339924814096242981
13533116 47 18192437587863301659
13544653 18 18335699425481181614
13631057 29 18261954021551046906
13911852 28 18410569561494164919
13955234 65 18051134993032122113
14790565 3 17834110132468196476
14844126 61 18123175814954266378
14863182 85 18120371210300761708
14866123 147 17977662009617361411
15042514 8 18194404385772399261
15885798 251 18411142406988257067
16120349 189 11527648774944833610
17868525 174 18341617057692853497
1813 80 18342468040246456863
20645477 70 18189606319108454423
20832881 197 18333734611388025507
21344244 78 18131070497847014481
21452121 199 18335697256591379308
21521721 280 17975988871064620628
2255824 54 17981895442732464293
23559900 14 17313660581410754119
23845131 108 16898485213863504329
238918 7 17479201682099980793
2838139 119 9765956805926786254
314194 84 18336266846163566902
3380486 145 18055319605275051156
341906 21 15482408524842254587
3421961 26 18338795718659508798
345986 75 18130794451118193547
463206 1 18260830405812932379
474 4 17622166089380840965
484985 159 17973721368169635651
5309563 4 18410572851286295255
59755656 520 17544468653179227140
7097593 13 18127976506291044255
77188 2 18410571799177277620
7808743 9 10014991280966368158
7970288 3 18335983086386217218
9841814 1 18341060716870726327

> <PUBCHEM_SHAPE_MULTIPOLES>
445.76
10.49
4.99
1.38
7.38
5.7
-0.2
-15.2
-2.47
-1.9
-0.51
0.48
-0.3
0.04

> <PUBCHEM_SHAPE_SELFOVERLAP>
903.514

> <PUBCHEM_SHAPE_VOLUME>
259

> <PUBCHEM_COORDINATE_TYPE>
2
5
10

$$$$
