45783852
  -OEChem-12032416353D

 61 63  0     1  0  0  0  0  0999 V2000
    3.4865   -0.6117   -1.1159 O   0  0  0  0  0  0  0  0  0  0  0  0
    0.2414   -3.4463   -2.2794 O   0  0  0  0  0  0  0  0  0  0  0  0
   -0.1440   -1.1689   -2.2367 O   0  0  0  0  0  0  0  0  0  0  0  0
    5.2372   -0.1430    1.4232 O   0  0  0  0  0  0  0  0  0  0  0  0
    4.9472    2.0150    2.0646 O   0  0  0  0  0  0  0  0  0  0  0  0
   -5.5284    2.4772   -1.5943 O   0  0  0  0  0  0  0  0  0  0  0  0
    1.3831   -0.7946   -0.1247 N   0  0  0  0  0  0  0  0  0  0  0  0
   -1.6028   -0.8720    2.1400 N   0  0  0  0  0  0  0  0  0  0  0  0
   -1.3027   -3.0851    2.1223 N   0  0  0  0  0  0  0  0  0  0  0  0
    1.2302   -2.2116   -0.5519 C   0  0  1  0  0  0  0  0  0  0  0  0
    3.7821    2.0941   -0.8513 C   0  0  0  0  0  0  0  0  0  0  0  0
    0.2399   -0.1200    0.5530 C   0  0  0  0  0  0  0  0  0  0  0  0
    0.6659   -3.1523    0.5337 C   0  0  0  0  0  0  0  0  0  0  0  0
    2.5322    1.3929   -0.2833 C   0  0  0  0  0  0  0  0  0  0  0  0
   -0.5484   -1.1097    1.3093 C   0  0  0  0  0  0  0  0  0  0  0  0
   -0.3878   -2.4723    1.3131 C   0  0  0  0  0  0  0  0  0  0  0  0
    2.5201   -0.0921   -0.5521 C   0  0  0  0  0  0  0  0  0  0  0  0
    5.1054    1.5134   -0.2976 C   0  0  0  0  0  0  0  0  0  0  0  0
    3.8085    1.9643   -2.3897 C   0  0  0  0  0  0  0  0  0  0  0  0
    3.6725    3.5944   -0.5115 C   0  0  0  0  0  0  0  0  0  0  0  0
    0.3630   -2.1840   -1.7786 C   0  0  0  0  0  0  0  0  0  0  0  0
   -2.1811    0.4074    2.4724 C   0  0  0  0  0  0  0  0  0  0  0  0
   -2.0228   -2.0927    2.6053 C   0  0  0  0  0  0  0  0  0  0  0  0
    5.0829    1.1817    1.1779 C   0  0  0  0  0  0  0  0  0  0  0  0
   -3.0734    0.9596    1.3886 C   0  0  0  0  0  0  0  0  0  0  0  0
   -2.8088    2.2138    0.8383 C   0  0  0  0  0  0  0  0  0  0  0  0
   -4.1631    0.2155    0.9364 C   0  0  0  0  0  0  0  0  0  0  0  0
   -0.5637   -3.5659   -3.4565 C   0  0  0  0  0  0  0  0  0  0  0  0
   -3.6340    2.7240   -0.1638 C   0  0  0  0  0  0  0  0  0  0  0  0
   -4.9884    0.7256   -0.0658 C   0  0  0  0  0  0  0  0  0  0  0  0
   -4.7239    1.9798   -0.6158 C   0  0  0  0  0  0  0  0  0  0  0  0
   -6.6249    1.6636   -2.0091 C   0  0  0  0  0  0  0  0  0  0  0  0
    2.2062   -2.5936   -0.8748 H   0  0  0  0  0  0  0  0  0  0  0  0
    0.6171    0.6486    1.2315 H   0  0  0  0  0  0  0  0  0  0  0  0
   -0.3655    0.3690   -0.2162 H   0  0  0  0  0  0  0  0  0  0  0  0
    0.2865   -4.0900    0.1150 H   0  0  0  0  0  0  0  0  0  0  0  0
    1.4765   -3.4124    1.2261 H   0  0  0  0  0  0  0  0  0  0  0  0
    2.4775    1.5552    0.7985 H   0  0  0  0  0  0  0  0  0  0  0  0
    1.6309    1.8301   -0.7312 H   0  0  0  0  0  0  0  0  0  0  0  0
    5.9269    2.2270   -0.4473 H   0  0  0  0  0  0  0  0  0  0  0  0
    5.4298    0.6226   -0.8474 H   0  0  0  0  0  0  0  0  0  0  0  0
    2.8633    2.3048   -2.8282 H   0  0  0  0  0  0  0  0  0  0  0  0
    4.6048    2.5892   -2.8125 H   0  0  0  0  0  0  0  0  0  0  0  0
    3.9918    0.9490   -2.7488 H   0  0  0  0  0  0  0  0  0  0  0  0
    4.5362    4.1524   -0.8905 H   0  0  0  0  0  0  0  0  0  0  0  0
    2.7735    4.0362   -0.9567 H   0  0  0  0  0  0  0  0  0  0  0  0
    3.6187    3.7601    0.5695 H   0  0  0  0  0  0  0  0  0  0  0  0
   -2.7600    0.2955    3.3972 H   0  0  0  0  0  0  0  0  0  0  0  0
   -1.3537    1.0900    2.6994 H   0  0  0  0  0  0  0  0  0  0  0  0
   -2.8539   -2.1964    3.2898 H   0  0  0  0  0  0  0  0  0  0  0  0
   -1.9625    2.8037    1.1799 H   0  0  0  0  0  0  0  0  0  0  0  0
   -4.3911   -0.7586    1.3600 H   0  0  0  0  0  0  0  0  0  0  0  0
   -1.5884   -3.2437   -3.2482 H   0  0  0  0  0  0  0  0  0  0  0  0
   -0.1315   -2.9785   -4.2721 H   0  0  0  0  0  0  0  0  0  0  0  0
   -0.5799   -4.6183   -3.7518 H   0  0  0  0  0  0  0  0  0  0  0  0
    5.2215   -0.3418    2.3836 H   0  0  0  0  0  0  0  0  0  0  0  0
   -3.4225    3.7012   -0.5891 H   0  0  0  0  0  0  0  0  0  0  0  0
   -5.8182    0.0961   -0.3684 H   0  0  0  0  0  0  0  0  0  0  0  0
   -7.3368    1.5011   -1.1928 H   0  0  0  0  0  0  0  0  0  0  0  0
   -7.1570    2.2134   -2.7924 H   0  0  0  0  0  0  0  0  0  0  0  0
   -6.2824    0.7235   -2.4548 H   0  0  0  0  0  0  0  0  0  0  0  0
  1 17  2  0  0  0  0
  2 21  1  0  0  0  0
  2 28  1  0  0  0  0
  3 21  2  0  0  0  0
  4 24  1  0  0  0  0
  4 56  1  0  0  0  0
  5 24  2  0  0  0  0
  6 31  1  0  0  0  0
  6 32  1  0  0  0  0
  7 10  1  0  0  0  0
  7 12  1  0  0  0  0
  7 17  1  0  0  0  0
  8 15  1  0  0  0  0
  8 22  1  0  0  0  0
  8 23  1  0  0  0  0
  9 16  1  0  0  0  0
  9 23  2  0  0  0  0
 10 13  1  0  0  0  0
 10 21  1  0  0  0  0
 10 33  1  0  0  0  0
 11 14  1  0  0  0  0
 11 18  1  0  0  0  0
 11 19  1  0  0  0  0
 11 20  1  0  0  0  0
 12 15  1  0  0  0  0
 12 34  1  0  0  0  0
 12 35  1  0  0  0  0
 13 16  1  0  0  0  0
 13 36  1  0  0  0  0
 13 37  1  0  0  0  0
 14 17  1  0  0  0  0
 14 38  1  0  0  0  0
 14 39  1  0  0  0  0
 15 16  2  0  0  0  0
 18 24  1  0  0  0  0
 18 40  1  0  0  0  0
 18 41  1  0  0  0  0
 19 42  1  0  0  0  0
 19 43  1  0  0  0  0
 19 44  1  0  0  0  0
 20 45  1  0  0  0  0
 20 46  1  0  0  0  0
 20 47  1  0  0  0  0
 22 25  1  0  0  0  0
 22 48  1  0  0  0  0
 22 49  1  0  0  0  0
 23 50  1  0  0  0  0
 25 26  2  0  0  0  0
 25 27  1  0  0  0  0
 26 29  1  0  0  0  0
 26 51  1  0  0  0  0
 27 30  2  0  0  0  0
 27 52  1  0  0  0  0
 28 53  1  0  0  0  0
 28 54  1  0  0  0  0
 28 55  1  0  0  0  0
 29 31  2  0  0  0  0
 29 57  1  0  0  0  0
 30 31  1  0  0  0  0
 30 58  1  0  0  0  0
 32 59  1  0  0  0  0
 32 60  1  0  0  0  0
 32 61  1  0  0  0  0
M  END
> <PUBCHEM_COMPOUND_CID>
45783852

> <PUBCHEM_CONFORMER_RMSD>
1

> <PUBCHEM_CONFORMER_DIVERSEORDER>
1
214
84
71
190
178
110
209
94
104
23
216
207
97
107
98
103
161
54
78
34
105
189
168
141
18
138
79
85
169
112
146
55
212
151
87
24
125
172
167
181
77
116
32
195
187
136
119
6
208
121
182
93
149
175
191
35
128
81
156
74
199
150
142
67
203
137
95
50
165
111
76
25
164
40
86
118
51
33
66
179
62
198
60
140
44
52
160
99
192
144
171
158
153
108
37
88
183
123
210
170
11
185
38
200
206
101
89
91
59
135
47
72
196
69
186
102
73
117
10
120
201
115
9
20
148
132
205
42
176
129
12
106
166
122
43
143
177
130
45
152
27
162
53
80
22
215
82
133
202
90
16
30
46
180
57
70
211
21
184
174
41
139
65
83
155
17
159
68
92
15
48
5
145
64
163
154
96
31
147
131
197
13
134
109
39
127
194
213
113
75
124
100
56
29
204
58
28
4
19
114
157
14
26
63
173
188
49
61
7
36
193
3
8
126
2

> <PUBCHEM_MMFF94_PARTIAL_CHARGES>
35
1 -0.57
10 0.36
12 0.48
13 0.18
14 0.06
15 -0.33
16 0.05
17 0.57
18 0.06
2 -0.43
21 0.66
22 0.4
23 0.04
24 0.66
25 -0.14
26 -0.15
27 -0.15
28 0.28
29 -0.15
3 -0.57
30 -0.15
31 0.08
32 0.28
4 -0.65
5 -0.57
50 0.15
51 0.15
52 0.15
56 0.5
57 0.15
58 0.15
6 -0.36
7 -0.66
8 0.05
9 -0.57

> <PUBCHEM_EFFECTIVE_ROTOR_COUNT>
10.8

> <PUBCHEM_PHARMACOPHORE_FEATURES>
11
1 1 acceptor
1 3 acceptor
1 4 acceptor
1 5 acceptor
1 6 acceptor
3 11 19 20 hydrophobe
3 4 5 24 anion
3 8 9 23 cation
5 8 9 15 16 23 rings
6 25 26 27 29 30 31 rings
6 7 10 12 13 15 16 rings

> <PUBCHEM_HEAVY_ATOM_COUNT>
32

> <PUBCHEM_ATOM_DEF_STEREO_COUNT>
1

> <PUBCHEM_ATOM_UDEF_STEREO_COUNT>
0

> <PUBCHEM_BOND_DEF_STEREO_COUNT>
0

> <PUBCHEM_BOND_UDEF_STEREO_COUNT>
0

> <PUBCHEM_ISOTOPIC_ATOM_COUNT>
0

> <PUBCHEM_COMPONENT_COUNT>
1

> <PUBCHEM_CACTVS_TAUTO_COUNT>
1

> <PUBCHEM_CONFORMER_ID>
02BA9B2C00000001

> <PUBCHEM_MMFF94_ENERGY>
90.2895

> <PUBCHEM_FEATURE_SELFOVERLAP>
55.984

> <PUBCHEM_SHAPE_FINGERPRINT>
10764073 3 17096355147311161058
11045515 52 16908057514618310142
11582403 64 18341324522442152154
11763715 3 16523040381026570466
12107183 9 17676477329528350296
12156800 1 17340925174948852243
12160290 23 17699025186072265010
12422481 6 15430306989000725899
12633257 1 17313104168059810372
12969540 114 17631751446677438274
131258 38 10738446833613659485
13150687 139 18272930497010768694
13947920 24 17917706959405342039
14251764 30 11167936983133851305
20642791 268 13624680318275660454
21033648 144 18267043754584073976
21033648 29 17458357307609796329
21304303 282 18055046986568922742
21860390 5 18121789317806174654
23559900 14 18265918920493889154
238 59 18268720424164811611
238918 7 17823124636452488428
3117164 225 17967532381121520002
376196 1 18410016507113004889
44802255 64 18050598380229474302
469060 322 17914907671409822175
59444896 2 17978750671947368426
5951187 136 17687175393189037501
6677587 24 17836046058853764501
9862522 239 18127708216816641506
9981440 41 17894916222228444353

> <PUBCHEM_SHAPE_MULTIPOLES>
608.39
11.75
4.54
2.96
2.78
1.88
-1.05
-14.64
-1.68
0.06
-1.91
1
2.24
1.66

> <PUBCHEM_SHAPE_SELFOVERLAP>
1289.977

> <PUBCHEM_SHAPE_VOLUME>
338.4

> <PUBCHEM_COORDINATE_TYPE>
2
5
10

$$$$
