45783285
  -OEChem-12032416263D

 57 61  0     1  0  0  0  0  0999 V2000
   -2.7428   -1.0221    2.2046 O   0  0  0  0  0  0  0  0  0  0  0  0
    5.3859   -0.9298   -2.6432 O   0  0  0  0  0  0  0  0  0  0  0  0
    1.7456    3.4300   -0.4854 O   0  0  0  0  0  0  0  0  0  0  0  0
    0.5927    4.5777    1.1023 O   0  0  0  0  0  0  0  0  0  0  0  0
   -3.6400   -0.8469   -1.3548 N   0  0  1  0  0  0  0  0  0  0  0  0
   -1.3086   -1.1318    0.4877 N   0  0  0  0  0  0  0  0  0  0  0  0
    3.6742   -0.9406   -0.4140 N   0  0  0  0  0  0  0  0  0  0  0  0
   -1.4630   -0.8837    2.7568 N   0  0  0  0  0  0  0  0  0  0  0  0
    3.5410   -0.6805    1.9344 N   0  0  0  0  0  0  0  0  0  0  0  0
   -3.8128   -1.3316    0.0292 C   0  0  1  0  0  0  0  0  0  0  0  0
   -4.2332   -2.8052   -0.1221 C   0  0  0  0  0  0  0  0  0  0  0  0
   -4.3291   -3.0394   -1.6230 C   0  0  0  0  0  0  0  0  0  0  0  0
   -4.5357   -1.6487   -2.1885 C   0  0  0  0  0  0  0  0  0  0  0  0
   -3.8895    0.5816   -1.4985 C   0  0  0  0  0  0  0  0  0  0  0  0
   -2.5616   -1.1635    0.8655 C   0  0  0  0  0  0  0  0  0  0  0  0
   -2.7106    1.4046   -1.0516 C   0  0  0  0  0  0  0  0  0  0  0  0
   -0.6721   -0.9585    1.6822 C   0  0  0  0  0  0  0  0  0  0  0  0
   -2.8618    2.3409   -0.0287 C   0  0  0  0  0  0  0  0  0  0  0  0
   -1.4675    1.2309   -1.6601 C   0  0  0  0  0  0  0  0  0  0  0  0
    3.4812    0.0359   -1.4917 C   0  0  0  0  0  0  0  0  0  0  0  0
    5.0285   -1.5016   -0.3134 C   0  0  0  0  0  0  0  0  0  0  0  0
    0.7568   -0.8654    1.7678 C   0  0  0  0  0  0  0  0  0  0  0  0
    2.9076   -0.8524    0.7525 C   0  0  0  0  0  0  0  0  0  0  0  0
    4.0260   -0.5263   -2.8001 C   0  0  0  0  0  0  0  0  0  0  0  0
    5.4899   -1.9823   -1.6845 C   0  0  0  0  0  0  0  0  0  0  0  0
    1.5321   -0.9497    0.6166 C   0  0  0  0  0  0  0  0  0  0  0  0
   -1.7698    3.1034    0.3856 C   0  0  0  0  0  0  0  0  0  0  0  0
   -0.3756    1.9936   -1.2458 C   0  0  0  0  0  0  0  0  0  0  0  0
   -0.5266    2.9296   -0.2228 C   0  0  0  0  0  0  0  0  0  0  0  0
    1.3720   -0.6889    3.0022 C   0  0  0  0  0  0  0  0  0  0  0  0
    2.7546   -0.6031    3.0314 C   0  0  0  0  0  0  0  0  0  0  0  0
    0.6123    3.7240    0.2094 C   0  0  0  0  0  0  0  0  0  0  0  0
   -4.6365   -0.8010    0.5274 H   0  0  0  0  0  0  0  0  0  0  0  0
   -3.5363   -3.5138    0.3385 H   0  0  0  0  0  0  0  0  0  0  0  0
   -5.2182   -2.9563    0.3361 H   0  0  0  0  0  0  0  0  0  0  0  0
   -5.1417   -3.7237   -1.8839 H   0  0  0  0  0  0  0  0  0  0  0  0
   -3.3898   -3.4678   -1.9941 H   0  0  0  0  0  0  0  0  0  0  0  0
   -5.5831   -1.3425   -2.0723 H   0  0  0  0  0  0  0  0  0  0  0  0
   -4.2658   -1.6014   -3.2480 H   0  0  0  0  0  0  0  0  0  0  0  0
   -4.8116    0.8869   -0.9866 H   0  0  0  0  0  0  0  0  0  0  0  0
   -4.0465    0.8279   -2.5582 H   0  0  0  0  0  0  0  0  0  0  0  0
   -3.8238    2.4851    0.4557 H   0  0  0  0  0  0  0  0  0  0  0  0
   -1.3357    0.5095   -2.4623 H   0  0  0  0  0  0  0  0  0  0  0  0
    2.4271    0.2922   -1.6328 H   0  0  0  0  0  0  0  0  0  0  0  0
    4.0182    0.9557   -1.2290 H   0  0  0  0  0  0  0  0  0  0  0  0
    5.7086   -0.7243    0.0563 H   0  0  0  0  0  0  0  0  0  0  0  0
    5.0557   -2.3463    0.3852 H   0  0  0  0  0  0  0  0  0  0  0  0
    3.9909    0.2418   -3.5792 H   0  0  0  0  0  0  0  0  0  0  0  0
    3.4301   -1.3790   -3.1472 H   0  0  0  0  0  0  0  0  0  0  0  0
    4.9025   -2.8439   -2.0244 H   0  0  0  0  0  0  0  0  0  0  0  0
    6.5383   -2.2933   -1.6379 H   0  0  0  0  0  0  0  0  0  0  0  0
    1.0798   -1.1039   -0.3588 H   0  0  0  0  0  0  0  0  0  0  0  0
   -1.9078    3.8266    1.1850 H   0  0  0  0  0  0  0  0  0  0  0  0
    0.5715    1.8314   -1.7509 H   0  0  0  0  0  0  0  0  0  0  0  0
    0.8193   -0.6157    3.9331 H   0  0  0  0  0  0  0  0  0  0  0  0
    3.2833   -0.4652    3.9688 H   0  0  0  0  0  0  0  0  0  0  0  0
    2.5082    3.9694   -0.1854 H   0  0  0  0  0  0  0  0  0  0  0  0
  1  8  1  0  0  0  0
  1 15  1  0  0  0  0
  2 24  1  0  0  0  0
  2 25  1  0  0  0  0
  3 32  1  0  0  0  0
  3 57  1  0  0  0  0
  4 32  2  0  0  0  0
  5 10  1  0  0  0  0
  5 13  1  0  0  0  0
  5 14  1  0  0  0  0
  6 15  2  0  0  0  0
  6 17  1  0  0  0  0
  7 20  1  0  0  0  0
  7 21  1  0  0  0  0
  7 23  1  0  0  0  0
  8 17  2  0  0  0  0
  9 23  2  0  0  0  0
  9 31  1  0  0  0  0
 10 11  1  0  0  0  0
 10 15  1  0  0  0  0
 10 33  1  0  0  0  0
 11 12  1  0  0  0  0
 11 34  1  0  0  0  0
 11 35  1  0  0  0  0
 12 13  1  0  0  0  0
 12 36  1  0  0  0  0
 12 37  1  0  0  0  0
 13 38  1  0  0  0  0
 13 39  1  0  0  0  0
 14 16  1  0  0  0  0
 14 40  1  0  0  0  0
 14 41  1  0  0  0  0
 16 18  2  0  0  0  0
 16 19  1  0  0  0  0
 17 22  1  0  0  0  0
 18 27  1  0  0  0  0
 18 42  1  0  0  0  0
 19 28  2  0  0  0  0
 19 43  1  0  0  0  0
 20 24  1  0  0  0  0
 20 44  1  0  0  0  0
 20 45  1  0  0  0  0
 21 25  1  0  0  0  0
 21 46  1  0  0  0  0
 21 47  1  0  0  0  0
 22 26  2  0  0  0  0
 22 30  1  0  0  0  0
 23 26  1  0  0  0  0
 24 48  1  0  0  0  0
 24 49  1  0  0  0  0
 25 50  1  0  0  0  0
 25 51  1  0  0  0  0
 26 52  1  0  0  0  0
 27 29  2  0  0  0  0
 27 53  1  0  0  0  0
 28 29  1  0  0  0  0
 28 54  1  0  0  0  0
 29 32  1  0  0  0  0
 30 31  2  0  0  0  0
 30 55  1  0  0  0  0
 31 56  1  0  0  0  0
M  END
> <PUBCHEM_COMPOUND_CID>
45783285

> <PUBCHEM_CONFORMER_RMSD>
1

> <PUBCHEM_CONFORMER_DIVERSEORDER>
1
47
18
37
50
39
25
53
10
56
21
30
23
46
42
17
14
19
41
24
33
35
20
22
44
26
15
54
55
36
31
12
27
34
40
52
4
32
3
5
13
45
16
48
2
7
38
43
51
29
8
11
49
9
28
6

> <PUBCHEM_MMFF94_PARTIAL_CHARGES>
38
1 -0.02
10 0.45
13 0.27
14 0.41
15 0.3
16 -0.14
17 0.46
18 -0.15
19 -0.15
2 -0.56
20 0.37
21 0.37
22 0.05
23 0.41
24 0.28
25 0.28
26 -0.15
27 -0.15
28 -0.15
29 0.09
3 -0.65
30 -0.15
31 0.16
32 0.63
4 -0.57
42 0.15
43 0.15
5 -0.81
52 0.15
53 0.15
54 0.15
55 0.15
56 0.15
57 0.5
6 -0.57
7 -0.84
8 -0.41
9 -0.62

> <PUBCHEM_EFFECTIVE_ROTOR_COUNT>
8.2

> <PUBCHEM_PHARMACOPHORE_FEATURES>
12
1 2 acceptor
1 3 acceptor
1 4 acceptor
1 5 cation
3 3 4 32 anion
3 6 8 17 cation
3 7 9 23 cation
5 1 6 8 15 17 rings
5 5 10 11 12 13 rings
6 16 18 19 27 28 29 rings
6 2 7 20 21 24 25 rings
6 9 22 23 26 30 31 rings

> <PUBCHEM_HEAVY_ATOM_COUNT>
32

> <PUBCHEM_ATOM_DEF_STEREO_COUNT>
1

> <PUBCHEM_ATOM_UDEF_STEREO_COUNT>
0

> <PUBCHEM_BOND_DEF_STEREO_COUNT>
0

> <PUBCHEM_BOND_UDEF_STEREO_COUNT>
0

> <PUBCHEM_ISOTOPIC_ATOM_COUNT>
0

> <PUBCHEM_COMPONENT_COUNT>
1

> <PUBCHEM_CACTVS_TAUTO_COUNT>
1

> <PUBCHEM_CONFORMER_ID>
02BA98F500000001

> <PUBCHEM_MMFF94_ENERGY>
84.3753

> <PUBCHEM_FEATURE_SELFOVERLAP>
60.956

> <PUBCHEM_SHAPE_FINGERPRINT>
1100329 8 18118655813611644293
11607047 141 17912103917307925011
11607047 403 16834068684673883353
12596599 1 18270384028176154961
12788726 201 18117274753180317413
13383661 66 16466447538202939254
13761468 95 17537727586117430340
14114206 34 17968100789329949980
14910302 57 17988067920458908031
17492 54 17531804645901783917
17909252 39 18124599940003954757
19319366 153 17389087963939385329
20775438 99 17617924173088969111
21792965 270 15242588111793452753
469060 322 18059310793792463558
50150288 127 16605837764580503020
6786 2 17050232679025336489
70251023 43 18339087119674951247

> <PUBCHEM_SHAPE_MULTIPOLES>
610.16
10.08
4.19
3.08
6.38
5.27
0.86
-9.08
-7.49
-2.5
-0.23
2.47
-1.52
0.08

> <PUBCHEM_SHAPE_SELFOVERLAP>
1329.397

> <PUBCHEM_SHAPE_VOLUME>
331.8

> <PUBCHEM_COORDINATE_TYPE>
2
5
10

$$$$
