25389612
  -OEChem-12032416163D

 67 71  0     1  0  0  0  0  0999 V2000
   -2.0040   -2.0810   -0.1751 O   0  0  0  0  0  0  0  0  0  0  0  0
   -2.9957   -1.1572    1.6668 O   0  0  0  0  0  0  0  0  0  0  0  0
    5.4865    2.6968   -0.8654 O   0  0  0  0  0  0  0  0  0  0  0  0
   -8.3673    2.3057    0.3599 O   0  0  0  0  0  0  0  0  0  0  0  0
    0.9970   -4.1553    0.5498 N   0  0  2  0  0  0  0  0  0  0  0  0
    4.3784   -0.8228    0.8789 N   0  0  0  0  0  0  0  0  0  0  0  0
    4.5619    0.5025    1.0057 N   0  0  0  0  0  0  0  0  0  0  0  0
   -3.8687   -0.8581   -0.4846 N   0  0  0  0  0  0  0  0  0  0  0  0
    2.1197   -2.9136   -1.4454 C   0  0  2  0  0  0  0  0  0  0  0  0
    2.8675   -2.6005   -0.1199 C   0  0  2  0  0  0  0  0  0  0  0  0
   -0.0314   -3.4274   -0.2394 C   0  0  2  0  0  0  0  0  0  0  0  0
    0.6343   -2.5219   -1.2979 C   0  0  0  0  0  0  0  0  0  0  0  0
    2.1684   -4.4452   -1.6329 C   0  0  0  0  0  0  0  0  0  0  0  0
    2.0272   -3.2061    1.0405 C   0  0  0  0  0  0  0  0  0  0  0  0
    1.6573   -5.1288   -0.3527 C   0  0  0  0  0  0  0  0  0  0  0  0
    3.2739   -1.1593    0.1527 C   0  0  0  0  0  0  0  0  0  0  0  0
   -1.0032   -2.6473    0.6486 C   0  0  0  0  0  0  0  0  0  0  0  0
    2.6944    0.0285   -0.2214 C   0  0  0  0  0  0  0  0  0  0  0  0
    3.5302    1.0172    0.3314 C   0  0  0  0  0  0  0  0  0  0  0  0
    5.3206   -1.7278    1.4955 C   0  0  0  0  0  0  0  0  0  0  0  0
    3.3610    2.4433    0.2292 C   0  0  0  0  0  0  0  0  0  0  0  0
   -2.9760   -1.3358    0.4551 C   0  0  0  0  0  0  0  0  0  0  0  0
    4.3403    3.2399   -0.3641 C   0  0  0  0  0  0  0  0  0  0  0  0
    2.1986    3.0266    0.7333 C   0  0  0  0  0  0  0  0  0  0  0  0
    4.1572    4.6198   -0.4533 C   0  0  0  0  0  0  0  0  0  0  0  0
    2.0155    4.4067    0.6442 C   0  0  0  0  0  0  0  0  0  0  0  0
   -5.0111   -0.0539   -0.2700 C   0  0  0  0  0  0  0  0  0  0  0  0
    2.9947    5.2032    0.0509 C   0  0  0  0  0  0  0  0  0  0  0  0
   -5.8026    0.3360   -1.3505 C   0  0  0  0  0  0  0  0  0  0  0  0
   -5.3472    0.3494    1.0222 C   0  0  0  0  0  0  0  0  0  0  0  0
    6.4250    3.5957   -1.4518 C   0  0  0  0  0  0  0  0  0  0  0  0
   -6.9302    1.1293   -1.1385 C   0  0  0  0  0  0  0  0  0  0  0  0
   -6.4747    1.1425    1.2342 C   0  0  0  0  0  0  0  0  0  0  0  0
   -7.2662    1.5325    0.1539 C   0  0  0  0  0  0  0  0  0  0  0  0
   -9.1315    2.6663   -0.7898 C   0  0  0  0  0  0  0  0  0  0  0  0
    2.5765   -2.3997   -2.2978 H   0  0  0  0  0  0  0  0  0  0  0  0
    3.8071   -3.1704   -0.1757 H   0  0  0  0  0  0  0  0  0  0  0  0
   -0.6437   -4.1681   -0.7750 H   0  0  0  0  0  0  0  0  0  0  0  0
    0.5232   -1.4672   -1.0425 H   0  0  0  0  0  0  0  0  0  0  0  0
    0.1267   -2.6628   -2.2607 H   0  0  0  0  0  0  0  0  0  0  0  0
    3.1925   -4.7729   -1.8465 H   0  0  0  0  0  0  0  0  0  0  0  0
    1.5495   -4.7357   -2.4905 H   0  0  0  0  0  0  0  0  0  0  0  0
    2.6972   -3.7395    1.7278 H   0  0  0  0  0  0  0  0  0  0  0  0
    1.5654   -2.4247    1.6549 H   0  0  0  0  0  0  0  0  0  0  0  0
    0.9571   -5.9321   -0.6135 H   0  0  0  0  0  0  0  0  0  0  0  0
    2.4858   -5.6205    0.1729 H   0  0  0  0  0  0  0  0  0  0  0  0
   -0.4930   -1.8448    1.1927 H   0  0  0  0  0  0  0  0  0  0  0  0
   -1.4695   -3.3250    1.3741 H   0  0  0  0  0  0  0  0  0  0  0  0
    1.8074    0.1806   -0.8161 H   0  0  0  0  0  0  0  0  0  0  0  0
    5.8507   -2.2654    0.7057 H   0  0  0  0  0  0  0  0  0  0  0  0
    6.0347   -1.1562    2.0948 H   0  0  0  0  0  0  0  0  0  0  0  0
    4.7750   -2.4181    2.1423 H   0  0  0  0  0  0  0  0  0  0  0  0
    1.4244    2.4241    1.2027 H   0  0  0  0  0  0  0  0  0  0  0  0
   -3.6840   -1.1147   -1.4514 H   0  0  0  0  0  0  0  0  0  0  0  0
    4.8704    5.3042   -0.8990 H   0  0  0  0  0  0  0  0  0  0  0  0
    1.1108    4.8610    1.0374 H   0  0  0  0  0  0  0  0  0  0  0  0
    2.8509    6.2778   -0.0178 H   0  0  0  0  0  0  0  0  0  0  0  0
   -5.5509    0.0278   -2.3622 H   0  0  0  0  0  0  0  0  0  0  0  0
   -4.7829    0.0868    1.9063 H   0  0  0  0  0  0  0  0  0  0  0  0
    7.2728    2.9943   -1.7964 H   0  0  0  0  0  0  0  0  0  0  0  0
    6.8201    4.3053   -0.7168 H   0  0  0  0  0  0  0  0  0  0  0  0
    6.0116    4.0933   -2.3358 H   0  0  0  0  0  0  0  0  0  0  0  0
   -7.5001    1.3957   -2.0220 H   0  0  0  0  0  0  0  0  0  0  0  0
   -6.7328    1.4541    2.2428 H   0  0  0  0  0  0  0  0  0  0  0  0
   -9.9688    3.2801   -0.4417 H   0  0  0  0  0  0  0  0  0  0  0  0
   -9.5623    1.7861   -1.2791 H   0  0  0  0  0  0  0  0  0  0  0  0
   -8.5494    3.2834   -1.4826 H   0  0  0  0  0  0  0  0  0  0  0  0
  1 17  1  0  0  0  0
  1 22  1  0  0  0  0
  2 22  2  0  0  0  0
  3 23  1  0  0  0  0
  3 31  1  0  0  0  0
  4 34  1  0  0  0  0
  4 35  1  0  0  0  0
  5 11  1  0  0  0  0
  5 14  1  0  0  0  0
  5 15  1  0  0  0  0
  6  7  1  0  0  0  0
  6 16  1  0  0  0  0
  6 20  1  0  0  0  0
  7 19  2  0  0  0  0
  8 22  1  0  0  0  0
  8 27  1  0  0  0  0
  8 54  1  0  0  0  0
  9 10  1  0  0  0  0
  9 12  1  0  0  0  0
  9 13  1  0  0  0  0
  9 36  1  0  0  0  0
 10 14  1  0  0  0  0
 10 16  1  0  0  0  0
 10 37  1  0  0  0  0
 11 12  1  0  0  0  0
 11 17  1  0  0  0  0
 11 38  1  0  0  0  0
 12 39  1  0  0  0  0
 12 40  1  0  0  0  0
 13 15  1  0  0  0  0
 13 41  1  0  0  0  0
 13 42  1  0  0  0  0
 14 43  1  0  0  0  0
 14 44  1  0  0  0  0
 15 45  1  0  0  0  0
 15 46  1  0  0  0  0
 16 18  2  0  0  0  0
 17 47  1  0  0  0  0
 17 48  1  0  0  0  0
 18 19  1  0  0  0  0
 18 49  1  0  0  0  0
 19 21  1  0  0  0  0
 20 50  1  0  0  0  0
 20 51  1  0  0  0  0
 20 52  1  0  0  0  0
 21 23  1  0  0  0  0
 21 24  2  0  0  0  0
 23 25  2  0  0  0  0
 24 26  1  0  0  0  0
 24 53  1  0  0  0  0
 25 28  1  0  0  0  0
 25 55  1  0  0  0  0
 26 28  2  0  0  0  0
 26 56  1  0  0  0  0
 27 29  2  0  0  0  0
 27 30  1  0  0  0  0
 28 57  1  0  0  0  0
 29 32  1  0  0  0  0
 29 58  1  0  0  0  0
 30 33  2  0  0  0  0
 30 59  1  0  0  0  0
 31 60  1  0  0  0  0
 31 61  1  0  0  0  0
 31 62  1  0  0  0  0
 32 34  2  0  0  0  0
 32 63  1  0  0  0  0
 33 34  1  0  0  0  0
 33 64  1  0  0  0  0
 35 65  1  0  0  0  0
 35 66  1  0  0  0  0
 35 67  1  0  0  0  0
M  END
> <PUBCHEM_COMPOUND_CID>
25389612

> <PUBCHEM_CONFORMER_RMSD>
1

> <PUBCHEM_CONFORMER_DIVERSEORDER>
2
136
90
86
98
53
142
121
132
113
94
101
5
55
34
117
43
145
138
146
129
120
62
144
27
135
63
59
141
81
116
6
103
52
73
110
126
13
54
127
51
47
128
14
46
61
140
118
112
41
32
108
80
8
137
57
20
139
104
12
123
56
131
40
35
39
95
18
99
100
106
17
124
60
84
119
91
114
74
65
72
23
109
85
75
1
10
87
9
64
11
107
76
33
102
105
78
22
26
25
66
134
3
149
58
29
92
125
147
88
130
36
21
67
24
15
143
122
19
148
97
83
68
133
28
30
7
49
79
42
69
115
71
45
111
38
44
50
16
77
48
31
82
93
70
89
37
96
4

> <PUBCHEM_MMFF94_PARTIAL_CHARGES>
42
1 -0.43
10 0.18
11 0.27
14 0.27
15 0.27
16 -0.33
17 0.28
18 -0.15
19 0.23
2 -0.57
20 0.26
21 0.05
22 0.78
23 0.08
24 -0.15
25 -0.15
26 -0.15
27 0.12
28 -0.15
29 -0.15
3 -0.36
30 -0.15
31 0.28
32 -0.15
33 -0.15
34 0.08
35 0.28
4 -0.36
49 0.15
5 -0.81
53 0.15
54 0.37
55 0.15
56 0.15
57 0.15
58 0.15
59 0.15
6 0.31
63 0.15
64 0.15
7 -0.71
8 -0.55

> <PUBCHEM_EFFECTIVE_ROTOR_COUNT>
10.2

> <PUBCHEM_PHARMACOPHORE_FEATURES>
10
1 2 acceptor
1 3 acceptor
1 4 acceptor
1 5 cation
1 7 acceptor
1 8 donor
5 6 7 16 18 19 rings
6 21 23 24 25 26 28 rings
6 27 29 30 32 33 34 rings
8 5 9 10 11 12 13 14 15 rings

> <PUBCHEM_HEAVY_ATOM_COUNT>
35

> <PUBCHEM_ATOM_DEF_STEREO_COUNT>
3

> <PUBCHEM_ATOM_UDEF_STEREO_COUNT>
0

> <PUBCHEM_BOND_DEF_STEREO_COUNT>
0

> <PUBCHEM_BOND_UDEF_STEREO_COUNT>
0

> <PUBCHEM_ISOTOPIC_ATOM_COUNT>
0

> <PUBCHEM_COMPONENT_COUNT>
1

> <PUBCHEM_CACTVS_TAUTO_COUNT>
2

> <PUBCHEM_CONFORMER_ID>
01836A2C00000002

> <PUBCHEM_MMFF94_ENERGY>
115.9276

> <PUBCHEM_FEATURE_SELFOVERLAP>
50.749

> <PUBCHEM_SHAPE_FINGERPRINT>
10462385 53 18116129225964179213
10673678 19 18412547639184426379
10675989 125 18412545409579792337
10811444 77 18411132533285952065
10842077 115 16480488211526734841
10864689 126 18268155438788262980
10917259 69 18266180724980151468
10937287 8 18196369445032307402
11059845 2 17837179922014991720
11273773 38 18411421739224933312
11374522 174 18189066450346744749
11386260 185 18126850400358095391
11505856 67 17909542097263007807
12888983 3 17824247208831095205
13944108 23 18410578344760106324
14068700 686 18194127541403910667
14117953 113 18341614789780776676
14223995 32 18125715936476732304
14251764 75 18338518659093866257
14747282 540 18333734607030366236
15198563 99 17765176985910344094
15320295 198 18261959536246551933
15320295 44 18059281150503446655
15400415 2 18195529422676366729
16087824 20 18410571748412545416
16112460 7 18412549816374526032
16988056 13 18269003003085715998
16992727 255 17974581487971175012
17899979 129 18410299115940333045
19053607 189 18340758355674037105
19302320 297 18410007706741060539
19304152 47 17393615005086891808
20609170 109 8258175336942602004
20715895 44 18412822473661941875
21133410 62 18265064702310303249
21585483 110 18409449219512133217
21987440 362 18194412310572552292
23569914 152 18128003900505803404
24204213 92 17773333236158382430
3103668 31 17044591041718898894
3146121 3 18268149928972566891
3178227 256 18334286531997136970
376196 1 18336264664425877306
394071 54 18341051809736373099
397830 11 18335151873887934723
4173938 77 18127708045271267411
4408954 64 17318428918290218866
4435113 14 17968106321997127921
4760202 170 18122048816522454317
4760202 70 18343015637237654807
5109719 28 18409459098421880067
57591035 28 18123770677379328670
57676310 115 18188219797093477108
58902169 19 17987785320949644967
5951187 136 18271815604915422703

> <PUBCHEM_SHAPE_MULTIPOLES>
676.88
19.95
8.19
1.36
52.39
1.09
0.1
24.32
1.98
-13.21
1.53
-0.09
-0.45
-0.61

> <PUBCHEM_SHAPE_SELFOVERLAP>
1465.851

> <PUBCHEM_SHAPE_VOLUME>
368.1

> <PUBCHEM_COORDINATE_TYPE>
2
5
10

$$$$
