45783492
  -OEChem-12032416263D

 56 59  0     1  0  0  0  0  0999 V2000
   -2.1329    1.5729    1.1718 O   0  0  0  0  0  0  0  0  0  0  0  0
    8.0069    0.5321   -0.2887 O   0  0  0  0  0  0  0  0  0  0  0  0
   -4.5427    0.5150   -0.1867 N   0  0  1  0  0  0  0  0  0  0  0  0
   -1.0163    0.9488   -0.6669 N   0  0  0  0  0  0  0  0  0  0  0  0
   -0.7971    1.4146    1.5622 N   0  0  0  0  0  0  0  0  0  0  0  0
    3.3467    0.6217    1.4498 N   0  0  0  0  0  0  0  0  0  0  0  0
    5.2698   -0.0214    0.1993 N   0  0  0  0  0  0  0  0  0  0  0  0
   -3.5287    1.3780   -0.8250 C   0  0  1  0  0  0  0  0  0  0  0  0
   -4.1237    2.7966   -0.7570 C   0  0  0  0  0  0  0  0  0  0  0  0
   -5.4958    2.6224   -0.1216 C   0  0  0  0  0  0  0  0  0  0  0  0
   -5.8339    1.1708   -0.3950 C   0  0  0  0  0  0  0  0  0  0  0  0
   -4.5342   -0.8518   -0.6922 C   0  0  0  0  0  0  0  0  0  0  0  0
   -2.1747    1.2791   -0.1542 C   0  0  0  0  0  0  0  0  0  0  0  0
   -3.4324   -1.6711   -0.0744 C   0  0  0  0  0  0  0  0  0  0  0  0
   -2.4547   -2.2726   -0.8667 C   0  0  0  0  0  0  0  0  0  0  0  0
   -3.3986   -1.8245    1.3116 C   0  0  0  0  0  0  0  0  0  0  0  0
   -0.2021    1.0462    0.4238 C   0  0  0  0  0  0  0  0  0  0  0  0
   -1.4430   -3.0274   -0.2731 C   0  0  0  0  0  0  0  0  0  0  0  0
   -2.4701   -2.1226   -2.3525 C   0  0  0  0  0  0  0  0  0  0  0  0
   -2.3868   -2.5792    1.9055 C   0  0  0  0  0  0  0  0  0  0  0  0
   -1.4090   -3.1806    1.1130 C   0  0  0  0  0  0  0  0  0  0  0  0
    1.2025    0.7668    0.3426 C   0  0  0  0  0  0  0  0  0  0  0  0
    1.7888    0.3841   -0.8588 C   0  0  0  0  0  0  0  0  0  0  0  0
    2.0178    0.8700    1.4581 C   0  0  0  0  0  0  0  0  0  0  0  0
    3.1531    0.1200   -0.9072 C   0  0  0  0  0  0  0  0  0  0  0  0
    3.8811    0.2522    0.2643 C   0  0  0  0  0  0  0  0  0  0  0  0
    5.9212   -0.4184   -1.0065 C   0  0  0  0  0  0  0  0  0  0  0  0
    7.3960   -0.6693   -0.7421 C   0  0  0  0  0  0  0  0  0  0  0  0
    9.3926    0.3478   -0.0335 C   0  0  0  0  0  0  0  0  0  0  0  0
   -3.4047    1.1230   -1.8864 H   0  0  0  0  0  0  0  0  0  0  0  0
   -4.2410    3.1936   -1.7729 H   0  0  0  0  0  0  0  0  0  0  0  0
   -3.5181    3.5107   -0.1887 H   0  0  0  0  0  0  0  0  0  0  0  0
   -5.4317    2.8034    0.9586 H   0  0  0  0  0  0  0  0  0  0  0  0
   -6.2357    3.3116   -0.5390 H   0  0  0  0  0  0  0  0  0  0  0  0
   -6.6005    0.8003    0.2925 H   0  0  0  0  0  0  0  0  0  0  0  0
   -6.1903    1.0511   -1.4260 H   0  0  0  0  0  0  0  0  0  0  0  0
   -4.5443   -0.8666   -1.7866 H   0  0  0  0  0  0  0  0  0  0  0  0
   -5.4692   -1.3524   -0.4006 H   0  0  0  0  0  0  0  0  0  0  0  0
   -4.1554   -1.3670    1.9434 H   0  0  0  0  0  0  0  0  0  0  0  0
   -0.6726   -3.5019   -0.8751 H   0  0  0  0  0  0  0  0  0  0  0  0
   -3.3795   -2.5602   -2.7771 H   0  0  0  0  0  0  0  0  0  0  0  0
   -2.3921   -1.0700   -2.6415 H   0  0  0  0  0  0  0  0  0  0  0  0
   -1.6225   -2.6399   -2.8165 H   0  0  0  0  0  0  0  0  0  0  0  0
   -2.3605   -2.6989    2.9846 H   0  0  0  0  0  0  0  0  0  0  0  0
   -0.6208   -3.7675    1.5755 H   0  0  0  0  0  0  0  0  0  0  0  0
    1.2068    0.2833   -1.7714 H   0  0  0  0  0  0  0  0  0  0  0  0
    1.6387    1.1625    2.4328 H   0  0  0  0  0  0  0  0  0  0  0  0
    3.5777   -0.1746   -1.8595 H   0  0  0  0  0  0  0  0  0  0  0  0
    5.7916    0.0825    1.0620 H   0  0  0  0  0  0  0  0  0  0  0  0
    5.4850   -1.3416   -1.4053 H   0  0  0  0  0  0  0  0  0  0  0  0
    5.8343    0.3745   -1.7593 H   0  0  0  0  0  0  0  0  0  0  0  0
    7.5184   -1.4509    0.0177 H   0  0  0  0  0  0  0  0  0  0  0  0
    7.8819   -0.9997   -1.6675 H   0  0  0  0  0  0  0  0  0  0  0  0
    9.9147    0.0478   -0.9473 H   0  0  0  0  0  0  0  0  0  0  0  0
    9.8087    1.2988    0.3096 H   0  0  0  0  0  0  0  0  0  0  0  0
    9.5422   -0.4014    0.7499 H   0  0  0  0  0  0  0  0  0  0  0  0
  1  5  1  0  0  0  0
  1 13  1  0  0  0  0
  2 28  1  0  0  0  0
  2 29  1  0  0  0  0
  3  8  1  0  0  0  0
  3 11  1  0  0  0  0
  3 12  1  0  0  0  0
  4 13  2  0  0  0  0
  4 17  1  0  0  0  0
  5 17  2  0  0  0  0
  6 24  1  0  0  0  0
  6 26  2  0  0  0  0
  7 26  1  0  0  0  0
  7 27  1  0  0  0  0
  7 49  1  0  0  0  0
  8  9  1  0  0  0  0
  8 13  1  0  0  0  0
  8 30  1  0  0  0  0
  9 10  1  0  0  0  0
  9 31  1  0  0  0  0
  9 32  1  0  0  0  0
 10 11  1  0  0  0  0
 10 33  1  0  0  0  0
 10 34  1  0  0  0  0
 11 35  1  0  0  0  0
 11 36  1  0  0  0  0
 12 14  1  0  0  0  0
 12 37  1  0  0  0  0
 12 38  1  0  0  0  0
 14 15  1  0  0  0  0
 14 16  2  0  0  0  0
 15 18  2  0  0  0  0
 15 19  1  0  0  0  0
 16 20  1  0  0  0  0
 16 39  1  0  0  0  0
 17 22  1  0  0  0  0
 18 21  1  0  0  0  0
 18 40  1  0  0  0  0
 19 41  1  0  0  0  0
 19 42  1  0  0  0  0
 19 43  1  0  0  0  0
 20 21  2  0  0  0  0
 20 44  1  0  0  0  0
 21 45  1  0  0  0  0
 22 23  1  0  0  0  0
 22 24  2  0  0  0  0
 23 25  2  0  0  0  0
 23 46  1  0  0  0  0
 24 47  1  0  0  0  0
 25 26  1  0  0  0  0
 25 48  1  0  0  0  0
 27 28  1  0  0  0  0
 27 50  1  0  0  0  0
 27 51  1  0  0  0  0
 28 52  1  0  0  0  0
 28 53  1  0  0  0  0
 29 54  1  0  0  0  0
 29 55  1  0  0  0  0
 29 56  1  0  0  0  0
M  END
> <PUBCHEM_COMPOUND_CID>
45783492

> <PUBCHEM_CONFORMER_RMSD>
1

> <PUBCHEM_CONFORMER_DIVERSEORDER>
10
134
57
34
147
136
56
128
111
8
52
119
74
87
153
26
138
70
58
124
139
15
110
73
108
78
12
101
67
84
125
150
133
53
144
91
62
24
31
120
28
37
32
151
64
19
140
51
2
69
42
113
152
23
80
43
132
137
103
45
71
82
33
79
97
75
81
155
95
77
106
130
157
41
100
16
146
27
61
44
118
154
72
129
92
99
1
38
148
123
145
107
105
54
18
86
90
47
85
39
40
20
59
9
114
115
83
127
93
35
5
117
25
88
98
135
49
50
116
142
21
3
141
68
48
104
121
7
6
14
131
11
156
22
96
36
13
143
109
149
30
94
126
66
122
102
4
89
29
63
17
76
65
112
60
46
55

> <PUBCHEM_MMFF94_PARTIAL_CHARGES>
35
1 -0.02
11 0.27
12 0.41
13 0.3
14 -0.14
15 -0.14
16 -0.15
17 0.46
18 -0.15
19 0.14
2 -0.56
20 -0.15
21 -0.15
22 0.05
23 -0.15
24 0.16
25 -0.15
26 0.41
27 0.37
28 0.28
29 0.28
3 -0.81
39 0.15
4 -0.57
40 0.15
44 0.15
45 0.15
46 0.15
47 0.15
48 0.15
49 0.4
5 -0.41
6 -0.62
7 -0.87
8 0.45

> <PUBCHEM_EFFECTIVE_ROTOR_COUNT>
9

> <PUBCHEM_PHARMACOPHORE_FEATURES>
9
1 2 acceptor
1 3 cation
1 7 donor
3 4 5 17 cation
3 6 7 26 cation
5 1 4 5 13 17 rings
5 3 8 9 10 11 rings
6 14 15 16 18 20 21 rings
6 6 22 23 24 25 26 rings

> <PUBCHEM_HEAVY_ATOM_COUNT>
29

> <PUBCHEM_ATOM_DEF_STEREO_COUNT>
1

> <PUBCHEM_ATOM_UDEF_STEREO_COUNT>
0

> <PUBCHEM_BOND_DEF_STEREO_COUNT>
0

> <PUBCHEM_BOND_UDEF_STEREO_COUNT>
0

> <PUBCHEM_ISOTOPIC_ATOM_COUNT>
0

> <PUBCHEM_COMPONENT_COUNT>
1

> <PUBCHEM_CACTVS_TAUTO_COUNT>
8

> <PUBCHEM_CONFORMER_ID>
02BA99C40000000A

> <PUBCHEM_MMFF94_ENERGY>
69.3826

> <PUBCHEM_FEATURE_SELFOVERLAP>
45.672

> <PUBCHEM_SHAPE_FINGERPRINT>
10165383 225 18338797807074521949
10369192 42 13767933403457306594
107951 10 18260551091721151331
11135926 11 17530674399820600866
11200772 48 18410013217046723571
11315181 36 17989490718912639992
11524674 6 17918268736231214415
12156800 1 15794591706118139931
12655364 131 15194460607214732782
12788726 201 18058729078984475305
13947920 75 17967530181971793240
14659021 117 17981023517105890163
15183329 4 17240475932246342250
15361156 5 18342737468156575756
15439362 3 17757269280549315589
16752209 62 18336252535912415283
20721686 146 15720499955860952943
23559900 14 18202274823427587776
23569943 247 13613144092792450404
249057 3 18334576845420905412
3298306 158 18266729200412691317
3383291 50 18337668728512169875
3411729 13 18049721820655323721
4015057 19 17489293235615505945
4073 2 18335702784815240696
44802255 64 18040991796397066847
4625314 4 18410296913925013348
484985 159 17704077308799828559
5265222 85 18410577326957845428
559249 180 18408322168405940110
57527295 17 17845358969875206221
58902169 19 17822017515144438484
59755656 520 18040714744825441115
70634741 139 18338242677997440856
7226269 152 18272371945098758753
9862886 166 18343586252857924714

> <PUBCHEM_SHAPE_MULTIPOLES>
560.16
17.91
3.17
1.53
50.55
1.7
-0.07
-5.07
3.89
-6.32
-0.29
-0.62
0.71
0.86

> <PUBCHEM_SHAPE_SELFOVERLAP>
1198.167

> <PUBCHEM_SHAPE_VOLUME>
312.5

> <PUBCHEM_COORDINATE_TYPE>
2
5
10

$$$$
