75367109
  -OEChem-12032416403D

 45 47  0     1  0  0  0  0  0999 V2000
   -0.3936    0.7373   -0.7414 O   0  0  0  0  0  0  0  0  0  0  0  0
   -1.6749   -2.4095    0.4255 O   0  0  0  0  0  0  0  0  0  0  0  0
    2.8984   -1.7922    0.9232 O   0  0  0  0  0  0  0  0  0  0  0  0
   -3.8470   -0.4002   -0.6334 N   0  0  0  0  0  0  0  0  0  0  0  0
    2.1629   -0.5698   -0.9065 N   0  0  0  0  0  0  0  0  0  0  0  0
    6.6076    1.5003    0.3093 N   0  0  0  0  0  0  0  0  0  0  0  0
   -4.7860    0.5239   -0.0235 C   0  0  0  0  0  0  0  0  0  0  0  0
   -2.4987   -0.1808   -0.1355 C   0  0  1  0  0  0  0  0  0  0  0  0
   -1.5394   -1.3120   -0.4564 C   0  0  1  0  0  0  0  0  0  0  0  0
   -6.0640    0.6884   -0.8371 C   0  0  0  0  0  0  0  0  0  0  0  0
   -5.3148    0.0280    1.3171 C   0  0  0  0  0  0  0  0  0  0  0  0
   -0.1965   -0.6134   -0.2913 C   0  0  1  0  0  0  0  0  0  0  0  0
   -7.0478    1.2997    0.1571 C   0  0  0  0  0  0  0  0  0  0  0  0
   -6.5651    0.8730    1.5462 C   0  0  0  0  0  0  0  0  0  0  0  0
   -1.8070    0.9980   -0.8004 C   0  0  0  0  0  0  0  0  0  0  0  0
    0.9201   -1.2626   -1.0893 C   0  0  0  0  0  0  0  0  0  0  0  0
    3.0661   -0.8956    0.1008 C   0  0  0  0  0  0  0  0  0  0  0  0
    4.2961   -0.0655    0.1728 C   0  0  0  0  0  0  0  0  0  0  0  0
    4.9582    0.0977    1.3847 C   0  0  0  0  0  0  0  0  0  0  0  0
    4.7886    0.5532   -0.9709 C   0  0  0  0  0  0  0  0  0  0  0  0
    6.0992    0.8835    1.3996 C   0  0  0  0  0  0  0  0  0  0  0  0
    5.9374    1.3186   -0.8507 C   0  0  0  0  0  0  0  0  0  0  0  0
   -4.3445    1.5223    0.0989 H   0  0  0  0  0  0  0  0  0  0  0  0
   -2.5080   -0.0483    0.9552 H   0  0  0  0  0  0  0  0  0  0  0  0
   -1.6770   -1.6663   -1.4856 H   0  0  0  0  0  0  0  0  0  0  0  0
   -5.9239    1.3192   -1.7207 H   0  0  0  0  0  0  0  0  0  0  0  0
   -6.4438   -0.2841   -1.1762 H   0  0  0  0  0  0  0  0  0  0  0  0
   -5.5981   -1.0313    1.2677 H   0  0  0  0  0  0  0  0  0  0  0  0
   -4.5929    0.1432    2.1315 H   0  0  0  0  0  0  0  0  0  0  0  0
   -4.1352   -1.3617   -0.4563 H   0  0  0  0  0  0  0  0  0  0  0  0
    0.0889   -0.5662    0.7680 H   0  0  0  0  0  0  0  0  0  0  0  0
   -8.0717    0.9658   -0.0389 H   0  0  0  0  0  0  0  0  0  0  0  0
   -7.0378    2.3931    0.0810 H   0  0  0  0  0  0  0  0  0  0  0  0
   -6.3227    1.7601    2.1428 H   0  0  0  0  0  0  0  0  0  0  0  0
   -7.3318    0.3113    2.0892 H   0  0  0  0  0  0  0  0  0  0  0  0
   -2.0733    1.0941   -1.8593 H   0  0  0  0  0  0  0  0  0  0  0  0
   -2.0183    1.9499   -0.3042 H   0  0  0  0  0  0  0  0  0  0  0  0
    0.7009   -1.2214   -2.1619 H   0  0  0  0  0  0  0  0  0  0  0  0
    1.0424   -2.3118   -0.7998 H   0  0  0  0  0  0  0  0  0  0  0  0
   -1.5547   -2.0876    1.3350 H   0  0  0  0  0  0  0  0  0  0  0  0
    2.3329    0.2269   -1.5108 H   0  0  0  0  0  0  0  0  0  0  0  0
    4.6048   -0.3637    2.3006 H   0  0  0  0  0  0  0  0  0  0  0  0
    4.3351    0.4422   -1.9491 H   0  0  0  0  0  0  0  0  0  0  0  0
    6.6515    1.0434    2.3197 H   0  0  0  0  0  0  0  0  0  0  0  0
    6.3664    1.8165   -1.7141 H   0  0  0  0  0  0  0  0  0  0  0  0
  1 12  1  0  0  0  0
  1 15  1  0  0  0  0
  2  9  1  0  0  0  0
  2 40  1  0  0  0  0
  3 17  2  0  0  0  0
  4  7  1  0  0  0  0
  4  8  1  0  0  0  0
  4 30  1  0  0  0  0
  5 16  1  0  0  0  0
  5 17  1  0  0  0  0
  5 41  1  0  0  0  0
  6 21  2  0  0  0  0
  6 22  1  0  0  0  0
  7 10  1  0  0  0  0
  7 11  1  0  0  0  0
  7 23  1  0  0  0  0
  8  9  1  0  0  0  0
  8 15  1  0  0  0  0
  8 24  1  0  0  0  0
  9 12  1  0  0  0  0
  9 25  1  0  0  0  0
 10 13  1  0  0  0  0
 10 26  1  0  0  0  0
 10 27  1  0  0  0  0
 11 14  1  0  0  0  0
 11 28  1  0  0  0  0
 11 29  1  0  0  0  0
 12 16  1  0  0  0  0
 12 31  1  0  0  0  0
 13 14  1  0  0  0  0
 13 32  1  0  0  0  0
 13 33  1  0  0  0  0
 14 34  1  0  0  0  0
 14 35  1  0  0  0  0
 15 36  1  0  0  0  0
 15 37  1  0  0  0  0
 16 38  1  0  0  0  0
 16 39  1  0  0  0  0
 17 18  1  0  0  0  0
 18 19  2  0  0  0  0
 18 20  1  0  0  0  0
 19 21  1  0  0  0  0
 19 42  1  0  0  0  0
 20 22  2  0  0  0  0
 20 43  1  0  0  0  0
 21 44  1  0  0  0  0
 22 45  1  0  0  0  0
M  END
> <PUBCHEM_COMPOUND_CID>
75367109

> <PUBCHEM_CONFORMER_RMSD>
0.8

> <PUBCHEM_CONFORMER_DIVERSEORDER>
1
83
36
92
73
47
126
42
57
98
121
48
66
130
107
117
30
89
91
97
21
13
100
90
109
31
104
123
32
68
56
94
76
84
110
15
59
8
6
60
82
127
69
64
54
129
120
116
125
38
4
53
96
24
99
115
71
80
95
124
103
81
40
41
26
52
17
101
43
114
108
74
111
70
72
119
16
88
85
93
65
128
3
50
14
37
87
63
27
118
49
46
51
62
18
44
122
112
55
58
34
61
113
10
22
45
23
77
19
102
106
35
12
11
79
75
7
78
25
20
28
5
105
86
29
2
9
33
39
67

> <PUBCHEM_MMFF94_PARTIAL_CHARGES>
25
1 -0.56
12 0.28
15 0.28
16 0.3
17 0.54
18 0.09
19 -0.15
2 -0.68
20 -0.15
21 0.16
22 0.16
3 -0.57
30 0.36
4 -0.9
40 0.4
41 0.37
42 0.15
43 0.15
44 0.15
45 0.15
5 -0.73
6 -0.62
7 0.27
8 0.27
9 0.28

> <PUBCHEM_EFFECTIVE_ROTOR_COUNT>
8

> <PUBCHEM_PHARMACOPHORE_FEATURES>
11
1 1 acceptor
1 2 acceptor
1 2 donor
1 3 acceptor
1 4 cation
1 4 donor
1 5 donor
1 6 acceptor
5 1 8 9 12 15 rings
5 7 10 11 13 14 rings
6 6 18 19 20 21 22 rings

> <PUBCHEM_HEAVY_ATOM_COUNT>
22

> <PUBCHEM_ATOM_DEF_STEREO_COUNT>
3

> <PUBCHEM_ATOM_UDEF_STEREO_COUNT>
0

> <PUBCHEM_BOND_DEF_STEREO_COUNT>
0

> <PUBCHEM_BOND_UDEF_STEREO_COUNT>
0

> <PUBCHEM_ISOTOPIC_ATOM_COUNT>
0

> <PUBCHEM_COMPONENT_COUNT>
1

> <PUBCHEM_CACTVS_TAUTO_COUNT>
2

> <PUBCHEM_CONFORMER_ID>
047E02C500000001

> <PUBCHEM_MMFF94_ENERGY>
44.569

> <PUBCHEM_FEATURE_SELFOVERLAP>
55.822

> <PUBCHEM_SHAPE_FINGERPRINT>
10 15 17749111101359366541
106641 1 18334863844505663411
10670039 82 13614250252169445019
10906281 52 18342470248049304255
117890 112 18272369771644658343
11991303 11 13038891249404620781
125118 31 18336828585374125533
12596602 18 16588023506708305537
12616971 3 17240480355709184118
12670543 26 12319740245886703227
12760667 363 10737283541641825583
13533116 47 18200315403486411630
13668630 136 8502653705725828505
13685833 64 12396299257560863884
13782708 43 11458425747504694677
13862211 1 8214141850365423941
13955234 65 18270400465338256670
14251752 14 12391515260999082477
14251764 18 18335421292416093559
14341114 176 17967527970311438482
14341114 328 18113333141997631178
14347332 77 9655309119759883902
14528608 73 16128653050481405983
15048467 5 18060137635194667017
15183329 4 13039194696889580914
15188451 53 12251896010523892572
15348495 7 16805613611087082121
15706992 2 17703243879291689729
17834072 8 12319733669911945377
17980427 23 18262798587344298839
190975 80 17313393365487719121
2026 5 12179842819134295713
20281389 69 18272931592274972889
21150785 3 15195563516003201333
21315764 119 14548742811067227564
21424621 283 18059585637871938153
21637258 2 12901549065755363335
22061861 79 11600005440228915113
221357 26 14620797094048938890
2215653 11 11600004358034293516
22224240 67 18335140882770854411
23081809 10 17632570518647867183
23198884 109 15985107405666475125
2767999 5 18273493468423201605
29717793 49 9367345942324555170
300161 21 18413385432368574535
3004659 81 10519983773126458766
3472631 163 17703506696793420076
4058900 60 15195020314446408367
4340502 62 17022621961887146546
465052 167 11242261735634988723
5104073 3 17823696559029992736
5718773 13 11314291851116358912
5758199 1 18273218582580379387
59682541 35 17822296820392816777
59682541 52 13542469752489401228
59755656 215 10447933858005337589

> <PUBCHEM_SHAPE_MULTIPOLES>
420.2
20.04
1.6
1.31
4.4
0.5
0.29
-11.97
4.47
-0.41
0.12
-0.24
-0.16
-0.25

> <PUBCHEM_SHAPE_SELFOVERLAP>
880.08

> <PUBCHEM_SHAPE_VOLUME>
238

> <PUBCHEM_COORDINATE_TYPE>
2
5
10

$$$$
