75536877
  -OEChem-12032416303D

 44 46  0     1  0  0  0  0  0999 V2000
   -4.6820    1.3422    0.4166 F   0  0  0  0  0  0  0  0  0  0  0  0
   -3.4152    0.9219    2.1261 F   0  0  0  0  0  0  0  0  0  0  0  0
   -3.8233   -0.6395    0.6691 F   0  0  0  0  0  0  0  0  0  0  0  0
    1.2049   -4.0668    0.3599 O   0  0  0  0  0  0  0  0  0  0  0  0
    2.1769   -0.6770    1.3694 O   0  0  0  0  0  0  0  0  0  0  0  0
   -1.9969    2.4059    0.0632 O   0  0  0  0  0  0  0  0  0  0  0  0
   -2.2057   -1.3410   -2.1046 O   0  0  0  0  0  0  0  0  0  0  0  0
   -0.8454   -1.9136   -0.2831 N   0  0  0  0  0  0  0  0  0  0  0  0
    1.4646   -1.5791    0.5244 C   0  0  2  0  0  0  0  0  0  0  0  0
   -0.0221   -1.5050    0.8663 C   0  0  0  0  0  0  0  0  0  0  0  0
   -0.8973   -3.3495   -0.5694 C   0  0  0  0  0  0  0  0  0  0  0  0
    2.0657   -2.9798    0.6752 C   0  0  0  0  0  0  0  0  0  0  0  0
    0.4806   -3.9367   -0.8583 C   0  0  0  0  0  0  0  0  0  0  0  0
   -1.5370   -1.0283   -1.1206 C   0  0  0  0  0  0  0  0  0  0  0  0
   -1.4696    0.4066   -0.8184 C   0  0  0  0  0  0  0  0  0  0  0  0
   -2.3405    1.0928   -0.0042 C   0  0  0  0  0  0  0  0  0  0  0  0
   -0.5305    1.3592   -1.2806 C   0  0  0  0  0  0  0  0  0  0  0  0
    2.8425    0.3441    0.7495 C   0  0  0  0  0  0  0  0  0  0  0  0
   -0.8946    2.5597   -0.7163 C   0  0  0  0  0  0  0  0  0  0  0  0
   -3.5235    0.6959    0.7751 C   0  0  0  0  0  0  0  0  0  0  0  0
    3.8442    0.0616   -0.1792 C   0  0  0  0  0  0  0  0  0  0  0  0
    2.5198    1.6683    1.0460 C   0  0  0  0  0  0  0  0  0  0  0  0
   -0.3379    3.9175   -0.7932 C   0  0  0  0  0  0  0  0  0  0  0  0
    4.5233    1.1032   -0.8115 C   0  0  0  0  0  0  0  0  0  0  0  0
    3.1986    2.7099    0.4137 C   0  0  0  0  0  0  0  0  0  0  0  0
    4.2004    2.4274   -0.5150 C   0  0  0  0  0  0  0  0  0  0  0  0
    1.5707   -1.2790   -0.5284 H   0  0  0  0  0  0  0  0  0  0  0  0
   -0.2697   -2.1485    1.7194 H   0  0  0  0  0  0  0  0  0  0  0  0
   -0.2809   -0.4902    1.1792 H   0  0  0  0  0  0  0  0  0  0  0  0
   -1.5510   -3.5327   -1.4279 H   0  0  0  0  0  0  0  0  0  0  0  0
   -1.3491   -3.8330    0.3046 H   0  0  0  0  0  0  0  0  0  0  0  0
    2.9712   -3.0652    0.0629 H   0  0  0  0  0  0  0  0  0  0  0  0
    2.3978   -3.1313    1.7091 H   0  0  0  0  0  0  0  0  0  0  0  0
    1.0416   -3.3666   -1.6077 H   0  0  0  0  0  0  0  0  0  0  0  0
    0.3486   -4.9514   -1.2484 H   0  0  0  0  0  0  0  0  0  0  0  0
    0.3087    1.1911   -1.9410 H   0  0  0  0  0  0  0  0  0  0  0  0
    4.1166   -0.9632   -0.4140 H   0  0  0  0  0  0  0  0  0  0  0  0
    1.7388    1.8943    1.7668 H   0  0  0  0  0  0  0  0  0  0  0  0
   -1.0845    4.6184   -1.1789 H   0  0  0  0  0  0  0  0  0  0  0  0
   -0.0229    4.2601    0.1973 H   0  0  0  0  0  0  0  0  0  0  0  0
    0.5323    3.9507   -1.4561 H   0  0  0  0  0  0  0  0  0  0  0  0
    5.3048    0.8833   -1.5329 H   0  0  0  0  0  0  0  0  0  0  0  0
    2.9460    3.7409    0.6434 H   0  0  0  0  0  0  0  0  0  0  0  0
    4.7289    3.2386   -1.0073 H   0  0  0  0  0  0  0  0  0  0  0  0
  1 20  1  0  0  0  0
  2 20  1  0  0  0  0
  3 20  1  0  0  0  0
  4 12  1  0  0  0  0
  4 13  1  0  0  0  0
  5  9  1  0  0  0  0
  5 18  1  0  0  0  0
  6 16  1  0  0  0  0
  6 19  1  0  0  0  0
  7 14  2  0  0  0  0
  8 10  1  0  0  0  0
  8 11  1  0  0  0  0
  8 14  1  0  0  0  0
  9 10  1  0  0  0  0
  9 12  1  0  0  0  0
  9 27  1  0  0  0  0
 10 28  1  0  0  0  0
 10 29  1  0  0  0  0
 11 13  1  0  0  0  0
 11 30  1  0  0  0  0
 11 31  1  0  0  0  0
 12 32  1  0  0  0  0
 12 33  1  0  0  0  0
 13 34  1  0  0  0  0
 13 35  1  0  0  0  0
 14 15  1  0  0  0  0
 15 16  2  0  0  0  0
 15 17  1  0  0  0  0
 16 20  1  0  0  0  0
 17 19  2  0  0  0  0
 17 36  1  0  0  0  0
 18 21  2  0  0  0  0
 18 22  1  0  0  0  0
 19 23  1  0  0  0  0
 21 24  1  0  0  0  0
 21 37  1  0  0  0  0
 22 25  2  0  0  0  0
 22 38  1  0  0  0  0
 23 39  1  0  0  0  0
 23 40  1  0  0  0  0
 23 41  1  0  0  0  0
 24 26  2  0  0  0  0
 24 42  1  0  0  0  0
 25 26  1  0  0  0  0
 25 43  1  0  0  0  0
 26 44  1  0  0  0  0
M  END
> <PUBCHEM_COMPOUND_CID>
75536877

> <PUBCHEM_CONFORMER_RMSD>
0.8

> <PUBCHEM_CONFORMER_DIVERSEORDER>
11
138
101
187
63
217
164
22
199
214
129
165
64
85
158
100
83
151
48
50
47
55
189
183
156
174
75
176
208
124
41
171
179
45
99
190
33
147
120
26
77
103
198
213
162
17
218
202
1
194
106
197
60
23
161
4
84
112
177
150
132
39
52
78
65
148
201
19
175
193
121
135
195
32
62
36
21
153
34
2
93
49
123
200
186
96
67
130
210
137
157
43
160
94
87
206
53
126
28
181
89
184
7
25
40
133
72
205
159
172
188
57
211
13
14
141
30
35
182
185
155
170
134
6
191
215
166
16
90
46
110
146
152
109
122
44
68
88
178
38
142
70
209
204
105
119
59
108
154
104
203
61
125
95
79
9
131
82
92
113
5
97
86
56
173
58
207
20
192
3
10
180
163
74
149
107
111
128
102
73
127
8
140
98
91
69
71
12
139
27
196
212
216
54
117
42
168
118
18
76
143
15
167
31
24
116
37
169
114
81
51
145
80
66
115
136
29
144

> <PUBCHEM_MMFF94_PARTIAL_CHARGES>
32
1 -0.34
10 0.3
11 0.3
12 0.28
13 0.28
14 0.72
15 -0.09
16 -0.04
17 -0.15
18 0.08
19 -0.04
2 -0.34
20 1.2
21 -0.15
22 -0.15
23 0.18
24 -0.15
25 -0.15
26 -0.15
3 -0.34
36 0.15
37 0.15
38 0.15
4 -0.56
42 0.15
43 0.15
44 0.15
5 -0.36
6 -0.28
7 -0.57
8 -0.66
9 0.28

> <PUBCHEM_EFFECTIVE_ROTOR_COUNT>
6.4

> <PUBCHEM_PHARMACOPHORE_FEATURES>
7
1 4 acceptor
1 5 acceptor
1 6 acceptor
1 7 acceptor
5 6 15 16 17 19 rings
6 18 21 22 24 25 26 rings
7 4 8 9 10 11 12 13 rings

> <PUBCHEM_HEAVY_ATOM_COUNT>
26

> <PUBCHEM_ATOM_DEF_STEREO_COUNT>
1

> <PUBCHEM_ATOM_UDEF_STEREO_COUNT>
0

> <PUBCHEM_BOND_DEF_STEREO_COUNT>
0

> <PUBCHEM_BOND_UDEF_STEREO_COUNT>
0

> <PUBCHEM_ISOTOPIC_ATOM_COUNT>
0

> <PUBCHEM_COMPONENT_COUNT>
1

> <PUBCHEM_CACTVS_TAUTO_COUNT>
1

> <PUBCHEM_CONFORMER_ID>
048099ED0000000B

> <PUBCHEM_MMFF94_ENERGY>
65.5167

> <PUBCHEM_FEATURE_SELFOVERLAP>
35.524

> <PUBCHEM_SHAPE_FINGERPRINT>
10006869 2 18263917903230644403
10165383 225 18341058462345413112
10498660 4 18118666958555385892
1100329 8 17689153830760239119
11115154 58 16909735348362818151
12156800 1 17470780843910783382
12553582 1 18263070175607486716
12633257 1 18342451556737045932
12788726 201 17838041964056971390
128993 33 18341886351619832664
13140716 1 18334848468063957234
13583140 156 17024851694154051434
14223421 5 18117559522412443581
14363568 33 18124324809284998130
14468879 13 17097461311637317117
14790565 3 18337397144359767165
151778 21 18339927004655807368
18785283 64 18266748986747438154
19591789 44 18410577301119469722
19930381 70 18337389340176791225
20465049 17 18269851838878565502
23419403 2 17194945124910742319
23557571 272 17548121686399818482
23559900 14 17903350408173773821
238 59 17975946835575408484
2637199 183 18410865356318341810
350125 39 18265050228560522254
44154327 71 18335420166533652148
469060 322 16372965779845799754
57527585 103 16088679476789451080
6287921 2 18338525114250370582
6442390 28 18337963397216463458
70251023 43 17975953398876747919
81228 2 17831849523601909362

> <PUBCHEM_SHAPE_MULTIPOLES>
484.79
6.98
5.1
1.37
2.43
3.09
-0.02
-4.67
-1
0.32
0.78
-0.64
-0.02
-1

> <PUBCHEM_SHAPE_SELFOVERLAP>
1036.572

> <PUBCHEM_SHAPE_VOLUME>
269.6

> <PUBCHEM_COORDINATE_TYPE>
2
5
10

$$$$
