7049255
  -OEChem-12032416203D

 57 58  0     1  0  0  0  0  0999 V2000
    2.1651   -1.8534   -1.9892 O   0  0  0  0  0  0  0  0  0  0  0  0
   -0.4559   -3.6518    1.2363 O   0  0  0  0  0  0  0  0  0  0  0  0
    2.3144   -3.7077    1.8918 O   0  0  0  0  0  0  0  0  0  0  0  0
    3.7306    0.1353   -2.1923 O   0  0  0  0  0  0  0  0  0  0  0  0
   -2.3563   -1.0167   -1.8142 O   0  0  0  0  0  0  0  0  0  0  0  0
    2.8873    2.9556    1.7881 O   0  0  0  0  0  0  0  0  0  0  0  0
   -1.4273   -1.0685    0.3109 N   0  0  0  0  0  0  0  0  0  0  0  0
   -3.5521   -0.2489    0.0220 N   0  0  0  0  0  0  0  0  0  0  0  0
    3.2969    0.9254   -0.0459 N   0  0  0  0  0  0  0  0  0  0  0  0
    3.8224    4.4395    0.3051 N   0  0  0  0  0  0  0  0  0  0  0  0
   -0.1568   -1.6440   -0.0728 C   0  0  1  0  0  0  0  0  0  0  0  0
    2.2097   -1.0719   -0.8011 C   0  0  1  0  0  0  0  0  0  0  0  0
    0.8193   -0.5295   -0.4647 C   0  0  0  0  0  0  0  0  0  0  0  0
    0.4016   -2.5212    1.0557 C   0  0  2  0  0  0  0  0  0  0  0  0
    2.7621   -1.9261    0.3380 C   0  0  0  0  0  0  0  0  0  0  0  0
    1.8017   -3.0490    0.7334 C   0  0  1  0  0  0  0  0  0  0  0  0
   -4.7535    0.1306   -0.6877 C   0  0  0  0  0  0  0  0  0  0  0  0
    3.1550    0.0518   -1.1104 C   0  0  0  0  0  0  0  0  0  0  0  0
   -4.6577    1.5707   -1.2026 C   0  0  0  0  0  0  0  0  0  0  0  0
   -5.9955   -0.0646    0.1883 C   0  0  0  0  0  0  0  0  0  0  0  0
   -4.7521    2.6016   -0.0777 C   0  0  0  0  0  0  0  0  0  0  0  0
   -6.0878    0.9688    1.3108 C   0  0  0  0  0  0  0  0  0  0  0  0
   -6.0016    2.3938    0.7729 C   0  0  0  0  0  0  0  0  0  0  0  0
   -2.4377   -0.7986   -0.6061 C   0  0  0  0  0  0  0  0  0  0  0  0
    4.1674    2.0783   -0.0801 C   0  0  2  0  0  0  0  0  0  0  0  0
    5.5598    1.7280    0.4206 C   0  0  0  0  0  0  0  0  0  0  0  0
    3.5413    3.1724    0.7709 C   0  0  0  0  0  0  0  0  0  0  0  0
   -0.3422   -2.2754   -0.9519 H   0  0  0  0  0  0  0  0  0  0  0  0
    0.8547    0.2022    0.3520 H   0  0  0  0  0  0  0  0  0  0  0  0
    0.4152    0.0078   -1.3337 H   0  0  0  0  0  0  0  0  0  0  0  0
    0.4109   -1.9784    2.0088 H   0  0  0  0  0  0  0  0  0  0  0  0
    3.7246   -2.3731    0.0539 H   0  0  0  0  0  0  0  0  0  0  0  0
    2.9786   -1.3277    1.2321 H   0  0  0  0  0  0  0  0  0  0  0  0
    1.7472   -3.8020   -0.0622 H   0  0  0  0  0  0  0  0  0  0  0  0
   -1.5607   -0.7834    1.2765 H   0  0  0  0  0  0  0  0  0  0  0  0
   -4.8405   -0.5351   -1.5554 H   0  0  0  0  0  0  0  0  0  0  0  0
   -3.7221    1.7211   -1.7544 H   0  0  0  0  0  0  0  0  0  0  0  0
   -5.4755    1.7495   -1.9124 H   0  0  0  0  0  0  0  0  0  0  0  0
   -6.8915    0.0172   -0.4403 H   0  0  0  0  0  0  0  0  0  0  0  0
   -6.0017   -1.0723    0.6210 H   0  0  0  0  0  0  0  0  0  0  0  0
   -3.8611    2.5376    0.5586 H   0  0  0  0  0  0  0  0  0  0  0  0
   -4.7633    3.6105   -0.5057 H   0  0  0  0  0  0  0  0  0  0  0  0
   -5.2880    0.8033    2.0419 H   0  0  0  0  0  0  0  0  0  0  0  0
   -7.0343    0.8387    1.8481 H   0  0  0  0  0  0  0  0  0  0  0  0
   -6.8922    2.6097    0.1698 H   0  0  0  0  0  0  0  0  0  0  0  0
   -6.0022    3.1040    1.6074 H   0  0  0  0  0  0  0  0  0  0  0  0
    3.0370   -2.2637   -2.1208 H   0  0  0  0  0  0  0  0  0  0  0  0
   -3.4857   -0.0438    1.0140 H   0  0  0  0  0  0  0  0  0  0  0  0
   -0.4929   -4.1395    0.3958 H   0  0  0  0  0  0  0  0  0  0  0  0
    3.1975   -4.0479    1.6682 H   0  0  0  0  0  0  0  0  0  0  0  0
    2.8054    0.7483    0.8241 H   0  0  0  0  0  0  0  0  0  0  0  0
    4.2365    2.4222   -1.1191 H   0  0  0  0  0  0  0  0  0  0  0  0
    6.2186    2.6022    0.3927 H   0  0  0  0  0  0  0  0  0  0  0  0
    6.0109    0.9395   -0.1911 H   0  0  0  0  0  0  0  0  0  0  0  0
    5.5296    1.3691    1.4558 H   0  0  0  0  0  0  0  0  0  0  0  0
    3.4742    5.2608    0.7885 H   0  0  0  0  0  0  0  0  0  0  0  0
    4.3815    4.6038   -0.5259 H   0  0  0  0  0  0  0  0  0  0  0  0
  1 12  1  0  0  0  0
  1 47  1  0  0  0  0
  2 14  1  0  0  0  0
  2 49  1  0  0  0  0
  3 16  1  0  0  0  0
  3 50  1  0  0  0  0
  4 18  2  0  0  0  0
  5 24  2  0  0  0  0
  6 27  2  0  0  0  0
  7 11  1  0  0  0  0
  7 24  1  0  0  0  0
  7 35  1  0  0  0  0
  8 17  1  0  0  0  0
  8 24  1  0  0  0  0
  8 48  1  0  0  0  0
  9 18  1  0  0  0  0
  9 25  1  0  0  0  0
  9 51  1  0  0  0  0
 10 27  1  0  0  0  0
 10 56  1  0  0  0  0
 10 57  1  0  0  0  0
 11 13  1  0  0  0  0
 11 14  1  0  0  0  0
 11 28  1  0  0  0  0
 12 13  1  0  0  0  0
 12 15  1  0  0  0  0
 12 18  1  0  0  0  0
 13 29  1  0  0  0  0
 13 30  1  0  0  0  0
 14 16  1  0  0  0  0
 14 31  1  0  0  0  0
 15 16  1  0  0  0  0
 15 32  1  0  0  0  0
 15 33  1  0  0  0  0
 16 34  1  0  0  0  0
 17 19  1  0  0  0  0
 17 20  1  0  0  0  0
 17 36  1  0  0  0  0
 19 21  1  0  0  0  0
 19 37  1  0  0  0  0
 19 38  1  0  0  0  0
 20 22  1  0  0  0  0
 20 39  1  0  0  0  0
 20 40  1  0  0  0  0
 21 23  1  0  0  0  0
 21 41  1  0  0  0  0
 21 42  1  0  0  0  0
 22 23  1  0  0  0  0
 22 43  1  0  0  0  0
 22 44  1  0  0  0  0
 23 45  1  0  0  0  0
 23 46  1  0  0  0  0
 25 26  1  0  0  0  0
 25 27  1  0  0  0  0
 25 52  1  0  0  0  0
 26 53  1  0  0  0  0
 26 54  1  0  0  0  0
 26 55  1  0  0  0  0
M  END
> <PUBCHEM_COMPOUND_CID>
7049255

> <PUBCHEM_CONFORMER_RMSD>
1

> <PUBCHEM_CONFORMER_DIVERSEORDER>
1
26
140
91
87
121
93
179
95
153
144
112
173
124
115
161
120
145
49
138
166
117
105
147
168
73
27
50
143
178
136
42
154
127
43
137
57
85
123
6
139
164
116
81
80
134
66
130
51
82
142
107
176
5
52
146
175
75
48
68
114
71
156
11
171
31
54
104
61
170
45
84
92
155
108
35
36
159
160
99
141
165
38
152
8
177
79
128
19
131
25
101
24
122
89
39
18
119
60
113
126
158
150
96
72
28
102
74
94
106
4
118
174
63
59
53
125
135
44
65
98
169
77
78
14
33
180
32
67
88
111
7
69
20
21
47
157
56
100
132
62
34
83
37
3
23
162
64
22
129
97
16
148
55
151
167
163
149
29
86
133
103
46
58
13
40
172
12
10
76
109
90
70
30
2
41
110
17
9
15

> <PUBCHEM_MMFF94_PARTIAL_CHARGES>
27
1 -0.68
10 -0.8
11 0.3
12 0.34
14 0.28
16 0.28
17 0.3
18 0.57
2 -0.68
24 0.69
25 0.36
27 0.57
3 -0.68
35 0.37
4 -0.57
47 0.4
48 0.37
49 0.4
5 -0.57
50 0.4
51 0.37
56 0.37
57 0.37
6 -0.57
7 -0.73
8 -0.73
9 -0.73

> <PUBCHEM_EFFECTIVE_ROTOR_COUNT>
10.4

> <PUBCHEM_PHARMACOPHORE_FEATURES>
15
1 1 acceptor
1 1 donor
1 10 donor
1 2 acceptor
1 2 donor
1 3 acceptor
1 3 donor
1 4 acceptor
1 5 acceptor
1 6 acceptor
1 7 donor
1 8 donor
1 9 donor
6 11 12 13 14 15 16 rings
6 17 19 20 21 22 23 rings

> <PUBCHEM_HEAVY_ATOM_COUNT>
27

> <PUBCHEM_ATOM_DEF_STEREO_COUNT>
5

> <PUBCHEM_ATOM_UDEF_STEREO_COUNT>
0

> <PUBCHEM_BOND_DEF_STEREO_COUNT>
0

> <PUBCHEM_BOND_UDEF_STEREO_COUNT>
0

> <PUBCHEM_ISOTOPIC_ATOM_COUNT>
0

> <PUBCHEM_COMPONENT_COUNT>
1

> <PUBCHEM_CACTVS_TAUTO_COUNT>
12

> <PUBCHEM_CONFORMER_ID>
006B902700000001

> <PUBCHEM_MMFF94_ENERGY>
45.7077

> <PUBCHEM_FEATURE_SELFOVERLAP>
76.205

> <PUBCHEM_SHAPE_FINGERPRINT>
10074138 170 17170114991612909699
11069576 57 14619690916431849924
11070050 100 17894349973138927898
11135609 201 18339920523771541683
11331351 85 17764011477134861546
12769317 202 18342730827884006376
12892183 10 12757140316501569142
13878862 14 17970890182253628717
13955234 65 18188208680736894099
13965767 371 17822277003534843646
14251740 57 8214134153557435909
14251764 38 17979632660945891972
146900 427 18337116674847768419
14739800 52 18411130325545960025
14848178 96 18412821421363370345
14849402 71 18334295345085158744
14932701 244 17909813676813994823
14955137 171 17903913357795548450
15142526 21 18337388365319253569
15163728 17 18265611172648328064
15475509 84 17758389682576122920
17868525 174 17756133501800603381
17980427 26 18338780313218811534
19752476 56 18342738503111415862
21388113 180 18338238296419324657
21475661 188 18341331210212380692
21591340 35 18411698764298975808
22122407 14 18124325909203263169
23559900 14 16988279764150214111
2838139 119 18201151169735763444
34797466 226 17988650666833942783
376196 1 18199750417897339854
5104073 3 18114185173425705715
57091435 61 18412260674791306665
5895379 119 17629482982111017841
59124914 9 18410853291781873568
653340 110 18044665427839069011
960060 61 14908179720654607823

> <PUBCHEM_SHAPE_MULTIPOLES>
500.51
14.01
4.8
1.57
18.35
1.22
0.28
13.34
-1.25
-5.83
-2.62
-0.57
-0.5
0.15

> <PUBCHEM_SHAPE_SELFOVERLAP>
1020.645

> <PUBCHEM_SHAPE_VOLUME>
285.3

> <PUBCHEM_COORDINATE_TYPE>
2
5
10

$$$$
