51137093
  -OEChem-12032416143D

 46 49  0     1  0  0  0  0  0999 V2000
   -7.8940    1.0152    0.8617 O   0  0  0  0  0  0  0  0  0  0  0  0
   -8.0636   -1.1763    0.2828 O   0  0  0  0  0  0  0  0  0  0  0  0
   -0.9801   -0.2504   -0.2357 N   0  0  1  0  0  0  0  0  0  0  0  0
    3.6523   -1.2958    0.4026 N   0  0  0  0  0  0  0  0  0  0  0  0
    3.1032    0.8211    0.0067 N   0  0  0  0  0  0  0  0  0  0  0  0
    1.1974   -0.7756    0.4587 C   0  0  1  0  0  0  0  0  0  0  0  0
    0.4593   -0.0406    1.5910 C   0  0  0  0  0  0  0  0  0  0  0  0
    0.3486   -0.5135   -0.7927 C   0  0  0  0  0  0  0  0  0  0  0  0
   -0.7402    0.6151    0.9190 C   0  0  0  0  0  0  0  0  0  0  0  0
    2.6451   -0.3793    0.2822 C   0  0  0  0  0  0  0  0  0  0  0  0
   -1.8786    0.3571   -1.2063 C   0  0  0  0  0  0  0  0  0  0  0  0
   -3.3208    0.2254   -0.7943 C   0  0  0  0  0  0  0  0  0  0  0  0
    4.8397   -0.6433    0.1903 C   0  0  0  0  0  0  0  0  0  0  0  0
    4.4702    0.6764   -0.0546 C   0  0  0  0  0  0  0  0  0  0  0  0
    6.1645   -1.0807    0.1916 C   0  0  0  0  0  0  0  0  0  0  0  0
   -3.9789   -0.9957   -0.9412 C   0  0  0  0  0  0  0  0  0  0  0  0
   -3.9987    1.3240   -0.2660 C   0  0  0  0  0  0  0  0  0  0  0  0
    5.4688    1.6299   -0.3156 C   0  0  0  0  0  0  0  0  0  0  0  0
    7.1453   -0.1184   -0.0701 C   0  0  0  0  0  0  0  0  0  0  0  0
    6.8058    1.2134   -0.3193 C   0  0  0  0  0  0  0  0  0  0  0  0
   -5.3149   -1.1181   -0.5597 C   0  0  0  0  0  0  0  0  0  0  0  0
   -5.3347    1.2015    0.1155 C   0  0  0  0  0  0  0  0  0  0  0  0
   -5.9929   -0.0196   -0.0313 C   0  0  0  0  0  0  0  0  0  0  0  0
    8.5826   -0.5248   -0.0829 C   0  0  0  0  0  0  0  0  0  0  0  0
   -7.3856   -0.1470    0.3675 C   0  0  0  0  0  0  0  0  0  0  0  0
    1.1560   -1.8511    0.6850 H   0  0  0  0  0  0  0  0  0  0  0  0
    0.1208   -0.7696    2.3379 H   0  0  0  0  0  0  0  0  0  0  0  0
    1.0806    0.6991    2.1070 H   0  0  0  0  0  0  0  0  0  0  0  0
    0.7240    0.3504   -1.3573 H   0  0  0  0  0  0  0  0  0  0  0  0
    0.3445   -1.3829   -1.4591 H   0  0  0  0  0  0  0  0  0  0  0  0
   -1.5962    0.6573    1.5997 H   0  0  0  0  0  0  0  0  0  0  0  0
   -0.4795    1.6380    0.6183 H   0  0  0  0  0  0  0  0  0  0  0  0
   -1.7793   -0.1529   -2.1751 H   0  0  0  0  0  0  0  0  0  0  0  0
   -1.6217    1.4058   -1.4082 H   0  0  0  0  0  0  0  0  0  0  0  0
    3.5452   -2.2798    0.6106 H   0  0  0  0  0  0  0  0  0  0  0  0
    6.4143   -2.1177    0.3885 H   0  0  0  0  0  0  0  0  0  0  0  0
   -3.4614   -1.8589   -1.3516 H   0  0  0  0  0  0  0  0  0  0  0  0
   -3.4965    2.2802   -0.1451 H   0  0  0  0  0  0  0  0  0  0  0  0
    5.2150    2.6671   -0.5100 H   0  0  0  0  0  0  0  0  0  0  0  0
    7.5820    1.9488   -0.5191 H   0  0  0  0  0  0  0  0  0  0  0  0
   -5.8097   -2.0780   -0.6820 H   0  0  0  0  0  0  0  0  0  0  0  0
   -5.8241    2.0819    0.5226 H   0  0  0  0  0  0  0  0  0  0  0  0
    9.1445    0.0432   -0.8322 H   0  0  0  0  0  0  0  0  0  0  0  0
    8.6944   -1.5849   -0.3351 H   0  0  0  0  0  0  0  0  0  0  0  0
    9.0303   -0.3510    0.9006 H   0  0  0  0  0  0  0  0  0  0  0  0
   -8.8333    0.9186    1.1277 H   0  0  0  0  0  0  0  0  0  0  0  0
  1 25  1  0  0  0  0
  1 46  1  0  0  0  0
  2 25  2  0  0  0  0
  3  8  1  0  0  0  0
  3  9  1  0  0  0  0
  3 11  1  0  0  0  0
  4 10  1  0  0  0  0
  4 13  1  0  0  0  0
  4 35  1  0  0  0  0
  5 10  2  0  0  0  0
  5 14  1  0  0  0  0
  6  7  1  0  0  0  0
  6  8  1  0  0  0  0
  6 10  1  0  0  0  0
  6 26  1  0  0  0  0
  7  9  1  0  0  0  0
  7 27  1  0  0  0  0
  7 28  1  0  0  0  0
  8 29  1  0  0  0  0
  8 30  1  0  0  0  0
  9 31  1  0  0  0  0
  9 32  1  0  0  0  0
 11 12  1  0  0  0  0
 11 33  1  0  0  0  0
 11 34  1  0  0  0  0
 12 16  2  0  0  0  0
 12 17  1  0  0  0  0
 13 14  2  0  0  0  0
 13 15  1  0  0  0  0
 14 18  1  0  0  0  0
 15 19  2  0  0  0  0
 15 36  1  0  0  0  0
 16 21  1  0  0  0  0
 16 37  1  0  0  0  0
 17 22  2  0  0  0  0
 17 38  1  0  0  0  0
 18 20  2  0  0  0  0
 18 39  1  0  0  0  0
 19 20  1  0  0  0  0
 19 24  1  0  0  0  0
 20 40  1  0  0  0  0
 21 23  2  0  0  0  0
 21 41  1  0  0  0  0
 22 23  1  0  0  0  0
 22 42  1  0  0  0  0
 23 25  1  0  0  0  0
 24 43  1  0  0  0  0
 24 44  1  0  0  0  0
 24 45  1  0  0  0  0
M  END
> <PUBCHEM_COMPOUND_CID>
51137093

> <PUBCHEM_CONFORMER_RMSD>
0.8

> <PUBCHEM_CONFORMER_DIVERSEORDER>
1
47
15
46
36
51
27
4
30
16
42
10
7
24
35
32
49
21
17
38
29
23
48
8
18
34
43
44
12
22
45
39
5
19
33
3
41
37
20
11
14
50
6
13
9
26
2
31
40
25
28

> <PUBCHEM_MMFF94_PARTIAL_CHARGES>
33
1 -0.65
10 0.01
11 0.41
12 -0.14
13 -0.15
14 0.23
15 -0.15
16 -0.15
17 -0.15
18 -0.15
19 -0.14
2 -0.57
20 -0.15
21 -0.15
22 -0.15
23 0.09
24 0.14
25 0.63
3 -0.81
35 0.27
36 0.15
37 0.15
38 0.15
39 0.15
4 0.03
40 0.15
41 0.15
42 0.15
46 0.5
5 -0.57
6 0.18
8 0.27
9 0.27

> <PUBCHEM_EFFECTIVE_ROTOR_COUNT>
5

> <PUBCHEM_PHARMACOPHORE_FEATURES>
10
1 1 acceptor
1 2 acceptor
1 3 cation
1 4 donor
3 1 2 25 anion
3 4 5 10 cation
5 3 6 7 8 9 rings
5 4 5 10 13 14 rings
6 12 16 17 21 22 23 rings
6 13 14 15 18 19 20 rings

> <PUBCHEM_HEAVY_ATOM_COUNT>
25

> <PUBCHEM_ATOM_DEF_STEREO_COUNT>
1

> <PUBCHEM_ATOM_UDEF_STEREO_COUNT>
0

> <PUBCHEM_BOND_DEF_STEREO_COUNT>
0

> <PUBCHEM_BOND_UDEF_STEREO_COUNT>
0

> <PUBCHEM_ISOTOPIC_ATOM_COUNT>
0

> <PUBCHEM_COMPONENT_COUNT>
1

> <PUBCHEM_CACTVS_TAUTO_COUNT>
2

> <PUBCHEM_CONFORMER_ID>
030C4A4500000001

> <PUBCHEM_MMFF94_ENERGY>
57.9014

> <PUBCHEM_FEATURE_SELFOVERLAP>
50.911

> <PUBCHEM_SHAPE_FINGERPRINT>
10 15 18343586235820519399
10299344 5 18342174475242769359
10595046 47 18336262362238256680
106641 1 13912327902078360476
11315181 36 18335421267068406329
11524674 6 16128654180733123519
11646440 116 16805325487458825724
12166972 35 18260548931394975060
12236239 1 18272649048246817028
12516196 113 16153425047539517797
12730499 353 17749387045109439658
12838862 33 13614233742515346036
13533116 47 16950832610701421778
14123256 10 16877661257985689435
14251752 14 17775565334276084232
14251764 18 18202281416333891895
14251764 46 16298105385082673347
14849402 71 18261398913285119261
14856354 85 17988926699918193335
14933364 13 18411136930820662660
15183329 4 18341606006103236060
15419008 47 15574708114629627461
15461852 350 13045949010247230185
15716309 27 18408039611329624855
15849732 13 11818996283614064906
18006028 8 11887955453890298682
18335252 98 18410577279470962715
20157964 124 18333450946262512082
21033648 29 17823133596782779512
21095086 128 18407758144763695523
21150785 3 13045945706911119799
21267235 1 18410576184254074932
21315763 28 18335420153806784876
21521721 280 18259987097435984474
21792961 116 17632014148040816069
22224240 67 16588023523866523867
23035841 295 18272931626745396471
23516275 137 18200050442596443275
23536379 177 18412260623467528540
23569943 247 17025704859500848210
249057 3 18410291436754845566
2747138 104 16950289511475535869
28498 318 12175627265376558200
29717793 49 17917715695864291548
335352 9 16200145504612756349
34797466 226 18341899597472761468
3545911 37 17822007610496191894
4073 2 18113903809633296162
4325135 7 18334857220980296989
5283156 175 17489872614319487054
5385378 56 15841283566797592031
5758199 1 18040435490341450554
59682541 35 16370730356626486373
59755656 215 14117525324247130637
59755656 520 18113330938368893058
6009941 240 12679456504205177949
9663363 56 15554442985642585154

> <PUBCHEM_SHAPE_MULTIPOLES>
487.81
25.66
1.32
0.97
2.48
0.18
-0.08
-0.22
-0.78
-0.19
0.05
0.55
0
-0.72

> <PUBCHEM_SHAPE_SELFOVERLAP>
1069.954

> <PUBCHEM_SHAPE_VOLUME>
265.4

> <PUBCHEM_COORDINATE_TYPE>
2
5
10

$$$$
