40533517
  -OEChem-12032416213D

 61 66  0     1  0  0  0  0  0999 V2000
    3.5519    0.3011    1.3824 O   0  0  0  0  0  0  0  0  0  0  0  0
   -0.3020    3.4155    0.6062 N   0  0  2  0  0  0  0  0  0  0  0  0
    2.4583    1.9030    0.0881 N   0  0  0  0  0  0  0  0  0  0  0  0
   -5.9225   -1.2706    0.2402 N   0  0  0  0  0  0  0  0  0  0  0  0
    2.2238   -5.3519    2.5175 N   0  0  0  0  0  0  0  0  0  0  0  0
    2.0273    4.2908    0.9139 C   0  0  1  0  0  0  0  0  0  0  0  0
    1.2765    3.6235   -1.3192 C   0  0  2  0  0  0  0  0  0  0  0  0
    2.1057    4.6574   -0.5622 C   0  0  0  0  0  0  0  0  0  0  0  0
    0.5583    4.3129    1.3869 C   0  0  0  0  0  0  0  0  0  0  0  0
   -0.1904    3.6836   -0.8354 C   0  0  0  0  0  0  0  0  0  0  0  0
    2.6925    2.9233    1.1201 C   0  0  0  0  0  0  0  0  0  0  0  0
    1.8433    2.2296   -1.1228 C   0  0  0  0  0  0  0  0  0  0  0  0
   -1.6914    3.5047    1.0489 C   0  0  0  0  0  0  0  0  0  0  0  0
    1.7400    1.3102   -2.0954 C   0  0  0  0  0  0  0  0  0  0  0  0
    2.9738    0.6167    0.3408 C   0  0  0  0  0  0  0  0  0  0  0  0
    2.8122   -0.4027   -0.7549 C   0  0  0  0  0  0  0  0  0  0  0  0
    2.2275   -0.0259   -1.9020 C   0  0  0  0  0  0  0  0  0  0  0  0
   -2.4630    2.2518    0.7299 C   0  0  0  0  0  0  0  0  0  0  0  0
    3.2745   -1.7909   -0.5807 C   0  0  0  0  0  0  0  0  0  0  0  0
   -2.0397    1.0236    1.2382 C   0  0  0  0  0  0  0  0  0  0  0  0
   -3.6010    2.3191   -0.0740 C   0  0  0  0  0  0  0  0  0  0  0  0
   -2.7545   -0.1371    0.9426 C   0  0  0  0  0  0  0  0  0  0  0  0
   -4.3157    1.1583   -0.3697 C   0  0  0  0  0  0  0  0  0  0  0  0
    2.7533   -2.5772    0.4470 C   0  0  0  0  0  0  0  0  0  0  0  0
    4.2336   -2.3191   -1.4450 C   0  0  0  0  0  0  0  0  0  0  0  0
   -3.8923   -0.0699    0.1385 C   0  0  0  0  0  0  0  0  0  0  0  0
    3.1913   -3.8914    0.6103 C   0  0  0  0  0  0  0  0  0  0  0  0
    4.6713   -3.6334   -1.2819 C   0  0  0  0  0  0  0  0  0  0  0  0
   -4.6338   -1.2742   -0.1683 C   0  0  0  0  0  0  0  0  0  0  0  0
    4.1504   -4.4196   -0.2541 C   0  0  0  0  0  0  0  0  0  0  0  0
   -4.0336   -2.3317   -0.8325 C   0  0  0  0  0  0  0  0  0  0  0  0
    2.6573   -4.6974    1.6628 C   0  0  0  0  0  0  0  0  0  0  0  0
   -4.8057   -3.4579   -1.0945 C   0  0  0  0  0  0  0  0  0  0  0  0
   -6.6418   -2.3824   -0.0319 C   0  0  0  0  0  0  0  0  0  0  0  0
   -6.1357   -3.4917   -0.6900 C   0  0  0  0  0  0  0  0  0  0  0  0
    2.5762    5.0338    1.5058 H   0  0  0  0  0  0  0  0  0  0  0  0
    1.2987    3.8840   -2.3856 H   0  0  0  0  0  0  0  0  0  0  0  0
    3.1464    4.6589   -0.9096 H   0  0  0  0  0  0  0  0  0  0  0  0
    1.7086    5.6660   -0.7293 H   0  0  0  0  0  0  0  0  0  0  0  0
    0.5297    4.0221    2.4446 H   0  0  0  0  0  0  0  0  0  0  0  0
    0.1831    5.3439    1.3275 H   0  0  0  0  0  0  0  0  0  0  0  0
   -0.6013    4.6739   -1.0756 H   0  0  0  0  0  0  0  0  0  0  0  0
   -0.7771    2.9501   -1.4027 H   0  0  0  0  0  0  0  0  0  0  0  0
    3.7814    3.0663    1.1516 H   0  0  0  0  0  0  0  0  0  0  0  0
    2.4160    2.5029    2.0953 H   0  0  0  0  0  0  0  0  0  0  0  0
   -2.1863    4.3980    0.6453 H   0  0  0  0  0  0  0  0  0  0  0  0
   -1.7386    3.6130    2.1418 H   0  0  0  0  0  0  0  0  0  0  0  0
    1.2609    1.5361   -3.0424 H   0  0  0  0  0  0  0  0  0  0  0  0
    2.0770   -0.7199   -2.7238 H   0  0  0  0  0  0  0  0  0  0  0  0
   -1.1580    0.9562    1.8703 H   0  0  0  0  0  0  0  0  0  0  0  0
   -3.9410    3.2687   -0.4784 H   0  0  0  0  0  0  0  0  0  0  0  0
   -2.4109   -1.0835    1.3539 H   0  0  0  0  0  0  0  0  0  0  0  0
   -5.1979    1.2300   -1.0015 H   0  0  0  0  0  0  0  0  0  0  0  0
    2.0005   -2.1694    1.1194 H   0  0  0  0  0  0  0  0  0  0  0  0
    4.6567   -1.7210   -2.2487 H   0  0  0  0  0  0  0  0  0  0  0  0
    5.4190   -4.0442   -1.9541 H   0  0  0  0  0  0  0  0  0  0  0  0
    4.5020   -5.4422   -0.1396 H   0  0  0  0  0  0  0  0  0  0  0  0
   -2.9965   -2.3002   -1.1512 H   0  0  0  0  0  0  0  0  0  0  0  0
   -4.3724   -4.3072   -1.6141 H   0  0  0  0  0  0  0  0  0  0  0  0
   -7.6731   -2.3587    0.3044 H   0  0  0  0  0  0  0  0  0  0  0  0
   -6.7563   -4.3589   -0.8838 H   0  0  0  0  0  0  0  0  0  0  0  0
  1 15  2  0  0  0  0
  2  9  1  0  0  0  0
  2 10  1  0  0  0  0
  2 13  1  0  0  0  0
  3 11  1  0  0  0  0
  3 12  1  0  0  0  0
  3 15  1  0  0  0  0
  4 29  1  0  0  0  0
  4 34  2  0  0  0  0
  5 32  3  0  0  0  0
  6  8  1  0  0  0  0
  6  9  1  0  0  0  0
  6 11  1  0  0  0  0
  6 36  1  0  0  0  0
  7  8  1  0  0  0  0
  7 10  1  0  0  0  0
  7 12  1  0  0  0  0
  7 37  1  0  0  0  0
  8 38  1  0  0  0  0
  8 39  1  0  0  0  0
  9 40  1  0  0  0  0
  9 41  1  0  0  0  0
 10 42  1  0  0  0  0
 10 43  1  0  0  0  0
 11 44  1  0  0  0  0
 11 45  1  0  0  0  0
 12 14  2  0  0  0  0
 13 18  1  0  0  0  0
 13 46  1  0  0  0  0
 13 47  1  0  0  0  0
 14 17  1  0  0  0  0
 14 48  1  0  0  0  0
 15 16  1  0  0  0  0
 16 17  2  0  0  0  0
 16 19  1  0  0  0  0
 17 49  1  0  0  0  0
 18 20  2  0  0  0  0
 18 21  1  0  0  0  0
 19 24  1  0  0  0  0
 19 25  2  0  0  0  0
 20 22  1  0  0  0  0
 20 50  1  0  0  0  0
 21 23  2  0  0  0  0
 21 51  1  0  0  0  0
 22 26  2  0  0  0  0
 22 52  1  0  0  0  0
 23 26  1  0  0  0  0
 23 53  1  0  0  0  0
 24 27  2  0  0  0  0
 24 54  1  0  0  0  0
 25 28  1  0  0  0  0
 25 55  1  0  0  0  0
 26 29  1  0  0  0  0
 27 30  1  0  0  0  0
 27 32  1  0  0  0  0
 28 30  2  0  0  0  0
 28 56  1  0  0  0  0
 29 31  2  0  0  0  0
 30 57  1  0  0  0  0
 31 33  1  0  0  0  0
 31 58  1  0  0  0  0
 33 35  2  0  0  0  0
 33 59  1  0  0  0  0
 34 35  1  0  0  0  0
 34 60  1  0  0  0  0
 35 61  1  0  0  0  0
M  END
> <PUBCHEM_COMPOUND_CID>
40533517

> <PUBCHEM_CONFORMER_RMSD>
0.8

> <PUBCHEM_CONFORMER_DIVERSEORDER>
1
44
64
30
70
47
45
19
31
54
39
55
46
58
51
24
57
28
36
49
69
56
48
37
29
13
60
34
22
27
20
18
66
59
42
65
8
41
5
50
52
62
11
32
38
21
67
61
15
6
26
53
10
23
33
9
2
68
16
14
40
12
7
4
35
43
17
63
3
25

> <PUBCHEM_MMFF94_PARTIAL_CHARGES>
46
1 -0.57
10 0.27
11 0.3
12 -0.03
13 0.41
14 -0.15
15 0.62
16 -0.01
17 -0.15
18 -0.14
19 0.03
2 -0.81
20 -0.15
21 -0.15
22 -0.15
23 -0.15
24 -0.15
25 -0.15
27 0.07
28 -0.15
29 0.31
3 -0.47
30 -0.15
31 -0.15
32 0.48
33 -0.15
34 0.16
35 -0.15
4 -0.62
48 0.15
49 0.15
5 -0.56
50 0.15
51 0.15
52 0.15
53 0.15
54 0.15
55 0.15
56 0.15
57 0.15
58 0.15
59 0.15
60 0.15
61 0.15
7 0.14
9 0.27

> <PUBCHEM_EFFECTIVE_ROTOR_COUNT>
5

> <PUBCHEM_PHARMACOPHORE_FEATURES>
10
1 1 acceptor
1 2 cation
1 4 acceptor
1 5 acceptor
6 18 20 21 22 23 26 rings
6 19 24 25 27 28 30 rings
6 2 6 7 8 9 10 rings
6 3 12 14 15 16 17 rings
6 3 6 7 8 11 12 rings
6 4 29 31 33 34 35 rings

> <PUBCHEM_HEAVY_ATOM_COUNT>
35

> <PUBCHEM_ATOM_DEF_STEREO_COUNT>
2

> <PUBCHEM_ATOM_UDEF_STEREO_COUNT>
0

> <PUBCHEM_BOND_DEF_STEREO_COUNT>
0

> <PUBCHEM_BOND_UDEF_STEREO_COUNT>
0

> <PUBCHEM_ISOTOPIC_ATOM_COUNT>
0

> <PUBCHEM_COMPONENT_COUNT>
1

> <PUBCHEM_CACTVS_TAUTO_COUNT>
3

> <PUBCHEM_CONFORMER_ID>
026A7E0D00000001

> <PUBCHEM_MMFF94_ENERGY>
100.7697

> <PUBCHEM_FEATURE_SELFOVERLAP>
52.303

> <PUBCHEM_SHAPE_FINGERPRINT>
10254770 206 17905030470699982987
10439779 11 18334564772574155410
10622 236 17248086510683149482
10675989 125 18194400224249769795
10928967 22 18193859053737539323
11069576 57 18265059200562932349
11093857 51 17753909507547476684
11285246 1 18261960635288681787
11552529 35 17833555592196916308
11991303 11 17397551287017556284
12107183 9 18129118762056063625
12218070 45 16674980295442483962
12969540 37 18411417319530032188
13150687 139 17469337284277110476
13165053 137 15448866428115039755
13553639 21 18119531196149900523
1361 2 17979634864385115713
14904385 45 18336558166033748811
15320294 125 16962952303366852626
15968369 26 17978207672665325347
17492 89 18413673526090166453
18365409 1 16967739048502683693
19315092 285 17774728661598424473
19611394 137 17552341191632943114
20028762 73 18198906005963191340
20775438 99 18122900099898218019
20775530 9 18340209566106327877
21703447 108 18340480157820338475
22440779 20 14976326202210353428
22956985 138 18412542103204112248
23516275 137 16119421752908544853
25222932 49 17700133493930181373
354706 35 17825958301239319673
4017518 198 16535109187593451780
404807 78 17106223599114278043
44344687 77 18261968452931624491
4573279 79 17245781041010452994
463206 1 18266187119156670395
4756261 7 18122310667592350794
50080093 196 17767105876369762007
6201320 77 14976893579927041078
86090 222 17406563979433948843

> <PUBCHEM_SHAPE_MULTIPOLES>
694.49
12.23
8.99
1.71
19.22
1.86
0.12
17.14
-2.08
-6.89
2.44
-1.5
0.6
-1.92

> <PUBCHEM_SHAPE_SELFOVERLAP>
1545.485

> <PUBCHEM_SHAPE_VOLUME>
359.6

> <PUBCHEM_COORDINATE_TYPE>
2
5
10

$$$$
