51137781
  -OEChem-12032416243D

 48 51  0     1  0  0  0  0  0999 V2000
   -0.0993    1.5697   -0.2499 O   0  0  0  0  0  0  0  0  0  0  0  0
    2.9256   -0.9341    2.4686 O   0  0  0  0  0  0  0  0  0  0  0  0
    2.7877    0.7729    0.8999 N   0  0  0  0  0  0  0  0  0  0  0  0
   -0.1753    3.6850   -0.9738 N   0  0  0  0  0  0  0  0  0  0  0  0
   -1.4673    3.1939   -0.9533 N   0  0  0  0  0  0  0  0  0  0  0  0
    4.3873   -1.3109   -0.4694 N   0  0  0  0  0  0  0  0  0  0  0  0
   -5.3679   -1.9231    0.3385 N   0  0  0  0  0  0  0  0  0  0  0  0
    2.0964    2.6620   -0.3718 C   0  0  1  0  0  0  0  0  0  0  0  0
    2.5081    3.1116    1.0387 C   0  0  0  0  0  0  0  0  0  0  0  0
    2.7622    1.2823   -0.4723 C   0  0  0  0  0  0  0  0  0  0  0  0
    2.4810    1.8265    1.8549 C   0  0  0  0  0  0  0  0  0  0  0  0
    0.5891    2.7034   -0.5555 C   0  0  0  0  0  0  0  0  0  0  0  0
    2.9854   -0.5375    1.3065 C   0  0  0  0  0  0  0  0  0  0  0  0
    3.2751   -1.5357    0.2653 C   0  0  0  0  0  0  0  0  0  0  0  0
   -1.3748    1.9568   -0.5247 C   0  0  0  0  0  0  0  0  0  0  0  0
   -2.3913    0.9691   -0.3050 C   0  0  0  0  0  0  0  0  0  0  0  0
    2.4328   -2.6211    0.0855 C   0  0  0  0  0  0  0  0  0  0  0  0
   -3.7283    1.2756   -0.5588 C   0  0  0  0  0  0  0  0  0  0  0  0
   -2.0429   -0.2983    0.1620 C   0  0  0  0  0  0  0  0  0  0  0  0
   -4.3682   -0.9523    0.1217 C   0  0  0  0  0  0  0  0  0  0  0  0
   -4.7167    0.3150   -0.3455 C   0  0  0  0  0  0  0  0  0  0  0  0
   -3.0314   -1.2590    0.3754 C   0  0  0  0  0  0  0  0  0  0  0  0
    2.7529   -3.5347   -0.9126 C   0  0  0  0  0  0  0  0  0  0  0  0
    4.6662   -2.2201   -1.4303 C   0  0  0  0  0  0  0  0  0  0  0  0
    3.8893   -3.3377   -1.6893 C   0  0  0  0  0  0  0  0  0  0  0  0
   -5.0157   -3.2455    0.8164 C   0  0  0  0  0  0  0  0  0  0  0  0
   -6.7600   -1.6140    0.0788 C   0  0  0  0  0  0  0  0  0  0  0  0
    2.5201    3.3343   -1.1276 H   0  0  0  0  0  0  0  0  0  0  0  0
    3.5348    3.4982    1.0084 H   0  0  0  0  0  0  0  0  0  0  0  0
    1.8675    3.8884    1.4675 H   0  0  0  0  0  0  0  0  0  0  0  0
    3.8041    1.3822   -0.7970 H   0  0  0  0  0  0  0  0  0  0  0  0
    2.2439    0.5895   -1.1420 H   0  0  0  0  0  0  0  0  0  0  0  0
    1.4853    1.6287    2.2671 H   0  0  0  0  0  0  0  0  0  0  0  0
    3.2055    1.8244    2.6748 H   0  0  0  0  0  0  0  0  0  0  0  0
    1.5469   -2.7635    0.6953 H   0  0  0  0  0  0  0  0  0  0  0  0
   -4.0220    2.2571   -0.9234 H   0  0  0  0  0  0  0  0  0  0  0  0
   -1.0120   -0.5739    0.3708 H   0  0  0  0  0  0  0  0  0  0  0  0
   -5.7417    0.6022   -0.5578 H   0  0  0  0  0  0  0  0  0  0  0  0
   -2.7097   -2.2297    0.7395 H   0  0  0  0  0  0  0  0  0  0  0  0
    2.1176   -4.3982   -1.0855 H   0  0  0  0  0  0  0  0  0  0  0  0
    5.5625   -2.0205   -2.0082 H   0  0  0  0  0  0  0  0  0  0  0  0
    4.1581   -4.0366   -2.4731 H   0  0  0  0  0  0  0  0  0  0  0  0
   -4.3522   -3.7578    0.1108 H   0  0  0  0  0  0  0  0  0  0  0  0
   -4.5376   -3.1962    1.8011 H   0  0  0  0  0  0  0  0  0  0  0  0
   -5.8995   -3.8831    0.9315 H   0  0  0  0  0  0  0  0  0  0  0  0
   -7.1067   -0.7881    0.7100 H   0  0  0  0  0  0  0  0  0  0  0  0
   -6.9197   -1.3628   -0.9757 H   0  0  0  0  0  0  0  0  0  0  0  0
   -7.4119   -2.4671    0.2977 H   0  0  0  0  0  0  0  0  0  0  0  0
  1 12  1  0  0  0  0
  1 15  1  0  0  0  0
  2 13  2  0  0  0  0
  3 10  1  0  0  0  0
  3 11  1  0  0  0  0
  3 13  1  0  0  0  0
  4  5  1  0  0  0  0
  4 12  2  0  0  0  0
  5 15  2  0  0  0  0
  6 14  1  0  0  0  0
  6 24  2  0  0  0  0
  7 20  1  0  0  0  0
  7 26  1  0  0  0  0
  7 27  1  0  0  0  0
  8  9  1  0  0  0  0
  8 10  1  0  0  0  0
  8 12  1  0  0  0  0
  8 28  1  0  0  0  0
  9 11  1  0  0  0  0
  9 29  1  0  0  0  0
  9 30  1  0  0  0  0
 10 31  1  0  0  0  0
 10 32  1  0  0  0  0
 11 33  1  0  0  0  0
 11 34  1  0  0  0  0
 13 14  1  0  0  0  0
 14 17  2  0  0  0  0
 15 16  1  0  0  0  0
 16 18  2  0  0  0  0
 16 19  1  0  0  0  0
 17 23  1  0  0  0  0
 17 35  1  0  0  0  0
 18 21  1  0  0  0  0
 18 36  1  0  0  0  0
 19 22  2  0  0  0  0
 19 37  1  0  0  0  0
 20 21  2  0  0  0  0
 20 22  1  0  0  0  0
 21 38  1  0  0  0  0
 22 39  1  0  0  0  0
 23 25  2  0  0  0  0
 23 40  1  0  0  0  0
 24 25  1  0  0  0  0
 24 41  1  0  0  0  0
 25 42  1  0  0  0  0
 26 43  1  0  0  0  0
 26 44  1  0  0  0  0
 26 45  1  0  0  0  0
 27 46  1  0  0  0  0
 27 47  1  0  0  0  0
 27 48  1  0  0  0  0
M  END
> <PUBCHEM_COMPOUND_CID>
51137781

> <PUBCHEM_CONFORMER_RMSD>
0.8

> <PUBCHEM_CONFORMER_DIVERSEORDER>
1
46
69
66
101
81
89
97
9
72
44
92
22
61
65
63
86
41
15
29
60
78
102
90
84
51
67
32
95
23
5
31
70
64
73
45
106
20
36
75
47
59
93
74
107
48
55
94
49
4
77
85
8
18
25
13
35
30
104
2
42
3
99
100
71
105
6
96
54
53
37
88
56
7
19
39
58
11
24
62
43
14
27
79
33
103
40
98
68
12
26
10
21
17
91
82
50
34
87
57
80
38
76
16
28
83
52

> <PUBCHEM_MMFF94_PARTIAL_CHARGES>
34
1 -0.28
10 0.3
11 0.3
12 0.3
13 0.54
14 0.4
15 0.43
16 0.05
17 -0.15
18 -0.15
19 -0.15
2 -0.57
20 0.1
21 -0.15
22 -0.15
23 -0.15
24 0.16
25 -0.15
26 0.37
27 0.37
3 -0.66
35 0.15
36 0.15
37 0.15
38 0.15
39 0.15
4 -0.34
40 0.15
41 0.15
42 0.15
5 -0.34
6 -0.62
7 -0.84
8 0.18

> <PUBCHEM_EFFECTIVE_ROTOR_COUNT>
6

> <PUBCHEM_PHARMACOPHORE_FEATURES>
7
1 2 acceptor
1 6 acceptor
1 7 cation
5 1 4 5 12 15 rings
5 3 8 9 10 11 rings
6 16 18 19 20 21 22 rings
6 6 14 17 23 24 25 rings

> <PUBCHEM_HEAVY_ATOM_COUNT>
27

> <PUBCHEM_ATOM_DEF_STEREO_COUNT>
1

> <PUBCHEM_ATOM_UDEF_STEREO_COUNT>
0

> <PUBCHEM_BOND_DEF_STEREO_COUNT>
0

> <PUBCHEM_BOND_UDEF_STEREO_COUNT>
0

> <PUBCHEM_ISOTOPIC_ATOM_COUNT>
0

> <PUBCHEM_COMPONENT_COUNT>
1

> <PUBCHEM_CACTVS_TAUTO_COUNT>
1

> <PUBCHEM_CONFORMER_ID>
030C4CF500000001

> <PUBCHEM_MMFF94_ENERGY>
80.2293

> <PUBCHEM_FEATURE_SELFOVERLAP>
35.523

> <PUBCHEM_SHAPE_FINGERPRINT>
10653451 467 18342736373757339754
10928967 22 18042690511697255859
114674 6 18336543901829731930
12107183 9 18198922314165128353
12623949 98 18202571691192417695
13150687 139 17535488220757242236
13402501 40 18409165511083759578
13533116 47 18201440324414367841
1361 2 18266739271847925539
13785724 45 18338248111051955509
13911882 115 18272080557838506874
13989917 61 18194689391819642183
14251740 57 18341614858199910831
14251757 5 17905617601081429524
14363568 33 18202281399328096068
14681488 357 18411987965885168487
14863182 85 18191306185654966412
14866123 147 17836933300349675441
15003188 105 17894901958178323890
15484559 13 16881329404786032796
15664445 248 17386575802428144884
15927050 60 16679225019899883068
17859628 70 18343021129197630844
17909252 39 18411707603262224552
1813 80 16805594915558666749
1979834 28 18268987768493481401
20028762 73 17691970779540013087
20645477 70 18261951959175122657
20765182 114 18413668024411211727
20775530 9 18342452595501914123
21197605 99 17686341275547523563
21279426 13 18187916284586095333
21307412 95 18124032326211896717
21344244 181 17982755227288924284
22849339 104 17901948534827167141
23428019 142 16183005977851684982
23466295 7 17551807914969804574
23559900 14 18409446964585458573
239999 70 18188204424444700952
3117164 225 18270975527246782521
3421961 26 18412547634393469677
34797466 226 11746925487569251609
3737641 26 18272094851310332748
437795 139 17479202781738521918
4461854 278 17979363284813322810
4573279 150 17827681091033802131
46194498 28 18409169939210645038
49967989 163 16185828449886146510
5309563 4 18411703166661611375
57307002 29 17755592542111763949
58260988 521 18271225198348946960
613672 6 18265594564125774029
6287921 2 18272083963099063762
6823239 73 18411698747303683562
9980921 177 17630071303644389907
9980921 52 17702358764021543431

> <PUBCHEM_SHAPE_MULTIPOLES>
519
12.17
5.13
1.43
16.01
0.12
-0.52
-12.07
-0.12
-3.1
1.37
-1.76
-0.14
3.06

> <PUBCHEM_SHAPE_SELFOVERLAP>
1129.185

> <PUBCHEM_SHAPE_VOLUME>
284.2

> <PUBCHEM_COORDINATE_TYPE>
2
5
10

$$$$
