56775131
  -OEChem-12032416213D

 48 51  0     1  0  0  0  0  0999 V2000
   -3.6391   -4.1475   -0.6809 F   0  0  0  0  0  0  0  0  0  0  0  0
   -1.6255   -3.6005   -0.0696 F   0  0  0  0  0  0  0  0  0  0  0  0
   -3.2127   -3.7052    1.4048 F   0  0  0  0  0  0  0  0  0  0  0  0
    0.9690    3.5283   -0.5820 O   0  0  0  0  0  0  0  0  0  0  0  0
   -2.2190    4.3439    0.6782 O   0  0  0  0  0  0  0  0  0  0  0  0
    1.9631    0.5189    0.3182 N   0  0  1  0  0  0  0  0  0  0  0  0
   -1.2541    2.2426    0.4146 N   0  0  0  0  0  0  0  0  0  0  0  0
    6.2370   -0.8640   -0.6644 N   0  0  0  0  0  0  0  0  0  0  0  0
   -0.1231    1.4434   -0.0485 C   0  0  1  0  0  0  0  0  0  0  0  0
    0.8371    2.1679   -0.9866 C   0  0  2  0  0  0  0  0  0  0  0  0
    0.8064    0.9951    1.0759 C   0  0  0  0  0  0  0  0  0  0  0  0
    2.1893    1.4819   -0.7674 C   0  0  0  0  0  0  0  0  0  0  0  0
    3.1380    0.3187    1.1515 C   0  0  0  0  0  0  0  0  0  0  0  0
   -1.3313    3.6193    0.2261 C   0  0  0  0  0  0  0  0  0  0  0  0
   -2.2811    1.5526    1.1842 C   0  0  0  0  0  0  0  0  0  0  0  0
   -0.2639    4.2036   -0.6741 C   0  0  0  0  0  0  0  0  0  0  0  0
    4.1374   -0.5952    0.5036 C   0  0  0  0  0  0  0  0  0  0  0  0
   -2.9541    0.4752    0.3841 C   0  0  0  0  0  0  0  0  0  0  0  0
   -2.6464   -0.8647    0.6205 C   0  0  0  0  0  0  0  0  0  0  0  0
   -3.8871    0.8141   -0.5961 C   0  0  0  0  0  0  0  0  0  0  0  0
    3.9262   -1.9687    0.4550 C   0  0  0  0  0  0  0  0  0  0  0  0
    5.2984   -0.0973   -0.0656 C   0  0  0  0  0  0  0  0  0  0  0  0
   -3.2717   -1.8657   -0.1230 C   0  0  0  0  0  0  0  0  0  0  0  0
   -4.5122   -0.1869   -1.3398 C   0  0  0  0  0  0  0  0  0  0  0  0
    4.8690   -2.7905   -0.1526 C   0  0  0  0  0  0  0  0  0  0  0  0
   -4.2047   -1.5268   -1.1032 C   0  0  0  0  0  0  0  0  0  0  0  0
    5.9973   -2.1942   -0.6924 C   0  0  0  0  0  0  0  0  0  0  0  0
   -2.9425   -3.2984    0.1293 C   0  0  0  0  0  0  0  0  0  0  0  0
   -0.5036    0.5637   -0.5826 H   0  0  0  0  0  0  0  0  0  0  0  0
    0.5191    2.1216   -2.0348 H   0  0  0  0  0  0  0  0  0  0  0  0
    0.3652    0.1946    1.6778 H   0  0  0  0  0  0  0  0  0  0  0  0
    1.0612    1.8327    1.7387 H   0  0  0  0  0  0  0  0  0  0  0  0
    2.4899    0.9355   -1.6679 H   0  0  0  0  0  0  0  0  0  0  0  0
    2.9668    2.2194   -0.5338 H   0  0  0  0  0  0  0  0  0  0  0  0
    2.8454   -0.1578    2.0980 H   0  0  0  0  0  0  0  0  0  0  0  0
    3.6031    1.2697    1.4444 H   0  0  0  0  0  0  0  0  0  0  0  0
   -3.0415    2.2593    1.5372 H   0  0  0  0  0  0  0  0  0  0  0  0
   -1.8146    1.1441    2.0883 H   0  0  0  0  0  0  0  0  0  0  0  0
   -0.6260    4.2028   -1.7085 H   0  0  0  0  0  0  0  0  0  0  0  0
   -0.0945    5.2427   -0.3743 H   0  0  0  0  0  0  0  0  0  0  0  0
   -1.9197   -1.1341    1.3831 H   0  0  0  0  0  0  0  0  0  0  0  0
   -4.1346    1.8546   -0.7892 H   0  0  0  0  0  0  0  0  0  0  0  0
    3.0316   -2.4093    0.8867 H   0  0  0  0  0  0  0  0  0  0  0  0
    5.5195    0.9656   -0.0609 H   0  0  0  0  0  0  0  0  0  0  0  0
   -5.2383    0.0772   -2.1030 H   0  0  0  0  0  0  0  0  0  0  0  0
    4.7252   -3.8637   -0.2022 H   0  0  0  0  0  0  0  0  0  0  0  0
   -4.7028   -2.2909   -1.6934 H   0  0  0  0  0  0  0  0  0  0  0  0
    6.7627   -2.7911   -1.1773 H   0  0  0  0  0  0  0  0  0  0  0  0
  1 28  1  0  0  0  0
  2 28  1  0  0  0  0
  3 28  1  0  0  0  0
  4 10  1  0  0  0  0
  4 16  1  0  0  0  0
  5 14  2  0  0  0  0
  6 11  1  0  0  0  0
  6 12  1  0  0  0  0
  6 13  1  0  0  0  0
  7  9  1  0  0  0  0
  7 14  1  0  0  0  0
  7 15  1  0  0  0  0
  8 22  1  0  0  0  0
  8 27  2  0  0  0  0
  9 10  1  0  0  0  0
  9 11  1  0  0  0  0
  9 29  1  0  0  0  0
 10 12  1  0  0  0  0
 10 30  1  0  0  0  0
 11 31  1  0  0  0  0
 11 32  1  0  0  0  0
 12 33  1  0  0  0  0
 12 34  1  0  0  0  0
 13 17  1  0  0  0  0
 13 35  1  0  0  0  0
 13 36  1  0  0  0  0
 14 16  1  0  0  0  0
 15 18  1  0  0  0  0
 15 37  1  0  0  0  0
 15 38  1  0  0  0  0
 16 39  1  0  0  0  0
 16 40  1  0  0  0  0
 17 21  1  0  0  0  0
 17 22  2  0  0  0  0
 18 19  2  0  0  0  0
 18 20  1  0  0  0  0
 19 23  1  0  0  0  0
 19 41  1  0  0  0  0
 20 24  2  0  0  0  0
 20 42  1  0  0  0  0
 21 25  2  0  0  0  0
 21 43  1  0  0  0  0
 22 44  1  0  0  0  0
 23 26  2  0  0  0  0
 23 28  1  0  0  0  0
 24 26  1  0  0  0  0
 24 45  1  0  0  0  0
 25 27  1  0  0  0  0
 25 46  1  0  0  0  0
 26 47  1  0  0  0  0
 27 48  1  0  0  0  0
M  END
> <PUBCHEM_COMPOUND_CID>
56775131

> <PUBCHEM_CONFORMER_RMSD>
0.8

> <PUBCHEM_CONFORMER_DIVERSEORDER>
2
161
43
377
23
240
226
185
90
370
256
27
367
171
13
16
275
87
193
150
316
368
342
359
363
108
334
282
211
264
40
10
175
274
352
169
340
362
157
376
125
39
360
268
315
41
361
225
366
99
19
308
323
281
215
174
44
38
212
86
332
247
273
70
130
145
246
373
228
307
113
330
262
11
206
172
97
232
103
365
288
337
115
364
132
231
299
335
265
35
164
127
69
303
137
353
160
135
358
379
68
37
304
85
300
357
279
306
51
197
33
111
76
128
375
101
295
78
88
141
209
243
75
237
223
251
338
199
42
291
89
311
187
170
241
317
344
325
32
286
324
283
314
208
326
271
123
234
102
194
298
218
236
203
163
217
71
73
277
280
220
29
52
159
331
254
287
327
80
347
8
266
50
81
292
74
380
257
129
162
285
45
318
31
66
294
56
49
216
25
182
238
258
255
84
152
64
293
144
7
198
58
72
46
195
148
176
374
214
207
112
381
26
355
138
351
9
245
67
328
14
227
235
188
63
110
173
60
104
77
165
296
168
224
239
179
117
181
6
57
242
309
36
178
53
62
263
302
221
22
329
356
312
24
371
79
143
320
48
244
289
126
124
260
200
122
345
210
120
134
322
201
297
350
107
121
95
153
276
140
118
93
156
146
183
343
192
180
348
4
321
253
94
61
278
349
259
272
339
151
270
5
333
109
196
136
222
202
1
15
98
92
305
133
17
100
147
267
284
149
116
261
205
54
114
346
18
372
30
106
249
59
47
204
119
310
378
336
190
105
55
3
21
154
341
313
219
28
252
269
250
96
184
230
233
83
12
186
301
139
369
20
248
177
131
82
319
354
34
213
167
189
155
91
65
229
191
166
158
290
142

> <PUBCHEM_MMFF94_PARTIAL_CHARGES>
36
1 -0.34
10 0.28
11 0.27
12 0.27
13 0.41
14 0.57
15 0.44
16 0.34
17 -0.14
18 -0.14
19 -0.15
2 -0.34
20 -0.15
21 -0.15
22 0.16
23 -0.14
24 -0.15
25 -0.15
26 -0.15
27 0.16
28 1.16
3 -0.34
4 -0.56
41 0.15
42 0.15
43 0.15
44 0.15
45 0.15
46 0.15
47 0.15
48 0.15
5 -0.57
6 -0.81
7 -0.66
8 -0.62
9 0.3

> <PUBCHEM_EFFECTIVE_ROTOR_COUNT>
6.2

> <PUBCHEM_PHARMACOPHORE_FEATURES>
8
1 4 acceptor
1 5 acceptor
1 6 cation
1 8 acceptor
5 6 9 10 11 12 rings
6 18 19 20 23 24 26 rings
6 4 7 9 10 14 16 rings
6 8 17 21 22 25 27 rings

> <PUBCHEM_HEAVY_ATOM_COUNT>
28

> <PUBCHEM_ATOM_DEF_STEREO_COUNT>
2

> <PUBCHEM_ATOM_UDEF_STEREO_COUNT>
0

> <PUBCHEM_BOND_DEF_STEREO_COUNT>
0

> <PUBCHEM_BOND_UDEF_STEREO_COUNT>
0

> <PUBCHEM_ISOTOPIC_ATOM_COUNT>
0

> <PUBCHEM_COMPONENT_COUNT>
1

> <PUBCHEM_CACTVS_TAUTO_COUNT>
2

> <PUBCHEM_CONFORMER_ID>
036251DB00000002

> <PUBCHEM_MMFF94_ENERGY>
71.093

> <PUBCHEM_FEATURE_SELFOVERLAP>
40.751

> <PUBCHEM_SHAPE_FINGERPRINT>
10042902 136 18341898493750601230
10483366 6 18265880369068095621
10871710 139 18121496856693393691
11014199 57 18337958999006389498
11056379 131 18267587893018952676
11069576 57 17620180366627071223
11135609 12 18263651821484456547
11135926 11 18120377819707057524
11315621 246 18338249159113634102
11552529 35 18199748047023080408
12107183 9 18269010824785554323
12596602 18 13973382661508478198
12788726 201 18265041453667965539
12969540 37 18194394713727763608
14251757 5 18333727983614918111
14444916 359 17477786584289806472
14461889 52 18130209503529432682
14659021 117 18336538335752413960
14866123 147 18197215854653827913
14910302 57 18270949143029944410
15230672 131 17616824228370973126
15250474 111 18190454953497257986
15927050 60 17549818889966880469
16628084 112 17974562499477049451
17492 89 18121779697259246959
17909252 39 18121507014206510168
19246450 95 10230100711155789174
19958102 18 18118107100646251613
20775438 99 17190339486152097719
20775530 9 18264483052148727139
21133410 32 15938402475343812330
23379529 103 18338517563645285550
23559900 14 18340475776711564905
3027735 51 18052803772562959261
4280585 95 18334846234749560864
463206 1 18334297582183092234
508706 21 18199477558430372734
56633871 153 18341622572320260819
59755656 520 17839457796037579409
613672 6 18266437970826844947
6201320 77 16196818301012873310
6433294 58 17688588681614555899
7970288 3 18340204197397591399

> <PUBCHEM_SHAPE_MULTIPOLES>
527.72
11.77
5.79
1.12
16.65
0.24
0.04
-10.89
-2.39
-5.38
-0.16
-0.41
0.02
-0.23

> <PUBCHEM_SHAPE_SELFOVERLAP>
1145.201

> <PUBCHEM_SHAPE_VOLUME>
289.8

> <PUBCHEM_COORDINATE_TYPE>
2
5
10

$$$$
