7143831
  -OEChem-12032416113D

 54 57  0     1  0  0  0  0  0999 V2000
   -7.0818    0.6737   -0.0322 S   0  0  0  0  0  0  0  0  0  0  0  0
   -0.9222   -1.0412    1.8210 O   0  0  0  0  0  0  0  0  0  0  0  0
    3.3848    2.0741    1.2354 O   0  0  0  0  0  0  0  0  0  0  0  0
    1.7494    3.7546   -0.0455 O   0  0  0  0  0  0  0  0  0  0  0  0
    3.6677    0.0614    0.1094 N   0  0  0  0  0  0  0  0  0  0  0  0
    0.9199   -1.5239    0.4744 N   0  0  0  0  0  0  0  0  0  0  0  0
    3.2414   -2.0094    1.4391 C   0  0  1  0  0  0  0  0  0  0  0  0
    2.9013   -2.0315   -0.9960 C   0  0  2  0  0  0  0  0  0  0  0  0
    3.4371   -2.8452    0.1800 C   0  0  0  0  0  0  0  0  0  0  0  0
    4.0049   -0.6782    1.3273 C   0  0  0  0  0  0  0  0  0  0  0  0
    1.7398   -1.7954    1.6631 C   0  0  0  0  0  0  0  0  0  0  0  0
    3.7097   -0.7262   -1.1318 C   0  0  0  0  0  0  0  0  0  0  0  0
    1.4304   -1.7083   -0.8126 C   0  0  0  0  0  0  0  0  0  0  0  0
    0.6290   -1.5713   -1.8809 C   0  0  0  0  0  0  0  0  0  0  0  0
   -0.4271   -1.1786    0.7009 C   0  0  0  0  0  0  0  0  0  0  0  0
    3.4157    1.4314    0.1829 C   0  0  0  0  0  0  0  0  0  0  0  0
   -1.2913   -0.9956   -0.5176 C   0  0  0  0  0  0  0  0  0  0  0  0
   -0.7500   -1.2044   -1.7270 C   0  0  0  0  0  0  0  0  0  0  0  0
    3.1612    2.1423   -1.1223 C   0  0  0  0  0  0  0  0  0  0  0  0
   -2.7023   -0.5888   -0.3985 C   0  0  0  0  0  0  0  0  0  0  0  0
    2.9082    3.6108   -0.8572 C   0  0  0  0  0  0  0  0  0  0  0  0
   -3.7013   -1.5567   -0.2895 C   0  0  0  0  0  0  0  0  0  0  0  0
   -3.0410    0.7649   -0.3951 C   0  0  0  0  0  0  0  0  0  0  0  0
   -5.0373   -1.1716   -0.1773 C   0  0  0  0  0  0  0  0  0  0  0  0
   -4.3770    1.1500   -0.2828 C   0  0  0  0  0  0  0  0  0  0  0  0
   -5.3751    0.1818   -0.1740 C   0  0  0  0  0  0  0  0  0  0  0  0
    1.4625    5.1216    0.2152 C   0  0  0  0  0  0  0  0  0  0  0  0
   -7.0567    1.6596    1.4917 C   0  0  0  0  0  0  0  0  0  0  0  0
    3.6440   -2.5496    2.3049 H   0  0  0  0  0  0  0  0  0  0  0  0
    3.0398   -2.6215   -1.9114 H   0  0  0  0  0  0  0  0  0  0  0  0
    2.9078   -3.8026    0.2650 H   0  0  0  0  0  0  0  0  0  0  0  0
    4.4993   -3.0767    0.0348 H   0  0  0  0  0  0  0  0  0  0  0  0
    3.8254   -0.0639    2.2161 H   0  0  0  0  0  0  0  0  0  0  0  0
    5.0839   -0.8725    1.2865 H   0  0  0  0  0  0  0  0  0  0  0  0
    1.3188   -2.7066    2.1100 H   0  0  0  0  0  0  0  0  0  0  0  0
    1.5706   -0.9955    2.3950 H   0  0  0  0  0  0  0  0  0  0  0  0
    4.7652   -0.9566   -1.3225 H   0  0  0  0  0  0  0  0  0  0  0  0
    3.3535   -0.1526   -1.9903 H   0  0  0  0  0  0  0  0  0  0  0  0
    1.0025   -1.6993   -2.8915 H   0  0  0  0  0  0  0  0  0  0  0  0
   -1.3292   -1.0851   -2.6380 H   0  0  0  0  0  0  0  0  0  0  0  0
    2.2733    1.7013   -1.5882 H   0  0  0  0  0  0  0  0  0  0  0  0
    4.0276    2.0250   -1.7805 H   0  0  0  0  0  0  0  0  0  0  0  0
    2.7465    4.1257   -1.8115 H   0  0  0  0  0  0  0  0  0  0  0  0
    3.7697    4.0727   -0.3592 H   0  0  0  0  0  0  0  0  0  0  0  0
   -3.4536   -2.6155   -0.2897 H   0  0  0  0  0  0  0  0  0  0  0  0
   -2.2742    1.5313   -0.4800 H   0  0  0  0  0  0  0  0  0  0  0  0
   -5.8013   -1.9405   -0.0932 H   0  0  0  0  0  0  0  0  0  0  0  0
   -4.6170    2.2103   -0.2896 H   0  0  0  0  0  0  0  0  0  0  0  0
    2.2905    5.5911    0.7551 H   0  0  0  0  0  0  0  0  0  0  0  0
    0.5664    5.1719    0.8394 H   0  0  0  0  0  0  0  0  0  0  0  0
    1.2680    5.6581   -0.7185 H   0  0  0  0  0  0  0  0  0  0  0  0
   -8.0793    1.9504    1.7463 H   0  0  0  0  0  0  0  0  0  0  0  0
   -6.4621    2.5667    1.3566 H   0  0  0  0  0  0  0  0  0  0  0  0
   -6.6441    1.0733    2.3173 H   0  0  0  0  0  0  0  0  0  0  0  0
  1 26  1  0  0  0  0
  1 28  1  0  0  0  0
  2 15  2  0  0  0  0
  3 16  2  0  0  0  0
  4 21  1  0  0  0  0
  4 27  1  0  0  0  0
  5 10  1  0  0  0  0
  5 12  1  0  0  0  0
  5 16  1  0  0  0  0
  6 11  1  0  0  0  0
  6 13  1  0  0  0  0
  6 15  1  0  0  0  0
  7  9  1  0  0  0  0
  7 10  1  0  0  0  0
  7 11  1  0  0  0  0
  7 29  1  0  0  0  0
  8  9  1  0  0  0  0
  8 12  1  0  0  0  0
  8 13  1  0  0  0  0
  8 30  1  0  0  0  0
  9 31  1  0  0  0  0
  9 32  1  0  0  0  0
 10 33  1  0  0  0  0
 10 34  1  0  0  0  0
 11 35  1  0  0  0  0
 11 36  1  0  0  0  0
 12 37  1  0  0  0  0
 12 38  1  0  0  0  0
 13 14  2  0  0  0  0
 14 18  1  0  0  0  0
 14 39  1  0  0  0  0
 15 17  1  0  0  0  0
 16 19  1  0  0  0  0
 17 18  2  0  0  0  0
 17 20  1  0  0  0  0
 18 40  1  0  0  0  0
 19 21  1  0  0  0  0
 19 41  1  0  0  0  0
 19 42  1  0  0  0  0
 20 22  2  0  0  0  0
 20 23  1  0  0  0  0
 21 43  1  0  0  0  0
 21 44  1  0  0  0  0
 22 24  1  0  0  0  0
 22 45  1  0  0  0  0
 23 25  2  0  0  0  0
 23 46  1  0  0  0  0
 24 26  2  0  0  0  0
 24 47  1  0  0  0  0
 25 26  1  0  0  0  0
 25 48  1  0  0  0  0
 27 49  1  0  0  0  0
 27 50  1  0  0  0  0
 27 51  1  0  0  0  0
 28 52  1  0  0  0  0
 28 53  1  0  0  0  0
 28 54  1  0  0  0  0
M  END
> <PUBCHEM_COMPOUND_CID>
7143831

> <PUBCHEM_CONFORMER_RMSD>
0.8

> <PUBCHEM_CONFORMER_DIVERSEORDER>
1
23
16
5
9
13
22
21
7
24
14
10
3
25
15
11
17
20
18
12
6
4
8
2
19

> <PUBCHEM_MMFF94_PARTIAL_CHARGES>
32
1 -0.33
10 0.3
11 0.3
12 0.3
13 -0.03
14 -0.15
15 0.62
16 0.57
17 -0.01
18 -0.15
19 0.06
2 -0.57
20 0.03
21 0.28
22 -0.15
23 -0.15
24 -0.15
25 -0.15
26 0.1
27 0.28
28 0.23
3 -0.57
39 0.15
4 -0.56
40 0.15
45 0.15
46 0.15
47 0.15
48 0.15
5 -0.66
6 -0.47
8 0.14

> <PUBCHEM_EFFECTIVE_ROTOR_COUNT>
7

> <PUBCHEM_PHARMACOPHORE_FEATURES>
8
1 2 acceptor
1 28 hydrophobe
1 3 acceptor
1 4 acceptor
6 20 22 23 24 25 26 rings
6 5 7 8 9 10 12 rings
6 6 13 14 15 17 18 rings
6 6 7 8 9 11 13 rings

> <PUBCHEM_HEAVY_ATOM_COUNT>
28

> <PUBCHEM_ATOM_DEF_STEREO_COUNT>
2

> <PUBCHEM_ATOM_UDEF_STEREO_COUNT>
0

> <PUBCHEM_BOND_DEF_STEREO_COUNT>
0

> <PUBCHEM_BOND_UDEF_STEREO_COUNT>
0

> <PUBCHEM_ISOTOPIC_ATOM_COUNT>
0

> <PUBCHEM_COMPONENT_COUNT>
1

> <PUBCHEM_CACTVS_TAUTO_COUNT>
1

> <PUBCHEM_CONFORMER_ID>
006D019700000001

> <PUBCHEM_MMFF94_ENERGY>
76.9558

> <PUBCHEM_FEATURE_SELFOVERLAP>
42.17

> <PUBCHEM_SHAPE_FINGERPRINT>
10165383 225 17385732417713151606
10483366 6 18337409218536002436
10675989 125 18269559501640406969
10937287 8 17761209217158661852
11578080 2 17678481824518340051
11796584 16 11242249619901726235
12403259 118 18270669986966827647
12422481 6 17980440613282525504
12633257 1 17241588684994216624
13150687 139 10735012037236274354
13533116 47 17822572690606381467
13583140 156 18260838115394682011
13878862 14 18189030080747733557
13944108 23 18335708255866221820
13965767 371 18057011749870908050
14251764 38 18409171008779178273
14251764 75 18047200927201114205
14849402 71 18114179770309465004
15183329 4 12031783652947573195
15238133 3 18187363204172003886
15348495 7 18113908165252055443
15475509 84 17826780448305962556
17844677 252 18411140199934470059
17857418 61 8142082053399572225
17980427 23 17983827212254521562
18681886 176 18342454846624323374
19958102 18 10879991312538790969
21285901 2 14045745910977464122
21315764 268 18261387811606028997
21344244 78 18117819033264130322
21475661 188 18263081174854649228
21591340 35 18055070123325995648
21641784 216 16486986063928501779
21860390 5 18410292523550227196
22122407 14 18338529594645319265
23559900 14 18059299764185020303
249057 3 18342176626694863630
29717793 49 11527941232632675171
3298306 158 18195246856492619445
3411729 13 18337392741843780389
345986 75 17461700815275334898
3493558 16 18342747308211721273
3680242 22 18410860928244437825
397830 11 18042137582630328307
474 4 18263076781250584214
50150288 127 11900958570363332988
5104073 3 18333739026925577571
513532 50 17988651800362677628
54076057 255 18265072296176343052
60111433 81 17273960510292444001
7288768 16 17464807266399671112

> <PUBCHEM_SHAPE_MULTIPOLES>
552.51
13.09
4.35
1.55
27.01
7.3
-0.16
3.31
-2.61
-5.81
0.01
-0.74
-0.55
-1.22

> <PUBCHEM_SHAPE_SELFOVERLAP>
1171.75

> <PUBCHEM_SHAPE_VOLUME>
310.7

> <PUBCHEM_COORDINATE_TYPE>
2
5
10

$$$$
