45784182
  -OEChem-12032416293D

 42 45  0     1  0  0  0  0  0999 V2000
    2.1221    0.0738    1.5020 O   0  0  0  0  0  0  0  0  0  0  0  0
   -2.1516    1.2762   -0.1104 N   0  0  1  0  0  0  0  0  0  0  0  0
    2.0141    0.6032   -0.6992 N   0  0  0  0  0  0  0  0  0  0  0  0
   -0.0015    1.0380    0.7949 C   0  0  1  0  0  0  0  0  0  0  0  0
   -0.2787    2.5246    0.5114 C   0  0  0  0  0  0  0  0  0  0  0  0
   -1.0807    0.2842    0.0061 C   0  0  0  0  0  0  0  0  0  0  0  0
   -1.4710    2.5293   -0.4366 C   0  0  0  0  0  0  0  0  0  0  0  0
   -3.1434    0.9079   -1.1099 C   0  0  0  0  0  0  0  0  0  0  0  0
    1.3996    0.5788    0.4631 C   0  0  0  0  0  0  0  0  0  0  0  0
   -4.1509   -0.0699   -0.5660 C   0  0  0  0  0  0  0  0  0  0  0  0
    3.2487    0.0711   -0.4154 C   0  0  0  0  0  0  0  0  0  0  0  0
    3.3185   -0.2541    0.9312 C   0  0  0  0  0  0  0  0  0  0  0  0
   -3.9185   -1.4414   -0.6697 C   0  0  0  0  0  0  0  0  0  0  0  0
   -5.3170    0.3958    0.0414 C   0  0  0  0  0  0  0  0  0  0  0  0
    4.3638   -0.1720   -1.2300 C   0  0  0  0  0  0  0  0  0  0  0  0
    4.4272   -0.8136    1.5541 C   0  0  0  0  0  0  0  0  0  0  0  0
    5.5025   -0.7364   -0.6369 C   0  0  0  0  0  0  0  0  0  0  0  0
    5.5310   -1.0499    0.7275 C   0  0  0  0  0  0  0  0  0  0  0  0
   -4.8521   -2.3472   -0.1660 C   0  0  0  0  0  0  0  0  0  0  0  0
   -6.2505   -0.5098    0.5451 C   0  0  0  0  0  0  0  0  0  0  0  0
   -6.0182   -1.8813    0.4414 C   0  0  0  0  0  0  0  0  0  0  0  0
    6.7066   -1.0073   -1.4781 C   0  0  0  0  0  0  0  0  0  0  0  0
   -0.1705    0.8689    1.8680 H   0  0  0  0  0  0  0  0  0  0  0  0
   -0.5410    3.0310    1.4488 H   0  0  0  0  0  0  0  0  0  0  0  0
    0.5776    3.0515    0.0773 H   0  0  0  0  0  0  0  0  0  0  0  0
   -1.3990   -0.6096    0.5528 H   0  0  0  0  0  0  0  0  0  0  0  0
   -0.7051   -0.0284   -0.9774 H   0  0  0  0  0  0  0  0  0  0  0  0
   -2.1097    3.4029   -0.2726 H   0  0  0  0  0  0  0  0  0  0  0  0
   -1.1201    2.5400   -1.4767 H   0  0  0  0  0  0  0  0  0  0  0  0
   -3.6981    1.8020   -1.4281 H   0  0  0  0  0  0  0  0  0  0  0  0
   -2.6866    0.5180   -2.0298 H   0  0  0  0  0  0  0  0  0  0  0  0
   -3.0168   -1.8184   -1.1450 H   0  0  0  0  0  0  0  0  0  0  0  0
   -5.5096    1.4617    0.1309 H   0  0  0  0  0  0  0  0  0  0  0  0
    4.3389    0.0701   -2.2877 H   0  0  0  0  0  0  0  0  0  0  0  0
    4.4388   -1.0528    2.6100 H   0  0  0  0  0  0  0  0  0  0  0  0
    6.4247   -1.4890    1.1665 H   0  0  0  0  0  0  0  0  0  0  0  0
   -4.6717   -3.4150   -0.2477 H   0  0  0  0  0  0  0  0  0  0  0  0
   -7.1583   -0.1473    1.0186 H   0  0  0  0  0  0  0  0  0  0  0  0
   -6.7452   -2.5864    0.8335 H   0  0  0  0  0  0  0  0  0  0  0  0
    7.6280   -0.8665   -0.9028 H   0  0  0  0  0  0  0  0  0  0  0  0
    6.7559   -0.3243   -2.3330 H   0  0  0  0  0  0  0  0  0  0  0  0
    6.6785   -2.0353   -1.8530 H   0  0  0  0  0  0  0  0  0  0  0  0
  1  9  1  0  0  0  0
  1 12  1  0  0  0  0
  2  6  1  0  0  0  0
  2  7  1  0  0  0  0
  2  8  1  0  0  0  0
  3  9  2  0  0  0  0
  3 11  1  0  0  0  0
  4  5  1  0  0  0  0
  4  6  1  0  0  0  0
  4  9  1  0  0  0  0
  4 23  1  0  0  0  0
  5  7  1  0  0  0  0
  5 24  1  0  0  0  0
  5 25  1  0  0  0  0
  6 26  1  0  0  0  0
  6 27  1  0  0  0  0
  7 28  1  0  0  0  0
  7 29  1  0  0  0  0
  8 10  1  0  0  0  0
  8 30  1  0  0  0  0
  8 31  1  0  0  0  0
 10 13  2  0  0  0  0
 10 14  1  0  0  0  0
 11 12  2  0  0  0  0
 11 15  1  0  0  0  0
 12 16  1  0  0  0  0
 13 19  1  0  0  0  0
 13 32  1  0  0  0  0
 14 20  2  0  0  0  0
 14 33  1  0  0  0  0
 15 17  2  0  0  0  0
 15 34  1  0  0  0  0
 16 18  2  0  0  0  0
 16 35  1  0  0  0  0
 17 18  1  0  0  0  0
 17 22  1  0  0  0  0
 18 36  1  0  0  0  0
 19 21  2  0  0  0  0
 19 37  1  0  0  0  0
 20 21  1  0  0  0  0
 20 38  1  0  0  0  0
 21 39  1  0  0  0  0
 22 40  1  0  0  0  0
 22 41  1  0  0  0  0
 22 42  1  0  0  0  0
M  END
> <PUBCHEM_COMPOUND_CID>
45784182

> <PUBCHEM_CONFORMER_RMSD>
0.6

> <PUBCHEM_CONFORMER_DIVERSEORDER>
3
73
51
13
117
102
78
31
122
124
88
84
111
39
46
114
89
119
81
92
1
97
69
118
99
29
80
91
62
94
40
77
82
25
123
41
32
105
101
115
90
34
50
70
30
96
112
120
93
47
16
83
87
20
121
100
86
12
35
79
103
24
23
98
60
116
18
113
36
63
10
28
21
95
42
8
53
108
33
72
76
58
37
67
2
26
74
49
85
7
75
14
66
15
44
38
61
54
43
71
59
11
68
110
19
27
57
48
64
4
22
65
55
109
6
9
104
17
45
106
52
5
107
56

> <PUBCHEM_MMFF94_PARTIAL_CHARGES>
29
1 -0.28
10 -0.14
11 0.23
12 0.14
13 -0.15
14 -0.15
15 -0.15
16 -0.15
17 -0.14
18 -0.15
19 -0.15
2 -0.81
20 -0.15
21 -0.15
22 0.14
3 -0.57
32 0.15
33 0.15
34 0.15
35 0.15
36 0.15
37 0.15
38 0.15
39 0.15
4 0.18
6 0.27
7 0.27
8 0.41
9 0.3

> <PUBCHEM_EFFECTIVE_ROTOR_COUNT>
4

> <PUBCHEM_PHARMACOPHORE_FEATURES>
5
1 2 cation
5 1 3 9 11 12 rings
5 2 4 5 6 7 rings
6 10 13 14 19 20 21 rings
6 11 12 15 16 17 18 rings

> <PUBCHEM_HEAVY_ATOM_COUNT>
22

> <PUBCHEM_ATOM_DEF_STEREO_COUNT>
1

> <PUBCHEM_ATOM_UDEF_STEREO_COUNT>
0

> <PUBCHEM_BOND_DEF_STEREO_COUNT>
0

> <PUBCHEM_BOND_UDEF_STEREO_COUNT>
0

> <PUBCHEM_ISOTOPIC_ATOM_COUNT>
0

> <PUBCHEM_COMPONENT_COUNT>
1

> <PUBCHEM_CACTVS_TAUTO_COUNT>
1

> <PUBCHEM_CONFORMER_ID>
02BA9C7600000003

> <PUBCHEM_MMFF94_ENERGY>
47.1234

> <PUBCHEM_FEATURE_SELFOVERLAP>
25.492

> <PUBCHEM_SHAPE_FINGERPRINT>
10299344 5 17967818245607651515
10622 236 17315892404878067138
10693767 8 17169825575975379138
10928967 22 18262220227592044523
11045515 52 17748821891342462917
11056379 131 18338799987920752885
11089746 13 9655568591587345818
11128504 68 16950281823409651245
11524674 6 17346597478665415863
12166972 35 17748830721952939804
12236239 1 17821728295513634236
12553582 1 18336812170229997187
12592606 108 18337109060403982999
12616971 3 13901895701436630656
12633257 1 15339114662808284477
12760667 363 18201998829103134925
12788726 201 18261388889189438553
12969540 114 13551187796933071377
13103583 49 14908177577312920301
13288520 33 18409450289301472149
13402501 40 18131075926174623087
13673619 4 18202565081211459465
13690498 29 17894625977250255037
13740256 8 18410291441202838913
13941219 33 16486973977315686262
14123256 34 18411989078323662259
14251732 14 18409453583383009340
14251752 14 17967807220342252157
14251757 5 18114466755191601219
14251764 18 13830126209441242793
14251764 30 18412545439981893927
14341114 176 16415477151604057904
14420673 8 18341619230967365079
14466204 15 10664105549471481363
14576447 43 18040150704430179696
14617045 38 18411984641902325639
14767858 380 17458068170538043114
15003188 100 13984952856526635638
15142383 8 14979961328757889058
15183329 4 17167861971696169866
15348495 7 16845283999191467555
15461852 350 11747231164127480232
15537594 2 18260263036780515107
16110190 28 18130502054208414839
17138139 8 17895466037539514626
173720 79 10087645875072571372
17780758 139 17989205950107106409
17844677 252 18412825793872225529
1813 80 18409169935100638717
19141452 34 17131544029089007679
193927 3 18201718461521286557
200 152 17603302622379810744
20374829 77 18410571795187641585
20621476 21 18059862752892886702
21054139 6 17967810527472585402
21150785 3 18040442096834543230
21196832 93 17387426841650097475
21267235 1 18336270124172646843
21315763 191 18407762538815562485
21403212 168 14261356808674980677
21623969 137 17203613674778969862
221357 26 15574709192566301807
22950370 63 18335702771519063857
2297311 6 18413111636571771509
23035841 295 18408324380493484539
23522609 53 18044404701649028541
23559900 14 18337945783318387456
2748736 6 9655579604100296963
2767999 5 9079118851822837667
2838139 119 8718827561570769727
2916195 48 11314311663066797822
3004659 81 18260831518255745764
312425 54 16415476069077594719
314173 85 18060131038188548217
3178227 256 16271927087537201358
335352 9 18408880729873553997
34797466 226 18272374183615548412
351380 3 18260827107488090283
4107672 100 17458336409137639845
465052 167 18343025518400837686
5104073 3 18060129908733404608
5207 217 13695592169895169241
543368 44 11891319951799315119
59682541 52 14490736941314256394
59755656 215 18343304725693462054
636775 8 17988094305603447350
7495541 125 18272365391268880384
7970288 3 18337103557802154515
8863177 126 18116720819006783787
999808 66 17418098672606313926

> <PUBCHEM_SHAPE_MULTIPOLES>
436.92
17.13
2.09
1.26
0.93
0.57
0.06
-11.61
-1.87
-2.53
-0.01
1.62
-0.15
0.39

> <PUBCHEM_SHAPE_SELFOVERLAP>
956.948

> <PUBCHEM_SHAPE_VOLUME>
239.5

> <PUBCHEM_COORDINATE_TYPE>
2
5
10

$$$$
