28960591
  -OEChem-12032416283D

 60 62  0     1  0  0  0  0  0999 V2000
    2.7366    1.1366   -1.5913 O   0  0  0  0  0  0  0  0  0  0  0  0
    4.5420    1.0218   -0.1393 O   0  0  0  0  0  0  0  0  0  0  0  0
    2.8960    0.5682    2.1814 O   0  0  0  0  0  0  0  0  0  0  0  0
   -0.8704    2.1279    1.8711 O   0  0  0  0  0  0  0  0  0  0  0  0
    1.8023   -1.4161   -0.6657 N   0  0  2  0  0  0  0  0  0  0  0  0
    0.2567    1.5768   -0.0801 N   0  0  0  0  0  0  0  0  0  0  0  0
   -2.0372    1.6573   -0.0803 N   0  0  0  0  0  0  0  0  0  0  0  0
   -0.4755   -4.1605    0.4349 N   0  0  0  0  0  0  0  0  0  0  0  0
    2.7618   -0.6005    0.0813 C   0  0  2  0  0  0  0  0  0  0  0  0
    1.5945    1.6724    0.4635 C   0  0  1  0  0  0  0  0  0  0  0  0
    2.0178    0.3191    1.0758 C   0  0  2  0  0  0  0  0  0  0  0  0
    2.5653    2.1771   -0.6239 C   0  0  1  0  0  0  0  0  0  0  0  0
    3.6086    0.2343   -0.8969 C   0  0  1  0  0  0  0  0  0  0  0  0
    3.9953    2.3495   -0.1476 C   0  0  0  0  0  0  0  0  0  0  0  0
    1.3232   -2.5236    0.1597 C   0  0  0  0  0  0  0  0  0  0  0  0
   -3.3683    1.8439    0.4527 C   0  0  0  0  0  0  0  0  0  0  0  0
    2.4105   -1.9200   -1.8961 C   0  0  0  0  0  0  0  0  0  0  0  0
   -0.8823    1.8164    0.6810 C   0  0  0  0  0  0  0  0  0  0  0  0
   -4.3203    2.3840   -0.6197 C   0  0  0  0  0  0  0  0  0  0  0  0
   -3.9028    0.5457    1.0671 C   0  0  0  0  0  0  0  0  0  0  0  0
   -4.6693    1.3340   -1.6745 C   0  0  0  0  0  0  0  0  0  0  0  0
   -4.2525   -0.5013    0.0095 C   0  0  0  0  0  0  0  0  0  0  0  0
   -0.0064   -3.0439   -0.3782 C   0  0  0  0  0  0  0  0  0  0  0  0
   -5.2093    0.0560   -1.0398 C   0  0  0  0  0  0  0  0  0  0  0  0
   -1.4271   -4.9804   -0.3165 C   0  0  0  0  0  0  0  0  0  0  0  0
   -1.0892   -3.6746    1.6718 C   0  0  0  0  0  0  0  0  0  0  0  0
    3.4596   -1.2422    0.6394 H   0  0  0  0  0  0  0  0  0  0  0  0
    1.5660    2.4315    1.2560 H   0  0  0  0  0  0  0  0  0  0  0  0
    1.1477   -0.1727    1.5220 H   0  0  0  0  0  0  0  0  0  0  0  0
    2.1809    3.0814   -1.1068 H   0  0  0  0  0  0  0  0  0  0  0  0
    4.2086   -0.3417   -1.6055 H   0  0  0  0  0  0  0  0  0  0  0  0
    4.5801    2.9322   -0.8673 H   0  0  0  0  0  0  0  0  0  0  0  0
    4.0855    2.8104    0.8397 H   0  0  0  0  0  0  0  0  0  0  0  0
    0.1436    1.2482   -1.0344 H   0  0  0  0  0  0  0  0  0  0  0  0
    2.0670   -3.3322    0.1989 H   0  0  0  0  0  0  0  0  0  0  0  0
    1.1827   -2.2054    1.1959 H   0  0  0  0  0  0  0  0  0  0  0  0
   -3.2948    2.5923    1.2515 H   0  0  0  0  0  0  0  0  0  0  0  0
    2.4051    1.0967    2.8335 H   0  0  0  0  0  0  0  0  0  0  0  0
    2.5279   -1.1419   -2.6573 H   0  0  0  0  0  0  0  0  0  0  0  0
    1.7698   -2.6536   -2.3957 H   0  0  0  0  0  0  0  0  0  0  0  0
    3.3693   -2.4231   -1.7192 H   0  0  0  0  0  0  0  0  0  0  0  0
   -3.8819    3.2609   -1.1112 H   0  0  0  0  0  0  0  0  0  0  0  0
   -5.2470    2.7199   -0.1371 H   0  0  0  0  0  0  0  0  0  0  0  0
   -4.8056    0.7729    1.6486 H   0  0  0  0  0  0  0  0  0  0  0  0
   -3.1735    0.1222    1.7681 H   0  0  0  0  0  0  0  0  0  0  0  0
   -1.9353    1.3266   -1.0346 H   0  0  0  0  0  0  0  0  0  0  0  0
   -3.7853    1.0986   -2.2785 H   0  0  0  0  0  0  0  0  0  0  0  0
   -5.4178    1.7440   -2.3623 H   0  0  0  0  0  0  0  0  0  0  0  0
   -4.7061   -1.3736    0.4938 H   0  0  0  0  0  0  0  0  0  0  0  0
   -3.3360   -0.8531   -0.4799 H   0  0  0  0  0  0  0  0  0  0  0  0
   -0.7529   -2.2394   -0.4295 H   0  0  0  0  0  0  0  0  0  0  0  0
    0.1335   -3.3970   -1.4056 H   0  0  0  0  0  0  0  0  0  0  0  0
   -6.1802    0.2636   -0.5731 H   0  0  0  0  0  0  0  0  0  0  0  0
   -5.3838   -0.6967   -1.8169 H   0  0  0  0  0  0  0  0  0  0  0  0
   -1.7651   -5.8298    0.2877 H   0  0  0  0  0  0  0  0  0  0  0  0
   -2.3076   -4.4076   -0.6297 H   0  0  0  0  0  0  0  0  0  0  0  0
   -0.9534   -5.4047   -1.2089 H   0  0  0  0  0  0  0  0  0  0  0  0
   -1.9389   -3.0085    1.4801 H   0  0  0  0  0  0  0  0  0  0  0  0
   -1.4519   -4.5179    2.2712 H   0  0  0  0  0  0  0  0  0  0  0  0
   -0.3717   -3.1465    2.3064 H   0  0  0  0  0  0  0  0  0  0  0  0
  1 12  1  0  0  0  0
  1 13  1  0  0  0  0
  2 13  1  0  0  0  0
  2 14  1  0  0  0  0
  3 11  1  0  0  0  0
  3 38  1  0  0  0  0
  4 18  2  0  0  0  0
  5  9  1  0  0  0  0
  5 15  1  0  0  0  0
  5 17  1  0  0  0  0
  6 10  1  0  0  0  0
  6 18  1  0  0  0  0
  6 34  1  0  0  0  0
  7 16  1  0  0  0  0
  7 18  1  0  0  0  0
  7 46  1  0  0  0  0
  8 23  1  0  0  0  0
  8 25  1  0  0  0  0
  8 26  1  0  0  0  0
  9 11  1  0  0  0  0
  9 13  1  0  0  0  0
  9 27  1  0  0  0  0
 10 11  1  0  0  0  0
 10 12  1  0  0  0  0
 10 28  1  0  0  0  0
 11 29  1  0  0  0  0
 12 14  1  0  0  0  0
 12 30  1  0  0  0  0
 13 31  1  0  0  0  0
 14 32  1  0  0  0  0
 14 33  1  0  0  0  0
 15 23  1  0  0  0  0
 15 35  1  0  0  0  0
 15 36  1  0  0  0  0
 16 19  1  0  0  0  0
 16 20  1  0  0  0  0
 16 37  1  0  0  0  0
 17 39  1  0  0  0  0
 17 40  1  0  0  0  0
 17 41  1  0  0  0  0
 19 21  1  0  0  0  0
 19 42  1  0  0  0  0
 19 43  1  0  0  0  0
 20 22  1  0  0  0  0
 20 44  1  0  0  0  0
 20 45  1  0  0  0  0
 21 24  1  0  0  0  0
 21 47  1  0  0  0  0
 21 48  1  0  0  0  0
 22 24  1  0  0  0  0
 22 49  1  0  0  0  0
 22 50  1  0  0  0  0
 23 51  1  0  0  0  0
 23 52  1  0  0  0  0
 24 53  1  0  0  0  0
 24 54  1  0  0  0  0
 25 55  1  0  0  0  0
 25 56  1  0  0  0  0
 25 57  1  0  0  0  0
 26 58  1  0  0  0  0
 26 59  1  0  0  0  0
 26 60  1  0  0  0  0
M  END
> <PUBCHEM_COMPOUND_CID>
28960591

> <PUBCHEM_CONFORMER_RMSD>
1

> <PUBCHEM_CONFORMER_DIVERSEORDER>
1
78
45
23
110
106
112
128
57
120
132
96
95
84
136
90
80
34
60
86
10
104
125
93
83
114
98
17
111
116
72
87
121
130
89
50
36
54
119
40
42
26
48
55
105
13
68
27
88
100
91
12
92
122
56
74
8
102
117
123
62
41
49
118
135
22
82
30
43
11
85
67
44
69
18
109
107
35
4
51
97
129
5
65
53
66
64
63
39
59
134
9
131
31
52
115
124
28
38
99
14
103
3
46
73
21
75
76
24
94
127
70
126
19
20
101
113
15
37
47
32
81
7
33
108
79
58
71
6
16
25
133
77
61
2
29

> <PUBCHEM_MMFF94_PARTIAL_CHARGES>
24
1 -0.56
10 0.3
11 0.28
12 0.28
13 0.56
14 0.28
15 0.27
16 0.3
17 0.27
18 0.69
2 -0.56
23 0.27
25 0.27
26 0.27
3 -0.68
34 0.37
38 0.4
4 -0.57
46 0.37
5 -0.81
6 -0.73
7 -0.73
8 -0.81
9 0.27

> <PUBCHEM_EFFECTIVE_ROTOR_COUNT>
10.4

> <PUBCHEM_PHARMACOPHORE_FEATURES>
11
1 1 acceptor
1 2 acceptor
1 3 acceptor
1 3 donor
1 4 acceptor
1 5 cation
1 6 donor
1 7 donor
1 8 cation
6 16 19 20 21 22 24 rings
8 1 2 9 10 11 12 13 14 rings

> <PUBCHEM_HEAVY_ATOM_COUNT>
26

> <PUBCHEM_ATOM_DEF_STEREO_COUNT>
5

> <PUBCHEM_ATOM_UDEF_STEREO_COUNT>
0

> <PUBCHEM_BOND_DEF_STEREO_COUNT>
0

> <PUBCHEM_BOND_UDEF_STEREO_COUNT>
0

> <PUBCHEM_ISOTOPIC_ATOM_COUNT>
0

> <PUBCHEM_COMPONENT_COUNT>
1

> <PUBCHEM_CACTVS_TAUTO_COUNT>
3

> <PUBCHEM_CONFORMER_ID>
01B9E74F00000001

> <PUBCHEM_MMFF94_ENERGY>
58.8132

> <PUBCHEM_FEATURE_SELFOVERLAP>
55.922

> <PUBCHEM_SHAPE_FINGERPRINT>
10675989 125 18120648029459395041
10688039 33 17541106797371689779
108634 29 18270129035846407382
11069576 57 17982427331941434855
11370993 70 18334575737498164789
12156800 1 17908673444210771979
12788726 201 17829035851650619707
13224815 77 18060417989264522013
13402501 40 18194691582210128851
138480 1 17689437087884549063
14251757 5 18193559106338811367
15537594 2 17989205958739537861
17138139 8 17914870236521940855
18681886 176 18334573560193053376
20028762 73 18127966413118658990
20645477 70 18262237712087148193
20775530 9 17183910168743093875
21641784 216 17252043012944101980
21860390 5 16225775137477512412
22393880 68 18268432334822758773
235170 7 17895192148128942293
23559900 14 18048873005503288933
238 59 18264781964702981779
3052486 1 18192709162254391250
3060560 45 18260834748461847796
4280585 95 17472694732904180442
463206 1 18200861998720827951

> <PUBCHEM_SHAPE_MULTIPOLES>
491.67
9.2
5.18
1.57
7.26
8.42
0.16
-6.48
-2.85
1.17
0.47
-0.07
0.04
0.68

> <PUBCHEM_SHAPE_SELFOVERLAP>
1003.613

> <PUBCHEM_SHAPE_VOLUME>
282.7

> <PUBCHEM_COORDINATE_TYPE>
2
5
10

$$$$
