40779367
  -OEChem-12032416253D

 63 67  0     1  0  0  0  0  0999 V2000
    2.4703    3.5589    1.1716 S   0  0  0  0  0  0  0  0  0  0  0  0
   -1.1671    0.7592    1.2184 O   0  0  0  0  0  0  0  0  0  0  0  0
    1.5488   -3.4786    1.3225 N   0  0  2  0  0  0  0  0  0  0  0  0
    4.4108   -0.2425   -1.2095 N   0  0  0  0  0  0  0  0  0  0  0  0
   -1.6527   -1.5097    1.2593 N   0  0  0  0  0  0  0  0  0  0  0  0
    4.6128    1.0861   -1.1988 N   0  0  0  0  0  0  0  0  0  0  0  0
   -7.1824    0.9629   -0.8871 N   0  0  0  0  0  0  0  0  0  0  0  0
    1.9175   -2.6772   -1.1280 C   0  0  2  0  0  0  0  0  0  0  0  0
    3.0308   -2.1179   -0.1995 C   0  0  2  0  0  0  0  0  0  0  0  0
    0.2884   -2.9067    0.7797 C   0  0  2  0  0  0  0  0  0  0  0  0
    0.5382   -2.2407   -0.5906 C   0  0  0  0  0  0  0  0  0  0  0  0
    1.9799   -4.2160   -1.0208 C   0  0  0  0  0  0  0  0  0  0  0  0
    2.6331   -2.4669    1.2632 C   0  0  0  0  0  0  0  0  0  0  0  0
    1.9358   -4.6227    0.4625 C   0  0  0  0  0  0  0  0  0  0  0  0
    3.4309   -0.6578   -0.3563 C   0  0  0  0  0  0  0  0  0  0  0  0
   -0.3887   -1.9502    1.7635 C   0  0  0  0  0  0  0  0  0  0  0  0
    2.9596    0.4781    0.2553 C   0  0  0  0  0  0  0  0  0  0  0  0
    3.7234    1.5209   -0.3023 C   0  0  0  0  0  0  0  0  0  0  0  0
    5.2104   -1.0703   -2.0824 C   0  0  0  0  0  0  0  0  0  0  0  0
   -1.9481   -0.1683    1.0223 C   0  0  0  0  0  0  0  0  0  0  0  0
    3.5942    2.9506    0.0318 C   0  0  0  0  0  0  0  0  0  0  0  0
   -3.3154    0.1277    0.5227 C   0  0  0  0  0  0  0  0  0  0  0  0
    4.3551    3.9527   -0.5292 C   0  0  0  0  0  0  0  0  0  0  0  0
   -3.8986    1.3683    0.7804 C   0  0  0  0  0  0  0  0  0  0  0  0
   -4.0166   -0.8352   -0.2032 C   0  0  0  0  0  0  0  0  0  0  0  0
    4.0111    5.2366   -0.0162 C   0  0  0  0  0  0  0  0  0  0  0  0
    3.0003    5.1671    0.9170 C   0  0  0  0  0  0  0  0  0  0  0  0
   -5.1830    1.6461    0.3125 C   0  0  0  0  0  0  0  0  0  0  0  0
   -5.3009   -0.5576   -0.6711 C   0  0  0  0  0  0  0  0  0  0  0  0
   -5.8841    0.6830   -0.4133 C   0  0  0  0  0  0  0  0  0  0  0  0
   -7.7981    2.2488   -0.6255 C   0  0  0  0  0  0  0  0  0  0  0  0
   -7.9157   -0.0288   -1.6487 C   0  0  0  0  0  0  0  0  0  0  0  0
    2.0530   -2.3493   -2.1638 H   0  0  0  0  0  0  0  0  0  0  0  0
    3.9389   -2.7029   -0.4099 H   0  0  0  0  0  0  0  0  0  0  0  0
   -0.4175   -3.7371    0.6276 H   0  0  0  0  0  0  0  0  0  0  0  0
    0.5033   -1.1473   -0.5287 H   0  0  0  0  0  0  0  0  0  0  0  0
   -0.2457   -2.5476   -1.2942 H   0  0  0  0  0  0  0  0  0  0  0  0
    2.8986   -4.5947   -1.4837 H   0  0  0  0  0  0  0  0  0  0  0  0
    1.1361   -4.6618   -1.5614 H   0  0  0  0  0  0  0  0  0  0  0  0
    3.5154   -2.8690    1.7803 H   0  0  0  0  0  0  0  0  0  0  0  0
    2.3538   -1.5915    1.8560 H   0  0  0  0  0  0  0  0  0  0  0  0
    1.2299   -5.4509    0.6008 H   0  0  0  0  0  0  0  0  0  0  0  0
    2.9115   -5.0129    0.7792 H   0  0  0  0  0  0  0  0  0  0  0  0
    0.2405   -1.0848    1.9912 H   0  0  0  0  0  0  0  0  0  0  0  0
   -0.5885   -2.4662    2.7097 H   0  0  0  0  0  0  0  0  0  0  0  0
    2.1693    0.5342    0.9901 H   0  0  0  0  0  0  0  0  0  0  0  0
   -2.3736   -2.2161    1.1579 H   0  0  0  0  0  0  0  0  0  0  0  0
    5.7747   -0.4344   -2.7700 H   0  0  0  0  0  0  0  0  0  0  0  0
    5.8992   -1.6533   -1.4664 H   0  0  0  0  0  0  0  0  0  0  0  0
    4.5484   -1.7244   -2.6546 H   0  0  0  0  0  0  0  0  0  0  0  0
    5.1264    3.7939   -1.2730 H   0  0  0  0  0  0  0  0  0  0  0  0
   -3.3697    2.1296    1.3480 H   0  0  0  0  0  0  0  0  0  0  0  0
   -3.5862   -1.8011   -0.4507 H   0  0  0  0  0  0  0  0  0  0  0  0
    4.4810    6.1640   -0.3164 H   0  0  0  0  0  0  0  0  0  0  0  0
    2.5477    5.9838    1.4614 H   0  0  0  0  0  0  0  0  0  0  0  0
   -5.5931    2.6250    0.5397 H   0  0  0  0  0  0  0  0  0  0  0  0
   -5.8025   -1.3369   -1.2364 H   0  0  0  0  0  0  0  0  0  0  0  0
   -8.8041    2.3112   -1.0553 H   0  0  0  0  0  0  0  0  0  0  0  0
   -7.2176    3.0638   -1.0723 H   0  0  0  0  0  0  0  0  0  0  0  0
   -7.9085    2.4233    0.4506 H   0  0  0  0  0  0  0  0  0  0  0  0
   -8.9050    0.3381   -1.9444 H   0  0  0  0  0  0  0  0  0  0  0  0
   -8.0846   -0.9362   -1.0583 H   0  0  0  0  0  0  0  0  0  0  0  0
   -7.3895   -0.2853   -2.5750 H   0  0  0  0  0  0  0  0  0  0  0  0
  1 21  1  0  0  0  0
  1 27  1  0  0  0  0
  2 20  2  0  0  0  0
  3 10  1  0  0  0  0
  3 13  1  0  0  0  0
  3 14  1  0  0  0  0
  4  6  1  0  0  0  0
  4 15  1  0  0  0  0
  4 19  1  0  0  0  0
  5 16  1  0  0  0  0
  5 20  1  0  0  0  0
  5 47  1  0  0  0  0
  6 18  2  0  0  0  0
  7 30  1  0  0  0  0
  7 31  1  0  0  0  0
  7 32  1  0  0  0  0
  8  9  1  0  0  0  0
  8 11  1  0  0  0  0
  8 12  1  0  0  0  0
  8 33  1  0  0  0  0
  9 13  1  0  0  0  0
  9 15  1  0  0  0  0
  9 34  1  0  0  0  0
 10 11  1  0  0  0  0
 10 16  1  0  0  0  0
 10 35  1  0  0  0  0
 11 36  1  0  0  0  0
 11 37  1  0  0  0  0
 12 14  1  0  0  0  0
 12 38  1  0  0  0  0
 12 39  1  0  0  0  0
 13 40  1  0  0  0  0
 13 41  1  0  0  0  0
 14 42  1  0  0  0  0
 14 43  1  0  0  0  0
 15 17  2  0  0  0  0
 16 44  1  0  0  0  0
 16 45  1  0  0  0  0
 17 18  1  0  0  0  0
 17 46  1  0  0  0  0
 18 21  1  0  0  0  0
 19 48  1  0  0  0  0
 19 49  1  0  0  0  0
 19 50  1  0  0  0  0
 20 22  1  0  0  0  0
 21 23  2  0  0  0  0
 22 24  2  0  0  0  0
 22 25  1  0  0  0  0
 23 26  1  0  0  0  0
 23 51  1  0  0  0  0
 24 28  1  0  0  0  0
 24 52  1  0  0  0  0
 25 29  2  0  0  0  0
 25 53  1  0  0  0  0
 26 27  2  0  0  0  0
 26 54  1  0  0  0  0
 27 55  1  0  0  0  0
 28 30  2  0  0  0  0
 28 56  1  0  0  0  0
 29 30  1  0  0  0  0
 29 57  1  0  0  0  0
 31 58  1  0  0  0  0
 31 59  1  0  0  0  0
 31 60  1  0  0  0  0
 32 61  1  0  0  0  0
 32 62  1  0  0  0  0
 32 63  1  0  0  0  0
M  END
> <PUBCHEM_COMPOUND_CID>
40779367

> <PUBCHEM_CONFORMER_RMSD>
1

> <PUBCHEM_CONFORMER_DIVERSEORDER>
2
24
16
13
15
11
25
18
34
6
17
21
10
19
31
4
23
22
26
30
9
27
3
28
8
14
32
5
20
1
29
12
33
7

> <PUBCHEM_MMFF94_PARTIAL_CHARGES>
38
1 -0.08
10 0.27
13 0.27
14 0.27
15 -0.33
16 0.3
17 -0.15
18 0.29
19 0.26
2 -0.57
20 0.54
21 0.04
22 0.09
23 -0.15
24 -0.15
25 -0.15
26 -0.15
27 -0.11
28 -0.15
29 -0.15
3 -0.81
30 0.1
31 0.37
32 0.37
4 0.31
46 0.15
47 0.37
5 -0.73
51 0.15
52 0.15
53 0.15
54 0.15
55 0.15
56 0.15
57 0.15
6 -0.71
7 -0.84
9 0.18

> <PUBCHEM_EFFECTIVE_ROTOR_COUNT>
8.2

> <PUBCHEM_PHARMACOPHORE_FEATURES>
9
1 2 acceptor
1 3 cation
1 5 donor
1 6 acceptor
1 7 cation
5 1 21 23 26 27 rings
5 4 6 15 17 18 rings
6 22 24 25 28 29 30 rings
8 3 8 9 10 11 12 13 14 rings

> <PUBCHEM_HEAVY_ATOM_COUNT>
32

> <PUBCHEM_ATOM_DEF_STEREO_COUNT>
3

> <PUBCHEM_ATOM_UDEF_STEREO_COUNT>
0

> <PUBCHEM_BOND_DEF_STEREO_COUNT>
0

> <PUBCHEM_BOND_UDEF_STEREO_COUNT>
0

> <PUBCHEM_ISOTOPIC_ATOM_COUNT>
0

> <PUBCHEM_COMPONENT_COUNT>
1

> <PUBCHEM_CACTVS_TAUTO_COUNT>
2

> <PUBCHEM_CONFORMER_ID>
026E3E6700000002

> <PUBCHEM_MMFF94_ENERGY>
86.2997

> <PUBCHEM_FEATURE_SELFOVERLAP>
45.672

> <PUBCHEM_SHAPE_FINGERPRINT>
10439779 11 18337102376880638952
10673678 19 18410855499379063947
10675989 125 18411983572023251625
10842077 115 16479648201981673936
10883706 89 9870924536517234479
10937287 8 18194119844478819434
11331351 85 17181078938986500411
12104220 4 17096367418091320180
1361 2 18337951315531735293
13773456 30 18197213861678668056
13944108 23 18262524671821648124
14068700 686 18264490775101013107
14117953 113 18411698803560706052
14428016 6 18412825811236555009
14931854 50 18340784666970609940
15001296 14 18341322375480211143
15082195 135 18341609304997140411
15183329 4 18130505216185539877
15320295 44 18201148949580582863
15444296 8 17048817590264709782
15721738 15 18200593729893840505
15950262 2 15576721376718942070
15979999 66 18126291831376980014
17899979 129 18409733984091167745
18681886 176 18197491823034923282
19053607 189 18194955472942526456
19304152 47 17249221653744494696
21049683 118 17168137957989468371
21344244 78 17828467086659815202
21968339 14 18263643974584779710
23522609 53 17846232029806209105
3004659 81 17985259678142579651
376196 1 18261955262079021778
3882209 13 17975681802218868658
4371632 12 18340210816247844833
4403749 210 17193469838838560744
44317340 157 18335704885043919739
5109719 28 18336832000310644969
513532 50 17988361452047102774
5312510 48 18410012130895199593
57091435 61 18409160022236777297
59521099 67 18194671566934042000
6086070 43 18409177601717800578
6371009 1 18413106173827311848

> <PUBCHEM_SHAPE_MULTIPOLES>
631.62
16.5
6.98
1.51
39.55
3.77
0.08
13.53
8.78
-13.02
-1.23
-0.37
-0.64
0.94

> <PUBCHEM_SHAPE_SELFOVERLAP>
1351.718

> <PUBCHEM_SHAPE_VOLUME>
354.3

> <PUBCHEM_COORDINATE_TYPE>
2
5
10

$$$$
