45360667
  -OEChem-12032416293D

 59 62  0     1  0  0  0  0  0999 V2000
   -0.1851    1.9696   -2.9937 O   0  0  0  0  0  0  0  0  0  0  0  0
   -4.3018   -2.5676    0.6537 O   0  0  0  0  0  0  0  0  0  0  0  0
   -0.5079   -0.7966   -0.6343 N   0  0  1  0  0  0  0  0  0  0  0  0
   -1.0183   -0.1227   -3.3100 N   0  0  0  0  0  0  0  0  0  0  0  0
    3.0428   -0.3666   -0.0480 N   0  0  0  0  0  0  0  0  0  0  0  0
   -2.8832   -1.2460    1.9303 N   0  0  0  0  0  0  0  0  0  0  0  0
    5.8393    1.4332    0.2492 N   0  0  0  0  0  0  0  0  0  0  0  0
   -0.3685    0.6128   -1.0221 C   0  0  1  0  0  0  0  0  0  0  0  0
    1.6000   -0.2613    0.0993 C   0  0  1  0  0  0  0  0  0  0  0  0
   -1.5431   -1.5206   -1.3636 C   0  0  1  0  0  0  0  0  0  0  0  0
    1.0257    1.0152   -0.5159 C   0  0  0  0  0  0  0  0  0  0  0  0
    0.8350   -1.3716   -0.6079 C   0  0  0  0  0  0  0  0  0  0  0  0
   -1.2857   -1.4697   -2.8614 C   0  0  0  0  0  0  0  0  0  0  0  0
   -0.4922    0.8714   -2.5209 C   0  0  0  0  0  0  0  0  0  0  0  0
   -1.7083   -2.9631   -0.8837 C   0  0  0  0  0  0  0  0  0  0  0  0
   -1.9237   -3.0211    0.6224 C   0  0  0  0  0  0  0  0  0  0  0  0
    3.7311    0.4474    0.9459 C   0  0  0  0  0  0  0  0  0  0  0  0
   -3.1762   -2.2774    1.0501 C   0  0  0  0  0  0  0  0  0  0  0  0
    5.2235    0.3651    0.8038 C   0  0  0  0  0  0  0  0  0  0  0  0
    5.8845   -0.7728    1.2376 C   0  0  0  0  0  0  0  0  0  0  0  0
   -3.9058   -0.3888    2.4814 C   0  0  0  0  0  0  0  0  0  0  0  0
    7.2667   -0.8171    1.0930 C   0  0  0  0  0  0  0  0  0  0  0  0
    7.1832    1.3538    0.1251 C   0  0  0  0  0  0  0  0  0  0  0  0
   -4.1507    0.8177    1.6220 C   0  0  0  0  0  0  0  0  0  0  0  0
    7.9360    0.2623    0.5272 C   0  0  0  0  0  0  0  0  0  0  0  0
   -3.4221    1.9872    1.8384 C   0  0  0  0  0  0  0  0  0  0  0  0
   -5.1066    0.7692    0.6074 C   0  0  0  0  0  0  0  0  0  0  0  0
   -3.6494    3.1084    1.0402 C   0  0  0  0  0  0  0  0  0  0  0  0
   -5.3339    1.8902   -0.1909 C   0  0  0  0  0  0  0  0  0  0  0  0
   -4.6053    3.0598    0.0255 C   0  0  0  0  0  0  0  0  0  0  0  0
   -1.1450    1.2075   -0.5272 H   0  0  0  0  0  0  0  0  0  0  0  0
    1.3256   -0.3029    1.1645 H   0  0  0  0  0  0  0  0  0  0  0  0
   -2.4914   -0.9957   -1.1814 H   0  0  0  0  0  0  0  0  0  0  0  0
    0.9620    1.8065    0.2399 H   0  0  0  0  0  0  0  0  0  0  0  0
    1.6656    1.3820   -1.3278 H   0  0  0  0  0  0  0  0  0  0  0  0
    0.8974   -2.3071   -0.0442 H   0  0  0  0  0  0  0  0  0  0  0  0
    1.2319   -1.5437   -1.6158 H   0  0  0  0  0  0  0  0  0  0  0  0
   -0.4279   -2.0842   -3.1558 H   0  0  0  0  0  0  0  0  0  0  0  0
   -2.1568   -1.8302   -3.4192 H   0  0  0  0  0  0  0  0  0  0  0  0
   -0.8352   -3.5717   -1.1488 H   0  0  0  0  0  0  0  0  0  0  0  0
   -2.5682   -3.4146   -1.3952 H   0  0  0  0  0  0  0  0  0  0  0  0
   -1.1155    0.0690   -4.3023 H   0  0  0  0  0  0  0  0  0  0  0  0
    3.3181   -1.3416    0.0732 H   0  0  0  0  0  0  0  0  0  0  0  0
   -2.0669   -4.0673    0.9209 H   0  0  0  0  0  0  0  0  0  0  0  0
   -1.0455   -2.6754    1.1758 H   0  0  0  0  0  0  0  0  0  0  0  0
    3.4595    0.1387    1.9638 H   0  0  0  0  0  0  0  0  0  0  0  0
    3.4335    1.4987    0.8453 H   0  0  0  0  0  0  0  0  0  0  0  0
   -1.9191   -1.0545    2.1860 H   0  0  0  0  0  0  0  0  0  0  0  0
    5.3540   -1.6093    1.6796 H   0  0  0  0  0  0  0  0  0  0  0  0
   -3.5771   -0.0866    3.4822 H   0  0  0  0  0  0  0  0  0  0  0  0
   -4.8332   -0.9592    2.6116 H   0  0  0  0  0  0  0  0  0  0  0  0
    7.8213   -1.6911    1.4211 H   0  0  0  0  0  0  0  0  0  0  0  0
    7.6574    2.2212   -0.3221 H   0  0  0  0  0  0  0  0  0  0  0  0
    9.0130    0.2496    0.4048 H   0  0  0  0  0  0  0  0  0  0  0  0
   -2.6725    2.0366    2.6236 H   0  0  0  0  0  0  0  0  0  0  0  0
   -5.6841   -0.1336    0.4290 H   0  0  0  0  0  0  0  0  0  0  0  0
   -3.0811    4.0186    1.2077 H   0  0  0  0  0  0  0  0  0  0  0  0
   -6.0784    1.8526   -0.9808 H   0  0  0  0  0  0  0  0  0  0  0  0
   -4.7818    3.9325   -0.5964 H   0  0  0  0  0  0  0  0  0  0  0  0
  1 14  2  0  0  0  0
  2 18  2  0  0  0  0
  3  8  1  0  0  0  0
  3 10  1  0  0  0  0
  3 12  1  0  0  0  0
  4 13  1  0  0  0  0
  4 14  1  0  0  0  0
  4 42  1  0  0  0  0
  5  9  1  0  0  0  0
  5 17  1  0  0  0  0
  5 43  1  0  0  0  0
  6 18  1  0  0  0  0
  6 21  1  0  0  0  0
  6 48  1  0  0  0  0
  7 19  1  0  0  0  0
  7 23  2  0  0  0  0
  8 11  1  0  0  0  0
  8 14  1  0  0  0  0
  8 31  1  0  0  0  0
  9 11  1  0  0  0  0
  9 12  1  0  0  0  0
  9 32  1  0  0  0  0
 10 13  1  0  0  0  0
 10 15  1  0  0  0  0
 10 33  1  0  0  0  0
 11 34  1  0  0  0  0
 11 35  1  0  0  0  0
 12 36  1  0  0  0  0
 12 37  1  0  0  0  0
 13 38  1  0  0  0  0
 13 39  1  0  0  0  0
 15 16  1  0  0  0  0
 15 40  1  0  0  0  0
 15 41  1  0  0  0  0
 16 18  1  0  0  0  0
 16 44  1  0  0  0  0
 16 45  1  0  0  0  0
 17 19  1  0  0  0  0
 17 46  1  0  0  0  0
 17 47  1  0  0  0  0
 19 20  2  0  0  0  0
 20 22  1  0  0  0  0
 20 49  1  0  0  0  0
 21 24  1  0  0  0  0
 21 50  1  0  0  0  0
 21 51  1  0  0  0  0
 22 25  2  0  0  0  0
 22 52  1  0  0  0  0
 23 25  1  0  0  0  0
 23 53  1  0  0  0  0
 24 26  2  0  0  0  0
 24 27  1  0  0  0  0
 25 54  1  0  0  0  0
 26 28  1  0  0  0  0
 26 55  1  0  0  0  0
 27 29  2  0  0  0  0
 27 56  1  0  0  0  0
 28 30  2  0  0  0  0
 28 57  1  0  0  0  0
 29 30  1  0  0  0  0
 29 58  1  0  0  0  0
 30 59  1  0  0  0  0
M  END
> <PUBCHEM_COMPOUND_CID>
45360667

> <PUBCHEM_CONFORMER_RMSD>
1

> <PUBCHEM_CONFORMER_DIVERSEORDER>
1
37
118
170
111
258
18
237
196
205
82
240
175
193
256
215
245
73
157
217
246
46
160
147
250
78
186
36
119
254
180
249
244
104
162
135
38
105
137
247
81
150
72
206
20
202
159
96
77
127
24
234
93
230
5
198
200
69
164
171
187
259
31
207
101
172
100
213
184
34
62
225
211
56
194
16
218
39
106
35
109
201
242
165
168
161
23
58
146
154
199
255
55
88
233
224
113
63
195
41
212
139
226
92
61
232
241
239
94
110
84
191
209
120
227
86
181
145
90
210
185
183
136
45
257
204
33
251
231
174
121
192
9
89
220
188
253
177
219
91
221
17
179
32
11
238
48
103
66
115
4
52
116
130
134
166
80
70
248
44
83
236
131
149
148
125
59
85
140
144
26
158
163
235
2
15
261
50
169
228
27
57
98
67
42
133
97
19
182
260
252
142
87
6
197
13
99
190
151
167
141
114
178
152
95
47
51
189
7
12
112
108
30
126
173
74
229
138
40
76
102
43
65
60
223
22
243
122
124
117
128
29
107
208
176
75
123
25
155
28
222
8
53
156
21
71
143
49
153
14
10
54
214
216
68
3
79
203
129
132
64

> <PUBCHEM_MMFF94_PARTIAL_CHARGES>
40
1 -0.57
10 0.27
12 0.27
13 0.3
14 0.57
16 0.06
17 0.41
18 0.57
19 0.17
2 -0.57
20 -0.15
21 0.44
22 -0.15
23 0.16
24 -0.14
25 -0.15
26 -0.15
27 -0.15
28 -0.15
29 -0.15
3 -0.81
30 -0.15
4 -0.73
42 0.37
43 0.36
48 0.37
49 0.15
5 -0.9
52 0.15
53 0.15
54 0.15
55 0.15
56 0.15
57 0.15
58 0.15
59 0.15
6 -0.73
7 -0.62
8 0.33
9 0.27

> <PUBCHEM_EFFECTIVE_ROTOR_COUNT>
10.2

> <PUBCHEM_PHARMACOPHORE_FEATURES>
12
1 1 acceptor
1 2 acceptor
1 3 cation
1 4 donor
1 5 cation
1 5 donor
1 6 donor
1 7 acceptor
5 3 8 9 11 12 rings
6 24 26 27 28 29 30 rings
6 3 4 8 10 13 14 rings
6 7 19 20 22 23 25 rings

> <PUBCHEM_HEAVY_ATOM_COUNT>
30

> <PUBCHEM_ATOM_DEF_STEREO_COUNT>
3

> <PUBCHEM_ATOM_UDEF_STEREO_COUNT>
0

> <PUBCHEM_BOND_DEF_STEREO_COUNT>
0

> <PUBCHEM_BOND_UDEF_STEREO_COUNT>
0

> <PUBCHEM_ISOTOPIC_ATOM_COUNT>
0

> <PUBCHEM_COMPONENT_COUNT>
1

> <PUBCHEM_CACTVS_TAUTO_COUNT>
6

> <PUBCHEM_CONFORMER_ID>
02B4261B00000001

> <PUBCHEM_MMFF94_ENERGY>
63.5203

> <PUBCHEM_FEATURE_SELFOVERLAP>
61.085

> <PUBCHEM_SHAPE_FINGERPRINT>
105312 117 15698009543301970210
10554248 39 13973693858460665656
10577160 103 9799104342016685294
10577160 183 15554166974766361910
10674148 151 10953735634448844671
12128747 34 18201163165511044202
12422481 6 18261398827975785334
12988421 55 17846236435630693691
13009979 54 17899987328453772307
13941219 33 17167858626058792066
14068700 675 18044094777409932795
14114207 22 16371839631516559433
14251764 30 8285614504450029649
14856354 85 18269282437947828718
14904525 67 18200305658886586672
14932701 244 10087641524302375089
15513586 35 17556018326828151592
17492 54 16558173905635595713
20101258 96 16225758636281434156
21033648 29 18266757791804252809
21756936 100 18131061624122839692
22889206 1 18191024495819842898
23522609 53 17823720671372460268
2838139 119 15554732161833404554
3117164 225 18335703870930718488
4015057 19 11527655419591620914
484985 159 18261942042317507183
4938544 92 18411981386021235738
5104073 3 18335966650563324848
57527573 199 18197790899304194353
6086070 43 15984809446869475186

> <PUBCHEM_SHAPE_MULTIPOLES>
580.74
16.73
3.23
2.59
38.47
0.4
1.95
-8.52
-9.31
-5.65
-0.18
-2.31
0.36
-0.17

> <PUBCHEM_SHAPE_SELFOVERLAP>
1232.13

> <PUBCHEM_SHAPE_VOLUME>
322.3

> <PUBCHEM_COORDINATE_TYPE>
2
5
10

$$$$
