28962594
  -OEChem-12032416393D

 55 58  0     1  0  0  0  0  0999 V2000
   -3.0235    1.7742   -0.1034 O   0  0  0  0  0  0  0  0  0  0  0  0
   -4.7871    3.2376   -0.2984 O   0  0  0  0  0  0  0  0  0  0  0  0
    3.2559   -0.8194   -1.9275 O   0  0  0  0  0  0  0  0  0  0  0  0
    2.1543   -0.1770    0.0089 N   0  0  0  0  0  0  0  0  0  0  0  0
   -1.6787   -0.3636   -0.1191 C   0  0  1  0  0  0  0  0  0  0  0  0
   -1.8006   -1.8522    0.3799 C   0  0  1  0  0  0  0  0  0  0  0  0
   -2.8999    0.4332    0.3754 C   0  0  2  0  0  0  0  0  0  0  0  0
   -4.1774   -0.1923   -0.1564 C   0  0  1  0  0  0  0  0  0  0  0  0
   -0.2830    0.2468    0.2165 C   0  0  1  0  0  0  0  0  0  0  0  0
   -3.1769   -2.4581   -0.0343 C   0  0  0  0  0  0  0  0  0  0  0  0
   -0.6794   -2.6801   -0.2877 C   0  0  0  0  0  0  0  0  0  0  0  0
   -4.3818   -1.5968    0.3726 C   0  0  0  0  0  0  0  0  0  0  0  0
    0.8413   -0.6416   -0.3843 C   0  0  2  0  0  0  0  0  0  0  0  0
    0.7124   -2.1218   -0.0133 C   0  0  0  0  0  0  0  0  0  0  0  0
   -5.1876    0.8781    0.2101 C   0  0  1  0  0  0  0  0  0  0  0  0
   -1.6737   -1.9793    1.9205 C   0  0  0  0  0  0  0  0  0  0  0  0
   -0.1315    1.6904   -0.2903 C   0  0  0  0  0  0  0  0  0  0  0  0
   -4.3594    2.1122   -0.0951 C   0  0  0  0  0  0  0  0  0  0  0  0
   -6.4602    0.8103   -0.6130 C   0  0  0  0  0  0  0  0  0  0  0  0
    3.2629   -0.3091   -0.8103 C   0  0  0  0  0  0  0  0  0  0  0  0
    4.5434    0.1942   -0.2501 C   0  0  0  0  0  0  0  0  0  0  0  0
    5.7541   -0.3525   -0.6758 C   0  0  0  0  0  0  0  0  0  0  0  0
    4.5350    1.2147    0.7004 C   0  0  0  0  0  0  0  0  0  0  0  0
    6.9564    0.1214   -0.1508 C   0  0  0  0  0  0  0  0  0  0  0  0
    5.7372    1.6887    1.2256 C   0  0  0  0  0  0  0  0  0  0  0  0
    6.9478    1.1420    0.8000 C   0  0  0  0  0  0  0  0  0  0  0  0
   -1.7370   -0.3731   -1.2192 H   0  0  0  0  0  0  0  0  0  0  0  0
   -2.8858    0.4896    1.4713 H   0  0  0  0  0  0  0  0  0  0  0  0
   -4.1207   -0.2448   -1.2558 H   0  0  0  0  0  0  0  0  0  0  0  0
   -0.1579    0.2862    1.3058 H   0  0  0  0  0  0  0  0  0  0  0  0
   -3.2939   -3.4631    0.3904 H   0  0  0  0  0  0  0  0  0  0  0  0
   -3.2008   -2.5835   -1.1254 H   0  0  0  0  0  0  0  0  0  0  0  0
   -0.8362   -2.7046   -1.3743 H   0  0  0  0  0  0  0  0  0  0  0  0
   -0.7216   -3.7227    0.0521 H   0  0  0  0  0  0  0  0  0  0  0  0
   -5.2969   -2.0312   -0.0452 H   0  0  0  0  0  0  0  0  0  0  0  0
   -4.5041   -1.5916    1.4610 H   0  0  0  0  0  0  0  0  0  0  0  0
    0.7781   -0.5695   -1.4790 H   0  0  0  0  0  0  0  0  0  0  0  0
    0.9751   -2.2698    1.0414 H   0  0  0  0  0  0  0  0  0  0  0  0
    1.4456   -2.7102   -0.5802 H   0  0  0  0  0  0  0  0  0  0  0  0
   -5.4158    0.8699    1.2821 H   0  0  0  0  0  0  0  0  0  0  0  0
   -0.7299   -1.5837    2.3039 H   0  0  0  0  0  0  0  0  0  0  0  0
   -1.7248   -3.0317    2.2243 H   0  0  0  0  0  0  0  0  0  0  0  0
   -2.4734   -1.4559    2.4514 H   0  0  0  0  0  0  0  0  0  0  0  0
   -0.4140    1.7732   -1.3449 H   0  0  0  0  0  0  0  0  0  0  0  0
    0.8974    2.0508   -0.1907 H   0  0  0  0  0  0  0  0  0  0  0  0
   -0.7455    2.3803    0.2948 H   0  0  0  0  0  0  0  0  0  0  0  0
    2.2572    0.1504    0.9637 H   0  0  0  0  0  0  0  0  0  0  0  0
   -6.2521    0.8983   -1.6851 H   0  0  0  0  0  0  0  0  0  0  0  0
   -7.1345    1.6310   -0.3459 H   0  0  0  0  0  0  0  0  0  0  0  0
   -6.9890   -0.1323   -0.4415 H   0  0  0  0  0  0  0  0  0  0  0  0
    5.7814   -1.1510   -1.4125 H   0  0  0  0  0  0  0  0  0  0  0  0
    3.6174    1.6892    1.0356 H   0  0  0  0  0  0  0  0  0  0  0  0
    7.8991   -0.3045   -0.4816 H   0  0  0  0  0  0  0  0  0  0  0  0
    5.7317    2.4884    1.9605 H   0  0  0  0  0  0  0  0  0  0  0  0
    7.8840    1.5121    1.2078 H   0  0  0  0  0  0  0  0  0  0  0  0
  1  7  1  0  0  0  0
  1 18  1  0  0  0  0
  2 18  2  0  0  0  0
  3 20  2  0  0  0  0
  4 13  1  0  0  0  0
  4 20  1  0  0  0  0
  4 47  1  0  0  0  0
  5  6  1  0  0  0  0
  5  7  1  0  0  0  0
  5  9  1  0  0  0  0
  5 27  1  0  0  0  0
  6 10  1  0  0  0  0
  6 11  1  0  0  0  0
  6 16  1  0  0  0  0
  7  8  1  0  0  0  0
  7 28  1  0  0  0  0
  8 12  1  0  0  0  0
  8 15  1  0  0  0  0
  8 29  1  0  0  0  0
  9 13  1  0  0  0  0
  9 17  1  0  0  0  0
  9 30  1  0  0  0  0
 10 12  1  0  0  0  0
 10 31  1  0  0  0  0
 10 32  1  0  0  0  0
 11 14  1  0  0  0  0
 11 33  1  0  0  0  0
 11 34  1  0  0  0  0
 12 35  1  0  0  0  0
 12 36  1  0  0  0  0
 13 14  1  0  0  0  0
 13 37  1  0  0  0  0
 14 38  1  0  0  0  0
 14 39  1  0  0  0  0
 15 18  1  0  0  0  0
 15 19  1  0  0  0  0
 15 40  1  0  0  0  0
 16 41  1  0  0  0  0
 16 42  1  0  0  0  0
 16 43  1  0  0  0  0
 17 44  1  0  0  0  0
 17 45  1  0  0  0  0
 17 46  1  0  0  0  0
 19 48  1  0  0  0  0
 19 49  1  0  0  0  0
 19 50  1  0  0  0  0
 20 21  1  0  0  0  0
 21 22  2  0  0  0  0
 21 23  1  0  0  0  0
 22 24  1  0  0  0  0
 22 51  1  0  0  0  0
 23 25  2  0  0  0  0
 23 52  1  0  0  0  0
 24 26  2  0  0  0  0
 24 53  1  0  0  0  0
 25 26  1  0  0  0  0
 25 54  1  0  0  0  0
 26 55  1  0  0  0  0
M  END
> <PUBCHEM_COMPOUND_CID>
28962594

> <PUBCHEM_CONFORMER_RMSD>
0.8

> <PUBCHEM_CONFORMER_DIVERSEORDER>
1
4
2
3

> <PUBCHEM_MMFF94_PARTIAL_CHARGES>
21
1 -0.43
13 0.3
15 0.06
18 0.66
2 -0.57
20 0.54
21 0.09
22 -0.15
23 -0.15
24 -0.15
25 -0.15
26 -0.15
3 -0.57
4 -0.73
47 0.37
51 0.15
52 0.15
53 0.15
54 0.15
55 0.15
7 0.28

> <PUBCHEM_EFFECTIVE_ROTOR_COUNT>
4.6

> <PUBCHEM_PHARMACOPHORE_FEATURES>
7
1 2 acceptor
1 3 acceptor
1 4 donor
5 1 7 8 15 18 rings
6 21 22 23 24 25 26 rings
6 5 6 7 8 10 12 rings
6 5 6 9 11 13 14 rings

> <PUBCHEM_HEAVY_ATOM_COUNT>
26

> <PUBCHEM_ATOM_DEF_STEREO_COUNT>
7

> <PUBCHEM_ATOM_UDEF_STEREO_COUNT>
0

> <PUBCHEM_BOND_DEF_STEREO_COUNT>
0

> <PUBCHEM_BOND_UDEF_STEREO_COUNT>
0

> <PUBCHEM_ISOTOPIC_ATOM_COUNT>
0

> <PUBCHEM_COMPONENT_COUNT>
1

> <PUBCHEM_CACTVS_TAUTO_COUNT>
4

> <PUBCHEM_CONFORMER_ID>
01B9EF2200000001

> <PUBCHEM_MMFF94_ENERGY>
75.5628

> <PUBCHEM_FEATURE_SELFOVERLAP>
35.615

> <PUBCHEM_SHAPE_FINGERPRINT>
10 15 18260553354556739920
10319926 262 18339349847578312362
10411042 1 17833551572166686275
10835480 77 18201716297607128936
11045977 3 18272088331639732744
11315181 36 17822292448184498910
12107183 9 18118110386976974970
12236239 1 17458346372955461046
12403259 415 18272939345107563078
12422481 6 17313378964219841174
12616971 3 16443350901097637110
12633257 1 16443069421667904694
12788726 201 17917428653755852376
12838862 33 18335124381464506645
13073987 5 18334294262258190810
13402501 40 18343862225728854496
13533116 47 18261670360298696466
13911987 19 16630249207448859044
14466204 15 18408322198544518832
14739800 52 18336815412429295802
14840074 17 15936403451561485738
14950920 106 15068921762210251349
15131766 46 15215583526495254927
15183329 4 18412261723142700080
15799311 1 14634873063440833106
16079462 125 18060414729552655768
17844677 252 18339086007610808928
17980427 23 17968381255289780014
18608769 82 18411703223261096667
19489759 90 18334012821751572378
20511986 3 18114449094211888915
20554085 129 18268692974786165355
21033648 29 18129649916097359272
21150785 3 16917062274536867949
21236236 1 18411698815912312359
21279426 13 18342181012372930606
21315763 129 18339923835075489704
21792961 116 17845947269353427300
21859007 373 18339079294508061604
22182313 1 18196118623358774143
23402539 116 18411979195593365014
23559900 14 18272929457639414248
2838139 119 18343014471708003085
2916195 48 18343580759214958040
3383291 50 18115311210476830539
34797466 226 17632300055608412405
4073 2 18187931724809037994
5104073 3 18334582291386481779
5283173 99 18413108355375142872
5969126 39 18127965515781620071
59755656 215 18339648833105182966
59755656 520 18334288764652546622
7226269 152 18333731320857540160
9981440 41 18261398840639654747

> <PUBCHEM_SHAPE_MULTIPOLES>
512.48
16.75
2.74
1.06
18.62
0.02
0.13
8.88
0.46
-3.66
0.21
0.74
-0.26
1.69

> <PUBCHEM_SHAPE_SELFOVERLAP>
1097.58

> <PUBCHEM_SHAPE_VOLUME>
281.3

> <PUBCHEM_COORDINATE_TYPE>
2
5
10

$$$$
