11865672
  -OEChem-12032416203D

 48 49  0     1  0  0  0  0  0999 V2000
   -3.8799   -2.1198    1.6114 F   0  0  0  0  0  0  0  0  0  0  0  0
   -7.9292   -0.8430   -0.4751 F   0  0  0  0  0  0  0  0  0  0  0  0
    0.8298    2.4203    1.9548 O   0  0  0  0  0  0  0  0  0  0  0  0
    2.1954    4.0953   -0.9969 O   0  0  0  0  0  0  0  0  0  0  0  0
    5.3056    0.6346   -0.8532 O   0  0  0  0  0  0  0  0  0  0  0  0
   -2.0039    1.7080   -1.1294 O   0  0  0  0  0  0  0  0  0  0  0  0
    2.8919   -3.4247    0.5967 O   0  0  0  0  0  0  0  0  0  0  0  0
   -0.3438    0.7049    0.1287 N   0  0  0  0  0  0  0  0  0  0  0  0
    4.2304   -0.8192    0.6182 N   0  0  0  0  0  0  0  0  0  0  0  0
   -2.4857   -0.1110    0.2741 N   0  0  0  0  0  0  0  0  0  0  0  0
    3.5505   -4.5943   -1.2694 N   0  0  0  0  0  0  0  0  0  0  0  0
    0.8759    2.8035    0.5786 C   0  0  2  0  0  0  0  0  0  0  0  0
    0.7366    1.5534   -0.3111 C   0  0  1  0  0  0  0  0  0  0  0  0
    2.1969    3.5368    0.3153 C   0  0  1  0  0  0  0  0  0  0  0  0
    3.4161    2.6161    0.4954 C   0  0  0  0  0  0  0  0  0  0  0  0
    3.1905    1.2214   -0.0155 C   0  0  0  0  0  0  0  0  0  0  0  0
    1.9971    0.7351   -0.3884 C   0  0  0  0  0  0  0  0  0  0  0  0
    4.3511    0.3343   -0.1370 C   0  0  0  0  0  0  0  0  0  0  0  0
   -1.6614    0.8474   -0.3221 C   0  0  0  0  0  0  0  0  0  0  0  0
    5.2463   -1.8465    0.6583 C   0  0  0  0  0  0  0  0  0  0  0  0
    5.0375   -2.9052   -0.4157 C   0  0  0  0  0  0  0  0  0  0  0  0
   -3.8744   -0.3008    0.0841 C   0  0  0  0  0  0  0  0  0  0  0  0
    3.7163   -3.6416   -0.2865 C   0  0  0  0  0  0  0  0  0  0  0  0
   -4.5433   -1.3152    0.7690 C   0  0  0  0  0  0  0  0  0  0  0  0
   -4.5751    0.5302   -0.7901 C   0  0  0  0  0  0  0  0  0  0  0  0
   -5.9130   -1.4986    0.5798 C   0  0  0  0  0  0  0  0  0  0  0  0
   -5.9448    0.3466   -0.9794 C   0  0  0  0  0  0  0  0  0  0  0  0
   -6.6137   -0.6678   -0.2945 C   0  0  0  0  0  0  0  0  0  0  0  0
    0.0241    3.4686    0.3920 H   0  0  0  0  0  0  0  0  0  0  0  0
    0.5109    1.8804   -1.3346 H   0  0  0  0  0  0  0  0  0  0  0  0
    2.2947    4.3750    1.0160 H   0  0  0  0  0  0  0  0  0  0  0  0
    4.2858    3.0555   -0.0075 H   0  0  0  0  0  0  0  0  0  0  0  0
    3.6547    2.5444    1.5641 H   0  0  0  0  0  0  0  0  0  0  0  0
    1.9134   -0.2718   -0.7928 H   0  0  0  0  0  0  0  0  0  0  0  0
   -0.1531    0.0035    0.8385 H   0  0  0  0  0  0  0  0  0  0  0  0
    0.8906    3.2320    2.4866 H   0  0  0  0  0  0  0  0  0  0  0  0
    3.0266    4.5875   -1.1084 H   0  0  0  0  0  0  0  0  0  0  0  0
    3.3998   -0.9653    1.1851 H   0  0  0  0  0  0  0  0  0  0  0  0
    6.2298   -1.3807    0.5336 H   0  0  0  0  0  0  0  0  0  0  0  0
    5.2065   -2.2967    1.6560 H   0  0  0  0  0  0  0  0  0  0  0  0
   -2.0437   -0.7552    0.9251 H   0  0  0  0  0  0  0  0  0  0  0  0
    5.0714   -2.4433   -1.4100 H   0  0  0  0  0  0  0  0  0  0  0  0
    5.8464   -3.6429   -0.3600 H   0  0  0  0  0  0  0  0  0  0  0  0
   -4.1296    1.3360   -1.3557 H   0  0  0  0  0  0  0  0  0  0  0  0
   -6.4339   -2.2881    1.1132 H   0  0  0  0  0  0  0  0  0  0  0  0
   -6.4921    0.9928   -1.6594 H   0  0  0  0  0  0  0  0  0  0  0  0
    4.2477   -4.7592   -1.9885 H   0  0  0  0  0  0  0  0  0  0  0  0
    2.7137   -5.1668   -1.3052 H   0  0  0  0  0  0  0  0  0  0  0  0
  1 24  1  0  0  0  0
  2 28  1  0  0  0  0
  3 12  1  0  0  0  0
  3 36  1  0  0  0  0
  4 14  1  0  0  0  0
  4 37  1  0  0  0  0
  5 18  2  0  0  0  0
  6 19  2  0  0  0  0
  7 23  2  0  0  0  0
  8 13  1  0  0  0  0
  8 19  1  0  0  0  0
  8 35  1  0  0  0  0
  9 18  1  0  0  0  0
  9 20  1  0  0  0  0
  9 38  1  0  0  0  0
 10 19  1  0  0  0  0
 10 22  1  0  0  0  0
 10 41  1  0  0  0  0
 11 23  1  0  0  0  0
 11 47  1  0  0  0  0
 11 48  1  0  0  0  0
 12 13  1  0  0  0  0
 12 14  1  0  0  0  0
 12 29  1  0  0  0  0
 13 17  1  0  0  0  0
 13 30  1  0  0  0  0
 14 15  1  0  0  0  0
 14 31  1  0  0  0  0
 15 16  1  0  0  0  0
 15 32  1  0  0  0  0
 15 33  1  0  0  0  0
 16 17  2  0  0  0  0
 16 18  1  0  0  0  0
 17 34  1  0  0  0  0
 20 21  1  0  0  0  0
 20 39  1  0  0  0  0
 20 40  1  0  0  0  0
 21 23  1  0  0  0  0
 21 42  1  0  0  0  0
 21 43  1  0  0  0  0
 22 24  2  0  0  0  0
 22 25  1  0  0  0  0
 24 26  1  0  0  0  0
 25 27  2  0  0  0  0
 25 44  1  0  0  0  0
 26 28  2  0  0  0  0
 26 45  1  0  0  0  0
 27 28  1  0  0  0  0
 27 46  1  0  0  0  0
M  END
> <PUBCHEM_COMPOUND_CID>
11865672

> <PUBCHEM_CONFORMER_RMSD>
1

> <PUBCHEM_CONFORMER_DIVERSEORDER>
1
158
123
140
134
3
102
67
151
88
127
122
155
114
105
38
75
157
82
145
68
46
147
10
161
141
52
153
47
31
152
132
115
27
21
54
71
135
84
159
5
130
108
53
156
44
137
89
51
97
29
57
144
99
14
23
60
109
125
128
113
162
15
74
36
37
106
96
16
40
62
142
143
22
66
160
26
83
117
110
94
39
80
2
150
35
118
111
85
146
18
42
50
139
100
98
77
154
116
13
81
126
17
61
48
92
24
34
45
112
9
65
93
133
49
41
87
6
30
8
103
32
86
20
149
64
4
95
63
136
121
107
11
101
148
131
129
12
79
104
43
78
70
73
7
76
33
19
120
90
56
69
55
124
138
59
25
28
58
91
119
72

> <PUBCHEM_MMFF94_PARTIAL_CHARGES>
39
1 -0.19
10 -0.55
11 -0.8
12 0.28
13 0.44
14 0.28
15 0.14
16 -0.12
17 -0.29
18 0.62
19 0.69
2 -0.19
20 0.3
21 0.06
22 0.12
23 0.57
24 0.19
25 -0.15
26 -0.15
27 -0.15
28 0.19
3 -0.68
34 0.15
35 0.37
36 0.4
37 0.4
38 0.37
4 -0.68
41 0.37
44 0.15
45 0.15
46 0.15
47 0.37
48 0.37
5 -0.57
6 -0.57
7 -0.57
8 -0.73
9 -0.73

> <PUBCHEM_EFFECTIVE_ROTOR_COUNT>
9.8

> <PUBCHEM_PHARMACOPHORE_FEATURES>
13
1 10 donor
1 11 donor
1 3 acceptor
1 3 donor
1 4 acceptor
1 4 donor
1 5 acceptor
1 6 acceptor
1 7 acceptor
1 8 donor
1 9 donor
6 12 13 14 15 16 17 rings
6 22 24 25 26 27 28 rings

> <PUBCHEM_HEAVY_ATOM_COUNT>
28

> <PUBCHEM_ATOM_DEF_STEREO_COUNT>
3

> <PUBCHEM_ATOM_UDEF_STEREO_COUNT>
0

> <PUBCHEM_BOND_DEF_STEREO_COUNT>
0

> <PUBCHEM_BOND_UDEF_STEREO_COUNT>
0

> <PUBCHEM_ISOTOPIC_ATOM_COUNT>
0

> <PUBCHEM_COMPONENT_COUNT>
1

> <PUBCHEM_CACTVS_TAUTO_COUNT>
12

> <PUBCHEM_CONFORMER_ID>
00B50E4800000001

> <PUBCHEM_MMFF94_ENERGY>
52.3258

> <PUBCHEM_FEATURE_SELFOVERLAP>
66.033

> <PUBCHEM_SHAPE_FINGERPRINT>
10673678 19 17606417685720926036
117089 54 18126011460085876134
11719270 70 18338512066952440136
11796584 16 17967245395000167731
12107183 9 18127140671628268857
13533116 47 18342174492438365529
1361 2 18412824668395939754
13785724 45 18127985100267597502
13911852 28 18268991999031239670
13955234 65 18198620141076776064
13989917 61 18412545439798096159
14251740 57 18129946659472330102
15003188 105 18115587020676585258
15183329 4 18408042914296580369
15927050 60 17981324814026130334
17492 89 18052256203193886694
17909252 39 18411697665051131144
19319366 153 18056476390424152724
1979834 28 18271795827187207730
21033650 10 16371002933006051269
21130935 74 18338239396938040411
21279426 13 18261385582401964157
23559900 14 18188485886927217709
23569914 152 17545845302388595335
239999 70 17895750819941657984
3004659 81 18040434365614062634
314194 84 18343577456095061230
3421961 26 18411979165787069560
345986 75 17632578214817818208
34797466 226 16950284048329636389
4073 2 17897164834939343209
4435113 14 17896620525070575747
46194498 28 17749106720915121348
5309563 4 18268712702004095574
6299153 45 18200041634213735033
6695519 79 17475257050289683441

> <PUBCHEM_SHAPE_MULTIPOLES>
512.41
16.73
4.98
1.09
25.29
1.86
0.18
12.11
-1.49
-9.67
-0.35
0.24
-0.03
1.45

> <PUBCHEM_SHAPE_SELFOVERLAP>
1073.483

> <PUBCHEM_SHAPE_VOLUME>
287.2

> <PUBCHEM_COORDINATE_TYPE>
2
5
10

$$$$
