45783823
  -OEChem-12032416263D

 52 56  0     1  0  0  0  0  0999 V2000
   -1.7057   -1.8647    1.8957 O   0  0  0  0  0  0  0  0  0  0  0  0
   -1.7843    1.7649   -0.9867 O   0  0  0  0  0  0  0  0  0  0  0  0
   -3.7709   -0.3833   -0.7586 N   0  0  1  0  0  0  0  0  0  0  0  0
   -0.9699   -1.1841   -0.1073 N   0  0  0  0  0  0  0  0  0  0  0  0
   -0.3075   -1.8545    1.9773 N   0  0  0  0  0  0  0  0  0  0  0  0
    3.7656   -1.4131    0.9634 N   0  0  0  0  0  0  0  0  0  0  0  0
    5.4165   -0.8387   -0.6552 N   0  0  0  0  0  0  0  0  0  0  0  0
   -3.4846   -1.3818    0.2909 C   0  0  1  0  0  0  0  0  0  0  0  0
   -4.0325   -2.7070   -0.2701 C   0  0  0  0  0  0  0  0  0  0  0  0
   -4.6608   -2.3431   -1.6079 C   0  0  0  0  0  0  0  0  0  0  0  0
   -4.9541   -0.8625   -1.4733 C   0  0  0  0  0  0  0  0  0  0  0  0
   -3.9551    0.9640   -0.2348 C   0  0  0  0  0  0  0  0  0  0  0  0
   -2.0121   -1.4575    0.6361 C   0  0  0  0  0  0  0  0  0  0  0  0
   -2.6402    1.6354    0.0604 C   0  0  0  0  0  0  0  0  0  0  0  0
   -2.0939    2.1682    1.2051 C   0  0  0  0  0  0  0  0  0  0  0  0
   -0.8123    2.6616    0.8449 C   0  0  0  0  0  0  0  0  0  0  0  0
    0.0529   -1.4424    0.7582 C   0  0  0  0  0  0  0  0  0  0  0  0
   -0.6701    2.3896   -0.5119 C   0  0  0  0  0  0  0  0  0  0  0  0
    1.4250   -1.2801    0.3728 C   0  0  0  0  0  0  0  0  0  0  0  0
    0.2419    3.3071    1.5146 C   0  0  0  0  0  0  0  0  0  0  0  0
    0.4588    2.7175   -1.2605 C   0  0  0  0  0  0  0  0  0  0  0  0
    1.3908    3.6490    0.7882 C   0  0  0  0  0  0  0  0  0  0  0  0
    1.4948    3.3586   -0.5746 C   0  0  0  0  0  0  0  0  0  0  0  0
    1.7643   -0.8507   -0.9054 C   0  0  0  0  0  0  0  0  0  0  0  0
    2.4537   -1.5457    1.2622 C   0  0  0  0  0  0  0  0  0  0  0  0
    3.1032   -0.7023   -1.2503 C   0  0  0  0  0  0  0  0  0  0  0  0
    4.0569   -0.9937   -0.2883 C   0  0  0  0  0  0  0  0  0  0  0  0
    6.4647   -1.1178    0.3015 C   0  0  0  0  0  0  0  0  0  0  0  0
    5.7648   -0.3929   -1.9861 C   0  0  0  0  0  0  0  0  0  0  0  0
   -4.0445   -1.1530    1.2086 H   0  0  0  0  0  0  0  0  0  0  0  0
   -3.2699   -3.4830   -0.3967 H   0  0  0  0  0  0  0  0  0  0  0  0
   -4.8045   -3.1006    0.4023 H   0  0  0  0  0  0  0  0  0  0  0  0
   -5.5588   -2.9317   -1.8171 H   0  0  0  0  0  0  0  0  0  0  0  0
   -3.9414   -2.5187   -2.4175 H   0  0  0  0  0  0  0  0  0  0  0  0
   -5.8716   -0.7078   -0.8913 H   0  0  0  0  0  0  0  0  0  0  0  0
   -5.0674   -0.3846   -2.4513 H   0  0  0  0  0  0  0  0  0  0  0  0
   -4.4502    1.5891   -0.9905 H   0  0  0  0  0  0  0  0  0  0  0  0
   -4.6027    0.9802    0.6507 H   0  0  0  0  0  0  0  0  0  0  0  0
   -2.5593    2.1972    2.1803 H   0  0  0  0  0  0  0  0  0  0  0  0
    0.1755    3.5389    2.5733 H   0  0  0  0  0  0  0  0  0  0  0  0
    0.5329    2.4871   -2.3166 H   0  0  0  0  0  0  0  0  0  0  0  0
    2.2136    4.1474    1.2943 H   0  0  0  0  0  0  0  0  0  0  0  0
    2.3987    3.6343   -1.1120 H   0  0  0  0  0  0  0  0  0  0  0  0
    1.0067   -0.6257   -1.6517 H   0  0  0  0  0  0  0  0  0  0  0  0
    2.2740   -1.8843    2.2782 H   0  0  0  0  0  0  0  0  0  0  0  0
    3.3234   -0.3650   -2.2558 H   0  0  0  0  0  0  0  0  0  0  0  0
    6.3747   -0.4644    1.1763 H   0  0  0  0  0  0  0  0  0  0  0  0
    6.4176   -2.1603    0.6350 H   0  0  0  0  0  0  0  0  0  0  0  0
    7.4624   -0.9582   -0.1210 H   0  0  0  0  0  0  0  0  0  0  0  0
    5.4118   -1.0951   -2.7499 H   0  0  0  0  0  0  0  0  0  0  0  0
    5.3711    0.6095   -2.1893 H   0  0  0  0  0  0  0  0  0  0  0  0
    6.8513   -0.3253   -2.1139 H   0  0  0  0  0  0  0  0  0  0  0  0
  1  5  1  0  0  0  0
  1 13  1  0  0  0  0
  2 14  1  0  0  0  0
  2 18  1  0  0  0  0
  3  8  1  0  0  0  0
  3 11  1  0  0  0  0
  3 12  1  0  0  0  0
  4 13  2  0  0  0  0
  4 17  1  0  0  0  0
  5 17  2  0  0  0  0
  6 25  1  0  0  0  0
  6 27  2  0  0  0  0
  7 27  1  0  0  0  0
  7 28  1  0  0  0  0
  7 29  1  0  0  0  0
  8  9  1  0  0  0  0
  8 13  1  0  0  0  0
  8 30  1  0  0  0  0
  9 10  1  0  0  0  0
  9 31  1  0  0  0  0
  9 32  1  0  0  0  0
 10 11  1  0  0  0  0
 10 33  1  0  0  0  0
 10 34  1  0  0  0  0
 11 35  1  0  0  0  0
 11 36  1  0  0  0  0
 12 14  1  0  0  0  0
 12 37  1  0  0  0  0
 12 38  1  0  0  0  0
 14 15  2  0  0  0  0
 15 16  1  0  0  0  0
 15 39  1  0  0  0  0
 16 18  1  0  0  0  0
 16 20  2  0  0  0  0
 17 19  1  0  0  0  0
 18 21  2  0  0  0  0
 19 24  1  0  0  0  0
 19 25  2  0  0  0  0
 20 22  1  0  0  0  0
 20 40  1  0  0  0  0
 21 23  1  0  0  0  0
 21 41  1  0  0  0  0
 22 23  2  0  0  0  0
 22 42  1  0  0  0  0
 23 43  1  0  0  0  0
 24 26  2  0  0  0  0
 24 44  1  0  0  0  0
 25 45  1  0  0  0  0
 26 27  1  0  0  0  0
 26 46  1  0  0  0  0
 28 47  1  0  0  0  0
 28 48  1  0  0  0  0
 28 49  1  0  0  0  0
 29 50  1  0  0  0  0
 29 51  1  0  0  0  0
 29 52  1  0  0  0  0
M  END
> <PUBCHEM_COMPOUND_CID>
45783823

> <PUBCHEM_CONFORMER_RMSD>
0.8

> <PUBCHEM_CONFORMER_DIVERSEORDER>
1
118
60
47
33
88
171
175
48
178
165
73
182
5
91
162
155
126
101
187
147
72
188
195
59
132
53
164
80
197
65
6
129
45
119
124
183
76
160
123
152
174
23
68
196
8
87
137
190
158
151
179
67
153
98
70
186
55
163
170
148
62
169
172
66
185
111
38
193
11
49
35
130
150
192
136
18
7
24
191
177
117
95
166
16
85
198
100
181
63
14
131
58
52
156
99
37
168
81
2
86
10
110
26
104
142
173
138
17
176
42
29
145
54
90
167
157
51
3
189
19
108
71
161
107
143
94
46
15
28
184
154
102
128
105
56
44
21
141
27
74
78
113
194
112
36
103
135
115
146
30
77
4
50
39
149
127
97
180
134
89
64
31
120
116
13
121
106
22
20
114
140
41
84
34
122
93
109
96
79
133
75
9
144
40
32
159
43
69
12
92
25
125
57
82
61
139
83

> <PUBCHEM_MMFF94_PARTIAL_CHARGES>
34
1 -0.02
11 0.27
12 0.45
13 0.3
14 -0.04
15 -0.15
17 0.46
18 0.14
19 0.05
2 -0.28
20 -0.15
21 -0.15
22 -0.15
23 -0.15
24 -0.15
25 0.16
26 -0.15
27 0.41
28 0.37
29 0.37
3 -0.81
39 0.15
4 -0.57
40 0.15
41 0.15
42 0.15
43 0.15
44 0.15
45 0.15
46 0.15
5 -0.41
6 -0.62
7 -0.84
8 0.45

> <PUBCHEM_EFFECTIVE_ROTOR_COUNT>
6

> <PUBCHEM_PHARMACOPHORE_FEATURES>
9
1 2 acceptor
1 3 cation
3 4 5 17 cation
3 6 7 27 cation
5 1 4 5 13 17 rings
5 2 14 15 16 18 rings
5 3 8 9 10 11 rings
6 16 18 20 21 22 23 rings
6 6 19 24 25 26 27 rings

> <PUBCHEM_HEAVY_ATOM_COUNT>
29

> <PUBCHEM_ATOM_DEF_STEREO_COUNT>
1

> <PUBCHEM_ATOM_UDEF_STEREO_COUNT>
0

> <PUBCHEM_BOND_DEF_STEREO_COUNT>
0

> <PUBCHEM_BOND_UDEF_STEREO_COUNT>
0

> <PUBCHEM_ISOTOPIC_ATOM_COUNT>
0

> <PUBCHEM_COMPONENT_COUNT>
1

> <PUBCHEM_CACTVS_TAUTO_COUNT>
1

> <PUBCHEM_CONFORMER_ID>
02BA9B0F00000001

> <PUBCHEM_MMFF94_ENERGY>
64.3957

> <PUBCHEM_FEATURE_SELFOVERLAP>
45.776

> <PUBCHEM_SHAPE_FINGERPRINT>
10006869 2 17759256093955417097
10871710 139 18117281354734825501
1100329 8 18411984624943924881
12156800 1 15290366620948312756
12166972 35 17749394805519277150
12788726 201 18263078817007151410
14068700 675 18272365395072905741
14787075 74 18335704923255643940
14790565 3 17620473511188875225
14910302 57 17773316729987152662
14931854 50 18187363203349350927
16090146 7 17703798012252628507
17357779 13 18341608234995992778
17492 54 18114741530177182549
17818456 19 17904748999844465386
18336668 15 18114186319570394668
19319366 153 17752484253469170835
20642791 35 18337376194147002865
20691752 17 17676753375729526029
20775438 99 17549236578000689591
20905425 154 18196374951496541437
21344244 246 17909818079091948167
23402539 116 18410572868682046182
23419403 2 18049124973870365565
23557571 272 18202000984533379534
23559900 14 18116990181716367693
238918 7 17473818906186184520
3298306 158 17833828657105779157
392239 28 18411702046176365624
4280585 95 18337098017008804344
5171179 24 18271800276108843920
7471813 234 18341048626748908054

> <PUBCHEM_SHAPE_MULTIPOLES>
560.16
10.61
4.34
1.66
9.71
4.37
0.04
-8.9
-4.71
-1.19
0.73
0.22
-0.29
-0.7

> <PUBCHEM_SHAPE_SELFOVERLAP>
1233.798

> <PUBCHEM_SHAPE_VOLUME>
305.4

> <PUBCHEM_COORDINATE_TYPE>
2
5
10

$$$$
