26743832
  -OEChem-12032416283D

 46 49  0     1  0  0  0  0  0999 V2000
   -3.4608    3.4611    2.0641 O   0  0  0  0  0  0  0  0  0  0  0  0
    0.8950    2.4997   -1.4844 O   0  0  0  0  0  0  0  0  0  0  0  0
   -2.0984    0.9219   -0.0496 N   0  0  1  0  0  0  0  0  0  0  0  0
    0.8854    0.8083   -0.0163 N   0  0  0  0  0  0  0  0  0  0  0  0
    2.2038    2.0017   -1.4556 N   0  0  0  0  0  0  0  0  0  0  0  0
   -1.2825    2.0843   -0.4553 C   0  0  1  0  0  0  0  0  0  0  0  0
   -1.5361    3.1429    0.6341 C   0  0  0  0  0  0  0  0  0  0  0  0
   -2.5414    2.5007    1.5818 C   0  0  2  0  0  0  0  0  0  0  0  0
   -3.2213    1.4530    0.7209 C   0  0  0  0  0  0  0  0  0  0  0  0
   -2.5412    0.1099   -1.1754 C   0  0  0  0  0  0  0  0  0  0  0  0
    0.1845    1.7417   -0.6087 C   0  0  0  0  0  0  0  0  0  0  0  0
   -2.9235   -1.2819   -0.7469 C   0  0  0  0  0  0  0  0  0  0  0  0
    2.1177    1.0068   -0.5675 C   0  0  0  0  0  0  0  0  0  0  0  0
   -1.9643   -2.2946   -0.7300 C   0  0  0  0  0  0  0  0  0  0  0  0
   -4.2367   -1.5587   -0.3669 C   0  0  0  0  0  0  0  0  0  0  0  0
    3.2436    0.1939   -0.2080 C   0  0  0  0  0  0  0  0  0  0  0  0
   -2.3184   -3.5841   -0.3329 C   0  0  0  0  0  0  0  0  0  0  0  0
   -4.5909   -2.8482    0.0302 C   0  0  0  0  0  0  0  0  0  0  0  0
   -3.6315   -3.8608    0.0474 C   0  0  0  0  0  0  0  0  0  0  0  0
    3.0944   -0.8316    0.7258 C   0  0  0  0  0  0  0  0  0  0  0  0
    4.4876    0.4281   -0.7940 C   0  0  0  0  0  0  0  0  0  0  0  0
    4.1891   -1.6229    1.0736 C   0  0  0  0  0  0  0  0  0  0  0  0
    5.5825   -0.3631   -0.4459 C   0  0  0  0  0  0  0  0  0  0  0  0
    5.4332   -1.3887    0.4876 C   0  0  0  0  0  0  0  0  0  0  0  0
    4.0302   -2.7194    2.0720 C   0  0  0  0  0  0  0  0  0  0  0  0
   -1.6483    2.4908   -1.4090 H   0  0  0  0  0  0  0  0  0  0  0  0
   -0.6299    3.4300    1.1798 H   0  0  0  0  0  0  0  0  0  0  0  0
   -1.9482    4.0561    0.1868 H   0  0  0  0  0  0  0  0  0  0  0  0
   -2.0295    2.0337    2.4322 H   0  0  0  0  0  0  0  0  0  0  0  0
   -3.9938    1.9127    0.0903 H   0  0  0  0  0  0  0  0  0  0  0  0
   -3.7017    0.6977    1.3509 H   0  0  0  0  0  0  0  0  0  0  0  0
   -3.3652    0.5821   -1.7277 H   0  0  0  0  0  0  0  0  0  0  0  0
   -1.7312    0.0102   -1.9114 H   0  0  0  0  0  0  0  0  0  0  0  0
   -2.9517    4.1396    2.5397 H   0  0  0  0  0  0  0  0  0  0  0  0
   -0.9368   -2.0917   -1.0208 H   0  0  0  0  0  0  0  0  0  0  0  0
   -4.9958   -0.7812   -0.3808 H   0  0  0  0  0  0  0  0  0  0  0  0
   -1.5714   -4.3725   -0.3189 H   0  0  0  0  0  0  0  0  0  0  0  0
   -5.6137   -3.0642    0.3250 H   0  0  0  0  0  0  0  0  0  0  0  0
   -3.9072   -4.8647    0.3566 H   0  0  0  0  0  0  0  0  0  0  0  0
    2.1326   -1.0288    1.1946 H   0  0  0  0  0  0  0  0  0  0  0  0
    4.6423    1.2175   -1.5252 H   0  0  0  0  0  0  0  0  0  0  0  0
    6.5514   -0.1808   -0.9016 H   0  0  0  0  0  0  0  0  0  0  0  0
    6.2946   -1.9966    0.7512 H   0  0  0  0  0  0  0  0  0  0  0  0
    4.1321   -2.3213    3.0865 H   0  0  0  0  0  0  0  0  0  0  0  0
    3.0491   -3.1969    1.9768 H   0  0  0  0  0  0  0  0  0  0  0  0
    4.7826   -3.5023    1.9277 H   0  0  0  0  0  0  0  0  0  0  0  0
  1  8  1  0  0  0  0
  1 34  1  0  0  0  0
  2  5  1  0  0  0  0
  2 11  1  0  0  0  0
  3  6  1  0  0  0  0
  3  9  1  0  0  0  0
  3 10  1  0  0  0  0
  4 11  2  0  0  0  0
  4 13  1  0  0  0  0
  5 13  2  0  0  0  0
  6  7  1  0  0  0  0
  6 11  1  0  0  0  0
  6 26  1  0  0  0  0
  7  8  1  0  0  0  0
  7 27  1  0  0  0  0
  7 28  1  0  0  0  0
  8  9  1  0  0  0  0
  8 29  1  0  0  0  0
  9 30  1  0  0  0  0
  9 31  1  0  0  0  0
 10 12  1  0  0  0  0
 10 32  1  0  0  0  0
 10 33  1  0  0  0  0
 12 14  2  0  0  0  0
 12 15  1  0  0  0  0
 13 16  1  0  0  0  0
 14 17  1  0  0  0  0
 14 35  1  0  0  0  0
 15 18  2  0  0  0  0
 15 36  1  0  0  0  0
 16 20  1  0  0  0  0
 16 21  2  0  0  0  0
 17 19  2  0  0  0  0
 17 37  1  0  0  0  0
 18 19  1  0  0  0  0
 18 38  1  0  0  0  0
 19 39  1  0  0  0  0
 20 22  2  0  0  0  0
 20 40  1  0  0  0  0
 21 23  1  0  0  0  0
 21 41  1  0  0  0  0
 22 24  1  0  0  0  0
 22 25  1  0  0  0  0
 23 24  2  0  0  0  0
 23 42  1  0  0  0  0
 24 43  1  0  0  0  0
 25 44  1  0  0  0  0
 25 45  1  0  0  0  0
 25 46  1  0  0  0  0
M  END
> <PUBCHEM_COMPOUND_CID>
26743832

> <PUBCHEM_CONFORMER_RMSD>
0.8

> <PUBCHEM_CONFORMER_DIVERSEORDER>
1
43
11
65
48
15
49
64
47
53
20
63
70
66
37
9
50
12
14
13
61
3
19
29
39
67
40
45
56
62
68
5
52
58
36
28
42
35
54
57
33
16
23
17
34
41
59
6
46
55
22
69
30
21
51
2
25
60
44
10
38
32
8
26
27
31
4
18
7
24

> <PUBCHEM_MMFF94_PARTIAL_CHARGES>
34
1 -0.68
10 0.41
11 0.3
12 -0.14
13 0.46
14 -0.15
15 -0.15
16 0.05
17 -0.15
18 -0.15
19 -0.15
2 -0.02
20 -0.15
21 -0.15
22 -0.14
23 -0.15
24 -0.15
25 0.14
3 -0.81
34 0.4
35 0.15
36 0.15
37 0.15
38 0.15
39 0.15
4 -0.57
40 0.15
41 0.15
42 0.15
43 0.15
5 -0.41
6 0.45
8 0.28
9 0.27

> <PUBCHEM_EFFECTIVE_ROTOR_COUNT>
5

> <PUBCHEM_PHARMACOPHORE_FEATURES>
8
1 1 acceptor
1 1 donor
1 3 cation
3 4 5 13 cation
5 2 4 5 11 13 rings
5 3 6 7 8 9 rings
6 12 14 15 17 18 19 rings
6 16 20 21 22 23 24 rings

> <PUBCHEM_HEAVY_ATOM_COUNT>
25

> <PUBCHEM_ATOM_DEF_STEREO_COUNT>
2

> <PUBCHEM_ATOM_UDEF_STEREO_COUNT>
0

> <PUBCHEM_BOND_DEF_STEREO_COUNT>
0

> <PUBCHEM_BOND_UDEF_STEREO_COUNT>
0

> <PUBCHEM_ISOTOPIC_ATOM_COUNT>
0

> <PUBCHEM_COMPONENT_COUNT>
1

> <PUBCHEM_CACTVS_TAUTO_COUNT>
1

> <PUBCHEM_CONFORMER_ID>
0198141800000001

> <PUBCHEM_MMFF94_ENERGY>
56.1715

> <PUBCHEM_FEATURE_SELFOVERLAP>
40.597

> <PUBCHEM_SHAPE_FINGERPRINT>
10622 236 18188754107234368274
10928967 22 17897728657024573442
11315621 246 18335990753708981910
114674 6 16681752797395117395
11552529 35 18341608196752815472
12107183 9 18268444589182209579
12174731 88 17682095700644725994
12553582 1 17842846791636978079
12633257 1 18129377090852895344
12760667 363 18341609373822170887
12788726 201 18270416008312327455
12824470 246 18336826489155414813
13004483 165 18200876309166729509
13009979 54 18411426145439321028
13631057 29 18338233881745987636
14178342 30 18270971145598853422
14866123 147 18413394237721470219
15099037 8 18336548316881954237
15250474 111 18334852784675160826
15352361 1 18335978787102127462
15537594 2 17969514710386915330
15842332 3 18190484777038095948
16728300 4 18115601357440099323
19319366 153 17328029179107352181
19784866 135 18271246122727836475
20291156 8 18264201577050391871
20554085 129 17271436899594831017
20775530 9 18264478654054671695
21033648 29 16199854065375144928
21054139 6 18114180865837387942
23559900 14 18268136725019232989
23598288 3 18272092750992223845
23728640 28 18341338790676463145
3004659 81 18115863169218063495
345986 75 18269561709743174627
46194498 28 16516802752835848430
463206 1 17977383064097579586
5104073 3 18272362050184958760
5486654 36 18410859849748489768
58807428 26 17910970045340134305
602551 16 18271804576072116138
7064713 232 18127683829944576266
79837 15 18055930800807215305

> <PUBCHEM_SHAPE_MULTIPOLES>
487.81
11.29
4.89
1.46
10.56
0.95
-0.54
8.19
-1.54
-6.24
-1.4
0.28
-0.62
-3.6

> <PUBCHEM_SHAPE_SELFOVERLAP>
1060.687

> <PUBCHEM_SHAPE_VOLUME>
268.5

> <PUBCHEM_COORDINATE_TYPE>
2
5
10

$$$$
