51136829
  -OEChem-12032416223D

 63 67  0     1  0  0  0  0  0999 V2000
    0.6621    3.2986   -0.1324 F   0  0  0  0  0  0  0  0  0  0  0  0
   -0.8803    4.7389   -0.6556 F   0  0  0  0  0  0  0  0  0  0  0  0
    0.4694    3.9803   -2.1822 F   0  0  0  0  0  0  0  0  0  0  0  0
   -3.7549   -0.4199    2.0197 O   0  0  0  0  0  0  0  0  0  0  0  0
    6.3699   -2.8924   -1.8609 O   0  0  0  0  0  0  0  0  0  0  0  0
   -3.7005   -1.8722   -1.3556 N   0  0  1  0  0  0  0  0  0  0  0  0
    3.1033   -0.3487    1.0443 N   0  0  0  0  0  0  0  0  0  0  0  0
    5.2269   -1.2234   -0.7174 N   0  0  0  0  0  0  0  0  0  0  0  0
   -1.9183   -0.9833    0.8682 N   0  0  0  0  0  0  0  0  0  0  0  0
   -2.6743    0.1440    2.7098 N   0  0  0  0  0  0  0  0  0  0  0  0
    2.3506    0.8237    2.9511 N   0  0  0  0  0  0  0  0  0  0  0  0
   -4.1994   -1.7680    0.0302 C   0  0  1  0  0  0  0  0  0  0  0  0
   -4.4769   -3.2215    0.4564 C   0  0  0  0  0  0  0  0  0  0  0  0
   -4.1635   -4.0631   -0.7726 C   0  0  0  0  0  0  0  0  0  0  0  0
   -4.2979   -3.0826   -1.9200 C   0  0  0  0  0  0  0  0  0  0  0  0
   -3.9888   -0.6919   -2.1601 C   0  0  0  0  0  0  0  0  0  0  0  0
   -3.2223   -1.0657    0.9495 C   0  0  0  0  0  0  0  0  0  0  0  0
   -3.0187    0.4258   -1.8835 C   0  0  0  0  0  0  0  0  0  0  0  0
    4.3291    0.4416    0.9071 C   0  0  0  0  0  0  0  0  0  0  0  0
    3.0182   -1.6245    0.3282 C   0  0  0  0  0  0  0  0  0  0  0  0
    4.9835    0.1963   -0.4526 C   0  0  0  0  0  0  0  0  0  0  0  0
    4.4130   -2.1735    0.0364 C   0  0  0  0  0  0  0  0  0  0  0  0
   -1.6273   -0.2319    1.9694 C   0  0  0  0  0  0  0  0  0  0  0  0
    2.0592    0.0792    1.8609 C   0  0  0  0  0  0  0  0  0  0  0  0
   -3.4873    1.6597   -1.4321 C   0  0  0  0  0  0  0  0  0  0  0  0
   -1.6517    0.2275   -2.0776 C   0  0  0  0  0  0  0  0  0  0  0  0
   -0.2773    0.1253    2.3031 C   0  0  0  0  0  0  0  0  0  0  0  0
    0.7753   -0.2931    1.4966 C   0  0  0  0  0  0  0  0  0  0  0  0
    6.1636   -1.6976   -1.6365 C   0  0  0  0  0  0  0  0  0  0  0  0
   -2.5890    2.6953   -1.1751 C   0  0  0  0  0  0  0  0  0  0  0  0
   -0.7533    1.2630   -1.8206 C   0  0  0  0  0  0  0  0  0  0  0  0
   -1.2220    2.4970   -1.3694 C   0  0  0  0  0  0  0  0  0  0  0  0
   -0.0175    0.8926    3.4333 C   0  0  0  0  0  0  0  0  0  0  0  0
    1.3019    1.2120    3.7110 C   0  0  0  0  0  0  0  0  0  0  0  0
    6.9571   -0.6509   -2.3796 C   0  0  0  0  0  0  0  0  0  0  0  0
   -0.2614    3.6033   -1.0915 C   0  0  0  0  0  0  0  0  0  0  0  0
   -5.1547   -1.2253    0.0602 H   0  0  0  0  0  0  0  0  0  0  0  0
   -3.8832   -3.5518    1.3157 H   0  0  0  0  0  0  0  0  0  0  0  0
   -5.5365   -3.3333    0.7167 H   0  0  0  0  0  0  0  0  0  0  0  0
   -4.8375   -4.9192   -0.8707 H   0  0  0  0  0  0  0  0  0  0  0  0
   -3.1360   -4.4428   -0.7121 H   0  0  0  0  0  0  0  0  0  0  0  0
   -3.7641   -3.4296   -2.8101 H   0  0  0  0  0  0  0  0  0  0  0  0
   -5.3557   -2.9350   -2.1724 H   0  0  0  0  0  0  0  0  0  0  0  0
   -3.8781   -0.9319   -3.2271 H   0  0  0  0  0  0  0  0  0  0  0  0
   -5.0291   -0.3620   -2.0400 H   0  0  0  0  0  0  0  0  0  0  0  0
    4.1122    1.5128    0.9984 H   0  0  0  0  0  0  0  0  0  0  0  0
    5.0208    0.1710    1.7141 H   0  0  0  0  0  0  0  0  0  0  0  0
    2.4780   -1.4780   -0.6153 H   0  0  0  0  0  0  0  0  0  0  0  0
    2.4801   -2.3737    0.9220 H   0  0  0  0  0  0  0  0  0  0  0  0
    5.9217    0.7556   -0.5110 H   0  0  0  0  0  0  0  0  0  0  0  0
    4.3308    0.5581   -1.2565 H   0  0  0  0  0  0  0  0  0  0  0  0
    4.3375   -3.1204   -0.5087 H   0  0  0  0  0  0  0  0  0  0  0  0
    4.9482   -2.3771    0.9721 H   0  0  0  0  0  0  0  0  0  0  0  0
   -4.5493    1.8273   -1.2742 H   0  0  0  0  0  0  0  0  0  0  0  0
   -1.2716   -0.7268   -2.4323 H   0  0  0  0  0  0  0  0  0  0  0  0
    0.5814   -0.8748    0.6013 H   0  0  0  0  0  0  0  0  0  0  0  0
   -2.9743    3.6480   -0.8227 H   0  0  0  0  0  0  0  0  0  0  0  0
    0.3101    1.0985   -1.9731 H   0  0  0  0  0  0  0  0  0  0  0  0
   -0.7974    1.2478    4.0987 H   0  0  0  0  0  0  0  0  0  0  0  0
    1.5582    1.8084    4.5804 H   0  0  0  0  0  0  0  0  0  0  0  0
    7.5333   -1.1308   -3.1766 H   0  0  0  0  0  0  0  0  0  0  0  0
    6.2921    0.0845   -2.8397 H   0  0  0  0  0  0  0  0  0  0  0  0
    7.6544   -0.1581   -1.6972 H   0  0  0  0  0  0  0  0  0  0  0  0
  1 36  1  0  0  0  0
  2 36  1  0  0  0  0
  3 36  1  0  0  0  0
  4 10  1  0  0  0  0
  4 17  1  0  0  0  0
  5 29  2  0  0  0  0
  6 12  1  0  0  0  0
  6 15  1  0  0  0  0
  6 16  1  0  0  0  0
  7 19  1  0  0  0  0
  7 20  1  0  0  0  0
  7 24  1  0  0  0  0
  8 21  1  0  0  0  0
  8 22  1  0  0  0  0
  8 29  1  0  0  0  0
  9 17  2  0  0  0  0
  9 23  1  0  0  0  0
 10 23  2  0  0  0  0
 11 24  2  0  0  0  0
 11 34  1  0  0  0  0
 12 13  1  0  0  0  0
 12 17  1  0  0  0  0
 12 37  1  0  0  0  0
 13 14  1  0  0  0  0
 13 38  1  0  0  0  0
 13 39  1  0  0  0  0
 14 15  1  0  0  0  0
 14 40  1  0  0  0  0
 14 41  1  0  0  0  0
 15 42  1  0  0  0  0
 15 43  1  0  0  0  0
 16 18  1  0  0  0  0
 16 44  1  0  0  0  0
 16 45  1  0  0  0  0
 18 25  2  0  0  0  0
 18 26  1  0  0  0  0
 19 21  1  0  0  0  0
 19 46  1  0  0  0  0
 19 47  1  0  0  0  0
 20 22  1  0  0  0  0
 20 48  1  0  0  0  0
 20 49  1  0  0  0  0
 21 50  1  0  0  0  0
 21 51  1  0  0  0  0
 22 52  1  0  0  0  0
 22 53  1  0  0  0  0
 23 27  1  0  0  0  0
 24 28  1  0  0  0  0
 25 30  1  0  0  0  0
 25 54  1  0  0  0  0
 26 31  2  0  0  0  0
 26 55  1  0  0  0  0
 27 28  2  0  0  0  0
 27 33  1  0  0  0  0
 28 56  1  0  0  0  0
 29 35  1  0  0  0  0
 30 32  2  0  0  0  0
 30 57  1  0  0  0  0
 31 32  1  0  0  0  0
 31 58  1  0  0  0  0
 32 36  1  0  0  0  0
 33 34  2  0  0  0  0
 33 59  1  0  0  0  0
 34 60  1  0  0  0  0
 35 61  1  0  0  0  0
 35 62  1  0  0  0  0
 35 63  1  0  0  0  0
M  END
> <PUBCHEM_COMPOUND_CID>
51136829

> <PUBCHEM_CONFORMER_RMSD>
1.2

> <PUBCHEM_CONFORMER_DIVERSEORDER>
1
60
42
111
28
81
92
26
88
34
37
75
13
74
84
31
73
18
69
91
112
71
25
29
51
97
5
20
43
105
55
65
49
3
94
4
39
102
7
40
52
103
38
82
78
109
67
46
93
16
70
17
57
99
116
64
54
10
48
76
15
44
45
41
36
11
59
83
101
62
87
63
66
108
61
6
95
86
98
35
85
80
68
106
23
12
47
2
77
100
53
30
22
115
104
27
107
21
56
110
90
19
24
113
14
79
58
32
96
8
72
89
50
33
9
114

> <PUBCHEM_MMFF94_PARTIAL_CHARGES>
41
1 -0.34
10 -0.41
11 -0.62
12 0.45
15 0.27
16 0.41
17 0.3
18 -0.14
19 0.37
2 -0.34
20 0.37
21 0.3
22 0.3
23 0.46
24 0.41
25 -0.15
26 -0.15
27 0.05
28 -0.15
29 0.57
3 -0.34
30 -0.15
31 -0.15
32 -0.14
33 -0.15
34 0.16
35 0.06
36 1.16
4 -0.02
5 -0.57
54 0.15
55 0.15
56 0.15
57 0.15
58 0.15
59 0.15
6 -0.81
60 0.15
7 -0.84
8 -0.66
9 -0.57

> <PUBCHEM_EFFECTIVE_ROTOR_COUNT>
9.2

> <PUBCHEM_PHARMACOPHORE_FEATURES>
9
1 5 acceptor
1 6 cation
3 7 11 24 cation
3 9 10 23 cation
5 4 9 10 17 23 rings
5 6 12 13 14 15 rings
6 11 24 27 28 33 34 rings
6 18 25 26 30 31 32 rings
6 7 8 19 20 21 22 rings

> <PUBCHEM_HEAVY_ATOM_COUNT>
36

> <PUBCHEM_ATOM_DEF_STEREO_COUNT>
1

> <PUBCHEM_ATOM_UDEF_STEREO_COUNT>
0

> <PUBCHEM_BOND_DEF_STEREO_COUNT>
0

> <PUBCHEM_BOND_UDEF_STEREO_COUNT>
0

> <PUBCHEM_ISOTOPIC_ATOM_COUNT>
0

> <PUBCHEM_COMPONENT_COUNT>
1

> <PUBCHEM_CACTVS_TAUTO_COUNT>
1

> <PUBCHEM_CONFORMER_ID>
030C493D00000001

> <PUBCHEM_MMFF94_ENERGY>
83.6357

> <PUBCHEM_FEATURE_SELFOVERLAP>
45.674

> <PUBCHEM_SHAPE_FINGERPRINT>
11387372 6 16771010717720298438
11477941 20 18187661180392071220
11607047 141 17976276935032892531
11607047 403 17334233230041274409
12633046 712 17775002405475804800
12633257 1 12319734795457641306
12655387 17 16844468166797959627
12788726 201 17678714783892991709
13383661 66 16243244478820218371
15160629 124 15247384203232255695
15219462 58 17413030151492939891
16991981 162 18117275848433855892
22440779 20 18202287974258803976
3610482 184 17533231777750755390
484985 159 16486119583645199516
6700243 42 18338222868838554107
70251023 43 18044653333537405119

> <PUBCHEM_SHAPE_MULTIPOLES>
677.42
12.48
4.49
3.67
19.2
1.69
2.38
-14.18
-8.02
-3.21
-3.14
0.54
1.62
2.19

> <PUBCHEM_SHAPE_SELFOVERLAP>
1467.627

> <PUBCHEM_SHAPE_VOLUME>
373.2

> <PUBCHEM_COORDINATE_TYPE>
2
5
10

$$$$
