11880087
  -OEChem-12032416123D

 68 71  0     1  0  0  0  0  0999 V2000
    2.0500   -0.2558    1.7950 O   0  0  0  0  0  0  0  0  0  0  0  0
    4.1277   -3.8509    0.5669 O   0  0  0  0  0  0  0  0  0  0  0  0
    5.6618   -2.8503   -1.1704 O   0  0  0  0  0  0  0  0  0  0  0  0
   -3.1155   -1.0458    2.8617 O   0  0  0  0  0  0  0  0  0  0  0  0
    4.8020    2.0652    0.0911 O   0  0  0  0  0  0  0  0  0  0  0  0
   -5.9420   -0.9763    0.8460 O   0  0  0  0  0  0  0  0  0  0  0  0
    2.3302   -2.4134    0.2139 N   0  0  0  0  0  0  0  0  0  0  0  0
   -1.9591   -2.1113   -0.0230 N   0  0  0  0  0  0  0  0  0  0  0  0
    2.2167    1.1436   -0.0578 N   0  0  0  0  0  0  0  0  0  0  0  0
   -2.2950   -2.8940   -1.0611 N   0  0  0  0  0  0  0  0  0  0  0  0
   -3.6175   -2.8468   -1.1790 N   0  0  0  0  0  0  0  0  0  0  0  0
   -1.5054    4.5002    0.7114 N   0  0  0  0  0  0  0  0  0  0  0  0
   -2.9483    0.7150    1.4238 N   0  0  0  0  0  0  0  0  0  0  0  0
    4.2745    3.1208    2.0619 N   0  0  0  0  0  0  0  0  0  0  0  0
   -6.3869   -2.3483   -0.9191 N   0  0  0  0  0  0  0  0  0  0  0  0
   -0.5500   -1.9587    0.3619 C   0  0  2  0  0  0  0  0  0  0  0  0
    0.2927   -1.3095   -0.7490 C   0  0  0  0  0  0  0  0  0  0  0  0
    1.7760   -1.1888   -0.3870 C   0  0  1  0  0  0  0  0  0  0  0  0
    0.0840   -3.2804    0.8144 C   0  0  0  0  0  0  0  0  0  0  0  0
    1.5247   -3.0577    1.2586 C   0  0  0  0  0  0  0  0  0  0  0  0
    2.0333   -0.0708    0.5809 C   0  0  0  0  0  0  0  0  0  0  0  0
    3.6175   -2.9033   -0.0370 C   0  0  0  0  0  0  0  0  0  0  0  0
   -3.0538   -1.5416    0.5507 C   0  0  0  0  0  0  0  0  0  0  0  0
    2.4580    2.3804    0.6495 C   0  0  2  0  0  0  0  0  0  0  0  0
    4.4060   -2.2183   -1.1258 C   0  0  0  0  0  0  0  0  0  0  0  0
    1.9584    3.6028   -0.1307 C   0  0  0  0  0  0  0  0  0  0  0  0
   -4.0975   -2.0228   -0.1992 C   0  0  0  0  0  0  0  0  0  0  0  0
   -3.0514   -0.6587    1.6716 C   0  0  0  0  0  0  0  0  0  0  0  0
    0.4752    3.8098   -0.0150 C   0  0  0  0  0  0  0  0  0  0  0  0
    3.9585    2.4760    0.8846 C   0  0  0  0  0  0  0  0  0  0  0  0
   -0.5253    3.2709   -0.8715 C   0  0  0  0  0  0  0  0  0  0  0  0
   -5.4903   -1.7439   -0.0328 C   0  0  0  0  0  0  0  0  0  0  0  0
   -0.1583    4.5608    0.9481 C   0  0  0  0  0  0  0  0  0  0  0  0
   -1.7586    3.7193   -0.3937 C   0  0  0  0  0  0  0  0  0  0  0  0
   -0.4999    2.4422   -2.0108 C   0  0  0  0  0  0  0  0  0  0  0  0
    6.5100   -2.2882   -2.1702 C   0  0  0  0  0  0  0  0  0  0  0  0
   -2.9727    3.3790   -1.0008 C   0  0  0  0  0  0  0  0  0  0  0  0
   -1.7066    2.0936   -2.6284 C   0  0  0  0  0  0  0  0  0  0  0  0
   -2.9228    2.5559   -2.1296 C   0  0  0  0  0  0  0  0  0  0  0  0
   -0.5492   -1.2784    1.2228 H   0  0  0  0  0  0  0  0  0  0  0  0
    0.2141   -1.9210   -1.6581 H   0  0  0  0  0  0  0  0  0  0  0  0
   -0.1249   -0.3284   -1.0009 H   0  0  0  0  0  0  0  0  0  0  0  0
    2.3129   -0.9676   -1.3138 H   0  0  0  0  0  0  0  0  0  0  0  0
    0.0649   -4.0073   -0.0079 H   0  0  0  0  0  0  0  0  0  0  0  0
   -0.4939   -3.7175    1.6374 H   0  0  0  0  0  0  0  0  0  0  0  0
    1.9603   -4.0296    1.5159 H   0  0  0  0  0  0  0  0  0  0  0  0
    1.5621   -2.4631    2.1748 H   0  0  0  0  0  0  0  0  0  0  0  0
    2.2445    1.1678   -1.0730 H   0  0  0  0  0  0  0  0  0  0  0  0
    1.9564    2.3164    1.6239 H   0  0  0  0  0  0  0  0  0  0  0  0
    4.5327   -1.1591   -0.8801 H   0  0  0  0  0  0  0  0  0  0  0  0
    3.8892   -2.3428   -2.0828 H   0  0  0  0  0  0  0  0  0  0  0  0
    2.4556    4.5085    0.2428 H   0  0  0  0  0  0  0  0  0  0  0  0
    2.2411    3.5272   -1.1889 H   0  0  0  0  0  0  0  0  0  0  0  0
    0.2270    5.1322    1.7811 H   0  0  0  0  0  0  0  0  0  0  0  0
   -2.2123    4.9611    1.2674 H   0  0  0  0  0  0  0  0  0  0  0  0
   -2.8789    1.0809    0.4808 H   0  0  0  0  0  0  0  0  0  0  0  0
   -2.9332    1.3858    2.1846 H   0  0  0  0  0  0  0  0  0  0  0  0
    0.4380    2.0745   -2.4164 H   0  0  0  0  0  0  0  0  0  0  0  0
    5.2415    3.2642    2.3333 H   0  0  0  0  0  0  0  0  0  0  0  0
    3.5666    3.4759    2.6966 H   0  0  0  0  0  0  0  0  0  0  0  0
   -3.9201    3.7371   -0.6122 H   0  0  0  0  0  0  0  0  0  0  0  0
    6.0602   -2.4055   -3.1607 H   0  0  0  0  0  0  0  0  0  0  0  0
    6.6950   -1.2302   -1.9614 H   0  0  0  0  0  0  0  0  0  0  0  0
    7.4634   -2.8225   -2.1512 H   0  0  0  0  0  0  0  0  0  0  0  0
   -7.3846   -2.1772   -0.8489 H   0  0  0  0  0  0  0  0  0  0  0  0
   -6.0767   -2.9724   -1.6572 H   0  0  0  0  0  0  0  0  0  0  0  0
   -1.6931    1.4537   -3.5068 H   0  0  0  0  0  0  0  0  0  0  0  0
   -3.8481    2.2712   -2.6239 H   0  0  0  0  0  0  0  0  0  0  0  0
  1 21  2  0  0  0  0
  2 22  2  0  0  0  0
  3 25  1  0  0  0  0
  3 36  1  0  0  0  0
  4 28  2  0  0  0  0
  5 30  2  0  0  0  0
  6 32  2  0  0  0  0
  7 18  1  0  0  0  0
  7 20  1  0  0  0  0
  7 22  1  0  0  0  0
  8 10  1  0  0  0  0
  8 16  1  0  0  0  0
  8 23  1  0  0  0  0
  9 21  1  0  0  0  0
  9 24  1  0  0  0  0
  9 48  1  0  0  0  0
 10 11  2  0  0  0  0
 11 27  1  0  0  0  0
 12 33  1  0  0  0  0
 12 34  1  0  0  0  0
 12 55  1  0  0  0  0
 13 28  1  0  0  0  0
 13 56  1  0  0  0  0
 13 57  1  0  0  0  0
 14 30  1  0  0  0  0
 14 59  1  0  0  0  0
 14 60  1  0  0  0  0
 15 32  1  0  0  0  0
 15 65  1  0  0  0  0
 15 66  1  0  0  0  0
 16 17  1  0  0  0  0
 16 19  1  0  0  0  0
 16 40  1  0  0  0  0
 17 18  1  0  0  0  0
 17 41  1  0  0  0  0
 17 42  1  0  0  0  0
 18 21  1  0  0  0  0
 18 43  1  0  0  0  0
 19 20  1  0  0  0  0
 19 44  1  0  0  0  0
 19 45  1  0  0  0  0
 20 46  1  0  0  0  0
 20 47  1  0  0  0  0
 22 25  1  0  0  0  0
 23 27  2  0  0  0  0
 23 28  1  0  0  0  0
 24 26  1  0  0  0  0
 24 30  1  0  0  0  0
 24 49  1  0  0  0  0
 25 50  1  0  0  0  0
 25 51  1  0  0  0  0
 26 29  1  0  0  0  0
 26 52  1  0  0  0  0
 26 53  1  0  0  0  0
 27 32  1  0  0  0  0
 29 31  1  0  0  0  0
 29 33  2  0  0  0  0
 31 34  1  0  0  0  0
 31 35  2  0  0  0  0
 33 54  1  0  0  0  0
 34 37  2  0  0  0  0
 35 38  1  0  0  0  0
 35 58  1  0  0  0  0
 36 62  1  0  0  0  0
 36 63  1  0  0  0  0
 36 64  1  0  0  0  0
 37 39  1  0  0  0  0
 37 61  1  0  0  0  0
 38 39  2  0  0  0  0
 38 67  1  0  0  0  0
 39 68  1  0  0  0  0
M  END
> <PUBCHEM_COMPOUND_CID>
11880087

> <PUBCHEM_CONFORMER_RMSD>
1.2

> <PUBCHEM_CONFORMER_DIVERSEORDER>
1
54
81
32
99
69
88
114
31
73
110
122
82
67
22
51
89
29
37
61
106
64
123
87
94
8
100
53
59
74
86
97
98
91
112
62
7
125
46
85
66
117
105
78
93
68
58
30
36
49
103
79
35
115
25
48
42
28
44
76
12
109
107
83
119
21
56
120
11
124
10
2
15
95
92
41
26
14
63
80
111
101
19
43
108
121
27
52
38
40
60
23
70
5
72
39
71
24
3
96
84
47
113
13
104
34
17
57
55
33
118
116
75
16
20
4
65
50
77
6
90
45
18
102
9

> <PUBCHEM_MMFF94_PARTIAL_CHARGES>
49
1 -0.57
10 -0.42
11 -0.23
12 0.03
13 -0.8
14 -0.8
15 -0.8
16 0.26
18 0.36
2 -0.57
20 0.3
21 0.57
22 0.57
23 -0.24
24 0.36
25 0.34
26 0.18
27 0.14
28 0.71
29 -0.18
3 -0.56
30 0.57
32 0.72
33 -0.3
34 -0.15
35 -0.15
36 0.28
37 -0.15
38 -0.15
39 -0.15
4 -0.57
48 0.37
5 -0.57
54 0.15
55 0.27
56 0.37
57 0.37
58 0.15
59 0.37
6 -0.57
60 0.37
61 0.15
65 0.37
66 0.37
67 0.15
68 0.15
7 -0.66
8 0.31
9 -0.73

> <PUBCHEM_EFFECTIVE_ROTOR_COUNT>
13.2

> <PUBCHEM_PHARMACOPHORE_FEATURES>
16
1 1 acceptor
1 12 cation
1 12 donor
1 13 donor
1 14 donor
1 15 donor
1 2 acceptor
1 3 acceptor
1 4 acceptor
1 5 acceptor
1 6 acceptor
1 9 donor
5 12 29 31 33 34 rings
5 8 10 11 23 27 rings
6 31 34 35 37 38 39 rings
6 7 16 17 18 19 20 rings

> <PUBCHEM_HEAVY_ATOM_COUNT>
39

> <PUBCHEM_ATOM_DEF_STEREO_COUNT>
3

> <PUBCHEM_ATOM_UDEF_STEREO_COUNT>
0

> <PUBCHEM_BOND_DEF_STEREO_COUNT>
0

> <PUBCHEM_BOND_UDEF_STEREO_COUNT>
0

> <PUBCHEM_ISOTOPIC_ATOM_COUNT>
0

> <PUBCHEM_COMPONENT_COUNT>
1

> <PUBCHEM_CACTVS_TAUTO_COUNT>
16

> <PUBCHEM_CONFORMER_ID>
00B5469700000001

> <PUBCHEM_MMFF94_ENERGY>
83.8417

> <PUBCHEM_FEATURE_SELFOVERLAP>
81.311

> <PUBCHEM_SHAPE_FINGERPRINT>
10119406 146 17042604211613184486
12156800 1 17753299034118320521
12788726 201 18115588132629905755
13590594 115 18339375071399378746
14117953 113 18193830664220315413
150020 26 17321277044274256617
15297060 5 17622458554551147904
15968369 153 18129642128941953596
20764821 26 18264481797917789817
21133410 38 18342462573823889753
3493558 16 16538189576903617886
35225 105 17390494208951270049
5171179 24 18412540994780133858
57527358 35 16126157253934558344

> <PUBCHEM_SHAPE_MULTIPOLES>
722.56
10.97
7.35
1.99
2.74
5.18
-0.21
-10.37
-2.49
0.77
0.05
-0.14
0.48
2.83

> <PUBCHEM_SHAPE_SELFOVERLAP>
1549.07

> <PUBCHEM_SHAPE_VOLUME>
396.4

> <PUBCHEM_COORDINATE_TYPE>
2
5
10

$$$$
