26763158
  -OEChem-12032416343D

 54 57  0     1  0  0  0  0  0999 V2000
   -0.4253    0.0358    2.0792 O   0  0  0  0  0  0  0  0  0  0  0  0
    1.7908    3.6311   -1.7849 O   0  0  0  0  0  0  0  0  0  0  0  0
   -1.8983   -1.8079    0.1841 O   0  0  0  0  0  0  0  0  0  0  0  0
    6.0299   -0.3851    0.2735 O   0  0  0  0  0  0  0  0  0  0  0  0
    6.1857   -2.9463   -0.5411 O   0  0  0  0  0  0  0  0  0  0  0  0
    1.1750    1.1590    0.8286 N   0  0  0  0  0  0  0  0  0  0  0  0
   -2.4198    0.4571    0.2165 N   0  0  0  0  0  0  0  0  0  0  0  0
   -0.2638    3.1165   -0.9970 N   0  0  0  0  0  0  0  0  0  0  0  0
    3.7166   -0.4899    0.4893 N   0  0  0  0  0  0  0  0  0  0  0  0
   -4.7458   -2.0115   -0.8301 N   0  0  0  0  0  0  0  0  0  0  0  0
   -1.0705    0.9453   -0.0608 C   0  0  1  0  0  0  0  0  0  0  0  0
   -1.2111    2.4684   -0.1160 C   0  0  2  0  0  0  0  0  0  0  0  0
    1.6859    1.6218   -0.4660 C   0  0  2  0  0  0  0  0  0  0  0  0
    3.1977    1.8016   -0.2219 C   0  0  0  0  0  0  0  0  0  0  0  0
    3.5078    0.8648    0.9419 C   0  0  1  0  0  0  0  0  0  0  0  0
   -2.6634    2.6669   -0.5413 C   0  0  0  0  0  0  0  0  0  0  0  0
    2.2528    0.9818    1.7946 C   0  0  0  0  0  0  0  0  0  0  0  0
   -0.0946    0.6406    1.0606 C   0  0  0  0  0  0  0  0  0  0  0  0
   -3.3796    1.5604    0.2185 C   0  0  0  0  0  0  0  0  0  0  0  0
    1.0931    2.9004   -1.0715 C   0  0  0  0  0  0  0  0  0  0  0  0
   -2.7270   -0.8990    0.1851 C   0  0  0  0  0  0  0  0  0  0  0  0
   -4.1498   -1.2824    0.1656 C   0  0  0  0  0  0  0  0  0  0  0  0
    4.9711   -1.0018    0.1918 C   0  0  0  0  0  0  0  0  0  0  0  0
   -5.1101   -0.9940    1.1100 C   0  0  0  0  0  0  0  0  0  0  0  0
    4.8966   -2.4455   -0.2574 C   0  0  0  0  0  0  0  0  0  0  0  0
   -6.0719   -2.1935   -0.5351 C   0  0  0  0  0  0  0  0  0  0  0  0
   -6.3261   -1.5702    0.6667 C   0  0  0  0  0  0  0  0  0  0  0  0
   -4.0917   -2.5189   -2.0161 C   0  0  0  0  0  0  0  0  0  0  0  0
    6.1458   -4.3054   -0.9668 C   0  0  0  0  0  0  0  0  0  0  0  0
   -0.7370    0.4900   -0.9998 H   0  0  0  0  0  0  0  0  0  0  0  0
   -1.0702    2.9197    0.8762 H   0  0  0  0  0  0  0  0  0  0  0  0
    1.5221    0.8123   -1.1884 H   0  0  0  0  0  0  0  0  0  0  0  0
    3.7834    1.5884   -1.1226 H   0  0  0  0  0  0  0  0  0  0  0  0
    3.4184    2.8331    0.0828 H   0  0  0  0  0  0  0  0  0  0  0  0
    4.3975    1.1884    1.4922 H   0  0  0  0  0  0  0  0  0  0  0  0
   -2.7715    2.5173   -1.6231 H   0  0  0  0  0  0  0  0  0  0  0  0
   -3.0478    3.6618   -0.2979 H   0  0  0  0  0  0  0  0  0  0  0  0
    2.0773    0.1184    2.4438 H   0  0  0  0  0  0  0  0  0  0  0  0
    2.2788    1.8892    2.4085 H   0  0  0  0  0  0  0  0  0  0  0  0
   -3.5592    1.8427    1.2614 H   0  0  0  0  0  0  0  0  0  0  0  0
   -4.3258    1.2980   -0.2596 H   0  0  0  0  0  0  0  0  0  0  0  0
   -0.5965    3.9518   -1.4694 H   0  0  0  0  0  0  0  0  0  0  0  0
    2.8989   -1.0740    0.3362 H   0  0  0  0  0  0  0  0  0  0  0  0
   -4.9569   -0.4350    2.0230 H   0  0  0  0  0  0  0  0  0  0  0  0
    4.4349   -3.0348    0.5435 H   0  0  0  0  0  0  0  0  0  0  0  0
    4.2700   -2.4968   -1.1555 H   0  0  0  0  0  0  0  0  0  0  0  0
   -6.7247   -2.7476   -1.1962 H   0  0  0  0  0  0  0  0  0  0  0  0
   -7.2827   -1.5367    1.1688 H   0  0  0  0  0  0  0  0  0  0  0  0
   -3.5341   -1.7040   -2.4849 H   0  0  0  0  0  0  0  0  0  0  0  0
   -3.4205   -3.3279   -1.7177 H   0  0  0  0  0  0  0  0  0  0  0  0
   -4.8432   -2.8960   -2.7144 H   0  0  0  0  0  0  0  0  0  0  0  0
    7.1693   -4.6318   -1.1697 H   0  0  0  0  0  0  0  0  0  0  0  0
    5.5585   -4.4007   -1.8851 H   0  0  0  0  0  0  0  0  0  0  0  0
    5.7245   -4.9395   -0.1808 H   0  0  0  0  0  0  0  0  0  0  0  0
  1 18  2  0  0  0  0
  2 20  2  0  0  0  0
  3 21  2  0  0  0  0
  4 23  2  0  0  0  0
  5 25  1  0  0  0  0
  5 29  1  0  0  0  0
  6 13  1  0  0  0  0
  6 17  1  0  0  0  0
  6 18  1  0  0  0  0
  7 11  1  0  0  0  0
  7 19  1  0  0  0  0
  7 21  1  0  0  0  0
  8 12  1  0  0  0  0
  8 20  1  0  0  0  0
  8 42  1  0  0  0  0
  9 15  1  0  0  0  0
  9 23  1  0  0  0  0
  9 43  1  0  0  0  0
 10 22  1  0  0  0  0
 10 26  1  0  0  0  0
 10 28  1  0  0  0  0
 11 12  1  0  0  0  0
 11 18  1  0  0  0  0
 11 30  1  0  0  0  0
 12 16  1  0  0  0  0
 12 31  1  0  0  0  0
 13 14  1  0  0  0  0
 13 20  1  0  0  0  0
 13 32  1  0  0  0  0
 14 15  1  0  0  0  0
 14 33  1  0  0  0  0
 14 34  1  0  0  0  0
 15 17  1  0  0  0  0
 15 35  1  0  0  0  0
 16 19  1  0  0  0  0
 16 36  1  0  0  0  0
 16 37  1  0  0  0  0
 17 38  1  0  0  0  0
 17 39  1  0  0  0  0
 19 40  1  0  0  0  0
 19 41  1  0  0  0  0
 21 22  1  0  0  0  0
 22 24  2  0  0  0  0
 23 25  1  0  0  0  0
 24 27  1  0  0  0  0
 24 44  1  0  0  0  0
 25 45  1  0  0  0  0
 25 46  1  0  0  0  0
 26 27  2  0  0  0  0
 26 47  1  0  0  0  0
 27 48  1  0  0  0  0
 28 49  1  0  0  0  0
 28 50  1  0  0  0  0
 28 51  1  0  0  0  0
 29 52  1  0  0  0  0
 29 53  1  0  0  0  0
 29 54  1  0  0  0  0
M  END
> <PUBCHEM_COMPOUND_CID>
26763158

> <PUBCHEM_CONFORMER_RMSD>
1

> <PUBCHEM_CONFORMER_DIVERSEORDER>
1
9
25
17
21
6
16
23
18
5
14
22
4
20
11
10
13
8
27
24
19
15
2
3
7
26
12

> <PUBCHEM_MMFF94_PARTIAL_CHARGES>
32
1 -0.57
10 0.05
11 0.36
12 0.3
13 0.36
15 0.3
17 0.3
18 0.57
19 0.3
2 -0.57
20 0.57
21 0.71
22 -0.24
23 0.57
24 -0.15
25 0.34
26 -0.3
27 -0.15
28 0.26
29 0.28
3 -0.57
4 -0.57
42 0.37
43 0.37
44 0.15
47 0.15
48 0.15
5 -0.56
6 -0.66
7 -0.66
8 -0.73
9 -0.73

> <PUBCHEM_EFFECTIVE_ROTOR_COUNT>
7.4

> <PUBCHEM_PHARMACOPHORE_FEATURES>
12
1 1 acceptor
1 10 cation
1 2 acceptor
1 3 acceptor
1 4 acceptor
1 5 acceptor
1 8 donor
1 9 donor
5 10 22 24 26 27 rings
5 6 13 14 15 17 rings
5 7 11 12 16 19 rings
7 6 8 11 12 13 18 20 rings

> <PUBCHEM_HEAVY_ATOM_COUNT>
29

> <PUBCHEM_ATOM_DEF_STEREO_COUNT>
4

> <PUBCHEM_ATOM_UDEF_STEREO_COUNT>
0

> <PUBCHEM_BOND_DEF_STEREO_COUNT>
0

> <PUBCHEM_BOND_UDEF_STEREO_COUNT>
0

> <PUBCHEM_ISOTOPIC_ATOM_COUNT>
0

> <PUBCHEM_COMPONENT_COUNT>
1

> <PUBCHEM_CACTVS_TAUTO_COUNT>
12

> <PUBCHEM_CONFORMER_ID>
01985F9600000001

> <PUBCHEM_MMFF94_ENERGY>
84.2875

> <PUBCHEM_FEATURE_SELFOVERLAP>
60.987

> <PUBCHEM_SHAPE_FINGERPRINT>
10693767 8 18198328753837720663
11059845 2 17629220220681720385
11069576 57 18119808259877751748
11135926 11 17828765380111109204
117089 54 18120946254819538795
12422481 6 17989207044965499423
12623949 98 18202290182626121446
12633257 1 16128371635692435157
12788726 201 18126304140980200617
13009979 54 18412833468778511913
13533116 47 18341894155279711897
13551218 46 18343301491862435243
13690498 29 18336549300830352790
13757389 114 17974292023310808389
13782708 43 18131063827182619286
14114206 34 16878228545803877956
14251751 18 18343303643461436206
14347332 77 18410009931497079241
15361156 5 18043832909048111988
16120349 21 18200042724523186315
17492 89 18410293622677012108
1813 80 18260822730615813265
20645477 70 17751636783011820377
20775438 99 17902504118890556890
20775530 9 18340478981063077090
21307412 95 18122340177568920420
21682296 61 18411142428975218923
23379529 103 18335707190465756171
23522609 53 18055668158772078536
23536364 44 17895176797778377309
23559900 14 18410566288876486065
23569943 247 18341896260474304451
23576562 1 17676209053034178533
23845131 108 11383834874345201957
24771750 20 16813499506250928797
2838139 119 10953453029431758530
3004659 81 17968368065445317153
4340502 62 10591774202792028513
44062 13 18267300924646805154
46194498 28 17677046970629199516
463206 1 18199464552910742699
513202 73 18411135810340743599
5372103 7 15720537532403303222
70251023 43 18334297603763794257
7164475 11 18334853969864991285
7970288 3 18268143348133253167

> <PUBCHEM_SHAPE_MULTIPOLES>
542.55
14.8
4.58
1.41
4.31
1.12
-0.01
19.89
0.96
4.11
2.72
-0.25
-0.18
0.33

> <PUBCHEM_SHAPE_SELFOVERLAP>
1160.832

> <PUBCHEM_SHAPE_VOLUME>
297.8

> <PUBCHEM_COORDINATE_TYPE>
2
5
10

$$$$
