25338776
  -OEChem-12032416213D

 48 51  0     1  0  0  0  0  0999 V2000
    3.6201   -1.5939    2.0857 F   0  0  0  0  0  0  0  0  0  0  0  0
    7.3711   -2.3984   -0.6829 F   0  0  0  0  0  0  0  0  0  0  0  0
   -4.1929    1.6449   -0.9216 O   0  0  0  0  0  0  0  0  0  0  0  0
    2.7081    2.0651   -1.2997 O   0  0  0  0  0  0  0  0  0  0  0  0
   -1.6599    3.0543    1.0819 N   0  0  1  0  0  0  0  0  0  0  0  0
    1.0822    2.0373    0.3436 N   0  0  0  0  0  0  0  0  0  0  0  0
   -2.6652    0.2733   -0.0262 N   0  0  0  0  0  0  0  0  0  0  0  0
   -4.7750    0.3710   -0.9056 N   0  0  0  0  0  0  0  0  0  0  0  0
    2.7871    0.5048    0.4523 N   0  0  0  0  0  0  0  0  0  0  0  0
    0.3025    3.1367   -0.1737 C   0  0  1  0  0  0  0  0  0  0  0  0
   -2.1072    2.7507   -0.2909 C   0  0  1  0  0  0  0  0  0  0  0  0
   -0.8046    2.6503   -1.1088 C   0  0  0  0  0  0  0  0  0  0  0  0
   -0.4425    3.8589    0.9387 C   0  0  0  0  0  0  0  0  0  0  0  0
   -2.9523    1.4985   -0.3872 C   0  0  0  0  0  0  0  0  0  0  0  0
   -2.6728    3.7370    1.8778 C   0  0  0  0  0  0  0  0  0  0  0  0
    2.2507    1.5740   -0.2704 C   0  0  0  0  0  0  0  0  0  0  0  0
   -3.8134   -0.3823   -0.3636 C   0  0  0  0  0  0  0  0  0  0  0  0
   -3.9673   -1.7919   -0.1473 C   0  0  0  0  0  0  0  0  0  0  0  0
    3.9564   -0.2376    0.1650 C   0  0  0  0  0  0  0  0  0  0  0  0
   -2.9271   -2.5271    0.4214 C   0  0  0  0  0  0  0  0  0  0  0  0
   -5.1559   -2.4276   -0.5055 C   0  0  0  0  0  0  0  0  0  0  0  0
    4.3462   -1.2825    1.0026 C   0  0  0  0  0  0  0  0  0  0  0  0
    4.7201    0.0775   -0.9590 C   0  0  0  0  0  0  0  0  0  0  0  0
   -3.0757   -3.8981    0.6318 C   0  0  0  0  0  0  0  0  0  0  0  0
   -5.3047   -3.7984   -0.2951 C   0  0  0  0  0  0  0  0  0  0  0  0
    5.4997   -2.0126    0.7164 C   0  0  0  0  0  0  0  0  0  0  0  0
    5.8737   -0.6526   -1.2453 C   0  0  0  0  0  0  0  0  0  0  0  0
   -4.2645   -4.5336    0.2735 C   0  0  0  0  0  0  0  0  0  0  0  0
    6.2634   -1.6977   -0.4076 C   0  0  0  0  0  0  0  0  0  0  0  0
    0.9783    3.8206   -0.6991 H   0  0  0  0  0  0  0  0  0  0  0  0
   -2.6850    3.5956   -0.6928 H   0  0  0  0  0  0  0  0  0  0  0  0
   -0.6078    1.6423   -1.4923 H   0  0  0  0  0  0  0  0  0  0  0  0
   -0.8752    3.3230   -1.9729 H   0  0  0  0  0  0  0  0  0  0  0  0
    0.1286    3.9028    1.8722 H   0  0  0  0  0  0  0  0  0  0  0  0
   -0.6814    4.8826    0.6219 H   0  0  0  0  0  0  0  0  0  0  0  0
    0.7281    1.5321    1.1502 H   0  0  0  0  0  0  0  0  0  0  0  0
   -3.5622    3.1086    1.9946 H   0  0  0  0  0  0  0  0  0  0  0  0
   -2.9813    4.6897    1.4326 H   0  0  0  0  0  0  0  0  0  0  0  0
   -2.2928    3.9372    2.8856 H   0  0  0  0  0  0  0  0  0  0  0  0
    2.2840    0.2177    1.2881 H   0  0  0  0  0  0  0  0  0  0  0  0
   -1.9886   -2.0610    0.7111 H   0  0  0  0  0  0  0  0  0  0  0  0
   -5.9879   -1.8878   -0.9507 H   0  0  0  0  0  0  0  0  0  0  0  0
    4.4849    0.8704   -1.6544 H   0  0  0  0  0  0  0  0  0  0  0  0
   -2.2661   -4.4708    1.0745 H   0  0  0  0  0  0  0  0  0  0  0  0
   -6.2301   -4.2939   -0.5740 H   0  0  0  0  0  0  0  0  0  0  0  0
    5.8032   -2.8261    1.3684 H   0  0  0  0  0  0  0  0  0  0  0  0
    6.4696   -0.4088   -2.1201 H   0  0  0  0  0  0  0  0  0  0  0  0
   -4.3803   -5.6011    0.4372 H   0  0  0  0  0  0  0  0  0  0  0  0
  1 22  1  0  0  0  0
  2 29  1  0  0  0  0
  3  8  1  0  0  0  0
  3 14  1  0  0  0  0
  4 16  2  0  0  0  0
  5 11  1  0  0  0  0
  5 13  1  0  0  0  0
  5 15  1  0  0  0  0
  6 10  1  0  0  0  0
  6 16  1  0  0  0  0
  6 36  1  0  0  0  0
  7 14  2  0  0  0  0
  7 17  1  0  0  0  0
  8 17  2  0  0  0  0
  9 16  1  0  0  0  0
  9 19  1  0  0  0  0
  9 40  1  0  0  0  0
 10 12  1  0  0  0  0
 10 13  1  0  0  0  0
 10 30  1  0  0  0  0
 11 12  1  0  0  0  0
 11 14  1  0  0  0  0
 11 31  1  0  0  0  0
 12 32  1  0  0  0  0
 12 33  1  0  0  0  0
 13 34  1  0  0  0  0
 13 35  1  0  0  0  0
 15 37  1  0  0  0  0
 15 38  1  0  0  0  0
 15 39  1  0  0  0  0
 17 18  1  0  0  0  0
 18 20  2  0  0  0  0
 18 21  1  0  0  0  0
 19 22  2  0  0  0  0
 19 23  1  0  0  0  0
 20 24  1  0  0  0  0
 20 41  1  0  0  0  0
 21 25  2  0  0  0  0
 21 42  1  0  0  0  0
 22 26  1  0  0  0  0
 23 27  2  0  0  0  0
 23 43  1  0  0  0  0
 24 28  2  0  0  0  0
 24 44  1  0  0  0  0
 25 28  1  0  0  0  0
 25 45  1  0  0  0  0
 26 29  2  0  0  0  0
 26 46  1  0  0  0  0
 27 29  1  0  0  0  0
 27 47  1  0  0  0  0
 28 48  1  0  0  0  0
M  END
> <PUBCHEM_COMPOUND_CID>
25338776

> <PUBCHEM_CONFORMER_RMSD>
0.8

> <PUBCHEM_CONFORMER_DIVERSEORDER>
1
72
188
159
199
167
169
211
30
238
230
179
138
107
187
92
74
40
110
236
166
78
135
209
201
83
55
214
234
175
39
227
120
194
220
116
31
193
176
45
48
84
42
85
185
77
223
218
232
53
180
217
20
105
198
202
27
67
196
101
206
237
12
93
204
153
52
91
95
123
189
64
108
114
212
207
235
24
178
186
147
205
37
225
106
208
99
118
23
144
172
75
128
210
184
59
54
134
97
103
150
69
215
94
213
50
88
224
89
98
35
226
233
155
56
113
203
47
68
7
11
161
117
183
80
121
216
102
181
190
41
130
76
197
200
126
65
171
133
174
3
222
152
170
18
49
19
5
195
182
109
46
228
192
177
81
231
112
86
82
173
14
34
38
57
142
160
43
66
44
131
119
162
229
148
149
100
165
191
16
154
22
164
136
158
58
139
90
141
28
9
124
132
168
32
156
63
146
111
73
96
21
87
219
61
145
137
60
157
8
4
163
13
26
25
129
29
71
36
151
221
143
17
79
115
127
70
140
33
15
122
51
104
6
10
125
62
2

> <PUBCHEM_MMFF94_PARTIAL_CHARGES>
38
1 -0.19
10 0.3
11 0.45
13 0.27
14 0.3
15 0.27
16 0.69
17 0.46
18 0.05
19 0.12
2 -0.19
20 -0.15
21 -0.15
22 0.19
23 -0.15
24 -0.15
25 -0.15
26 -0.15
27 -0.15
28 -0.15
29 0.19
3 -0.02
36 0.37
4 -0.57
40 0.37
41 0.15
42 0.15
43 0.15
44 0.15
45 0.15
46 0.15
47 0.15
48 0.15
5 -0.81
6 -0.73
7 -0.57
8 -0.41
9 -0.55

> <PUBCHEM_EFFECTIVE_ROTOR_COUNT>
7

> <PUBCHEM_PHARMACOPHORE_FEATURES>
9
1 4 acceptor
1 5 cation
1 6 donor
1 9 donor
3 7 8 17 cation
5 3 7 8 14 17 rings
5 5 10 11 12 13 rings
6 18 20 21 24 25 28 rings
6 19 22 23 26 27 29 rings

> <PUBCHEM_HEAVY_ATOM_COUNT>
29

> <PUBCHEM_ATOM_DEF_STEREO_COUNT>
2

> <PUBCHEM_ATOM_UDEF_STEREO_COUNT>
0

> <PUBCHEM_BOND_DEF_STEREO_COUNT>
0

> <PUBCHEM_BOND_UDEF_STEREO_COUNT>
0

> <PUBCHEM_ISOTOPIC_ATOM_COUNT>
0

> <PUBCHEM_COMPONENT_COUNT>
1

> <PUBCHEM_CACTVS_TAUTO_COUNT>
3

> <PUBCHEM_CONFORMER_ID>
0182A39800000001

> <PUBCHEM_MMFF94_ENERGY>
62.6323

> <PUBCHEM_FEATURE_SELFOVERLAP>
45.724

> <PUBCHEM_SHAPE_FINGERPRINT>
10042902 136 18409449185231256548
10571361 74 18118113668147801242
10622 236 18334288786269476670
11186622 123 18260542346961618730
11285246 1 17750514151527481659
11315621 246 18264215708273225548
11374522 301 17176330620623043562
114674 6 17472978883993130801
117089 54 18338805618559957918
12218070 45 17252269070369827762
13165053 182 16519096360810797982
1361 4 18339365167948690278
13631057 29 18337958995260249660
13690498 29 18040715866212754557
14251757 5 18334856091209109098
14866123 147 18413113845176673633
15001296 14 18334005116859844184
15250474 111 18117272563311265394
15728490 83 18336274482879274051
15803439 3 17246082161241935373
17138139 8 18113333111890812138
17492 89 18266457792338110845
17909252 39 18195249051305018432
19319366 153 17546733015535234068
20775438 99 17402312172038602643
20775530 9 18334853978380221779
21223535 225 14851872634889790734
21307412 95 18410282606750368053
23379529 103 18337955691728252838
23466295 7 18410579496111911513
23559900 14 18192984040730781199
25222932 49 17839181058102951860
2835820 82 17763742496746023223
32027 91 18268422615907606573
325973 47 18263927820109521090
3383291 50 18341051818621564065
395649 100 18336833001354788950
44062 13 18408318900215305399
4435113 14 17557717867437106318
463206 1 18335137587755355153
474144 1 17387668553793013427
484985 159 18339929221297028825
508706 21 18128828442966028934
54324442 115 18189622815973227074
613672 6 18197472195070387649
7970288 3 18410854386523994726
88748 71 18264489675483552415
9980921 52 17341799377594961567

> <PUBCHEM_SHAPE_MULTIPOLES>
545.62
15.73
6.37
1.27
18.6
0.02
0.33
-19.85
-2.82
-7.95
1.7
0.61
0.53
-0.66

> <PUBCHEM_SHAPE_SELFOVERLAP>
1185.209

> <PUBCHEM_SHAPE_VOLUME>
299.7

> <PUBCHEM_COORDINATE_TYPE>
2
5
10

$$$$
