45784222
  -OEChem-12032416343D

 46 49  0     1  0  0  0  0  0999 V2000
   -7.3382   -0.0173    1.6631 F   0  0  0  0  0  0  0  0  0  0  0  0
   -7.6150   -1.3622   -0.0229 F   0  0  0  0  0  0  0  0  0  0  0  0
   -7.9551    0.7722   -0.2605 F   0  0  0  0  0  0  0  0  0  0  0  0
   -0.6768   -0.2006   -0.2798 N   0  0  1  0  0  0  0  0  0  0  0  0
    3.9481   -1.3320    0.2587 N   0  0  0  0  0  0  0  0  0  0  0  0
    3.4103    0.8180    0.0927 N   0  0  0  0  0  0  0  0  0  0  0  0
    1.4953   -0.8089    0.3616 C   0  0  1  0  0  0  0  0  0  0  0  0
    0.7558   -0.1974    1.5643 C   0  0  0  0  0  0  0  0  0  0  0  0
    0.6530   -0.4084   -0.8570 C   0  0  0  0  0  0  0  0  0  0  0  0
   -0.4379    0.5332    0.9630 C   0  0  0  0  0  0  0  0  0  0  0  0
    2.9455   -0.4030    0.2346 C   0  0  0  0  0  0  0  0  0  0  0  0
   -1.5684    0.5129   -1.1820 C   0  0  0  0  0  0  0  0  0  0  0  0
   -3.0129    0.3444   -0.7922 C   0  0  0  0  0  0  0  0  0  0  0  0
    5.1393   -0.6663    0.1228 C   0  0  0  0  0  0  0  0  0  0  0  0
    4.7768    0.6740    0.0212 C   0  0  0  0  0  0  0  0  0  0  0  0
   -3.6760   -0.8501   -1.0732 C   0  0  0  0  0  0  0  0  0  0  0  0
   -3.6879    1.3822   -0.1494 C   0  0  0  0  0  0  0  0  0  0  0  0
    6.4621   -1.1077    0.0815 C   0  0  0  0  0  0  0  0  0  0  0  0
    5.7808    1.6453   -0.1310 C   0  0  0  0  0  0  0  0  0  0  0  0
    7.4484   -0.1276   -0.0705 C   0  0  0  0  0  0  0  0  0  0  0  0
    7.1159    1.2250   -0.1750 C   0  0  0  0  0  0  0  0  0  0  0  0
   -5.0139   -1.0070   -0.7117 C   0  0  0  0  0  0  0  0  0  0  0  0
   -5.0258    1.2255    0.2122 C   0  0  0  0  0  0  0  0  0  0  0  0
   -5.6889    0.0310   -0.0689 C   0  0  0  0  0  0  0  0  0  0  0  0
    8.8839   -0.5373   -0.1220 C   0  0  0  0  0  0  0  0  0  0  0  0
   -7.1185   -0.1380    0.3204 C   0  0  0  0  0  0  0  0  0  0  0  0
    1.4481   -1.9023    0.4698 H   0  0  0  0  0  0  0  0  0  0  0  0
    0.4108   -1.0015    2.2264 H   0  0  0  0  0  0  0  0  0  0  0  0
    1.3782    0.4788    2.1598 H   0  0  0  0  0  0  0  0  0  0  0  0
    0.6479   -1.2004   -1.6139 H   0  0  0  0  0  0  0  0  0  0  0  0
    1.0348    0.5098   -1.3232 H   0  0  0  0  0  0  0  0  0  0  0  0
   -0.1713    1.5815    0.7760 H   0  0  0  0  0  0  0  0  0  0  0  0
   -1.2965    0.5055    1.6410 H   0  0  0  0  0  0  0  0  0  0  0  0
   -1.3060    1.5761   -1.2680 H   0  0  0  0  0  0  0  0  0  0  0  0
   -1.4673    0.1106   -2.2001 H   0  0  0  0  0  0  0  0  0  0  0  0
    3.8357   -2.3323    0.3582 H   0  0  0  0  0  0  0  0  0  0  0  0
   -3.1608   -1.6661   -1.5732 H   0  0  0  0  0  0  0  0  0  0  0  0
   -3.1824    2.3173    0.0770 H   0  0  0  0  0  0  0  0  0  0  0  0
    6.7064   -2.1612    0.1657 H   0  0  0  0  0  0  0  0  0  0  0  0
    5.5325    2.6987   -0.2127 H   0  0  0  0  0  0  0  0  0  0  0  0
    7.8962    1.9740   -0.2909 H   0  0  0  0  0  0  0  0  0  0  0  0
   -5.5119   -1.9454   -0.9391 H   0  0  0  0  0  0  0  0  0  0  0  0
   -5.5431    2.0393    0.7135 H   0  0  0  0  0  0  0  0  0  0  0  0
    9.4514    0.1056   -0.8034 H   0  0  0  0  0  0  0  0  0  0  0  0
    8.9919   -1.5644   -0.4869 H   0  0  0  0  0  0  0  0  0  0  0  0
    9.3283   -0.4731    0.8762 H   0  0  0  0  0  0  0  0  0  0  0  0
  1 26  1  0  0  0  0
  2 26  1  0  0  0  0
  3 26  1  0  0  0  0
  4  9  1  0  0  0  0
  4 10  1  0  0  0  0
  4 12  1  0  0  0  0
  5 11  1  0  0  0  0
  5 14  1  0  0  0  0
  5 36  1  0  0  0  0
  6 11  2  0  0  0  0
  6 15  1  0  0  0  0
  7  8  1  0  0  0  0
  7  9  1  0  0  0  0
  7 11  1  0  0  0  0
  7 27  1  0  0  0  0
  8 10  1  0  0  0  0
  8 28  1  0  0  0  0
  8 29  1  0  0  0  0
  9 30  1  0  0  0  0
  9 31  1  0  0  0  0
 10 32  1  0  0  0  0
 10 33  1  0  0  0  0
 12 13  1  0  0  0  0
 12 34  1  0  0  0  0
 12 35  1  0  0  0  0
 13 16  2  0  0  0  0
 13 17  1  0  0  0  0
 14 15  2  0  0  0  0
 14 18  1  0  0  0  0
 15 19  1  0  0  0  0
 16 22  1  0  0  0  0
 16 37  1  0  0  0  0
 17 23  2  0  0  0  0
 17 38  1  0  0  0  0
 18 20  2  0  0  0  0
 18 39  1  0  0  0  0
 19 21  2  0  0  0  0
 19 40  1  0  0  0  0
 20 21  1  0  0  0  0
 20 25  1  0  0  0  0
 21 41  1  0  0  0  0
 22 24  2  0  0  0  0
 22 42  1  0  0  0  0
 23 24  1  0  0  0  0
 23 43  1  0  0  0  0
 24 26  1  0  0  0  0
 25 44  1  0  0  0  0
 25 45  1  0  0  0  0
 25 46  1  0  0  0  0
M  END
> <PUBCHEM_COMPOUND_CID>
45784222

> <PUBCHEM_CONFORMER_RMSD>
0.8

> <PUBCHEM_CONFORMER_DIVERSEORDER>
1
48
19
45
43
20
14
35
4
41
33
49
27
46
38
44
36
17
50
47
5
51
42
21
32
40
37
10
9
15
39
34
26
2
13
3
11
16
6
25
18
8
12
7
22
30
29
24
31
28
23

> <PUBCHEM_MMFF94_PARTIAL_CHARGES>
33
1 -0.34
10 0.27
11 0.01
12 0.41
13 -0.14
14 -0.15
15 0.23
16 -0.15
17 -0.15
18 -0.15
19 -0.15
2 -0.34
20 -0.14
21 -0.15
22 -0.15
23 -0.15
24 -0.14
25 0.14
26 1.16
3 -0.34
36 0.27
37 0.15
38 0.15
39 0.15
4 -0.81
40 0.15
41 0.15
42 0.15
43 0.15
5 0.03
6 -0.57
7 0.18
9 0.27

> <PUBCHEM_EFFECTIVE_ROTOR_COUNT>
5

> <PUBCHEM_PHARMACOPHORE_FEATURES>
7
1 4 cation
1 5 donor
3 5 6 11 cation
5 4 7 8 9 10 rings
5 5 6 11 14 15 rings
6 13 16 17 22 23 24 rings
6 14 15 18 19 20 21 rings

> <PUBCHEM_HEAVY_ATOM_COUNT>
26

> <PUBCHEM_ATOM_DEF_STEREO_COUNT>
1

> <PUBCHEM_ATOM_UDEF_STEREO_COUNT>
0

> <PUBCHEM_BOND_DEF_STEREO_COUNT>
0

> <PUBCHEM_BOND_UDEF_STEREO_COUNT>
0

> <PUBCHEM_ISOTOPIC_ATOM_COUNT>
0

> <PUBCHEM_COMPONENT_COUNT>
1

> <PUBCHEM_CACTVS_TAUTO_COUNT>
2

> <PUBCHEM_CONFORMER_ID>
02BA9C9E00000001

> <PUBCHEM_MMFF94_ENERGY>
49.8078

> <PUBCHEM_FEATURE_SELFOVERLAP>
35.63

> <PUBCHEM_SHAPE_FINGERPRINT>
10 15 18342177761261795135
10299344 5 18273213105711275375
10595046 47 18410290277071412496
106641 1 18261115193020609363
10670039 82 10519713263666043559
11315181 36 18409449177284893505
11524674 6 15841548604802481903
11638347 137 16008741395542482824
11646440 116 17167865257778726684
12166972 35 18334294275892334828
12236239 1 18202561779177758484
12516196 113 16660361476279433901
12730499 353 18040150700425661802
13533116 47 17096074793979973474
13885169 127 10231763283699545947
14123256 10 17095241414745643147
14251764 18 17918273160416540407
14251764 46 17312822671444557547
14849402 71 18337113487497731972
14856354 85 17775286088730168589
14933364 13 18412825785176353948
15183329 4 17203328909656765472
15419008 47 16081080493841340356
15461852 350 13984668061640159131
15716309 27 18409728456768308023
17093844 174 13542458778842464511
18006028 8 10735878374356040802
18335252 98 18409733953983854315
20157964 124 18408041815180493674
21095086 128 18410009944313630287
21150785 3 13623532354937175462
21267235 1 18411700984675715516
21315763 28 18409729547832490852
21521721 280 18334013916878432466
21792961 116 17489306339365026868
22224240 67 16443065006356784320
23035841 295 18131068238351344047
232437 2 18410011044779988143
23516275 137 18057906683000645859
23536379 177 18342173354440668012
23569943 247 17098607973822764090
249057 3 18343018913147181870
2747138 104 17313390040809082973
28498 318 12103851150837142044
29717793 49 17775569733192942748
335352 9 15482664693291161309
34797466 226 18343869918152009780
3545911 37 18040432192539699022
4073 2 18114465664670685330
4325135 7 18409166610278551509
4339292 15 11815596607717573949
5283156 175 17275107211479162902
5385378 56 15698012803504090639
5758199 1 17676205762349795682
59682541 35 16950567713518160296
59755656 520 18260823821954705630
6009941 240 11815891275519832629
9663363 56 15410890747810281410

> <PUBCHEM_SHAPE_MULTIPOLES>
498.3
26.45
1.29
1.01
0.16
0.17
-0.16
-0.53
-0.83
-0.47
0.07
0.94
-0.03
-0.41

> <PUBCHEM_SHAPE_SELFOVERLAP>
1092.568

> <PUBCHEM_SHAPE_VOLUME>
275

> <PUBCHEM_COORDINATE_TYPE>
2
5
10

$$$$
