75536605
  -OEChem-12032416313D

 42 44  0     1  0  0  0  0  0999 V2000
    6.7145   -0.7152    0.8782 S   0  0  0  0  0  0  0  0  0  0  0  0
    0.6898    0.9985   -0.0327 O   0  0  0  0  0  0  0  0  0  0  0  0
   -0.4829   -2.3915   -0.2283 O   0  0  0  0  0  0  0  0  0  0  0  0
    4.1185   -1.8714    0.0874 O   0  0  0  0  0  0  0  0  0  0  0  0
   -2.7406   -0.2078   -0.1256 N   0  0  0  0  0  0  0  0  0  0  0  0
    3.2157   -0.0118   -0.9661 N   0  0  0  0  0  0  0  0  0  0  0  0
   -7.2495   -0.7029    0.6204 N   0  0  0  0  0  0  0  0  0  0  0  0
   -1.3506   -0.1713    0.2991 C   0  0  1  0  0  0  0  0  0  0  0  0
   -0.4291   -1.0176   -0.5597 C   0  0  1  0  0  0  0  0  0  0  0  0
    0.9252   -0.4061   -0.2272 C   0  0  1  0  0  0  0  0  0  0  0  0
   -0.7221    1.2044    0.1492 C   0  0  0  0  0  0  0  0  0  0  0  0
    1.9593   -0.6066   -1.3206 C   0  0  0  0  0  0  0  0  0  0  0  0
   -3.6191    0.3313    0.9057 C   0  0  0  0  0  0  0  0  0  0  0  0
   -5.0621    0.3167    0.4765 C   0  0  0  0  0  0  0  0  0  0  0  0
    4.2096   -0.7030   -0.2799 C   0  0  0  0  0  0  0  0  0  0  0  0
   -5.5515    1.2568   -0.4237 C   0  0  0  0  0  0  0  0  0  0  0  0
   -5.9441   -0.6337    0.9652 C   0  0  0  0  0  0  0  0  0  0  0  0
    5.4431    0.0628    0.0354 C   0  0  0  0  0  0  0  0  0  0  0  0
   -6.8889    1.2181   -0.8023 C   0  0  0  0  0  0  0  0  0  0  0  0
    5.7445    1.3744   -0.2590 C   0  0  0  0  0  0  0  0  0  0  0  0
   -7.6891    0.2273   -0.2567 C   0  0  0  0  0  0  0  0  0  0  0  0
    7.0364    1.7453    0.2135 C   0  0  0  0  0  0  0  0  0  0  0  0
    7.6731    0.7034    0.8511 C   0  0  0  0  0  0  0  0  0  0  0  0
   -1.2618   -0.5199    1.3378 H   0  0  0  0  0  0  0  0  0  0  0  0
   -0.6648   -0.9013   -1.6249 H   0  0  0  0  0  0  0  0  0  0  0  0
    1.3101   -0.8068    0.7199 H   0  0  0  0  0  0  0  0  0  0  0  0
   -1.0876    1.7353   -0.7374 H   0  0  0  0  0  0  0  0  0  0  0  0
   -0.8853    1.8412    1.0240 H   0  0  0  0  0  0  0  0  0  0  0  0
    1.6391   -0.1180   -2.2474 H   0  0  0  0  0  0  0  0  0  0  0  0
    2.1059   -1.6730   -1.5232 H   0  0  0  0  0  0  0  0  0  0  0  0
   -3.0062   -1.1751   -0.3128 H   0  0  0  0  0  0  0  0  0  0  0  0
   -3.3495    1.3675    1.1461 H   0  0  0  0  0  0  0  0  0  0  0  0
   -3.5136   -0.2410    1.8366 H   0  0  0  0  0  0  0  0  0  0  0  0
   -0.2744   -2.4866    0.7165 H   0  0  0  0  0  0  0  0  0  0  0  0
    3.3551    0.9586   -1.2260 H   0  0  0  0  0  0  0  0  0  0  0  0
   -4.9004    2.0230   -0.8355 H   0  0  0  0  0  0  0  0  0  0  0  0
   -5.6226   -1.3953    1.6689 H   0  0  0  0  0  0  0  0  0  0  0  0
   -7.2921    1.9406   -1.5025 H   0  0  0  0  0  0  0  0  0  0  0  0
    5.0893    2.0556   -0.7856 H   0  0  0  0  0  0  0  0  0  0  0  0
   -8.7391    0.1539   -0.5198 H   0  0  0  0  0  0  0  0  0  0  0  0
    7.4765    2.7266    0.0921 H   0  0  0  0  0  0  0  0  0  0  0  0
    8.6553    0.7074    1.3022 H   0  0  0  0  0  0  0  0  0  0  0  0
  1 18  1  0  0  0  0
  1 23  1  0  0  0  0
  2 10  1  0  0  0  0
  2 11  1  0  0  0  0
  3  9  1  0  0  0  0
  3 34  1  0  0  0  0
  4 15  2  0  0  0  0
  5  8  1  0  0  0  0
  5 13  1  0  0  0  0
  5 31  1  0  0  0  0
  6 12  1  0  0  0  0
  6 15  1  0  0  0  0
  6 35  1  0  0  0  0
  7 17  1  0  0  0  0
  7 21  2  0  0  0  0
  8  9  1  0  0  0  0
  8 11  1  0  0  0  0
  8 24  1  0  0  0  0
  9 10  1  0  0  0  0
  9 25  1  0  0  0  0
 10 12  1  0  0  0  0
 10 26  1  0  0  0  0
 11 27  1  0  0  0  0
 11 28  1  0  0  0  0
 12 29  1  0  0  0  0
 12 30  1  0  0  0  0
 13 14  1  0  0  0  0
 13 32  1  0  0  0  0
 13 33  1  0  0  0  0
 14 16  1  0  0  0  0
 14 17  2  0  0  0  0
 15 18  1  0  0  0  0
 16 19  2  0  0  0  0
 16 36  1  0  0  0  0
 17 37  1  0  0  0  0
 18 20  2  0  0  0  0
 19 21  1  0  0  0  0
 19 38  1  0  0  0  0
 20 22  1  0  0  0  0
 20 39  1  0  0  0  0
 21 40  1  0  0  0  0
 22 23  2  0  0  0  0
 22 41  1  0  0  0  0
 23 42  1  0  0  0  0
M  END
> <PUBCHEM_COMPOUND_CID>
75536605

> <PUBCHEM_CONFORMER_RMSD>
1

> <PUBCHEM_CONFORMER_DIVERSEORDER>
1
123
65
45
52
116
8
183
62
169
39
186
180
60
11
174
7
189
75
33
110
124
56
167
43
30
74
159
175
163
184
96
16
44
28
104
125
137
94
89
134
119
15
57
165
54
135
117
113
178
139
166
121
69
48
179
34
19
53
49
182
71
143
64
162
85
63
170
172
61
188
83
131
142
130
81
126
91
140
192
138
42
105
102
129
50
156
25
133
92
84
14
36
173
147
122
17
97
4
107
150
32
190
154
145
176
66
187
35
31
128
148
80
152
164
82
120
24
37
177
90
171
78
109
55
6
168
67
12
72
70
100
86
114
40
41
111
23
13
18
98
106
38
136
132
151
76
160
101
47
88
141
51
73
79
29
27
87
108
118
95
144
68
191
161
149
112
155
46
115
59
3
58
146
21
10
185
26
2
93
20
77
5
103
153
181
22
127
9
99
158
157

> <PUBCHEM_MMFF94_PARTIAL_CHARGES>
33
1 -0.08
10 0.28
11 0.28
12 0.3
13 0.41
14 -0.14
15 0.71
16 -0.15
17 0.16
18 -0.05
19 -0.15
2 -0.56
20 -0.15
21 0.16
22 -0.15
23 -0.11
3 -0.68
31 0.36
34 0.4
35 0.37
36 0.15
37 0.15
38 0.15
39 0.15
4 -0.57
40 0.15
41 0.15
42 0.15
5 -0.9
6 -0.73
7 -0.62
8 0.27
9 0.28

> <PUBCHEM_EFFECTIVE_ROTOR_COUNT>
8

> <PUBCHEM_PHARMACOPHORE_FEATURES>
11
1 2 acceptor
1 3 acceptor
1 3 donor
1 4 acceptor
1 5 cation
1 5 donor
1 6 donor
1 7 acceptor
5 1 18 20 22 23 rings
5 2 8 9 10 11 rings
6 7 14 16 17 19 21 rings

> <PUBCHEM_HEAVY_ATOM_COUNT>
23

> <PUBCHEM_ATOM_DEF_STEREO_COUNT>
3

> <PUBCHEM_ATOM_UDEF_STEREO_COUNT>
0

> <PUBCHEM_BOND_DEF_STEREO_COUNT>
0

> <PUBCHEM_BOND_UDEF_STEREO_COUNT>
0

> <PUBCHEM_ISOTOPIC_ATOM_COUNT>
0

> <PUBCHEM_COMPONENT_COUNT>
1

> <PUBCHEM_CACTVS_TAUTO_COUNT>
2

> <PUBCHEM_CONFORMER_ID>
048098DD00000001

> <PUBCHEM_MMFF94_ENERGY>
43.4249

> <PUBCHEM_FEATURE_SELFOVERLAP>
55.822

> <PUBCHEM_SHAPE_FINGERPRINT>
10 15 18334858333350491706
10299344 5 8214142962477207789
106641 1 18412828018427427347
11315181 36 18059858360159161961
11524674 6 14706931752421186521
11638347 137 18113900438400187610
11719270 70 18334860502404441442
125118 31 18260832579255839860
12592606 108 11458432349217932921
13533116 47 17059781014295224870
13885169 127 17313099735759056101
13914758 101 16660361454868296845
14123256 10 17060619996873726720
14251764 18 18408602586572711239
14251764 46 18410855460128174808
14429380 56 17988350550966600040
14849402 71 17774724259394687529
14856354 85 13039181520885095025
15131766 46 17244157230309976948
15183329 4 13551191082461856809
15849732 13 18334295374580282892
16090146 7 14189302624482370454
17093844 174 17748545940494806953
20157964 124 18201722830215209382
21150785 3 16487535857890978109
21365058 27 15482672381815430829
21521721 280 18060703892183391555
220451 1 14549019849600749381
221357 26 10807939258903497962
22224240 67 17846495941622370190
23035841 295 11386369248899886913
28498 318 12179837303762348552
300161 21 18342175570433082222
3009799 131 18334296457281605025
34797466 226 14189575247837458328
4325135 7 17060619992557829372
4339292 15 18263644126058856123
4340502 62 17603303748194135554
5207 217 17060338526450400895
5758199 1 16487259863487702959
59682541 35 18412544344548618280
636775 72 18337671902941680149
6394761 36 13190337967996585333

> <PUBCHEM_SHAPE_MULTIPOLES>
444.63
24.98
1.57
0.97
4.49
0.2
-0.02
-6.68
4.33
-1.12
-0.09
0
0.06
0.72

> <PUBCHEM_SHAPE_SELFOVERLAP>
926.364

> <PUBCHEM_SHAPE_VOLUME>
253.7

> <PUBCHEM_COORDINATE_TYPE>
2
5
10

$$$$
