40777878
  -OEChem-12032416193D

 56 58  0     1  0  0  0  0  0999 V2000
    4.4689   -1.6270   -1.6360 F   0  0  0  0  0  0  0  0  0  0  0  0
   -2.7535   -0.2850    0.4669 O   0  0  0  0  0  0  0  0  0  0  0  0
   -6.1293    0.3650   -0.5730 O   0  0  0  0  0  0  0  0  0  0  0  0
   -5.4355   -1.1198    1.6367 O   0  0  0  0  0  0  0  0  0  0  0  0
   -2.8808    3.7647   -0.1161 O   0  0  0  0  0  0  0  0  0  0  0  0
   -0.5396   -0.8824   -1.4113 O   0  0  0  0  0  0  0  0  0  0  0  0
    5.0237    0.7928    0.6296 O   0  0  0  0  0  0  0  0  0  0  0  0
   -1.2217   -2.6571   -0.0860 N   0  0  0  0  0  0  0  0  0  0  0  0
   -1.0639    2.3208   -0.2363 N   0  0  0  0  0  0  0  0  0  0  0  0
   -4.8763   -0.2849   -0.5591 C   0  0  2  0  0  0  0  0  0  0  0  0
   -4.8203   -1.4602    0.3948 C   0  0  1  0  0  0  0  0  0  0  0  0
   -3.7772    0.6073   -0.0077 C   0  0  2  0  0  0  0  0  0  0  0  0
   -3.3213   -1.6045    0.6331 C   0  0  1  0  0  0  0  0  0  0  0  0
   -3.1925    1.5522   -1.0423 C   0  0  0  0  0  0  0  0  0  0  0  0
   -2.6452   -2.5319   -0.3674 C   0  0  0  0  0  0  0  0  0  0  0  0
   -2.3919    2.6790   -0.4162 C   0  0  0  0  0  0  0  0  0  0  0  0
   -0.2882   -1.8072   -0.6432 C   0  0  0  0  0  0  0  0  0  0  0  0
   -0.0785    3.2070    0.3393 C   0  0  0  0  0  0  0  0  0  0  0  0
    1.1250   -2.0835   -0.2777 C   0  0  0  0  0  0  0  0  0  0  0  0
    1.2768    2.5658    0.4170 C   0  0  0  0  0  0  0  0  0  0  0  0
    2.1539   -1.7182   -1.1458 C   0  0  0  0  0  0  0  0  0  0  0  0
    1.4228   -2.7089    0.9330 C   0  0  0  0  0  0  0  0  0  0  0  0
    1.5398    1.6057    1.3942 C   0  0  0  0  0  0  0  0  0  0  0  0
    2.2731    2.9299   -0.4888 C   0  0  0  0  0  0  0  0  0  0  0  0
    3.4808   -1.9783   -0.8029 C   0  0  0  0  0  0  0  0  0  0  0  0
    2.7496   -2.9690    1.2757 C   0  0  0  0  0  0  0  0  0  0  0  0
    2.7990    1.0102    1.4658 C   0  0  0  0  0  0  0  0  0  0  0  0
    3.5324    2.3345   -0.4172 C   0  0  0  0  0  0  0  0  0  0  0  0
    3.7954    1.3746    0.5602 C   0  0  0  0  0  0  0  0  0  0  0  0
    3.7787   -2.6038    0.4077 C   0  0  0  0  0  0  0  0  0  0  0  0
    5.9957    1.2121   -0.3273 C   0  0  0  0  0  0  0  0  0  0  0  0
   -4.6345   -0.6120   -1.5776 H   0  0  0  0  0  0  0  0  0  0  0  0
   -5.3132   -2.3574    0.0099 H   0  0  0  0  0  0  0  0  0  0  0  0
   -4.1413    1.1831    0.8533 H   0  0  0  0  0  0  0  0  0  0  0  0
   -3.0974   -1.9266    1.6567 H   0  0  0  0  0  0  0  0  0  0  0  0
   -3.9955    2.0276   -1.6190 H   0  0  0  0  0  0  0  0  0  0  0  0
   -2.5617    1.0118   -1.7577 H   0  0  0  0  0  0  0  0  0  0  0  0
   -2.7577   -2.1628   -1.3927 H   0  0  0  0  0  0  0  0  0  0  0  0
   -3.0724   -3.5382   -0.3105 H   0  0  0  0  0  0  0  0  0  0  0  0
   -6.7972   -0.2955   -0.8241 H   0  0  0  0  0  0  0  0  0  0  0  0
   -5.3429   -1.8873    2.2268 H   0  0  0  0  0  0  0  0  0  0  0  0
   -0.9416   -3.4406    0.4935 H   0  0  0  0  0  0  0  0  0  0  0  0
   -0.7680    1.3880   -0.5118 H   0  0  0  0  0  0  0  0  0  0  0  0
   -0.4199    3.5000    1.3394 H   0  0  0  0  0  0  0  0  0  0  0  0
   -0.0543    4.1233   -0.2624 H   0  0  0  0  0  0  0  0  0  0  0  0
    1.9427   -1.2322   -2.0945 H   0  0  0  0  0  0  0  0  0  0  0  0
    0.6568   -2.9786    1.6538 H   0  0  0  0  0  0  0  0  0  0  0  0
    0.7708    1.3129    2.1043 H   0  0  0  0  0  0  0  0  0  0  0  0
    2.0801    3.6749   -1.2562 H   0  0  0  0  0  0  0  0  0  0  0  0
    2.9829   -3.4478    2.2223 H   0  0  0  0  0  0  0  0  0  0  0  0
    2.9983    0.2647    2.2306 H   0  0  0  0  0  0  0  0  0  0  0  0
    4.2594    2.6631   -1.1519 H   0  0  0  0  0  0  0  0  0  0  0  0
    4.8120   -2.8028    0.6756 H   0  0  0  0  0  0  0  0  0  0  0  0
    6.9113    0.6462   -0.1267 H   0  0  0  0  0  0  0  0  0  0  0  0
    6.2429    2.2728   -0.2113 H   0  0  0  0  0  0  0  0  0  0  0  0
    5.6863    0.9671   -1.3490 H   0  0  0  0  0  0  0  0  0  0  0  0
  1 25  1  0  0  0  0
  2 12  1  0  0  0  0
  2 13  1  0  0  0  0
  3 10  1  0  0  0  0
  3 40  1  0  0  0  0
  4 11  1  0  0  0  0
  4 41  1  0  0  0  0
  5 16  2  0  0  0  0
  6 17  2  0  0  0  0
  7 29  1  0  0  0  0
  7 31  1  0  0  0  0
  8 15  1  0  0  0  0
  8 17  1  0  0  0  0
  8 42  1  0  0  0  0
  9 16  1  0  0  0  0
  9 18  1  0  0  0  0
  9 43  1  0  0  0  0
 10 11  1  0  0  0  0
 10 12  1  0  0  0  0
 10 32  1  0  0  0  0
 11 13  1  0  0  0  0
 11 33  1  0  0  0  0
 12 14  1  0  0  0  0
 12 34  1  0  0  0  0
 13 15  1  0  0  0  0
 13 35  1  0  0  0  0
 14 16  1  0  0  0  0
 14 36  1  0  0  0  0
 14 37  1  0  0  0  0
 15 38  1  0  0  0  0
 15 39  1  0  0  0  0
 17 19  1  0  0  0  0
 18 20  1  0  0  0  0
 18 44  1  0  0  0  0
 18 45  1  0  0  0  0
 19 21  2  0  0  0  0
 19 22  1  0  0  0  0
 20 23  2  0  0  0  0
 20 24  1  0  0  0  0
 21 25  1  0  0  0  0
 21 46  1  0  0  0  0
 22 26  2  0  0  0  0
 22 47  1  0  0  0  0
 23 27  1  0  0  0  0
 23 48  1  0  0  0  0
 24 28  2  0  0  0  0
 24 49  1  0  0  0  0
 25 30  2  0  0  0  0
 26 30  1  0  0  0  0
 26 50  1  0  0  0  0
 27 29  2  0  0  0  0
 27 51  1  0  0  0  0
 28 29  1  0  0  0  0
 28 52  1  0  0  0  0
 30 53  1  0  0  0  0
 31 54  1  0  0  0  0
 31 55  1  0  0  0  0
 31 56  1  0  0  0  0
M  END
> <PUBCHEM_COMPOUND_CID>
40777878

> <PUBCHEM_CONFORMER_RMSD>
1.4

> <PUBCHEM_CONFORMER_DIVERSEORDER>
1
20
36
39
29
61
43
103
89
86
44
109
8
78
42
35
90
81
2
100
63
94
104
101
19
33
83
10
66
97
51
34
64
46
95
25
112
105
11
40
12
87
93
24
106
65
16
73
108
60
41
79
54
30
84
72
27
31
21
9
57
50
80
85
32
70
53
69
59
88
99
3
92
111
75
107
110
7
91
98
17
58
38
71
113
6
47
14
5
18
45
74
22
67
49
82
28
102
55
96
15
52
68
62
56
77
23
13
76
26
48
37
4

> <PUBCHEM_MMFF94_PARTIAL_CHARGES>
43
1 -0.19
10 0.28
11 0.28
12 0.28
13 0.28
14 0.06
15 0.3
16 0.57
17 0.54
18 0.44
19 0.09
2 -0.56
20 -0.14
21 -0.15
22 -0.15
23 -0.15
24 -0.15
25 0.19
26 -0.15
27 -0.15
28 -0.15
29 0.08
3 -0.68
30 -0.15
31 0.28
4 -0.68
40 0.4
41 0.4
42 0.37
43 0.37
46 0.15
47 0.15
48 0.15
49 0.15
5 -0.57
50 0.15
51 0.15
52 0.15
53 0.15
6 -0.57
7 -0.36
8 -0.73
9 -0.73

> <PUBCHEM_EFFECTIVE_ROTOR_COUNT>
11

> <PUBCHEM_PHARMACOPHORE_FEATURES>
13
1 2 acceptor
1 3 acceptor
1 3 donor
1 4 acceptor
1 4 donor
1 5 acceptor
1 6 acceptor
1 7 acceptor
1 8 donor
1 9 donor
5 2 10 11 12 13 rings
6 19 21 22 25 26 30 rings
6 20 23 24 27 28 29 rings

> <PUBCHEM_HEAVY_ATOM_COUNT>
31

> <PUBCHEM_ATOM_DEF_STEREO_COUNT>
4

> <PUBCHEM_ATOM_UDEF_STEREO_COUNT>
0

> <PUBCHEM_BOND_DEF_STEREO_COUNT>
0

> <PUBCHEM_BOND_UDEF_STEREO_COUNT>
0

> <PUBCHEM_ISOTOPIC_ATOM_COUNT>
0

> <PUBCHEM_COMPONENT_COUNT>
1

> <PUBCHEM_CACTVS_TAUTO_COUNT>
4

> <PUBCHEM_CONFORMER_ID>
026E389600000001

> <PUBCHEM_MMFF94_ENERGY>
80.3881

> <PUBCHEM_FEATURE_SELFOVERLAP>
65.987

> <PUBCHEM_SHAPE_FINGERPRINT>
1100329 8 17906732501503576625
11513181 2 18130782313588367558
12422481 6 18054194745314790530
12645989 146 18128532674265252791
13122387 1 17980196379244492609
13140716 1 17980191203930662009
13402501 40 18411982489627266501
15968369 153 17916002604212174216
16112460 7 18198915717005801337
17093844 170 18340484590585699936
20721686 56 18409446994708368619
20764821 26 18265610992122505841
20905425 154 18342460348038982076
23559900 14 18335416846808405247
3052486 1 18334858308240129572
3298306 158 18339354275141091125
338550 245 18335423495412862188
392239 28 18335708277514377651
4093350 32 17274832328828833063
463206 1 18269552908785193289
5081480 168 17416150311857473374
508706 21 18408881811355999405
5776283 40 18121235426846759228
59755656 215 18411698807280134412
6823239 73 18339073787827303000

> <PUBCHEM_SHAPE_MULTIPOLES>
585.51
11.46
4.8
1.23
5.14
1.19
-0.1
-0.32
-0.02
-1.6
-0.13
-0.39
-0.35
0.85

> <PUBCHEM_SHAPE_SELFOVERLAP>
1242.335

> <PUBCHEM_SHAPE_VOLUME>
328.5

> <PUBCHEM_COORDINATE_TYPE>
2
5
10

$$$$
