7673849
  -OEChem-12032416223D

 55 60  0     1  0  0  0  0  0999 V2000
   -2.3010   -2.1404    1.3482 O   0  0  0  0  0  0  0  0  0  0  0  0
    2.4186    1.0451    0.7236 O   0  0  0  0  0  0  0  0  0  0  0  0
    2.6614   -1.6917    0.7982 N   0  0  2  0  0  0  0  0  0  0  0  0
   -0.3620   -2.4088    0.0788 N   0  0  0  0  0  0  0  0  0  0  0  0
   -4.8509    3.8579    1.6901 N   0  0  0  0  0  0  0  0  0  0  0  0
    1.5606   -3.9444    0.7955 C   0  0  1  0  0  0  0  0  0  0  0  0
    1.7284   -2.6836   -1.2967 C   0  0  2  0  0  0  0  0  0  0  0  0
    1.8089   -4.0860   -0.7002 C   0  0  0  0  0  0  0  0  0  0  0  0
    2.6251   -3.0195    1.4233 C   0  0  0  0  0  0  0  0  0  0  0  0
    2.8167   -1.7887   -0.6609 C   0  0  0  0  0  0  0  0  0  0  0  0
    0.1311   -3.4305    1.0131 C   0  0  0  0  0  0  0  0  0  0  0  0
    0.3524   -2.0826   -1.0770 C   0  0  0  0  0  0  0  0  0  0  0  0
    3.7154   -0.8661    1.3827 C   0  0  0  0  0  0  0  0  0  0  0  0
   -0.1680   -1.2300   -1.9744 C   0  0  0  0  0  0  0  0  0  0  0  0
   -1.6286   -1.8559    0.3555 C   0  0  0  0  0  0  0  0  0  0  0  0
   -2.1668   -0.8793   -0.6535 C   0  0  0  0  0  0  0  0  0  0  0  0
   -1.4476   -0.6170   -1.7547 C   0  0  0  0  0  0  0  0  0  0  0  0
    3.6528    0.5133    0.8010 C   0  0  0  0  0  0  0  0  0  0  0  0
   -3.4288   -0.2411   -0.4484 C   0  0  0  0  0  0  0  0  0  0  0  0
    4.6132    1.3460    0.3287 C   0  0  0  0  0  0  0  0  0  0  0  0
    3.9276    2.5172   -0.0888 C   0  0  0  0  0  0  0  0  0  0  0  0
    2.5822    2.2820    0.1752 C   0  0  0  0  0  0  0  0  0  0  0  0
   -3.4949    0.9763    0.2297 C   0  0  0  0  0  0  0  0  0  0  0  0
   -4.5964   -0.8373   -0.9254 C   0  0  0  0  0  0  0  0  0  0  0  0
    4.2948    3.7482   -0.6598 C   0  0  0  0  0  0  0  0  0  0  0  0
    1.5626    3.1940   -0.0909 C   0  0  0  0  0  0  0  0  0  0  0  0
   -4.7278    1.5970    0.4308 C   0  0  0  0  0  0  0  0  0  0  0  0
   -5.8293   -0.2165   -0.7246 C   0  0  0  0  0  0  0  0  0  0  0  0
    3.2911    4.6859   -0.9392 C   0  0  0  0  0  0  0  0  0  0  0  0
    1.9502    4.4115   -0.6586 C   0  0  0  0  0  0  0  0  0  0  0  0
   -5.8949    1.0005   -0.0464 C   0  0  0  0  0  0  0  0  0  0  0  0
   -4.7957    2.8440    1.1253 C   0  0  0  0  0  0  0  0  0  0  0  0
    1.6509   -4.9262    1.2768 H   0  0  0  0  0  0  0  0  0  0  0  0
    1.9303   -2.7605   -2.3733 H   0  0  0  0  0  0  0  0  0  0  0  0
    1.0670   -4.7522   -1.1580 H   0  0  0  0  0  0  0  0  0  0  0  0
    2.7959   -4.5267   -0.8859 H   0  0  0  0  0  0  0  0  0  0  0  0
    2.4109   -2.9142    2.4943 H   0  0  0  0  0  0  0  0  0  0  0  0
    3.6067   -3.5059    1.3401 H   0  0  0  0  0  0  0  0  0  0  0  0
    3.8042   -2.2004   -0.9123 H   0  0  0  0  0  0  0  0  0  0  0  0
    2.7525   -0.8071   -1.1446 H   0  0  0  0  0  0  0  0  0  0  0  0
   -0.5624   -4.2773    0.9168 H   0  0  0  0  0  0  0  0  0  0  0  0
    0.0076   -3.0558    2.0371 H   0  0  0  0  0  0  0  0  0  0  0  0
    4.7087   -1.3008    1.2139 H   0  0  0  0  0  0  0  0  0  0  0  0
    3.5712   -0.7791    2.4666 H   0  0  0  0  0  0  0  0  0  0  0  0
    0.3699   -0.9555   -2.8758 H   0  0  0  0  0  0  0  0  0  0  0  0
   -1.7944    0.0785   -2.5136 H   0  0  0  0  0  0  0  0  0  0  0  0
    5.6758    1.1540    0.2814 H   0  0  0  0  0  0  0  0  0  0  0  0
   -2.5846    1.4427    0.6037 H   0  0  0  0  0  0  0  0  0  0  0  0
   -4.5636   -1.7867   -1.4549 H   0  0  0  0  0  0  0  0  0  0  0  0
    5.3327    3.9756   -0.8833 H   0  0  0  0  0  0  0  0  0  0  0  0
    0.5246    2.9732    0.1286 H   0  0  0  0  0  0  0  0  0  0  0  0
   -6.7381   -0.6812   -1.0959 H   0  0  0  0  0  0  0  0  0  0  0  0
    3.5616    5.6416   -1.3810 H   0  0  0  0  0  0  0  0  0  0  0  0
    1.1933    5.1580   -0.8862 H   0  0  0  0  0  0  0  0  0  0  0  0
   -6.8634    1.4720    0.1024 H   0  0  0  0  0  0  0  0  0  0  0  0
  1 15  2  0  0  0  0
  2 18  1  0  0  0  0
  2 22  1  0  0  0  0
  3  9  1  0  0  0  0
  3 10  1  0  0  0  0
  3 13  1  0  0  0  0
  4 11  1  0  0  0  0
  4 12  1  0  0  0  0
  4 15  1  0  0  0  0
  5 32  3  0  0  0  0
  6  8  1  0  0  0  0
  6  9  1  0  0  0  0
  6 11  1  0  0  0  0
  6 33  1  0  0  0  0
  7  8  1  0  0  0  0
  7 10  1  0  0  0  0
  7 12  1  0  0  0  0
  7 34  1  0  0  0  0
  8 35  1  0  0  0  0
  8 36  1  0  0  0  0
  9 37  1  0  0  0  0
  9 38  1  0  0  0  0
 10 39  1  0  0  0  0
 10 40  1  0  0  0  0
 11 41  1  0  0  0  0
 11 42  1  0  0  0  0
 12 14  2  0  0  0  0
 13 18  1  0  0  0  0
 13 43  1  0  0  0  0
 13 44  1  0  0  0  0
 14 17  1  0  0  0  0
 14 45  1  0  0  0  0
 15 16  1  0  0  0  0
 16 17  2  0  0  0  0
 16 19  1  0  0  0  0
 17 46  1  0  0  0  0
 18 20  2  0  0  0  0
 19 23  1  0  0  0  0
 19 24  2  0  0  0  0
 20 21  1  0  0  0  0
 20 47  1  0  0  0  0
 21 22  1  0  0  0  0
 21 25  2  0  0  0  0
 22 26  2  0  0  0  0
 23 27  2  0  0  0  0
 23 48  1  0  0  0  0
 24 28  1  0  0  0  0
 24 49  1  0  0  0  0
 25 29  1  0  0  0  0
 25 50  1  0  0  0  0
 26 30  1  0  0  0  0
 26 51  1  0  0  0  0
 27 31  1  0  0  0  0
 27 32  1  0  0  0  0
 28 31  2  0  0  0  0
 28 52  1  0  0  0  0
 29 30  2  0  0  0  0
 29 53  1  0  0  0  0
 30 54  1  0  0  0  0
 31 55  1  0  0  0  0
M  END
> <PUBCHEM_COMPOUND_CID>
7673849

> <PUBCHEM_CONFORMER_RMSD>
0.8

> <PUBCHEM_CONFORMER_DIVERSEORDER>
1
29
12
23
19
9
30
22
10
33
11
28
17
27
34
21
18
24
31
16
8
14
32
2
7
15
20
13
26
3
6
25
4
5

> <PUBCHEM_MMFF94_PARTIAL_CHARGES>
40
1 -0.57
10 0.27
11 0.3
12 -0.03
13 0.45
14 -0.15
15 0.62
16 -0.01
17 -0.15
18 -0.04
19 0.03
2 -0.28
20 -0.15
22 0.14
23 -0.15
24 -0.15
25 -0.15
26 -0.15
27 0.07
28 -0.15
29 -0.15
3 -0.81
30 -0.15
31 -0.15
32 0.48
4 -0.47
45 0.15
46 0.15
47 0.15
48 0.15
49 0.15
5 -0.56
50 0.15
51 0.15
52 0.15
53 0.15
54 0.15
55 0.15
7 0.14
9 0.27

> <PUBCHEM_EFFECTIVE_ROTOR_COUNT>
4

> <PUBCHEM_PHARMACOPHORE_FEATURES>
10
1 1 acceptor
1 2 acceptor
1 3 cation
1 5 acceptor
5 2 18 20 21 22 rings
6 19 23 24 27 28 31 rings
6 21 22 25 26 29 30 rings
6 3 6 7 8 9 10 rings
6 4 12 14 15 16 17 rings
6 4 6 7 8 11 12 rings

> <PUBCHEM_HEAVY_ATOM_COUNT>
32

> <PUBCHEM_ATOM_DEF_STEREO_COUNT>
2

> <PUBCHEM_ATOM_UDEF_STEREO_COUNT>
0

> <PUBCHEM_BOND_DEF_STEREO_COUNT>
0

> <PUBCHEM_BOND_UDEF_STEREO_COUNT>
0

> <PUBCHEM_ISOTOPIC_ATOM_COUNT>
0

> <PUBCHEM_COMPONENT_COUNT>
1

> <PUBCHEM_CACTVS_TAUTO_COUNT>
1

> <PUBCHEM_CONFORMER_ID>
007517F900000001

> <PUBCHEM_MMFF94_ENERGY>
78.3481

> <PUBCHEM_FEATURE_SELFOVERLAP>
52.407

> <PUBCHEM_SHAPE_FINGERPRINT>
10439779 11 18340752815466691448
10483366 6 18339940242704921662
10937287 8 18193552509300446256
11059048 146 18120945155006658668
12633257 1 18041541590692048226
12788726 201 17327476726107314406
13590594 115 17834119641066340770
13761468 95 17403776674439999696
13944108 23 18336548213977325996
14114206 34 16986341479600365728
14251764 38 18412267220769637833
14251764 75 18265338493669999137
14790565 3 18266180706860999676
14849402 71 18336265648358165210
151778 21 18263354940402116804
15475509 84 17037819145218326899
16112460 7 18339073904335518200
20567600 9 18412272718021750444
21475661 188 18410294735210821902
21716022 299 15194190139949012502
21860390 5 18342174410623263302
23559900 14 16986312656644735847
245318 6 17970073450676853581
3493558 16 18271810064940314937
4058900 60 18261965136313972556
474 4 18411692201589018415
5081480 168 17844250614434871908
6371009 1 18266999816926321576
6700243 42 15338831002453219717
7288768 16 17535175963221464224
9980921 221 16457721793178846756
9981440 41 18265900348880877137

> <PUBCHEM_SHAPE_MULTIPOLES>
631.86
11.34
6.77
1.48
13.82
3.05
0.1
10.93
-1.57
-6.39
-0.36
0.21
-0.43
-2.67

> <PUBCHEM_SHAPE_SELFOVERLAP>
1419.95

> <PUBCHEM_SHAPE_VOLUME>
326.2

> <PUBCHEM_COORDINATE_TYPE>
2
5
10

$$$$
