51137486
  -OEChem-12032416253D

 51 55  0     1  0  0  0  0  0999 V2000
    2.4672   -0.9853    0.2243 O   0  0  0  0  0  0  0  0  0  0  0  0
    7.3197    3.0039   -0.2568 O   0  0  0  0  0  0  0  0  0  0  0  0
   -1.5524   -1.1786   -0.2878 N   0  0  1  0  0  0  0  0  0  0  0  0
    2.7843   -3.1965    0.3449 N   0  0  0  0  0  0  0  0  0  0  0  0
    4.0237   -2.5918    0.2485 N   0  0  0  0  0  0  0  0  0  0  0  0
   -5.9147   -0.9645   -0.9222 N   0  0  0  0  0  0  0  0  0  0  0  0
    0.3980   -2.2824    0.4029 C   0  0  1  0  0  0  0  0  0  0  0  0
   -0.2202   -1.5343    1.5968 C   0  0  0  0  0  0  0  0  0  0  0  0
   -0.2879   -1.6798   -0.8306 C   0  0  0  0  0  0  0  0  0  0  0  0
   -1.1923   -0.5385    0.9774 C   0  0  0  0  0  0  0  0  0  0  0  0
   -2.2247   -0.2648   -1.1995 C   0  0  0  0  0  0  0  0  0  0  0  0
    1.9061   -2.2211    0.3271 C   0  0  0  0  0  0  0  0  0  0  0  0
   -3.6647   -0.0910   -0.8737 C   0  0  0  0  0  0  0  0  0  0  0  0
   -4.1255    1.0539   -0.2398 C   0  0  0  0  0  0  0  0  0  0  0  0
   -4.5926   -1.0621   -1.1906 C   0  0  0  0  0  0  0  0  0  0  0  0
    3.7902   -1.3020    0.1803 C   0  0  0  0  0  0  0  0  0  0  0  0
   -5.4878    1.1955    0.0570 C   0  0  0  0  0  0  0  0  0  0  0  0
   -6.3591    0.1477   -0.3070 C   0  0  0  0  0  0  0  0  0  0  0  0
    4.6967   -0.1963    0.0693 C   0  0  0  0  0  0  0  0  0  0  0  0
   -5.9860    2.3424    0.6983 C   0  0  0  0  0  0  0  0  0  0  0  0
   -7.7122    0.2891   -0.0122 C   0  0  0  0  0  0  0  0  0  0  0  0
    6.0719   -0.4241    0.0179 C   0  0  0  0  0  0  0  0  0  0  0  0
    4.2031    1.1071    0.0118 C   0  0  0  0  0  0  0  0  0  0  0  0
   -7.3439    2.4572    0.9812 C   0  0  0  0  0  0  0  0  0  0  0  0
   -8.2078    1.4291    0.6251 C   0  0  0  0  0  0  0  0  0  0  0  0
    6.9535    0.6513   -0.0906 C   0  0  0  0  0  0  0  0  0  0  0  0
    5.0847    2.1826   -0.0968 C   0  0  0  0  0  0  0  0  0  0  0  0
    6.4599    1.9546   -0.1479 C   0  0  0  0  0  0  0  0  0  0  0  0
    8.7128    2.6990   -0.3071 C   0  0  0  0  0  0  0  0  0  0  0  0
    0.1159   -3.3412    0.4855 H   0  0  0  0  0  0  0  0  0  0  0  0
    0.5198   -1.0305    2.2275 H   0  0  0  0  0  0  0  0  0  0  0  0
   -0.7649   -2.2472    2.2285 H   0  0  0  0  0  0  0  0  0  0  0  0
    0.3082   -0.8687   -1.2693 H   0  0  0  0  0  0  0  0  0  0  0  0
   -0.4518   -2.4393   -1.6028 H   0  0  0  0  0  0  0  0  0  0  0  0
   -2.0567   -0.3764    1.6289 H   0  0  0  0  0  0  0  0  0  0  0  0
   -0.6846    0.4222    0.8215 H   0  0  0  0  0  0  0  0  0  0  0  0
   -1.7128    0.7057   -1.2564 H   0  0  0  0  0  0  0  0  0  0  0  0
   -2.1770   -0.6663   -2.2220 H   0  0  0  0  0  0  0  0  0  0  0  0
   -3.4252    1.8426    0.0284 H   0  0  0  0  0  0  0  0  0  0  0  0
   -4.3013   -1.9829   -1.6871 H   0  0  0  0  0  0  0  0  0  0  0  0
   -5.3183    3.1531    0.9812 H   0  0  0  0  0  0  0  0  0  0  0  0
   -8.4098   -0.5022   -0.2806 H   0  0  0  0  0  0  0  0  0  0  0  0
    6.4779   -1.4321    0.0609 H   0  0  0  0  0  0  0  0  0  0  0  0
    3.1386    1.3246    0.0486 H   0  0  0  0  0  0  0  0  0  0  0  0
   -7.7253    3.3447    1.4767 H   0  0  0  0  0  0  0  0  0  0  0  0
   -9.2690    1.5103    0.8419 H   0  0  0  0  0  0  0  0  0  0  0  0
    8.0088    0.4031   -0.1257 H   0  0  0  0  0  0  0  0  0  0  0  0
    4.6947    3.1958   -0.1416 H   0  0  0  0  0  0  0  0  0  0  0  0
    9.0543    2.2231    0.6185 H   0  0  0  0  0  0  0  0  0  0  0  0
    8.9637    2.1083   -1.1947 H   0  0  0  0  0  0  0  0  0  0  0  0
    9.2488    3.6498   -0.3941 H   0  0  0  0  0  0  0  0  0  0  0  0
  1 12  1  0  0  0  0
  1 16  1  0  0  0  0
  2 28  1  0  0  0  0
  2 29  1  0  0  0  0
  3  9  1  0  0  0  0
  3 10  1  0  0  0  0
  3 11  1  0  0  0  0
  4  5  1  0  0  0  0
  4 12  2  0  0  0  0
  5 16  2  0  0  0  0
  6 15  2  0  0  0  0
  6 18  1  0  0  0  0
  7  8  1  0  0  0  0
  7  9  1  0  0  0  0
  7 12  1  0  0  0  0
  7 30  1  0  0  0  0
  8 10  1  0  0  0  0
  8 31  1  0  0  0  0
  8 32  1  0  0  0  0
  9 33  1  0  0  0  0
  9 34  1  0  0  0  0
 10 35  1  0  0  0  0
 10 36  1  0  0  0  0
 11 13  1  0  0  0  0
 11 37  1  0  0  0  0
 11 38  1  0  0  0  0
 13 14  2  0  0  0  0
 13 15  1  0  0  0  0
 14 17  1  0  0  0  0
 14 39  1  0  0  0  0
 15 40  1  0  0  0  0
 16 19  1  0  0  0  0
 17 18  1  0  0  0  0
 17 20  2  0  0  0  0
 18 21  2  0  0  0  0
 19 22  2  0  0  0  0
 19 23  1  0  0  0  0
 20 24  1  0  0  0  0
 20 41  1  0  0  0  0
 21 25  1  0  0  0  0
 21 42  1  0  0  0  0
 22 26  1  0  0  0  0
 22 43  1  0  0  0  0
 23 27  2  0  0  0  0
 23 44  1  0  0  0  0
 24 25  2  0  0  0  0
 24 45  1  0  0  0  0
 25 46  1  0  0  0  0
 26 28  2  0  0  0  0
 26 47  1  0  0  0  0
 27 28  1  0  0  0  0
 27 48  1  0  0  0  0
 29 49  1  0  0  0  0
 29 50  1  0  0  0  0
 29 51  1  0  0  0  0
M  END
> <PUBCHEM_COMPOUND_CID>
51137486

> <PUBCHEM_CONFORMER_RMSD>
0.8

> <PUBCHEM_CONFORMER_DIVERSEORDER>
1
127
26
118
14
34
184
4
109
104
61
82
164
57
67
77
174
156
98
35
132
179
91
110
19
105
172
112
6
133
59
117
182
115
44
58
32
12
108
73
143
71
81
114
49
3
97
125
90
102
62
75
167
15
86
142
18
121
135
150
155
163
24
158
48
171
130
159
30
160
134
153
113
74
60
154
56
136
83
55
25
29
33
111
152
137
76
183
128
149
165
188
185
141
148
144
100
168
131
95
51
11
66
69
47
166
85
17
99
116
145
9
38
177
187
169
79
7
190
192
89
5
63
139
42
20
93
78
64
173
122
103
181
16
70
87
107
178
88
92
8
37
84
23
170
22
72
31
151
123
157
40
68
175
94
161
27
65
147
162
28
80
52
41
21
101
45
124
191
140
10
43
53
46
146
186
50
13
129
119
96
126
180
39
36
176
189
138
54
106
120
2

> <PUBCHEM_MMFF94_PARTIAL_CHARGES>
37
1 -0.28
10 0.27
11 0.41
12 0.3
13 -0.14
14 -0.15
15 0.16
16 0.43
18 0.31
19 0.05
2 -0.36
20 -0.15
21 -0.15
22 -0.15
23 -0.15
24 -0.15
25 -0.15
26 -0.15
27 -0.15
28 0.08
29 0.28
3 -0.81
39 0.15
4 -0.34
40 0.15
41 0.15
42 0.15
43 0.15
44 0.15
45 0.15
46 0.15
47 0.15
48 0.15
5 -0.34
6 -0.62
7 0.18
9 0.27

> <PUBCHEM_EFFECTIVE_ROTOR_COUNT>
6

> <PUBCHEM_PHARMACOPHORE_FEATURES>
8
1 2 acceptor
1 3 cation
1 6 acceptor
5 1 4 5 12 16 rings
5 3 7 8 9 10 rings
6 17 18 20 21 24 25 rings
6 19 22 23 26 27 28 rings
6 6 13 14 15 17 18 rings

> <PUBCHEM_HEAVY_ATOM_COUNT>
29

> <PUBCHEM_ATOM_DEF_STEREO_COUNT>
1

> <PUBCHEM_ATOM_UDEF_STEREO_COUNT>
0

> <PUBCHEM_BOND_DEF_STEREO_COUNT>
0

> <PUBCHEM_BOND_UDEF_STEREO_COUNT>
0

> <PUBCHEM_ISOTOPIC_ATOM_COUNT>
0

> <PUBCHEM_COMPONENT_COUNT>
1

> <PUBCHEM_CACTVS_TAUTO_COUNT>
1

> <PUBCHEM_CONFORMER_ID>
030C4BCE00000001

> <PUBCHEM_MMFF94_ENERGY>
79.23

> <PUBCHEM_FEATURE_SELFOVERLAP>
40.63

> <PUBCHEM_SHAPE_FINGERPRINT>
10 15 17603304851536064867
10319688 67 16153430566662294129
10411042 1 17832702375949992226
10595046 47 18413100663426553231
10673678 19 18272373070274812014
10838868 160 18341321280148181488
11273773 42 18341046401966268469
11408170 253 17702107963511512401
11456790 92 18260542286984999488
11646440 116 17095243605205481444
1200032 147 18259703424327425488
12035758 1 16587745343372601607
12522641 24 17460026293104399266
12539765 74 18201444657704755830
12760667 363 10663827389898209126
12821665 9 18411697721196961255
13248334 5 18194402195862253194
13690498 29 17416392380884465343
13782708 43 9943801192832920675
14394314 77 18411986841063276977
14565420 104 18113335284791258338
14617042 71 18410297999766210009
14849402 71 18410576210514963289
14918687 75 11169910607386586424
14931854 50 17917160476609747784
14933364 13 18341332210865745095
15064981 194 18119823644840573382
15183329 4 17275387599169875505
15188451 53 11458424634918462511
15276724 80 18337951169703138613
15685185 35 18337113496382734136
1577012 14 18342452651478654222
15840311 113 18337677404292483509
16126227 98 18409730694187825791
16989713 51 16701443719889109919
16994733 274 18412259528166700073
17899979 129 18341618101359266046
18393751 57 17676205783909502194
19302320 297 18040998484215878788
19438510 23 18186798123756490306
20157964 124 18409449155187831218
2026 5 9439404623295878537
20691028 202 18192712474386846212
21033648 29 18190733332118526536
21298829 104 18410576214778152236
21304303 64 18333448759343872141
21307412 95 13254794672348211901
21521721 280 18334577915268584891
21585482 111 18335700481970056757
21641784 216 16343426103201849819
22224240 67 17603868893023401675
23522609 53 17917438562793490929
23576562 1 16199000960643551433
23729398 52 18190745220620774106
24771293 8 18187082883708183036
25242607 90 8790616871188950300
25269216 80 16987988522928867679
2747138 104 17313397682140932221
2838139 119 18261382339575210958
306946 40 17168130223549803693
34797466 226 18201442428732565471
3711267 37 18129953290870277937
397830 11 18114194033853839419
4073 2 18334297582663731531
4093350 32 17917994958426449462
4107672 100 17417808500110014391
4169191 19 18411978032306197725
4339292 15 12895086098544277524
4366758 26 18411990173478149568
445580 126 18410002235538015042
4516262 110 18336537262063097389
474113 269 8070031043404162665
5080951 261 16515685598389879115
5104073 3 16300065694098020827
5265222 85 18131069368202862175
5385378 56 18259698987563314050
54076057 255 18131345280985083681
543368 44 18409726266793819143
5718773 13 9439406826344270484
57303763 176 18129669591854563056
5758199 1 18334013899645854383
5776283 40 18270680999659172872
58083652 198 18115853132359274295
5911458 16 18272655632057726601
59682541 35 17676212377343223497
6328613 192 18271524209397493097
6691757 9 15430314792903738098
9689198 14 18343026592295544991

> <PUBCHEM_SHAPE_MULTIPOLES>
565.14
26.84
3.3
1.01
0.68
0.32
-0.04
25.75
0.14
-4.44
-0.46
1.05
-0.19
-2.39

> <PUBCHEM_SHAPE_SELFOVERLAP>
1250.897

> <PUBCHEM_SHAPE_VOLUME>
304.9

> <PUBCHEM_COORDINATE_TYPE>
2
5
10

$$$$
