75368556
  -OEChem-12032416393D

 38 40  0     1  0  0  0  0  0999 V2000
   -4.7282    2.6051    0.1638 F   0  0  0  0  0  0  0  0  0  0  0  0
   -3.1561    2.3049   -1.3243 F   0  0  0  0  0  0  0  0  0  0  0  0
   -2.7584    1.9184    0.8151 F   0  0  0  0  0  0  0  0  0  0  0  0
    5.9325    0.6594   -0.0452 O   0  0  0  0  0  0  0  0  0  0  0  0
   -4.1256    0.4869   -0.3308 O   0  0  0  0  0  0  0  0  0  0  0  0
    3.6881   -0.0043    0.1983 N   0  0  0  0  0  0  0  0  0  0  0  0
    1.2632   -1.3244   -0.3345 N   0  0  2  0  0  0  0  0  0  0  0  0
    4.1967    2.1741    0.4021 N   0  0  0  0  0  0  0  0  0  0  0  0
    2.4451    0.6256    0.5912 C   0  0  2  0  0  0  0  0  0  0  0  0
    1.3028    0.1519   -0.3066 C   0  0  0  0  0  0  0  0  0  0  0  0
    3.7247   -1.4376   -0.0030 C   0  0  0  0  0  0  0  0  0  0  0  0
    2.7557    2.1176    0.5034 C   0  0  0  0  0  0  0  0  0  0  0  0
    2.5308   -1.8761   -0.8549 C   0  0  0  0  0  0  0  0  0  0  0  0
    4.7518    0.9030    0.1620 C   0  0  0  0  0  0  0  0  0  0  0  0
    0.1360   -1.7883   -1.1431 C   0  0  0  0  0  0  0  0  0  0  0  0
   -1.1705   -1.6687   -0.4047 C   0  0  0  0  0  0  0  0  0  0  0  0
   -2.0540   -0.6345   -0.7139 C   0  0  0  0  0  0  0  0  0  0  0  0
   -1.4973   -2.5915    0.5891 C   0  0  0  0  0  0  0  0  0  0  0  0
   -3.2644   -0.5231   -0.0294 C   0  0  0  0  0  0  0  0  0  0  0  0
   -2.7075   -2.4799    1.2737 C   0  0  0  0  0  0  0  0  0  0  0  0
   -3.5912   -1.4459    0.9643 C   0  0  0  0  0  0  0  0  0  0  0  0
   -3.6741    1.8274   -0.1727 C   0  0  0  0  0  0  0  0  0  0  0  0
    2.2566    0.3411    1.6348 H   0  0  0  0  0  0  0  0  0  0  0  0
    0.3723    0.5681    0.0943 H   0  0  0  0  0  0  0  0  0  0  0  0
    1.4296    0.5461   -1.3242 H   0  0  0  0  0  0  0  0  0  0  0  0
    3.6844   -1.9063    0.9870 H   0  0  0  0  0  0  0  0  0  0  0  0
    4.6725   -1.7179   -0.4731 H   0  0  0  0  0  0  0  0  0  0  0  0
    2.4301    2.6677    1.3903 H   0  0  0  0  0  0  0  0  0  0  0  0
    2.3388    2.5917   -0.3904 H   0  0  0  0  0  0  0  0  0  0  0  0
    2.6847   -1.5505   -1.8925 H   0  0  0  0  0  0  0  0  0  0  0  0
    2.4960   -2.9721   -0.8553 H   0  0  0  0  0  0  0  0  0  0  0  0
    4.7381    3.0326    0.4163 H   0  0  0  0  0  0  0  0  0  0  0  0
    0.2568   -2.8526   -1.3902 H   0  0  0  0  0  0  0  0  0  0  0  0
    0.0904   -1.2732   -2.1124 H   0  0  0  0  0  0  0  0  0  0  0  0
   -1.8022    0.0806   -1.4930 H   0  0  0  0  0  0  0  0  0  0  0  0
   -0.8173   -3.4015    0.8394 H   0  0  0  0  0  0  0  0  0  0  0  0
   -2.9619   -3.1981    2.0477 H   0  0  0  0  0  0  0  0  0  0  0  0
   -4.5323   -1.3638    1.5012 H   0  0  0  0  0  0  0  0  0  0  0  0
  1 22  1  0  0  0  0
  2 22  1  0  0  0  0
  3 22  1  0  0  0  0
  4 14  2  0  0  0  0
  5 19  1  0  0  0  0
  5 22  1  0  0  0  0
  6  9  1  0  0  0  0
  6 11  1  0  0  0  0
  6 14  1  0  0  0  0
  7 10  1  0  0  0  0
  7 13  1  0  0  0  0
  7 15  1  0  0  0  0
  8 12  1  0  0  0  0
  8 14  1  0  0  0  0
  8 32  1  0  0  0  0
  9 10  1  0  0  0  0
  9 12  1  0  0  0  0
  9 23  1  0  0  0  0
 10 24  1  0  0  0  0
 10 25  1  0  0  0  0
 11 13  1  0  0  0  0
 11 26  1  0  0  0  0
 11 27  1  0  0  0  0
 12 28  1  0  0  0  0
 12 29  1  0  0  0  0
 13 30  1  0  0  0  0
 13 31  1  0  0  0  0
 15 16  1  0  0  0  0
 15 33  1  0  0  0  0
 15 34  1  0  0  0  0
 16 17  2  0  0  0  0
 16 18  1  0  0  0  0
 17 19  1  0  0  0  0
 17 35  1  0  0  0  0
 18 20  2  0  0  0  0
 18 36  1  0  0  0  0
 19 21  2  0  0  0  0
 20 21  1  0  0  0  0
 20 37  1  0  0  0  0
 21 38  1  0  0  0  0
M  END
> <PUBCHEM_COMPOUND_CID>
75368556

> <PUBCHEM_CONFORMER_RMSD>
0.8

> <PUBCHEM_CONFORMER_DIVERSEORDER>
1
59
5
58
74
19
53
41
46
71
26
17
60
36
37
35
13
67
65
56
14
52
11
7
43
24
23
21
47
3
38
61
76
66
32
51
45
70
48
20
49
40
27
50
42
63
31
18
25
69
62
75
2
64
57
73
34
72
39
30
55
28
8
4
29
33
9
22
44
54
15
6
10
16
12
68

> <PUBCHEM_MMFF94_PARTIAL_CHARGES>
27
1 -0.34
10 0.27
11 0.3
12 0.3
13 0.27
14 0.69
15 0.41
16 -0.14
17 -0.15
18 -0.15
19 0.08
2 -0.34
20 -0.15
21 -0.15
22 1.3
3 -0.34
32 0.37
35 0.15
36 0.15
37 0.15
38 0.15
4 -0.57
5 -0.36
6 -0.66
7 -0.81
8 -0.73
9 0.3

> <PUBCHEM_EFFECTIVE_ROTOR_COUNT>
5.2

> <PUBCHEM_PHARMACOPHORE_FEATURES>
7
1 4 acceptor
1 5 acceptor
1 7 cation
1 8 donor
5 6 8 9 12 14 rings
6 16 17 18 19 20 21 rings
6 6 7 9 10 11 13 rings

> <PUBCHEM_HEAVY_ATOM_COUNT>
22

> <PUBCHEM_ATOM_DEF_STEREO_COUNT>
1

> <PUBCHEM_ATOM_UDEF_STEREO_COUNT>
0

> <PUBCHEM_BOND_DEF_STEREO_COUNT>
0

> <PUBCHEM_BOND_UDEF_STEREO_COUNT>
0

> <PUBCHEM_ISOTOPIC_ATOM_COUNT>
0

> <PUBCHEM_COMPONENT_COUNT>
1

> <PUBCHEM_CACTVS_TAUTO_COUNT>
2

> <PUBCHEM_CONFORMER_ID>
047E086C00000001

> <PUBCHEM_MMFF94_ENERGY>
58.2834

> <PUBCHEM_FEATURE_SELFOVERLAP>
35.617

> <PUBCHEM_SHAPE_FINGERPRINT>
10366900 7 18266453394007217826
10608611 8 18411982476774350983
10646746 165 18409731772509356214
10670039 82 18191598655969592444
1100329 8 16392399162429947455
11045515 52 17764568203933606463
11370993 144 18334573516989757038
11552529 35 17534341429612305242
11595378 159 17385433315330736608
12077114 3 18411418440236343275
12107183 9 18117547428080171762
121448 382 12031799083968418070
12507560 40 18410299120261862582
12596602 18 16371292258644466729
12633257 1 18188758436613435714
12892183 10 18187085087142956546
13402501 40 18412543210883441121
13965767 371 17460875082063629309
14178342 30 17894635884796431395
14251764 38 18343021047519483817
14341114 176 18115874164481793770
14466204 15 18122335779623090386
14790565 3 18193560206489106476
15196674 1 18341331110821133543
15295992 7 18192725457682163211
15806764 133 18056508125673466838
1601671 61 18411418419552700340
17834072 32 18341332201964671577
17844677 252 18263370355498437580
21033648 29 18130497621949871744
21065198 57 18408604786029119930
21065199 12 18335706082533148122
21279426 13 18342185423699956710
21421861 104 17750783364937071026
21475661 188 18194960747509511997
21864079 5 18342731962039773902
22182937 141 18411705370253822433
23503958 25 18266475350059162246
23559900 14 18198623238069741510
23845131 108 17972892359042538025
27216 239 18410855499289594451
4214541 1 18409166631980247712
474 4 18198902505422030449
5081480 168 17200271116586177700
5104073 3 18334289864649120810
90127 26 18411990178062253830
9709674 26 18413392037822729287
9981440 41 18411976962337322595

> <PUBCHEM_SHAPE_MULTIPOLES>
404.25
10.69
3.18
1
6.4
0.86
-0.02
5.62
1.18
-2.42
0.17
-0.54
-0.25
1.51

> <PUBCHEM_SHAPE_SELFOVERLAP>
862.175

> <PUBCHEM_SHAPE_VOLUME>
225.8

> <PUBCHEM_COORDINATE_TYPE>
2
5
10

$$$$
