71692999
  -OEChem-12032416343D

 49 51  0     1  0  0  0  0  0999 V2000
   -4.5108   -1.3309   -2.3507 N   0  0  0  0  0  0  0  0  0  0  0  0
    2.1954    0.9519    0.8987 N   0  0  0  0  0  0  0  0  0  0  0  0
    1.9749    0.6490   -1.2921 N   0  0  0  0  0  0  0  0  0  0  0  0
   -2.3624   -1.0460   -0.0910 C   0  0  2  0  0  0  0  0  0  0  0  0
   -1.0728   -0.2556   -0.3537 C   0  0  0  0  0  0  0  0  0  0  0  0
   -3.6033   -0.1715   -0.3855 C   0  0  1  0  0  0  0  0  0  0  0  0
   -0.9822    1.0543    0.4581 C   0  0  2  0  0  0  0  0  0  0  0  0
   -2.3934   -1.5972    1.3410 C   0  0  0  0  0  0  0  0  0  0  0  0
   -2.3117    1.7871    0.5563 C   0  0  0  0  0  0  0  0  0  0  0  0
   -3.4701    1.2263    0.1631 C   0  0  0  0  0  0  0  0  0  0  0  0
    0.1346    1.9219   -0.1357 C   0  0  0  0  0  0  0  0  0  0  0  0
   -3.9001   -0.0973   -1.8868 C   0  0  0  0  0  0  0  0  0  0  0  0
   -1.0055   -2.0729    1.7580 C   0  0  0  0  0  0  0  0  0  0  0  0
   -3.4098   -2.7291    1.4536 C   0  0  0  0  0  0  0  0  0  0  0  0
   -2.3045    3.1599    1.1709 C   0  0  0  0  0  0  0  0  0  0  0  0
    1.4316    1.1687   -0.2142 C   0  0  0  0  0  0  0  0  0  0  0  0
    3.3055    0.2451    0.5135 C   0  0  0  0  0  0  0  0  0  0  0  0
    3.1445    0.0685   -0.8581 C   0  0  0  0  0  0  0  0  0  0  0  0
    4.4031   -0.2400    1.2252 C   0  0  0  0  0  0  0  0  0  0  0  0
    4.1274   -0.6311   -1.5784 C   0  0  0  0  0  0  0  0  0  0  0  0
    5.3715   -0.9341    0.4925 C   0  0  0  0  0  0  0  0  0  0  0  0
    5.2381   -1.1273   -0.8845 C   0  0  0  0  0  0  0  0  0  0  0  0
   -2.3445   -1.9064   -0.7723 H   0  0  0  0  0  0  0  0  0  0  0  0
   -1.0536   -0.0029   -1.4235 H   0  0  0  0  0  0  0  0  0  0  0  0
   -0.1861   -0.8831   -0.2213 H   0  0  0  0  0  0  0  0  0  0  0  0
   -4.4850   -0.6001    0.1060 H   0  0  0  0  0  0  0  0  0  0  0  0
   -0.7006    0.8086    1.4899 H   0  0  0  0  0  0  0  0  0  0  0  0
   -2.6938   -0.8142    2.0484 H   0  0  0  0  0  0  0  0  0  0  0  0
   -4.3950    1.7918    0.2559 H   0  0  0  0  0  0  0  0  0  0  0  0
    0.2974    2.8216    0.4703 H   0  0  0  0  0  0  0  0  0  0  0  0
   -0.1393    2.2660   -1.1414 H   0  0  0  0  0  0  0  0  0  0  0  0
   -3.0027    0.1172   -2.4761 H   0  0  0  0  0  0  0  0  0  0  0  0
   -4.6095    0.7141   -2.0913 H   0  0  0  0  0  0  0  0  0  0  0  0
   -0.5805   -2.7726    1.0296 H   0  0  0  0  0  0  0  0  0  0  0  0
   -1.0688   -2.6125    2.7110 H   0  0  0  0  0  0  0  0  0  0  0  0
   -0.2952   -1.2622    1.9329 H   0  0  0  0  0  0  0  0  0  0  0  0
   -3.1711   -3.5491    0.7672 H   0  0  0  0  0  0  0  0  0  0  0  0
   -4.4295   -2.3973    1.2418 H   0  0  0  0  0  0  0  0  0  0  0  0
   -3.4143   -3.1409    2.4690 H   0  0  0  0  0  0  0  0  0  0  0  0
   -3.3169    3.5297    1.3664 H   0  0  0  0  0  0  0  0  0  0  0  0
   -1.8157    3.8792    0.5068 H   0  0  0  0  0  0  0  0  0  0  0  0
   -1.7735    3.1449    2.1283 H   0  0  0  0  0  0  0  0  0  0  0  0
   -3.8568   -2.1062   -2.2612 H   0  0  0  0  0  0  0  0  0  0  0  0
   -4.7191   -1.2528   -3.3454 H   0  0  0  0  0  0  0  0  0  0  0  0
    1.9812    1.2559    1.8394 H   0  0  0  0  0  0  0  0  0  0  0  0
    4.5044   -0.0888    2.2939 H   0  0  0  0  0  0  0  0  0  0  0  0
    4.0329   -0.7865   -2.6484 H   0  0  0  0  0  0  0  0  0  0  0  0
    6.2445   -1.3304    1.0053 H   0  0  0  0  0  0  0  0  0  0  0  0
    6.0075   -1.6710   -1.4267 H   0  0  0  0  0  0  0  0  0  0  0  0
  1 12  1  0  0  0  0
  1 43  1  0  0  0  0
  1 44  1  0  0  0  0
  2 16  1  0  0  0  0
  2 17  1  0  0  0  0
  2 45  1  0  0  0  0
  3 16  2  0  0  0  0
  3 18  1  0  0  0  0
  4  5  1  0  0  0  0
  4  6  1  0  0  0  0
  4  8  1  0  0  0  0
  4 23  1  0  0  0  0
  5  7  1  0  0  0  0
  5 24  1  0  0  0  0
  5 25  1  0  0  0  0
  6 10  1  0  0  0  0
  6 12  1  0  0  0  0
  6 26  1  0  0  0  0
  7  9  1  0  0  0  0
  7 11  1  0  0  0  0
  7 27  1  0  0  0  0
  8 13  1  0  0  0  0
  8 14  1  0  0  0  0
  8 28  1  0  0  0  0
  9 10  2  0  0  0  0
  9 15  1  0  0  0  0
 10 29  1  0  0  0  0
 11 16  1  0  0  0  0
 11 30  1  0  0  0  0
 11 31  1  0  0  0  0
 12 32  1  0  0  0  0
 12 33  1  0  0  0  0
 13 34  1  0  0  0  0
 13 35  1  0  0  0  0
 13 36  1  0  0  0  0
 14 37  1  0  0  0  0
 14 38  1  0  0  0  0
 14 39  1  0  0  0  0
 15 40  1  0  0  0  0
 15 41  1  0  0  0  0
 15 42  1  0  0  0  0
 17 18  1  0  0  0  0
 17 19  2  0  0  0  0
 18 20  2  0  0  0  0
 19 21  1  0  0  0  0
 19 46  1  0  0  0  0
 20 22  1  0  0  0  0
 20 47  1  0  0  0  0
 21 22  2  0  0  0  0
 21 48  1  0  0  0  0
 22 49  1  0  0  0  0
M  END
> <PUBCHEM_COMPOUND_CID>
71692999

> <PUBCHEM_CONFORMER_RMSD>
0.8

> <PUBCHEM_CONFORMER_DIVERSEORDER>
4
9
5
8
1
7
10
3
11
6
2

> <PUBCHEM_MMFF94_PARTIAL_CHARGES>
25
1 -0.99
10 -0.29
11 0.18
12 0.27
15 0.14
16 0.01
17 -0.15
18 0.23
19 -0.15
2 0.03
20 -0.15
21 -0.15
22 -0.15
29 0.15
3 -0.57
43 0.36
44 0.36
45 0.27
46 0.15
47 0.15
48 0.15
49 0.15
6 0.14
7 0.14
9 -0.28

> <PUBCHEM_EFFECTIVE_ROTOR_COUNT>
4.8

> <PUBCHEM_PHARMACOPHORE_FEATURES>
8
1 1 cation
1 1 donor
1 2 donor
3 2 3 16 cation
3 8 13 14 hydrophobe
5 2 3 16 17 18 rings
6 17 18 19 20 21 22 rings
6 4 5 6 7 9 10 rings

> <PUBCHEM_HEAVY_ATOM_COUNT>
22

> <PUBCHEM_ATOM_DEF_STEREO_COUNT>
3

> <PUBCHEM_ATOM_UDEF_STEREO_COUNT>
0

> <PUBCHEM_BOND_DEF_STEREO_COUNT>
0

> <PUBCHEM_BOND_UDEF_STEREO_COUNT>
0

> <PUBCHEM_ISOTOPIC_ATOM_COUNT>
0

> <PUBCHEM_COMPONENT_COUNT>
1

> <PUBCHEM_CACTVS_TAUTO_COUNT>
2

> <PUBCHEM_CONFORMER_ID>
0445F2C700000004

> <PUBCHEM_MMFF94_ENERGY>
40.8664

> <PUBCHEM_FEATURE_SELFOVERLAP>
40.703

> <PUBCHEM_SHAPE_FINGERPRINT>
10366900 7 18343017800840374762
10803635 8 17313096436928760558
11578080 2 17531792658648646308
12293681 25 17762036041555375323
12346177 29 18342738464235664348
12363563 72 18272374212598683516
12553582 1 18114186298322287648
12555020 224 18041269998260992291
12592029 89 16732973190224074515
13544653 18 18060421339286012016
14251740 79 18040433321947663379
14251764 30 17026022897771571931
14787075 74 14619927461422938077
15880784 105 17203324511995415126
16752209 62 17896021183537189349
17349148 13 18408321077252067014
18927931 339 18202570565894882454
19862831 5 17675923209631705584
200 152 15051724262158997357
21069387 34 18342733065698799541
23227448 37 9150880651162468722
23402539 116 18341605997751009677
23526113 38 18122606517513668929
23559900 14 18334572495072546096
3027735 51 18341898442042643243
339767 52 18113607989861143658
392239 28 13757781693843980407
44062 13 17822008752636291531
484985 159 18187660097738832251
5104073 3 18342461431014546848
559249 180 18265332798753808930
5924683 9 17704065179664270973
59755656 215 18341044113196936637
59755656 520 18114181905092677975
602551 16 18337394834215286472
9709674 26 18343300400755950464

> <PUBCHEM_SHAPE_MULTIPOLES>
437.81
10.69
2.55
1.77
10.8
0.21
-0.61
-4.02
-2.69
-3.12
1.45
-1.12
-0.66
0

> <PUBCHEM_SHAPE_SELFOVERLAP>
927.582

> <PUBCHEM_SHAPE_VOLUME>
241.6

> <PUBCHEM_COORDINATE_TYPE>
2
5
10

$$$$
