38029990
  -OEChem-12032416393D

 51 52  0     1  0  0  0  0  0999 V2000
   -0.9032    2.4646   -1.2301 O   0  0  0  0  0  0  0  0  0  0  0  0
   -1.3997    1.9755    0.9869 N   0  0  0  0  0  0  0  0  0  0  0  0
    2.4537   -1.0667    3.0879 N   0  0  0  0  0  0  0  0  0  0  0  0
   -3.7870   -1.6053    1.0883 N   0  0  0  0  0  0  0  0  0  0  0  0
    1.5380   -0.9887   -0.5157 C   0  0  2  0  0  0  0  0  0  0  0  0
    1.2221    0.2264   -1.4011 C   0  0  0  0  0  0  0  0  0  0  0  0
    3.0689   -1.1440   -0.3369 C   0  0  1  0  0  0  0  0  0  0  0  0
    1.7802    1.5363   -0.8134 C   0  0  2  0  0  0  0  0  0  0  0  0
    0.9050   -2.2474   -1.1173 C   0  0  0  0  0  0  0  0  0  0  0  0
    3.2186    1.3832   -0.3625 C   0  0  0  0  0  0  0  0  0  0  0  0
    3.7814    0.1774   -0.1678 C   0  0  0  0  0  0  0  0  0  0  0  0
    0.8981    2.0483    0.3307 C   0  0  0  0  0  0  0  0  0  0  0  0
    3.3974   -2.0569    0.8500 C   0  0  0  0  0  0  0  0  0  0  0  0
   -0.5711   -2.3320   -0.7423 C   0  0  0  0  0  0  0  0  0  0  0  0
    1.0798   -2.2585   -2.6326 C   0  0  0  0  0  0  0  0  0  0  0  0
    4.0106    2.6487   -0.1843 C   0  0  0  0  0  0  0  0  0  0  0  0
   -0.5482    2.1913   -0.0867 C   0  0  0  0  0  0  0  0  0  0  0  0
    2.8690   -1.4991    2.0945 C   0  0  0  0  0  0  0  0  0  0  0  0
   -2.8387    2.0494    0.8801 C   0  0  0  0  0  0  0  0  0  0  0  0
   -3.4451    0.7216    0.5288 C   0  0  0  0  0  0  0  0  0  0  0  0
   -4.1990    0.5618   -0.6287 C   0  0  0  0  0  0  0  0  0  0  0  0
   -3.2702   -0.3831    1.3466 C   0  0  0  0  0  0  0  0  0  0  0  0
   -4.7470   -0.6804   -0.9287 C   0  0  0  0  0  0  0  0  0  0  0  0
   -4.5139   -1.7224   -0.0457 C   0  0  0  0  0  0  0  0  0  0  0  0
    1.0722   -0.8078    0.4601 H   0  0  0  0  0  0  0  0  0  0  0  0
    0.1519    0.2956   -1.6085 H   0  0  0  0  0  0  0  0  0  0  0  0
    1.7102    0.1187   -2.3792 H   0  0  0  0  0  0  0  0  0  0  0  0
    3.4996   -1.6073   -1.2338 H   0  0  0  0  0  0  0  0  0  0  0  0
    1.7546    2.2769   -1.6252 H   0  0  0  0  0  0  0  0  0  0  0  0
    1.3837   -3.1457   -0.7142 H   0  0  0  0  0  0  0  0  0  0  0  0
    4.8326    0.1273    0.1096 H   0  0  0  0  0  0  0  0  0  0  0  0
    1.2297    3.0416    0.6574 H   0  0  0  0  0  0  0  0  0  0  0  0
    0.9786    1.3856    1.2008 H   0  0  0  0  0  0  0  0  0  0  0  0
    4.4845   -2.1787    0.9396 H   0  0  0  0  0  0  0  0  0  0  0  0
    2.9970   -3.0639    0.6970 H   0  0  0  0  0  0  0  0  0  0  0  0
   -1.1485   -1.4891   -1.1342 H   0  0  0  0  0  0  0  0  0  0  0  0
   -0.6976   -2.3547    0.3453 H   0  0  0  0  0  0  0  0  0  0  0  0
   -1.0162   -3.2492   -1.1433 H   0  0  0  0  0  0  0  0  0  0  0  0
    0.4365   -1.5363   -3.1461 H   0  0  0  0  0  0  0  0  0  0  0  0
    0.7899   -3.2430   -3.0204 H   0  0  0  0  0  0  0  0  0  0  0  0
    2.1178   -2.0999   -2.9395 H   0  0  0  0  0  0  0  0  0  0  0  0
    3.9978    3.2380   -1.1068 H   0  0  0  0  0  0  0  0  0  0  0  0
    5.0585    2.4481    0.0634 H   0  0  0  0  0  0  0  0  0  0  0  0
    3.5923    3.2562    0.6238 H   0  0  0  0  0  0  0  0  0  0  0  0
   -1.0105    1.7509    1.8980 H   0  0  0  0  0  0  0  0  0  0  0  0
   -3.0990    2.8099    0.1351 H   0  0  0  0  0  0  0  0  0  0  0  0
   -3.2285    2.3869    1.8468 H   0  0  0  0  0  0  0  0  0  0  0  0
   -4.3655    1.3954   -1.3052 H   0  0  0  0  0  0  0  0  0  0  0  0
   -2.6945   -0.3220    2.2650 H   0  0  0  0  0  0  0  0  0  0  0  0
   -5.3373   -0.8285   -1.8256 H   0  0  0  0  0  0  0  0  0  0  0  0
   -4.9186   -2.7113   -0.2344 H   0  0  0  0  0  0  0  0  0  0  0  0
  1 17  2  0  0  0  0
  2 17  1  0  0  0  0
  2 19  1  0  0  0  0
  2 45  1  0  0  0  0
  3 18  3  0  0  0  0
  4 22  1  0  0  0  0
  4 24  2  0  0  0  0
  5  6  1  0  0  0  0
  5  7  1  0  0  0  0
  5  9  1  0  0  0  0
  5 25  1  0  0  0  0
  6  8  1  0  0  0  0
  6 26  1  0  0  0  0
  6 27  1  0  0  0  0
  7 11  1  0  0  0  0
  7 13  1  0  0  0  0
  7 28  1  0  0  0  0
  8 10  1  0  0  0  0
  8 12  1  0  0  0  0
  8 29  1  0  0  0  0
  9 14  1  0  0  0  0
  9 15  1  0  0  0  0
  9 30  1  0  0  0  0
 10 11  2  0  0  0  0
 10 16  1  0  0  0  0
 11 31  1  0  0  0  0
 12 17  1  0  0  0  0
 12 32  1  0  0  0  0
 12 33  1  0  0  0  0
 13 18  1  0  0  0  0
 13 34  1  0  0  0  0
 13 35  1  0  0  0  0
 14 36  1  0  0  0  0
 14 37  1  0  0  0  0
 14 38  1  0  0  0  0
 15 39  1  0  0  0  0
 15 40  1  0  0  0  0
 15 41  1  0  0  0  0
 16 42  1  0  0  0  0
 16 43  1  0  0  0  0
 16 44  1  0  0  0  0
 19 20  1  0  0  0  0
 19 46  1  0  0  0  0
 19 47  1  0  0  0  0
 20 21  1  0  0  0  0
 20 22  2  0  0  0  0
 21 23  2  0  0  0  0
 21 48  1  0  0  0  0
 22 49  1  0  0  0  0
 23 24  1  0  0  0  0
 23 50  1  0  0  0  0
 24 51  1  0  0  0  0
M  END
> <PUBCHEM_COMPOUND_CID>
38029990

> <PUBCHEM_CONFORMER_RMSD>
1.2

> <PUBCHEM_CONFORMER_DIVERSEORDER>
1
27
39
32
66
37
61
11
28
18
44
2
40
68
3
50
71
52
54
56
22
59
58
53
63
62
13
16
25
34
77
26
21
43
7
19
51
65
70
4
42
31
55
30
78
72
60
6
20
9
33
57
8
14
24
73
67
64
80
79
12
46
49
75
41
5
29
17
76
23
48
15
38
74
69
36
45
10
35
47

> <PUBCHEM_MMFF94_PARTIAL_CHARGES>
25
1 -0.57
10 -0.28
11 -0.29
12 0.06
13 0.2
16 0.14
17 0.57
18 0.36
19 0.44
2 -0.73
20 -0.14
21 -0.15
22 0.16
23 -0.15
24 0.16
3 -0.56
31 0.15
4 -0.62
45 0.37
48 0.15
49 0.15
50 0.15
51 0.15
7 0.14
8 0.14

> <PUBCHEM_EFFECTIVE_ROTOR_COUNT>
7.8

> <PUBCHEM_PHARMACOPHORE_FEATURES>
7
1 1 acceptor
1 2 donor
1 3 acceptor
1 4 acceptor
3 9 14 15 hydrophobe
6 4 20 21 22 23 24 rings
6 5 6 7 8 10 11 rings

> <PUBCHEM_HEAVY_ATOM_COUNT>
24

> <PUBCHEM_ATOM_DEF_STEREO_COUNT>
3

> <PUBCHEM_ATOM_UDEF_STEREO_COUNT>
0

> <PUBCHEM_BOND_DEF_STEREO_COUNT>
0

> <PUBCHEM_BOND_UDEF_STEREO_COUNT>
0

> <PUBCHEM_ISOTOPIC_ATOM_COUNT>
0

> <PUBCHEM_COMPONENT_COUNT>
1

> <PUBCHEM_CACTVS_TAUTO_COUNT>
2

> <PUBCHEM_CONFORMER_ID>
02444AA600000001

> <PUBCHEM_MMFF94_ENERGY>
48.9718

> <PUBCHEM_FEATURE_SELFOVERLAP>
35.522

> <PUBCHEM_SHAPE_FINGERPRINT>
10366900 7 17272844312515508345
10616163 171 18342468019077646725
10759866 29 18187936139381076156
11578080 2 16951114068050097724
12553582 1 18270138833009641981
12633257 1 18192998119095689273
13083527 12 18261379019285981088
13224815 77 18343591720003113519
13583140 156 17822010964554680019
14081887 123 17702659926620961249
14178342 30 17840588097963302656
14251764 3 17131818850934802578
14787075 74 17823151038539109482
15183329 4 18130780163091548997
17349148 13 18412539890963099863
20626108 58 18336537274927049305
20715895 44 18120646934569399317
21315759 227 17532663536292325443
21315764 371 16558449977321804719
23559900 14 18057329379112261052
25222932 49 17971483037954003691
339767 52 18337096904633386947
3680242 22 18263930938930193035
3797600 57 17846785104770077128
463206 1 17985264329934526919
469060 322 17629162058176126949
484985 159 15873035052783567570
6287921 2 17488200213688433079
7064713 232 17846218800531177979
9709674 26 18126577729916297301

> <PUBCHEM_SHAPE_MULTIPOLES>
473.1
8.82
3.37
1.96
7.38
0.52
-0.81
-0.79
-1.45
-1.08
0.61
-1.17
-1.22
-0.82

> <PUBCHEM_SHAPE_SELFOVERLAP>
972.795

> <PUBCHEM_SHAPE_VOLUME>
267.9

> <PUBCHEM_COORDINATE_TYPE>
2
5
10

$$$$
