11943013
  -OEChem-12032416153D

 61 65  0     1  0  0  0  0  0999 V2000
    8.5154    2.7185   -0.7702 F   0  0  0  0  0  0  0  0  0  0  0  0
    6.5189    3.5390   -0.9817 F   0  0  0  0  0  0  0  0  0  0  0  0
    7.3168    3.1242    0.9982 F   0  0  0  0  0  0  0  0  0  0  0  0
   -0.8402   -4.0681    0.0881 O   0  0  0  0  0  0  0  0  0  0  0  0
   -1.3898   -1.6740    2.0125 O   0  0  0  0  0  0  0  0  0  0  0  0
    3.3011   -2.8432    0.2509 O   0  0  0  0  0  0  0  0  0  0  0  0
   -3.0621    2.0631    0.7082 O   0  0  0  0  0  0  0  0  0  0  0  0
   -2.9806   -2.2565   -1.2216 N   0  0  0  0  0  0  0  0  0  0  0  0
    1.6067   -1.5827    1.1918 N   0  0  0  0  0  0  0  0  0  0  0  0
    3.5644   -0.5368    0.6004 N   0  0  0  0  0  0  0  0  0  0  0  0
   -4.1402   -0.3299   -0.6419 N   0  0  0  0  0  0  0  0  0  0  0  0
   -3.9130   -1.0078   -2.9432 N   0  0  0  0  0  0  0  0  0  0  0  0
   -1.4248   -1.8151    0.5822 C   0  0  1  0  0  0  0  0  0  0  0  0
   -0.2910   -2.7441    0.1940 C   0  0  1  0  0  0  0  0  0  0  0  0
   -2.6711   -2.5563    0.1593 C   0  0  2  0  0  0  0  0  0  0  0  0
    0.6663   -2.6639    1.3611 C   0  0  2  0  0  0  0  0  0  0  0  0
   -2.2583   -4.0098    0.3012 C   0  0  0  0  0  0  0  0  0  0  0  0
   -0.2673   -2.4035    2.5299 C   0  0  0  0  0  0  0  0  0  0  0  0
   -3.7095   -1.1498   -1.6195 C   0  0  0  0  0  0  0  0  0  0  0  0
    2.8808   -1.7553    0.6377 C   0  0  0  0  0  0  0  0  0  0  0  0
   -4.8473    0.7383   -1.0652 C   0  0  0  0  0  0  0  0  0  0  0  0
    4.8702   -0.2885    0.1169 C   0  0  0  0  0  0  0  0  0  0  0  0
   -4.6271    0.0812   -3.2959 C   0  0  0  0  0  0  0  0  0  0  0  0
   -5.1243    0.9975   -2.3920 C   0  0  0  0  0  0  0  0  0  0  0  0
   -5.3098    1.6200   -0.0205 C   0  0  0  0  0  0  0  0  0  0  0  0
    5.3961    1.0028    0.1595 C   0  0  0  0  0  0  0  0  0  0  0  0
    5.6321   -1.3350   -0.4025 C   0  0  0  0  0  0  0  0  0  0  0  0
    6.6842    1.2473   -0.3171 C   0  0  0  0  0  0  0  0  0  0  0  0
   -4.4067    2.2546    0.8326 C   0  0  0  0  0  0  0  0  0  0  0  0
   -6.6798    1.8347    0.1301 C   0  0  0  0  0  0  0  0  0  0  0  0
    6.9200   -1.0903   -0.8793 C   0  0  0  0  0  0  0  0  0  0  0  0
    7.4459    0.2007   -0.8366 C   0  0  0  0  0  0  0  0  0  0  0  0
    7.2470    2.6274   -0.2712 C   0  0  0  0  0  0  0  0  0  0  0  0
   -4.8737    3.1037    1.8359 C   0  0  0  0  0  0  0  0  0  0  0  0
   -7.1467    2.6838    1.1336 C   0  0  0  0  0  0  0  0  0  0  0  0
   -6.2438    3.3182    1.9864 C   0  0  0  0  0  0  0  0  0  0  0  0
   -2.3587    2.9560   -0.1522 C   0  0  0  0  0  0  0  0  0  0  0  0
   -1.3166   -0.8129    0.1554 H   0  0  0  0  0  0  0  0  0  0  0  0
    0.1543   -2.4950   -0.7746 H   0  0  0  0  0  0  0  0  0  0  0  0
   -3.5379   -2.3664    0.8027 H   0  0  0  0  0  0  0  0  0  0  0  0
    1.2243   -3.5936    1.5158 H   0  0  0  0  0  0  0  0  0  0  0  0
   -2.7578   -4.6850   -0.4006 H   0  0  0  0  0  0  0  0  0  0  0  0
   -2.4472   -4.3720    1.3178 H   0  0  0  0  0  0  0  0  0  0  0  0
    0.1914   -1.8343    3.3442 H   0  0  0  0  0  0  0  0  0  0  0  0
   -0.6524   -3.3435    2.9403 H   0  0  0  0  0  0  0  0  0  0  0  0
   -2.6090   -2.8491   -1.9554 H   0  0  0  0  0  0  0  0  0  0  0  0
    1.3070   -0.6407    1.4251 H   0  0  0  0  0  0  0  0  0  0  0  0
    3.0710    0.2745    0.9641 H   0  0  0  0  0  0  0  0  0  0  0  0
   -4.7928    0.2017   -4.3611 H   0  0  0  0  0  0  0  0  0  0  0  0
   -5.6881    1.8609   -2.7231 H   0  0  0  0  0  0  0  0  0  0  0  0
    4.8050    1.8214    0.5639 H   0  0  0  0  0  0  0  0  0  0  0  0
    5.2952   -2.3598   -0.4695 H   0  0  0  0  0  0  0  0  0  0  0  0
   -7.4027    1.3460   -0.5192 H   0  0  0  0  0  0  0  0  0  0  0  0
    7.5142   -1.9047   -1.2841 H   0  0  0  0  0  0  0  0  0  0  0  0
    8.4509    0.3712   -1.2126 H   0  0  0  0  0  0  0  0  0  0  0  0
   -4.1765    3.6009    2.5050 H   0  0  0  0  0  0  0  0  0  0  0  0
   -8.2135    2.8498    1.2519 H   0  0  0  0  0  0  0  0  0  0  0  0
   -6.6074    3.9788    2.7680 H   0  0  0  0  0  0  0  0  0  0  0  0
   -2.7612    2.9215   -1.1692 H   0  0  0  0  0  0  0  0  0  0  0  0
   -2.4095    3.9782    0.2358 H   0  0  0  0  0  0  0  0  0  0  0  0
   -1.3105    2.6460   -0.1824 H   0  0  0  0  0  0  0  0  0  0  0  0
  1 33  1  0  0  0  0
  2 33  1  0  0  0  0
  3 33  1  0  0  0  0
  4 14  1  0  0  0  0
  4 17  1  0  0  0  0
  5 13  1  0  0  0  0
  5 18  1  0  0  0  0
  6 20  2  0  0  0  0
  7 29  1  0  0  0  0
  7 37  1  0  0  0  0
  8 15  1  0  0  0  0
  8 19  1  0  0  0  0
  8 46  1  0  0  0  0
  9 16  1  0  0  0  0
  9 20  1  0  0  0  0
  9 47  1  0  0  0  0
 10 20  1  0  0  0  0
 10 22  1  0  0  0  0
 10 48  1  0  0  0  0
 11 19  1  0  0  0  0
 11 21  2  0  0  0  0
 12 19  2  0  0  0  0
 12 23  1  0  0  0  0
 13 14  1  0  0  0  0
 13 15  1  0  0  0  0
 13 38  1  0  0  0  0
 14 16  1  0  0  0  0
 14 39  1  0  0  0  0
 15 17  1  0  0  0  0
 15 40  1  0  0  0  0
 16 18  1  0  0  0  0
 16 41  1  0  0  0  0
 17 42  1  0  0  0  0
 17 43  1  0  0  0  0
 18 44  1  0  0  0  0
 18 45  1  0  0  0  0
 21 24  1  0  0  0  0
 21 25  1  0  0  0  0
 22 26  1  0  0  0  0
 22 27  2  0  0  0  0
 23 24  2  0  0  0  0
 23 49  1  0  0  0  0
 24 50  1  0  0  0  0
 25 29  1  0  0  0  0
 25 30  2  0  0  0  0
 26 28  2  0  0  0  0
 26 51  1  0  0  0  0
 27 31  1  0  0  0  0
 27 52  1  0  0  0  0
 28 32  1  0  0  0  0
 28 33  1  0  0  0  0
 29 34  2  0  0  0  0
 30 35  1  0  0  0  0
 30 53  1  0  0  0  0
 31 32  2  0  0  0  0
 31 54  1  0  0  0  0
 32 55  1  0  0  0  0
 34 36  1  0  0  0  0
 34 56  1  0  0  0  0
 35 36  2  0  0  0  0
 35 57  1  0  0  0  0
 36 58  1  0  0  0  0
 37 59  1  0  0  0  0
 37 60  1  0  0  0  0
 37 61  1  0  0  0  0
M  END
> <PUBCHEM_COMPOUND_CID>
11943013

> <PUBCHEM_CONFORMER_RMSD>
1.6

> <PUBCHEM_CONFORMER_DIVERSEORDER>
1
21
129
34
122
11
120
98
137
134
102
85
130
31
42
108
44
46
14
13
110
77
116
111
99
67
136
63
54
83
80
16
132
66
133
24
84
119
38
95
128
113
117
75
28
43
12
87
76
30
65
33
121
79
123
100
109
92
39
91
53
36
48
32
118
125
62
27
97
20
26
69
15
71
49
18
126
57
135
127
131
10
88
55
19
101
93
5
89
68
45
115
6
59
90
37
35
41
70
64
52
73
25
86
103
7
23
105
114
29
9
22
94
60
51
61
17
104
106
8
40
124
78
74
47
56
96
112
72
81
50
3
107
2
58
82
4

> <PUBCHEM_MMFF94_PARTIAL_CHARGES>
49
1 -0.34
10 -0.55
11 -0.62
12 -0.62
13 0.28
14 0.28
15 0.37
16 0.3
17 0.28
18 0.28
19 0.72
2 -0.34
20 0.69
21 0.31
22 0.12
23 0.16
24 -0.15
26 -0.15
27 -0.15
28 -0.14
29 0.08
3 -0.34
30 -0.15
31 -0.15
32 -0.15
33 1.16
34 -0.15
35 -0.15
36 -0.15
37 0.28
4 -0.56
46 0.4
47 0.37
48 0.37
49 0.15
5 -0.56
50 0.15
51 0.15
52 0.15
53 0.15
54 0.15
55 0.15
56 0.15
57 0.15
58 0.15
6 -0.57
7 -0.36
8 -0.87
9 -0.73

> <PUBCHEM_EFFECTIVE_ROTOR_COUNT>
10.2

> <PUBCHEM_PHARMACOPHORE_FEATURES>
14
1 10 donor
1 11 acceptor
1 4 acceptor
1 5 acceptor
1 6 acceptor
1 7 acceptor
1 8 donor
1 9 donor
4 8 11 12 19 cation
5 4 13 14 15 17 rings
5 5 13 14 16 18 rings
6 11 12 19 21 23 24 rings
6 22 26 27 28 31 32 rings
6 25 29 30 34 35 36 rings

> <PUBCHEM_HEAVY_ATOM_COUNT>
37

> <PUBCHEM_ATOM_DEF_STEREO_COUNT>
4

> <PUBCHEM_ATOM_UDEF_STEREO_COUNT>
0

> <PUBCHEM_BOND_DEF_STEREO_COUNT>
0

> <PUBCHEM_BOND_UDEF_STEREO_COUNT>
0

> <PUBCHEM_ISOTOPIC_ATOM_COUNT>
0

> <PUBCHEM_COMPONENT_COUNT>
1

> <PUBCHEM_CACTVS_TAUTO_COUNT>
9

> <PUBCHEM_CONFORMER_ID>
00B63C6500000001

> <PUBCHEM_MMFF94_ENERGY>
116.6068

> <PUBCHEM_FEATURE_SELFOVERLAP>
71.808

> <PUBCHEM_SHAPE_FINGERPRINT>
10305334 12 18341900701517344197
10369192 42 18409455778349356411
10794284 68 17988640823301936215
10930396 42 16009036086313287705
11007060 377 17968086543165801543
11273773 42 18413670201453462173
11479125 193 17822845377931616029
12013929 29 18341899537427952640
12895837 130 18059858355220726925
13165053 182 18267314316487632488
13627167 48 18337942390309788317
13782708 43 10807942578807612430
14150022 121 18115036324269907371
14394314 77 18338521842119131669
14664723 55 18342739568421599981
14840074 17 18265329505041731877
15064981 194 18189630499516114862
15082195 135 18060139809102506754
15119646 57 18411138052118519127
15131766 46 18189886544782366821
15160630 1 18272378611094413441
15406563 42 18131637781063852038
15513586 35 16953680551216220860
15538507 32 18412267224817374272
15685185 35 18408889572103855993
16112460 7 18408606963424668636
16126227 98 18411423903714202217
16728433 281 18190471631229509604
17899979 129 18340492171382630798
17899979 19 18187360979543235477
19304152 47 16298662790012237863
19309040 13 18272369741733421039
19438510 23 18187367627577284890
20691028 202 18410014316674727320
21033648 29 16081933607970599031
21133410 62 17895468121357930733
21772528 278 18261969452935434019
24771750 20 16556778552687433775
2748736 6 18334565868000831088
2838139 119 18262233305587703186
3610482 184 17917420987592266375
38570 142 18198908020202736731
437795 83 18268995457171145836
474113 269 8430308014372338169
50677037 204 18334852831719627172
50742298 180 15357694193689932052
563151 74 15502639478309967250
5776283 40 18201716280063113897
5911458 16 18271248214198009713
5937810 71 18041853917231060852
6036956 94 18051970317328597497
6289498 60 17604139429061918164

> <PUBCHEM_SHAPE_MULTIPOLES>
691.24
23.6
5.36
2.22
37.08
0.28
1.08
-28.52
4.51
-0.03
-1.97
-4.38
0.21
-3.7

> <PUBCHEM_SHAPE_SELFOVERLAP>
1514.716

> <PUBCHEM_SHAPE_VOLUME>
374.5

> <PUBCHEM_COORDINATE_TYPE>
2
5
10

$$$$
