7135170
  -OEChem-12032416133D

 73 77  0     1  0  0  0  0  0999 V2000
   -0.6354    3.1697    0.1213 S   0  0  0  0  0  0  0  0  0  0  0  0
   -7.5141   -0.5345   -0.6461 O   0  0  0  0  0  0  0  0  0  0  0  0
   -7.5081    1.3188    0.8737 O   0  0  0  0  0  0  0  0  0  0  0  0
    0.4183   -1.8239   -1.4590 O   0  0  0  0  0  0  0  0  0  0  0  0
    3.2268    0.6590   -0.2589 O   0  0  0  0  0  0  0  0  0  0  0  0
    4.1780    4.0631    0.0513 O   0  0  0  0  0  0  0  0  0  0  0  0
    0.3161    0.7752   -0.1102 N   0  0  0  0  0  0  0  0  0  0  0  0
    0.9215   -3.2496    0.3061 N   0  0  0  0  0  0  0  0  0  0  0  0
    1.9139    2.5787   -0.0444 N   0  0  0  0  0  0  0  0  0  0  0  0
   -3.2719   -0.5564    0.3597 C   0  0  2  0  0  0  0  0  0  0  0  0
   -3.9220    0.7284   -0.3201 C   0  0  1  0  0  0  0  0  0  0  0  0
   -5.4966    0.8215   -0.3153 C   0  0  1  0  0  0  0  0  0  0  0  0
   -1.7564   -0.6627   -0.1357 C   0  0  1  0  0  0  0  0  0  0  0  0
   -4.0292   -1.8263   -0.1082 C   0  0  0  0  0  0  0  0  0  0  0  0
   -6.0917   -0.5435   -0.7632 C   0  0  1  0  0  0  0  0  0  0  0  0
   -3.2152    2.0357    0.1428 C   0  0  0  0  0  0  0  0  0  0  0  0
   -5.5421   -1.7267    0.0258 C   0  0  0  0  0  0  0  0  0  0  0  0
   -3.3051   -0.4998    1.9069 C   0  0  0  0  0  0  0  0  0  0  0  0
   -1.0609    0.6712   -0.0425 C   0  0  0  0  0  0  0  0  0  0  0  0
   -6.1075    1.2740    1.0294 C   0  0  0  0  0  0  0  0  0  0  0  0
   -5.9447    1.8854   -1.3570 C   0  0  0  0  0  0  0  0  0  0  0  0
   -1.7351    1.8707    0.0636 C   0  0  0  0  0  0  0  0  0  0  0  0
   -0.9397   -1.7706    0.5429 C   0  0  0  0  0  0  0  0  0  0  0  0
    0.1915   -2.2578   -0.3327 C   0  0  0  0  0  0  0  0  0  0  0  0
    0.6531    2.0439   -0.0262 C   0  0  0  0  0  0  0  0  0  0  0  0
    2.0615   -3.9026   -0.2956 C   0  0  2  0  0  0  0  0  0  0  0  0
    3.1368    1.8803   -0.1582 C   0  0  0  0  0  0  0  0  0  0  0  0
    2.1549   -5.3479    0.1893 C   0  0  0  0  0  0  0  0  0  0  0  0
    3.3368   -3.1246   -0.0529 C   0  0  0  0  0  0  0  0  0  0  0  0
    4.3445    2.7232   -0.1016 C   0  0  0  0  0  0  0  0  0  0  0  0
    3.5127   -2.4293    1.1435 C   0  0  0  0  0  0  0  0  0  0  0  0
    4.3367   -3.1032   -1.0253 C   0  0  0  0  0  0  0  0  0  0  0  0
    5.6814    2.4080   -0.1765 C   0  0  0  0  0  0  0  0  0  0  0  0
    4.6880   -1.7123    1.3674 C   0  0  0  0  0  0  0  0  0  0  0  0
    5.5122   -2.3864   -0.8013 C   0  0  0  0  0  0  0  0  0  0  0  0
    5.6878   -1.6909    0.3950 C   0  0  0  0  0  0  0  0  0  0  0  0
    6.3811    3.6329   -0.0623 C   0  0  0  0  0  0  0  0  0  0  0  0
    5.4221    4.6094    0.0744 C   0  0  0  0  0  0  0  0  0  0  0  0
   -3.6645    0.6213   -1.3883 H   0  0  0  0  0  0  0  0  0  0  0  0
   -1.8108   -0.8808   -1.2129 H   0  0  0  0  0  0  0  0  0  0  0  0
   -3.6971   -2.7071    0.4528 H   0  0  0  0  0  0  0  0  0  0  0  0
   -3.7928   -2.0276   -1.1615 H   0  0  0  0  0  0  0  0  0  0  0  0
   -5.8646   -0.6992   -1.8263 H   0  0  0  0  0  0  0  0  0  0  0  0
   -3.5182    2.8735   -0.4941 H   0  0  0  0  0  0  0  0  0  0  0  0
   -3.4919    2.2871    1.1721 H   0  0  0  0  0  0  0  0  0  0  0  0
   -5.9972   -2.6531   -0.3477 H   0  0  0  0  0  0  0  0  0  0  0  0
   -5.8461   -1.6671    1.0767 H   0  0  0  0  0  0  0  0  0  0  0  0
   -2.7836    0.3742    2.3067 H   0  0  0  0  0  0  0  0  0  0  0  0
   -4.3151   -0.4961    2.3111 H   0  0  0  0  0  0  0  0  0  0  0  0
   -2.8255   -1.3818    2.3459 H   0  0  0  0  0  0  0  0  0  0  0  0
   -5.7628    2.2716    1.3179 H   0  0  0  0  0  0  0  0  0  0  0  0
   -5.8979    0.5870    1.8452 H   0  0  0  0  0  0  0  0  0  0  0  0
   -5.4750    1.7031   -2.3305 H   0  0  0  0  0  0  0  0  0  0  0  0
   -5.6764    2.9000   -1.0445 H   0  0  0  0  0  0  0  0  0  0  0  0
   -7.0277    1.8769   -1.5235 H   0  0  0  0  0  0  0  0  0  0  0  0
   -1.5600   -2.6488    0.7487 H   0  0  0  0  0  0  0  0  0  0  0  0
   -0.5218   -1.4276    1.4979 H   0  0  0  0  0  0  0  0  0  0  0  0
   -7.8427   -1.3867   -0.9796 H   0  0  0  0  0  0  0  0  0  0  0  0
   -7.8845    1.6137    1.7202 H   0  0  0  0  0  0  0  0  0  0  0  0
    0.6794   -3.4982    1.2616 H   0  0  0  0  0  0  0  0  0  0  0  0
    1.9516    3.5915    0.0403 H   0  0  0  0  0  0  0  0  0  0  0  0
    1.8766   -3.9222   -1.3778 H   0  0  0  0  0  0  0  0  0  0  0  0
    2.3195   -5.3965    1.2721 H   0  0  0  0  0  0  0  0  0  0  0  0
    1.2292   -5.8919   -0.0287 H   0  0  0  0  0  0  0  0  0  0  0  0
    2.9823   -5.8753   -0.2975 H   0  0  0  0  0  0  0  0  0  0  0  0
    2.7582   -2.4386    1.9251 H   0  0  0  0  0  0  0  0  0  0  0  0
    4.2129   -3.6422   -1.9608 H   0  0  0  0  0  0  0  0  0  0  0  0
    6.1046    1.4217   -0.3001 H   0  0  0  0  0  0  0  0  0  0  0  0
    4.8260   -1.1721    2.2995 H   0  0  0  0  0  0  0  0  0  0  0  0
    6.2908   -2.3696   -1.5583 H   0  0  0  0  0  0  0  0  0  0  0  0
    6.6033   -1.1335    0.5698 H   0  0  0  0  0  0  0  0  0  0  0  0
    7.4505    3.7851   -0.0782 H   0  0  0  0  0  0  0  0  0  0  0  0
    5.4590    5.6825    0.1917 H   0  0  0  0  0  0  0  0  0  0  0  0
  1 22  1  0  0  0  0
  1 25  1  0  0  0  0
  2 15  1  0  0  0  0
  2 58  1  0  0  0  0
  3 20  1  0  0  0  0
  3 59  1  0  0  0  0
  4 24  2  0  0  0  0
  5 27  2  0  0  0  0
  6 30  1  0  0  0  0
  6 38  1  0  0  0  0
  7 19  1  0  0  0  0
  7 25  2  0  0  0  0
  8 24  1  0  0  0  0
  8 26  1  0  0  0  0
  8 60  1  0  0  0  0
  9 25  1  0  0  0  0
  9 27  1  0  0  0  0
  9 61  1  0  0  0  0
 10 11  1  0  0  0  0
 10 13  1  0  0  0  0
 10 14  1  0  0  0  0
 10 18  1  0  0  0  0
 11 12  1  0  0  0  0
 11 16  1  0  0  0  0
 11 39  1  0  0  0  0
 12 15  1  0  0  0  0
 12 20  1  0  0  0  0
 12 21  1  0  0  0  0
 13 19  1  0  0  0  0
 13 23  1  0  0  0  0
 13 40  1  0  0  0  0
 14 17  1  0  0  0  0
 14 41  1  0  0  0  0
 14 42  1  0  0  0  0
 15 17  1  0  0  0  0
 15 43  1  0  0  0  0
 16 22  1  0  0  0  0
 16 44  1  0  0  0  0
 16 45  1  0  0  0  0
 17 46  1  0  0  0  0
 17 47  1  0  0  0  0
 18 48  1  0  0  0  0
 18 49  1  0  0  0  0
 18 50  1  0  0  0  0
 19 22  2  0  0  0  0
 20 51  1  0  0  0  0
 20 52  1  0  0  0  0
 21 53  1  0  0  0  0
 21 54  1  0  0  0  0
 21 55  1  0  0  0  0
 23 24  1  0  0  0  0
 23 56  1  0  0  0  0
 23 57  1  0  0  0  0
 26 28  1  0  0  0  0
 26 29  1  0  0  0  0
 26 62  1  0  0  0  0
 27 30  1  0  0  0  0
 28 63  1  0  0  0  0
 28 64  1  0  0  0  0
 28 65  1  0  0  0  0
 29 31  2  0  0  0  0
 29 32  1  0  0  0  0
 30 33  2  0  0  0  0
 31 34  1  0  0  0  0
 31 66  1  0  0  0  0
 32 35  2  0  0  0  0
 32 67  1  0  0  0  0
 33 37  1  0  0  0  0
 33 68  1  0  0  0  0
 34 36  2  0  0  0  0
 34 69  1  0  0  0  0
 35 36  1  0  0  0  0
 35 70  1  0  0  0  0
 36 71  1  0  0  0  0
 37 38  2  0  0  0  0
 37 72  1  0  0  0  0
 38 73  1  0  0  0  0
M  END
> <PUBCHEM_COMPOUND_CID>
7135170

> <PUBCHEM_CONFORMER_RMSD>
1.2

> <PUBCHEM_CONFORMER_DIVERSEORDER>
1
31
27
15
17
9
29
14
8
18
28
25
10
12
20
19
30
21
6
23
26
4
22
24
16
3
11
13
7
2
5

> <PUBCHEM_MMFF94_PARTIAL_CHARGES>
42
1 -0.08
13 0.18
15 0.28
16 0.18
19 0.05
2 -0.68
20 0.28
22 -0.14
23 0.06
24 0.57
25 0.44
26 0.44
27 0.71
29 -0.14
3 -0.68
30 0.05
31 -0.15
32 -0.15
33 -0.15
34 -0.15
35 -0.15
36 -0.15
37 -0.15
38 -0.01
4 -0.57
5 -0.57
58 0.4
59 0.4
6 -0.28
60 0.37
61 0.37
66 0.15
67 0.15
68 0.15
69 0.15
7 -0.57
70 0.15
71 0.15
72 0.15
73 0.15
8 -0.73
9 -0.49

> <PUBCHEM_EFFECTIVE_ROTOR_COUNT>
10.2

> <PUBCHEM_PHARMACOPHORE_FEATURES>
14
1 2 acceptor
1 2 donor
1 3 acceptor
1 3 donor
1 4 acceptor
1 5 acceptor
1 6 acceptor
1 8 donor
1 9 donor
5 1 7 19 22 25 rings
5 6 30 33 37 38 rings
6 10 11 12 14 15 17 rings
6 10 11 13 16 19 22 rings
6 29 31 32 34 35 36 rings

> <PUBCHEM_HEAVY_ATOM_COUNT>
38

> <PUBCHEM_ATOM_DEF_STEREO_COUNT>
6

> <PUBCHEM_ATOM_UDEF_STEREO_COUNT>
0

> <PUBCHEM_BOND_DEF_STEREO_COUNT>
0

> <PUBCHEM_BOND_UDEF_STEREO_COUNT>
0

> <PUBCHEM_ISOTOPIC_ATOM_COUNT>
0

> <PUBCHEM_COMPONENT_COUNT>
1

> <PUBCHEM_CACTVS_TAUTO_COUNT>
6

> <PUBCHEM_CONFORMER_ID>
006CDFC200000001

> <PUBCHEM_MMFF94_ENERGY>
103.1183

> <PUBCHEM_FEATURE_SELFOVERLAP>
71.195

> <PUBCHEM_SHAPE_FINGERPRINT>
10050765 1 18410575089839040239
10290309 65 17977395158788561536
10675989 125 18411140229914591768
11135609 187 18339358694414636025
11135926 11 18409724097303136965
11136131 41 18262226812029909226
11719270 70 18338791321299202848
11763715 3 17546470889533774150
12440605 4 18269279143729382403
13533116 47 18342454837786397536
1361 2 18410291398400930754
13811026 1 18334293210460474203
14295345 954 18333734645473639096
14725015 67 18188762852436071034
14790565 3 17904766922916966828
14840074 17 17845079684926018191
15001296 14 18408600379128533978
15200665 1 17691688213440603714
15320467 1 18338517431160461458
15400415 2 18194401323862169996
15439362 3 18409446982050131585
15815584 197 18193581036235869367
15927050 60 18196933490503186862
16067689 302 18340490084297654287
20721686 56 18408326587964354050
21344244 246 18338792425226682151
22311459 1 18337954476701699906
23559900 14 18338228267938940627
24771293 8 18272075077128142450
24771750 20 18188226397581666805
3411729 13 18335700585306701314
394071 54 18342460283767745994
4073 2 18189619525811214120
5265222 85 17833275594494686212
53794403 172 18410012152575335630
5385378 56 18410864261186558289
5776283 40 18337969965165490478
6036956 94 17325488203994891468
6669772 16 18340206396768415652
6700243 42 17052478994308678142
99344 41 18411133675510051088
9961470 85 18268147733821694290

> <PUBCHEM_SHAPE_MULTIPOLES>
741.58
17.65
6.36
1.03
13.41
0.69
0.15
-6.9
-0.59
-13.44
-0.22
0.48
0.34
0

> <PUBCHEM_SHAPE_SELFOVERLAP>
1586.166

> <PUBCHEM_SHAPE_VOLUME>
413.7

> <PUBCHEM_COORDINATE_TYPE>
2
5
10

$$$$
