51136659
  -OEChem-12032416143D

 65 68  0     1  0  0  0  0  0999 V2000
   -0.6152    3.4138   -1.6494 O   0  0  0  0  0  0  0  0  0  0  0  0
   -7.1066   -1.6198   -0.5708 O   0  0  0  0  0  0  0  0  0  0  0  0
   -6.9222    0.5861   -0.0405 O   0  0  0  0  0  0  0  0  0  0  0  0
    4.1233   -3.0445   -1.4567 O   0  0  0  0  0  0  0  0  0  0  0  0
   -1.8463    2.1952   -0.1014 N   0  0  0  0  0  0  0  0  0  0  0  0
   -1.1104   -1.7786    2.0096 N   0  0  0  0  0  0  0  0  0  0  0  0
   -2.7261    0.0475    0.7857 C   0  0  2  0  0  0  0  0  0  0  0  0
   -4.1070    0.4057    0.1797 C   0  0  1  0  0  0  0  0  0  0  0  0
   -3.9674    1.3477   -1.0281 C   0  0  0  0  0  0  0  0  0  0  0  0
   -1.9370    1.3350    1.0854 C   0  0  0  0  0  0  0  0  0  0  0  0
   -3.1345    2.5782   -0.6786 C   0  0  0  0  0  0  0  0  0  0  0  0
   -1.8903   -0.8991   -0.0847 C   0  0  0  0  0  0  0  0  0  0  0  0
   -4.9386   -0.8229   -0.1882 C   0  0  0  0  0  0  0  0  0  0  0  0
   -0.8425   -1.5821    0.7609 C   0  0  0  0  0  0  0  0  0  0  0  0
   -0.6631    2.6699   -0.6663 C   0  0  0  0  0  0  0  0  0  0  0  0
   -6.4066   -0.5022   -0.2469 C   0  0  0  0  0  0  0  0  0  0  0  0
    0.4378   -1.9860    0.1254 C   0  0  0  0  0  0  0  0  0  0  0  0
    0.6225    2.2272   -0.0145 C   0  0  0  0  0  0  0  0  0  0  0  0
    1.5124   -2.2504    0.9839 C   0  0  0  0  0  0  0  0  0  0  0  0
    1.3086   -2.0970    2.4618 C   0  0  0  0  0  0  0  0  0  0  0  0
   -0.1178   -2.4961    2.8168 C   0  0  0  0  0  0  0  0  0  0  0  0
    1.8215    2.8227   -0.7381 C   0  0  0  0  0  0  0  0  0  0  0  0
    0.5940   -2.0905   -1.2581 C   0  0  0  0  0  0  0  0  0  0  0  0
    2.7557   -2.5959    0.4468 C   0  0  0  0  0  0  0  0  0  0  0  0
    1.8351   -2.4513   -1.7844 C   0  0  0  0  0  0  0  0  0  0  0  0
    2.9137   -2.7006   -0.9352 C   0  0  0  0  0  0  0  0  0  0  0  0
    3.1434    2.4315   -0.1236 C   0  0  0  0  0  0  0  0  0  0  0  0
    3.7070    3.2201    0.8793 C   0  0  0  0  0  0  0  0  0  0  0  0
    3.8014    1.2813   -0.5591 C   0  0  0  0  0  0  0  0  0  0  0  0
    4.9289    2.8586    1.4470 C   0  0  0  0  0  0  0  0  0  0  0  0
    5.0231    0.9197    0.0085 C   0  0  0  0  0  0  0  0  0  0  0  0
    5.5869    1.7083    1.0116 C   0  0  0  0  0  0  0  0  0  0  0  0
    4.2162   -3.1313   -2.8777 C   0  0  0  0  0  0  0  0  0  0  0  0
   -2.9548   -0.4237    1.7498 H   0  0  0  0  0  0  0  0  0  0  0  0
   -4.6437    0.9648    0.9609 H   0  0  0  0  0  0  0  0  0  0  0  0
   -3.4873    0.8148   -1.8588 H   0  0  0  0  0  0  0  0  0  0  0  0
   -4.9490    1.6748   -1.3875 H   0  0  0  0  0  0  0  0  0  0  0  0
   -2.4609    1.9186    1.8532 H   0  0  0  0  0  0  0  0  0  0  0  0
   -0.9556    1.0988    1.4997 H   0  0  0  0  0  0  0  0  0  0  0  0
   -2.9942    3.1936   -1.5729 H   0  0  0  0  0  0  0  0  0  0  0  0
   -3.6554    3.1951    0.0633 H   0  0  0  0  0  0  0  0  0  0  0  0
   -1.4375   -0.3554   -0.9182 H   0  0  0  0  0  0  0  0  0  0  0  0
   -2.5032   -1.7028   -0.5050 H   0  0  0  0  0  0  0  0  0  0  0  0
   -4.6362   -1.2280   -1.1602 H   0  0  0  0  0  0  0  0  0  0  0  0
   -4.8120   -1.5979    0.5771 H   0  0  0  0  0  0  0  0  0  0  0  0
    0.6234    2.5564    1.0309 H   0  0  0  0  0  0  0  0  0  0  0  0
    0.6804    1.1343   -0.0401 H   0  0  0  0  0  0  0  0  0  0  0  0
    1.4938   -1.0513    2.7355 H   0  0  0  0  0  0  0  0  0  0  0  0
    2.0115   -2.7247    3.0209 H   0  0  0  0  0  0  0  0  0  0  0  0
   -0.2668   -3.5755    2.6878 H   0  0  0  0  0  0  0  0  0  0  0  0
   -0.3000   -2.2729    3.8737 H   0  0  0  0  0  0  0  0  0  0  0  0
    1.7517    3.9190   -0.7548 H   0  0  0  0  0  0  0  0  0  0  0  0
    1.8183    2.5181   -1.7937 H   0  0  0  0  0  0  0  0  0  0  0  0
   -0.2283   -1.9128   -1.9438 H   0  0  0  0  0  0  0  0  0  0  0  0
    3.6015   -2.7840    1.1033 H   0  0  0  0  0  0  0  0  0  0  0  0
   -8.0709   -1.4462   -0.6183 H   0  0  0  0  0  0  0  0  0  0  0  0
    1.8915   -2.5186   -2.8656 H   0  0  0  0  0  0  0  0  0  0  0  0
    3.2028    4.1173    1.2283 H   0  0  0  0  0  0  0  0  0  0  0  0
    3.3713    0.6584   -1.3387 H   0  0  0  0  0  0  0  0  0  0  0  0
    5.3676    3.4722    2.2284 H   0  0  0  0  0  0  0  0  0  0  0  0
    5.5344    0.0231   -0.3298 H   0  0  0  0  0  0  0  0  0  0  0  0
    6.5379    1.4263    1.4539 H   0  0  0  0  0  0  0  0  0  0  0  0
    4.0327   -2.1616   -3.3528 H   0  0  0  0  0  0  0  0  0  0  0  0
    5.2465   -3.4142   -3.1174 H   0  0  0  0  0  0  0  0  0  0  0  0
    3.5678   -3.9190   -3.2763 H   0  0  0  0  0  0  0  0  0  0  0  0
  1 15  2  0  0  0  0
  2 16  1  0  0  0  0
  2 56  1  0  0  0  0
  3 16  2  0  0  0  0
  4 26  1  0  0  0  0
  4 33  1  0  0  0  0
  5 10  1  0  0  0  0
  5 11  1  0  0  0  0
  5 15  1  0  0  0  0
  6 14  2  0  0  0  0
  6 21  1  0  0  0  0
  7  8  1  0  0  0  0
  7 10  1  0  0  0  0
  7 12  1  0  0  0  0
  7 34  1  0  0  0  0
  8  9  1  0  0  0  0
  8 13  1  0  0  0  0
  8 35  1  0  0  0  0
  9 11  1  0  0  0  0
  9 36  1  0  0  0  0
  9 37  1  0  0  0  0
 10 38  1  0  0  0  0
 10 39  1  0  0  0  0
 11 40  1  0  0  0  0
 11 41  1  0  0  0  0
 12 14  1  0  0  0  0
 12 42  1  0  0  0  0
 12 43  1  0  0  0  0
 13 16  1  0  0  0  0
 13 44  1  0  0  0  0
 13 45  1  0  0  0  0
 14 17  1  0  0  0  0
 15 18  1  0  0  0  0
 17 19  2  0  0  0  0
 17 23  1  0  0  0  0
 18 22  1  0  0  0  0
 18 46  1  0  0  0  0
 18 47  1  0  0  0  0
 19 20  1  0  0  0  0
 19 24  1  0  0  0  0
 20 21  1  0  0  0  0
 20 48  1  0  0  0  0
 20 49  1  0  0  0  0
 21 50  1  0  0  0  0
 21 51  1  0  0  0  0
 22 27  1  0  0  0  0
 22 52  1  0  0  0  0
 22 53  1  0  0  0  0
 23 25  2  0  0  0  0
 23 54  1  0  0  0  0
 24 26  2  0  0  0  0
 24 55  1  0  0  0  0
 25 26  1  0  0  0  0
 25 57  1  0  0  0  0
 27 28  2  0  0  0  0
 27 29  1  0  0  0  0
 28 30  1  0  0  0  0
 28 58  1  0  0  0  0
 29 31  2  0  0  0  0
 29 59  1  0  0  0  0
 30 32  2  0  0  0  0
 30 60  1  0  0  0  0
 31 32  1  0  0  0  0
 31 61  1  0  0  0  0
 32 62  1  0  0  0  0
 33 63  1  0  0  0  0
 33 64  1  0  0  0  0
 33 65  1  0  0  0  0
M  END
> <PUBCHEM_COMPOUND_CID>
51136659

> <PUBCHEM_CONFORMER_RMSD>
1

> <PUBCHEM_CONFORMER_DIVERSEORDER>
1
146
134
240
266
16
115
79
220
101
257
73
136
68
200
214
225
179
165
76
54
117
65
255
233
113
259
44
184
108
206
63
2
69
268
269
230
47
100
123
181
111
87
232
119
15
149
180
48
10
254
224
172
218
199
235
221
231
131
40
22
12
38
177
159
182
127
143
169
118
265
5
160
272
150
17
60
41
106
83
155
152
37
9
156
264
61
32
191
7
164
120
253
226
43
204
273
249
267
89
211
190
59
35
122
132
248
261
33
167
128
223
241
103
260
84
173
196
185
77
141
8
31
129
30
236
222
94
243
67
93
19
216
50
201
24
262
188
45
186
99
55
217
170
203
3
26
142
110
21
270
135
124
238
53
86
28
158
157
52
271
145
210
49
178
161
58
187
147
97
71
92
171
168
208
75
163
82
227
166
104
96
193
237
18
112
80
245
20
102
46
207
247
105
274
202
140
246
175
114
276
205
251
263
183
153
275
194
130
6
277
51
64
109
56
85
98
72
27
174
90
34
14
244
256
88
252
91
250
138
213
258
176
4
13
42
162
29
95
126
148
154
121
192
228
116
36
209
66
189
212
198
133
25
125
239
74
57
137
242
70
78
234
39
62
215
139
107
229
144
23
197
151
219
195
11
81

> <PUBCHEM_MMFF94_PARTIAL_CHARGES>
39
1 -0.57
10 0.3
11 0.3
12 0.06
13 0.06
14 0.3
15 0.57
16 0.66
17 0.09
18 0.06
19 -0.14
2 -0.65
20 0.14
21 0.25
22 0.14
23 -0.15
24 -0.15
25 -0.15
26 0.08
27 -0.14
28 -0.15
29 -0.15
3 -0.57
30 -0.15
31 -0.15
32 -0.15
33 0.28
4 -0.36
5 -0.66
54 0.15
55 0.15
56 0.5
57 0.15
58 0.15
59 0.15
6 -0.7
60 0.15
61 0.15
62 0.15

> <PUBCHEM_EFFECTIVE_ROTOR_COUNT>
10.6

> <PUBCHEM_PHARMACOPHORE_FEATURES>
10
1 1 acceptor
1 2 acceptor
1 3 acceptor
1 4 acceptor
1 6 acceptor
3 2 3 16 anion
6 17 19 23 24 25 26 rings
6 27 28 29 30 31 32 rings
6 5 7 8 9 10 11 rings
6 6 14 17 19 20 21 rings

> <PUBCHEM_HEAVY_ATOM_COUNT>
33

> <PUBCHEM_ATOM_DEF_STEREO_COUNT>
2

> <PUBCHEM_ATOM_UDEF_STEREO_COUNT>
0

> <PUBCHEM_BOND_DEF_STEREO_COUNT>
0

> <PUBCHEM_BOND_UDEF_STEREO_COUNT>
0

> <PUBCHEM_ISOTOPIC_ATOM_COUNT>
0

> <PUBCHEM_COMPONENT_COUNT>
1

> <PUBCHEM_CACTVS_TAUTO_COUNT>
1

> <PUBCHEM_CONFORMER_ID>
030C489300000001

> <PUBCHEM_MMFF94_ENERGY>
91.3921

> <PUBCHEM_FEATURE_SELFOVERLAP>
50.831

> <PUBCHEM_SHAPE_FINGERPRINT>
10032420 55 17680438749405302870
12107698 1 18339080371928193638
12156800 1 16983733451199178318
12166972 35 17416977123306786670
12422481 6 17976287899123660739
12645989 146 18125734383118799030
12741549 16 17486767472780926754
12788726 201 16609697862258586724
13402501 40 18408888426001319396
1361 2 18342457088074466758
14725015 67 18261665970646362896
15721738 202 17917998226411459387
17909252 39 18128267700710440718
20028762 73 18196367241708680269
20554085 129 17385444314884744563
20642791 35 18119529834950455413
20691752 17 17895490106641385025
20721686 56 18333169453578561482
20775438 99 18340196496890923727
21197605 99 18339077198073605070
21344244 246 18343303699185338863
22393880 68 18116996581207199845
23559900 14 18126842686295787173
238918 7 18411136983177811376
3298306 158 18336256912025556428
4017518 198 17986119728653702644
4093350 32 18202290178378438219
46194498 28 18129945576802864070
508706 21 18041857124780202848
5171179 24 18268997483894276836
5265222 85 18049730916626436924
59755656 215 18335419101566190605
6036956 94 16533971845784086268
6138700 20 18261106413364073697
86090 222 18334300868218110984

> <PUBCHEM_SHAPE_MULTIPOLES>
645.69
12.52
5.11
2.04
14.69
0.43
-0.35
2.5
1.79
-6
1.02
-1.81
-1.98
3.08

> <PUBCHEM_SHAPE_SELFOVERLAP>
1374.467

> <PUBCHEM_SHAPE_VOLUME>
355.7

> <PUBCHEM_COORDINATE_TYPE>
2
5
10

$$$$
