38029812
  -OEChem-12032416143D

 58 59  0     1  0  0  0  0  0999 V2000
   -1.1243    2.8266    0.2366 O   0  0  0  0  0  0  0  0  0  0  0  0
   -2.8416    3.4034   -1.1923 O   0  0  0  0  0  0  0  0  0  0  0  0
    0.9925   -2.0777    2.2357 O   0  0  0  0  0  0  0  0  0  0  0  0
    0.3088   -2.3101    0.0302 N   0  0  0  0  0  0  0  0  0  0  0  0
    6.7882    1.5022   -0.9990 N   0  0  0  0  0  0  0  0  0  0  0  0
   -2.2897   -0.8835    0.5364 C   0  0  1  0  0  0  0  0  0  0  0  0
   -2.1143   -2.2173   -0.2318 C   0  0  1  0  0  0  0  0  0  0  0  0
   -3.1978    0.0734   -0.2511 C   0  0  0  0  0  0  0  0  0  0  0  0
   -2.6387    0.3867   -1.6518 C   0  0  2  0  0  0  0  0  0  0  0  0
   -2.8634   -1.1062    1.9392 C   0  0  0  0  0  0  0  0  0  0  0  0
   -2.1910   -0.8684   -2.3730 C   0  0  0  0  0  0  0  0  0  0  0  0
   -1.9746   -2.0262   -1.7239 C   0  0  0  0  0  0  0  0  0  0  0  0
   -0.9109   -3.0060    0.2969 C   0  0  0  0  0  0  0  0  0  0  0  0
   -1.5013    1.4113   -1.5760 C   0  0  0  0  0  0  0  0  0  0  0  0
   -4.3788   -1.2672    1.8748 C   0  0  0  0  0  0  0  0  0  0  0  0
   -2.4805    0.0479    2.8601 C   0  0  0  0  0  0  0  0  0  0  0  0
   -2.0414   -0.7745   -3.8660 C   0  0  0  0  0  0  0  0  0  0  0  0
   -1.9288    2.6621   -0.8553 C   0  0  0  0  0  0  0  0  0  0  0  0
    1.1799   -1.8932    1.0361 C   0  0  0  0  0  0  0  0  0  0  0  0
    2.3936   -1.1584    0.5957 C   0  0  0  0  0  0  0  0  0  0  0  0
   -1.4009    3.9803    1.0372 C   0  0  0  0  0  0  0  0  0  0  0  0
    3.0050   -0.2440    1.4537 C   0  0  0  0  0  0  0  0  0  0  0  0
    2.9218   -1.3827   -0.6757 C   0  0  0  0  0  0  0  0  0  0  0  0
   -0.4306    4.0187    2.1986 C   0  0  0  0  0  0  0  0  0  0  0  0
    4.1445    0.4459    1.0401 C   0  0  0  0  0  0  0  0  0  0  0  0
    4.0613   -0.6927   -1.0892 C   0  0  0  0  0  0  0  0  0  0  0  0
    4.6727    0.2215   -0.2313 C   0  0  0  0  0  0  0  0  0  0  0  0
    5.8402    0.9282   -0.6549 C   0  0  0  0  0  0  0  0  0  0  0  0
   -1.3094   -0.4020    0.6383 H   0  0  0  0  0  0  0  0  0  0  0  0
   -3.0033   -2.8439   -0.0864 H   0  0  0  0  0  0  0  0  0  0  0  0
   -3.3982    0.9921    0.3081 H   0  0  0  0  0  0  0  0  0  0  0  0
   -4.1769   -0.3921   -0.4278 H   0  0  0  0  0  0  0  0  0  0  0  0
   -3.4648    0.8344   -2.2221 H   0  0  0  0  0  0  0  0  0  0  0  0
   -2.4447   -2.0153    2.3830 H   0  0  0  0  0  0  0  0  0  0  0  0
   -1.7000   -2.9080   -2.2998 H   0  0  0  0  0  0  0  0  0  0  0  0
   -0.8383   -3.9718   -0.2180 H   0  0  0  0  0  0  0  0  0  0  0  0
   -1.0045   -3.2285    1.3632 H   0  0  0  0  0  0  0  0  0  0  0  0
   -1.1750    1.7199   -2.5763 H   0  0  0  0  0  0  0  0  0  0  0  0
   -0.6163    0.9811   -1.0908 H   0  0  0  0  0  0  0  0  0  0  0  0
   -4.6934   -2.0214    1.1475 H   0  0  0  0  0  0  0  0  0  0  0  0
   -4.7459   -1.6074    2.8511 H   0  0  0  0  0  0  0  0  0  0  0  0
   -4.9036   -0.3278    1.6716 H   0  0  0  0  0  0  0  0  0  0  0  0
   -2.8604   -0.1283    3.8725 H   0  0  0  0  0  0  0  0  0  0  0  0
   -1.3919    0.1478    2.9307 H   0  0  0  0  0  0  0  0  0  0  0  0
   -2.8863    1.0054    2.5188 H   0  0  0  0  0  0  0  0  0  0  0  0
   -2.9757   -0.4294   -4.3204 H   0  0  0  0  0  0  0  0  0  0  0  0
   -1.7932   -1.7411   -4.3173 H   0  0  0  0  0  0  0  0  0  0  0  0
   -1.2444   -0.0735   -4.1315 H   0  0  0  0  0  0  0  0  0  0  0  0
    0.5250   -2.1155   -0.9412 H   0  0  0  0  0  0  0  0  0  0  0  0
   -1.2860    4.8839    0.4282 H   0  0  0  0  0  0  0  0  0  0  0  0
   -2.4279    3.9237    1.4150 H   0  0  0  0  0  0  0  0  0  0  0  0
    2.6054   -0.0517    2.4460 H   0  0  0  0  0  0  0  0  0  0  0  0
    2.4973   -2.1082   -1.3629 H   0  0  0  0  0  0  0  0  0  0  0  0
   -0.5219    3.1122    2.8061 H   0  0  0  0  0  0  0  0  0  0  0  0
    0.6022    4.0558    1.8368 H   0  0  0  0  0  0  0  0  0  0  0  0
   -0.6144    4.8898    2.8336 H   0  0  0  0  0  0  0  0  0  0  0  0
    4.6092    1.1564    1.7196 H   0  0  0  0  0  0  0  0  0  0  0  0
    4.4657   -0.8832   -2.0806 H   0  0  0  0  0  0  0  0  0  0  0  0
  1 18  1  0  0  0  0
  1 21  1  0  0  0  0
  2 18  2  0  0  0  0
  3 19  2  0  0  0  0
  4 13  1  0  0  0  0
  4 19  1  0  0  0  0
  4 49  1  0  0  0  0
  5 28  3  0  0  0  0
  6  7  1  0  0  0  0
  6  8  1  0  0  0  0
  6 10  1  0  0  0  0
  6 29  1  0  0  0  0
  7 12  1  0  0  0  0
  7 13  1  0  0  0  0
  7 30  1  0  0  0  0
  8  9  1  0  0  0  0
  8 31  1  0  0  0  0
  8 32  1  0  0  0  0
  9 11  1  0  0  0  0
  9 14  1  0  0  0  0
  9 33  1  0  0  0  0
 10 15  1  0  0  0  0
 10 16  1  0  0  0  0
 10 34  1  0  0  0  0
 11 12  2  0  0  0  0
 11 17  1  0  0  0  0
 12 35  1  0  0  0  0
 13 36  1  0  0  0  0
 13 37  1  0  0  0  0
 14 18  1  0  0  0  0
 14 38  1  0  0  0  0
 14 39  1  0  0  0  0
 15 40  1  0  0  0  0
 15 41  1  0  0  0  0
 15 42  1  0  0  0  0
 16 43  1  0  0  0  0
 16 44  1  0  0  0  0
 16 45  1  0  0  0  0
 17 46  1  0  0  0  0
 17 47  1  0  0  0  0
 17 48  1  0  0  0  0
 19 20  1  0  0  0  0
 20 22  2  0  0  0  0
 20 23  1  0  0  0  0
 21 24  1  0  0  0  0
 21 50  1  0  0  0  0
 21 51  1  0  0  0  0
 22 25  1  0  0  0  0
 22 52  1  0  0  0  0
 23 26  2  0  0  0  0
 23 53  1  0  0  0  0
 24 54  1  0  0  0  0
 24 55  1  0  0  0  0
 24 56  1  0  0  0  0
 25 27  2  0  0  0  0
 25 57  1  0  0  0  0
 26 27  1  0  0  0  0
 26 58  1  0  0  0  0
 27 28  1  0  0  0  0
M  END
> <PUBCHEM_COMPOUND_CID>
38029812

> <PUBCHEM_CONFORMER_RMSD>
1

> <PUBCHEM_CONFORMER_DIVERSEORDER>
1
20
80
67
94
58
34
50
64
86
35
33
8
69
26
41
27
39
84
82
5
29
91
54
7
36
87
60
76
56
40
22
30
15
83
25
43
77
4
9
88
61
6
13
2
46
3
55
90
37
21
16
23
11
71
63
48
65
52
95
97
53
51
72
18
14
68
17
57
66
93
73
49
81
32
47
12
75
92
78
10
96
19
62
44
24
59
45
38
31
70
42
28
85
74
79
89

> <PUBCHEM_MMFF94_PARTIAL_CHARGES>
28
1 -0.43
11 -0.28
12 -0.29
13 0.3
14 0.06
17 0.14
18 0.66
19 0.54
2 -0.57
20 0.09
21 0.28
22 -0.15
23 -0.15
25 -0.15
26 -0.15
27 0.07
28 0.48
3 -0.57
35 0.15
4 -0.73
49 0.37
5 -0.56
52 0.15
53 0.15
57 0.15
58 0.15
7 0.14
9 0.14

> <PUBCHEM_EFFECTIVE_ROTOR_COUNT>
9.8

> <PUBCHEM_PHARMACOPHORE_FEATURES>
7
1 2 acceptor
1 3 acceptor
1 4 donor
1 5 acceptor
3 10 15 16 hydrophobe
6 20 22 23 25 26 27 rings
6 6 7 8 9 11 12 rings

> <PUBCHEM_HEAVY_ATOM_COUNT>
28

> <PUBCHEM_ATOM_DEF_STEREO_COUNT>
3

> <PUBCHEM_ATOM_UDEF_STEREO_COUNT>
0

> <PUBCHEM_BOND_DEF_STEREO_COUNT>
0

> <PUBCHEM_BOND_UDEF_STEREO_COUNT>
0

> <PUBCHEM_ISOTOPIC_ATOM_COUNT>
0

> <PUBCHEM_COMPONENT_COUNT>
1

> <PUBCHEM_CACTVS_TAUTO_COUNT>
2

> <PUBCHEM_CONFORMER_ID>
024449F400000001

> <PUBCHEM_MMFF94_ENERGY>
54.1652

> <PUBCHEM_FEATURE_SELFOVERLAP>
35.522

> <PUBCHEM_SHAPE_FINGERPRINT>
10816530 145 18118978116061869562
12156800 1 17184254496249855593
12788726 201 18198889353868673413
13761468 95 17916320363436409928
13994607 96 18187078468597970279
14114207 22 14044087791518986988
14123250 116 18195804068374819704
14142880 1 17749390330310677567
14279260 333 18340209575867491806
21864079 5 18264759970254645102
22393880 68 15626226840642009502
23419403 2 17460024305394402807
35225 105 17980746156565359485
44062 13 14189579649820357502
460360 51 18265615369417250650
469060 322 16443361882854096540
57527306 92 18130803269271569451
57527585 21 18263907904603723549
6287921 2 17196279056006021426

> <PUBCHEM_SHAPE_MULTIPOLES>
548.66
9.56
4.19
2.97
19.33
5.24
-0.88
1.45
-1.47
-2.93
0.98
-3.08
-0.43
-0.16

> <PUBCHEM_SHAPE_SELFOVERLAP>
1130.688

> <PUBCHEM_SHAPE_VOLUME>
311.7

> <PUBCHEM_COORDINATE_TYPE>
2
5
10

$$$$
