75536653
  -OEChem-12032416323D

 36 36  0     1  0  0  0  0  0999 V2000
    4.1922    0.3829   -0.0617 S   0  0  0  0  0  0  0  0  0  0  0  0
    0.1191    0.9539    0.6719 O   0  0  0  0  0  0  0  0  0  0  0  0
   -1.0926   -2.3413   -0.0888 O   0  0  0  0  0  0  0  0  0  0  0  0
    5.2224    0.5591    0.9430 O   0  0  0  0  0  0  0  0  0  0  0  0
    3.8536    1.4585   -0.9738 O   0  0  0  0  0  0  0  0  0  0  0  0
   -3.1246   -0.0131   -0.6603 N   0  0  0  0  0  0  0  0  0  0  0  0
    2.7562   -0.1740    0.6726 N   0  0  0  0  0  0  0  0  0  0  0  0
   -1.9690   -0.0836    0.2191 C   0  0  1  0  0  0  0  0  0  0  0  0
   -0.8533   -0.9651   -0.3108 C   0  0  1  0  0  0  0  0  0  0  0  0
    0.3317   -0.4571    0.4993 C   0  0  1  0  0  0  0  0  0  0  0  0
   -1.2548    1.2500    0.3657 C   0  0  0  0  0  0  0  0  0  0  0  0
    1.6691   -0.6955   -0.1788 C   0  0  0  0  0  0  0  0  0  0  0  0
   -4.2765    0.5542    0.0305 C   0  0  0  0  0  0  0  0  0  0  0  0
   -5.2627    1.1049   -0.9946 C   0  0  0  0  0  0  0  0  0  0  0  0
   -4.9360   -0.5012    0.9137 C   0  0  0  0  0  0  0  0  0  0  0  0
    4.6253   -1.0324   -1.0471 C   0  0  0  0  0  0  0  0  0  0  0  0
   -2.2431   -0.4665    1.2099 H   0  0  0  0  0  0  0  0  0  0  0  0
   -0.6980   -0.8021   -1.3846 H   0  0  0  0  0  0  0  0  0  0  0  0
    0.3438   -0.9108    1.4993 H   0  0  0  0  0  0  0  0  0  0  0  0
   -1.2600    1.8297   -0.5645 H   0  0  0  0  0  0  0  0  0  0  0  0
   -1.6749    1.8720    1.1618 H   0  0  0  0  0  0  0  0  0  0  0  0
    1.6836   -0.1759   -1.1433 H   0  0  0  0  0  0  0  0  0  0  0  0
    1.8274   -1.7657   -0.3464 H   0  0  0  0  0  0  0  0  0  0  0  0
   -3.3539   -0.9416   -1.0137 H   0  0  0  0  0  0  0  0  0  0  0  0
   -3.9775    1.4016    0.6595 H   0  0  0  0  0  0  0  0  0  0  0  0
   -1.2321   -2.4779    0.8635 H   0  0  0  0  0  0  0  0  0  0  0  0
    2.8678   -0.6924    1.5541 H   0  0  0  0  0  0  0  0  0  0  0  0
   -6.1268    1.5581   -0.4968 H   0  0  0  0  0  0  0  0  0  0  0  0
   -4.7937    1.8774   -1.6143 H   0  0  0  0  0  0  0  0  0  0  0  0
   -5.6341    0.3169   -1.6595 H   0  0  0  0  0  0  0  0  0  0  0  0
   -5.8373   -0.0923    1.3848 H   0  0  0  0  0  0  0  0  0  0  0  0
   -4.2828   -0.8424    1.7220 H   0  0  0  0  0  0  0  0  0  0  0  0
   -5.2416   -1.3788    0.3324 H   0  0  0  0  0  0  0  0  0  0  0  0
    5.5886   -0.8260   -1.5198 H   0  0  0  0  0  0  0  0  0  0  0  0
    4.7176   -1.9037   -0.3959 H   0  0  0  0  0  0  0  0  0  0  0  0
    3.8711   -1.1918   -1.8188 H   0  0  0  0  0  0  0  0  0  0  0  0
  1  4  2  0  0  0  0
  1  5  2  0  0  0  0
  1  7  1  0  0  0  0
  1 16  1  0  0  0  0
  2 10  1  0  0  0  0
  2 11  1  0  0  0  0
  3  9  1  0  0  0  0
  3 26  1  0  0  0  0
  6  8  1  0  0  0  0
  6 13  1  0  0  0  0
  6 24  1  0  0  0  0
  7 12  1  0  0  0  0
  7 27  1  0  0  0  0
  8  9  1  0  0  0  0
  8 11  1  0  0  0  0
  8 17  1  0  0  0  0
  9 10  1  0  0  0  0
  9 18  1  0  0  0  0
 10 12  1  0  0  0  0
 10 19  1  0  0  0  0
 11 20  1  0  0  0  0
 11 21  1  0  0  0  0
 12 22  1  0  0  0  0
 12 23  1  0  0  0  0
 13 14  1  0  0  0  0
 13 15  1  0  0  0  0
 13 25  1  0  0  0  0
 14 28  1  0  0  0  0
 14 29  1  0  0  0  0
 14 30  1  0  0  0  0
 15 31  1  0  0  0  0
 15 32  1  0  0  0  0
 15 33  1  0  0  0  0
 16 34  1  0  0  0  0
 16 35  1  0  0  0  0
 16 36  1  0  0  0  0
M  END
> <PUBCHEM_COMPOUND_CID>
75536653

> <PUBCHEM_CONFORMER_RMSD>
0.8

> <PUBCHEM_CONFORMER_DIVERSEORDER>
1
76
71
24
105
89
32
103
68
66
16
54
59
40
100
77
84
3
22
96
39
72
95
56
88
52
51
50
65
17
91
101
27
99
57
7
23
36
41
9
102
42
94
85
63
53
21
69
12
83
93
15
87
58
79
81
48
80
104
74
28
92
10
29
49
64
37
19
44
14
67
82
33
43
6
62
47
11
34
25
46
26
45
73
55
38
31
86
60
70
4
18
97
98
2
75
20
78
30
61
13
35
8
90
5

> <PUBCHEM_MMFF94_PARTIAL_CHARGES>
17
1 1.33
10 0.28
11 0.28
12 0.36
13 0.27
16 0.11
2 -0.56
24 0.36
26 0.4
27 0.42
3 -0.68
4 -0.65
5 -0.65
6 -0.9
7 -0.91
8 0.27
9 0.28

> <PUBCHEM_EFFECTIVE_ROTOR_COUNT>
6

> <PUBCHEM_PHARMACOPHORE_FEATURES>
10
1 2 acceptor
1 3 acceptor
1 3 donor
1 4 acceptor
1 5 acceptor
1 6 cation
1 6 donor
1 7 donor
3 13 14 15 hydrophobe
5 2 8 9 10 11 rings

> <PUBCHEM_HEAVY_ATOM_COUNT>
16

> <PUBCHEM_ATOM_DEF_STEREO_COUNT>
3

> <PUBCHEM_ATOM_UDEF_STEREO_COUNT>
0

> <PUBCHEM_BOND_DEF_STEREO_COUNT>
0

> <PUBCHEM_BOND_UDEF_STEREO_COUNT>
0

> <PUBCHEM_ISOTOPIC_ATOM_COUNT>
0

> <PUBCHEM_COMPONENT_COUNT>
1

> <PUBCHEM_CACTVS_TAUTO_COUNT>
1

> <PUBCHEM_CONFORMER_ID>
0480990D00000001

> <PUBCHEM_MMFF94_ENERGY>
18.596

> <PUBCHEM_FEATURE_SELFOVERLAP>
50.764

> <PUBCHEM_SHAPE_FINGERPRINT>
11287383 113 17968100845238052713
11401426 45 18273208707690994977
12670543 26 18130504120267188253
13533116 47 17846218800858673806
14123238 8 16442785730308383331
14251718 22 14045737144870201776
14911166 2 18201715158944435641
14943859 89 18342174475095043771
15048467 5 17312820447031469061
17834072 33 15936416666611307235
187816 3 17917710197398791241
200 152 15482670178032885659
20279233 1 17418379121143816878
20645477 56 18411976992470086768
20645477 70 16558757776469330358
20871999 31 18199465639495082598
212847 35 16732703844430387732
23402539 116 18342166778481806253
23402655 69 18130781218914791213
23559900 14 18202003244440336798
265663 24 16153427255189611363
293599 30 18411697665029745625
3545911 37 18413110572195114598
366044 4 18412542111287345899
3759504 43 18113336431689931195
42 15 10087643693324182292
4340502 62 17022624156778926419
465052 167 9367341569815985984
4990 188 16343985797126896116
537710 114 18412547617335179600
542803 24 15719396122430439516

> <PUBCHEM_SHAPE_MULTIPOLES>
299.68
11.97
1.45
0.98
1.21
0.35
0.07
-2.54
1.33
0
0.17
0.08
-0.09
0.68

> <PUBCHEM_SHAPE_SELFOVERLAP>
571.149

> <PUBCHEM_SHAPE_VOLUME>
187.2

> <PUBCHEM_COORDINATE_TYPE>
2
5
10

$$$$
