26744052
  -OEChem-12032416183D

 49 52  0     1  0  0  0  0  0999 V2000
   -1.9767   -0.3998    0.1676 S   0  0  0  0  0  0  0  0  0  0  0  0
    5.6329    2.3636   -1.9066 O   0  0  0  0  0  0  0  0  0  0  0  0
    1.7510    0.9600    2.3231 O   0  0  0  0  0  0  0  0  0  0  0  0
   -1.8325   -1.3733    1.2337 O   0  0  0  0  0  0  0  0  0  0  0  0
   -1.3315   -0.6107   -1.1146 O   0  0  0  0  0  0  0  0  0  0  0  0
    3.7655   -0.2260   -0.3009 N   0  0  1  0  0  0  0  0  0  0  0  0
    0.9488    1.0610    0.2343 N   0  0  0  0  0  0  0  0  0  0  0  0
    0.3574    1.0302    2.4441 N   0  0  0  0  0  0  0  0  0  0  0  0
    3.8164   -2.6583   -0.4430 C   0  0  0  0  0  0  0  0  0  0  0  0
    2.4153   -3.1448   -0.6700 C   0  0  0  0  0  0  0  0  0  0  0  0
    3.3558   -3.9399    0.1872 C   0  0  0  0  0  0  0  0  0  0  0  0
    4.0431   -1.4605    0.4213 C   0  0  0  0  0  0  0  0  0  0  0  0
    3.4731    0.9161    0.5890 C   0  0  1  0  0  0  0  0  0  0  0  0
    4.8877    0.1828   -1.1437 C   0  0  0  0  0  0  0  0  0  0  0  0
    3.9322    2.1571   -0.1991 C   0  0  0  0  0  0  0  0  0  0  0  0
    4.5093    1.6081   -1.4980 C   0  0  1  0  0  0  0  0  0  0  0  0
    2.0147    0.9838    0.9904 C   0  0  0  0  0  0  0  0  0  0  0  0
   -0.0436    1.0869    1.1706 C   0  0  0  0  0  0  0  0  0  0  0  0
   -1.4620    1.1706    0.8052 C   0  0  0  0  0  0  0  0  0  0  0  0
   -3.7014   -0.1833   -0.1479 C   0  0  0  0  0  0  0  0  0  0  0  0
   -4.1299    0.2749   -1.3939 C   0  0  0  0  0  0  0  0  0  0  0  0
   -4.6342   -0.4676    0.8493 C   0  0  0  0  0  0  0  0  0  0  0  0
   -5.4913    0.4486   -1.6424 C   0  0  0  0  0  0  0  0  0  0  0  0
   -5.9957   -0.2938    0.6007 C   0  0  0  0  0  0  0  0  0  0  0  0
   -6.4243    0.1642   -0.6451 C   0  0  0  0  0  0  0  0  0  0  0  0
   -7.8800    0.3499   -0.9111 C   0  0  0  0  0  0  0  0  0  0  0  0
    4.5247   -2.7377   -1.2588 H   0  0  0  0  0  0  0  0  0  0  0  0
    2.1712   -3.5368   -1.6498 H   0  0  0  0  0  0  0  0  0  0  0  0
    1.5977   -2.6313   -0.1784 H   0  0  0  0  0  0  0  0  0  0  0  0
    3.1692   -3.9617    1.2537 H   0  0  0  0  0  0  0  0  0  0  0  0
    3.7427   -4.8677   -0.2167 H   0  0  0  0  0  0  0  0  0  0  0  0
    5.0632   -1.4775    0.8257 H   0  0  0  0  0  0  0  0  0  0  0  0
    3.3771   -1.5325    1.2917 H   0  0  0  0  0  0  0  0  0  0  0  0
    4.0892    0.8571    1.4976 H   0  0  0  0  0  0  0  0  0  0  0  0
    4.9831   -0.4323   -2.0445 H   0  0  0  0  0  0  0  0  0  0  0  0
    5.8497    0.1593   -0.6147 H   0  0  0  0  0  0  0  0  0  0  0  0
    3.1226    2.8645   -0.4121 H   0  0  0  0  0  0  0  0  0  0  0  0
    4.6969    2.7035    0.3672 H   0  0  0  0  0  0  0  0  0  0  0  0
    3.7555    1.6242   -2.2948 H   0  0  0  0  0  0  0  0  0  0  0  0
    5.3352    3.2792   -2.0433 H   0  0  0  0  0  0  0  0  0  0  0  0
   -1.6224    1.9234    0.0280 H   0  0  0  0  0  0  0  0  0  0  0  0
   -2.0897    1.4080    1.6695 H   0  0  0  0  0  0  0  0  0  0  0  0
   -3.4203    0.5093   -2.1822 H   0  0  0  0  0  0  0  0  0  0  0  0
   -4.3211   -0.8190    1.8284 H   0  0  0  0  0  0  0  0  0  0  0  0
   -5.8130    0.8061   -2.6170 H   0  0  0  0  0  0  0  0  0  0  0  0
   -6.7129   -0.5189    1.3856 H   0  0  0  0  0  0  0  0  0  0  0  0
   -8.3088   -0.5729   -1.3143 H   0  0  0  0  0  0  0  0  0  0  0  0
   -8.4183    0.6161    0.0050 H   0  0  0  0  0  0  0  0  0  0  0  0
   -8.0505    1.1593   -1.6291 H   0  0  0  0  0  0  0  0  0  0  0  0
  1  4  2  0  0  0  0
  1  5  2  0  0  0  0
  1 19  1  0  0  0  0
  1 20  1  0  0  0  0
  2 16  1  0  0  0  0
  2 40  1  0  0  0  0
  3  8  1  0  0  0  0
  3 17  1  0  0  0  0
  6 12  1  0  0  0  0
  6 13  1  0  0  0  0
  6 14  1  0  0  0  0
  7 17  2  0  0  0  0
  7 18  1  0  0  0  0
  8 18  2  0  0  0  0
  9 10  1  0  0  0  0
  9 11  1  0  0  0  0
  9 12  1  0  0  0  0
  9 27  1  0  0  0  0
 10 11  1  0  0  0  0
 10 28  1  0  0  0  0
 10 29  1  0  0  0  0
 11 30  1  0  0  0  0
 11 31  1  0  0  0  0
 12 32  1  0  0  0  0
 12 33  1  0  0  0  0
 13 15  1  0  0  0  0
 13 17  1  0  0  0  0
 13 34  1  0  0  0  0
 14 16  1  0  0  0  0
 14 35  1  0  0  0  0
 14 36  1  0  0  0  0
 15 16  1  0  0  0  0
 15 37  1  0  0  0  0
 15 38  1  0  0  0  0
 16 39  1  0  0  0  0
 18 19  1  0  0  0  0
 19 41  1  0  0  0  0
 19 42  1  0  0  0  0
 20 21  2  0  0  0  0
 20 22  1  0  0  0  0
 21 23  1  0  0  0  0
 21 43  1  0  0  0  0
 22 24  2  0  0  0  0
 22 44  1  0  0  0  0
 23 25  2  0  0  0  0
 23 45  1  0  0  0  0
 24 25  1  0  0  0  0
 24 46  1  0  0  0  0
 25 26  1  0  0  0  0
 26 47  1  0  0  0  0
 26 48  1  0  0  0  0
 26 49  1  0  0  0  0
M  END
> <PUBCHEM_COMPOUND_CID>
26744052

> <PUBCHEM_CONFORMER_RMSD>
1

> <PUBCHEM_CONFORMER_DIVERSEORDER>
1
124
97
75
109
120
54
95
21
66
112
129
135
11
5
116
125
103
48
139
82
78
84
157
71
65
122
22
88
24
56
19
87
117
27
121
147
141
90
77
81
150
92
118
53
110
69
145
36
34
107
29
58
8
47
133
131
61
38
73
23
13
16
138
39
111
113
148
102
86
3
33
62
20
106
76
80
28
127
44
32
142
42
51
46
50
10
108
143
35
9
2
18
114
104
55
99
17
7
123
14
146
37
45
115
63
105
89
43
85
31
98
79
151
158
6
30
134
100
74
25
153
60
152
64
96
15
101
94
140
68
91
49
144
70
57
67
83
40
156
149
59
136
4
126
26
130
137
119
155
52
128
41
12
154
72
93
132

> <PUBCHEM_MMFF94_PARTIAL_CHARGES>
35
1 1.2
10 -0.2
11 -0.2
12 0.37
13 0.45
14 0.27
16 0.28
17 0.3
18 0.34
19 0.29
2 -0.68
20 -0.01
21 -0.15
22 -0.15
23 -0.15
24 -0.15
25 -0.14
26 0.14
27 0.1
28 0.1
29 0.1
3 -0.02
30 0.1
31 0.1
4 -0.65
40 0.4
43 0.15
44 0.15
45 0.15
46 0.15
5 -0.65
6 -0.81
7 -0.57
8 -0.41
9 -0.19

> <PUBCHEM_EFFECTIVE_ROTOR_COUNT>
7.6

> <PUBCHEM_PHARMACOPHORE_FEATURES>
9
1 2 acceptor
1 2 donor
1 4 acceptor
1 5 acceptor
1 6 cation
3 7 8 18 cation
5 3 7 8 17 18 rings
5 6 13 14 15 16 rings
6 20 21 22 23 24 25 rings

> <PUBCHEM_HEAVY_ATOM_COUNT>
26

> <PUBCHEM_ATOM_DEF_STEREO_COUNT>
2

> <PUBCHEM_ATOM_UDEF_STEREO_COUNT>
0

> <PUBCHEM_BOND_DEF_STEREO_COUNT>
0

> <PUBCHEM_BOND_UDEF_STEREO_COUNT>
0

> <PUBCHEM_ISOTOPIC_ATOM_COUNT>
0

> <PUBCHEM_COMPONENT_COUNT>
1

> <PUBCHEM_CACTVS_TAUTO_COUNT>
1

> <PUBCHEM_CONFORMER_ID>
019814F400000001

> <PUBCHEM_MMFF94_ENERGY>
43.5016

> <PUBCHEM_FEATURE_SELFOVERLAP>
45.689

> <PUBCHEM_SHAPE_FINGERPRINT>
10673678 19 18043262421021281596
11069576 57 18200596882984969390
11135609 127 18265326382084147524
11719270 70 18409445904424790594
11796584 16 16773505672727699687
12788726 201 17488757687151921843
13150687 139 18270134517284857116
13533116 47 18341895160418278807
13540713 5 17985845734813624208
14347332 77 17987791918040464705
14675020 138 18200015348876142418
14931854 50 18200610133053483862
15119646 104 18271526399118839650
15183329 4 17489588953146549833
15188451 53 13470696935983812253
15324115 91 18408327679165667558
15352257 5 18410577319017445907
15537594 2 18060701710160663823
17134984 74 18271241724349451111
17349148 13 15410619224404742073
17857418 61 17775277245186900891
18222031 100 15913335714310748152
19319366 153 18343015597665311206
20567600 75 18334011675670407783
20645477 70 18335143077045345250
20721686 124 17676202469039042050
21285901 2 18187078408383850404
21304303 94 18335699421049499986
22061861 79 18335980892126342463
23522609 53 17915769563914334537
23559900 14 18339359768188024208
24771750 20 17318752518253751925
25147074 1 17916315952420335201
27425 322 16805608139219560882
3004659 81 18337388249724622618
3014965 18 18342731876515052247
345986 75 17417524692617973651
3472631 163 16733269057457021228
34797466 226 17748827419376088405
4098825 35 18188491272204069709
46194498 28 18113334176979203132
463206 1 17988350542186696614
513532 50 16660647332740230802
5951187 136 15647355047348923102
59682541 52 18409722933545685205
6025842 7 18409169918083780014
960060 61 18272651263933191364

> <PUBCHEM_SHAPE_MULTIPOLES>
500.5
16.72
2.86
1.74
23.91
2.99
0.3
-1.29
-7.9
-6.96
-0.35
-0.34
-0.84
-0.49

> <PUBCHEM_SHAPE_SELFOVERLAP>
1049.92

> <PUBCHEM_SHAPE_VOLUME>
285.6

> <PUBCHEM_COORDINATE_TYPE>
2
5
10

$$$$
