28961245
  -OEChem-12032416413D

 68 72  0     1  0  0  0  0  0999 V2000
    7.0640    3.2958   -0.4826 F   0  0  0  0  0  0  0  0  0  0  0  0
    2.7138   -5.5632    1.2213 F   0  0  0  0  0  0  0  0  0  0  0  0
    0.4794   -0.4395   -1.9269 O   0  0  0  0  0  0  0  0  0  0  0  0
   -1.8256   -2.0546   -0.9039 O   0  0  0  0  0  0  0  0  0  0  0  0
    1.4356   -2.5969   -3.4554 O   0  0  0  0  0  0  0  0  0  0  0  0
   -2.7815    0.6375   -0.6022 N   0  0  1  0  0  0  0  0  0  0  0  0
    1.4343    0.5979    0.5521 N   0  0  0  0  0  0  0  0  0  0  0  0
   -1.7649    0.2786   -1.5902 C   0  0  1  0  0  0  0  0  0  0  0  0
   -0.3060    0.5152   -1.1789 C   0  0  1  0  0  0  0  0  0  0  0  0
   -1.7669   -1.1796   -2.0228 C   0  0  1  0  0  0  0  0  0  0  0  0
   -0.4048   -1.2737   -2.7000 C   0  0  2  0  0  0  0  0  0  0  0  0
    0.0288    0.3195    0.2955 C   0  0  0  0  0  0  0  0  0  0  0  0
   -2.9881    2.0905   -0.5712 C   0  0  0  0  0  0  0  0  0  0  0  0
   -4.0504   -0.0511   -0.8979 C   0  0  0  0  0  0  0  0  0  0  0  0
    0.1815   -2.6703   -2.7965 C   0  0  0  0  0  0  0  0  0  0  0  0
   -3.8956    2.4623    0.6060 C   0  0  0  0  0  0  0  0  0  0  0  0
   -5.1876    0.3788    0.0002 C   0  0  0  0  0  0  0  0  0  0  0  0
   -5.1315    1.6046    0.6857 C   0  0  0  0  0  0  0  0  0  0  0  0
    1.6772    2.0418    0.5940 C   0  0  0  0  0  0  0  0  0  0  0  0
    1.8648   -0.0238    1.8068 C   0  0  0  0  0  0  0  0  0  0  0  0
   -6.3358   -0.4181    0.1036 C   0  0  0  0  0  0  0  0  0  0  0  0
   -6.2071    1.9974    1.4925 C   0  0  0  0  0  0  0  0  0  0  0  0
    3.1166    2.3767    0.3063 C   0  0  0  0  0  0  0  0  0  0  0  0
    2.0917   -1.5039    1.6502 C   0  0  0  0  0  0  0  0  0  0  0  0
   -7.4055   -0.0139    0.9019 C   0  0  0  0  0  0  0  0  0  0  0  0
   -7.3403    1.1914    1.5974 C   0  0  0  0  0  0  0  0  0  0  0  0
    3.6956    3.5113    0.8750 C   0  0  0  0  0  0  0  0  0  0  0  0
    1.8879   -2.3589    2.7333 C   0  0  0  0  0  0  0  0  0  0  0  0
    3.8713    1.5528   -0.5288 C   0  0  0  0  0  0  0  0  0  0  0  0
    2.5056   -2.0204    0.4223 C   0  0  0  0  0  0  0  0  0  0  0  0
    5.0289    3.8221    0.6084 C   0  0  0  0  0  0  0  0  0  0  0  0
    2.0983   -3.7301    2.5887 C   0  0  0  0  0  0  0  0  0  0  0  0
    5.2046    1.8636   -0.7955 C   0  0  0  0  0  0  0  0  0  0  0  0
    2.7160   -3.3916    0.2776 C   0  0  0  0  0  0  0  0  0  0  0  0
    5.7834    2.9982   -0.2269 C   0  0  0  0  0  0  0  0  0  0  0  0
    2.5124   -4.2465    1.3608 C   0  0  0  0  0  0  0  0  0  0  0  0
   -1.9415    0.8563   -2.5121 H   0  0  0  0  0  0  0  0  0  0  0  0
   -0.0162    1.5133   -1.5220 H   0  0  0  0  0  0  0  0  0  0  0  0
   -2.5760   -1.4431   -2.7109 H   0  0  0  0  0  0  0  0  0  0  0  0
   -0.4454   -0.8188   -3.6981 H   0  0  0  0  0  0  0  0  0  0  0  0
   -0.2026   -0.7083    0.5817 H   0  0  0  0  0  0  0  0  0  0  0  0
   -0.6028    0.9554    0.9290 H   0  0  0  0  0  0  0  0  0  0  0  0
   -3.4317    2.4426   -1.5128 H   0  0  0  0  0  0  0  0  0  0  0  0
   -2.0377    2.6225   -0.4446 H   0  0  0  0  0  0  0  0  0  0  0  0
   -3.9537   -1.1296   -0.7473 H   0  0  0  0  0  0  0  0  0  0  0  0
   -4.3617    0.1304   -1.9356 H   0  0  0  0  0  0  0  0  0  0  0  0
   -0.4779   -3.3314   -3.3670 H   0  0  0  0  0  0  0  0  0  0  0  0
    0.3664   -3.1078   -1.8120 H   0  0  0  0  0  0  0  0  0  0  0  0
   -4.1804    3.5170    0.5127 H   0  0  0  0  0  0  0  0  0  0  0  0
   -3.3399    2.3471    1.5454 H   0  0  0  0  0  0  0  0  0  0  0  0
   -0.9485   -2.1293   -0.4992 H   0  0  0  0  0  0  0  0  0  0  0  0
    1.3701    2.4554    1.5647 H   0  0  0  0  0  0  0  0  0  0  0  0
    1.0976    2.5843   -0.1608 H   0  0  0  0  0  0  0  0  0  0  0  0
    1.1398    0.1763    2.6077 H   0  0  0  0  0  0  0  0  0  0  0  0
    2.8254    0.3869    2.1446 H   0  0  0  0  0  0  0  0  0  0  0  0
   -6.4027   -1.3582   -0.4382 H   0  0  0  0  0  0  0  0  0  0  0  0
   -6.1666    2.9335    2.0436 H   0  0  0  0  0  0  0  0  0  0  0  0
    1.7881   -3.5020   -3.5023 H   0  0  0  0  0  0  0  0  0  0  0  0
   -8.2902   -0.6390    0.9805 H   0  0  0  0  0  0  0  0  0  0  0  0
   -8.1724    1.5037    2.2218 H   0  0  0  0  0  0  0  0  0  0  0  0
    3.1177    4.1618    1.5260 H   0  0  0  0  0  0  0  0  0  0  0  0
    1.5668   -1.9686    3.6953 H   0  0  0  0  0  0  0  0  0  0  0  0
    3.4455    0.6839   -1.0190 H   0  0  0  0  0  0  0  0  0  0  0  0
    2.6891   -1.3904   -0.4407 H   0  0  0  0  0  0  0  0  0  0  0  0
    5.4800    4.7054    1.0507 H   0  0  0  0  0  0  0  0  0  0  0  0
    1.9400   -4.3961    3.4318 H   0  0  0  0  0  0  0  0  0  0  0  0
    5.7904    1.2271   -1.4521 H   0  0  0  0  0  0  0  0  0  0  0  0
    3.0401   -3.7939   -0.6777 H   0  0  0  0  0  0  0  0  0  0  0  0
  1 35  1  0  0  0  0
  2 36  1  0  0  0  0
  3  9  1  0  0  0  0
  3 11  1  0  0  0  0
  4 10  1  0  0  0  0
  4 51  1  0  0  0  0
  5 15  1  0  0  0  0
  5 58  1  0  0  0  0
  6  8  1  0  0  0  0
  6 13  1  0  0  0  0
  6 14  1  0  0  0  0
  7 12  1  0  0  0  0
  7 19  1  0  0  0  0
  7 20  1  0  0  0  0
  8  9  1  0  0  0  0
  8 10  1  0  0  0  0
  8 37  1  0  0  0  0
  9 12  1  0  0  0  0
  9 38  1  0  0  0  0
 10 11  1  0  0  0  0
 10 39  1  0  0  0  0
 11 15  1  0  0  0  0
 11 40  1  0  0  0  0
 12 41  1  0  0  0  0
 12 42  1  0  0  0  0
 13 16  1  0  0  0  0
 13 43  1  0  0  0  0
 13 44  1  0  0  0  0
 14 17  1  0  0  0  0
 14 45  1  0  0  0  0
 14 46  1  0  0  0  0
 15 47  1  0  0  0  0
 15 48  1  0  0  0  0
 16 18  1  0  0  0  0
 16 49  1  0  0  0  0
 16 50  1  0  0  0  0
 17 18  1  0  0  0  0
 17 21  2  0  0  0  0
 18 22  2  0  0  0  0
 19 23  1  0  0  0  0
 19 52  1  0  0  0  0
 19 53  1  0  0  0  0
 20 24  1  0  0  0  0
 20 54  1  0  0  0  0
 20 55  1  0  0  0  0
 21 25  1  0  0  0  0
 21 56  1  0  0  0  0
 22 26  1  0  0  0  0
 22 57  1  0  0  0  0
 23 27  2  0  0  0  0
 23 29  1  0  0  0  0
 24 28  2  0  0  0  0
 24 30  1  0  0  0  0
 25 26  2  0  0  0  0
 25 59  1  0  0  0  0
 26 60  1  0  0  0  0
 27 31  1  0  0  0  0
 27 61  1  0  0  0  0
 28 32  1  0  0  0  0
 28 62  1  0  0  0  0
 29 33  2  0  0  0  0
 29 63  1  0  0  0  0
 30 34  2  0  0  0  0
 30 64  1  0  0  0  0
 31 35  2  0  0  0  0
 31 65  1  0  0  0  0
 32 36  2  0  0  0  0
 32 66  1  0  0  0  0
 33 35  1  0  0  0  0
 33 67  1  0  0  0  0
 34 36  1  0  0  0  0
 34 68  1  0  0  0  0
M  END
> <PUBCHEM_COMPOUND_CID>
28961245

> <PUBCHEM_CONFORMER_RMSD>
1

> <PUBCHEM_CONFORMER_DIVERSEORDER>
1
6
108
8
131
87
119
109
37
129
84
78
38
126
20
69
110
92
115
127
100
135
66
54
95
77
85
105
128
46
140
73
35
4
86
60
107
72
2
12
31
123
63
74
45
89
130
33
121
80
111
59
28
26
81
102
75
68
67
88
141
118
24
132
14
97
40
41
113
57
61
34
36
125
103
90
133
120
101
76
30
112
29
62
70
134
96
11
136
52
137
83
99
17
139
93
91
114
122
106
7
94
48
23
18
55
124
65
47
138
10
32
79
39
82
44
19
49
98
42
50
21
43
117
116
9
15
104
71
64
22
56
13
5
25
27
53
58
51
3
16

> <PUBCHEM_MMFF94_PARTIAL_CHARGES>
50
1 -0.19
10 0.28
11 0.28
12 0.27
13 0.27
14 0.41
15 0.28
16 0.14
17 -0.14
18 -0.14
19 0.41
2 -0.19
20 0.41
21 -0.15
22 -0.15
23 -0.14
24 -0.14
25 -0.15
26 -0.15
27 -0.15
28 -0.15
29 -0.15
3 -0.56
30 -0.15
31 -0.15
32 -0.15
33 -0.15
34 -0.15
35 0.19
36 0.19
4 -0.68
5 -0.68
51 0.4
56 0.15
57 0.15
58 0.4
59 0.15
6 -0.81
60 0.15
61 0.15
62 0.15
63 0.15
64 0.15
65 0.15
66 0.15
67 0.15
68 0.15
7 -0.81
8 0.27
9 0.28

> <PUBCHEM_EFFECTIVE_ROTOR_COUNT>
9.8

> <PUBCHEM_PHARMACOPHORE_FEATURES>
12
1 3 acceptor
1 4 acceptor
1 4 donor
1 5 acceptor
1 5 donor
1 6 cation
1 7 cation
5 3 8 9 10 11 rings
6 17 18 21 22 25 26 rings
6 23 27 29 31 33 35 rings
6 24 28 30 32 34 36 rings
6 6 13 14 16 17 18 rings

> <PUBCHEM_HEAVY_ATOM_COUNT>
36

> <PUBCHEM_ATOM_DEF_STEREO_COUNT>
4

> <PUBCHEM_ATOM_UDEF_STEREO_COUNT>
0

> <PUBCHEM_BOND_DEF_STEREO_COUNT>
0

> <PUBCHEM_BOND_UDEF_STEREO_COUNT>
0

> <PUBCHEM_ISOTOPIC_ATOM_COUNT>
0

> <PUBCHEM_COMPONENT_COUNT>
1

> <PUBCHEM_CACTVS_TAUTO_COUNT>
1

> <PUBCHEM_CONFORMER_ID>
01B9E9DD00000001

> <PUBCHEM_MMFF94_ENERGY>
105.6227

> <PUBCHEM_FEATURE_SELFOVERLAP>
60.924

> <PUBCHEM_SHAPE_FINGERPRINT>
10010297 198 18335693919348802509
10674148 151 18201161061821470940
11763715 3 17317063346143742237
1200032 147 18059308624749433105
12047536 79 18266757796764450089
12156800 1 17316795318773191878
12422481 6 17055530194852204043
13540713 4 17242153687857837101
14400156 147 15506294091636251074
15219462 58 17970936400101528897
15406563 42 18042131010497156131
15444296 121 17473539157776173601
16090146 7 17682100416344106958
16114785 44 17836083751322846304
16628084 112 18262231116067050652
19319366 153 18337665412343379416
20505436 4 18272651289571120141
21365058 27 18188776170839336160
21772528 278 18264772249450229924
27425 322 18193282008097728348
3411729 13 18341901783315748301
38570 142 18340772640819795488
437795 51 18260277330383936642
4516262 110 18336818784190223525
469060 322 14997948393968943994
508180 173 12678919925541033299
563151 40 18265899240552623678
563151 74 18260832622215484649
57527293 21 18342456986119040149
5912855 24 18340477980794814887
59755656 520 18042678589321877928
6523845 18 17530963597274869828
6703917 75 18117293638589549812
86090 222 16878234061047743729
9896288 288 18123471849933563347

> <PUBCHEM_SHAPE_MULTIPOLES>
698.75
15.28
5.66
2.63
20.46
4.28
-1.17
-15.16
5.85
-11.64
2.3
-0.45
3.04
-2.87

> <PUBCHEM_SHAPE_SELFOVERLAP>
1511.077

> <PUBCHEM_SHAPE_VOLUME>
383.8

> <PUBCHEM_COORDINATE_TYPE>
2
5
10

$$$$
