38027614
  -OEChem-12032416253D

 63 64  0     1  0  0  0  0  0999 V2000
    2.6952    0.9368   -1.2395 S   0  0  0  0  0  0  0  0  0  0  0  0
   -4.7348   -1.4501   -0.3964 O   0  0  0  0  0  0  0  0  0  0  0  0
    2.3431    2.2434   -0.7171 O   0  0  0  0  0  0  0  0  0  0  0  0
    2.6011    0.6704   -2.6620 O   0  0  0  0  0  0  0  0  0  0  0  0
   -5.5652    1.4548   -0.1758 O   0  0  0  0  0  0  0  0  0  0  0  0
    1.8308   -0.2600   -0.3890 N   0  0  0  0  0  0  0  0  0  0  0  0
   -3.9306   -0.0054   -2.0295 N   0  0  0  0  0  0  0  0  0  0  0  0
   -0.6044    0.0758    1.3246 C   0  0  1  0  0  0  0  0  0  0  0  0
    0.5766   -0.8828    1.6180 C   0  0  1  0  0  0  0  0  0  0  0  0
   -1.9436   -0.6623    1.4724 C   0  0  0  0  0  0  0  0  0  0  0  0
   -2.0498   -1.8720    0.5246 C   0  0  2  0  0  0  0  0  0  0  0  0
   -0.5837    1.3016    2.2431 C   0  0  0  0  0  0  0  0  0  0  0  0
   -0.7988   -2.7262    0.5596 C   0  0  0  0  0  0  0  0  0  0  0  0
    0.3621   -2.2719    1.0642 C   0  0  0  0  0  0  0  0  0  0  0  0
    1.8956   -0.3165    1.0797 C   0  0  0  0  0  0  0  0  0  0  0  0
   -2.3699   -1.4260   -0.9064 C   0  0  0  0  0  0  0  0  0  0  0  0
   -1.3215    2.4671    1.5920 C   0  0  0  0  0  0  0  0  0  0  0  0
   -1.1974    0.9618    3.5976 C   0  0  0  0  0  0  0  0  0  0  0  0
   -0.9244   -4.1323    0.0424 C   0  0  0  0  0  0  0  0  0  0  0  0
   -3.8088   -0.9866   -1.0566 C   0  0  0  0  0  0  0  0  0  0  0  0
    4.3601    0.5883   -0.7582 C   0  0  0  0  0  0  0  0  0  0  0  0
   -5.1934    0.5992   -2.3868 C   0  0  0  0  0  0  0  0  0  0  0  0
    5.1315   -0.2996   -1.5080 C   0  0  0  0  0  0  0  0  0  0  0  0
    4.9022    1.2008    0.3715 C   0  0  0  0  0  0  0  0  0  0  0  0
   -5.4809    1.8290   -1.5448 C   0  0  0  0  0  0  0  0  0  0  0  0
    6.4451   -0.5752   -1.1279 C   0  0  0  0  0  0  0  0  0  0  0  0
    6.2158    0.9255    0.7516 C   0  0  0  0  0  0  0  0  0  0  0  0
    6.9871    0.0374    0.0019 C   0  0  0  0  0  0  0  0  0  0  0  0
   -5.8393    2.5748    0.6548 C   0  0  0  0  0  0  0  0  0  0  0  0
   -0.5214    0.4275    0.2892 H   0  0  0  0  0  0  0  0  0  0  0  0
    0.6919   -1.0009    2.7028 H   0  0  0  0  0  0  0  0  0  0  0  0
   -2.7920    0.0114    1.3094 H   0  0  0  0  0  0  0  0  0  0  0  0
   -2.0532   -1.0689    2.4860 H   0  0  0  0  0  0  0  0  0  0  0  0
   -2.8750   -2.4913    0.9022 H   0  0  0  0  0  0  0  0  0  0  0  0
    0.4447    1.6361    2.4130 H   0  0  0  0  0  0  0  0  0  0  0  0
    1.2161   -2.9453    1.1067 H   0  0  0  0  0  0  0  0  0  0  0  0
    2.7287   -0.9704    1.3640 H   0  0  0  0  0  0  0  0  0  0  0  0
    2.0980    0.6716    1.4989 H   0  0  0  0  0  0  0  0  0  0  0  0
   -2.2456   -2.2545   -1.6142 H   0  0  0  0  0  0  0  0  0  0  0  0
   -1.6864   -0.6360   -1.2357 H   0  0  0  0  0  0  0  0  0  0  0  0
   -2.3774    2.2427    1.4115 H   0  0  0  0  0  0  0  0  0  0  0  0
   -0.8630    2.7341    0.6336 H   0  0  0  0  0  0  0  0  0  0  0  0
   -1.2789    3.3536    2.2343 H   0  0  0  0  0  0  0  0  0  0  0  0
   -2.2863    0.8517    3.5610 H   0  0  0  0  0  0  0  0  0  0  0  0
   -1.0053    1.7857    4.2961 H   0  0  0  0  0  0  0  0  0  0  0  0
   -0.7585    0.0669    4.0483 H   0  0  0  0  0  0  0  0  0  0  0  0
   -1.7337   -4.6569    0.5606 H   0  0  0  0  0  0  0  0  0  0  0  0
   -0.0074   -4.7108    0.1983 H   0  0  0  0  0  0  0  0  0  0  0  0
   -1.1359   -4.1384   -1.0306 H   0  0  0  0  0  0  0  0  0  0  0  0
    1.6662   -1.1525   -0.8705 H   0  0  0  0  0  0  0  0  0  0  0  0
   -3.1042    0.3154   -2.5251 H   0  0  0  0  0  0  0  0  0  0  0  0
   -5.9848   -0.1457   -2.2491 H   0  0  0  0  0  0  0  0  0  0  0  0
   -5.1428    0.8653   -3.4470 H   0  0  0  0  0  0  0  0  0  0  0  0
    4.7274   -0.7936   -2.3870 H   0  0  0  0  0  0  0  0  0  0  0  0
    4.3191    1.8935    0.9715 H   0  0  0  0  0  0  0  0  0  0  0  0
   -6.4291    2.2772   -1.8629 H   0  0  0  0  0  0  0  0  0  0  0  0
   -4.6799    2.5673   -1.6711 H   0  0  0  0  0  0  0  0  0  0  0  0
    7.0453   -1.2680   -1.7104 H   0  0  0  0  0  0  0  0  0  0  0  0
    6.6378    1.4018    1.6318 H   0  0  0  0  0  0  0  0  0  0  0  0
    8.0097   -0.1775    0.2983 H   0  0  0  0  0  0  0  0  0  0  0  0
   -5.8925    2.2295    1.6907 H   0  0  0  0  0  0  0  0  0  0  0  0
   -6.7995    3.0259    0.3867 H   0  0  0  0  0  0  0  0  0  0  0  0
   -5.0382    3.3161    0.5754 H   0  0  0  0  0  0  0  0  0  0  0  0
  1  3  2  0  0  0  0
  1  4  2  0  0  0  0
  1  6  1  0  0  0  0
  1 21  1  0  0  0  0
  2 20  2  0  0  0  0
  5 25  1  0  0  0  0
  5 29  1  0  0  0  0
  6 15  1  0  0  0  0
  6 50  1  0  0  0  0
  7 20  1  0  0  0  0
  7 22  1  0  0  0  0
  7 51  1  0  0  0  0
  8  9  1  0  0  0  0
  8 10  1  0  0  0  0
  8 12  1  0  0  0  0
  8 30  1  0  0  0  0
  9 14  1  0  0  0  0
  9 15  1  0  0  0  0
  9 31  1  0  0  0  0
 10 11  1  0  0  0  0
 10 32  1  0  0  0  0
 10 33  1  0  0  0  0
 11 13  1  0  0  0  0
 11 16  1  0  0  0  0
 11 34  1  0  0  0  0
 12 17  1  0  0  0  0
 12 18  1  0  0  0  0
 12 35  1  0  0  0  0
 13 14  2  0  0  0  0
 13 19  1  0  0  0  0
 14 36  1  0  0  0  0
 15 37  1  0  0  0  0
 15 38  1  0  0  0  0
 16 20  1  0  0  0  0
 16 39  1  0  0  0  0
 16 40  1  0  0  0  0
 17 41  1  0  0  0  0
 17 42  1  0  0  0  0
 17 43  1  0  0  0  0
 18 44  1  0  0  0  0
 18 45  1  0  0  0  0
 18 46  1  0  0  0  0
 19 47  1  0  0  0  0
 19 48  1  0  0  0  0
 19 49  1  0  0  0  0
 21 23  2  0  0  0  0
 21 24  1  0  0  0  0
 22 25  1  0  0  0  0
 22 52  1  0  0  0  0
 22 53  1  0  0  0  0
 23 26  1  0  0  0  0
 23 54  1  0  0  0  0
 24 27  2  0  0  0  0
 24 55  1  0  0  0  0
 25 56  1  0  0  0  0
 25 57  1  0  0  0  0
 26 28  2  0  0  0  0
 26 58  1  0  0  0  0
 27 28  1  0  0  0  0
 27 59  1  0  0  0  0
 28 60  1  0  0  0  0
 29 61  1  0  0  0  0
 29 62  1  0  0  0  0
 29 63  1  0  0  0  0
M  END
> <PUBCHEM_COMPOUND_CID>
38027614

> <PUBCHEM_CONFORMER_RMSD>
1.2

> <PUBCHEM_CONFORMER_DIVERSEORDER>
1
53
63
46
61
99
69
26
81
90
110
112
58
9
84
13
76
59
116
49
89
86
31
118
105
130
35
28
36
47
24
83
32
75
120
94
134
15
21
73
37
127
72
124
109
51
71
64
67
66
68
40
17
8
104
113
95
3
27
55
45
33
126
34
16
111
129
88
60
121
128
103
117
93
107
125
131
101
50
20
87
119
6
7
82
56
85
57
39
96
70
97
133
91
38
42
108
19
65
4
115
14
41
114
132
23
122
77
44
10
74
80
98
54
106
12
100
22
62
78
11
123
18
2
25
30
92
102
52
43
5
29
48
79

> <PUBCHEM_MMFF94_PARTIAL_CHARGES>
32
1 1.45
11 0.14
13 -0.28
14 -0.29
15 0.36
16 0.06
19 0.14
2 -0.57
20 0.57
21 -0.01
22 0.3
23 -0.15
24 -0.15
25 0.28
26 -0.15
27 -0.15
28 -0.15
29 0.28
3 -0.65
36 0.15
4 -0.65
5 -0.56
50 0.42
51 0.37
54 0.15
55 0.15
58 0.15
59 0.15
6 -0.91
60 0.15
7 -0.73
9 0.14

> <PUBCHEM_EFFECTIVE_ROTOR_COUNT>
11.8

> <PUBCHEM_PHARMACOPHORE_FEATURES>
9
1 2 acceptor
1 3 acceptor
1 4 acceptor
1 5 acceptor
1 6 donor
1 7 donor
3 12 17 18 hydrophobe
6 21 23 24 26 27 28 rings
6 8 9 10 11 13 14 rings

> <PUBCHEM_HEAVY_ATOM_COUNT>
29

> <PUBCHEM_ATOM_DEF_STEREO_COUNT>
3

> <PUBCHEM_ATOM_UDEF_STEREO_COUNT>
0

> <PUBCHEM_BOND_DEF_STEREO_COUNT>
0

> <PUBCHEM_BOND_UDEF_STEREO_COUNT>
0

> <PUBCHEM_ISOTOPIC_ATOM_COUNT>
0

> <PUBCHEM_COMPONENT_COUNT>
1

> <PUBCHEM_CACTVS_TAUTO_COUNT>
2

> <PUBCHEM_CONFORMER_ID>
0244415E00000001

> <PUBCHEM_MMFF94_ENERGY>
47.0061

> <PUBCHEM_FEATURE_SELFOVERLAP>
45.69

> <PUBCHEM_SHAPE_FINGERPRINT>
10165383 225 18409166619923826059
10577160 103 17346024671856891864
11578080 2 17751361905564293644
1200032 147 17677885735225295901
12293681 160 18202279186992879243
12373685 5 17417254209227457574
13690498 29 17915727873004207535
13914758 101 18342738490674971730
13947920 75 17060059194989509817
14713325 29 17822300145045760955
15183329 4 18259978271457552196
16992727 255 17702669839680677329
17349148 13 18270980032640536474
21033650 10 17489299760197777051
21304303 282 18200884963045757561
23402539 116 17988654012017373786
23536364 44 18131913776004943305
23559900 14 18128256886557328096
2838139 119 17385718106016912421
3459 83 18266458711477391118
392239 28 14634876323399962461
4015057 19 17274258482226877642
4098825 35 17988924487841328143
46194498 28 16628242637900104653
504579 68 18130240349905574068
508180 173 18187361030423543680
5283173 99 18201716284004633280
57527295 17 17846486016475442127
5969126 39 16415481540876180624
6523845 18 18413386562756979835
6913067 236 16200436892584761926

> <PUBCHEM_SHAPE_MULTIPOLES>
567.22
14.99
3.06
2.62
10.71
1.97
-0.56
-7.13
8.79
-3.47
-0.88
-1.73
-1.04
0.03

> <PUBCHEM_SHAPE_SELFOVERLAP>
1139.6

> <PUBCHEM_SHAPE_VOLUME>
334

> <PUBCHEM_COORDINATE_TYPE>
2
5
10

$$$$
