56775116
  -OEChem-12032416273D

 49 51  0     1  0  0  0  0  0999 V2000
   -2.1562    2.2190   -0.3510 O   0  0  0  0  0  0  0  0  0  0  0  0
   -5.3397    1.2959    0.8445 O   0  0  0  0  0  0  0  0  0  0  0  0
   -5.9429   -1.3201   -0.5547 O   0  0  0  0  0  0  0  0  0  0  0  0
    0.1294   -0.0898    0.1972 N   0  0  1  0  0  0  0  0  0  0  0  0
   -3.5182   -0.0682    0.3574 N   0  0  0  0  0  0  0  0  0  0  0  0
   -2.1536   -0.1858   -0.1492 C   0  0  1  0  0  0  0  0  0  0  0  0
   -1.6517    1.0210   -0.9358 C   0  0  2  0  0  0  0  0  0  0  0  0
   -1.1040   -0.3082    0.9520 C   0  0  0  0  0  0  0  0  0  0  0  0
   -0.1322    1.0095   -0.7409 C   0  0  0  0  0  0  0  0  0  0  0  0
    1.2774    0.1585    1.0546 C   0  0  0  0  0  0  0  0  0  0  0  0
   -4.2252    1.1305    0.3465 C   0  0  0  0  0  0  0  0  0  0  0  0
   -3.5629    2.2582   -0.4156 C   0  0  0  0  0  0  0  0  0  0  0  0
   -4.0981   -1.2520    0.9783 C   0  0  0  0  0  0  0  0  0  0  0  0
    2.5757   -0.0766    0.2844 C   0  0  0  0  0  0  0  0  0  0  0  0
   -4.8691   -2.0879   -0.0268 C   0  0  0  0  0  0  0  0  0  0  0  0
    3.7969    0.2006    1.1647 C   0  0  0  0  0  0  0  0  0  0  0  0
    5.0861   -0.0630    0.4294 C   0  0  0  0  0  0  0  0  0  0  0  0
    5.6669   -1.3306    0.4721 C   0  0  0  0  0  0  0  0  0  0  0  0
    5.6982    0.9606   -0.2935 C   0  0  0  0  0  0  0  0  0  0  0  0
   -6.7002   -2.0638   -1.4997 C   0  0  0  0  0  0  0  0  0  0  0  0
    6.8600   -1.5743   -0.2084 C   0  0  0  0  0  0  0  0  0  0  0  0
    6.8912    0.7170   -0.9740 C   0  0  0  0  0  0  0  0  0  0  0  0
    7.4721   -0.5504   -0.9314 C   0  0  0  0  0  0  0  0  0  0  0  0
   -2.1111   -1.0737   -0.7952 H   0  0  0  0  0  0  0  0  0  0  0  0
   -1.9296    0.9790   -1.9954 H   0  0  0  0  0  0  0  0  0  0  0  0
   -1.2541    0.4516    1.7304 H   0  0  0  0  0  0  0  0  0  0  0  0
   -1.1117   -1.2965    1.4221 H   0  0  0  0  0  0  0  0  0  0  0  0
    0.3702    0.7918   -1.6895 H   0  0  0  0  0  0  0  0  0  0  0  0
    0.2236    1.9805   -0.3753 H   0  0  0  0  0  0  0  0  0  0  0  0
    1.2628   -0.5466    1.8964 H   0  0  0  0  0  0  0  0  0  0  0  0
    1.2513    1.1652    1.4907 H   0  0  0  0  0  0  0  0  0  0  0  0
   -3.9006    2.2345   -1.4579 H   0  0  0  0  0  0  0  0  0  0  0  0
   -3.8875    3.2061    0.0253 H   0  0  0  0  0  0  0  0  0  0  0  0
   -4.7827   -0.9249    1.7697 H   0  0  0  0  0  0  0  0  0  0  0  0
   -3.3132   -1.8496    1.4505 H   0  0  0  0  0  0  0  0  0  0  0  0
    2.6180    0.5714   -0.6004 H   0  0  0  0  0  0  0  0  0  0  0  0
    2.6065   -1.1114   -0.0817 H   0  0  0  0  0  0  0  0  0  0  0  0
   -4.2116   -2.4069   -0.8439 H   0  0  0  0  0  0  0  0  0  0  0  0
   -5.2683   -2.9790    0.4710 H   0  0  0  0  0  0  0  0  0  0  0  0
    3.7812    1.2404    1.5156 H   0  0  0  0  0  0  0  0  0  0  0  0
    3.7603   -0.4208    2.0687 H   0  0  0  0  0  0  0  0  0  0  0  0
    5.1985   -2.1367    1.0304 H   0  0  0  0  0  0  0  0  0  0  0  0
    5.2543    1.9517   -0.3358 H   0  0  0  0  0  0  0  0  0  0  0  0
   -7.5088   -1.4276   -1.8694 H   0  0  0  0  0  0  0  0  0  0  0  0
   -7.1395   -2.9484   -1.0287 H   0  0  0  0  0  0  0  0  0  0  0  0
   -6.0733   -2.3589   -2.3467 H   0  0  0  0  0  0  0  0  0  0  0  0
    7.3121   -2.5613   -0.1757 H   0  0  0  0  0  0  0  0  0  0  0  0
    7.3677    1.5140   -1.5374 H   0  0  0  0  0  0  0  0  0  0  0  0
    8.4009   -0.7402   -1.4613 H   0  0  0  0  0  0  0  0  0  0  0  0
  1  7  1  0  0  0  0
  1 12  1  0  0  0  0
  2 11  2  0  0  0  0
  3 15  1  0  0  0  0
  3 20  1  0  0  0  0
  4  8  1  0  0  0  0
  4  9  1  0  0  0  0
  4 10  1  0  0  0  0
  5  6  1  0  0  0  0
  5 11  1  0  0  0  0
  5 13  1  0  0  0  0
  6  7  1  0  0  0  0
  6  8  1  0  0  0  0
  6 24  1  0  0  0  0
  7  9  1  0  0  0  0
  7 25  1  0  0  0  0
  8 26  1  0  0  0  0
  8 27  1  0  0  0  0
  9 28  1  0  0  0  0
  9 29  1  0  0  0  0
 10 14  1  0  0  0  0
 10 30  1  0  0  0  0
 10 31  1  0  0  0  0
 11 12  1  0  0  0  0
 12 32  1  0  0  0  0
 12 33  1  0  0  0  0
 13 15  1  0  0  0  0
 13 34  1  0  0  0  0
 13 35  1  0  0  0  0
 14 16  1  0  0  0  0
 14 36  1  0  0  0  0
 14 37  1  0  0  0  0
 15 38  1  0  0  0  0
 15 39  1  0  0  0  0
 16 17  1  0  0  0  0
 16 40  1  0  0  0  0
 16 41  1  0  0  0  0
 17 18  2  0  0  0  0
 17 19  1  0  0  0  0
 18 21  1  0  0  0  0
 18 42  1  0  0  0  0
 19 22  2  0  0  0  0
 19 43  1  0  0  0  0
 20 44  1  0  0  0  0
 20 45  1  0  0  0  0
 20 46  1  0  0  0  0
 21 23  2  0  0  0  0
 21 47  1  0  0  0  0
 22 23  1  0  0  0  0
 22 48  1  0  0  0  0
 23 49  1  0  0  0  0
M  END
> <PUBCHEM_COMPOUND_CID>
56775116

> <PUBCHEM_CONFORMER_RMSD>
1

> <PUBCHEM_CONFORMER_DIVERSEORDER>
1
62
52
23
28
31
11
5
43
69
38
58
49
67
51
2
71
35
25
42
36
72
39
10
63
19
46
9
16
37
12
75
76
3
61
47
45
30
33
29
74
15
26
21
57
14
8
17
41
32
54
66
34
53
77
60
65
22
20
56
7
68
13
59
24
73
4
18
64
55
44
27
70
6
40
50
48

> <PUBCHEM_MMFF94_PARTIAL_CHARGES>
27
1 -0.56
10 0.27
11 0.57
12 0.34
13 0.3
15 0.28
16 0.14
17 -0.14
18 -0.15
19 -0.15
2 -0.57
20 0.28
21 -0.15
22 -0.15
23 -0.15
3 -0.56
4 -0.81
42 0.15
43 0.15
47 0.15
48 0.15
49 0.15
5 -0.66
6 0.3
7 0.28
8 0.27
9 0.27

> <PUBCHEM_EFFECTIVE_ROTOR_COUNT>
8.2

> <PUBCHEM_PHARMACOPHORE_FEATURES>
7
1 1 acceptor
1 2 acceptor
1 3 acceptor
1 4 cation
5 4 6 7 8 9 rings
6 1 5 6 7 11 12 rings
6 17 18 19 21 22 23 rings

> <PUBCHEM_HEAVY_ATOM_COUNT>
23

> <PUBCHEM_ATOM_DEF_STEREO_COUNT>
2

> <PUBCHEM_ATOM_UDEF_STEREO_COUNT>
0

> <PUBCHEM_BOND_DEF_STEREO_COUNT>
0

> <PUBCHEM_BOND_UDEF_STEREO_COUNT>
0

> <PUBCHEM_ISOTOPIC_ATOM_COUNT>
0

> <PUBCHEM_COMPONENT_COUNT>
1

> <PUBCHEM_CACTVS_TAUTO_COUNT>
2

> <PUBCHEM_CONFORMER_ID>
036251CC00000001

> <PUBCHEM_MMFF94_ENERGY>
55.3148

> <PUBCHEM_FEATURE_SELFOVERLAP>
35.676

> <PUBCHEM_SHAPE_FINGERPRINT>
10299344 5 18411141325046966634
10595046 47 18260550000951899632
11315181 36 17531251690030967523
11475781 23 11530750479755346138
11524674 6 16774078487962946839
12166972 35 18130508621419665352
12236239 1 17603588504604643424
13288520 33 18411418427952470843
13668630 136 17775011168116430470
13673619 4 18131349738818297153
13782708 43 17988920114963597582
14251764 30 18131349726328955912
14528608 73 17821731629035815088
14933364 13 18261398819523039472
15021287 119 14908177560027478680
15183329 4 18259984856080500682
15250474 111 17895461558305525354
15352257 5 18060142037636970182
17844677 252 18412268337508841480
18927931 339 18334017198776927651
21150785 3 17894627084545124214
21236236 1 18335421261960945539
21267235 1 18261114119257907411
21623969 137 17346602963238211278
220451 1 18334297526780995386
221357 26 18260266361364783108
2297311 6 18412546509022555793
2303208 19 17989486329650930594
23081809 10 17749385936870376480
23522609 53 18193866823782660528
23559900 14 17895756334510704937
3009799 131 14851880369941429479
335352 9 18333725820196404909
4073 2 17531540840884642898
4325135 7 18259705609970166526
445580 167 18187929521237555620
497634 4 18186800257822791404
504579 68 17894906326202098982
54039377 194 18263363750435543503
542803 24 18259985951370851600
9996256 80 18410011022787953130

> <PUBCHEM_SHAPE_MULTIPOLES>
445.76
21.16
2.02
1.14
20.07
0.03
-0.06
-8.43
-5.52
-3.15
-0.44
-0.27
-0.15
-1.01

> <PUBCHEM_SHAPE_SELFOVERLAP>
924.841

> <PUBCHEM_SHAPE_VOLUME>
255.1

> <PUBCHEM_COORDINATE_TYPE>
2
5
10

$$$$
