38030355
  -OEChem-12032416143D

 68 71  0     1  0  0  0  0  0999 V2000
   -3.8642    0.3581    0.7601 O   0  0  0  0  0  0  0  0  0  0  0  0
    7.0548   -2.6654   -1.0790 O   0  0  0  0  0  0  0  0  0  0  0  0
    3.9160    0.5028    0.3957 N   0  0  0  0  0  0  0  0  0  0  0  0
   -2.7294   -1.1356    1.9790 N   0  0  0  0  0  0  0  0  0  0  0  0
    8.4094   -2.2400    0.7316 N   0  0  0  0  0  0  0  0  0  0  0  0
   -3.8921   -1.7393    1.5379 N   0  0  0  0  0  0  0  0  0  0  0  0
    1.2106    0.4650   -0.7330 C   0  0  1  0  0  0  0  0  0  0  0  0
    1.9637    1.7752   -0.4044 C   0  0  2  0  0  0  0  0  0  0  0  0
    0.0927    0.2163    0.2893 C   0  0  0  0  0  0  0  0  0  0  0  0
   -0.9179    1.3792    0.3856 C   0  0  2  0  0  0  0  0  0  0  0  0
    0.6594    0.4809   -2.1652 C   0  0  0  0  0  0  0  0  0  0  0  0
    2.9787    1.5762    0.7260 C   0  0  0  0  0  0  0  0  0  0  0  0
    1.0320    2.9032   -0.0410 C   0  0  0  0  0  0  0  0  0  0  0  0
   -0.2600    2.7484    0.3024 C   0  0  0  0  0  0  0  0  0  0  0  0
    4.5123   -0.0530    1.6184 C   0  0  0  0  0  0  0  0  0  0  0  0
    4.9519    0.9904   -0.5254 C   0  0  0  0  0  0  0  0  0  0  0  0
   -1.7552    1.1962    1.6576 C   0  0  0  0  0  0  0  0  0  0  0  0
    6.5379   -0.7881    0.3048 C   0  0  0  0  0  0  0  0  0  0  0  0
    5.4545   -1.2136    1.2943 C   0  0  0  0  0  0  0  0  0  0  0  0
    5.9084   -0.1349   -0.9241 C   0  0  0  0  0  0  0  0  0  0  0  0
   -0.0287   -0.8424   -2.4850 C   0  0  0  0  0  0  0  0  0  0  0  0
    1.7779    0.7639   -3.1628 C   0  0  0  0  0  0  0  0  0  0  0  0
   -1.1245    3.9515    0.5624 C   0  0  0  0  0  0  0  0  0  0  0  0
   -2.7553    0.0867    1.5013 C   0  0  0  0  0  0  0  0  0  0  0  0
    7.3452   -1.9825   -0.0999 C   0  0  0  0  0  0  0  0  0  0  0  0
   -4.5229   -0.8309    0.8308 C   0  0  0  0  0  0  0  0  0  0  0  0
   -5.7749   -0.8969    0.1344 C   0  0  0  0  0  0  0  0  0  0  0  0
   -6.5204   -2.0757    0.1507 C   0  0  0  0  0  0  0  0  0  0  0  0
   -6.2470    0.2174   -0.5590 C   0  0  0  0  0  0  0  0  0  0  0  0
   -7.7382   -2.1402   -0.5268 C   0  0  0  0  0  0  0  0  0  0  0  0
   -7.4645    0.1530   -1.2363 C   0  0  0  0  0  0  0  0  0  0  0  0
   -8.2102   -1.0258   -1.2203 C   0  0  0  0  0  0  0  0  0  0  0  0
    1.8963   -0.3896   -0.6723 H   0  0  0  0  0  0  0  0  0  0  0  0
    2.5254    2.1345   -1.2671 H   0  0  0  0  0  0  0  0  0  0  0  0
    0.5653    0.0684    1.2702 H   0  0  0  0  0  0  0  0  0  0  0  0
   -0.4259   -0.7282    0.0961 H   0  0  0  0  0  0  0  0  0  0  0  0
   -1.5874    1.3161   -0.4844 H   0  0  0  0  0  0  0  0  0  0  0  0
   -0.0864    1.2749   -2.2906 H   0  0  0  0  0  0  0  0  0  0  0  0
    2.4296    1.3256    1.6437 H   0  0  0  0  0  0  0  0  0  0  0  0
    3.5097    2.5122    0.9501 H   0  0  0  0  0  0  0  0  0  0  0  0
    1.4557    3.9044   -0.0856 H   0  0  0  0  0  0  0  0  0  0  0  0
    3.7237   -0.4358    2.2780 H   0  0  0  0  0  0  0  0  0  0  0  0
    5.0564    0.7217    2.1745 H   0  0  0  0  0  0  0  0  0  0  0  0
    5.5247    1.8103   -0.0717 H   0  0  0  0  0  0  0  0  0  0  0  0
    4.5097    1.3791   -1.4482 H   0  0  0  0  0  0  0  0  0  0  0  0
   -2.3331    2.0947    1.8993 H   0  0  0  0  0  0  0  0  0  0  0  0
   -1.1191    0.9976    2.5286 H   0  0  0  0  0  0  0  0  0  0  0  0
    7.1973   -0.0541    0.7872 H   0  0  0  0  0  0  0  0  0  0  0  0
    5.9120   -1.5811    2.2211 H   0  0  0  0  0  0  0  0  0  0  0  0
    4.8748   -2.0517    0.8840 H   0  0  0  0  0  0  0  0  0  0  0  0
    5.3529   -0.8738   -1.5174 H   0  0  0  0  0  0  0  0  0  0  0  0
    6.6923    0.2628   -1.5804 H   0  0  0  0  0  0  0  0  0  0  0  0
   -0.9705   -0.9587   -1.9410 H   0  0  0  0  0  0  0  0  0  0  0  0
    0.6151   -1.6987   -2.2576 H   0  0  0  0  0  0  0  0  0  0  0  0
   -0.2852   -0.8972   -3.5493 H   0  0  0  0  0  0  0  0  0  0  0  0
    2.6745    0.1718   -2.9502 H   0  0  0  0  0  0  0  0  0  0  0  0
    2.0492    1.8229   -3.1964 H   0  0  0  0  0  0  0  0  0  0  0  0
    1.4581    0.5131   -4.1811 H   0  0  0  0  0  0  0  0  0  0  0  0
   -2.0729    3.8654    0.0220 H   0  0  0  0  0  0  0  0  0  0  0  0
   -0.6462    4.8784    0.2266 H   0  0  0  0  0  0  0  0  0  0  0  0
   -1.3311    4.0605    1.6312 H   0  0  0  0  0  0  0  0  0  0  0  0
    8.6194   -1.6663    1.5422 H   0  0  0  0  0  0  0  0  0  0  0  0
    9.0258   -3.0274    0.5604 H   0  0  0  0  0  0  0  0  0  0  0  0
   -6.1721   -2.9566    0.6846 H   0  0  0  0  0  0  0  0  0  0  0  0
   -5.6948    1.1530   -0.5949 H   0  0  0  0  0  0  0  0  0  0  0  0
   -8.3189   -3.0579   -0.5144 H   0  0  0  0  0  0  0  0  0  0  0  0
   -7.8326    1.0204   -1.7766 H   0  0  0  0  0  0  0  0  0  0  0  0
   -9.1582   -1.0759   -1.7478 H   0  0  0  0  0  0  0  0  0  0  0  0
  1 24  1  0  0  0  0
  1 26  1  0  0  0  0
  2 25  2  0  0  0  0
  3 12  1  0  0  0  0
  3 15  1  0  0  0  0
  3 16  1  0  0  0  0
  4  6  1  0  0  0  0
  4 24  2  0  0  0  0
  5 25  1  0  0  0  0
  5 62  1  0  0  0  0
  5 63  1  0  0  0  0
  6 26  2  0  0  0  0
  7  8  1  0  0  0  0
  7  9  1  0  0  0  0
  7 11  1  0  0  0  0
  7 33  1  0  0  0  0
  8 12  1  0  0  0  0
  8 13  1  0  0  0  0
  8 34  1  0  0  0  0
  9 10  1  0  0  0  0
  9 35  1  0  0  0  0
  9 36  1  0  0  0  0
 10 14  1  0  0  0  0
 10 17  1  0  0  0  0
 10 37  1  0  0  0  0
 11 21  1  0  0  0  0
 11 22  1  0  0  0  0
 11 38  1  0  0  0  0
 12 39  1  0  0  0  0
 12 40  1  0  0  0  0
 13 14  2  0  0  0  0
 13 41  1  0  0  0  0
 14 23  1  0  0  0  0
 15 19  1  0  0  0  0
 15 42  1  0  0  0  0
 15 43  1  0  0  0  0
 16 20  1  0  0  0  0
 16 44  1  0  0  0  0
 16 45  1  0  0  0  0
 17 24  1  0  0  0  0
 17 46  1  0  0  0  0
 17 47  1  0  0  0  0
 18 19  1  0  0  0  0
 18 20  1  0  0  0  0
 18 25  1  0  0  0  0
 18 48  1  0  0  0  0
 19 49  1  0  0  0  0
 19 50  1  0  0  0  0
 20 51  1  0  0  0  0
 20 52  1  0  0  0  0
 21 53  1  0  0  0  0
 21 54  1  0  0  0  0
 21 55  1  0  0  0  0
 22 56  1  0  0  0  0
 22 57  1  0  0  0  0
 22 58  1  0  0  0  0
 23 59  1  0  0  0  0
 23 60  1  0  0  0  0
 23 61  1  0  0  0  0
 26 27  1  0  0  0  0
 27 28  2  0  0  0  0
 27 29  1  0  0  0  0
 28 30  1  0  0  0  0
 28 64  1  0  0  0  0
 29 31  2  0  0  0  0
 29 65  1  0  0  0  0
 30 32  2  0  0  0  0
 30 66  1  0  0  0  0
 31 32  1  0  0  0  0
 31 67  1  0  0  0  0
 32 68  1  0  0  0  0
M  END
> <PUBCHEM_COMPOUND_CID>
38030355

> <PUBCHEM_CONFORMER_RMSD>
1

> <PUBCHEM_CONFORMER_DIVERSEORDER>
17
66
2
165
74
258
122
186
241
44
33
54
170
245
153
132
109
42
178
262
187
134
237
6
10
46
210
90
76
55
150
257
259
99
246
141
69
226
16
265
124
22
244
251
164
198
162
41
192
254
72
185
85
61
144
201
225
243
197
38
156
67
149
207
37
181
228
174
116
249
49
81
8
234
256
202
232
71
152
268
9
143
25
157
131
182
267
27
179
183
219
94
58
269
230
39
127
272
211
18
275
84
274
75
218
205
53
260
239
98
120
227
204
216
129
135
5
273
209
56
136
70
48
194
130
266
115
21
173
224
104
221
177
106
34
83
36
110
220
126
229
139
77
161
93
242
159
102
108
47
175
214
142
261
51
212
184
19
166
87
189
101
118
79
195
91
59
247
250
88
196
121
128
107
105
163
203
68
263
113
176
31
4
240
238
213
233
138
7
78
64
111
12
215
270
50
167
154
3
96
86
190
155
147
125
271
28
100
60
140
89
11
52
151
222
252
145
146
188
137
114
208
264
45
73
32
80
15
112
160
97
35
24
57
223
168
148
65
200
13
29
82
23
253
63
133
62
26
169
40
172
206
103
92
123
95
20
1
43
180
117
235
191
217
171
236
14
30
193
255
158
119
248
199
231

> <PUBCHEM_MMFF94_PARTIAL_CHARGES>
33
1 -0.28
10 0.14
12 0.27
13 -0.29
14 -0.28
15 0.27
16 0.27
17 0.18
18 0.06
2 -0.57
23 0.14
24 0.3
25 0.57
26 0.43
27 0.05
28 -0.15
29 -0.15
3 -0.81
30 -0.15
31 -0.15
32 -0.15
4 -0.34
41 0.15
5 -0.8
6 -0.34
62 0.37
63 0.37
64 0.15
65 0.15
66 0.15
67 0.15
68 0.15
8 0.14

> <PUBCHEM_EFFECTIVE_ROTOR_COUNT>
9

> <PUBCHEM_PHARMACOPHORE_FEATURES>
8
1 2 acceptor
1 3 cation
1 5 donor
3 11 21 22 hydrophobe
5 1 4 6 24 26 rings
6 27 28 29 30 31 32 rings
6 3 15 16 18 19 20 rings
6 7 8 9 10 13 14 rings

> <PUBCHEM_HEAVY_ATOM_COUNT>
32

> <PUBCHEM_ATOM_DEF_STEREO_COUNT>
3

> <PUBCHEM_ATOM_UDEF_STEREO_COUNT>
0

> <PUBCHEM_BOND_DEF_STEREO_COUNT>
0

> <PUBCHEM_BOND_UDEF_STEREO_COUNT>
0

> <PUBCHEM_ISOTOPIC_ATOM_COUNT>
0

> <PUBCHEM_COMPONENT_COUNT>
1

> <PUBCHEM_CACTVS_TAUTO_COUNT>
2

> <PUBCHEM_CONFORMER_ID>
02444C1300000011

> <PUBCHEM_MMFF94_ENERGY>
61.5072

> <PUBCHEM_FEATURE_SELFOVERLAP>
40.597

> <PUBCHEM_SHAPE_FINGERPRINT>
10 15 11600006556967780817
10165383 225 8646768902707987017
10319688 67 15339111347352332958
10369192 42 9007061262295934723
10673678 19 8718556029301041672
10674148 151 15140957361783492420
10816530 90 13479134631370540046
10917259 69 18266735776340918577
11115154 58 16588302765756263965
117089 54 18197226845860981294
11719270 70 17704076226552148343
11796584 16 17241324814587637225
12166972 35 18040718112586489325
12373685 5 16414920713433071305
12422481 6 17346887745070571692
12838863 1 18060132168107975271
12895836 83 9295283924280486256
12977781 61 17842282458509305101
13692114 37 15482671316178251308
13726171 33 10231217921959786679
13782708 43 17774730774943795064
13914758 101 18408884032238953345
14068700 675 18333730204329794584
14747281 78 13045943477996997808
14931854 50 17675924287515737714
15183329 4 16805597075721085241
15188451 53 17988925569729968752
15276724 80 14779537959505856502
15320295 40 18060412521907849427
15347590 135 13614526259637326619
15475509 8 15936402334542785029
15519825 34 15482378833405900287
15927050 60 17831864542622807489
16126227 98 9151164359569425009
16992727 255 10737292333239478644
16994733 274 10231754479027346886
19301676 85 18333453118667950963
19302320 297 12247386918156344322
21304304 249 18273496783943015942
21307412 95 17676494959820578091
21424621 283 8214147356334103738
21521721 280 8718833093303991813
21987483 16 16986856068601918899
22079108 93 14836406938762094640
22956985 138 17486513515754601478
23389318 12 18335428985061282044
23559900 14 18115871969917549361
23576562 1 15430894257597495579
3004659 81 17894345605199535097
3633792 109 17603305972797309980
38570 142 13045941322292881733
392239 28 15482668009264175577
4339292 15 18339642240631245374
4340502 62 14692579826763985044
437795 70 15574710300683727445
437815 12 18260547831154866104
465052 167 18201723976707784956
474113 269 18341327816623896494
54076057 255 12829479368457228959
563151 248 15339117948490168525
5718773 13 18342176665359332418
5758199 1 9007060171311067457
5776283 40 11386375845574418279
59682541 35 12463568508814917671
6081469 158 18407757023550300031
9689198 14 10881397612989384643

> <PUBCHEM_SHAPE_MULTIPOLES>
626.88
23.08
3
2.05
6.44
1.71
1.14
-23.11
1.63
-1.43
-0.41
-0.18
-0.19
-0.38

> <PUBCHEM_SHAPE_SELFOVERLAP>
1323.812

> <PUBCHEM_SHAPE_VOLUME>
350.1

> <PUBCHEM_COORDINATE_TYPE>
2
5
10

$$$$
