45361174
  -OEChem-12032416283D

 64 67  0     1  0  0  0  0  0999 V2000
   -7.2475    0.6899    0.2910 S   0  0  0  0  0  0  0  0  0  0  0  0
   -1.7277    1.0349    1.1871 O   0  0  0  0  0  0  0  0  0  0  0  0
    4.4687   -1.1574    0.6969 O   0  0  0  0  0  0  0  0  0  0  0  0
    6.6655   -0.0315   -0.6102 O   0  0  0  0  0  0  0  0  0  0  0  0
   -0.1793   -2.0173   -0.6230 N   0  0  1  0  0  0  0  0  0  0  0  0
   -3.4753   -0.4841   -0.2026 N   0  0  1  0  0  0  0  0  0  0  0  0
   -0.4816   -0.7301    1.9412 N   0  0  0  0  0  0  0  0  0  0  0  0
    3.8887    1.0406    0.2644 N   0  0  0  0  0  0  0  0  0  0  0  0
   -1.6583   -2.0465   -0.5888 C   0  0  1  0  0  0  0  0  0  0  0  0
   -2.3916   -1.2022    0.4944 C   0  0  1  0  0  0  0  0  0  0  0  0
   -2.3234   -1.5507   -1.8864 C   0  0  0  0  0  0  0  0  0  0  0  0
    0.4764   -2.5741    0.5932 C   0  0  2  0  0  0  0  0  0  0  0  0
   -3.7293   -1.1977   -1.4491 C   0  0  0  0  0  0  0  0  0  0  0  0
   -0.1611   -2.1437    1.9288 C   0  0  0  0  0  0  0  0  0  0  0  0
   -1.5191   -0.1772    1.2146 C   0  0  0  0  0  0  0  0  0  0  0  0
    1.9647   -2.1686    0.6374 C   0  0  0  0  0  0  0  0  0  0  0  0
   -4.6819   -0.3385    0.6016 C   0  0  0  0  0  0  0  0  0  0  0  0
    0.3300   -2.6898   -1.8302 C   0  0  0  0  0  0  0  0  0  0  0  0
    2.1552   -0.6835    0.3980 C   0  0  0  0  0  0  0  0  0  0  0  0
    5.2367    1.5978    0.3955 C   0  0  2  0  0  0  0  0  0  0  0  0
    4.9970    3.1043    0.5222 C   0  0  0  0  0  0  0  0  0  0  0  0
    2.9072    2.0881   -0.0061 C   0  0  0  0  0  0  0  0  0  0  0  0
    3.6121   -0.3012    0.4708 C   0  0  0  0  0  0  0  0  0  0  0  0
    3.7336    3.3308   -0.2998 C   0  0  0  0  0  0  0  0  0  0  0  0
   -5.5474    0.7929    0.1141 C   0  0  0  0  0  0  0  0  0  0  0  0
    6.1037    1.2515   -0.8134 C   0  0  0  0  0  0  0  0  0  0  0  0
   -5.1608    1.9694   -0.4893 C   0  0  0  0  0  0  0  0  0  0  0  0
   -6.2751    2.7972   -0.8105 C   0  0  0  0  0  0  0  0  0  0  0  0
   -7.4708    2.2219   -0.4406 C   0  0  0  0  0  0  0  0  0  0  0  0
    7.4907   -0.4252   -1.7011 C   0  0  0  0  0  0  0  0  0  0  0  0
   -1.9784   -3.0916   -0.4545 H   0  0  0  0  0  0  0  0  0  0  0  0
   -2.8160   -1.8838    1.2437 H   0  0  0  0  0  0  0  0  0  0  0  0
   -1.8147   -0.6579   -2.2743 H   0  0  0  0  0  0  0  0  0  0  0  0
   -2.3322   -2.3143   -2.6710 H   0  0  0  0  0  0  0  0  0  0  0  0
    0.4295   -3.6717    0.5672 H   0  0  0  0  0  0  0  0  0  0  0  0
   -4.2324   -0.5742   -2.1945 H   0  0  0  0  0  0  0  0  0  0  0  0
   -4.3160   -2.1123   -1.2954 H   0  0  0  0  0  0  0  0  0  0  0  0
   -1.0696   -2.7217    2.1255 H   0  0  0  0  0  0  0  0  0  0  0  0
    0.5086   -2.3319    2.7755 H   0  0  0  0  0  0  0  0  0  0  0  0
    2.4017   -2.4563    1.6030 H   0  0  0  0  0  0  0  0  0  0  0  0
    2.5332   -2.7414   -0.1057 H   0  0  0  0  0  0  0  0  0  0  0  0
   -4.4087   -0.0801    1.6343 H   0  0  0  0  0  0  0  0  0  0  0  0
   -5.2401   -1.2820    0.6595 H   0  0  0  0  0  0  0  0  0  0  0  0
    0.0888   -0.1086    2.5061 H   0  0  0  0  0  0  0  0  0  0  0  0
    1.4201   -2.6441   -1.9018 H   0  0  0  0  0  0  0  0  0  0  0  0
   -0.0210   -2.1980   -2.7428 H   0  0  0  0  0  0  0  0  0  0  0  0
    0.0293   -3.7431   -1.8637 H   0  0  0  0  0  0  0  0  0  0  0  0
    1.6555   -0.0777    1.1512 H   0  0  0  0  0  0  0  0  0  0  0  0
    1.7887   -0.3951   -0.5919 H   0  0  0  0  0  0  0  0  0  0  0  0
    5.6942    1.1980    1.3087 H   0  0  0  0  0  0  0  0  0  0  0  0
    5.8377    3.7188    0.1879 H   0  0  0  0  0  0  0  0  0  0  0  0
    4.7929    3.3569    1.5705 H   0  0  0  0  0  0  0  0  0  0  0  0
    2.2971    2.2205    0.8940 H   0  0  0  0  0  0  0  0  0  0  0  0
    2.2579    1.8125   -0.8413 H   0  0  0  0  0  0  0  0  0  0  0  0
    3.2116    4.2546   -0.0357 H   0  0  0  0  0  0  0  0  0  0  0  0
    3.9854    3.3731   -1.3661 H   0  0  0  0  0  0  0  0  0  0  0  0
    5.5203    1.2644   -1.7420 H   0  0  0  0  0  0  0  0  0  0  0  0
    6.9249    1.9722   -0.9037 H   0  0  0  0  0  0  0  0  0  0  0  0
   -4.1315    2.2372   -0.6918 H   0  0  0  0  0  0  0  0  0  0  0  0
   -6.2033    3.7658   -1.2878 H   0  0  0  0  0  0  0  0  0  0  0  0
   -8.4647    2.6281   -0.5646 H   0  0  0  0  0  0  0  0  0  0  0  0
    7.8932   -1.4185   -1.4858 H   0  0  0  0  0  0  0  0  0  0  0  0
    8.3253    0.2722   -1.8215 H   0  0  0  0  0  0  0  0  0  0  0  0
    6.9053   -0.4775   -2.6241 H   0  0  0  0  0  0  0  0  0  0  0  0
  1 25  1  0  0  0  0
  1 29  1  0  0  0  0
  2 15  2  0  0  0  0
  3 23  2  0  0  0  0
  4 26  1  0  0  0  0
  4 30  1  0  0  0  0
  5  9  1  0  0  0  0
  5 12  1  0  0  0  0
  5 18  1  0  0  0  0
  6 10  1  0  0  0  0
  6 13  1  0  0  0  0
  6 17  1  0  0  0  0
  7 14  1  0  0  0  0
  7 15  1  0  0  0  0
  7 44  1  0  0  0  0
  8 20  1  0  0  0  0
  8 22  1  0  0  0  0
  8 23  1  0  0  0  0
  9 10  1  0  0  0  0
  9 11  1  0  0  0  0
  9 31  1  0  0  0  0
 10 15  1  0  0  0  0
 10 32  1  0  0  0  0
 11 13  1  0  0  0  0
 11 33  1  0  0  0  0
 11 34  1  0  0  0  0
 12 14  1  0  0  0  0
 12 16  1  0  0  0  0
 12 35  1  0  0  0  0
 13 36  1  0  0  0  0
 13 37  1  0  0  0  0
 14 38  1  0  0  0  0
 14 39  1  0  0  0  0
 16 19  1  0  0  0  0
 16 40  1  0  0  0  0
 16 41  1  0  0  0  0
 17 25  1  0  0  0  0
 17 42  1  0  0  0  0
 17 43  1  0  0  0  0
 18 45  1  0  0  0  0
 18 46  1  0  0  0  0
 18 47  1  0  0  0  0
 19 23  1  0  0  0  0
 19 48  1  0  0  0  0
 19 49  1  0  0  0  0
 20 21  1  0  0  0  0
 20 26  1  0  0  0  0
 20 50  1  0  0  0  0
 21 24  1  0  0  0  0
 21 51  1  0  0  0  0
 21 52  1  0  0  0  0
 22 24  1  0  0  0  0
 22 53  1  0  0  0  0
 22 54  1  0  0  0  0
 24 55  1  0  0  0  0
 24 56  1  0  0  0  0
 25 27  2  0  0  0  0
 26 57  1  0  0  0  0
 26 58  1  0  0  0  0
 27 28  1  0  0  0  0
 27 59  1  0  0  0  0
 28 29  2  0  0  0  0
 28 60  1  0  0  0  0
 29 61  1  0  0  0  0
 30 62  1  0  0  0  0
 30 63  1  0  0  0  0
 30 64  1  0  0  0  0
M  END
> <PUBCHEM_COMPOUND_CID>
45361174

> <PUBCHEM_CONFORMER_RMSD>
1

> <PUBCHEM_CONFORMER_DIVERSEORDER>
1
123
54
125
153
176
226
76
100
185
115
23
208
122
158
169
136
36
128
194
56
92
202
223
19
167
199
159
49
66
2
72
124
147
168
116
190
197
83
143
175
63
164
17
187
150
58
112
221
4
177
203
21
20
184
29
102
131
61
193
114
207
118
90
141
14
50
86
157
160
174
142
104
217
152
178
30
15
64
165
52
57
204
71
126
108
106
214
119
22
110
213
88
139
144
6
182
74
43
166
162
98
31
133
44
113
32
93
225
220
70
210
149
228
206
80
55
195
78
105
27
215
218
77
67
155
91
229
111
94
137
24
42
82
189
87
154
135
181
201
132
18
120
209
12
47
163
129
46
170
148
34
179
35
127
97
38
173
188
60
39
117
103
180
33
16
146
186
9
172
196
191
192
212
75
216
53
227
59
8
84
161
211
198
40
222
28
96
89
5
224
134
7
51
107
205
145
200
171
45
99
130
156
25
13
85
48
121
11
95
81
73
183
140
101
3
109
151
10
219
37
65
41
69
79
68
138
26
62

> <PUBCHEM_MMFF94_PARTIAL_CHARGES>
30
1 -0.08
10 0.33
12 0.27
13 0.27
14 0.3
15 0.57
17 0.45
18 0.27
19 0.06
2 -0.57
20 0.3
22 0.3
23 0.57
25 -0.14
26 0.28
27 -0.15
28 -0.15
29 -0.11
3 -0.57
30 0.28
4 -0.56
44 0.37
5 -0.81
59 0.15
6 -0.81
60 0.15
61 0.15
7 -0.73
8 -0.66
9 0.27

> <PUBCHEM_EFFECTIVE_ROTOR_COUNT>
10.4

> <PUBCHEM_PHARMACOPHORE_FEATURES>
10
1 2 acceptor
1 3 acceptor
1 4 acceptor
1 5 cation
1 6 cation
1 7 donor
5 1 25 27 28 29 rings
5 6 9 10 11 13 rings
5 8 20 21 22 24 rings
7 5 7 9 10 12 14 15 rings

> <PUBCHEM_HEAVY_ATOM_COUNT>
30

> <PUBCHEM_ATOM_DEF_STEREO_COUNT>
4

> <PUBCHEM_ATOM_UDEF_STEREO_COUNT>
0

> <PUBCHEM_BOND_DEF_STEREO_COUNT>
0

> <PUBCHEM_BOND_UDEF_STEREO_COUNT>
0

> <PUBCHEM_ISOTOPIC_ATOM_COUNT>
0

> <PUBCHEM_COMPONENT_COUNT>
1

> <PUBCHEM_CACTVS_TAUTO_COUNT>
3

> <PUBCHEM_CONFORMER_ID>
02B4281600000001

> <PUBCHEM_MMFF94_ENERGY>
74.1482

> <PUBCHEM_FEATURE_SELFOVERLAP>
50.787

> <PUBCHEM_SHAPE_FINGERPRINT>
10673678 19 18341611499856926993
10763959 59 18334300885672527076
11456790 92 17968370165995432144
12633257 1 15864073216793265367
12788726 201 17632580405673418321
12895836 83 18202274840733647843
13690498 29 17487605563003620751
13782708 43 12823297896515813933
13911987 19 17846495903827163075
14117953 113 18272933786971931260
14739800 52 17896592896046528841
15064981 113 17417828248675921084
15183329 4 18273216378740372089
15357212 105 16445057420748893044
15510800 12 11959725018794635981
15840311 113 18335983074296893693
15961568 22 18261673676055783461
18335252 114 18340199704792714828
19301679 30 17397811394569185250
20511986 3 17988070210182560952
20567600 247 9222934985995354269
20567600 70 9439398030109089997
20715895 44 18342171142158035793
21033648 29 17822291340304417952
21033650 10 14836134217593534491
21223535 225 18410282602076118460
21298829 104 18338228375472041200
21315764 119 17632582651872352174
21585482 111 18115868495590116149
22122407 14 18335143034143255921
23559900 14 16773788255737570202
23569914 2 17027920483090270989
249057 3 18202566177008115180
2838139 119 18410288142198320814
3388396 114 16611941509660082916
3411729 13 18335417937972879745
3472631 163 18342455945940239879
34797466 226 18270964536688793327
392239 28 15430035483006963279
397830 11 18187659003081210891
4173938 77 18189345725973307812
508180 173 18343585170183782440
57724786 102 17749955595584281076
7288768 16 17894908576865189427

> <PUBCHEM_SHAPE_MULTIPOLES>
583.7
19.12
3.66
1.53
1.96
1.37
0.16
16.92
5.27
-0.79
0.42
-0.16
-0.95
0.46

> <PUBCHEM_SHAPE_SELFOVERLAP>
1204.776

> <PUBCHEM_SHAPE_VOLUME>
336.1

> <PUBCHEM_COORDINATE_TYPE>
2
5
10

$$$$
