45361404
  -OEChem-12032416313D

 75 78  0     1  0  0  0  0  0999 V2000
    1.0987   -0.0782    1.9725 O   0  0  0  0  0  0  0  0  0  0  0  0
    5.3025    2.1785   -0.1817 O   0  0  0  0  0  0  0  0  0  0  0  0
   -4.7000   -1.9120   -1.2132 O   0  0  0  0  0  0  0  0  0  0  0  0
   -3.8982   -0.0321   -0.1184 N   0  0  0  0  0  0  0  0  0  0  0  0
    5.5643    0.0316    0.6662 N   0  0  0  0  0  0  0  0  0  0  0  0
    0.0049    1.1994   -1.4549 C   0  0  1  0  0  0  0  0  0  0  0  0
   -0.0645    0.3865   -0.1195 C   0  0  2  0  0  0  0  0  0  0  0  0
   -1.5213    0.4001    0.4682 C   0  0  1  0  0  0  0  0  0  0  0  0
    1.0577    0.8236    0.8656 C   0  0  2  0  0  0  0  0  0  0  0  0
    1.4213    1.0715   -2.0638 C   0  0  0  0  0  0  0  0  0  0  0  0
    2.4620    0.7932    0.2185 C   0  0  1  0  0  0  0  0  0  0  0  0
   -0.9978    0.5958   -2.4653 C   0  0  0  0  0  0  0  0  0  0  0  0
   -2.5313   -0.1388   -0.5837 C   0  0  2  0  0  0  0  0  0  0  0  0
    2.5196    1.5357   -1.1164 C   0  0  0  0  0  0  0  0  0  0  0  0
   -2.4258    0.5581   -1.9400 C   0  0  0  0  0  0  0  0  0  0  0  0
   -0.3162    2.7020   -1.2531 C   0  0  0  0  0  0  0  0  0  0  0  0
    3.5352    1.3507    1.1616 C   0  0  2  0  0  0  0  0  0  0  0  0
   -1.6680   -0.4064    1.7696 C   0  0  0  0  0  0  0  0  0  0  0  0
    3.2551    2.8001    1.5144 C   0  0  0  0  0  0  0  0  0  0  0  0
    4.8785    1.2323    0.4867 C   0  0  0  0  0  0  0  0  0  0  0  0
   -4.8765   -0.9424   -0.4801 C   0  0  0  0  0  0  0  0  0  0  0  0
    5.0866   -1.1104    1.4544 C   0  0  0  0  0  0  0  0  0  0  0  0
    6.8920   -0.1450    0.0756 C   0  0  0  0  0  0  0  0  0  0  0  0
    5.0988   -2.3888    0.6180 C   0  0  0  0  0  0  0  0  0  0  0  0
    6.9406   -1.4016   -0.7904 C   0  0  0  0  0  0  0  0  0  0  0  0
    6.4821   -2.6378   -0.0021 C   0  0  0  0  0  0  0  0  0  0  0  0
   -6.2351   -0.6785    0.0598 C   0  0  0  0  0  0  0  0  0  0  0  0
    6.4622   -3.8756   -0.8956 C   0  0  0  0  0  0  0  0  0  0  0  0
   -7.3600   -1.1319   -0.6291 C   0  0  0  0  0  0  0  0  0  0  0  0
   -6.3855    0.0217    1.2567 C   0  0  0  0  0  0  0  0  0  0  0  0
   -8.6354   -0.8851   -0.1211 C   0  0  0  0  0  0  0  0  0  0  0  0
   -7.6608    0.2684    1.7647 C   0  0  0  0  0  0  0  0  0  0  0  0
   -8.7859   -0.1849    1.0759 C   0  0  0  0  0  0  0  0  0  0  0  0
    0.1416   -0.6679   -0.3648 H   0  0  0  0  0  0  0  0  0  0  0  0
   -1.7933    1.4336    0.7174 H   0  0  0  0  0  0  0  0  0  0  0  0
    0.8011    1.8093    1.2592 H   0  0  0  0  0  0  0  0  0  0  0  0
    1.6133    0.0242   -2.3341 H   0  0  0  0  0  0  0  0  0  0  0  0
    1.4867    1.6445   -2.9978 H   0  0  0  0  0  0  0  0  0  0  0  0
    2.7057   -0.2586    0.0120 H   0  0  0  0  0  0  0  0  0  0  0  0
   -0.6949   -0.4292   -2.7180 H   0  0  0  0  0  0  0  0  0  0  0  0
   -0.9774    1.1617   -3.4054 H   0  0  0  0  0  0  0  0  0  0  0  0
   -2.3161   -1.2049   -0.7407 H   0  0  0  0  0  0  0  0  0  0  0  0
    2.4418    2.6191   -1.0067 H   0  0  0  0  0  0  0  0  0  0  0  0
    3.4685    1.3430   -1.6294 H   0  0  0  0  0  0  0  0  0  0  0  0
   -3.0581    0.0411   -2.6735 H   0  0  0  0  0  0  0  0  0  0  0  0
   -2.8303    1.5755   -1.8750 H   0  0  0  0  0  0  0  0  0  0  0  0
    0.3500    3.1788   -0.5287 H   0  0  0  0  0  0  0  0  0  0  0  0
   -0.2132    3.2481   -2.1982 H   0  0  0  0  0  0  0  0  0  0  0  0
   -1.3349    2.8742   -0.8963 H   0  0  0  0  0  0  0  0  0  0  0  0
    3.5391    0.8296    2.1211 H   0  0  0  0  0  0  0  0  0  0  0  0
   -1.1673    0.0944    2.6029 H   0  0  0  0  0  0  0  0  0  0  0  0
   -2.7149   -0.5035    2.0748 H   0  0  0  0  0  0  0  0  0  0  0  0
   -1.2600   -1.4164    1.6595 H   0  0  0  0  0  0  0  0  0  0  0  0
   -4.1424    0.8075    0.3962 H   0  0  0  0  0  0  0  0  0  0  0  0
    1.2847   -0.9690    1.6298 H   0  0  0  0  0  0  0  0  0  0  0  0
    2.3401    2.9214    2.1002 H   0  0  0  0  0  0  0  0  0  0  0  0
    4.0659    3.1817    2.1492 H   0  0  0  0  0  0  0  0  0  0  0  0
    3.2106    3.4801    0.6605 H   0  0  0  0  0  0  0  0  0  0  0  0
    5.7580   -1.2115    2.3155 H   0  0  0  0  0  0  0  0  0  0  0  0
    4.0796   -0.9825    1.8461 H   0  0  0  0  0  0  0  0  0  0  0  0
    7.6104   -0.2192    0.9006 H   0  0  0  0  0  0  0  0  0  0  0  0
    7.1716    0.7270   -0.5238 H   0  0  0  0  0  0  0  0  0  0  0  0
    4.3479   -2.3060   -0.1785 H   0  0  0  0  0  0  0  0  0  0  0  0
    4.8100   -3.2396    1.2463 H   0  0  0  0  0  0  0  0  0  0  0  0
    7.9603   -1.5492   -1.1646 H   0  0  0  0  0  0  0  0  0  0  0  0
    6.2922   -1.2611   -1.6650 H   0  0  0  0  0  0  0  0  0  0  0  0
    7.1992   -2.8170    0.8101 H   0  0  0  0  0  0  0  0  0  0  0  0
    7.4556   -4.0675   -1.3145 H   0  0  0  0  0  0  0  0  0  0  0  0
    6.1619   -4.7608   -0.3252 H   0  0  0  0  0  0  0  0  0  0  0  0
    5.7610   -3.7554   -1.7283 H   0  0  0  0  0  0  0  0  0  0  0  0
   -7.2638   -1.6755   -1.5653 H   0  0  0  0  0  0  0  0  0  0  0  0
   -5.5361    0.3645    1.8402 H   0  0  0  0  0  0  0  0  0  0  0  0
   -9.5115   -1.2375   -0.6577 H   0  0  0  0  0  0  0  0  0  0  0  0
   -7.7783    0.8073    2.7004 H   0  0  0  0  0  0  0  0  0  0  0  0
   -9.7788    0.0060    1.4723 H   0  0  0  0  0  0  0  0  0  0  0  0
  1  9  1  0  0  0  0
  1 55  1  0  0  0  0
  2 20  2  0  0  0  0
  3 21  2  0  0  0  0
  4 13  1  0  0  0  0
  4 21  1  0  0  0  0
  4 54  1  0  0  0  0
  5 20  1  0  0  0  0
  5 22  1  0  0  0  0
  5 23  1  0  0  0  0
  6  7  1  0  0  0  0
  6 10  1  0  0  0  0
  6 12  1  0  0  0  0
  6 16  1  0  0  0  0
  7  8  1  0  0  0  0
  7  9  1  0  0  0  0
  7 34  1  0  0  0  0
  8 13  1  0  0  0  0
  8 18  1  0  0  0  0
  8 35  1  0  0  0  0
  9 11  1  0  0  0  0
  9 36  1  0  0  0  0
 10 14  1  0  0  0  0
 10 37  1  0  0  0  0
 10 38  1  0  0  0  0
 11 14  1  0  0  0  0
 11 17  1  0  0  0  0
 11 39  1  0  0  0  0
 12 15  1  0  0  0  0
 12 40  1  0  0  0  0
 12 41  1  0  0  0  0
 13 15  1  0  0  0  0
 13 42  1  0  0  0  0
 14 43  1  0  0  0  0
 14 44  1  0  0  0  0
 15 45  1  0  0  0  0
 15 46  1  0  0  0  0
 16 47  1  0  0  0  0
 16 48  1  0  0  0  0
 16 49  1  0  0  0  0
 17 19  1  0  0  0  0
 17 20  1  0  0  0  0
 17 50  1  0  0  0  0
 18 51  1  0  0  0  0
 18 52  1  0  0  0  0
 18 53  1  0  0  0  0
 19 56  1  0  0  0  0
 19 57  1  0  0  0  0
 19 58  1  0  0  0  0
 21 27  1  0  0  0  0
 22 24  1  0  0  0  0
 22 59  1  0  0  0  0
 22 60  1  0  0  0  0
 23 25  1  0  0  0  0
 23 61  1  0  0  0  0
 23 62  1  0  0  0  0
 24 26  1  0  0  0  0
 24 63  1  0  0  0  0
 24 64  1  0  0  0  0
 25 26  1  0  0  0  0
 25 65  1  0  0  0  0
 25 66  1  0  0  0  0
 26 28  1  0  0  0  0
 26 67  1  0  0  0  0
 27 29  2  0  0  0  0
 27 30  1  0  0  0  0
 28 68  1  0  0  0  0
 28 69  1  0  0  0  0
 28 70  1  0  0  0  0
 29 31  1  0  0  0  0
 29 71  1  0  0  0  0
 30 32  2  0  0  0  0
 30 72  1  0  0  0  0
 31 33  2  0  0  0  0
 31 73  1  0  0  0  0
 32 33  1  0  0  0  0
 32 74  1  0  0  0  0
 33 75  1  0  0  0  0
M  END
> <PUBCHEM_COMPOUND_CID>
45361404

> <PUBCHEM_CONFORMER_RMSD>
1

> <PUBCHEM_CONFORMER_DIVERSEORDER>
1
23
15
28
69
52
70
25
73
51
61
32
56
54
68
72
37
64
36
63
66
62
42
60
19
18
65
41
50
16
67
47
58
9
33
55
71
13
74
49
34
4
31
39
57
38
27
29
43
35
22
10
30
26
7
45
59
3
40
6
46
53
14
21
44
5
12
24
48
20
8
11
2
17

> <PUBCHEM_MMFF94_PARTIAL_CHARGES>
25
1 -0.68
13 0.3
17 0.06
2 -0.57
20 0.57
21 0.54
22 0.3
23 0.3
27 0.09
29 -0.15
3 -0.57
30 -0.15
31 -0.15
32 -0.15
33 -0.15
4 -0.73
5 -0.66
54 0.37
55 0.4
71 0.15
72 0.15
73 0.15
74 0.15
75 0.15
9 0.28

> <PUBCHEM_EFFECTIVE_ROTOR_COUNT>
8.8

> <PUBCHEM_PHARMACOPHORE_FEATURES>
10
1 1 acceptor
1 1 donor
1 19 hydrophobe
1 2 acceptor
1 3 acceptor
1 4 donor
6 27 29 30 31 32 33 rings
6 5 22 23 24 25 26 rings
6 6 7 8 12 13 15 rings
6 6 7 9 10 11 14 rings

> <PUBCHEM_HEAVY_ATOM_COUNT>
33

> <PUBCHEM_ATOM_DEF_STEREO_COUNT>
6

> <PUBCHEM_ATOM_UDEF_STEREO_COUNT>
1

> <PUBCHEM_BOND_DEF_STEREO_COUNT>
0

> <PUBCHEM_BOND_UDEF_STEREO_COUNT>
0

> <PUBCHEM_ISOTOPIC_ATOM_COUNT>
0

> <PUBCHEM_COMPONENT_COUNT>
1

> <PUBCHEM_CACTVS_TAUTO_COUNT>
2

> <PUBCHEM_CONFORMER_ID>
02B428FC00000001

> <PUBCHEM_MMFF94_ENERGY>
96.3401

> <PUBCHEM_FEATURE_SELFOVERLAP>
50.761

> <PUBCHEM_SHAPE_FINGERPRINT>
10 15 15697996366416153050
10076449 9 17822012003873377748
10299344 5 18272932734979022811
10319688 67 14261343639814913575
10533779 47 18411149022129807411
11181472 205 18341061756475078753
11331351 85 18260546740845538677
11409948 35 18340484457373408319
117089 54 17841155455593205854
11719270 70 16056887939553283141
12133447 93 17023176099221628863
12373685 5 16773791490385943175
12522641 24 18342735243321110832
13533116 47 18341609339377659560
13617811 41 16225766307430790238
13673619 4 18334009463372009436
13782708 43 18336253587752102110
14117953 113 17240760701647578607
14347424 109 17846213388767163048
14675020 138 15195570086986478326
15131766 46 17270867682630438968
15198563 99 17096076996749941045
15301273 46 17967247594709277125
15669420 48 16732707156077169526
16728300 4 17702382836938007894
16728433 281 12975255876535132559
16994733 274 8430321229744614647
19301679 30 17631459960664781942
19315958 150 18336267950423362032
20105231 36 17167866366049062027
2026 5 17897153638646139322
20505436 4 17058076964978567476
20554085 129 13830130576816568991
20737093 193 15075712526776020950
21049683 271 14273458098085362351
21130935 74 18269835470943011451
21150785 3 12540694825570830083
21267235 1 16877940551361931821
21344244 181 18114183025562873370
21403212 168 13758071879008877798
21781051 124 15719687523551280105
21792934 111 15123519060064250007
21792938 703 17969508281138216435
21792965 25 17912370827670681737
21859007 373 15267062515110434177
23516275 100 9871454418875164482
23569943 247 18262512577204584955
25269216 80 16588028965722184366
2747138 104 16950282927622980249
34797466 226 17458063798614978524
4093350 32 18041281092647074748
4258327 124 11386380226451199851
445580 167 10809344460264333667
46194498 28 18040994047603741860
5265222 85 11674887701799570009
58260988 647 18338801109561117834
59755656 215 17603862291041476482
70634741 139 8285902585476818201
9831232 110 18261387802736928702

> <PUBCHEM_SHAPE_MULTIPOLES>
651.55
24.36
2.7
1.93
29.65
1.08
-0.3
16.3
5.48
-6.65
-0.52
0.68
-0.54
0.67

> <PUBCHEM_SHAPE_SELFOVERLAP>
1365.058

> <PUBCHEM_SHAPE_VOLUME>
364

> <PUBCHEM_COORDINATE_TYPE>
2
5
10

$$$$
