11942948
  -OEChem-12032416153D

 61 65  0     1  0  0  0  0  0999 V2000
    2.6194    4.0397    0.3259 F   0  0  0  0  0  0  0  0  0  0  0  0
   -2.9761    0.6838   -1.8764 O   0  0  0  0  0  0  0  0  0  0  0  0
    4.5476   -1.0511   -1.4494 O   0  0  0  0  0  0  0  0  0  0  0  0
   -3.1724   -2.8310   -0.0446 N   0  0  2  0  0  0  0  0  0  0  0  0
    0.5398   -2.5566   -0.7521 N   0  0  0  0  0  0  0  0  0  0  0  0
   -3.3169    1.9327    0.0582 N   0  0  0  0  0  0  0  0  0  0  0  0
    1.2631   -3.6384   -0.4480 N   0  0  0  0  0  0  0  0  0  0  0  0
    2.5046   -3.2204   -0.2271 N   0  0  0  0  0  0  0  0  0  0  0  0
   -2.9238   -0.6364    1.3315 C   0  0  2  0  0  0  0  0  0  0  0  0
   -1.7342   -2.5558    0.2162 C   0  0  2  0  0  0  0  0  0  0  0  0
   -3.7936   -0.4140    0.0793 C   0  0  2  0  0  0  0  0  0  0  0  0
   -1.5488   -1.1823    0.8978 C   0  0  0  0  0  0  0  0  0  0  0  0
   -3.6123   -1.7354    2.1608 C   0  0  0  0  0  0  0  0  0  0  0  0
   -3.7898   -1.6952   -0.7733 C   0  0  0  0  0  0  0  0  0  0  0  0
   -3.8556   -2.9653    1.2662 C   0  0  0  0  0  0  0  0  0  0  0  0
   -0.8780   -2.6846   -1.0456 C   0  0  0  0  0  0  0  0  0  0  0  0
   -3.3241    0.7760   -0.7023 C   0  0  0  0  0  0  0  0  0  0  0  0
    3.8060   -1.0706   -0.2220 C   0  0  0  0  0  0  0  0  0  0  0  0
    4.7297   -1.6320    0.8748 C   0  0  0  0  0  0  0  0  0  0  0  0
    3.6348    0.3789    0.2621 C   0  0  0  0  0  0  0  0  0  0  0  0
    2.5287   -1.8645   -0.4011 C   0  0  0  0  0  0  0  0  0  0  0  0
    1.2749   -1.4206   -0.7388 C   0  0  0  0  0  0  0  0  0  0  0  0
    5.6804   -0.4909    1.2408 C   0  0  0  0  0  0  0  0  0  0  0  0
    5.0226    0.7908    0.7430 C   0  0  0  0  0  0  0  0  0  0  0  0
   -2.8849    3.2129   -0.4543 C   0  0  0  0  0  0  0  0  0  0  0  0
   -1.4147    3.4346   -0.2459 C   0  0  0  0  0  0  0  0  0  0  0  0
   -0.9696    4.0418    0.9223 C   0  0  0  0  0  0  0  0  0  0  0  0
   -0.5135    3.0294   -1.2234 C   0  0  0  0  0  0  0  0  0  0  0  0
    0.3965    4.2469    1.1157 C   0  0  0  0  0  0  0  0  0  0  0  0
    0.8526    3.2345   -1.0299 C   0  0  0  0  0  0  0  0  0  0  0  0
    1.3075    3.8432    0.1397 C   0  0  0  0  0  0  0  0  0  0  0  0
   -2.7937    0.2605    1.9437 H   0  0  0  0  0  0  0  0  0  0  0  0
   -1.3735   -3.3268    0.9133 H   0  0  0  0  0  0  0  0  0  0  0  0
   -4.8258   -0.2004    0.3920 H   0  0  0  0  0  0  0  0  0  0  0  0
   -0.8993   -1.2906    1.7752 H   0  0  0  0  0  0  0  0  0  0  0  0
   -1.0831   -0.4454    0.2373 H   0  0  0  0  0  0  0  0  0  0  0  0
   -4.5655   -1.3714    2.5615 H   0  0  0  0  0  0  0  0  0  0  0  0
   -2.9824   -2.0104    3.0154 H   0  0  0  0  0  0  0  0  0  0  0  0
   -4.8284   -1.9619   -1.0122 H   0  0  0  0  0  0  0  0  0  0  0  0
   -3.3110   -1.5877   -1.7508 H   0  0  0  0  0  0  0  0  0  0  0  0
   -3.5087   -3.8722    1.7771 H   0  0  0  0  0  0  0  0  0  0  0  0
   -4.9320   -3.1118    1.1100 H   0  0  0  0  0  0  0  0  0  0  0  0
   -1.0235   -3.6611   -1.5233 H   0  0  0  0  0  0  0  0  0  0  0  0
   -1.1137   -1.9154   -1.7896 H   0  0  0  0  0  0  0  0  0  0  0  0
    5.2921   -2.5130    0.5457 H   0  0  0  0  0  0  0  0  0  0  0  0
    4.1506   -1.9157    1.7630 H   0  0  0  0  0  0  0  0  0  0  0  0
    2.9212    0.4348    1.0938 H   0  0  0  0  0  0  0  0  0  0  0  0
    3.2887    1.0475   -0.5330 H   0  0  0  0  0  0  0  0  0  0  0  0
   -3.6682    1.9120    1.0105 H   0  0  0  0  0  0  0  0  0  0  0  0
    0.8791   -0.4423   -0.9713 H   0  0  0  0  0  0  0  0  0  0  0  0
    5.8531   -0.4614    2.3218 H   0  0  0  0  0  0  0  0  0  0  0  0
    6.6549   -0.6263    0.7583 H   0  0  0  0  0  0  0  0  0  0  0  0
    5.6035    1.2088   -0.0877 H   0  0  0  0  0  0  0  0  0  0  0  0
    4.9689    1.5565    1.5231 H   0  0  0  0  0  0  0  0  0  0  0  0
   -3.1346    3.2808   -1.5199 H   0  0  0  0  0  0  0  0  0  0  0  0
   -3.4681    3.9870    0.0575 H   0  0  0  0  0  0  0  0  0  0  0  0
    4.7665   -1.9703   -1.6799 H   0  0  0  0  0  0  0  0  0  0  0  0
   -1.6701    4.3581    1.6901 H   0  0  0  0  0  0  0  0  0  0  0  0
   -0.8546    2.5556   -2.1394 H   0  0  0  0  0  0  0  0  0  0  0  0
    0.7513    4.7200    2.0266 H   0  0  0  0  0  0  0  0  0  0  0  0
    1.5623    2.9193   -1.7891 H   0  0  0  0  0  0  0  0  0  0  0  0
  1 31  1  0  0  0  0
  2 17  2  0  0  0  0
  3 18  1  0  0  0  0
  3 57  1  0  0  0  0
  4 10  1  0  0  0  0
  4 14  1  0  0  0  0
  4 15  1  0  0  0  0
  5  7  1  0  0  0  0
  5 16  1  0  0  0  0
  5 22  1  0  0  0  0
  6 17  1  0  0  0  0
  6 25  1  0  0  0  0
  6 49  1  0  0  0  0
  7  8  2  0  0  0  0
  8 21  1  0  0  0  0
  9 11  1  0  0  0  0
  9 12  1  0  0  0  0
  9 13  1  0  0  0  0
  9 32  1  0  0  0  0
 10 12  1  0  0  0  0
 10 16  1  0  0  0  0
 10 33  1  0  0  0  0
 11 14  1  0  0  0  0
 11 17  1  0  0  0  0
 11 34  1  0  0  0  0
 12 35  1  0  0  0  0
 12 36  1  0  0  0  0
 13 15  1  0  0  0  0
 13 37  1  0  0  0  0
 13 38  1  0  0  0  0
 14 39  1  0  0  0  0
 14 40  1  0  0  0  0
 15 41  1  0  0  0  0
 15 42  1  0  0  0  0
 16 43  1  0  0  0  0
 16 44  1  0  0  0  0
 18 19  1  0  0  0  0
 18 20  1  0  0  0  0
 18 21  1  0  0  0  0
 19 23  1  0  0  0  0
 19 45  1  0  0  0  0
 19 46  1  0  0  0  0
 20 24  1  0  0  0  0
 20 47  1  0  0  0  0
 20 48  1  0  0  0  0
 21 22  2  0  0  0  0
 22 50  1  0  0  0  0
 23 24  1  0  0  0  0
 23 51  1  0  0  0  0
 23 52  1  0  0  0  0
 24 53  1  0  0  0  0
 24 54  1  0  0  0  0
 25 26  1  0  0  0  0
 25 55  1  0  0  0  0
 25 56  1  0  0  0  0
 26 27  2  0  0  0  0
 26 28  1  0  0  0  0
 27 29  1  0  0  0  0
 27 58  1  0  0  0  0
 28 30  2  0  0  0  0
 28 59  1  0  0  0  0
 29 31  2  0  0  0  0
 29 60  1  0  0  0  0
 30 31  1  0  0  0  0
 30 61  1  0  0  0  0
M  END
> <PUBCHEM_COMPOUND_CID>
11942948

> <PUBCHEM_CONFORMER_RMSD>
1

> <PUBCHEM_CONFORMER_DIVERSEORDER>
1
31
118
105
86
170
172
200
79
30
147
68
5
55
99
88
158
81
63
43
149
128
103
4
69
166
197
139
134
116
168
129
176
120
188
138
124
11
84
85
57
14
108
173
44
189
183
32
133
93
59
76
12
163
152
160
191
39
154
132
150
184
13
161
25
196
82
109
26
110
202
198
142
201
125
27
48
162
101
17
157
51
181
34
122
92
187
148
35
106
21
186
89
193
135
77
62
111
50
180
143
153
123
22
190
141
2
144
130
145
58
71
83
38
65
28
131
10
146
45
113
19
74
67
199
60
140
15
121
33
169
91
175
95
195
203
73
102
72
41
115
167
159
24
23
205
52
179
206
53
75
107
80
47
182
40
96
126
16
185
64
46
112
70
136
127
98
151
155
104
9
78
171
174
66
49
164
29
87
100
7
114
3
94
42
8
165
18
61
192
56
97
6
119
204
194
178
36
156
117
90
37
54
137
20
177

> <PUBCHEM_MMFF94_PARTIAL_CHARGES>
31
1 -0.19
10 0.27
11 0.06
14 0.27
15 0.27
16 0.26
17 0.57
18 0.46
2 -0.57
21 0.05
22 -0.3
25 0.44
26 -0.14
27 -0.15
28 -0.15
29 -0.15
3 -0.68
30 -0.15
31 0.19
4 -0.81
49 0.37
5 0.31
50 0.15
57 0.4
58 0.15
59 0.15
6 -0.73
60 0.15
61 0.15
7 -0.42
8 -0.23

> <PUBCHEM_EFFECTIVE_ROTOR_COUNT>
9.2

> <PUBCHEM_PHARMACOPHORE_FEATURES>
9
1 2 acceptor
1 3 acceptor
1 3 donor
1 4 cation
1 6 donor
5 18 19 20 23 24 rings
5 5 7 8 21 22 rings
6 26 27 28 29 30 31 rings
8 4 9 10 11 12 13 14 15 rings

> <PUBCHEM_HEAVY_ATOM_COUNT>
31

> <PUBCHEM_ATOM_DEF_STEREO_COUNT>
3

> <PUBCHEM_ATOM_UDEF_STEREO_COUNT>
0

> <PUBCHEM_BOND_DEF_STEREO_COUNT>
0

> <PUBCHEM_BOND_UDEF_STEREO_COUNT>
0

> <PUBCHEM_ISOTOPIC_ATOM_COUNT>
0

> <PUBCHEM_COMPONENT_COUNT>
1

> <PUBCHEM_CACTVS_TAUTO_COUNT>
2

> <PUBCHEM_CONFORMER_ID>
00B63C2400000001

> <PUBCHEM_MMFF94_ENERGY>
65.706

> <PUBCHEM_FEATURE_SELFOVERLAP>
45.672

> <PUBCHEM_SHAPE_FINGERPRINT>
10670039 82 18337127691660578726
10675989 125 17110706878999203157
13122387 1 18410858801692190324
13402501 40 18339635633847833568
13561361 72 18338505353812723760
14081887 123 18265896865261525510
14363568 33 18049180043856573616
14725015 67 18334563638733696873
14747282 125 17839477918528119228
150020 26 18047196533559671297
15840311 113 17200257845960094681
16067689 391 17126501446038093278
16067690 210 18115857530210548744
17627616 140 17832988621732385916
17852330 134 17835784672289202615
19930381 70 18050567645037412215
20764821 26 18267574883256876220
21344244 246 17763727086502942663
325973 47 18339921515882976548
373842 8 18265038293258318440
445580 102 18409171042890840972
474144 1 17896336868360832692
508706 21 18194968431332689390
5309563 4 18265900344158791305
57091435 65 17976263752696306136
6004065 56 18341039766937946431

> <PUBCHEM_SHAPE_MULTIPOLES>
594.05
9.59
6.68
1.44
9.22
6.35
0.2
-5.18
2.38
-1.09
0.16
-0.61
-0.18
1.4

> <PUBCHEM_SHAPE_SELFOVERLAP>
1282.65

> <PUBCHEM_SHAPE_VOLUME>
328

> <PUBCHEM_COORDINATE_TYPE>
2
5
10

$$$$
