11911722
  -OEChem-12032416343D

 57 61  0     1  0  0  0  0  0999 V2000
    4.3324    1.9838   -1.8264 S   0  0  0  0  0  0  0  0  0  0  0  0
    2.6203   -3.1329    1.3695 O   0  0  0  0  0  0  0  0  0  0  0  0
    1.2787   -0.3514    1.8169 O   0  0  0  0  0  0  0  0  0  0  0  0
    5.9205    0.6865    1.4245 O   0  0  0  0  0  0  0  0  0  0  0  0
   -0.1126   -3.1412   -0.0831 N   0  0  0  0  0  0  0  0  0  0  0  0
    3.9653    0.1038    0.3217 N   0  0  0  0  0  0  0  0  0  0  0  0
   -1.9221   -1.6685   -0.3347 N   0  0  0  0  0  0  0  0  0  0  0  0
   -1.5577   -3.4606   -1.9041 N   0  0  0  0  0  0  0  0  0  0  0  0
   -5.8161    3.1734    0.9210 N   0  0  0  0  0  0  0  0  0  0  0  0
    1.2342   -1.3037    0.7410 C   0  0  1  0  0  0  0  0  0  0  0  0
    2.6195   -1.9080    0.6177 C   0  0  1  0  0  0  0  0  0  0  0  0
    0.3529   -2.4728    1.1124 C   0  0  2  0  0  0  0  0  0  0  0  0
    3.5248   -0.8892    1.2714 C   0  0  2  0  0  0  0  0  0  0  0  0
    1.3014   -3.3736    1.8820 C   0  0  0  0  0  0  0  0  0  0  0  0
    2.6188   -0.2786    2.3257 C   0  0  0  0  0  0  0  0  0  0  0  0
   -1.2307   -2.7449   -0.7953 C   0  0  0  0  0  0  0  0  0  0  0  0
    5.1440    0.8180    0.4819 C   0  0  0  0  0  0  0  0  0  0  0  0
    5.4433    1.8232   -0.5702 C   0  0  0  0  0  0  0  0  0  0  0  0
   -3.0064   -1.3099   -1.0530 C   0  0  0  0  0  0  0  0  0  0  0  0
    6.5140    2.6292   -0.6331 C   0  0  0  0  0  0  0  0  0  0  0  0
   -2.6533   -3.0470   -2.5742 C   0  0  0  0  0  0  0  0  0  0  0  0
   -3.4237   -1.9680   -2.1920 C   0  0  0  0  0  0  0  0  0  0  0  0
   -3.7249   -0.1647   -0.5476 C   0  0  0  0  0  0  0  0  0  0  0  0
    6.4399    3.4524   -1.7936 C   0  0  0  0  0  0  0  0  0  0  0  0
    5.3038    3.2046   -2.5321 C   0  0  0  0  0  0  0  0  0  0  0  0
   -5.1019   -0.0545   -0.7526 C   0  0  0  0  0  0  0  0  0  0  0  0
   -3.0452    0.8383    0.1470 C   0  0  0  0  0  0  0  0  0  0  0  0
   -5.1142    2.0536    0.4277 C   0  0  0  0  0  0  0  0  0  0  0  0
   -5.7957    1.0534   -0.2655 C   0  0  0  0  0  0  0  0  0  0  0  0
   -3.7389    1.9460    0.6340 C   0  0  0  0  0  0  0  0  0  0  0  0
   -5.3714    3.8458    2.1254 C   0  0  0  0  0  0  0  0  0  0  0  0
   -6.9989    3.6574    0.2376 C   0  0  0  0  0  0  0  0  0  0  0  0
    0.9261   -0.7617   -0.1588 H   0  0  0  0  0  0  0  0  0  0  0  0
    2.8899   -2.1557   -0.4138 H   0  0  0  0  0  0  0  0  0  0  0  0
   -0.4899   -2.2026    1.7590 H   0  0  0  0  0  0  0  0  0  0  0  0
    4.4046   -1.3414    1.7417 H   0  0  0  0  0  0  0  0  0  0  0  0
    1.0695   -4.4398    1.7978 H   0  0  0  0  0  0  0  0  0  0  0  0
    1.3148   -3.1090    2.9452 H   0  0  0  0  0  0  0  0  0  0  0  0
    2.6463   -0.8634    3.2518 H   0  0  0  0  0  0  0  0  0  0  0  0
    2.8572    0.7615    2.5684 H   0  0  0  0  0  0  0  0  0  0  0  0
    0.4247   -3.9117   -0.4644 H   0  0  0  0  0  0  0  0  0  0  0  0
    3.3619    0.3181   -0.4673 H   0  0  0  0  0  0  0  0  0  0  0  0
    7.3225    2.6598    0.0857 H   0  0  0  0  0  0  0  0  0  0  0  0
   -2.8993   -3.6231   -3.4599 H   0  0  0  0  0  0  0  0  0  0  0  0
   -4.2774   -1.6761   -2.7900 H   0  0  0  0  0  0  0  0  0  0  0  0
    7.1822    4.1889   -2.0728 H   0  0  0  0  0  0  0  0  0  0  0  0
    4.9978    3.6822   -3.4523 H   0  0  0  0  0  0  0  0  0  0  0  0
   -5.6765   -0.8231   -1.2627 H   0  0  0  0  0  0  0  0  0  0  0  0
   -1.9714    0.7919    0.3133 H   0  0  0  0  0  0  0  0  0  0  0  0
   -6.8690    1.0984   -0.4275 H   0  0  0  0  0  0  0  0  0  0  0  0
   -3.1766    2.7141    1.1575 H   0  0  0  0  0  0  0  0  0  0  0  0
   -6.1739    4.4538    2.5580 H   0  0  0  0  0  0  0  0  0  0  0  0
   -5.0689    3.1287    2.8968 H   0  0  0  0  0  0  0  0  0  0  0  0
   -4.5321    4.5150    1.9088 H   0  0  0  0  0  0  0  0  0  0  0  0
   -7.8720    3.0483    0.4942 H   0  0  0  0  0  0  0  0  0  0  0  0
   -7.2235    4.6917    0.5217 H   0  0  0  0  0  0  0  0  0  0  0  0
   -6.8646    3.6525   -0.8500 H   0  0  0  0  0  0  0  0  0  0  0  0
  1 18  1  0  0  0  0
  1 25  1  0  0  0  0
  2 11  1  0  0  0  0
  2 14  1  0  0  0  0
  3 10  1  0  0  0  0
  3 15  1  0  0  0  0
  4 17  2  0  0  0  0
  5 12  1  0  0  0  0
  5 16  1  0  0  0  0
  5 41  1  0  0  0  0
  6 13  1  0  0  0  0
  6 17  1  0  0  0  0
  6 42  1  0  0  0  0
  7 16  1  0  0  0  0
  7 19  2  0  0  0  0
  8 16  2  0  0  0  0
  8 21  1  0  0  0  0
  9 28  1  0  0  0  0
  9 31  1  0  0  0  0
  9 32  1  0  0  0  0
 10 11  1  0  0  0  0
 10 12  1  0  0  0  0
 10 33  1  0  0  0  0
 11 13  1  0  0  0  0
 11 34  1  0  0  0  0
 12 14  1  0  0  0  0
 12 35  1  0  0  0  0
 13 15  1  0  0  0  0
 13 36  1  0  0  0  0
 14 37  1  0  0  0  0
 14 38  1  0  0  0  0
 15 39  1  0  0  0  0
 15 40  1  0  0  0  0
 17 18  1  0  0  0  0
 18 20  2  0  0  0  0
 19 22  1  0  0  0  0
 19 23  1  0  0  0  0
 20 24  1  0  0  0  0
 20 43  1  0  0  0  0
 21 22  2  0  0  0  0
 21 44  1  0  0  0  0
 22 45  1  0  0  0  0
 23 26  2  0  0  0  0
 23 27  1  0  0  0  0
 24 25  2  0  0  0  0
 24 46  1  0  0  0  0
 25 47  1  0  0  0  0
 26 29  1  0  0  0  0
 26 48  1  0  0  0  0
 27 30  2  0  0  0  0
 27 49  1  0  0  0  0
 28 29  2  0  0  0  0
 28 30  1  0  0  0  0
 29 50  1  0  0  0  0
 30 51  1  0  0  0  0
 31 52  1  0  0  0  0
 31 53  1  0  0  0  0
 31 54  1  0  0  0  0
 32 55  1  0  0  0  0
 32 56  1  0  0  0  0
 32 57  1  0  0  0  0
M  END
> <PUBCHEM_COMPOUND_CID>
11911722

> <PUBCHEM_CONFORMER_RMSD>
1

> <PUBCHEM_CONFORMER_DIVERSEORDER>
1
5
28
56
52
67
4
31
58
33
43
44
49
9
51
35
59
8
60
45
18
63
40
54
47
26
68
64
15
41
24
38
21
6
32
13
16
55
36
34
23
50
25
19
65
57
10
53
14
11
17
46
27
37
66
29
20
7
39
62
48
22
61
30
12
3
42
2

> <PUBCHEM_MMFF94_PARTIAL_CHARGES>
42
1 -0.08
10 0.28
11 0.28
12 0.37
13 0.3
14 0.28
15 0.28
16 0.72
17 0.71
18 -0.05
19 0.31
2 -0.56
20 -0.15
21 0.16
22 -0.15
24 -0.15
25 -0.11
26 -0.15
27 -0.15
28 0.1
29 -0.15
3 -0.56
30 -0.15
31 0.37
32 0.37
4 -0.57
41 0.4
42 0.37
43 0.15
44 0.15
45 0.15
46 0.15
47 0.15
48 0.15
49 0.15
5 -0.87
50 0.15
51 0.15
6 -0.73
7 -0.62
8 -0.62
9 -0.84

> <PUBCHEM_EFFECTIVE_ROTOR_COUNT>
8.2

> <PUBCHEM_PHARMACOPHORE_FEATURES>
13
1 2 acceptor
1 3 acceptor
1 4 acceptor
1 5 donor
1 6 donor
1 7 acceptor
1 9 cation
4 5 7 8 16 cation
5 1 18 20 24 25 rings
5 2 10 11 12 14 rings
5 3 10 11 13 15 rings
6 23 26 27 28 29 30 rings
6 7 8 16 19 21 22 rings

> <PUBCHEM_HEAVY_ATOM_COUNT>
32

> <PUBCHEM_ATOM_DEF_STEREO_COUNT>
4

> <PUBCHEM_ATOM_UDEF_STEREO_COUNT>
0

> <PUBCHEM_BOND_DEF_STEREO_COUNT>
0

> <PUBCHEM_BOND_UDEF_STEREO_COUNT>
0

> <PUBCHEM_ISOTOPIC_ATOM_COUNT>
0

> <PUBCHEM_COMPONENT_COUNT>
1

> <PUBCHEM_CACTVS_TAUTO_COUNT>
6

> <PUBCHEM_CONFORMER_ID>
00B5C22A00000001

> <PUBCHEM_MMFF94_ENERGY>
105.0163

> <PUBCHEM_FEATURE_SELFOVERLAP>
66.679

> <PUBCHEM_SHAPE_FINGERPRINT>
100830 2 18408328786829919212
10556698 54 17845074341607224977
10794284 68 18198634427071581519
10917259 128 18269541906177182496
11049842 53 17987783117257706678
11200772 71 18342460382409867300
11374522 72 18189053097873767469
11399939 17 16904983864191725672
11410812 94 18129949009494778124
11505856 67 18337952406864859463
11801155 225 18341339898368043592
12061779 8 18114754831892138460
12104220 4 18261690202731002564
12655364 74 17395325823573661580
12975358 362 17983027644148595937
13885169 86 18187649128086168476
14114211 68 17560245704998851555
14187579 7 17981323709750484828
14251764 75 18408891711065855321
14400156 188 17107081219018640923
14664723 55 18408609175390556476
14840074 17 17894910749828737660
14849402 71 18115022979669459370
15163728 17 18340774835827899446
15198563 99 17629456835431860687
15357212 105 18340218409787050731
15448158 71 18262225625933035316
15513586 35 17896880061317128757
16112460 7 18188206615273998708
16120349 67 18338526330148023970
16992727 255 18343582941385795352
1768 23 18334018306614934232
19304671 126 16128361667379362345
19309040 13 18334587831783068291
19315092 285 8430313533237015238
19319366 153 18334571309060056211
21033650 10 18127977606024348082
21458453 9 14635445959963283868
21772528 278 17531258304628931928
21774942 28 18267585887934188588
21792964 463 18263061289883985551
23569914 152 17843143424260164924
245318 6 18198626540962454041
24771750 20 17631741452668973215
3388396 114 17115789367208554572
3552219 110 18116426145764760951
3610482 184 18339363088466633110
38570 142 18261683622941201182
4112364 45 18189061910951083645
4258327 124 18260257565281882311
4408954 64 8950589400143156358
5252454 2 18270099237447287907
57634706 229 17677907901730338938
57724786 102 18263639580659052163
5911458 16 18407762551226347436
6034566 193 18115026419257261343
6058803 2 18266714970575324723
6700243 42 16986018279111547022
7288768 16 17677051351248239826
7808743 9 18201144499704481907

> <PUBCHEM_SHAPE_MULTIPOLES>
619.88
17.97
5.76
2.43
3.86
0.77
-0.53
27.14
-2.45
-2.44
-0.58
1.02
-0.48
-8.39

> <PUBCHEM_SHAPE_SELFOVERLAP>
1343.043

> <PUBCHEM_SHAPE_VOLUME>
342.6

> <PUBCHEM_COORDINATE_TYPE>
2
5
10

$$$$
