45784301
  -OEChem-12032416283D

 47 50  0     1  0  0  0  0  0999 V2000
    7.4425   -0.1915   -0.2088 O   0  0  0  0  0  0  0  0  0  0  0  0
   -2.0001   -0.2303   -0.1666 N   0  0  1  0  0  0  0  0  0  0  0  0
    2.6736   -1.1702    0.3185 N   0  0  0  0  0  0  0  0  0  0  0  0
    2.0548    0.9484    0.0563 N   0  0  0  0  0  0  0  0  0  0  0  0
    0.2063   -0.7287    0.4523 C   0  0  1  0  0  0  0  0  0  0  0  0
   -0.5281   -0.0829    1.6401 C   0  0  0  0  0  0  0  0  0  0  0  0
   -0.6768   -0.4205   -0.7644 C   0  0  0  0  0  0  0  0  0  0  0  0
   -1.7604    0.5739    1.0317 C   0  0  0  0  0  0  0  0  0  0  0  0
    1.6377   -0.2793    0.2704 C   0  0  0  0  0  0  0  0  0  0  0  0
   -2.9367    0.4048   -1.0819 C   0  0  0  0  0  0  0  0  0  0  0  0
   -4.3652    0.2060   -0.6495 C   0  0  0  0  0  0  0  0  0  0  0  0
    3.8367   -0.4708    0.1221 C   0  0  0  0  0  0  0  0  0  0  0  0
    3.4238    0.8489   -0.0390 C   0  0  0  0  0  0  0  0  0  0  0  0
   -4.9908   -1.0238   -0.8542 C   0  0  0  0  0  0  0  0  0  0  0  0
   -5.0637    1.2523   -0.0472 C   0  0  0  0  0  0  0  0  0  0  0  0
    5.1736   -0.8671    0.0729 C   0  0  0  0  0  0  0  0  0  0  0  0
    4.3884    1.8457   -0.2632 C   0  0  0  0  0  0  0  0  0  0  0  0
    6.1202    0.1380   -0.1510 C   0  0  0  0  0  0  0  0  0  0  0  0
   -6.3150   -1.2073   -0.4564 C   0  0  0  0  0  0  0  0  0  0  0  0
   -6.3880    1.0689    0.3506 C   0  0  0  0  0  0  0  0  0  0  0  0
    5.7368    1.4709   -0.3162 C   0  0  0  0  0  0  0  0  0  0  0  0
   -7.0137   -0.1610    0.1461 C   0  0  0  0  0  0  0  0  0  0  0  0
   -8.4299   -0.3574    0.5707 C   0  0  0  0  0  0  0  0  0  0  0  0
    7.7740   -1.5669   -0.0332 C   0  0  0  0  0  0  0  0  0  0  0  0
    0.2010   -1.8162    0.6163 H   0  0  0  0  0  0  0  0  0  0  0  0
   -0.8290   -0.8638    2.3499 H   0  0  0  0  0  0  0  0  0  0  0  0
    0.0825    0.6442    2.1859 H   0  0  0  0  0  0  0  0  0  0  0  0
   -0.6700   -1.2498   -1.4802 H   0  0  0  0  0  0  0  0  0  0  0  0
   -0.3389    0.4854   -1.2851 H   0  0  0  0  0  0  0  0  0  0  0  0
   -2.6023    0.5508    1.7306 H   0  0  0  0  0  0  0  0  0  0  0  0
   -1.5361    1.6199    0.7860 H   0  0  0  0  0  0  0  0  0  0  0  0
   -2.7147    1.4707   -1.2273 H   0  0  0  0  0  0  0  0  0  0  0  0
   -2.8438   -0.0452   -2.0806 H   0  0  0  0  0  0  0  0  0  0  0  0
    2.5997   -2.1673    0.4713 H   0  0  0  0  0  0  0  0  0  0  0  0
   -4.4572   -1.8466   -1.3226 H   0  0  0  0  0  0  0  0  0  0  0  0
   -4.5874    2.2148    0.1193 H   0  0  0  0  0  0  0  0  0  0  0  0
    5.4042   -1.9156    0.2087 H   0  0  0  0  0  0  0  0  0  0  0  0
    4.1006    2.8841   -0.3928 H   0  0  0  0  0  0  0  0  0  0  0  0
   -6.7911   -2.1705   -0.6197 H   0  0  0  0  0  0  0  0  0  0  0  0
   -6.9211    1.8910    0.8207 H   0  0  0  0  0  0  0  0  0  0  0  0
    6.4913    2.2348   -0.4891 H   0  0  0  0  0  0  0  0  0  0  0  0
   -8.9412   -1.0754   -0.0795 H   0  0  0  0  0  0  0  0  0  0  0  0
   -8.9927    0.5808    0.5162 H   0  0  0  0  0  0  0  0  0  0  0  0
   -8.4654   -0.7284    1.5997 H   0  0  0  0  0  0  0  0  0  0  0  0
    7.4968   -1.9248    0.9643 H   0  0  0  0  0  0  0  0  0  0  0  0
    7.3526   -2.1887   -0.8304 H   0  0  0  0  0  0  0  0  0  0  0  0
    8.8633   -1.6485   -0.1087 H   0  0  0  0  0  0  0  0  0  0  0  0
  1 18  1  0  0  0  0
  1 24  1  0  0  0  0
  2  7  1  0  0  0  0
  2  8  1  0  0  0  0
  2 10  1  0  0  0  0
  3  9  1  0  0  0  0
  3 12  1  0  0  0  0
  3 34  1  0  0  0  0
  4  9  2  0  0  0  0
  4 13  1  0  0  0  0
  5  6  1  0  0  0  0
  5  7  1  0  0  0  0
  5  9  1  0  0  0  0
  5 25  1  0  0  0  0
  6  8  1  0  0  0  0
  6 26  1  0  0  0  0
  6 27  1  0  0  0  0
  7 28  1  0  0  0  0
  7 29  1  0  0  0  0
  8 30  1  0  0  0  0
  8 31  1  0  0  0  0
 10 11  1  0  0  0  0
 10 32  1  0  0  0  0
 10 33  1  0  0  0  0
 11 14  2  0  0  0  0
 11 15  1  0  0  0  0
 12 13  2  0  0  0  0
 12 16  1  0  0  0  0
 13 17  1  0  0  0  0
 14 19  1  0  0  0  0
 14 35  1  0  0  0  0
 15 20  2  0  0  0  0
 15 36  1  0  0  0  0
 16 18  2  0  0  0  0
 16 37  1  0  0  0  0
 17 21  2  0  0  0  0
 17 38  1  0  0  0  0
 18 21  1  0  0  0  0
 19 22  2  0  0  0  0
 19 39  1  0  0  0  0
 20 22  1  0  0  0  0
 20 40  1  0  0  0  0
 21 41  1  0  0  0  0
 22 23  1  0  0  0  0
 23 42  1  0  0  0  0
 23 43  1  0  0  0  0
 23 44  1  0  0  0  0
 24 45  1  0  0  0  0
 24 46  1  0  0  0  0
 24 47  1  0  0  0  0
M  END
> <PUBCHEM_COMPOUND_CID>
45784301

> <PUBCHEM_CONFORMER_RMSD>
0.8

> <PUBCHEM_CONFORMER_DIVERSEORDER>
1
36
50
21
25
19
31
52
49
48
18
33
4
30
45
37
32
10
26
38
15
24
7
29
41
35
42
44
13
28
16
34
46
11
22
47
12
39
5
14
2
6
23
27
40
20
9
43
8
53
17
3
51

> <PUBCHEM_MMFF94_PARTIAL_CHARGES>
31
1 -0.36
10 0.41
11 -0.14
12 -0.15
13 0.23
14 -0.15
15 -0.15
16 -0.15
17 -0.15
18 0.08
19 -0.15
2 -0.81
20 -0.15
21 -0.15
22 -0.14
23 0.14
24 0.28
3 0.03
34 0.27
35 0.15
36 0.15
37 0.15
38 0.15
39 0.15
4 -0.57
40 0.15
41 0.15
5 0.18
7 0.27
8 0.27
9 0.01

> <PUBCHEM_EFFECTIVE_ROTOR_COUNT>
5

> <PUBCHEM_PHARMACOPHORE_FEATURES>
8
1 1 acceptor
1 2 cation
1 3 donor
3 3 4 9 cation
5 2 5 6 7 8 rings
5 3 4 9 12 13 rings
6 11 14 15 19 20 22 rings
6 12 13 16 17 18 21 rings

> <PUBCHEM_HEAVY_ATOM_COUNT>
24

> <PUBCHEM_ATOM_DEF_STEREO_COUNT>
1

> <PUBCHEM_ATOM_UDEF_STEREO_COUNT>
0

> <PUBCHEM_BOND_DEF_STEREO_COUNT>
0

> <PUBCHEM_BOND_UDEF_STEREO_COUNT>
0

> <PUBCHEM_ISOTOPIC_ATOM_COUNT>
0

> <PUBCHEM_COMPONENT_COUNT>
1

> <PUBCHEM_CACTVS_TAUTO_COUNT>
2

> <PUBCHEM_CONFORMER_ID>
02BA9CED00000001

> <PUBCHEM_MMFF94_ENERGY>
61.1225

> <PUBCHEM_FEATURE_SELFOVERLAP>
40.704

> <PUBCHEM_SHAPE_FINGERPRINT>
10 15 13045944616010369785
10066227 49 18269556053340441054
10299344 5 18343582954212447127
10595046 47 18410571773786677705
106641 1 13045950117842480924
11315181 36 10665229242492725175
11408170 108 17631456662700436542
11524674 6 15913326923145424063
11646440 116 17022625273143745821
11719270 70 17775566421177650134
12166972 35 18334295383508613476
12236239 1 18202281411827921436
12730499 353 17894347765826612754
12838862 33 13973677283147596445
13533116 47 17023454258177580250
14123256 10 17167861968002127763
14170010 4 18260547844767839692
14251752 14 17703790314483882153
14251764 18 18407758135878004636
14251764 46 16774078471236309126
14294032 229 17058390101472880377
14849402 71 18189622803188376421
14856354 85 17846501465767600831
14933364 13 18410575089353880109
15183329 4 18408879624895632239
15419008 47 16370718245019075605
15537594 2 16128654146019762079
15716309 27 18410011044531873471
17093844 174 13470685954416827983
18006028 8 12535629371032905219
18335252 98 18408890633604129059
19489759 90 10737282438373287695
20157964 124 18408041827833273968
21033648 29 17750232677131220480
21095086 128 18409446999351469479
21150785 3 18409168814198030934
21267235 1 18410294688282452356
21315763 28 18411418414635234165
21792934 111 16056874719459395026
21792961 116 17846498089538346281
221357 26 18261107466074276868
22224240 67 15791731918564058273
23035841 295 17917992789362514783
23198884 109 18409167718933962849
232437 2 18409449198923338187
23536379 177 18413387631444343489
23559900 14 18268422602178835585
23569943 247 17243003562748456202
23622692 88 14562532890160493670
2747138 104 17095249137767319629
29717793 49 17989492918457868732
3004659 81 18342454842339178010
314173 85 14333411164085859027
328311 84 18187366519412106410
335352 9 18333737910534669670
347723 3 17203608189836485975
3545911 37 17748825219883282234
4073 2 18041283274157983018
4098825 35 18337390443983360209
4325135 7 18408603669621803573
4339292 15 16199573806533660375
5283156 175 17632861906366775074
5758199 1 17458063755517365537
59682541 35 16370731465376869329
59755656 215 17458061543620043474
59755656 520 17967809474625699779
9663363 56 15410891847527611579

> <PUBCHEM_SHAPE_MULTIPOLES>
473.1
24.09
1.39
0.95
4.81
0.2
-0.14
-2.78
0.99
-1.19
0.09
0.68
-0.01
-0.59

> <PUBCHEM_SHAPE_SELFOVERLAP>
1030.824

> <PUBCHEM_SHAPE_VOLUME>
260.1

> <PUBCHEM_COORDINATE_TYPE>
2
5
10

$$$$
