11885131
  -OEChem-12032416413D

 62 66  0     1  0  0  0  0  0999 V2000
   -2.7151    0.0968    2.2695 O   0  0  0  0  0  0  0  0  0  0  0  0
    1.5652   -0.3508   -1.9563 O   0  0  0  0  0  0  0  0  0  0  0  0
    6.9523    2.2635   -0.1127 O   0  0  0  0  0  0  0  0  0  0  0  0
   -2.7532   -1.3640    0.4649 N   0  0  0  0  0  0  0  0  0  0  0  0
    0.2065   -1.7952   -0.7288 N   0  0  0  0  0  0  0  0  0  0  0  0
   -3.3252    0.9177    0.2161 N   0  0  0  0  0  0  0  0  0  0  0  0
   -2.0542   -2.6270   -1.5914 C   0  0  1  0  0  0  0  0  0  0  0  0
   -1.2506   -3.3518    0.6112 C   0  0  2  0  0  0  0  0  0  0  0  0
   -1.7840   -3.8511   -0.7282 C   0  0  0  0  0  0  0  0  0  0  0  0
   -3.0888   -1.6970   -0.9284 C   0  0  0  0  0  0  0  0  0  0  0  0
   -2.3282   -2.4957    1.2978 C   0  0  0  0  0  0  0  0  0  0  0  0
   -0.7260   -1.9078   -1.8577 C   0  0  0  0  0  0  0  0  0  0  0  0
    0.0192   -2.5411    0.4366 C   0  0  0  0  0  0  0  0  0  0  0  0
   -2.9153   -0.1024    1.0667 C   0  0  0  0  0  0  0  0  0  0  0  0
   -3.5419    2.2688    0.6838 C   0  0  0  0  0  0  0  0  0  0  0  0
    0.9467   -2.5176    1.4070 C   0  0  0  0  0  0  0  0  0  0  0  0
    1.3471   -0.9928   -0.9272 C   0  0  0  0  0  0  0  0  0  0  0  0
   -3.2040    3.2902   -0.4073 C   0  0  0  0  0  0  0  0  0  0  0  0
   -4.9758    2.4526    1.1920 C   0  0  0  0  0  0  0  0  0  0  0  0
   -4.2323    3.2997   -1.5383 C   0  0  0  0  0  0  0  0  0  0  0  0
   -6.0012    2.4633    0.0583 C   0  0  0  0  0  0  0  0  0  0  0  0
    2.3508   -0.9570    0.1938 C   0  0  0  0  0  0  0  0  0  0  0  0
   -5.6498    3.4951   -1.0090 C   0  0  0  0  0  0  0  0  0  0  0  0
    2.1254   -1.7079    1.2822 C   0  0  0  0  0  0  0  0  0  0  0  0
    3.5560   -0.1135    0.1128 C   0  0  0  0  0  0  0  0  0  0  0  0
    4.7336   -0.6278   -0.4308 C   0  0  0  0  0  0  0  0  0  0  0  0
    3.5210    1.2008    0.5805 C   0  0  0  0  0  0  0  0  0  0  0  0
    5.8747    0.1709   -0.5065 C   0  0  0  0  0  0  0  0  0  0  0  0
    4.6621    1.9995    0.5046 C   0  0  0  0  0  0  0  0  0  0  0  0
    5.8389    1.4846   -0.0388 C   0  0  0  0  0  0  0  0  0  0  0  0
    6.8463    3.5971    0.3836 C   0  0  0  0  0  0  0  0  0  0  0  0
   -2.4684   -2.9444   -2.5566 H   0  0  0  0  0  0  0  0  0  0  0  0
   -1.0467   -4.2251    1.2447 H   0  0  0  0  0  0  0  0  0  0  0  0
   -1.0578   -4.5149   -1.2138 H   0  0  0  0  0  0  0  0  0  0  0  0
   -2.7042   -4.4307   -0.5852 H   0  0  0  0  0  0  0  0  0  0  0  0
   -3.2085   -0.8172   -1.5594 H   0  0  0  0  0  0  0  0  0  0  0  0
   -4.0636   -2.1991   -0.8943 H   0  0  0  0  0  0  0  0  0  0  0  0
   -3.2241   -3.1002    1.4874 H   0  0  0  0  0  0  0  0  0  0  0  0
   -1.9724   -2.1455    2.2731 H   0  0  0  0  0  0  0  0  0  0  0  0
   -0.1802   -2.4551   -2.6385 H   0  0  0  0  0  0  0  0  0  0  0  0
   -0.9069   -0.9047   -2.2639 H   0  0  0  0  0  0  0  0  0  0  0  0
   -2.8590    2.4397    1.5253 H   0  0  0  0  0  0  0  0  0  0  0  0
    0.8219   -3.0805    2.3262 H   0  0  0  0  0  0  0  0  0  0  0  0
   -2.2092    3.0884   -0.8226 H   0  0  0  0  0  0  0  0  0  0  0  0
   -3.1645    4.2912    0.0411 H   0  0  0  0  0  0  0  0  0  0  0  0
   -5.0414    3.4051    1.7335 H   0  0  0  0  0  0  0  0  0  0  0  0
   -5.2357    1.6640    1.9081 H   0  0  0  0  0  0  0  0  0  0  0  0
   -3.6296    0.7164   -0.7248 H   0  0  0  0  0  0  0  0  0  0  0  0
   -4.1776    2.3633   -2.1059 H   0  0  0  0  0  0  0  0  0  0  0  0
   -3.9917    4.1053   -2.2416 H   0  0  0  0  0  0  0  0  0  0  0  0
   -6.9951    2.6812    0.4658 H   0  0  0  0  0  0  0  0  0  0  0  0
   -6.0581    1.4679   -0.3990 H   0  0  0  0  0  0  0  0  0  0  0  0
   -5.7446    4.5028   -0.5859 H   0  0  0  0  0  0  0  0  0  0  0  0
   -6.3652    3.4285   -1.8365 H   0  0  0  0  0  0  0  0  0  0  0  0
    2.8169   -1.7180    2.1197 H   0  0  0  0  0  0  0  0  0  0  0  0
    4.7771   -1.6495   -0.8004 H   0  0  0  0  0  0  0  0  0  0  0  0
    2.6103    1.6158    1.0058 H   0  0  0  0  0  0  0  0  0  0  0  0
    6.7886   -0.2356   -0.9310 H   0  0  0  0  0  0  0  0  0  0  0  0
    4.5646    3.0102    0.8858 H   0  0  0  0  0  0  0  0  0  0  0  0
    6.1220    4.1840   -0.1913 H   0  0  0  0  0  0  0  0  0  0  0  0
    7.8233    4.0718    0.2462 H   0  0  0  0  0  0  0  0  0  0  0  0
    6.6325    3.6108    1.4578 H   0  0  0  0  0  0  0  0  0  0  0  0
  1 14  2  0  0  0  0
  2 17  2  0  0  0  0
  3 30  1  0  0  0  0
  3 31  1  0  0  0  0
  4 10  1  0  0  0  0
  4 11  1  0  0  0  0
  4 14  1  0  0  0  0
  5 12  1  0  0  0  0
  5 13  1  0  0  0  0
  5 17  1  0  0  0  0
  6 14  1  0  0  0  0
  6 15  1  0  0  0  0
  6 48  1  0  0  0  0
  7  9  1  0  0  0  0
  7 10  1  0  0  0  0
  7 12  1  0  0  0  0
  7 32  1  0  0  0  0
  8  9  1  0  0  0  0
  8 11  1  0  0  0  0
  8 13  1  0  0  0  0
  8 33  1  0  0  0  0
  9 34  1  0  0  0  0
  9 35  1  0  0  0  0
 10 36  1  0  0  0  0
 10 37  1  0  0  0  0
 11 38  1  0  0  0  0
 11 39  1  0  0  0  0
 12 40  1  0  0  0  0
 12 41  1  0  0  0  0
 13 16  2  0  0  0  0
 15 18  1  0  0  0  0
 15 19  1  0  0  0  0
 15 42  1  0  0  0  0
 16 24  1  0  0  0  0
 16 43  1  0  0  0  0
 17 22  1  0  0  0  0
 18 20  1  0  0  0  0
 18 44  1  0  0  0  0
 18 45  1  0  0  0  0
 19 21  1  0  0  0  0
 19 46  1  0  0  0  0
 19 47  1  0  0  0  0
 20 23  1  0  0  0  0
 20 49  1  0  0  0  0
 20 50  1  0  0  0  0
 21 23  1  0  0  0  0
 21 51  1  0  0  0  0
 21 52  1  0  0  0  0
 22 24  2  0  0  0  0
 22 25  1  0  0  0  0
 23 53  1  0  0  0  0
 23 54  1  0  0  0  0
 24 55  1  0  0  0  0
 25 26  2  0  0  0  0
 25 27  1  0  0  0  0
 26 28  1  0  0  0  0
 26 56  1  0  0  0  0
 27 29  2  0  0  0  0
 27 57  1  0  0  0  0
 28 30  2  0  0  0  0
 28 58  1  0  0  0  0
 29 30  1  0  0  0  0
 29 59  1  0  0  0  0
 31 60  1  0  0  0  0
 31 61  1  0  0  0  0
 31 62  1  0  0  0  0
M  END
> <PUBCHEM_COMPOUND_CID>
11885131

> <PUBCHEM_CONFORMER_RMSD>
1

> <PUBCHEM_CONFORMER_DIVERSEORDER>
1
5
4
7
6
2
3

> <PUBCHEM_MMFF94_PARTIAL_CHARGES>
31
1 -0.57
10 0.3
11 0.3
12 0.3
13 -0.03
14 0.69
15 0.3
16 -0.15
17 0.62
2 -0.57
22 -0.01
24 -0.15
25 0.03
26 -0.15
27 -0.15
28 -0.15
29 -0.15
3 -0.36
30 0.08
31 0.28
4 -0.66
43 0.15
48 0.37
5 -0.47
55 0.15
56 0.15
57 0.15
58 0.15
59 0.15
6 -0.73
8 0.14

> <PUBCHEM_EFFECTIVE_ROTOR_COUNT>
7.2

> <PUBCHEM_PHARMACOPHORE_FEATURES>
9
1 1 acceptor
1 2 acceptor
1 3 acceptor
1 6 donor
6 15 18 19 20 21 23 rings
6 25 26 27 28 29 30 rings
6 4 7 8 9 10 11 rings
6 5 13 16 17 22 24 rings
6 5 7 8 9 12 13 rings

> <PUBCHEM_HEAVY_ATOM_COUNT>
31

> <PUBCHEM_ATOM_DEF_STEREO_COUNT>
2

> <PUBCHEM_ATOM_UDEF_STEREO_COUNT>
0

> <PUBCHEM_BOND_DEF_STEREO_COUNT>
0

> <PUBCHEM_BOND_UDEF_STEREO_COUNT>
0

> <PUBCHEM_ISOTOPIC_ATOM_COUNT>
0

> <PUBCHEM_COMPONENT_COUNT>
1

> <PUBCHEM_CACTVS_TAUTO_COUNT>
2

> <PUBCHEM_CONFORMER_ID>
00B55A4B00000001

> <PUBCHEM_MMFF94_ENERGY>
80.2559

> <PUBCHEM_FEATURE_SELFOVERLAP>
47.223

> <PUBCHEM_SHAPE_FINGERPRINT>
10675989 125 17760928446388205081
10864689 126 18337394821341772332
10871710 139 18411975901675182511
10937287 8 18338794512053423019
11135609 127 17830723263541079269
11479125 193 17826766198000874437
12107183 9 18264762161268474994
12788726 201 18269256015493958551
13103583 49 14851905654561490105
13165053 103 13685481013758743732
13911987 19 18130786699483231721
13944108 23 17621885288186936929
13947947 63 18336811023495575768
14114211 80 18130515115673649089
14251764 30 10159106469152870573
14251764 75 18198070187862970249
14950920 106 16009611194232459953
15064981 113 17918268775635129886
15198563 99 18126558153872594463
15575132 122 18413105065825585999
16120349 189 18334292046250082701
18603816 31 10446836567656246004
19309040 13 16556810489684243289
19315092 285 14131070281479238873
21388113 180 18192712241999546325
21756936 100 18410011052684341394
23379529 103 10375571707815019865
2838139 119 18265328417844904293
3388396 114 17403737147349748629
3418910 222 17469896940284909660
376196 1 18045500807910148259
4112364 45 18115864105726565409
437815 12 9150876258212641409
44249763 50 17987788756854747224
508706 21 18339356491286194008
6036956 94 17829613108214268933
6086070 43 17060047178040059810
6327066 14 18411417280859047525
6695519 79 13985231093778649356
7288768 16 17749111084385466803
7808743 9 18412261744127081915

> <PUBCHEM_SHAPE_MULTIPOLES>
605.41
14.86
5.48
1.58
15.36
1.08
-0.09
22.55
-0.12
-4.45
-0.53
-1.26
-0.55
0.62

> <PUBCHEM_SHAPE_SELFOVERLAP>
1307.545

> <PUBCHEM_SHAPE_VOLUME>
323.8

> <PUBCHEM_COORDINATE_TYPE>
2
5
10

$$$$
