56775465
  -OEChem-12032416323D

 46 48  0     0  0  0  0  0  0999 V2000
    6.1848   -2.3274   -0.5748 F   0  0  0  0  0  0  0  0  0  0  0  0
    0.3424    4.0100   -0.9804 O   0  0  0  0  0  0  0  0  0  0  0  0
   -3.9853    0.4509   -0.1881 O   0  0  0  0  0  0  0  0  0  0  0  0
    0.8165    1.0102   -0.3411 N   0  0  0  0  0  0  0  0  0  0  0  0
   -3.1844    1.5299    0.1657 N   0  0  0  0  0  0  0  0  0  0  0  0
    0.0114    2.1633    0.0375 C   0  0  0  0  0  0  0  0  0  0  0  0
   -0.4866    2.8516   -1.2283 C   0  0  0  0  0  0  0  0  0  0  0  0
    0.9259    3.3748    0.1799 C   0  0  0  0  0  0  0  0  0  0  0  0
   -0.9890    1.8518    1.1585 C   0  0  0  0  0  0  0  0  0  0  0  0
   -2.0758    0.9852    0.6750 C   0  0  0  0  0  0  0  0  0  0  0  0
    1.5090    0.4842    0.8328 C   0  0  0  0  0  0  0  0  0  0  0  0
   -4.0833   -2.0111   -0.2089 C   0  0  0  0  0  0  0  0  0  0  0  0
   -2.1200   -0.4196    0.6685 C   0  0  0  0  0  0  0  0  0  0  0  0
   -3.3407   -0.7045    0.1163 C   0  0  0  0  0  0  0  0  0  0  0  0
    2.7585   -0.2670    0.4568 C   0  0  0  0  0  0  0  0  0  0  0  0
   -3.2510   -2.8480   -1.2044 C   0  0  0  0  0  0  0  0  0  0  0  0
   -4.2942   -2.8247    1.0863 C   0  0  0  0  0  0  0  0  0  0  0  0
   -5.4755   -1.7973   -0.8453 C   0  0  0  0  0  0  0  0  0  0  0  0
    2.6982   -1.6370    0.2014 C   0  0  0  0  0  0  0  0  0  0  0  0
    3.9764    0.4068    0.3636 C   0  0  0  0  0  0  0  0  0  0  0  0
    3.8555   -2.3332   -0.1468 C   0  0  0  0  0  0  0  0  0  0  0  0
    5.1338   -0.2894    0.0154 C   0  0  0  0  0  0  0  0  0  0  0  0
    5.0734   -1.6593   -0.2398 C   0  0  0  0  0  0  0  0  0  0  0  0
   -0.2370    2.3877   -2.1891 H   0  0  0  0  0  0  0  0  0  0  0  0
   -1.5400    3.1448   -1.2477 H   0  0  0  0  0  0  0  0  0  0  0  0
    0.7663    3.9820    1.0771 H   0  0  0  0  0  0  0  0  0  0  0  0
    2.0028    3.2324    0.0405 H   0  0  0  0  0  0  0  0  0  0  0  0
   -1.4282    2.7977    1.5074 H   0  0  0  0  0  0  0  0  0  0  0  0
   -0.5166    1.4289    2.0515 H   0  0  0  0  0  0  0  0  0  0  0  0
    0.3065    0.2599   -0.8056 H   0  0  0  0  0  0  0  0  0  0  0  0
    0.8572   -0.1919    1.3990 H   0  0  0  0  0  0  0  0  0  0  0  0
    1.8045    1.2729    1.5380 H   0  0  0  0  0  0  0  0  0  0  0  0
   -1.3797   -1.1256    1.0141 H   0  0  0  0  0  0  0  0  0  0  0  0
   -2.2660   -3.0953   -0.7913 H   0  0  0  0  0  0  0  0  0  0  0  0
   -3.0854   -2.2992   -2.1389 H   0  0  0  0  0  0  0  0  0  0  0  0
   -3.7521   -3.7910   -1.4511 H   0  0  0  0  0  0  0  0  0  0  0  0
   -4.8861   -2.2591    1.8154 H   0  0  0  0  0  0  0  0  0  0  0  0
   -3.3379   -3.0719    1.5620 H   0  0  0  0  0  0  0  0  0  0  0  0
   -4.8166   -3.7671    0.8860 H   0  0  0  0  0  0  0  0  0  0  0  0
   -5.3981   -1.2404   -1.7864 H   0  0  0  0  0  0  0  0  0  0  0  0
   -6.1306   -1.2244   -0.1785 H   0  0  0  0  0  0  0  0  0  0  0  0
   -5.9703   -2.7511   -1.0612 H   0  0  0  0  0  0  0  0  0  0  0  0
    1.7550   -2.1728    0.2686 H   0  0  0  0  0  0  0  0  0  0  0  0
    4.0369    1.4743    0.5584 H   0  0  0  0  0  0  0  0  0  0  0  0
    3.8088   -3.3997   -0.3462 H   0  0  0  0  0  0  0  0  0  0  0  0
    6.0820    0.2349   -0.0576 H   0  0  0  0  0  0  0  0  0  0  0  0
  1 23  1  0  0  0  0
  2  7  1  0  0  0  0
  2  8  1  0  0  0  0
  3  5  1  0  0  0  0
  3 14  1  0  0  0  0
  4  6  1  0  0  0  0
  4 11  1  0  0  0  0
  4 30  1  0  0  0  0
  5 10  2  0  0  0  0
  6  7  1  0  0  0  0
  6  8  1  0  0  0  0
  6  9  1  0  0  0  0
  7 24  1  0  0  0  0
  7 25  1  0  0  0  0
  8 26  1  0  0  0  0
  8 27  1  0  0  0  0
  9 10  1  0  0  0  0
  9 28  1  0  0  0  0
  9 29  1  0  0  0  0
 10 13  1  0  0  0  0
 11 15  1  0  0  0  0
 11 31  1  0  0  0  0
 11 32  1  0  0  0  0
 12 14  1  0  0  0  0
 12 16  1  0  0  0  0
 12 17  1  0  0  0  0
 12 18  1  0  0  0  0
 13 14  2  0  0  0  0
 13 33  1  0  0  0  0
 15 19  2  0  0  0  0
 15 20  1  0  0  0  0
 16 34  1  0  0  0  0
 16 35  1  0  0  0  0
 16 36  1  0  0  0  0
 17 37  1  0  0  0  0
 17 38  1  0  0  0  0
 17 39  1  0  0  0  0
 18 40  1  0  0  0  0
 18 41  1  0  0  0  0
 18 42  1  0  0  0  0
 19 21  1  0  0  0  0
 19 43  1  0  0  0  0
 20 22  2  0  0  0  0
 20 44  1  0  0  0  0
 21 23  2  0  0  0  0
 21 45  1  0  0  0  0
 22 23  1  0  0  0  0
 22 46  1  0  0  0  0
M  END
> <PUBCHEM_COMPOUND_CID>
56775465

> <PUBCHEM_CONFORMER_RMSD>
0.8

> <PUBCHEM_CONFORMER_DIVERSEORDER>
1
33
65
59
101
91
100
63
44
94
82
56
124
115
98
64
36
38
68
74
93
79
97
32
80
83
54
13
15
89
104
20
37
119
108
102
111
88
46
85
17
39
81
55
105
35
76
96
113
58
11
78
22
62
70
51
75
117
122
66
49
60
118
57
8
16
61
27
25
6
29
30
87
92
48
121
109
73
50
5
67
86
112
99
114
110
107
28
14
103
52
69
77
12
123
45
47
90
53
18
106
26
21
42
7
23
116
84
24
120
72
95
43
9
10
41
71
34
2
3
40
4
19
31

> <PUBCHEM_MMFF94_PARTIAL_CHARGES>
26
1 -0.19
10 0.11
11 0.41
12 0.18
13 -0.15
14 -0.04
15 -0.14
19 -0.15
2 -0.52
20 -0.15
21 -0.15
22 -0.15
23 0.19
3 -0.02
30 0.36
33 0.15
4 -0.84
43 0.15
44 0.15
45 0.15
46 0.15
5 -0.41
6 0.21
7 0.26
8 0.26
9 0.18

> <PUBCHEM_EFFECTIVE_ROTOR_COUNT>
6.8

> <PUBCHEM_PHARMACOPHORE_FEATURES>
8
1 2 acceptor
1 4 cation
1 4 donor
1 5 acceptor
4 12 16 17 18 hydrophobe
4 2 6 7 8 rings
5 3 5 10 13 14 rings
6 15 19 20 21 22 23 rings

> <PUBCHEM_HEAVY_ATOM_COUNT>
23

> <PUBCHEM_ATOM_DEF_STEREO_COUNT>
0

> <PUBCHEM_ATOM_UDEF_STEREO_COUNT>
0

> <PUBCHEM_BOND_DEF_STEREO_COUNT>
0

> <PUBCHEM_BOND_UDEF_STEREO_COUNT>
0

> <PUBCHEM_ISOTOPIC_ATOM_COUNT>
0

> <PUBCHEM_COMPONENT_COUNT>
1

> <PUBCHEM_CACTVS_TAUTO_COUNT>
1

> <PUBCHEM_CONFORMER_ID>
0362532900000001

> <PUBCHEM_MMFF94_ENERGY>
52.3548

> <PUBCHEM_FEATURE_SELFOVERLAP>
40.596

> <PUBCHEM_SHAPE_FINGERPRINT>
10291535 26 8645612199158320334
10622 236 17198804583214369815
11045515 52 18186522081360163764
11056379 131 18122915218261461388
11069576 57 17622705927798628487
11315621 246 18268725909270975126
11552529 35 18130505223973400712
12107183 9 18341909489415434227
12553582 1 18259979349499586019
12788726 201 17970907752516592792
12969540 37 18269264845529487472
13009979 54 18200609058773881961
13103583 49 17346331400792734427
13544653 18 18343303694879555841
13631057 29 18340486669486956298
14178000 29 18410292540392856144
1454969 45 18265893739280214400
14767858 380 18189350116309975588
14790565 3 17617940232171999217
14863182 85 17834674172889390128
15352361 1 18411980273487750691
15415430 10 18412262847986313834
15537594 2 18189344484653341202
15849732 13 18191036612381091609
17492 89 18194119840374243307
1813 80 18334288803343824528
19141452 34 18268998591853745865
20291156 8 18412823616202032267
20645477 70 17973432497939353115
20775530 9 18411414025020636211
21307412 95 18340199675218372735
221490 88 18191026909584986147
23379529 103 18192998338313653491
23559900 14 18265887137582762041
26353 1 17603583032204905621
314194 84 18269278035094309690
3421961 26 18339641277455842761
4280585 95 18261662727793210040
4409770 3 18045775685395586453
46194498 28 17751908358241563869
463206 1 18334862739823881643
5207 123 18411411835130192471
5486654 36 18336559273971007923
6669772 16 17691138445159506804
7970288 3 18340767138729838703
9709674 26 18045781445204829355
9981440 41 8826333981993108112

> <PUBCHEM_SHAPE_MULTIPOLES>
444.35
11.81
4.37
1.03
4.48
2.37
-0.04
-13.67
-1.31
-0.23
-1.1
-0.62
0.08
0.03

> <PUBCHEM_SHAPE_SELFOVERLAP>
939.551

> <PUBCHEM_SHAPE_VOLUME>
254.1

> <PUBCHEM_COORDINATE_TYPE>
2
5
10

$$$$
