25390802
  -OEChem-12032416383D

 59 64  0     1  0  0  0  0  0999 V2000
    6.8712    3.6885   -0.5239 S   0  0  0  0  0  0  0  0  0  0  0  0
    3.7419   -2.7428    1.6895 O   0  0  0  0  0  0  0  0  0  0  0  0
    1.8572   -0.2586    1.8050 O   0  0  0  0  0  0  0  0  0  0  0  0
    6.2247    1.6473    1.5053 O   0  0  0  0  0  0  0  0  0  0  0  0
    1.1568   -3.4267    0.1312 N   0  0  0  0  0  0  0  0  0  0  0  0
    4.4883    0.5931    0.3864 N   0  0  0  0  0  0  0  0  0  0  0  0
   -0.8640   -2.3764   -0.3260 N   0  0  0  0  0  0  0  0  0  0  0  0
   -0.0619   -4.1935   -1.6909 N   0  0  0  0  0  0  0  0  0  0  0  0
    2.0654   -1.2913    0.8268 C   0  0  1  0  0  0  0  0  0  0  0  0
    3.5469   -1.6138    0.8216 C   0  0  1  0  0  0  0  0  0  0  0  0
    1.4090   -2.5762    1.2738 C   0  0  2  0  0  0  0  0  0  0  0  0
    4.1939   -0.3807    1.4096 C   0  0  2  0  0  0  0  0  0  0  0  0
    2.4671   -3.1973    2.1672 C   0  0  0  0  0  0  0  0  0  0  0  0
    3.1236    0.1259    2.3600 C   0  0  0  0  0  0  0  0  0  0  0  0
    0.0271   -3.3285   -0.6626 C   0  0  0  0  0  0  0  0  0  0  0  0
    5.4943    1.5387    0.5239 C   0  0  0  0  0  0  0  0  0  0  0  0
    5.6538    2.4873   -0.6082 C   0  0  0  0  0  0  0  0  0  0  0  0
   -1.9505   -2.3067   -1.1228 C   0  0  0  0  0  0  0  0  0  0  0  0
    4.9372    2.5589   -1.7826 C   0  0  0  0  0  0  0  0  0  0  0  0
   -1.1730   -4.0678   -2.4459 C   0  0  0  0  0  0  0  0  0  0  0  0
   -2.1605   -3.1339   -2.2072 C   0  0  0  0  0  0  0  0  0  0  0  0
   -2.9080   -1.2875   -0.7656 C   0  0  0  0  0  0  0  0  0  0  0  0
    5.3939    3.6139   -2.6244 C   0  0  0  0  0  0  0  0  0  0  0  0
    6.4419    4.3083   -2.0613 C   0  0  0  0  0  0  0  0  0  0  0  0
   -4.2169   -1.6433   -0.4398 C   0  0  0  0  0  0  0  0  0  0  0  0
   -2.5251    0.0537   -0.7491 C   0  0  0  0  0  0  0  0  0  0  0  0
   -4.7597    0.6834   -0.0810 C   0  0  0  0  0  0  0  0  0  0  0  0
   -5.1427   -0.6577   -0.0976 C   0  0  0  0  0  0  0  0  0  0  0  0
   -3.4510    1.0391   -0.4069 C   0  0  0  0  0  0  0  0  0  0  0  0
   -5.7203    1.7058    0.2739 C   0  0  0  0  0  0  0  0  0  0  0  0
   -6.5010    2.3029   -0.7158 C   0  0  0  0  0  0  0  0  0  0  0  0
   -5.8660    2.0938    1.6057 C   0  0  0  0  0  0  0  0  0  0  0  0
   -7.4276    3.2879   -0.3739 C   0  0  0  0  0  0  0  0  0  0  0  0
   -6.7927    3.0787    1.9478 C   0  0  0  0  0  0  0  0  0  0  0  0
   -7.5734    3.6757    0.9579 C   0  0  0  0  0  0  0  0  0  0  0  0
    1.7124   -0.9032   -0.1340 H   0  0  0  0  0  0  0  0  0  0  0  0
    3.9227   -1.8921   -0.1684 H   0  0  0  0  0  0  0  0  0  0  0  0
    0.4929   -2.4251    1.8563 H   0  0  0  0  0  0  0  0  0  0  0  0
    5.1151   -0.6044    1.9586 H   0  0  0  0  0  0  0  0  0  0  0  0
    2.3639   -2.8431    3.1990 H   0  0  0  0  0  0  0  0  0  0  0  0
    2.4538   -4.2916    2.1783 H   0  0  0  0  0  0  0  0  0  0  0  0
    3.2090   -0.3579    3.3393 H   0  0  0  0  0  0  0  0  0  0  0  0
    3.1388    1.2098    2.5094 H   0  0  0  0  0  0  0  0  0  0  0  0
    1.8562   -4.1050   -0.1490 H   0  0  0  0  0  0  0  0  0  0  0  0
    3.8928    0.6006   -0.4348 H   0  0  0  0  0  0  0  0  0  0  0  0
    4.1218    1.9002   -2.0509 H   0  0  0  0  0  0  0  0  0  0  0  0
   -1.2497   -4.7611   -3.2767 H   0  0  0  0  0  0  0  0  0  0  0  0
   -3.0338   -3.0674   -2.8443 H   0  0  0  0  0  0  0  0  0  0  0  0
    4.9752    3.8513   -3.5937 H   0  0  0  0  0  0  0  0  0  0  0  0
    6.9759    5.1500   -2.4793 H   0  0  0  0  0  0  0  0  0  0  0  0
   -4.5346   -2.6833   -0.4417 H   0  0  0  0  0  0  0  0  0  0  0  0
   -1.5102    0.3506   -1.0034 H   0  0  0  0  0  0  0  0  0  0  0  0
   -6.1588   -0.9522    0.1548 H   0  0  0  0  0  0  0  0  0  0  0  0
   -3.1361    2.0800   -0.3996 H   0  0  0  0  0  0  0  0  0  0  0  0
   -6.4001    2.0122   -1.7589 H   0  0  0  0  0  0  0  0  0  0  0  0
   -5.2655    1.6386    2.3898 H   0  0  0  0  0  0  0  0  0  0  0  0
   -8.0355    3.7528   -1.1446 H   0  0  0  0  0  0  0  0  0  0  0  0
   -6.9065    3.3808    2.9848 H   0  0  0  0  0  0  0  0  0  0  0  0
   -8.2949    4.4426    1.2243 H   0  0  0  0  0  0  0  0  0  0  0  0
  1 17  1  0  0  0  0
  1 24  1  0  0  0  0
  2 10  1  0  0  0  0
  2 13  1  0  0  0  0
  3  9  1  0  0  0  0
  3 14  1  0  0  0  0
  4 16  2  0  0  0  0
  5 11  1  0  0  0  0
  5 15  1  0  0  0  0
  5 44  1  0  0  0  0
  6 12  1  0  0  0  0
  6 16  1  0  0  0  0
  6 45  1  0  0  0  0
  7 15  1  0  0  0  0
  7 18  2  0  0  0  0
  8 15  2  0  0  0  0
  8 20  1  0  0  0  0
  9 10  1  0  0  0  0
  9 11  1  0  0  0  0
  9 36  1  0  0  0  0
 10 12  1  0  0  0  0
 10 37  1  0  0  0  0
 11 13  1  0  0  0  0
 11 38  1  0  0  0  0
 12 14  1  0  0  0  0
 12 39  1  0  0  0  0
 13 40  1  0  0  0  0
 13 41  1  0  0  0  0
 14 42  1  0  0  0  0
 14 43  1  0  0  0  0
 16 17  1  0  0  0  0
 17 19  2  0  0  0  0
 18 21  1  0  0  0  0
 18 22  1  0  0  0  0
 19 23  1  0  0  0  0
 19 46  1  0  0  0  0
 20 21  2  0  0  0  0
 20 47  1  0  0  0  0
 21 48  1  0  0  0  0
 22 25  2  0  0  0  0
 22 26  1  0  0  0  0
 23 24  2  0  0  0  0
 23 49  1  0  0  0  0
 24 50  1  0  0  0  0
 25 28  1  0  0  0  0
 25 51  1  0  0  0  0
 26 29  2  0  0  0  0
 26 52  1  0  0  0  0
 27 28  2  0  0  0  0
 27 29  1  0  0  0  0
 27 30  1  0  0  0  0
 28 53  1  0  0  0  0
 29 54  1  0  0  0  0
 30 31  2  0  0  0  0
 30 32  1  0  0  0  0
 31 33  1  0  0  0  0
 31 55  1  0  0  0  0
 32 34  2  0  0  0  0
 32 56  1  0  0  0  0
 33 35  2  0  0  0  0
 33 57  1  0  0  0  0
 34 35  1  0  0  0  0
 34 58  1  0  0  0  0
 35 59  1  0  0  0  0
M  END
> <PUBCHEM_COMPOUND_CID>
25390802

> <PUBCHEM_CONFORMER_RMSD>
1

> <PUBCHEM_CONFORMER_DIVERSEORDER>
1
138
118
71
181
180
162
39
92
95
179
55
21
164
177
127
142
130
40
31
156
53
91
62
182
30
134
22
158
77
135
43
97
172
26
168
84
105
116
124
83
159
160
176
82
133
78
76
79
153
112
49
152
106
86
126
104
19
47
136
33
107
81
6
147
141
93
48
110
122
61
90
20
129
139
52
23
137
75
161
96
34
157
24
125
60
85
154
29
68
108
25
171
14
74
63
99
103
41
132
169
151
73
170
94
67
50
117
54
59
123
178
113
128
101
28
37
150
115
88
51
120
8
80
3
144
165
173
166
13
12
72
27
174
44
143
148
7
4
46
45
15
149
140
57
10
155
167
70
163
5
66
145
98
131
9
56
42
121
32
35
64
111
109
102
87
89
100
114
146
16
18
65
119
58
17
69
38
175
11
2
36

> <PUBCHEM_MMFF94_PARTIAL_CHARGES>
48
1 -0.08
10 0.28
11 0.37
12 0.3
13 0.28
14 0.28
15 0.72
16 0.71
17 -0.05
18 0.31
19 -0.15
2 -0.56
20 0.16
21 -0.15
23 -0.15
24 -0.11
25 -0.15
26 -0.15
28 -0.15
29 -0.15
3 -0.56
31 -0.15
32 -0.15
33 -0.15
34 -0.15
35 -0.15
4 -0.57
44 0.4
45 0.37
46 0.15
47 0.15
48 0.15
49 0.15
5 -0.87
50 0.15
51 0.15
52 0.15
53 0.15
54 0.15
55 0.15
56 0.15
57 0.15
58 0.15
59 0.15
6 -0.73
7 -0.62
8 -0.62
9 0.28

> <PUBCHEM_EFFECTIVE_ROTOR_COUNT>
8.2

> <PUBCHEM_PHARMACOPHORE_FEATURES>
13
1 2 acceptor
1 3 acceptor
1 4 acceptor
1 5 donor
1 6 donor
1 7 acceptor
4 5 7 8 15 cation
5 1 17 19 23 24 rings
5 2 9 10 11 13 rings
5 3 9 10 12 14 rings
6 22 25 26 27 28 29 rings
6 30 31 32 33 34 35 rings
6 7 8 15 18 20 21 rings

> <PUBCHEM_HEAVY_ATOM_COUNT>
35

> <PUBCHEM_ATOM_DEF_STEREO_COUNT>
4

> <PUBCHEM_ATOM_UDEF_STEREO_COUNT>
0

> <PUBCHEM_BOND_DEF_STEREO_COUNT>
0

> <PUBCHEM_BOND_UDEF_STEREO_COUNT>
0

> <PUBCHEM_ISOTOPIC_ATOM_COUNT>
0

> <PUBCHEM_COMPONENT_COUNT>
1

> <PUBCHEM_CACTVS_TAUTO_COUNT>
6

> <PUBCHEM_CONFORMER_ID>
01836ED200000001

> <PUBCHEM_MMFF94_ENERGY>
104.7179

> <PUBCHEM_FEATURE_SELFOVERLAP>
66.681

> <PUBCHEM_SHAPE_FINGERPRINT>
100830 2 18189334731304864276
10556698 54 17773298239810168968
10917259 128 18124018295277498992
11374522 174 18270970055337218421
11374522 72 18261387803127539941
11399939 17 17408539341931270792
11410812 94 18055922241745093884
11505856 67 18266458904978182359
11801155 225 18337675320570077196
11828042 38 12535334732124618293
1200032 147 18409448059860148282
12013929 29 18116720819313161172
12061779 8 18042131019562487260
12104220 4 18260840319081884820
12655364 74 17395317048976464268
12975358 362 18197229044821102737
13782708 43 10159682591933895665
13944108 23 17841996585396067809
14026016 13 18411427236794063921
14251764 75 18409733962589463768
14664723 55 18412830183038378812
15145343 54 18342167904507490709
15198563 99 17556839636972563415
15357212 105 18410019839886742203
15406563 185 17489591151442702249
15448158 71 18261941999446526924
15513586 35 17752197555063245693
155225 6 18410857638030645345
15950262 2 18259707779007655841
15968369 153 17619626221224679098
16067689 134 18263371437789135668
16120349 67 18266467671153502434
16992727 255 18341895238387450360
16992779 147 18040716944486799312
1768 23 18187646955334012940
18339144 43 17269782130422030577
19302320 297 18113333090564116688
19309040 13 18261680349880579546
20691028 202 18412820291707298048
21772528 278 17168992347596978328
21774942 28 18122062264181232332
22019808 48 18199757934001535353
23569914 152 17916045477682934628
245318 6 18342458097855810011
24771750 20 17917721196679370294
3388396 114 16827555727060864052
3552219 110 17827066613783665447
3610482 184 18120373413787530174
38570 142 18187369887188972582
397830 11 17894923893388486625
4112364 45 18261117335829807173
437795 139 8934732075800571180
437795 70 15482680039568182561
44280116 191 18341622464624695400
45266715 3 11383532500637201926
48014 12 18342461495344090721
54131252 217 12750945590734750221
57724786 102 18335975385609445466
6058803 2 18194936686903415722
6636735 143 16805324358631519425

> <PUBCHEM_SHAPE_MULTIPOLES>
686.6
21.4
7
2.43
8.04
0.42
-0.17
-38.63
1.27
-2.02
-3.13
-2.26
0.49
-8.28

> <PUBCHEM_SHAPE_SELFOVERLAP>
1512.641

> <PUBCHEM_SHAPE_VOLUME>
370.8

> <PUBCHEM_COORDINATE_TYPE>
2
5
10

$$$$
