51137254
  -OEChem-12032416223D

 39 42  0     1  0  0  0  0  0999 V2000
    6.7328    2.9962   -0.0259 Cl  0  0  0  0  0  0  0  0  0  0  0  0
    1.2327   -0.7453    0.1195 O   0  0  0  0  0  0  0  0  0  0  0  0
   -2.8026   -0.4339   -0.1572 N   0  0  1  0  0  0  0  0  0  0  0  0
    1.3038   -2.9668   -0.1336 N   0  0  0  0  0  0  0  0  0  0  0  0
   -5.8542    0.1365   -0.8059 N   0  0  0  0  0  0  0  0  0  0  0  0
   -5.2286    1.9037    0.3848 N   0  0  0  0  0  0  0  0  0  0  0  0
    2.5976   -2.4863   -0.2121 N   0  0  0  0  0  0  0  0  0  0  0  0
   -0.9589   -1.8326    0.2223 C   0  0  1  0  0  0  0  0  0  0  0  0
   -1.4327   -1.2318    1.5572 C   0  0  0  0  0  0  0  0  0  0  0  0
   -1.6294   -0.9669   -0.8529 C   0  0  0  0  0  0  0  0  0  0  0  0
   -2.3141   -0.0521    1.1678 C   0  0  0  0  0  0  0  0  0  0  0  0
   -3.4094    0.6825   -0.8670 C   0  0  0  0  0  0  0  0  0  0  0  0
    0.5413   -1.9163    0.0605 C   0  0  0  0  0  0  0  0  0  0  0  0
   -4.8205    0.9381   -0.4083 C   0  0  0  0  0  0  0  0  0  0  0  0
    2.5080   -1.1857   -0.0592 C   0  0  0  0  0  0  0  0  0  0  0  0
    3.5272   -0.1768   -0.0511 C   0  0  0  0  0  0  0  0  0  0  0  0
   -6.9942    0.6219   -0.2295 C   0  0  0  0  0  0  0  0  0  0  0  0
   -6.5828    1.7122    0.5003 C   0  0  0  0  0  0  0  0  0  0  0  0
    4.8640   -0.5346   -0.2264 C   0  0  0  0  0  0  0  0  0  0  0  0
    3.1818    1.1623    0.1316 C   0  0  0  0  0  0  0  0  0  0  0  0
    5.8553    0.4465   -0.2186 C   0  0  0  0  0  0  0  0  0  0  0  0
    4.1731    2.1434    0.1394 C   0  0  0  0  0  0  0  0  0  0  0  0
    5.5098    1.7856   -0.0357 C   0  0  0  0  0  0  0  0  0  0  0  0
   -1.3544   -2.8555    0.1535 H   0  0  0  0  0  0  0  0  0  0  0  0
   -2.0243   -1.9788    2.1012 H   0  0  0  0  0  0  0  0  0  0  0  0
   -0.6119   -0.9185    2.2111 H   0  0  0  0  0  0  0  0  0  0  0  0
   -0.9670   -0.1605   -1.1945 H   0  0  0  0  0  0  0  0  0  0  0  0
   -1.9135   -1.5674   -1.7240 H   0  0  0  0  0  0  0  0  0  0  0  0
   -3.1249    0.0914    1.8890 H   0  0  0  0  0  0  0  0  0  0  0  0
   -1.7087    0.8629    1.1338 H   0  0  0  0  0  0  0  0  0  0  0  0
   -2.8161    1.6016   -0.7777 H   0  0  0  0  0  0  0  0  0  0  0  0
   -3.4600    0.4554   -1.9409 H   0  0  0  0  0  0  0  0  0  0  0  0
   -5.7892   -0.6690   -1.4141 H   0  0  0  0  0  0  0  0  0  0  0  0
   -7.9590    0.1621   -0.3866 H   0  0  0  0  0  0  0  0  0  0  0  0
   -7.1928    2.3690    1.1032 H   0  0  0  0  0  0  0  0  0  0  0  0
    5.1562   -1.5720   -0.3706 H   0  0  0  0  0  0  0  0  0  0  0  0
    2.1515    1.4798    0.2712 H   0  0  0  0  0  0  0  0  0  0  0  0
    6.8930    0.1534   -0.3563 H   0  0  0  0  0  0  0  0  0  0  0  0
    3.8897    3.1830    0.2830 H   0  0  0  0  0  0  0  0  0  0  0  0
  1 23  1  0  0  0  0
  2 13  1  0  0  0  0
  2 15  1  0  0  0  0
  3 10  1  0  0  0  0
  3 11  1  0  0  0  0
  3 12  1  0  0  0  0
  4  7  1  0  0  0  0
  4 13  2  0  0  0  0
  5 14  1  0  0  0  0
  5 17  1  0  0  0  0
  5 33  1  0  0  0  0
  6 14  2  0  0  0  0
  6 18  1  0  0  0  0
  7 15  2  0  0  0  0
  8  9  1  0  0  0  0
  8 10  1  0  0  0  0
  8 13  1  0  0  0  0
  8 24  1  0  0  0  0
  9 11  1  0  0  0  0
  9 25  1  0  0  0  0
  9 26  1  0  0  0  0
 10 27  1  0  0  0  0
 10 28  1  0  0  0  0
 11 29  1  0  0  0  0
 11 30  1  0  0  0  0
 12 14  1  0  0  0  0
 12 31  1  0  0  0  0
 12 32  1  0  0  0  0
 15 16  1  0  0  0  0
 16 19  2  0  0  0  0
 16 20  1  0  0  0  0
 17 18  2  0  0  0  0
 17 34  1  0  0  0  0
 18 35  1  0  0  0  0
 19 21  1  0  0  0  0
 19 36  1  0  0  0  0
 20 22  2  0  0  0  0
 20 37  1  0  0  0  0
 21 23  2  0  0  0  0
 21 38  1  0  0  0  0
 22 23  1  0  0  0  0
 22 39  1  0  0  0  0
M  END
> <PUBCHEM_COMPOUND_CID>
51137254

> <PUBCHEM_CONFORMER_RMSD>
0.8

> <PUBCHEM_CONFORMER_DIVERSEORDER>
1
18
37
7
14
5
34
13
36
4
40
33
12
8
20
39
21
42
38
28
17
30
9
32
24
3
27
19
22
25
2
11
15
35
23
29
31
6
10
16
41
26

> <PUBCHEM_MMFF94_PARTIAL_CHARGES>
29
1 -0.18
10 0.27
11 0.27
12 0.45
13 0.3
14 0.01
15 0.43
16 0.05
17 -0.3
18 0.08
19 -0.15
2 -0.28
20 -0.15
21 -0.15
22 -0.15
23 0.18
3 -0.81
33 0.27
34 0.15
35 0.15
36 0.15
37 0.15
38 0.15
39 0.15
4 -0.34
5 0.03
6 -0.57
7 -0.34
8 0.18

> <PUBCHEM_EFFECTIVE_ROTOR_COUNT>
5

> <PUBCHEM_PHARMACOPHORE_FEATURES>
7
1 3 cation
1 5 donor
3 5 6 14 cation
5 2 4 7 13 15 rings
5 3 8 9 10 11 rings
5 5 6 14 17 18 rings
6 16 19 20 21 22 23 rings

> <PUBCHEM_HEAVY_ATOM_COUNT>
23

> <PUBCHEM_ATOM_DEF_STEREO_COUNT>
1

> <PUBCHEM_ATOM_UDEF_STEREO_COUNT>
0

> <PUBCHEM_BOND_DEF_STEREO_COUNT>
0

> <PUBCHEM_BOND_UDEF_STEREO_COUNT>
0

> <PUBCHEM_ISOTOPIC_ATOM_COUNT>
0

> <PUBCHEM_COMPONENT_COUNT>
1

> <PUBCHEM_CACTVS_TAUTO_COUNT>
1

> <PUBCHEM_CONFORMER_ID>
030C4AE600000001

> <PUBCHEM_MMFF94_ENERGY>
34.886

> <PUBCHEM_FEATURE_SELFOVERLAP>
35.525

> <PUBCHEM_SHAPE_FINGERPRINT>
10 15 17749110014690631024
10050765 1 18410855477462220110
10074138 170 16588316046074406355
10411042 1 17834395615024109446
10595046 47 18343016663027573191
11273773 38 18190184662515497228
12236239 1 17917709063706968023
12293681 160 17846781827504042834
12403259 118 17750803340434110686
12403259 415 18336840778891494610
12633257 1 16153710967870799990
12730499 353 18335989683555567563
12788726 201 17060060277337021457
12821665 9 18341045328889316479
12895836 83 17704064123218172519
12895837 130 18198623422341586780
13402501 40 18261108573553502948
13540713 4 18265073438654441738
13690498 29 17344615162522519519
13885169 86 18335988669853731924
13955234 65 18043246834363853587
14123256 34 10015588323836986828
14251764 30 9223241740907099520
14251764 75 18262520411366915100
14257110 125 18411136952311232492
14429114 114 18340202982207150929
14528608 73 18343580733497953895
14681490 219 18272087158771386881
14931854 50 17846229881805881776
15183329 4 16845296038121864017
15475509 35 15937524854711663522
15519825 34 15720246148304264937
15840311 113 18195536887983265085
17980427 23 17531532103982536367
18335252 114 18341887450915014060
18608769 82 18338800134640321923
19438510 23 18260543472243154736
20157964 124 18411983524841316683
20554085 129 17774426270896055306
20567600 254 17749102275686850383
20715895 44 18411981395239119120
21033648 29 18265890436218067280
21033650 10 14979690861840861235
21298829 104 18413673521447806024
21304303 64 18409451388776787313
21307412 95 12463567396603459397
21401589 2 18040428923473487979
21521721 280 18410580548953730475
21585482 111 18263646156618681261
21637258 2 7997969055350823071
21682296 61 9655575223644754117
23522609 53 17488476195992510681
23845131 108 18259705609601765755
270888 7 18410291449808701620
2748736 6 18411412947300544320
2838139 119 18336257964186503517
2916195 48 18113335276543675261
3014063 24 7997965761211575657
3246875 12 18335703888252980043
335352 9 18411421692549992606
3472631 163 18272090512976502998
34797466 226 18131074784472360343
4073 2 18187650244609243970
4325135 7 18413386541203308055
445580 126 18340759382355648664
46194498 28 17987523602210468942
465052 167 8286196167090097680
474 4 18410855442953898858
5104073 3 18040150729878692042
5385378 56 18334008364113797354
543368 44 18413387632088116677
56633871 153 11458420258341942392
57724786 102 18186797011518319540
5911458 16 17631185108607348633
59682541 35 18040445404212679369
59682541 52 17274837826687685316
5969126 39 18120654897434062835
59755656 520 17967529077775490155
6327066 14 18339079406082518748
6608658 132 16557923216852504185
77188 2 17689151206688721738
7970288 3 9007068954445964636

> <PUBCHEM_SHAPE_MULTIPOLES>
444.42
18.3
2.88
0.9
9.08
0.19
0.17
-17.39
-1.36
-3.05
0.11
0.74
0.1
0.14

> <PUBCHEM_SHAPE_SELFOVERLAP>
961.455

> <PUBCHEM_SHAPE_VOLUME>
247.8

> <PUBCHEM_COORDINATE_TYPE>
2
5
10

$$$$
