28961558
  -OEChem-12032416283D

 49 51  0     1  0  0  0  0  0999 V2000
    4.5732    2.1886   -0.9016 F   0  0  0  0  0  0  0  0  0  0  0  0
    7.5499   -1.1049    0.7338 F   0  0  0  0  0  0  0  0  0  0  0  0
   -1.9560    1.7431    0.6090 O   0  0  0  0  0  0  0  0  0  0  0  0
   -4.2359    1.1571   -1.2422 O   0  0  0  0  0  0  0  0  0  0  0  0
   -2.6509    4.4634    0.7567 O   0  0  0  0  0  0  0  0  0  0  0  0
    1.1159   -1.4087   -0.0137 O   0  0  0  0  0  0  0  0  0  0  0  0
   -3.7178   -1.4092   -0.0687 N   0  0  0  0  0  0  0  0  0  0  0  0
    0.1120    0.4940   -0.8638 N   0  0  0  0  0  0  0  0  0  0  0  0
    2.3971    0.4828   -0.5535 N   0  0  0  0  0  0  0  0  0  0  0  0
   -3.3761   -0.1673    0.6088 C   0  0  1  0  0  0  0  0  0  0  0  0
   -1.9236    0.3055    0.4659 C   0  0  1  0  0  0  0  0  0  0  0  0
   -4.1772    1.0504    0.1743 C   0  0  1  0  0  0  0  0  0  0  0  0
   -3.3237    2.1708    0.7564 C   0  0  2  0  0  0  0  0  0  0  0  0
   -5.1186   -1.7831    0.1241 C   0  0  0  0  0  0  0  0  0  0  0  0
   -2.9485   -2.5482    0.4316 C   0  0  0  0  0  0  0  0  0  0  0  0
   -5.1451   -3.2404   -0.3127 C   0  0  0  0  0  0  0  0  0  0  0  0
   -3.7197   -3.7441   -0.1073 C   0  0  0  0  0  0  0  0  0  0  0  0
   -1.2318   -0.0015   -0.8576 C   0  0  0  0  0  0  0  0  0  0  0  0
   -3.4963    3.5300    0.1037 C   0  0  0  0  0  0  0  0  0  0  0  0
    1.2182   -0.2582   -0.4328 C   0  0  0  0  0  0  0  0  0  0  0  0
    3.7129    0.0802   -0.2259 C   0  0  0  0  0  0  0  0  0  0  0  0
    4.7808    0.9580   -0.4118 C   0  0  0  0  0  0  0  0  0  0  0  0
    3.9413   -1.1979    0.2842 C   0  0  0  0  0  0  0  0  0  0  0  0
    6.0770    0.5578   -0.0877 C   0  0  0  0  0  0  0  0  0  0  0  0
    5.2375   -1.5981    0.6083 C   0  0  0  0  0  0  0  0  0  0  0  0
    6.3055   -0.7202    0.4224 C   0  0  0  0  0  0  0  0  0  0  0  0
   -3.5579   -0.2861    1.6892 H   0  0  0  0  0  0  0  0  0  0  0  0
   -1.3200   -0.0946    1.2900 H   0  0  0  0  0  0  0  0  0  0  0  0
   -5.1992    1.0590    0.5669 H   0  0  0  0  0  0  0  0  0  0  0  0
   -3.4943    2.2543    1.8375 H   0  0  0  0  0  0  0  0  0  0  0  0
   -5.8040   -1.1813   -0.4807 H   0  0  0  0  0  0  0  0  0  0  0  0
   -5.4211   -1.7081    1.1767 H   0  0  0  0  0  0  0  0  0  0  0  0
   -2.9520   -2.5821    1.5293 H   0  0  0  0  0  0  0  0  0  0  0  0
   -1.9093   -2.5838    0.1004 H   0  0  0  0  0  0  0  0  0  0  0  0
   -5.4191   -3.3251   -1.3709 H   0  0  0  0  0  0  0  0  0  0  0  0
   -5.8682   -3.8211    0.2690 H   0  0  0  0  0  0  0  0  0  0  0  0
   -3.6853   -4.5903    0.5865 H   0  0  0  0  0  0  0  0  0  0  0  0
   -3.3034   -4.0766   -1.0656 H   0  0  0  0  0  0  0  0  0  0  0  0
   -1.7376    0.5073   -1.6848 H   0  0  0  0  0  0  0  0  0  0  0  0
   -1.1992   -1.0653   -1.0928 H   0  0  0  0  0  0  0  0  0  0  0  0
   -4.5317    3.8751    0.1816 H   0  0  0  0  0  0  0  0  0  0  0  0
   -3.1955    3.5084   -0.9486 H   0  0  0  0  0  0  0  0  0  0  0  0
   -4.8445    1.8840   -1.4574 H   0  0  0  0  0  0  0  0  0  0  0  0
    0.2711    1.4439   -1.1853 H   0  0  0  0  0  0  0  0  0  0  0  0
   -2.7841    5.3232    0.3225 H   0  0  0  0  0  0  0  0  0  0  0  0
    2.3092    1.4273   -0.9201 H   0  0  0  0  0  0  0  0  0  0  0  0
    3.1687   -1.9335    0.4564 H   0  0  0  0  0  0  0  0  0  0  0  0
    6.9085    1.2411   -0.2325 H   0  0  0  0  0  0  0  0  0  0  0  0
    5.4172   -2.5928    1.0056 H   0  0  0  0  0  0  0  0  0  0  0  0
  1 22  1  0  0  0  0
  2 26  1  0  0  0  0
  3 11  1  0  0  0  0
  3 13  1  0  0  0  0
  4 12  1  0  0  0  0
  4 43  1  0  0  0  0
  5 19  1  0  0  0  0
  5 45  1  0  0  0  0
  6 20  2  0  0  0  0
  7 10  1  0  0  0  0
  7 14  1  0  0  0  0
  7 15  1  0  0  0  0
  8 18  1  0  0  0  0
  8 20  1  0  0  0  0
  8 44  1  0  0  0  0
  9 20  1  0  0  0  0
  9 21  1  0  0  0  0
  9 46  1  0  0  0  0
 10 11  1  0  0  0  0
 10 12  1  0  0  0  0
 10 27  1  0  0  0  0
 11 18  1  0  0  0  0
 11 28  1  0  0  0  0
 12 13  1  0  0  0  0
 12 29  1  0  0  0  0
 13 19  1  0  0  0  0
 13 30  1  0  0  0  0
 14 16  1  0  0  0  0
 14 31  1  0  0  0  0
 14 32  1  0  0  0  0
 15 17  1  0  0  0  0
 15 33  1  0  0  0  0
 15 34  1  0  0  0  0
 16 17  1  0  0  0  0
 16 35  1  0  0  0  0
 16 36  1  0  0  0  0
 17 37  1  0  0  0  0
 17 38  1  0  0  0  0
 18 39  1  0  0  0  0
 18 40  1  0  0  0  0
 19 41  1  0  0  0  0
 19 42  1  0  0  0  0
 21 22  2  0  0  0  0
 21 23  1  0  0  0  0
 22 24  1  0  0  0  0
 23 25  2  0  0  0  0
 23 47  1  0  0  0  0
 24 26  2  0  0  0  0
 24 48  1  0  0  0  0
 25 26  1  0  0  0  0
 25 49  1  0  0  0  0
M  END
> <PUBCHEM_COMPOUND_CID>
28961558

> <PUBCHEM_CONFORMER_RMSD>
1

> <PUBCHEM_CONFORMER_DIVERSEORDER>
1
80
55
39
74
23
58
75
12
52
27
37
78
42
72
79
51
5
16
19
77
49
48
29
70
53
62
31
54
63
28
50
10
59
11
65
56
15
69
13
43
26
71
35
4
20
60
44
2
36
30
18
24
38
66
33
8
25
9
7
61
6
68
3
34
40
22
57
14
17
64
76
47
73
21
67
41
32
45
46

> <PUBCHEM_MMFF94_PARTIAL_CHARGES>
31
1 -0.19
10 0.27
11 0.28
12 0.28
13 0.28
14 0.27
15 0.27
18 0.3
19 0.28
2 -0.19
20 0.69
21 0.12
22 0.19
23 -0.15
24 -0.15
25 -0.15
26 0.19
3 -0.56
4 -0.68
43 0.4
44 0.37
45 0.4
46 0.37
47 0.15
48 0.15
49 0.15
5 -0.68
6 -0.57
7 -0.81
8 -0.73
9 -0.55

> <PUBCHEM_EFFECTIVE_ROTOR_COUNT>
9

> <PUBCHEM_PHARMACOPHORE_FEATURES>
12
1 3 acceptor
1 4 acceptor
1 4 donor
1 5 acceptor
1 5 donor
1 6 acceptor
1 7 cation
1 8 donor
1 9 donor
5 3 10 11 12 13 rings
5 7 14 15 16 17 rings
6 21 22 23 24 25 26 rings

> <PUBCHEM_HEAVY_ATOM_COUNT>
26

> <PUBCHEM_ATOM_DEF_STEREO_COUNT>
4

> <PUBCHEM_ATOM_UDEF_STEREO_COUNT>
0

> <PUBCHEM_BOND_DEF_STEREO_COUNT>
0

> <PUBCHEM_BOND_UDEF_STEREO_COUNT>
0

> <PUBCHEM_ISOTOPIC_ATOM_COUNT>
0

> <PUBCHEM_COMPONENT_COUNT>
1

> <PUBCHEM_CACTVS_TAUTO_COUNT>
3

> <PUBCHEM_CONFORMER_ID>
01B9EB1600000001

> <PUBCHEM_MMFF94_ENERGY>
58.2275

> <PUBCHEM_FEATURE_SELFOVERLAP>
60.951

> <PUBCHEM_SHAPE_FINGERPRINT>
100830 39 18411417298233718624
10319926 262 18342727508448832274
10411042 1 18196089066089960715
10595046 47 18335986449892975744
11056379 131 18341062860333681063
11315181 36 18334012800123566678
11545043 162 18273491278211453202
11552529 35 18409163316091285503
12107183 9 17903352611602760610
12166972 35 17968659435900116684
12596602 18 18412542129010131712
13073987 5 18411415133949957712
13167823 11 18335420179703416618
13583140 156 17775277253544902210
13631057 29 18411696625584889275
14347332 77 18410292557646305563
14565420 104 17194630463576642721
14844126 61 18410015455500599979
15250474 111 18334569131928784098
15361156 5 17750531602401636806
16992779 147 16471234176555626761
17844677 252 18409454700027228284
17857418 61 18260545654086722178
18927931 339 18342745143368661319
19489759 90 18272366434513260521
20028762 73 18335979840203116882
21065198 48 18335143120137390908
21130935 74 18337946806702434722
21236236 1 18408603677621498435
21315763 129 18411419518832082892
21585481 151 18266452102588970130
22956985 138 17693369354209065489
23081809 10 17749394759018129758
23559900 14 18266451195648412081
23569943 247 16662031553550187682
255183 313 18198927846293742497
32027 91 17840599089275938654
329604 57 18340490083389584690
4015057 19 17241053226752378276
4073 2 18186809084671759202
4214541 1 18408323280754912494
4409770 3 18408599254854352903
497634 4 18259701220181170655
504579 68 18187937221997743302
5104073 3 18411127040470842434
531348 171 17749941151086641479
559249 180 18259981565972151199
5924683 9 18410013247386002523
6700243 42 17771943581286570724
7495541 125 18059857328686425130
9981440 41 17977957787247151105

> <PUBCHEM_SHAPE_MULTIPOLES>
482.1
16.67
4.11
0.87
26.22
1.66
-0.06
-5.72
1.48
-8.39
0.55
-0.05
0.18
-1.46

> <PUBCHEM_SHAPE_SELFOVERLAP>
1015.518

> <PUBCHEM_SHAPE_VOLUME>
271.5

> <PUBCHEM_COORDINATE_TYPE>
2
5
10

$$$$
