51137154
  -OEChem-12032416203D

 35 37  0     1  0  0  0  0  0999 V2000
   -2.8255   -2.5790   -0.2143 Cl  0  0  0  0  0  0  0  0  0  0  0  0
    4.0835   -0.7750    0.5421 O   0  0  0  0  0  0  0  0  0  0  0  0
   -0.5578   -0.0637   -0.0577 N   0  0  1  0  0  0  0  0  0  0  0  0
    3.5359    1.0380   -0.6484 N   0  0  0  0  0  0  0  0  0  0  0  0
    4.9023    0.8556   -0.7523 N   0  0  0  0  0  0  0  0  0  0  0  0
    1.6935   -0.2457    0.5733 C   0  0  1  0  0  0  0  0  0  0  0  0
    1.0188    0.8706    1.3894 C   0  0  0  0  0  0  0  0  0  0  0  0
    0.7303   -0.5118   -0.5913 C   0  0  0  0  0  0  0  0  0  0  0  0
   -0.2635    1.1919    0.6328 C   0  0  0  0  0  0  0  0  0  0  0  0
   -1.5635    0.0980   -1.0972 C   0  0  0  0  0  0  0  0  0  0  0  0
    3.1001    0.0638    0.1156 C   0  0  0  0  0  0  0  0  0  0  0  0
   -2.9576    0.1249   -0.5292 C   0  0  0  0  0  0  0  0  0  0  0  0
   -3.5989   -1.0396   -0.1074 C   0  0  0  0  0  0  0  0  0  0  0  0
   -3.6085    1.3546   -0.4302 C   0  0  0  0  0  0  0  0  0  0  0  0
    5.1772   -0.2134   -0.0418 C   0  0  0  0  0  0  0  0  0  0  0  0
   -4.8913   -0.9746    0.4137 C   0  0  0  0  0  0  0  0  0  0  0  0
   -4.9009    1.4198    0.0908 C   0  0  0  0  0  0  0  0  0  0  0  0
    6.4683   -0.8696    0.1994 C   0  0  0  0  0  0  0  0  0  0  0  0
   -5.5422    0.2551    0.5127 C   0  0  0  0  0  0  0  0  0  0  0  0
    1.7324   -1.1429    1.2073 H   0  0  0  0  0  0  0  0  0  0  0  0
    0.7803    0.4946    2.3922 H   0  0  0  0  0  0  0  0  0  0  0  0
    1.6452    1.7610    1.5084 H   0  0  0  0  0  0  0  0  0  0  0  0
    1.0155    0.0610   -1.4839 H   0  0  0  0  0  0  0  0  0  0  0  0
    0.7121   -1.5745   -0.8570 H   0  0  0  0  0  0  0  0  0  0  0  0
   -1.0598    1.4914    1.3214 H   0  0  0  0  0  0  0  0  0  0  0  0
   -0.0789    2.0144   -0.0703 H   0  0  0  0  0  0  0  0  0  0  0  0
   -1.5091   -0.7288   -1.8185 H   0  0  0  0  0  0  0  0  0  0  0  0
   -1.3742    0.9941   -1.7050 H   0  0  0  0  0  0  0  0  0  0  0  0
   -3.1224    2.2717   -0.7525 H   0  0  0  0  0  0  0  0  0  0  0  0
   -5.4049   -1.8728    0.7470 H   0  0  0  0  0  0  0  0  0  0  0  0
   -5.4076    2.3772    0.1685 H   0  0  0  0  0  0  0  0  0  0  0  0
    7.2757   -0.3375   -0.3125 H   0  0  0  0  0  0  0  0  0  0  0  0
    6.4514   -1.8995   -0.1692 H   0  0  0  0  0  0  0  0  0  0  0  0
    6.6968   -0.8880    1.2692 H   0  0  0  0  0  0  0  0  0  0  0  0
   -6.5484    0.3060    0.9185 H   0  0  0  0  0  0  0  0  0  0  0  0
  1 13  1  0  0  0  0
  2 11  1  0  0  0  0
  2 15  1  0  0  0  0
  3  8  1  0  0  0  0
  3  9  1  0  0  0  0
  3 10  1  0  0  0  0
  4  5  1  0  0  0  0
  4 11  2  0  0  0  0
  5 15  2  0  0  0  0
  6  7  1  0  0  0  0
  6  8  1  0  0  0  0
  6 11  1  0  0  0  0
  6 20  1  0  0  0  0
  7  9  1  0  0  0  0
  7 21  1  0  0  0  0
  7 22  1  0  0  0  0
  8 23  1  0  0  0  0
  8 24  1  0  0  0  0
  9 25  1  0  0  0  0
  9 26  1  0  0  0  0
 10 12  1  0  0  0  0
 10 27  1  0  0  0  0
 10 28  1  0  0  0  0
 12 13  1  0  0  0  0
 12 14  2  0  0  0  0
 13 16  2  0  0  0  0
 14 17  1  0  0  0  0
 14 29  1  0  0  0  0
 15 18  1  0  0  0  0
 16 19  1  0  0  0  0
 16 30  1  0  0  0  0
 17 19  2  0  0  0  0
 17 31  1  0  0  0  0
 18 32  1  0  0  0  0
 18 33  1  0  0  0  0
 18 34  1  0  0  0  0
 19 35  1  0  0  0  0
M  END
> <PUBCHEM_COMPOUND_CID>
51137154

> <PUBCHEM_CONFORMER_RMSD>
0.6

> <PUBCHEM_CONFORMER_DIVERSEORDER>
1
102
132
109
93
133
138
21
40
98
139
122
136
140
119
46
116
6
14
100
28
92
25
64
82
118
49
96
45
129
87
104
62
120
111
81
20
61
56
65
110
83
124
66
123
12
16
113
134
36
2
71
121
48
85
68
51
59
37
115
108
127
125
34
106
52
7
74
50
60
73
135
77
84
103
117
33
24
126
107
44
72
23
105
137
76
80
99
69
17
5
114
95
91
47
97
70
55
42
8
38
39
75
54
19
13
128
41
35
43
89
94
26
31
10
53
58
101
9
90
30
112
29
67
4
131
88
141
86
57
18
63
3
27
11
15
78
79
130
22
32

> <PUBCHEM_MMFF94_PARTIAL_CHARGES>
22
1 -0.18
10 0.41
11 0.3
12 -0.14
13 0.18
14 -0.15
15 0.3
16 -0.15
17 -0.15
18 0.18
19 -0.15
2 -0.28
29 0.15
3 -0.81
30 0.15
31 0.15
35 0.15
4 -0.34
5 -0.34
6 0.18
8 0.27
9 0.27

> <PUBCHEM_EFFECTIVE_ROTOR_COUNT>
4

> <PUBCHEM_PHARMACOPHORE_FEATURES>
4
1 3 cation
5 2 4 5 11 15 rings
5 3 6 7 8 9 rings
6 12 13 14 16 17 19 rings

> <PUBCHEM_HEAVY_ATOM_COUNT>
19

> <PUBCHEM_ATOM_DEF_STEREO_COUNT>
1

> <PUBCHEM_ATOM_UDEF_STEREO_COUNT>
0

> <PUBCHEM_BOND_DEF_STEREO_COUNT>
0

> <PUBCHEM_BOND_UDEF_STEREO_COUNT>
0

> <PUBCHEM_ISOTOPIC_ATOM_COUNT>
0

> <PUBCHEM_COMPONENT_COUNT>
1

> <PUBCHEM_CACTVS_TAUTO_COUNT>
1

> <PUBCHEM_CONFORMER_ID>
030C4A8200000001

> <PUBCHEM_MMFF94_ENERGY>
34.1107

> <PUBCHEM_FEATURE_SELFOVERLAP>
20.297

> <PUBCHEM_SHAPE_FINGERPRINT>
10366900 7 18272922839600953075
11089746 13 14692565511764451490
11128504 68 17240204356699484236
11287383 113 18113058246541624312
11315181 36 18260267464785996477
11524674 6 17561081410407375687
11796584 16 18343302557304553062
12107183 9 17467904177799991193
12236239 1 18113339712722698164
12516196 113 14836401436961392000
12616971 3 17749389290986730958
12788726 201 17774160072352820249
128620 24 14418128513504756803
12916754 54 16701161149442101229
13167823 11 18114177532098805818
13288520 33 18113618989071649135
13533116 47 11311786046899540364
13675066 3 17561075955629460864
13760787 19 18335135388584529658
1420 363 15719396122404111296
14251731 8 18343863307590633776
14251752 14 18340768157010640376
14341114 176 18410015467826215233
15788980 27 18334577944894946930
17093844 174 17917422129441708842
17804303 29 18271242824361790457
17834072 33 18187366549244788444
17844677 252 18410017645269295084
200 152 18333449837818039008
20681677 155 18335136497002434515
21267235 1 18260835903253967347
21279426 13 17843974636921353861
22950370 63 18335421283061326381
23035841 295 18335139778209826858
23175994 123 17060060371741918673
23402539 116 17312819364161523284
23536379 177 18261111855287792352
23559900 14 18271800250997981408
26918003 58 18202845452660896322
3004659 81 18409450263700635742
314173 85 16056884632671207568
4214541 1 18409166614853061053
4463277 17 18060699503027501968
5104073 3 18342454901993999584
5385378 56 17488478394699676751
542803 24 17967816045877507548
59755656 215 18130512921035239558
59755656 520 16660647349181486034
7495541 125 18340206387962495224

> <PUBCHEM_SHAPE_MULTIPOLES>
372.07
14.24
1.62
0.94
10.89
0.68
-0.05
0.94
-0.41
-1.71
-0.01
0.08
-0.15
-0.16

> <PUBCHEM_SHAPE_SELFOVERLAP>
784.452

> <PUBCHEM_SHAPE_VOLUME>
212.5

> <PUBCHEM_COORDINATE_TYPE>
2
5
10

$$$$
