11867589
  -OEChem-12032416163D

 65 69  0     1  0  0  0  0  0999 V2000
    0.3628   -3.5958    1.0744 O   0  0  0  0  0  0  0  0  0  0  0  0
   -0.1740   -2.4527   -1.8060 O   0  0  0  0  0  0  0  0  0  0  0  0
   -4.5015   -2.6240    0.1732 O   0  0  0  0  0  0  0  0  0  0  0  0
    2.9071   -1.8015    0.0438 N   0  0  0  0  0  0  0  0  0  0  0  0
   -2.4653   -1.5207    0.0512 N   0  0  0  0  0  0  0  0  0  0  0  0
    2.7410   -1.2381    1.2514 N   0  0  0  0  0  0  0  0  0  0  0  0
    3.8274   -0.5156    1.5023 N   0  0  0  0  0  0  0  0  0  0  0  0
   -6.5650    3.3747    0.0201 N   0  0  0  0  0  0  0  0  0  0  0  0
    0.5316   -1.9605   -0.6522 C   0  0  1  0  0  0  0  0  0  0  0  0
   -0.2499   -2.3982    0.5713 C   0  0  1  0  0  0  0  0  0  0  0  0
    1.8695   -2.6643   -0.5270 C   0  0  2  0  0  0  0  0  0  0  0  0
   -1.6340   -2.7000    0.0424 C   0  0  2  0  0  0  0  0  0  0  0  0
    1.5307   -3.9000    0.2995 C   0  0  0  0  0  0  0  0  0  0  0  0
   -1.3459   -3.1588   -1.3749 C   0  0  0  0  0  0  0  0  0  0  0  0
    5.8749    1.4390   -0.2174 C   0  0  0  0  0  0  0  0  0  0  0  0
    7.2479    1.9006   -0.7240 C   0  0  0  0  0  0  0  0  0  0  0  0
    5.2987    2.4425    0.7907 C   0  0  0  0  0  0  0  0  0  0  0  0
    5.9688    0.0459    0.4020 C   0  0  0  0  0  0  0  0  0  0  0  0
    4.1011   -1.4567   -0.5109 C   0  0  0  0  0  0  0  0  0  0  0  0
    7.1905    3.3137   -1.2998 C   0  0  0  0  0  0  0  0  0  0  0  0
    5.2443    3.8547    0.2121 C   0  0  0  0  0  0  0  0  0  0  0  0
    4.6455   -0.6519    0.4333 C   0  0  0  0  0  0  0  0  0  0  0  0
    6.6091    4.3066   -0.2982 C   0  0  0  0  0  0  0  0  0  0  0  0
   -3.8498   -1.5844    0.1169 C   0  0  0  0  0  0  0  0  0  0  0  0
   -4.5627   -0.2814    0.0902 C   0  0  0  0  0  0  0  0  0  0  0  0
   -5.8507   -0.2367   -0.4019 C   0  0  0  0  0  0  0  0  0  0  0  0
   -3.9146    0.8425    0.5595 C   0  0  0  0  0  0  0  0  0  0  0  0
   -6.5205    0.9867   -0.4259 C   0  0  0  0  0  0  0  0  0  0  0  0
   -4.5844    2.0657    0.5356 C   0  0  0  0  0  0  0  0  0  0  0  0
   -5.8874    2.1379    0.0429 C   0  0  0  0  0  0  0  0  0  0  0  0
   -6.2820    4.3849    1.0203 C   0  0  0  0  0  0  0  0  0  0  0  0
   -7.5630    3.6461   -0.9951 C   0  0  0  0  0  0  0  0  0  0  0  0
    0.5969   -0.8723   -0.7536 H   0  0  0  0  0  0  0  0  0  0  0  0
   -0.2328   -1.6584    1.3782 H   0  0  0  0  0  0  0  0  0  0  0  0
    2.2576   -2.9785   -1.5039 H   0  0  0  0  0  0  0  0  0  0  0  0
   -2.1410   -3.4926    0.6035 H   0  0  0  0  0  0  0  0  0  0  0  0
    2.3369   -4.2160    0.9685 H   0  0  0  0  0  0  0  0  0  0  0  0
    1.2745   -4.7426   -0.3520 H   0  0  0  0  0  0  0  0  0  0  0  0
   -2.1621   -2.9690   -2.0785 H   0  0  0  0  0  0  0  0  0  0  0  0
   -1.1097   -4.2283   -1.4007 H   0  0  0  0  0  0  0  0  0  0  0  0
    5.2015    1.4036   -1.0859 H   0  0  0  0  0  0  0  0  0  0  0  0
   -2.0019   -0.6325   -0.1097 H   0  0  0  0  0  0  0  0  0  0  0  0
    7.6139    1.2137   -1.4965 H   0  0  0  0  0  0  0  0  0  0  0  0
    7.9760    1.8739    0.0969 H   0  0  0  0  0  0  0  0  0  0  0  0
    5.9102    2.4525    1.7021 H   0  0  0  0  0  0  0  0  0  0  0  0
    4.2862    2.1497    1.0902 H   0  0  0  0  0  0  0  0  0  0  0  0
    6.6601   -0.5762   -0.1820 H   0  0  0  0  0  0  0  0  0  0  0  0
    6.3855    0.0940    1.4158 H   0  0  0  0  0  0  0  0  0  0  0  0
    4.4289   -1.8028   -1.4808 H   0  0  0  0  0  0  0  0  0  0  0  0
    8.1969    3.6329   -1.5931 H   0  0  0  0  0  0  0  0  0  0  0  0
    6.5780    3.3121   -2.2099 H   0  0  0  0  0  0  0  0  0  0  0  0
    4.5187    3.8843   -0.6101 H   0  0  0  0  0  0  0  0  0  0  0  0
    4.8879    4.5530    0.9777 H   0  0  0  0  0  0  0  0  0  0  0  0
    6.5198    5.2934   -0.7662 H   0  0  0  0  0  0  0  0  0  0  0  0
    7.2974    4.4155    0.5489 H   0  0  0  0  0  0  0  0  0  0  0  0
   -6.3565   -1.1233   -0.7726 H   0  0  0  0  0  0  0  0  0  0  0  0
   -2.9144    0.8226    0.9797 H   0  0  0  0  0  0  0  0  0  0  0  0
   -7.5381    1.0064   -0.8055 H   0  0  0  0  0  0  0  0  0  0  0  0
   -4.0619    2.9441    0.9039 H   0  0  0  0  0  0  0  0  0  0  0  0
   -7.0920    5.1207    1.0792 H   0  0  0  0  0  0  0  0  0  0  0  0
   -5.3626    4.9268    0.7752 H   0  0  0  0  0  0  0  0  0  0  0  0
   -6.1838    3.9443    2.0189 H   0  0  0  0  0  0  0  0  0  0  0  0
   -8.5169    3.1739   -0.7377 H   0  0  0  0  0  0  0  0  0  0  0  0
   -7.2405    3.2908   -1.9803 H   0  0  0  0  0  0  0  0  0  0  0  0
   -7.7439    4.7224   -1.0930 H   0  0  0  0  0  0  0  0  0  0  0  0
  1 10  1  0  0  0  0
  1 13  1  0  0  0  0
  2  9  1  0  0  0  0
  2 14  1  0  0  0  0
  3 24  2  0  0  0  0
  4  6  1  0  0  0  0
  4 11  1  0  0  0  0
  4 19  1  0  0  0  0
  5 12  1  0  0  0  0
  5 24  1  0  0  0  0
  5 42  1  0  0  0  0
  6  7  2  0  0  0  0
  7 22  1  0  0  0  0
  8 30  1  0  0  0  0
  8 31  1  0  0  0  0
  8 32  1  0  0  0  0
  9 10  1  0  0  0  0
  9 11  1  0  0  0  0
  9 33  1  0  0  0  0
 10 12  1  0  0  0  0
 10 34  1  0  0  0  0
 11 13  1  0  0  0  0
 11 35  1  0  0  0  0
 12 14  1  0  0  0  0
 12 36  1  0  0  0  0
 13 37  1  0  0  0  0
 13 38  1  0  0  0  0
 14 39  1  0  0  0  0
 14 40  1  0  0  0  0
 15 16  1  0  0  0  0
 15 17  1  0  0  0  0
 15 18  1  0  0  0  0
 15 41  1  0  0  0  0
 16 20  1  0  0  0  0
 16 43  1  0  0  0  0
 16 44  1  0  0  0  0
 17 21  1  0  0  0  0
 17 45  1  0  0  0  0
 17 46  1  0  0  0  0
 18 22  1  0  0  0  0
 18 47  1  0  0  0  0
 18 48  1  0  0  0  0
 19 22  2  0  0  0  0
 19 49  1  0  0  0  0
 20 23  1  0  0  0  0
 20 50  1  0  0  0  0
 20 51  1  0  0  0  0
 21 23  1  0  0  0  0
 21 52  1  0  0  0  0
 21 53  1  0  0  0  0
 23 54  1  0  0  0  0
 23 55  1  0  0  0  0
 24 25  1  0  0  0  0
 25 26  2  0  0  0  0
 25 27  1  0  0  0  0
 26 28  1  0  0  0  0
 26 56  1  0  0  0  0
 27 29  2  0  0  0  0
 27 57  1  0  0  0  0
 28 30  2  0  0  0  0
 28 58  1  0  0  0  0
 29 30  1  0  0  0  0
 29 59  1  0  0  0  0
 31 60  1  0  0  0  0
 31 61  1  0  0  0  0
 31 62  1  0  0  0  0
 32 63  1  0  0  0  0
 32 64  1  0  0  0  0
 32 65  1  0  0  0  0
M  END
> <PUBCHEM_COMPOUND_CID>
11867589

> <PUBCHEM_CONFORMER_RMSD>
1

> <PUBCHEM_CONFORMER_DIVERSEORDER>
1
34
78
99
41
11
90
57
87
104
25
50
106
76
92
71
82
100
35
77
69
58
19
21
98
47
48
93
54
66
33
107
102
46
74
86
30
53
31
79
101
9
32
97
27
65
49
61
73
14
23
16
43
60
95
85
12
39
56
63
24
67
105
10
20
52
3
83
17
55
96
80
5
42
62
59
37
91
26
89
29
70
103
81
51
64
68
44
4
18
75
15
84
22
7
2
40
8
36
88
6
38
45
13
28
72
94

> <PUBCHEM_MMFF94_PARTIAL_CHARGES>
32
1 -0.56
10 0.28
11 0.26
12 0.3
13 0.28
14 0.28
18 0.18
19 -0.3
2 -0.56
22 0.05
24 0.54
25 0.09
26 -0.15
27 -0.15
28 -0.15
29 -0.15
3 -0.57
30 0.1
31 0.37
32 0.37
4 0.31
42 0.37
49 0.15
5 -0.73
56 0.15
57 0.15
58 0.15
59 0.15
6 -0.42
7 -0.23
8 -0.84
9 0.28

> <PUBCHEM_EFFECTIVE_ROTOR_COUNT>
9.4

> <PUBCHEM_PHARMACOPHORE_FEATURES>
10
1 1 acceptor
1 2 acceptor
1 3 acceptor
1 5 donor
1 8 cation
5 1 9 10 11 13 rings
5 2 9 10 12 14 rings
5 4 6 7 19 22 rings
6 15 16 17 20 21 23 rings
6 25 26 27 28 29 30 rings

> <PUBCHEM_HEAVY_ATOM_COUNT>
32

> <PUBCHEM_ATOM_DEF_STEREO_COUNT>
4

> <PUBCHEM_ATOM_UDEF_STEREO_COUNT>
0

> <PUBCHEM_BOND_DEF_STEREO_COUNT>
0

> <PUBCHEM_BOND_UDEF_STEREO_COUNT>
0

> <PUBCHEM_ISOTOPIC_ATOM_COUNT>
0

> <PUBCHEM_COMPONENT_COUNT>
1

> <PUBCHEM_CACTVS_TAUTO_COUNT>
2

> <PUBCHEM_CONFORMER_ID>
00B515C500000001

> <PUBCHEM_MMFF94_ENERGY>
80.8578

> <PUBCHEM_FEATURE_SELFOVERLAP>
51.44

> <PUBCHEM_SHAPE_FINGERPRINT>
10280341 67 18199175360827542984
10556698 54 17631431510047637528
10864689 126 18272089431315527744
10883706 163 18261387794136795437
10917259 69 18409733989683756596
11374522 155 18338519626385492353
11386260 185 17911799068106203679
11476731 99 18055910138010672752
11505856 67 18195799889382762015
11828422 8 18199763444006479830
12013929 29 18342179912471315276
12120059 9 8934432927059934023
12895837 130 18341893005009412687
12975358 362 18266762211437448761
13165053 182 18261936498448185117
13782708 43 9006762186649044723
13944108 23 18268711624051434024
14202776 33 17987231325560242719
14664723 55 18200319814317461481
14790565 3 18338799030612102554
15064981 113 17274835644807206486
15198563 99 17770766116704421127
15357212 105 16985776129598658073
15475509 35 10954043471180879718
155225 6 18410294687866208081
15950262 2 18334577949142734210
15979999 66 17482280305741246054
15980000 95 17616814332587189370
16067689 134 18410020926867519908
16112460 7 18409164428847050612
16758388 162 18044087960948635890
16993089 31 13326283858288882525
19053607 189 18341602694536024688
19438510 23 18114179795963198842
20058555 10 18411138064697485344
20691028 202 18337105761172585676
20766409 102 18410857686309065853
21223535 225 18128251397631971092
21585482 111 18334575702975539540
21647283 7 18186802478267993336
21792965 106 18196649817163013392
22122407 14 18334577979566188746
23191077 185 18341038709664952038
23569914 2 16913379027028698792
23569943 247 9150877396632982053
24204213 149 17607783043202978890
2748736 6 18410566284290978637
2835820 40 18336265764502306220
2838139 119 18342734122029093782
3918712 181 18411134723345200616
393628 194 18412261701784785013
4144715 1 18261684782530227898
4169191 19 18409727331846131501
4366758 26 18410017628127031364
437795 171 18189045413301822037
484985 159 11060702129684183770
50009960 94 8718546060660900776
5104073 3 17896604986443524547
5718773 13 9583526403908260518
6201320 77 12318313226271457157
636775 72 18051410970984164784
6673363 416 17979641452327267590
6898599 12 18272642434261503887
99344 41 18410291419691709208

> <PUBCHEM_SHAPE_MULTIPOLES>
616.03
23.24
6.8
1.12
0.38
3.53
0.12
36.99
2.51
0.29
0.34
-0.4
-0.11
-1.51

> <PUBCHEM_SHAPE_SELFOVERLAP>
1318.484

> <PUBCHEM_SHAPE_VOLUME>
342

> <PUBCHEM_COORDINATE_TYPE>
2
5
10

$$$$
