75537041
  -OEChem-12032416333D

 37 39  0     1  0  0  0  0  0999 V2000
    5.6360    0.0007    0.2239 O   0  0  0  0  0  0  0  0  0  0  0  0
   -5.2950    0.7493    0.7610 O   0  0  0  0  0  0  0  0  0  0  0  0
    3.2880   -0.1170    0.3237 N   0  0  0  0  0  0  0  0  0  0  0  0
    0.6776   -1.0393   -0.1681 N   0  0  2  0  0  0  0  0  0  0  0  0
    4.2550    1.8861    0.0103 N   0  0  0  0  0  0  0  0  0  0  0  0
   -3.5419    0.6966   -0.7585 N   0  0  0  0  0  0  0  0  0  0  0  0
    2.1914    0.8276    0.3607 C   0  0  2  0  0  0  0  0  0  0  0  0
    1.0451    0.3455   -0.5276 C   0  0  0  0  0  0  0  0  0  0  0  0
    3.0175   -1.5262    0.5168 C   0  0  0  0  0  0  0  0  0  0  0  0
    2.8347    2.1412   -0.0763 C   0  0  0  0  0  0  0  0  0  0  0  0
    1.8255   -1.9521   -0.3441 C   0  0  0  0  0  0  0  0  0  0  0  0
    4.5276    0.5175    0.1947 C   0  0  0  0  0  0  0  0  0  0  0  0
   -0.4587   -1.4895   -0.9716 C   0  0  0  0  0  0  0  0  0  0  0  0
   -1.7584   -0.9114   -0.4784 C   0  0  0  0  0  0  0  0  0  0  0  0
   -2.3763   -1.4088    0.6637 C   0  0  0  0  0  0  0  0  0  0  0  0
   -2.3763    0.1327   -1.1475 C   0  0  0  0  0  0  0  0  0  0  0  0
   -3.5765   -0.8548    1.0952 C   0  0  0  0  0  0  0  0  0  0  0  0
   -4.1131    0.1869    0.3557 C   0  0  0  0  0  0  0  0  0  0  0  0
   -5.8021    1.8150   -0.0336 C   0  0  0  0  0  0  0  0  0  0  0  0
    1.8634    0.8985    1.4061 H   0  0  0  0  0  0  0  0  0  0  0  0
    0.2032    1.0311   -0.3837 H   0  0  0  0  0  0  0  0  0  0  0  0
    1.3360    0.3968   -1.5858 H   0  0  0  0  0  0  0  0  0  0  0  0
    2.7964   -1.6722    1.5804 H   0  0  0  0  0  0  0  0  0  0  0  0
    3.9119   -2.1081    0.2729 H   0  0  0  0  0  0  0  0  0  0  0  0
    2.6054    2.4085   -1.1123 H   0  0  0  0  0  0  0  0  0  0  0  0
    2.5730    2.9760    0.5794 H   0  0  0  0  0  0  0  0  0  0  0  0
    2.1286   -1.9760   -1.3994 H   0  0  0  0  0  0  0  0  0  0  0  0
    1.5458   -2.9732   -0.0585 H   0  0  0  0  0  0  0  0  0  0  0  0
    4.9724    2.5904   -0.1295 H   0  0  0  0  0  0  0  0  0  0  0  0
   -0.5618   -2.5820   -0.9081 H   0  0  0  0  0  0  0  0  0  0  0  0
   -0.3142   -1.2751   -2.0393 H   0  0  0  0  0  0  0  0  0  0  0  0
   -1.9323   -2.2268    1.2244 H   0  0  0  0  0  0  0  0  0  0  0  0
   -1.9438    0.5643   -2.0449 H   0  0  0  0  0  0  0  0  0  0  0  0
   -4.0711   -1.2314    1.9839 H   0  0  0  0  0  0  0  0  0  0  0  0
   -6.7405    2.1529    0.4161 H   0  0  0  0  0  0  0  0  0  0  0  0
   -6.0190    1.4768   -1.0524 H   0  0  0  0  0  0  0  0  0  0  0  0
   -5.1084    2.6625   -0.0429 H   0  0  0  0  0  0  0  0  0  0  0  0
  1 12  2  0  0  0  0
  2 18  1  0  0  0  0
  2 19  1  0  0  0  0
  3  7  1  0  0  0  0
  3  9  1  0  0  0  0
  3 12  1  0  0  0  0
  4  8  1  0  0  0  0
  4 11  1  0  0  0  0
  4 13  1  0  0  0  0
  5 10  1  0  0  0  0
  5 12  1  0  0  0  0
  5 29  1  0  0  0  0
  6 16  1  0  0  0  0
  6 18  2  0  0  0  0
  7  8  1  0  0  0  0
  7 10  1  0  0  0  0
  7 20  1  0  0  0  0
  8 21  1  0  0  0  0
  8 22  1  0  0  0  0
  9 11  1  0  0  0  0
  9 23  1  0  0  0  0
  9 24  1  0  0  0  0
 10 25  1  0  0  0  0
 10 26  1  0  0  0  0
 11 27  1  0  0  0  0
 11 28  1  0  0  0  0
 13 14  1  0  0  0  0
 13 30  1  0  0  0  0
 13 31  1  0  0  0  0
 14 15  1  0  0  0  0
 14 16  2  0  0  0  0
 15 17  2  0  0  0  0
 15 32  1  0  0  0  0
 16 33  1  0  0  0  0
 17 18  1  0  0  0  0
 17 34  1  0  0  0  0
 19 35  1  0  0  0  0
 19 36  1  0  0  0  0
 19 37  1  0  0  0  0
M  END
> <PUBCHEM_COMPOUND_CID>
75537041

> <PUBCHEM_CONFORMER_RMSD>
0.6

> <PUBCHEM_CONFORMER_DIVERSEORDER>
1
50
8
11
34
47
33
36
52
23
30
17
51
19
46
2
48
18
53
32
42
22
56
31
40
20
35
55
26
27
28
38
10
24
6
45
49
16
41
14
43
54
7
25
37
4
29
44
12
15
39
3
21
13
9
5

> <PUBCHEM_MMFF94_PARTIAL_CHARGES>
23
1 -0.57
10 0.3
11 0.27
12 0.69
13 0.41
14 -0.14
15 -0.15
16 0.16
17 -0.15
18 0.39
19 0.28
2 -0.36
29 0.37
3 -0.66
32 0.15
33 0.15
34 0.15
4 -0.81
5 -0.73
6 -0.62
7 0.3
8 0.27
9 0.3

> <PUBCHEM_EFFECTIVE_ROTOR_COUNT>
4.2

> <PUBCHEM_PHARMACOPHORE_FEATURES>
6
1 1 acceptor
1 4 cation
1 5 donor
5 3 5 7 10 12 rings
6 3 4 7 8 9 11 rings
6 6 14 15 16 17 18 rings

> <PUBCHEM_HEAVY_ATOM_COUNT>
19

> <PUBCHEM_ATOM_DEF_STEREO_COUNT>
1

> <PUBCHEM_ATOM_UDEF_STEREO_COUNT>
0

> <PUBCHEM_BOND_DEF_STEREO_COUNT>
0

> <PUBCHEM_BOND_UDEF_STEREO_COUNT>
0

> <PUBCHEM_ISOTOPIC_ATOM_COUNT>
0

> <PUBCHEM_COMPONENT_COUNT>
1

> <PUBCHEM_CACTVS_TAUTO_COUNT>
2

> <PUBCHEM_CONFORMER_ID>
04809A9100000001

> <PUBCHEM_MMFF94_ENERGY>
50.5785

> <PUBCHEM_FEATURE_SELFOVERLAP>
30.542

> <PUBCHEM_SHAPE_FINGERPRINT>
10354089 29 18410294709387919714
11089746 13 17632289086293749152
11370993 144 18186520981974779195
12236239 1 17632292376075115526
12403259 118 18338509862874100778
12507560 40 18040995094789674343
12633257 1 17968083248656717130
12670546 177 11959729378022540267
13103583 49 13262972750353524197
14178342 30 17458919227130393387
1420 369 11963384133172148337
14251764 38 18126287433346442009
14341114 176 18186525379815399368
14350574 20 9727628415034969231
15163728 17 16055211069127324121
15188451 53 16371302138018807499
15196674 1 18339642347013358628
15238133 3 18187093840322865484
15342168 16 18343022198849917439
1601671 61 18409729569549849164
18186145 218 18129383868521667660
193927 3 11602815774769511593
19784866 170 18260550021656531535
19784866 9 18411981364720414138
20157964 124 18341892936358254199
20281475 54 8358259254776442415
20645477 56 18113334194116919351
20871999 31 12319462065429665595
21065199 12 18187088360245211027
21503847 285 18412268311469726290
21637258 2 12829500276859399857
231179 274 18272093807306212774
23402539 116 17275100647867197508
23403322 49 9223238438050446357
23557571 272 13973096831513758423
23559900 14 18340771425064729202
2838139 119 18201432559124682497
335352 9 18412824677676087702
351380 180 18410291381215604641
351380 3 12396301465195302673
3545911 37 18409451384006351707
4259306 186 9079110043092677785
4325135 7 18131630111064695911
465052 167 11747236640627650369
474 4 18272089375005607667
5104073 3 18262509424908644160
602551 16 16081375201770375994
633830 44 18341047527611625454
8272917 22 18342740672154790206

> <PUBCHEM_SHAPE_MULTIPOLES>
359.35
12
2.03
0.94
3.88
0.27
0.05
6.13
-2.31
-0.61
0.04
0.64
-0.16
0.19

> <PUBCHEM_SHAPE_SELFOVERLAP>
760.194

> <PUBCHEM_SHAPE_VOLUME>
202

> <PUBCHEM_COORDINATE_TYPE>
2
5
10

$$$$
