7682015
  -OEChem-12032416133D

 57 60  0     1  0  0  0  0  0999 V2000
    0.0657   -0.5300   -1.1956 O   0  0  0  0  0  0  0  0  0  0  0  0
   -0.7555    3.9250   -1.2652 O   0  0  0  0  0  0  0  0  0  0  0  0
   -3.8281   -1.4441    1.0148 O   0  0  0  0  0  0  0  0  0  0  0  0
    2.7644   -1.5103    1.7429 O   0  0  0  0  0  0  0  0  0  0  0  0
    1.9124    0.3150    0.5482 N   0  0  0  0  0  0  0  0  0  0  0  0
    0.0223    2.4349    0.3262 N   0  0  0  0  0  0  0  0  0  0  0  0
   -1.1368   -1.5054    0.5427 N   0  0  0  0  0  0  0  0  0  0  0  0
   -4.0762   -3.5711    0.2200 N   0  0  0  0  0  0  0  0  0  0  0  0
   -3.3168    2.3071   -0.8500 N   0  0  0  0  0  0  0  0  0  0  0  0
    4.2615   -0.6362   -1.0522 N   0  0  0  0  0  0  0  0  0  0  0  0
    6.5798   -0.1840    0.4601 N   0  0  0  0  0  0  0  0  0  0  0  0
    0.5474    0.1222    1.0521 C   0  0  1  0  0  0  0  0  0  0  0  0
   -0.1773    1.4291    1.3776 C   0  0  0  0  0  0  0  0  0  0  0  0
    2.1071    1.3931   -0.4379 C   0  0  0  0  0  0  0  0  0  0  0  0
    1.4235    2.6822   -0.0021 C   0  0  0  0  0  0  0  0  0  0  0  0
   -1.9864   -2.3504   -0.2554 C   0  0  1  0  0  0  0  0  0  0  0  0
   -0.1800   -0.6647    0.0004 C   0  0  0  0  0  0  0  0  0  0  0  0
   -1.3385   -3.7088   -0.4853 C   0  0  0  0  0  0  0  0  0  0  0  0
   -2.3265   -4.6346   -1.1763 C   0  0  0  0  0  0  0  0  0  0  0  0
   -0.9941    3.1128   -0.3698 C   0  0  0  0  0  0  0  0  0  0  0  0
   -3.5387   -4.8215   -0.2835 C   0  0  0  0  0  0  0  0  0  0  0  0
    2.9032   -0.6032    0.9233 C   0  0  0  0  0  0  0  0  0  0  0  0
   -3.3531   -2.4124    0.4178 C   0  0  0  0  0  0  0  0  0  0  0  0
   -2.3723    2.8159    0.0026 C   0  0  0  0  0  0  0  0  0  0  0  0
    4.2239   -0.5011    0.2883 C   0  0  0  0  0  0  0  0  0  0  0  0
   -2.9639    2.9859    1.2348 C   0  0  0  0  0  0  0  0  0  0  0  0
   -4.5023    2.1490   -0.1806 C   0  0  0  0  0  0  0  0  0  0  0  0
   -4.3116    2.5641    1.1188 C   0  0  0  0  0  0  0  0  0  0  0  0
   -3.1115    1.9804   -2.2441 C   0  0  0  0  0  0  0  0  0  0  0  0
    5.3626   -0.2789    1.0311 C   0  0  0  0  0  0  0  0  0  0  0  0
    5.4786   -0.5411   -1.6232 C   0  0  0  0  0  0  0  0  0  0  0  0
    6.6172   -0.3190   -0.8804 C   0  0  0  0  0  0  0  0  0  0  0  0
    0.5941   -0.4812    1.9669 H   0  0  0  0  0  0  0  0  0  0  0  0
    0.2363    1.8612    2.2970 H   0  0  0  0  0  0  0  0  0  0  0  0
   -1.2295    1.2152    1.5608 H   0  0  0  0  0  0  0  0  0  0  0  0
    3.1706    1.6128   -0.5622 H   0  0  0  0  0  0  0  0  0  0  0  0
    1.7361    1.0620   -1.4115 H   0  0  0  0  0  0  0  0  0  0  0  0
    1.9007    3.0810    0.9012 H   0  0  0  0  0  0  0  0  0  0  0  0
    1.5202    3.4393   -0.7862 H   0  0  0  0  0  0  0  0  0  0  0  0
   -2.1451   -1.8641   -1.2270 H   0  0  0  0  0  0  0  0  0  0  0  0
   -1.0191   -4.1503    0.4679 H   0  0  0  0  0  0  0  0  0  0  0  0
   -0.4368   -3.5991   -1.0994 H   0  0  0  0  0  0  0  0  0  0  0  0
   -1.2473   -1.5419    1.5523 H   0  0  0  0  0  0  0  0  0  0  0  0
   -2.6300   -4.2023   -2.1376 H   0  0  0  0  0  0  0  0  0  0  0  0
   -1.8618   -5.6040   -1.3861 H   0  0  0  0  0  0  0  0  0  0  0  0
   -4.3410   -5.3372   -0.8202 H   0  0  0  0  0  0  0  0  0  0  0  0
   -3.2784   -5.4264    0.5922 H   0  0  0  0  0  0  0  0  0  0  0  0
   -5.0111   -3.6010    0.6151 H   0  0  0  0  0  0  0  0  0  0  0  0
   -2.4861    3.3775    2.1226 H   0  0  0  0  0  0  0  0  0  0  0  0
   -5.3807    1.7580   -0.6762 H   0  0  0  0  0  0  0  0  0  0  0  0
   -5.0621    2.5639    1.8966 H   0  0  0  0  0  0  0  0  0  0  0  0
   -3.9839    1.4437   -2.6257 H   0  0  0  0  0  0  0  0  0  0  0  0
   -2.2264    1.3444   -2.3273 H   0  0  0  0  0  0  0  0  0  0  0  0
   -2.9748    2.9121   -2.7985 H   0  0  0  0  0  0  0  0  0  0  0  0
    5.3415   -0.1673    2.1089 H   0  0  0  0  0  0  0  0  0  0  0  0
    5.5094   -0.6490   -2.7004 H   0  0  0  0  0  0  0  0  0  0  0  0
    7.5948   -0.2426   -1.3401 H   0  0  0  0  0  0  0  0  0  0  0  0
  1 17  2  0  0  0  0
  2 20  2  0  0  0  0
  3 23  2  0  0  0  0
  4 22  2  0  0  0  0
  5 12  1  0  0  0  0
  5 14  1  0  0  0  0
  5 22  1  0  0  0  0
  6 13  1  0  0  0  0
  6 15  1  0  0  0  0
  6 20  1  0  0  0  0
  7 16  1  0  0  0  0
  7 17  1  0  0  0  0
  7 43  1  0  0  0  0
  8 21  1  0  0  0  0
  8 23  1  0  0  0  0
  8 48  1  0  0  0  0
  9 24  1  0  0  0  0
  9 27  1  0  0  0  0
  9 29  1  0  0  0  0
 10 25  2  0  0  0  0
 10 31  1  0  0  0  0
 11 30  2  0  0  0  0
 11 32  1  0  0  0  0
 12 13  1  0  0  0  0
 12 17  1  0  0  0  0
 12 33  1  0  0  0  0
 13 34  1  0  0  0  0
 13 35  1  0  0  0  0
 14 15  1  0  0  0  0
 14 36  1  0  0  0  0
 14 37  1  0  0  0  0
 15 38  1  0  0  0  0
 15 39  1  0  0  0  0
 16 18  1  0  0  0  0
 16 23  1  0  0  0  0
 16 40  1  0  0  0  0
 18 19  1  0  0  0  0
 18 41  1  0  0  0  0
 18 42  1  0  0  0  0
 19 21  1  0  0  0  0
 19 44  1  0  0  0  0
 19 45  1  0  0  0  0
 20 24  1  0  0  0  0
 21 46  1  0  0  0  0
 21 47  1  0  0  0  0
 22 25  1  0  0  0  0
 24 26  2  0  0  0  0
 25 30  1  0  0  0  0
 26 28  1  0  0  0  0
 26 49  1  0  0  0  0
 27 28  2  0  0  0  0
 27 50  1  0  0  0  0
 28 51  1  0  0  0  0
 29 52  1  0  0  0  0
 29 53  1  0  0  0  0
 29 54  1  0  0  0  0
 30 55  1  0  0  0  0
 31 32  2  0  0  0  0
 31 56  1  0  0  0  0
 32 57  1  0  0  0  0
M  END
> <PUBCHEM_COMPOUND_CID>
7682015

> <PUBCHEM_CONFORMER_RMSD>
1

> <PUBCHEM_CONFORMER_DIVERSEORDER>
1
122
223
193
196
321
203
281
90
160
219
293
352
334
155
355
177
199
239
139
360
365
213
80
184
173
9
242
346
60
341
280
172
287
201
94
295
376
152
133
205
198
333
306
251
262
338
218
370
123
313
165
292
221
368
305
261
171
3
118
252
286
312
249
86
13
272
183
283
55
366
345
326
174
314
116
120
246
12
316
332
350
169
270
111
266
309
36
331
349
301
289
59
330
362
115
114
264
38
211
19
351
49
328
62
156
91
20
142
102
216
162
185
245
71
372
195
136
374
176
253
343
230
204
217
67
103
154
11
302
282
69
238
294
107
247
164
179
227
290
44
296
271
307
100
95
149
43
297
105
108
31
300
258
33
51
254
228
181
277
298
373
336
159
75
72
50
41
87
299
224
128
170
214
7
167
319
197
348
274
97
14
52
56
180
248
269
81
96
178
150
361
311
344
46
232
260
143
24
58
188
78
318
342
364
161
187
303
63
130
98
250
157
207
291
190
141
8
323
268
47
66
275
37
131
92
23
325
40
129
125
371
220
68
21
189
237
375
22
15
110
35
257
153
117
265
146
191
32
310
168
144
151
99
137
64
112
235
279
48
322
79
359
82
317
182
85
315
148
259
17
147
135
127
231
27
104
109
353
206
308
273
256
83
243
65
18
30
25
358
212
202
267
208
54
304
210
329
140
347
324
278
284
26
113
145
126
233
29
70
354
226
236
45
57
357
88
209
215
39
53
194
101
241
263
2
356
16
240
166
276
132
222
138
335
186
234
327
119
28
10
163
42
158
4
255
5
84
340
124
337
74
192
121
34
285
134
76
339
73
288
229
200
244
93
106
225
6
320
369
367
77
89
363
175
61

> <PUBCHEM_MMFF94_PARTIAL_CHARGES>
38
1 -0.57
10 -0.62
11 -0.62
12 0.36
13 0.3
14 0.3
15 0.3
16 0.36
17 0.57
2 -0.57
20 0.71
21 0.3
22 0.54
23 0.57
24 -0.24
25 0.4
26 -0.15
27 -0.3
28 -0.15
29 0.26
3 -0.57
30 0.16
31 0.16
32 0.16
4 -0.57
43 0.37
48 0.37
49 0.15
5 -0.66
50 0.15
51 0.15
55 0.15
56 0.15
57 0.15
6 -0.66
7 -0.73
8 -0.73
9 0.05

> <PUBCHEM_EFFECTIVE_ROTOR_COUNT>
9.2

> <PUBCHEM_PHARMACOPHORE_FEATURES>
13
1 1 acceptor
1 10 acceptor
1 11 acceptor
1 2 acceptor
1 3 acceptor
1 4 acceptor
1 7 donor
1 8 donor
1 9 cation
5 9 24 26 27 28 rings
6 10 11 25 30 31 32 rings
6 5 6 12 13 14 15 rings
6 8 16 18 19 21 23 rings

> <PUBCHEM_HEAVY_ATOM_COUNT>
32

> <PUBCHEM_ATOM_DEF_STEREO_COUNT>
2

> <PUBCHEM_ATOM_UDEF_STEREO_COUNT>
0

> <PUBCHEM_BOND_DEF_STEREO_COUNT>
0

> <PUBCHEM_BOND_UDEF_STEREO_COUNT>
0

> <PUBCHEM_ISOTOPIC_ATOM_COUNT>
0

> <PUBCHEM_COMPONENT_COUNT>
1

> <PUBCHEM_CACTVS_TAUTO_COUNT>
4

> <PUBCHEM_CONFORMER_ID>
007537DF00000001

> <PUBCHEM_MMFF94_ENERGY>
81.8166

> <PUBCHEM_FEATURE_SELFOVERLAP>
65.979

> <PUBCHEM_SHAPE_FINGERPRINT>
10119406 146 18055357938328146974
10815517 723 18272091626043354335
11014199 57 18051976114747957155
11445158 3 15069780493776477982
11578080 2 17988351693644095280
11991303 11 18261678064736717999
12058002 1 17272600277011816424
12597179 24 18129102221145333638
12788726 201 18333726931622796186
13009979 54 17913788359808712875
13690498 29 18337678640900835870
13692115 46 18058752267613036310
13911987 19 18191014604583538733
14117953 113 18341613746631679863
14251757 5 18410575080410576206
14674994 50 18343309180101328347
14790565 3 18051980208057622544
15131766 46 15215593358439915886
15775530 1 17700103746754522344
17980427 23 16952835855540612900
1813 80 18197221554028210126
19319366 153 17604712140604799018
19958102 18 18195808475369754134
23559900 14 17765707315075695251
244849 19 17417232338884280096
255183 451 17908708680339317191
4409770 3 18410569579100795271
4573279 73 18046919457057155564
484989 97 18263070172187647911
5080951 261 18192687043699999634
6036956 94 17178575845928572636
70251023 43 18048598415095851771
7237137 82 18334581256573396588

> <PUBCHEM_SHAPE_MULTIPOLES>
600.2
11.63
6.03
1.46
19.43
4.78
0.3
2.45
0.86
-11.62
1.24
0.14
-0.41
-0.14

> <PUBCHEM_SHAPE_SELFOVERLAP>
1286.72

> <PUBCHEM_SHAPE_VOLUME>
327.8

> <PUBCHEM_COORDINATE_TYPE>
2
5
10

$$$$
