51136755
  -OEChem-12032416143D

 68 70  0     1  0  0  0  0  0999 V2000
    5.0315    1.0492   -0.8407 O   0  0  0  0  0  0  0  0  0  0  0  0
   -2.2979    4.7045   -0.3671 O   0  0  0  0  0  0  0  0  0  0  0  0
   -0.4433    5.1555    0.8731 O   0  0  0  0  0  0  0  0  0  0  0  0
    3.1342    1.2217    0.4810 N   0  0  0  0  0  0  0  0  0  0  0  0
    1.0330   -2.0961   -0.0768 N   0  0  0  0  0  0  0  0  0  0  0  0
    4.1335   -0.8729    0.0298 N   0  0  0  0  0  0  0  0  0  0  0  0
    0.6779    0.9950    0.7274 C   0  0  2  0  0  0  0  0  0  0  0  0
    0.5521    2.5291    0.5311 C   0  0  1  0  0  0  0  0  0  0  0  0
    1.7377    3.1023   -0.2664 C   0  0  0  0  0  0  0  0  0  0  0  0
    2.0603    0.6621    1.3147 C   0  0  0  0  0  0  0  0  0  0  0  0
    0.4271    0.1799   -0.5467 C   0  0  0  0  0  0  0  0  0  0  0  0
    3.0757    2.6769    0.3366 C   0  0  0  0  0  0  0  0  0  0  0  0
   -0.7750    2.9462   -0.1019 C   0  0  0  0  0  0  0  0  0  0  0  0
    0.0698   -1.2415   -0.1845 C   0  0  0  0  0  0  0  0  0  0  0  0
   -1.3581   -1.5861    0.0359 C   0  0  0  0  0  0  0  0  0  0  0  0
    4.1606    0.5042   -0.1543 C   0  0  0  0  0  0  0  0  0  0  0  0
   -1.1122    4.3784    0.2085 C   0  0  0  0  0  0  0  0  0  0  0  0
   -1.6206   -2.7727    0.7323 C   0  0  0  0  0  0  0  0  0  0  0  0
   -0.4635   -3.5961    1.2145 C   0  0  0  0  0  0  0  0  0  0  0  0
    0.6806   -3.4898    0.2150 C   0  0  0  0  0  0  0  0  0  0  0  0
   -2.4070   -0.7775   -0.4060 C   0  0  0  0  0  0  0  0  0  0  0  0
   -3.7243   -1.1538   -0.1401 C   0  0  0  0  0  0  0  0  0  0  0  0
   -4.8516   -0.2971   -0.6097 C   0  0  0  0  0  0  0  0  0  0  0  0
   -2.9425   -3.1330    1.0079 C   0  0  0  0  0  0  0  0  0  0  0  0
   -3.9918   -2.3262    0.5672 C   0  0  0  0  0  0  0  0  0  0  0  0
    5.1174   -1.7481   -0.5672 C   0  0  0  0  0  0  0  0  0  0  0  0
   -5.7157    0.2064    0.5878 C   0  0  0  0  0  0  0  0  0  0  0  0
   -5.7948   -1.0815   -1.5735 C   0  0  0  0  0  0  0  0  0  0  0  0
   -4.4341    0.9916   -1.3929 C   0  0  0  0  0  0  0  0  0  0  0  0
    4.6718   -2.1735   -1.9602 C   0  0  0  0  0  0  0  0  0  0  0  0
    5.3692   -2.9571    0.3252 C   0  0  0  0  0  0  0  0  0  0  0  0
   -0.0722    0.7061    1.4770 H   0  0  0  0  0  0  0  0  0  0  0  0
    0.6056    2.9654    1.5397 H   0  0  0  0  0  0  0  0  0  0  0  0
    1.6867    2.7499   -1.3047 H   0  0  0  0  0  0  0  0  0  0  0  0
    1.6962    4.1962   -0.3005 H   0  0  0  0  0  0  0  0  0  0  0  0
    2.1704   -0.4019    1.5120 H   0  0  0  0  0  0  0  0  0  0  0  0
    2.1568    1.1418    2.2981 H   0  0  0  0  0  0  0  0  0  0  0  0
    1.3261    0.1504   -1.1756 H   0  0  0  0  0  0  0  0  0  0  0  0
   -0.3279    0.6240   -1.1910 H   0  0  0  0  0  0  0  0  0  0  0  0
    3.2053    3.1149    1.3334 H   0  0  0  0  0  0  0  0  0  0  0  0
    3.8941    3.0449   -0.2897 H   0  0  0  0  0  0  0  0  0  0  0  0
   -1.5861    2.3347    0.3098 H   0  0  0  0  0  0  0  0  0  0  0  0
   -0.7520    2.8271   -1.1905 H   0  0  0  0  0  0  0  0  0  0  0  0
   -0.7515   -4.6474    1.3265 H   0  0  0  0  0  0  0  0  0  0  0  0
   -0.1503   -3.2223    2.1967 H   0  0  0  0  0  0  0  0  0  0  0  0
    0.4298   -3.9979   -0.7246 H   0  0  0  0  0  0  0  0  0  0  0  0
    1.5630   -3.9938    0.6244 H   0  0  0  0  0  0  0  0  0  0  0  0
   -2.1989    0.1256   -0.9578 H   0  0  0  0  0  0  0  0  0  0  0  0
    3.3358   -1.3234    0.4562 H   0  0  0  0  0  0  0  0  0  0  0  0
   -3.1625   -4.0407    1.5632 H   0  0  0  0  0  0  0  0  0  0  0  0
   -5.0090   -2.6348    0.7908 H   0  0  0  0  0  0  0  0  0  0  0  0
    6.0595   -1.1948   -0.6628 H   0  0  0  0  0  0  0  0  0  0  0  0
   -5.1026    0.7732    1.2986 H   0  0  0  0  0  0  0  0  0  0  0  0
   -6.1774   -0.6217    1.1366 H   0  0  0  0  0  0  0  0  0  0  0  0
   -6.5268    0.8602    0.2470 H   0  0  0  0  0  0  0  0  0  0  0  0
   -6.2584   -1.9435   -1.0813 H   0  0  0  0  0  0  0  0  0  0  0  0
   -5.2399   -1.4555   -2.4420 H   0  0  0  0  0  0  0  0  0  0  0  0
   -6.6074   -0.4446   -1.9421 H   0  0  0  0  0  0  0  0  0  0  0  0
   -5.3157    1.5642   -1.7064 H   0  0  0  0  0  0  0  0  0  0  0  0
   -3.8255    1.6604   -0.7736 H   0  0  0  0  0  0  0  0  0  0  0  0
   -3.8738    0.7472   -2.3029 H   0  0  0  0  0  0  0  0  0  0  0  0
   -2.5494    5.6349   -0.1844 H   0  0  0  0  0  0  0  0  0  0  0  0
    3.7223   -2.7195   -1.9231 H   0  0  0  0  0  0  0  0  0  0  0  0
    4.5243   -1.3030   -2.6086 H   0  0  0  0  0  0  0  0  0  0  0  0
    5.4194   -2.8209   -2.4300 H   0  0  0  0  0  0  0  0  0  0  0  0
    4.4568   -3.5489    0.4600 H   0  0  0  0  0  0  0  0  0  0  0  0
    5.7067   -2.6419    1.3186 H   0  0  0  0  0  0  0  0  0  0  0  0
    6.1380   -3.6079   -0.1038 H   0  0  0  0  0  0  0  0  0  0  0  0
  1 16  2  0  0  0  0
  2 17  1  0  0  0  0
  2 62  1  0  0  0  0
  3 17  2  0  0  0  0
  4 10  1  0  0  0  0
  4 12  1  0  0  0  0
  4 16  1  0  0  0  0
  5 14  2  0  0  0  0
  5 20  1  0  0  0  0
  6 16  1  0  0  0  0
  6 26  1  0  0  0  0
  6 49  1  0  0  0  0
  7  8  1  0  0  0  0
  7 10  1  0  0  0  0
  7 11  1  0  0  0  0
  7 32  1  0  0  0  0
  8  9  1  0  0  0  0
  8 13  1  0  0  0  0
  8 33  1  0  0  0  0
  9 12  1  0  0  0  0
  9 34  1  0  0  0  0
  9 35  1  0  0  0  0
 10 36  1  0  0  0  0
 10 37  1  0  0  0  0
 11 14  1  0  0  0  0
 11 38  1  0  0  0  0
 11 39  1  0  0  0  0
 12 40  1  0  0  0  0
 12 41  1  0  0  0  0
 13 17  1  0  0  0  0
 13 42  1  0  0  0  0
 13 43  1  0  0  0  0
 14 15  1  0  0  0  0
 15 18  2  0  0  0  0
 15 21  1  0  0  0  0
 18 19  1  0  0  0  0
 18 24  1  0  0  0  0
 19 20  1  0  0  0  0
 19 44  1  0  0  0  0
 19 45  1  0  0  0  0
 20 46  1  0  0  0  0
 20 47  1  0  0  0  0
 21 22  2  0  0  0  0
 21 48  1  0  0  0  0
 22 23  1  0  0  0  0
 22 25  1  0  0  0  0
 23 27  1  0  0  0  0
 23 28  1  0  0  0  0
 23 29  1  0  0  0  0
 24 25  2  0  0  0  0
 24 50  1  0  0  0  0
 25 51  1  0  0  0  0
 26 30  1  0  0  0  0
 26 31  1  0  0  0  0
 26 52  1  0  0  0  0
 27 53  1  0  0  0  0
 27 54  1  0  0  0  0
 27 55  1  0  0  0  0
 28 56  1  0  0  0  0
 28 57  1  0  0  0  0
 28 58  1  0  0  0  0
 29 59  1  0  0  0  0
 29 60  1  0  0  0  0
 29 61  1  0  0  0  0
 30 63  1  0  0  0  0
 30 64  1  0  0  0  0
 30 65  1  0  0  0  0
 31 66  1  0  0  0  0
 31 67  1  0  0  0  0
 31 68  1  0  0  0  0
M  END
> <PUBCHEM_COMPOUND_CID>
51136755

> <PUBCHEM_CONFORMER_RMSD>
1

> <PUBCHEM_CONFORMER_DIVERSEORDER>
1
105
16
86
104
77
46
57
52
55
109
59
23
88
7
64
27
90
127
99
22
120
136
76
107
68
5
39
54
83
11
10
137
47
95
106
33
56
37
101
67
4
125
79
108
92
97
26
94
118
130
36
116
44
74
71
84
103
111
2
17
61
98
110
96
29
3
73
135
102
14
126
38
51
114
75
48
63
69
66
80
42
60
87
91
112
128
123
34
100
18
40
15
65
70
25
131
78
134
121
43
9
124
8
132
30
133
93
12
49
45
6
53
58
115
89
21
41
117
85
35
82
113
28
19
24
81
20
13
122
50
62
119
129
31
32
72

> <PUBCHEM_MMFF94_PARTIAL_CHARGES>
28
1 -0.57
10 0.3
11 0.06
12 0.3
13 0.06
14 0.3
15 0.09
16 0.69
17 0.66
18 -0.14
19 0.14
2 -0.65
20 0.25
21 -0.15
22 -0.14
23 0.14
24 -0.15
25 -0.15
26 0.3
3 -0.57
4 -0.66
48 0.15
49 0.37
5 -0.7
50 0.15
51 0.15
6 -0.73
62 0.5

> <PUBCHEM_EFFECTIVE_ROTOR_COUNT>
9.6

> <PUBCHEM_PHARMACOPHORE_FEATURES>
11
1 1 acceptor
1 2 acceptor
1 3 acceptor
1 5 acceptor
1 6 donor
3 2 3 17 anion
3 26 30 31 hydrophobe
4 23 27 28 29 hydrophobe
6 15 18 21 22 24 25 rings
6 4 7 8 9 10 12 rings
6 5 14 15 18 19 20 rings

> <PUBCHEM_HEAVY_ATOM_COUNT>
31

> <PUBCHEM_ATOM_DEF_STEREO_COUNT>
2

> <PUBCHEM_ATOM_UDEF_STEREO_COUNT>
0

> <PUBCHEM_BOND_DEF_STEREO_COUNT>
0

> <PUBCHEM_BOND_UDEF_STEREO_COUNT>
0

> <PUBCHEM_ISOTOPIC_ATOM_COUNT>
0

> <PUBCHEM_COMPONENT_COUNT>
1

> <PUBCHEM_CACTVS_TAUTO_COUNT>
2

> <PUBCHEM_CONFORMER_ID>
030C48F300000001

> <PUBCHEM_MMFF94_ENERGY>
80.6138

> <PUBCHEM_FEATURE_SELFOVERLAP>
55.903

> <PUBCHEM_SHAPE_FINGERPRINT>
10190108 129 18120677755033136977
10675989 125 18408604790513549672
10693767 8 18129925854503179127
1100329 8 17257087073902025354
12645989 146 18343015623208138447
12788726 201 18410014325807759968
13140716 1 18408044030735291891
144659 178 18336274469925793956
14466204 15 18265317577437295649
14681490 219 18340764849875435543
14725015 67 18340480063716771114
14790565 3 17187570438846929584
14866123 147 18122628241152219170
14955137 171 18262812864538049219
15081414 286 18268156537655585160
15351339 4 18263070037882858953
15790856 291 18340492162513135087
15927050 60 17691689978614243590
17349148 13 15912780490829581439
17627616 140 17758396271018901939
19591789 44 18410289203055210329
20764821 26 17688014328749752273
21033648 29 17700969092269535803
21133410 127 16888339982042504397
21279426 13 18409728439361845567
21285901 2 18059864943425999398
21521239 73 18129646617452368879
23536364 44 18265883662532343949
23559900 14 18411701027984324930
24893992 56 18409448069441521249
3004659 81 18186801388248684734
5265222 85 17399247833664475004
59755656 215 18335979762497332711
6287921 2 16818832184752826629

> <PUBCHEM_SHAPE_MULTIPOLES>
605.41
11.33
6.24
1.19
0.2
6.18
0.28
-5.96
3.87
-0.37
-1.45
0.14
-0.44
1.31

> <PUBCHEM_SHAPE_SELFOVERLAP>
1259.408

> <PUBCHEM_SHAPE_VOLUME>
343.9

> <PUBCHEM_COORDINATE_TYPE>
2
5
10

$$$$
