75536691
  -OEChem-12032416333D

 47 49  0     1  0  0  0  0  0999 V2000
    4.3668   -1.4036    0.1942 S   0  0  0  0  0  0  0  0  0  0  0  0
   -0.0259   -1.1255    1.4169 O   0  0  0  0  0  0  0  0  0  0  0  0
   -0.7616   -1.3580   -2.0916 O   0  0  0  0  0  0  0  0  0  0  0  0
    4.4271   -2.0561   -1.0998 O   0  0  0  0  0  0  0  0  0  0  0  0
    5.1742   -1.8920    1.2957 O   0  0  0  0  0  0  0  0  0  0  0  0
   -3.1123   -0.2742   -0.3095 N   0  0  0  0  0  0  0  0  0  0  0  0
    2.7454   -1.3020    0.6991 N   0  0  0  0  0  0  0  0  0  0  0  0
   -5.8060    1.1684    0.5872 N   0  0  0  0  0  0  0  0  0  0  0  0
   -6.4575   -0.2961   -0.9499 N   0  0  0  0  0  0  0  0  0  0  0  0
   -1.9488   -1.0799    0.0234 C   0  0  1  0  0  0  0  0  0  0  0  0
   -0.7243   -0.7560   -0.8123 C   0  0  1  0  0  0  0  0  0  0  0  0
    0.3847   -1.3353    0.0556 C   0  0  1  0  0  0  0  0  0  0  0  0
   -1.4313   -0.8197    1.4286 C   0  0  0  0  0  0  0  0  0  0  0  0
    1.7348   -0.6818   -0.1799 C   0  0  0  0  0  0  0  0  0  0  0  0
   -4.3258   -0.8405    0.2672 C   0  0  0  0  0  0  0  0  0  0  0  0
   -5.5395   -0.0095   -0.0536 C   0  0  0  0  0  0  0  0  0  0  0  0
    4.7819    0.2994   -0.0346 C   0  0  0  0  0  0  0  0  0  0  0  0
   -6.9678    1.6645    0.0664 C   0  0  0  0  0  0  0  0  0  0  0  0
   -5.0169    1.7891    1.6250 C   0  0  0  0  0  0  0  0  0  0  0  0
   -7.3508    0.7435   -0.8800 C   0  0  0  0  0  0  0  0  0  0  0  0
    5.3080    1.0373    1.0258 C   0  0  0  0  0  0  0  0  0  0  0  0
    4.5799    0.9061   -1.2741 C   0  0  0  0  0  0  0  0  0  0  0  0
    5.6320    2.3822    0.8466 C   0  0  0  0  0  0  0  0  0  0  0  0
    4.9038    2.2509   -1.4534 C   0  0  0  0  0  0  0  0  0  0  0  0
    5.4299    2.9890   -0.3931 C   0  0  0  0  0  0  0  0  0  0  0  0
   -2.1768   -2.1473   -0.1072 H   0  0  0  0  0  0  0  0  0  0  0  0
   -0.6055    0.3278   -0.9348 H   0  0  0  0  0  0  0  0  0  0  0  0
    0.4738   -2.4192   -0.0962 H   0  0  0  0  0  0  0  0  0  0  0  0
   -1.5304    0.2322    1.7209 H   0  0  0  0  0  0  0  0  0  0  0  0
   -1.9296   -1.4354    2.1835 H   0  0  0  0  0  0  0  0  0  0  0  0
    1.6885    0.3848    0.0670 H   0  0  0  0  0  0  0  0  0  0  0  0
    2.0172   -0.7945   -1.2309 H   0  0  0  0  0  0  0  0  0  0  0  0
   -3.2143   -0.2374   -1.3241 H   0  0  0  0  0  0  0  0  0  0  0  0
   -4.2396   -0.9382    1.3556 H   0  0  0  0  0  0  0  0  0  0  0  0
   -4.4954   -1.8491   -0.1310 H   0  0  0  0  0  0  0  0  0  0  0  0
   -0.8677   -2.3173   -1.9752 H   0  0  0  0  0  0  0  0  0  0  0  0
    2.5489   -1.2557    1.7068 H   0  0  0  0  0  0  0  0  0  0  0  0
   -7.4084    2.5942    0.3984 H   0  0  0  0  0  0  0  0  0  0  0  0
   -4.9234    1.0908    2.4601 H   0  0  0  0  0  0  0  0  0  0  0  0
   -4.0364    2.0422    1.2153 H   0  0  0  0  0  0  0  0  0  0  0  0
   -5.5175    2.6994    1.9656 H   0  0  0  0  0  0  0  0  0  0  0  0
   -8.2243    0.7761   -1.5148 H   0  0  0  0  0  0  0  0  0  0  0  0
    5.4661    0.5874    2.0017 H   0  0  0  0  0  0  0  0  0  0  0  0
    4.1687    0.3515   -2.1126 H   0  0  0  0  0  0  0  0  0  0  0  0
    6.0397    2.9576    1.6726 H   0  0  0  0  0  0  0  0  0  0  0  0
    4.7456    2.7238   -2.4182 H   0  0  0  0  0  0  0  0  0  0  0  0
    5.6814    4.0363   -0.5325 H   0  0  0  0  0  0  0  0  0  0  0  0
  1  4  2  0  0  0  0
  1  5  2  0  0  0  0
  1  7  1  0  0  0  0
  1 17  1  0  0  0  0
  2 12  1  0  0  0  0
  2 13  1  0  0  0  0
  3 11  1  0  0  0  0
  3 36  1  0  0  0  0
  6 10  1  0  0  0  0
  6 15  1  0  0  0  0
  6 33  1  0  0  0  0
  7 14  1  0  0  0  0
  7 37  1  0  0  0  0
  8 16  1  0  0  0  0
  8 18  1  0  0  0  0
  8 19  1  0  0  0  0
  9 16  2  0  0  0  0
  9 20  1  0  0  0  0
 10 11  1  0  0  0  0
 10 13  1  0  0  0  0
 10 26  1  0  0  0  0
 11 12  1  0  0  0  0
 11 27  1  0  0  0  0
 12 14  1  0  0  0  0
 12 28  1  0  0  0  0
 13 29  1  0  0  0  0
 13 30  1  0  0  0  0
 14 31  1  0  0  0  0
 14 32  1  0  0  0  0
 15 16  1  0  0  0  0
 15 34  1  0  0  0  0
 15 35  1  0  0  0  0
 17 21  2  0  0  0  0
 17 22  1  0  0  0  0
 18 20  2  0  0  0  0
 18 38  1  0  0  0  0
 19 39  1  0  0  0  0
 19 40  1  0  0  0  0
 19 41  1  0  0  0  0
 20 42  1  0  0  0  0
 21 23  1  0  0  0  0
 21 43  1  0  0  0  0
 22 24  2  0  0  0  0
 22 44  1  0  0  0  0
 23 25  2  0  0  0  0
 23 45  1  0  0  0  0
 24 25  1  0  0  0  0
 24 46  1  0  0  0  0
 25 47  1  0  0  0  0
M  END
> <PUBCHEM_COMPOUND_CID>
75536691

> <PUBCHEM_CONFORMER_RMSD>
1.2

> <PUBCHEM_CONFORMER_DIVERSEORDER>
1
65
48
7
152
52
115
97
31
106
136
92
6
146
142
110
148
130
163
11
30
101
12
131
18
64
102
59
75
47
72
42
112
149
34
138
94
85
157
37
24
49
133
87
123
89
150
56
160
156
121
107
4
159
158
86
100
25
3
103
154
10
78
2
98
113
153
32
39
26
82
73
109
147
22
23
134
67
140
120
13
68
108
69
162
44
118
90
81
58
105
21
61
84
50
16
114
93
91
28
128
9
116
40
122
62
126
124
132
15
55
8
88
70
5
99
53
76
77
139
29
144
19
141
117
33
38
137
129
46
125
161
17
41
45
60
135
111
74
143
35
51
27
36
164
66
63
119
54
57
71
95
104
145
20
79
14
96
80
127
43
83
155
151

> <PUBCHEM_MMFF94_PARTIAL_CHARGES>
35
1 1.45
10 0.27
11 0.28
12 0.28
13 0.28
14 0.36
15 0.45
16 0.01
17 -0.01
18 -0.3
19 0.26
2 -0.56
20 0.08
21 -0.15
22 -0.15
23 -0.15
24 -0.15
25 -0.15
3 -0.68
33 0.36
36 0.4
37 0.42
38 0.15
4 -0.65
42 0.15
43 0.15
44 0.15
45 0.15
46 0.15
47 0.15
5 -0.65
6 -0.9
7 -0.91
8 0.05
9 -0.57

> <PUBCHEM_EFFECTIVE_ROTOR_COUNT>
8

> <PUBCHEM_PHARMACOPHORE_FEATURES>
12
1 2 acceptor
1 3 acceptor
1 3 donor
1 4 acceptor
1 5 acceptor
1 6 cation
1 6 donor
1 7 donor
3 8 9 16 cation
5 2 10 11 12 13 rings
5 8 9 16 18 20 rings
6 17 21 22 23 24 25 rings

> <PUBCHEM_HEAVY_ATOM_COUNT>
25

> <PUBCHEM_ATOM_DEF_STEREO_COUNT>
3

> <PUBCHEM_ATOM_UDEF_STEREO_COUNT>
0

> <PUBCHEM_BOND_DEF_STEREO_COUNT>
0

> <PUBCHEM_BOND_UDEF_STEREO_COUNT>
0

> <PUBCHEM_ISOTOPIC_ATOM_COUNT>
0

> <PUBCHEM_COMPONENT_COUNT>
1

> <PUBCHEM_CACTVS_TAUTO_COUNT>
1

> <PUBCHEM_CONFORMER_ID>
0480993300000001

> <PUBCHEM_MMFF94_ENERGY>
33.865

> <PUBCHEM_FEATURE_SELFOVERLAP>
60.917

> <PUBCHEM_SHAPE_FINGERPRINT>
10 15 16153429467166431613
10319926 262 14418141725309702673
10554248 39 18058721412668175719
10638233 991 18410576163164301873
10906281 52 17845669079425395987
11408170 132 14332860223430735817
11991303 11 16630519678935662557
125118 31 18333731291225487317
12596602 18 18113621192463823147
13167372 99 18410010996554107673
13533116 47 17676765362688259906
13668630 136 12967119524515959149
13878862 14 18334284367106805716
13955234 65 17677604285739107290
14347332 77 10951783957663758019
15183329 4 17847063281132653513
15348495 7 15430329069786420653
155225 6 17679594595280735564
15840311 113 18261395516650718453
1979834 28 15068334601710312002
20157964 124 18411138030638329898
20281389 69 18260546697916392133
21150785 3 17132112476779817941
21298829 104 18338517555572698996
21344244 181 12103845678674807341
21521239 73 12247677167154498253
21641784 216 16630254623281450561
21792934 111 15719656685686321815
22061861 79 13110966413867997073
22122407 14 18338527429290848464
2215653 11 13901912236585836838
23081809 10 18201996625663781055
23559900 14 16877951542589859274
249057 25 17988366948940110291
2748736 6 18335417993401578089
2838139 119 18341331115543829985
328310 630 18343026584307295977
33382 64 9367349227684171838
3472631 163 18059294374406589316
34797466 226 18343025471567959399
394071 54 17603590763604720852
397830 11 17677064541561823595
465052 167 8286210448410290328
5104073 3 17821729472250557458
5718773 13 11527407969382687772
6328613 192 18412544314921956489
6898599 12 18128536157451490023

> <PUBCHEM_SHAPE_MULTIPOLES>
474.94
20.97
2.58
1.46
20.61
1.23
0.08
13.09
0.81
-4.06
-0.06
-0.3
0.04
-1.17

> <PUBCHEM_SHAPE_SELFOVERLAP>
984.868

> <PUBCHEM_SHAPE_VOLUME>
273.3

> <PUBCHEM_COORDINATE_TYPE>
2
5
10

$$$$
