56774551
  -OEChem-12032416273D

 54 56  0     1  0  0  0  0  0999 V2000
    3.2288   -2.2388    0.1757 O   0  0  0  0  0  0  0  0  0  0  0  0
    3.1742    1.6978   -1.3121 O   0  0  0  0  0  0  0  0  0  0  0  0
   -3.9002   -0.5520   -1.1019 O   0  0  0  0  0  0  0  0  0  0  0  0
    6.6240   -1.3091   -0.6300 O   0  0  0  0  0  0  0  0  0  0  0  0
    4.8942    0.0165    0.1867 N   0  0  0  0  0  0  0  0  0  0  0  0
   -2.8910    1.0453    0.3083 N   0  0  0  0  0  0  0  0  0  0  0  0
   -5.2802    0.7851    0.2954 C   0  0  0  0  0  0  0  0  0  0  0  0
   -5.6011    0.0165    1.5789 C   0  0  0  0  0  0  0  0  0  0  0  0
   -6.3852    0.6684   -0.7566 C   0  0  0  0  0  0  0  0  0  0  0  0
   -6.0674   -1.4150    1.3186 C   0  0  0  0  0  0  0  0  0  0  0  0
   -6.8597   -0.7667   -0.9832 C   0  0  0  0  0  0  0  0  0  0  0  0
   -7.2230   -1.4585    0.3255 C   0  0  0  0  0  0  0  0  0  0  0  0
    3.4610    0.1195    0.4881 C   0  0  1  0  0  0  0  0  0  0  0  0
   -3.9588    0.3369   -0.2586 C   0  0  0  0  0  0  0  0  0  0  0  0
    2.6695    0.4810   -0.7724 C   0  0  1  0  0  0  0  0  0  0  0  0
    2.9605   -1.1861    1.0943 C   0  0  0  0  0  0  0  0  0  0  0  0
    1.1971    0.6302   -0.4857 C   0  0  0  0  0  0  0  0  0  0  0  0
    5.6600    1.2543    0.1272 C   0  0  0  0  0  0  0  0  0  0  0  0
    5.4750   -1.1894   -0.2010 C   0  0  0  0  0  0  0  0  0  0  0  0
    4.6169   -2.4304    0.0179 C   0  0  0  0  0  0  0  0  0  0  0  0
   -1.5279    0.9065    0.0435 C   0  0  0  0  0  0  0  0  0  0  0  0
    0.2718   -0.1705   -1.1553 C   0  0  0  0  0  0  0  0  0  0  0  0
    0.7597    1.5688    0.4489 C   0  0  0  0  0  0  0  0  0  0  0  0
   -1.0906   -0.0323   -0.8910 C   0  0  0  0  0  0  0  0  0  0  0  0
   -0.6028    1.7072    0.7134 C   0  0  0  0  0  0  0  0  0  0  0  0
    6.3953    1.5146    1.4256 C   0  0  0  0  0  0  0  0  0  0  0  0
   -5.1934    1.8508    0.5479 H   0  0  0  0  0  0  0  0  0  0  0  0
   -4.7336   -0.0045    2.2494 H   0  0  0  0  0  0  0  0  0  0  0  0
   -6.3973    0.5488    2.1154 H   0  0  0  0  0  0  0  0  0  0  0  0
   -7.2444    1.2665   -0.4258 H   0  0  0  0  0  0  0  0  0  0  0  0
   -6.0571    1.0968   -1.7115 H   0  0  0  0  0  0  0  0  0  0  0  0
   -6.3795   -1.8742    2.2636 H   0  0  0  0  0  0  0  0  0  0  0  0
   -5.2321   -2.0147    0.9378 H   0  0  0  0  0  0  0  0  0  0  0  0
   -6.1049   -1.3554   -1.5135 H   0  0  0  0  0  0  0  0  0  0  0  0
   -7.7405   -0.7509   -1.6365 H   0  0  0  0  0  0  0  0  0  0  0  0
   -8.1022   -0.9718    0.7654 H   0  0  0  0  0  0  0  0  0  0  0  0
   -7.5009   -2.4998    0.1275 H   0  0  0  0  0  0  0  0  0  0  0  0
    3.3662    0.9063    1.2469 H   0  0  0  0  0  0  0  0  0  0  0  0
    2.8293   -0.2777   -1.5479 H   0  0  0  0  0  0  0  0  0  0  0  0
    3.4662   -1.3985    2.0454 H   0  0  0  0  0  0  0  0  0  0  0  0
    1.8880   -1.1756    1.3067 H   0  0  0  0  0  0  0  0  0  0  0  0
    6.3874    1.1848   -0.6892 H   0  0  0  0  0  0  0  0  0  0  0  0
    5.0204    2.1136   -0.0754 H   0  0  0  0  0  0  0  0  0  0  0  0
   -3.1217    1.7484    1.0071 H   0  0  0  0  0  0  0  0  0  0  0  0
    4.7597   -3.0915   -0.8433 H   0  0  0  0  0  0  0  0  0  0  0  0
    5.0041   -2.9501    0.9022 H   0  0  0  0  0  0  0  0  0  0  0  0
    0.5990   -0.9065   -1.8850 H   0  0  0  0  0  0  0  0  0  0  0  0
    1.4599    2.2071    0.9804 H   0  0  0  0  0  0  0  0  0  0  0  0
   -1.7462   -0.6867   -1.4484 H   0  0  0  0  0  0  0  0  0  0  0  0
   -0.9296    2.4434    1.4434 H   0  0  0  0  0  0  0  0  0  0  0  0
    2.8947    2.4389   -0.7493 H   0  0  0  0  0  0  0  0  0  0  0  0
    5.6953    1.6058    2.2627 H   0  0  0  0  0  0  0  0  0  0  0  0
    7.0869    0.6981    1.6583 H   0  0  0  0  0  0  0  0  0  0  0  0
    6.9726    2.4419    1.3598 H   0  0  0  0  0  0  0  0  0  0  0  0
  1 16  1  0  0  0  0
  1 20  1  0  0  0  0
  2 15  1  0  0  0  0
  2 51  1  0  0  0  0
  3 14  2  0  0  0  0
  4 19  2  0  0  0  0
  5 13  1  0  0  0  0
  5 18  1  0  0  0  0
  5 19  1  0  0  0  0
  6 14  1  0  0  0  0
  6 21  1  0  0  0  0
  6 44  1  0  0  0  0
  7  8  1  0  0  0  0
  7  9  1  0  0  0  0
  7 14  1  0  0  0  0
  7 27  1  0  0  0  0
  8 10  1  0  0  0  0
  8 28  1  0  0  0  0
  8 29  1  0  0  0  0
  9 11  1  0  0  0  0
  9 30  1  0  0  0  0
  9 31  1  0  0  0  0
 10 12  1  0  0  0  0
 10 32  1  0  0  0  0
 10 33  1  0  0  0  0
 11 12  1  0  0  0  0
 11 34  1  0  0  0  0
 11 35  1  0  0  0  0
 12 36  1  0  0  0  0
 12 37  1  0  0  0  0
 13 15  1  0  0  0  0
 13 16  1  0  0  0  0
 13 38  1  0  0  0  0
 15 17  1  0  0  0  0
 15 39  1  0  0  0  0
 16 40  1  0  0  0  0
 16 41  1  0  0  0  0
 17 22  2  0  0  0  0
 17 23  1  0  0  0  0
 18 26  1  0  0  0  0
 18 42  1  0  0  0  0
 18 43  1  0  0  0  0
 19 20  1  0  0  0  0
 20 45  1  0  0  0  0
 20 46  1  0  0  0  0
 21 24  2  0  0  0  0
 21 25  1  0  0  0  0
 22 24  1  0  0  0  0
 22 47  1  0  0  0  0
 23 25  2  0  0  0  0
 23 48  1  0  0  0  0
 24 49  1  0  0  0  0
 25 50  1  0  0  0  0
 26 52  1  0  0  0  0
 26 53  1  0  0  0  0
 26 54  1  0  0  0  0
M  END
> <PUBCHEM_COMPOUND_CID>
56774551

> <PUBCHEM_CONFORMER_RMSD>
1

> <PUBCHEM_CONFORMER_DIVERSEORDER>
1
25
24
13
19
10
8
33
7
27
5
20
15
17
12
14
9
18
32
22
2
30
21
23
28
11
3
16
29
4
6
31
26

> <PUBCHEM_MMFF94_PARTIAL_CHARGES>
26
1 -0.56
13 0.3
14 0.57
15 0.42
16 0.28
17 -0.14
18 0.3
19 0.57
2 -0.68
20 0.34
21 0.12
22 -0.15
23 -0.15
24 -0.15
25 -0.15
3 -0.57
4 -0.57
44 0.37
47 0.15
48 0.15
49 0.15
5 -0.66
50 0.15
51 0.4
6 -0.55
7 0.06

> <PUBCHEM_EFFECTIVE_ROTOR_COUNT>
8.2

> <PUBCHEM_PHARMACOPHORE_FEATURES>
9
1 1 acceptor
1 2 acceptor
1 2 donor
1 3 acceptor
1 4 acceptor
1 6 donor
6 1 5 13 16 19 20 rings
6 17 21 22 23 24 25 rings
6 7 8 9 10 11 12 rings

> <PUBCHEM_HEAVY_ATOM_COUNT>
26

> <PUBCHEM_ATOM_DEF_STEREO_COUNT>
2

> <PUBCHEM_ATOM_UDEF_STEREO_COUNT>
0

> <PUBCHEM_BOND_DEF_STEREO_COUNT>
0

> <PUBCHEM_BOND_UDEF_STEREO_COUNT>
0

> <PUBCHEM_ISOTOPIC_ATOM_COUNT>
0

> <PUBCHEM_COMPONENT_COUNT>
1

> <PUBCHEM_CACTVS_TAUTO_COUNT>
6

> <PUBCHEM_CONFORMER_ID>
03624F9700000001

> <PUBCHEM_MMFF94_ENERGY>
65.7597

> <PUBCHEM_FEATURE_SELFOVERLAP>
45.673

> <PUBCHEM_SHAPE_FINGERPRINT>
10 15 17060342937856424745
106641 1 17846214509378937880
11315181 36 18131350826626794521
11796584 16 17821727230778411691
12166972 35 18342459239906427208
12236239 1 18343302548165725829
12516196 113 18411135839999300297
12596602 18 18131636668677644193
12623949 98 17986400997124161294
13073987 5 18342738490174234305
13533116 47 18341895160924609506
13668630 136 18186522107530510587
13685833 64 18408605868302206675
13782708 43 17530685407219997355
13862211 1 18202845461641175837
13885169 127 18334575716835990725
13899415 154 16773797021665594416
14251757 52 14764339484091003770
14251764 18 17632576080514269189
14341114 176 18344148085745400200
14461889 52 18334852853241274146
14849402 71 16558181756371869401
15183329 4 16298104276886100577
15352257 5 18259989275438642747
15419008 145 11959462128526913078
15419008 91 18041823091460142581
15716309 27 18131633392102899711
17492 89 18125160433843068686
17857418 61 18411417324230505631
19377110 9 17917437527237101145
20567600 247 18407758145080252459
20567600 75 18260264114743043967
21130935 74 18272373049011069579
21150785 3 16370451059166390758
21267235 1 18272937077565291030
21623969 137 18410015429298220463
22061861 79 17749389269817836439
23522609 53 17915487019258768969
23559900 14 17749111123319843893
25147074 1 17488171802532647277
2838139 119 10231750059685353827
3004659 81 17967533475726360481
3411729 13 16629381731709351568
3663271 9 18131637768294792819
4340502 62 18333448768323677008
46194498 28 17530682130334154420
465052 167 18344148081123301070
5104073 3 18271246002136846064
54076057 127 17703794734896721334
5718773 13 17678169404983296186
57724786 102 13469817344230927994
59682541 35 18339071688316542648
59755656 215 16805319985805965027
999808 66 18261402165524272027

> <PUBCHEM_SHAPE_MULTIPOLES>
501.63
20.73
1.96
1.24
12.95
0.63
0.14
5.91
2.56
-2.18
0.27
0.61
-0.05
0.69

> <PUBCHEM_SHAPE_SELFOVERLAP>
1050.853

> <PUBCHEM_SHAPE_VOLUME>
277.2

> <PUBCHEM_COORDINATE_TYPE>
2
5
10

$$$$
