75536570
  -OEChem-12032416313D

 49 51  0     1  0  0  0  0  0999 V2000
   -4.6971    2.1075   -0.1757 F   0  0  0  0  0  0  0  0  0  0  0  0
    0.7682    1.0733    0.4823 O   0  0  0  0  0  0  0  0  0  0  0  0
   -0.1165   -2.1285   -0.8857 O   0  0  0  0  0  0  0  0  0  0  0  0
    4.4631   -1.3943   -0.2028 O   0  0  0  0  0  0  0  0  0  0  0  0
    3.3824    0.6246   -0.6298 N   0  0  0  0  0  0  0  0  0  0  0  0
   -2.5487   -0.2788   -0.1515 N   0  0  0  0  0  0  0  0  0  0  0  0
    1.1221   -0.1622   -0.1613 C   0  0  1  0  0  0  0  0  0  0  0  0
   -0.1719   -0.7232   -0.7353 C   0  0  2  0  0  0  0  0  0  0  0  0
   -1.1728   -0.2859    0.3182 C   0  0  1  0  0  0  0  0  0  0  0  0
    5.5678    0.6416    0.3716 C   0  0  0  0  0  0  0  0  0  0  0  0
    6.5775    0.9480   -0.7404 C   0  0  0  0  0  0  0  0  0  0  0  0
    6.3310   -0.1469    1.4371 C   0  0  0  0  0  0  0  0  0  0  0  0
    7.9181    0.4181   -0.2430 C   0  0  0  0  0  0  0  0  0  0  0  0
    7.5440   -0.7052    0.7070 C   0  0  0  0  0  0  0  0  0  0  0  0
   -0.6584    1.1019    0.6639 C   0  0  0  0  0  0  0  0  0  0  0  0
    2.1850    0.0938   -1.2148 C   0  0  0  0  0  0  0  0  0  0  0  0
    4.4285   -0.1670   -0.1695 C   0  0  0  0  0  0  0  0  0  0  0  0
   -3.4837   -0.1848    0.9633 C   0  0  0  0  0  0  0  0  0  0  0  0
   -4.9142   -0.1594    0.4946 C   0  0  0  0  0  0  0  0  0  0  0  0
   -5.4492    1.0044   -0.0574 C   0  0  0  0  0  0  0  0  0  0  0  0
   -5.7047   -1.3025    0.6131 C   0  0  0  0  0  0  0  0  0  0  0  0
   -6.7748    1.0252   -0.4910 C   0  0  0  0  0  0  0  0  0  0  0  0
   -7.0303   -1.2817    0.1794 C   0  0  0  0  0  0  0  0  0  0  0  0
   -7.5654   -0.1179   -0.3726 C   0  0  0  0  0  0  0  0  0  0  0  0
    1.5254   -0.8294    0.6120 H   0  0  0  0  0  0  0  0  0  0  0  0
   -0.4011   -0.2723   -1.7089 H   0  0  0  0  0  0  0  0  0  0  0  0
   -1.0703   -0.9568    1.1830 H   0  0  0  0  0  0  0  0  0  0  0  0
    5.1794    1.5665    0.8145 H   0  0  0  0  0  0  0  0  0  0  0  0
    6.6372    2.0231   -0.9414 H   0  0  0  0  0  0  0  0  0  0  0  0
    6.3078    0.4578   -1.6837 H   0  0  0  0  0  0  0  0  0  0  0  0
    6.6710    0.5419    2.2210 H   0  0  0  0  0  0  0  0  0  0  0  0
    5.7486   -0.9333    1.9273 H   0  0  0  0  0  0  0  0  0  0  0  0
    8.4529    1.2070    0.2995 H   0  0  0  0  0  0  0  0  0  0  0  0
    8.5588    0.0773   -1.0614 H   0  0  0  0  0  0  0  0  0  0  0  0
    7.2736   -1.6066    0.1451 H   0  0  0  0  0  0  0  0  0  0  0  0
    8.3588   -0.9590    1.3911 H   0  0  0  0  0  0  0  0  0  0  0  0
   -1.0539    1.8723   -0.0081 H   0  0  0  0  0  0  0  0  0  0  0  0
   -0.8865    1.3927    1.6938 H   0  0  0  0  0  0  0  0  0  0  0  0
    1.8391    0.8400   -1.9386 H   0  0  0  0  0  0  0  0  0  0  0  0
    2.4251   -0.8292   -1.7533 H   0  0  0  0  0  0  0  0  0  0  0  0
    3.4588    1.6349   -0.5560 H   0  0  0  0  0  0  0  0  0  0  0  0
   -2.7304   -1.1431   -0.6626 H   0  0  0  0  0  0  0  0  0  0  0  0
    0.0858   -2.5210   -0.0195 H   0  0  0  0  0  0  0  0  0  0  0  0
   -3.3032    0.7255    1.5493 H   0  0  0  0  0  0  0  0  0  0  0  0
   -3.3420   -1.0272    1.6530 H   0  0  0  0  0  0  0  0  0  0  0  0
   -5.3007   -2.2170    1.0390 H   0  0  0  0  0  0  0  0  0  0  0  0
   -7.1911    1.9315   -0.9209 H   0  0  0  0  0  0  0  0  0  0  0  0
   -7.6458   -2.1719    0.2711 H   0  0  0  0  0  0  0  0  0  0  0  0
   -8.5975   -0.1017   -0.7104 H   0  0  0  0  0  0  0  0  0  0  0  0
  1 20  1  0  0  0  0
  2  7  1  0  0  0  0
  2 15  1  0  0  0  0
  3  8  1  0  0  0  0
  3 43  1  0  0  0  0
  4 17  2  0  0  0  0
  5 16  1  0  0  0  0
  5 17  1  0  0  0  0
  5 41  1  0  0  0  0
  6  9  1  0  0  0  0
  6 18  1  0  0  0  0
  6 42  1  0  0  0  0
  7  8  1  0  0  0  0
  7 16  1  0  0  0  0
  7 25  1  0  0  0  0
  8  9  1  0  0  0  0
  8 26  1  0  0  0  0
  9 15  1  0  0  0  0
  9 27  1  0  0  0  0
 10 11  1  0  0  0  0
 10 12  1  0  0  0  0
 10 17  1  0  0  0  0
 10 28  1  0  0  0  0
 11 13  1  0  0  0  0
 11 29  1  0  0  0  0
 11 30  1  0  0  0  0
 12 14  1  0  0  0  0
 12 31  1  0  0  0  0
 12 32  1  0  0  0  0
 13 14  1  0  0  0  0
 13 33  1  0  0  0  0
 13 34  1  0  0  0  0
 14 35  1  0  0  0  0
 14 36  1  0  0  0  0
 15 37  1  0  0  0  0
 15 38  1  0  0  0  0
 16 39  1  0  0  0  0
 16 40  1  0  0  0  0
 18 19  1  0  0  0  0
 18 44  1  0  0  0  0
 18 45  1  0  0  0  0
 19 20  1  0  0  0  0
 19 21  2  0  0  0  0
 20 22  2  0  0  0  0
 21 23  1  0  0  0  0
 21 46  1  0  0  0  0
 22 24  1  0  0  0  0
 22 47  1  0  0  0  0
 23 24  2  0  0  0  0
 23 48  1  0  0  0  0
 24 49  1  0  0  0  0
M  END
> <PUBCHEM_COMPOUND_CID>
75536570

> <PUBCHEM_CONFORMER_RMSD>
1.2

> <PUBCHEM_CONFORMER_DIVERSEORDER>
1
57
52
48
44
83
98
22
67
56
87
7
75
76
79
81
61
96
11
91
43
82
8
35
2
34
62
24
59
47
53
55
101
27
69
33
100
25
6
89
40
15
49
72
54
32
95
92
42
64
45
74
88
18
77
31
80
86
65
94
38
99
9
93
84
50
28
68
70
30
10
26
78
3
46
58
37
71
39
29
14
19
60
13
97
66
4
12
17
20
90
63
16
5
51
73
41
21
36
85
23

> <PUBCHEM_MMFF94_PARTIAL_CHARGES>
27
1 -0.19
10 0.06
15 0.28
16 0.3
17 0.57
18 0.41
19 -0.14
2 -0.56
20 0.19
21 -0.15
22 -0.15
23 -0.15
24 -0.15
3 -0.68
4 -0.57
41 0.37
42 0.36
43 0.4
46 0.15
47 0.15
48 0.15
49 0.15
5 -0.73
6 -0.9
7 0.28
8 0.28
9 0.27

> <PUBCHEM_EFFECTIVE_ROTOR_COUNT>
9

> <PUBCHEM_PHARMACOPHORE_FEATURES>
10
1 2 acceptor
1 3 acceptor
1 3 donor
1 4 acceptor
1 5 donor
1 6 cation
1 6 donor
5 10 11 12 13 14 rings
5 2 7 8 9 15 rings
6 19 20 21 22 23 24 rings

> <PUBCHEM_HEAVY_ATOM_COUNT>
24

> <PUBCHEM_ATOM_DEF_STEREO_COUNT>
3

> <PUBCHEM_ATOM_UDEF_STEREO_COUNT>
0

> <PUBCHEM_BOND_DEF_STEREO_COUNT>
0

> <PUBCHEM_BOND_UDEF_STEREO_COUNT>
0

> <PUBCHEM_ISOTOPIC_ATOM_COUNT>
0

> <PUBCHEM_COMPONENT_COUNT>
1

> <PUBCHEM_CACTVS_TAUTO_COUNT>
2

> <PUBCHEM_CONFORMER_ID>
048098BA00000001

> <PUBCHEM_MMFF94_ENERGY>
45.2997

> <PUBCHEM_FEATURE_SELFOVERLAP>
50.747

> <PUBCHEM_SHAPE_FINGERPRINT>
10 15 18341330071829385994
10299344 5 17603865606998594458
11089746 13 16660365900644433093
11315181 36 17748829635848244785
11638347 137 17846501413954264574
11719270 70 18412545401448845326
12091667 2 18187086170191412331
12236239 1 18113900464032561600
13533116 47 18339922620080124554
13885169 127 17822007597294882933
13914758 101 17676205749465296169
14123256 10 16057162804569952384
14251764 18 17821449071115422700
14251764 46 18410856563934756866
14856354 85 9439399147391190497
15131766 46 17681844234931475948
15183329 4 16370723729512801128
15419008 47 17989481913897991777
15461852 350 18342177803963788959
15849732 13 18412545426917364972
18006028 8 15647051573095670910
19489759 90 18113339713339902641
20157964 124 14549022083590417468
21150785 3 15985099717543179229
21315763 28 18334012800413911832
21521721 280 15913326913753901462
220451 1 12607406568136117077
22224240 67 16343983615547338550
23536379 177 17821447962734467217
23559900 14 16009320927489252188
249057 25 17676781906617525677
28498 318 16153420636708539002
3009799 131 18272932717561685809
34797466 226 13830135009644759248
4073 2 17168434877773842546
4325135 7 13398630550021034121
4339292 15 18270958077348864791
5758199 1 14261635031817960463
59682541 35 18272929458045258514
59755656 520 18187640345163384895

> <PUBCHEM_SHAPE_MULTIPOLES>
459.07
25.48
1.4
0.99
6.62
0.04
-0.05
-0.46
-1.76
-1.25
0.11
0.72
0.07
-0.05

> <PUBCHEM_SHAPE_SELFOVERLAP>
961.349

> <PUBCHEM_SHAPE_VOLUME>
261.3

> <PUBCHEM_COORDINATE_TYPE>
2
5
10

$$$$
