7674727
  -OEChem-12032416213D

 59 63  0     1  0  0  0  0  0999 V2000
    7.8383    0.8071   -0.7829 F   0  0  0  0  0  0  0  0  0  0  0  0
    5.7682    1.0329   -1.4455 F   0  0  0  0  0  0  0  0  0  0  0  0
    6.4802    2.0728    0.3699 F   0  0  0  0  0  0  0  0  0  0  0  0
    0.4695   -1.2446   -1.8272 O   0  0  0  0  0  0  0  0  0  0  0  0
   -3.5066    0.5848    1.9678 O   0  0  0  0  0  0  0  0  0  0  0  0
    6.2202   -0.1988    0.4277 O   0  0  0  0  0  0  0  0  0  0  0  0
   -4.0877   -0.8380    0.2379 N   0  0  0  0  0  0  0  0  0  0  0  0
   -1.3416   -2.1770   -0.6918 N   0  0  0  0  0  0  0  0  0  0  0  0
   -3.7992    1.4702   -0.1558 N   0  0  0  0  0  0  0  0  0  0  0  0
   -3.6773   -2.3417   -1.7243 C   0  0  1  0  0  0  0  0  0  0  0  0
   -3.2901   -3.1751    0.5540 C   0  0  2  0  0  0  0  0  0  0  0  0
   -3.8481   -3.5520   -0.8159 C   0  0  0  0  0  0  0  0  0  0  0  0
   -4.4309   -1.1178   -1.1656 C   0  0  0  0  0  0  0  0  0  0  0  0
   -2.1787   -2.0619   -1.8935 C   0  0  0  0  0  0  0  0  0  0  0  0
   -4.1096   -2.0056    1.1277 C   0  0  0  0  0  0  0  0  0  0  0  0
   -1.8269   -2.7845    0.4686 C   0  0  0  0  0  0  0  0  0  0  0  0
   -1.0090   -2.9896    1.5134 C   0  0  0  0  0  0  0  0  0  0  0  0
   -0.0046   -1.7493   -0.8078 C   0  0  0  0  0  0  0  0  0  0  0  0
   -3.7682    0.4301    0.7723 C   0  0  0  0  0  0  0  0  0  0  0  0
    0.8768   -1.9549    0.3946 C   0  0  0  0  0  0  0  0  0  0  0  0
    0.3604   -2.5617    1.4737 C   0  0  0  0  0  0  0  0  0  0  0  0
    2.2764   -1.4950    0.4026 C   0  0  0  0  0  0  0  0  0  0  0  0
   -3.0897    2.6948   -0.0938 C   0  0  0  0  0  0  0  0  0  0  0  0
    3.2943   -2.3474   -0.0260 C   0  0  0  0  0  0  0  0  0  0  0  0
    2.5851   -0.2063    0.8396 C   0  0  0  0  0  0  0  0  0  0  0  0
   -3.3074    3.6702   -1.0628 C   0  0  0  0  0  0  0  0  0  0  0  0
   -2.1791    2.9157    0.9357 C   0  0  0  0  0  0  0  0  0  0  0  0
    4.6194   -1.9118   -0.0175 C   0  0  0  0  0  0  0  0  0  0  0  0
    3.9102    0.2293    0.8479 C   0  0  0  0  0  0  0  0  0  0  0  0
    4.9274   -0.6234    0.4194 C   0  0  0  0  0  0  0  0  0  0  0  0
   -2.6088    4.8761   -1.0021 C   0  0  0  0  0  0  0  0  0  0  0  0
   -1.4806    4.1215    0.9966 C   0  0  0  0  0  0  0  0  0  0  0  0
   -1.6955    5.1017    0.0276 C   0  0  0  0  0  0  0  0  0  0  0  0
   -0.9484    6.3910    0.0930 C   0  0  0  0  0  0  0  0  0  0  0  0
    6.5613    0.9384   -0.3573 C   0  0  0  0  0  0  0  0  0  0  0  0
   -4.0970   -2.5639   -2.7133 H   0  0  0  0  0  0  0  0  0  0  0  0
   -3.4050   -4.0398    1.2203 H   0  0  0  0  0  0  0  0  0  0  0  0
   -4.9070   -3.8267   -0.7384 H   0  0  0  0  0  0  0  0  0  0  0  0
   -3.3193   -4.4217   -1.2259 H   0  0  0  0  0  0  0  0  0  0  0  0
   -4.2383   -0.2669   -1.8205 H   0  0  0  0  0  0  0  0  0  0  0  0
   -5.5109   -1.3069   -1.1878 H   0  0  0  0  0  0  0  0  0  0  0  0
   -1.7650   -2.7828   -2.6121 H   0  0  0  0  0  0  0  0  0  0  0  0
   -2.0211   -1.0706   -2.3368 H   0  0  0  0  0  0  0  0  0  0  0  0
   -5.1608   -2.3001    1.2379 H   0  0  0  0  0  0  0  0  0  0  0  0
   -3.7490   -1.7415    2.1278 H   0  0  0  0  0  0  0  0  0  0  0  0
   -1.3630   -3.4489    2.4304 H   0  0  0  0  0  0  0  0  0  0  0  0
    0.9525   -2.7331    2.3680 H   0  0  0  0  0  0  0  0  0  0  0  0
   -4.4159    1.3812   -0.9561 H   0  0  0  0  0  0  0  0  0  0  0  0
    3.0702   -3.3542   -0.3704 H   0  0  0  0  0  0  0  0  0  0  0  0
    1.8032    0.4700    1.1772 H   0  0  0  0  0  0  0  0  0  0  0  0
   -4.0167    3.5065   -1.8699 H   0  0  0  0  0  0  0  0  0  0  0  0
   -1.9424    2.1816    1.6958 H   0  0  0  0  0  0  0  0  0  0  0  0
    5.4076   -2.5803   -0.3530 H   0  0  0  0  0  0  0  0  0  0  0  0
    4.1366    1.2330    1.1971 H   0  0  0  0  0  0  0  0  0  0  0  0
   -2.7862    5.6327   -1.7619 H   0  0  0  0  0  0  0  0  0  0  0  0
   -0.7668    4.2840    1.8000 H   0  0  0  0  0  0  0  0  0  0  0  0
   -1.5052    7.1177    0.6929 H   0  0  0  0  0  0  0  0  0  0  0  0
   -0.7919    6.8085   -0.9075 H   0  0  0  0  0  0  0  0  0  0  0  0
    0.0418    6.2514    0.5400 H   0  0  0  0  0  0  0  0  0  0  0  0
  1 35  1  0  0  0  0
  2 35  1  0  0  0  0
  3 35  1  0  0  0  0
  4 18  2  0  0  0  0
  5 19  2  0  0  0  0
  6 30  1  0  0  0  0
  6 35  1  0  0  0  0
  7 13  1  0  0  0  0
  7 15  1  0  0  0  0
  7 19  1  0  0  0  0
  8 14  1  0  0  0  0
  8 16  1  0  0  0  0
  8 18  1  0  0  0  0
  9 19  1  0  0  0  0
  9 23  1  0  0  0  0
  9 48  1  0  0  0  0
 10 12  1  0  0  0  0
 10 13  1  0  0  0  0
 10 14  1  0  0  0  0
 10 36  1  0  0  0  0
 11 12  1  0  0  0  0
 11 15  1  0  0  0  0
 11 16  1  0  0  0  0
 11 37  1  0  0  0  0
 12 38  1  0  0  0  0
 12 39  1  0  0  0  0
 13 40  1  0  0  0  0
 13 41  1  0  0  0  0
 14 42  1  0  0  0  0
 14 43  1  0  0  0  0
 15 44  1  0  0  0  0
 15 45  1  0  0  0  0
 16 17  2  0  0  0  0
 17 21  1  0  0  0  0
 17 46  1  0  0  0  0
 18 20  1  0  0  0  0
 20 21  2  0  0  0  0
 20 22  1  0  0  0  0
 21 47  1  0  0  0  0
 22 24  2  0  0  0  0
 22 25  1  0  0  0  0
 23 26  2  0  0  0  0
 23 27  1  0  0  0  0
 24 28  1  0  0  0  0
 24 49  1  0  0  0  0
 25 29  2  0  0  0  0
 25 50  1  0  0  0  0
 26 31  1  0  0  0  0
 26 51  1  0  0  0  0
 27 32  2  0  0  0  0
 27 52  1  0  0  0  0
 28 30  2  0  0  0  0
 28 53  1  0  0  0  0
 29 30  1  0  0  0  0
 29 54  1  0  0  0  0
 31 33  2  0  0  0  0
 31 55  1  0  0  0  0
 32 33  1  0  0  0  0
 32 56  1  0  0  0  0
 33 34  1  0  0  0  0
 34 57  1  0  0  0  0
 34 58  1  0  0  0  0
 34 59  1  0  0  0  0
M  END
> <PUBCHEM_COMPOUND_CID>
7674727

> <PUBCHEM_CONFORMER_RMSD>
1

> <PUBCHEM_CONFORMER_DIVERSEORDER>
1
15
11
17
19
13
4
5
9
14
3
10
18
7
12
6
8
2
16

> <PUBCHEM_MMFF94_PARTIAL_CHARGES>
44
1 -0.34
11 0.14
13 0.3
14 0.3
15 0.3
16 -0.03
17 -0.15
18 0.62
19 0.69
2 -0.34
20 -0.01
21 -0.15
22 0.03
23 0.12
24 -0.15
25 -0.15
26 -0.15
27 -0.15
28 -0.15
29 -0.15
3 -0.34
30 0.08
31 -0.15
32 -0.15
33 -0.14
34 0.14
35 1.3
4 -0.57
46 0.15
47 0.15
48 0.37
49 0.15
5 -0.57
50 0.15
51 0.15
52 0.15
53 0.15
54 0.15
55 0.15
56 0.15
6 -0.36
7 -0.66
8 -0.47
9 -0.55

> <PUBCHEM_EFFECTIVE_ROTOR_COUNT>
7

> <PUBCHEM_PHARMACOPHORE_FEATURES>
9
1 4 acceptor
1 5 acceptor
1 6 acceptor
1 9 donor
6 22 24 25 28 29 30 rings
6 23 26 27 31 32 33 rings
6 7 10 11 12 13 15 rings
6 8 10 11 12 14 16 rings
6 8 16 17 18 20 21 rings

> <PUBCHEM_HEAVY_ATOM_COUNT>
35

> <PUBCHEM_ATOM_DEF_STEREO_COUNT>
2

> <PUBCHEM_ATOM_UDEF_STEREO_COUNT>
0

> <PUBCHEM_BOND_DEF_STEREO_COUNT>
0

> <PUBCHEM_BOND_UDEF_STEREO_COUNT>
0

> <PUBCHEM_ISOTOPIC_ATOM_COUNT>
0

> <PUBCHEM_COMPONENT_COUNT>
1

> <PUBCHEM_CACTVS_TAUTO_COUNT>
2

> <PUBCHEM_CONFORMER_ID>
00751B6700000001

> <PUBCHEM_MMFF94_ENERGY>
108.8948

> <PUBCHEM_FEATURE_SELFOVERLAP>
47.241

> <PUBCHEM_SHAPE_FINGERPRINT>
100830 39 18410293589082151912
10670039 82 18412825824300311096
10871710 139 18411129204939310155
10937287 8 17905602203776608507
11476731 118 18050287270058691504
11477941 20 18199736097906728206
11578080 2 17345216448441381783
12104220 1 18335137639838183868
12107183 9 17757258298460690018
12522641 126 16903821118235022279
12788726 201 18335409193034434674
13761468 95 18058182625989725712
14020679 6 13407061562586998575
14394314 77 18411142433528811465
14856354 85 18268715094111424126
15183329 4 17274829082066250262
15326923 133 17914608600184800064
15400415 2 17834392316009301744
155225 5 18337673010372887792
15876981 60 18335985384277207799
15961568 22 18341897453814744494
16067690 210 18409168844141599704
20771845 165 18200609041921625734
21033650 10 18263667116359148942
21057603 30 17468425475820869429
21641784 216 18340218500218610836
21716022 299 16119616418301395191
21927370 108 18265905846550844867
22956985 138 17106235689859491819
23516275 100 17909251822315506936
23523788 1 11381598644631568591
25019877 29 16988574515746582143
3383291 50 15026111594283296843
3388396 114 18339060662560772999
3493558 16 18334021622487799660
376196 1 17396701983056348721
4487111 67 18337387124301195024
4616759 239 17459465744664820128
4756261 7 18053695524260798121
50677037 204 18410572937718306792
550186 7 18272655618982648478
550186 72 18410292540641347772
6036956 94 18262802852474456021
6201320 215 18341889681100702592
6608658 132 18341604962310372774

> <PUBCHEM_SHAPE_MULTIPOLES>
665.91
13.38
7.65
1.51
31.42
13.53
-0.18
2.98
-2.11
-10
-0.21
-0.98
-0.65
-0.76

> <PUBCHEM_SHAPE_SELFOVERLAP>
1462.963

> <PUBCHEM_SHAPE_VOLUME>
358.1

> <PUBCHEM_COORDINATE_TYPE>
2
5
10

$$$$
