44716748
  -OEChem-12032416123D

 70 72  0     1  0  0  0  0  0999 V2000
    2.9640   -2.1865    0.6333 S   0  0  0  0  0  0  0  0  0  0  0  0
   -1.8038    2.2026   -1.4068 O   0  0  0  0  0  0  0  0  0  0  0  0
   -6.4510    1.4221    1.1127 O   0  0  0  0  0  0  0  0  0  0  0  0
   -6.1044   -2.3853   -1.1927 O   0  0  0  0  0  0  0  0  0  0  0  0
    5.9905    1.0359   -0.9124 O   0  0  0  0  0  0  0  0  0  0  0  0
    3.1521    0.2183   -0.2978 N   0  0  0  0  0  0  0  0  0  0  0  0
   -5.9664    0.4712   -0.9466 N   0  0  0  0  0  0  0  0  0  0  0  0
    5.2073   -1.0174   -0.0564 N   0  0  0  0  0  0  0  0  0  0  0  0
    8.5653    0.3490   -0.2041 N   0  0  0  0  0  0  0  0  0  0  0  0
   -0.8087   -0.5935    1.0143 C   0  0  1  0  0  0  0  0  0  0  0  0
   -0.6919    0.3970   -0.2106 C   0  0  1  0  0  0  0  0  0  0  0  0
   -1.8218    1.4651   -0.1853 C   0  0  2  0  0  0  0  0  0  0  0  0
   -3.2286    0.8435   -0.0469 C   0  0  1  0  0  0  0  0  0  0  0  0
   -2.2357   -1.1879    1.0691 C   0  0  0  0  0  0  0  0  0  0  0  0
    0.7598    1.0175   -0.3337 C   0  0  1  0  0  0  0  0  0  0  0  0
   -3.3249   -0.1259    1.1311 C   0  0  0  0  0  0  0  0  0  0  0  0
    0.1855   -1.7822    0.8289 C   0  0  0  0  0  0  0  0  0  0  0  0
   -0.5043    0.1100    2.3627 C   0  0  0  0  0  0  0  0  0  0  0  0
   -4.3160    1.9172    0.0822 C   0  0  2  0  0  0  0  0  0  0  0  0
    1.8105   -0.0351   -0.0728 C   0  0  0  0  0  0  0  0  0  0  0  0
    1.5348   -1.2789    0.4563 C   0  0  0  0  0  0  0  0  0  0  0  0
    1.0186    1.6901   -1.6899 C   0  0  0  0  0  0  0  0  0  0  0  0
   -4.0476    2.7918    1.3021 C   0  0  0  0  0  0  0  0  0  0  0  0
   -5.6899    1.2591    0.1613 C   0  0  0  0  0  0  0  0  0  0  0  0
    3.8509   -0.8476    0.0268 C   0  0  0  0  0  0  0  0  0  0  0  0
   -7.2055   -0.2553   -1.0992 C   0  0  0  0  0  0  0  0  0  0  0  0
    6.1985   -0.1031   -0.5070 C   0  0  0  0  0  0  0  0  0  0  0  0
   -7.1107   -1.6501   -0.5085 C   0  0  0  0  0  0  0  0  0  0  0  0
    7.5907   -0.7066   -0.4393 C   0  0  0  0  0  0  0  0  0  0  0  0
   -5.9811   -3.7039   -0.6777 C   0  0  0  0  0  0  0  0  0  0  0  0
    8.5567    0.7575    1.2025 C   0  0  0  0  0  0  0  0  0  0  0  0
    9.9072   -0.0887   -0.5955 C   0  0  0  0  0  0  0  0  0  0  0  0
   -0.8438   -0.2045   -1.1215 H   0  0  0  0  0  0  0  0  0  0  0  0
   -1.5963    2.1667    0.6198 H   0  0  0  0  0  0  0  0  0  0  0  0
   -3.4049    0.2655   -0.9638 H   0  0  0  0  0  0  0  0  0  0  0  0
   -2.4104   -1.8107    0.1813 H   0  0  0  0  0  0  0  0  0  0  0  0
   -2.3348   -1.8560    1.9343 H   0  0  0  0  0  0  0  0  0  0  0  0
    0.8773    1.7839    0.4440 H   0  0  0  0  0  0  0  0  0  0  0  0
   -4.2886   -0.6480    1.1314 H   0  0  0  0  0  0  0  0  0  0  0  0
   -3.2533    0.3790    2.0971 H   0  0  0  0  0  0  0  0  0  0  0  0
   -0.1647   -2.4429    0.0249 H   0  0  0  0  0  0  0  0  0  0  0  0
    0.2307   -2.3846    1.7447 H   0  0  0  0  0  0  0  0  0  0  0  0
   -0.6723   -0.5751    3.2020 H   0  0  0  0  0  0  0  0  0  0  0  0
    0.5334    0.4496    2.4337 H   0  0  0  0  0  0  0  0  0  0  0  0
   -1.1364    0.9870    2.5275 H   0  0  0  0  0  0  0  0  0  0  0  0
   -4.3221    2.5573   -0.8093 H   0  0  0  0  0  0  0  0  0  0  0  0
    0.4571    2.6212   -1.7944 H   0  0  0  0  0  0  0  0  0  0  0  0
    2.0730    1.9640   -1.8102 H   0  0  0  0  0  0  0  0  0  0  0  0
    0.7563    1.0253   -2.5201 H   0  0  0  0  0  0  0  0  0  0  0  0
   -1.9553    1.5792   -2.1376 H   0  0  0  0  0  0  0  0  0  0  0  0
   -4.8477    3.5387    1.3901 H   0  0  0  0  0  0  0  0  0  0  0  0
   -3.1233    3.3683    1.2226 H   0  0  0  0  0  0  0  0  0  0  0  0
   -4.0513    2.2505    2.2510 H   0  0  0  0  0  0  0  0  0  0  0  0
   -5.3080    0.4331   -1.7179 H   0  0  0  0  0  0  0  0  0  0  0  0
    5.5261   -1.9337    0.2487 H   0  0  0  0  0  0  0  0  0  0  0  0
   -7.4023   -0.3109   -2.1750 H   0  0  0  0  0  0  0  0  0  0  0  0
   -8.0161    0.3052   -0.6224 H   0  0  0  0  0  0  0  0  0  0  0  0
   -6.8618   -1.5960    0.5580 H   0  0  0  0  0  0  0  0  0  0  0  0
   -8.0747   -2.1593   -0.6205 H   0  0  0  0  0  0  0  0  0  0  0  0
    7.6511   -1.4989    0.3163 H   0  0  0  0  0  0  0  0  0  0  0  0
    7.7496   -1.1748   -1.4195 H   0  0  0  0  0  0  0  0  0  0  0  0
   -5.6919   -3.6775    0.3774 H   0  0  0  0  0  0  0  0  0  0  0  0
   -6.9198   -4.2531   -0.7986 H   0  0  0  0  0  0  0  0  0  0  0  0
   -5.1991   -4.2211   -1.2402 H   0  0  0  0  0  0  0  0  0  0  0  0
    8.8283   -0.0650    1.8746 H   0  0  0  0  0  0  0  0  0  0  0  0
    9.2644    1.5785    1.3647 H   0  0  0  0  0  0  0  0  0  0  0  0
    7.5732    1.1356    1.5018 H   0  0  0  0  0  0  0  0  0  0  0  0
    9.9357   -0.3366   -1.6624 H   0  0  0  0  0  0  0  0  0  0  0  0
   10.2371   -0.9659   -0.0271 H   0  0  0  0  0  0  0  0  0  0  0  0
   10.6346    0.7164   -0.4426 H   0  0  0  0  0  0  0  0  0  0  0  0
  1 21  1  0  0  0  0
  1 25  1  0  0  0  0
  2 12  1  0  0  0  0
  2 50  1  0  0  0  0
  3 24  2  0  0  0  0
  4 28  1  0  0  0  0
  4 30  1  0  0  0  0
  5 27  2  0  0  0  0
  6 20  1  0  0  0  0
  6 25  2  0  0  0  0
  7 24  1  0  0  0  0
  7 26  1  0  0  0  0
  7 54  1  0  0  0  0
  8 25  1  0  0  0  0
  8 27  1  0  0  0  0
  8 55  1  0  0  0  0
  9 29  1  0  0  0  0
  9 31  1  0  0  0  0
  9 32  1  0  0  0  0
 10 11  1  0  0  0  0
 10 14  1  0  0  0  0
 10 17  1  0  0  0  0
 10 18  1  0  0  0  0
 11 12  1  0  0  0  0
 11 15  1  0  0  0  0
 11 33  1  0  0  0  0
 12 13  1  0  0  0  0
 12 34  1  0  0  0  0
 13 16  1  0  0  0  0
 13 19  1  0  0  0  0
 13 35  1  0  0  0  0
 14 16  1  0  0  0  0
 14 36  1  0  0  0  0
 14 37  1  0  0  0  0
 15 20  1  0  0  0  0
 15 22  1  0  0  0  0
 15 38  1  0  0  0  0
 16 39  1  0  0  0  0
 16 40  1  0  0  0  0
 17 21  1  0  0  0  0
 17 41  1  0  0  0  0
 17 42  1  0  0  0  0
 18 43  1  0  0  0  0
 18 44  1  0  0  0  0
 18 45  1  0  0  0  0
 19 23  1  0  0  0  0
 19 24  1  0  0  0  0
 19 46  1  0  0  0  0
 20 21  2  0  0  0  0
 22 47  1  0  0  0  0
 22 48  1  0  0  0  0
 22 49  1  0  0  0  0
 23 51  1  0  0  0  0
 23 52  1  0  0  0  0
 23 53  1  0  0  0  0
 26 28  1  0  0  0  0
 26 56  1  0  0  0  0
 26 57  1  0  0  0  0
 27 29  1  0  0  0  0
 28 58  1  0  0  0  0
 28 59  1  0  0  0  0
 29 60  1  0  0  0  0
 29 61  1  0  0  0  0
 30 62  1  0  0  0  0
 30 63  1  0  0  0  0
 30 64  1  0  0  0  0
 31 65  1  0  0  0  0
 31 66  1  0  0  0  0
 31 67  1  0  0  0  0
 32 68  1  0  0  0  0
 32 69  1  0  0  0  0
 32 70  1  0  0  0  0
M  END
> <PUBCHEM_COMPOUND_CID>
44716748

> <PUBCHEM_CONFORMER_RMSD>
1

> <PUBCHEM_CONFORMER_DIVERSEORDER>
1
37
34
93
33
87
73
40
4
5
29
97
62
85
94
24
51
88
81
77
90
65
3
31
43
95
28
92
35
57
59
42
61
70
72
53
98
96
25
20
67
91
89
47
80
86
74
38
41
44
48
69
32
63
7
68
76
49
23
55
36
84
71
45
79
64
21
46
75
6
82
13
56
30
60
66
26
9
50
39
18
54
58
78
12
27
83
11
52
16
10
22
14
2
17
15
19
8

> <PUBCHEM_MMFF94_PARTIAL_CHARGES>
27
1 -0.08
12 0.28
15 0.18
17 0.18
19 0.06
2 -0.68
20 0.05
21 -0.14
24 0.57
25 0.44
26 0.3
27 0.57
28 0.28
29 0.33
3 -0.57
30 0.28
31 0.27
32 0.27
4 -0.56
5 -0.57
50 0.4
54 0.37
55 0.37
6 -0.57
7 -0.73
8 -0.49
9 -0.81

> <PUBCHEM_EFFECTIVE_ROTOR_COUNT>
11.2

> <PUBCHEM_PHARMACOPHORE_FEATURES>
12
1 2 acceptor
1 2 donor
1 23 hydrophobe
1 3 acceptor
1 4 acceptor
1 5 acceptor
1 7 donor
1 8 donor
1 9 cation
5 1 6 20 21 25 rings
6 10 11 12 13 14 16 rings
6 10 11 15 17 20 21 rings

> <PUBCHEM_HEAVY_ATOM_COUNT>
32

> <PUBCHEM_ATOM_DEF_STEREO_COUNT>
5

> <PUBCHEM_ATOM_UDEF_STEREO_COUNT>
1

> <PUBCHEM_BOND_DEF_STEREO_COUNT>
0

> <PUBCHEM_BOND_UDEF_STEREO_COUNT>
0

> <PUBCHEM_ISOTOPIC_ATOM_COUNT>
0

> <PUBCHEM_COMPONENT_COUNT>
1

> <PUBCHEM_CACTVS_TAUTO_COUNT>
6

> <PUBCHEM_CONFORMER_ID>
02AA52CC00000001

> <PUBCHEM_MMFF94_ENERGY>
83.9592

> <PUBCHEM_FEATURE_SELFOVERLAP>
60.977

> <PUBCHEM_SHAPE_FINGERPRINT>
10 15 17313111839441139264
10076449 9 16487253287570876499
10554248 39 17167584869439641886
11135926 11 16805322180207394435
11315181 36 18413390913005495353
12082328 90 17917992745959174412
12236239 1 18270400490727394665
12373685 5 17967243196605517682
12838862 33 17895183403332654636
13383668 251 18339909533082963648
13422730 43 18409721872773471058
13811026 1 18187086187107537370
13914758 101 10737286831607925332
13947947 19 17895203242155626812
14251764 18 18113617872517250544
14279260 333 18261108595651214931
14856354 85 17989204829189415197
15461852 350 18342179985843987966
15510794 2 18131074819270214990
15728490 51 18411698794173816566
17686467 74 18202277030703362808
18335252 98 17489872630776826110
18681886 176 18410285943697226923
20105231 36 14117795825666907068
21033648 29 18339350960486603256
21150785 3 17275102821653262680
21792961 116 16845576396670815166
22224240 67 18334856109137661650
23559900 14 18187087294719203752
24771293 8 18261678082359705292
335352 9 18113905970697645612
395649 100 18334858359089439595
4339292 15 17059763508324531351
437795 160 18342446080859537370
484989 97 18200030780071696419
5265222 85 17274812588710819358
5758199 1 18337113372017917848
6691757 9 17603877701499958602
999808 66 14836125468074927471

> <PUBCHEM_SHAPE_MULTIPOLES>
618.99
24.93
2.64
1.4
40.8
1.12
-0.33
2.66
5.48
-5.49
0.26
-0.73
-0.25
-1.75

> <PUBCHEM_SHAPE_SELFOVERLAP>
1261.651

> <PUBCHEM_SHAPE_VOLUME>
364.2

> <PUBCHEM_COORDINATE_TYPE>
2
5
10

$$$$
