11882524
  -OEChem-12032416193D

 55 57  0     1  0  0  0  0  0999 V2000
   -3.1209   -1.7256    0.3690 S   0  0  0  0  0  0  0  0  0  0  0  0
   -5.7943   -0.4759    0.4746 S   0  0  0  0  0  0  0  0  0  0  0  0
   -2.5392    2.0810    2.2470 O   0  0  0  0  0  0  0  0  0  0  0  0
   -1.8315    3.2319   -1.1523 O   0  0  0  0  0  0  0  0  0  0  0  0
    2.3877    2.2222    1.8677 O   0  0  0  0  0  0  0  0  0  0  0  0
   -3.7104   -2.6487    1.3192 O   0  0  0  0  0  0  0  0  0  0  0  0
   -2.2427   -2.1894   -0.6872 O   0  0  0  0  0  0  0  0  0  0  0  0
    3.9023    2.9397   -1.7476 O   0  0  0  0  0  0  0  0  0  0  0  0
    2.0785   -5.0615    0.8160 O   0  0  0  0  0  0  0  0  0  0  0  0
   -2.3442   -0.4579    1.2127 N   0  0  0  0  0  0  0  0  0  0  0  0
    2.4501    1.1782   -0.2157 N   0  0  0  0  0  0  0  0  0  0  0  0
    5.6807    2.6013   -0.3333 N   0  0  0  0  0  0  0  0  0  0  0  0
   -2.4884    1.9807    0.8221 C   0  0  2  0  0  0  0  0  0  0  0  0
   -1.7949    0.6673    0.4157 C   0  0  1  0  0  0  0  0  0  0  0  0
   -1.7404    3.2012    0.2706 C   0  0  1  0  0  0  0  0  0  0  0  0
   -0.2645    3.2207    0.7053 C   0  0  0  0  0  0  0  0  0  0  0  0
    0.3729    1.8601    0.7151 C   0  0  0  0  0  0  0  0  0  0  0  0
   -0.2999    0.7076    0.5786 C   0  0  0  0  0  0  0  0  0  0  0  0
    1.8288    1.7804    0.8644 C   0  0  0  0  0  0  0  0  0  0  0  0
    3.8806    0.9887   -0.2988 C   0  0  1  0  0  0  0  0  0  0  0  0
    4.2554   -0.2242   -1.1580 C   0  0  0  0  0  0  0  0  0  0  0  0
   -4.5025   -1.0048   -0.5172 C   0  0  0  0  0  0  0  0  0  0  0  0
    3.6755   -1.5143   -0.6315 C   0  0  0  0  0  0  0  0  0  0  0  0
    4.4671    2.2608   -0.8931 C   0  0  0  0  0  0  0  0  0  0  0  0
   -4.7518   -0.7816   -1.8536 C   0  0  0  0  0  0  0  0  0  0  0  0
    4.3960   -2.2812    0.2842 C   0  0  0  0  0  0  0  0  0  0  0  0
    2.4182   -1.9396   -1.0608 C   0  0  0  0  0  0  0  0  0  0  0  0
   -6.0199   -0.1679   -2.0659 C   0  0  0  0  0  0  0  0  0  0  0  0
   -6.6917    0.0543   -0.8839 C   0  0  0  0  0  0  0  0  0  0  0  0
    3.8594   -3.4734    0.7704 C   0  0  0  0  0  0  0  0  0  0  0  0
    1.8816   -3.1316   -0.5746 C   0  0  0  0  0  0  0  0  0  0  0  0
    2.6022   -3.8985    0.3410 C   0  0  0  0  0  0  0  0  0  0  0  0
   -3.5203    1.9682    0.4530 H   0  0  0  0  0  0  0  0  0  0  0  0
   -1.9770    0.4927   -0.6519 H   0  0  0  0  0  0  0  0  0  0  0  0
   -2.2174    4.1180    0.6380 H   0  0  0  0  0  0  0  0  0  0  0  0
    0.3078    3.8840    0.0455 H   0  0  0  0  0  0  0  0  0  0  0  0
   -0.1987    3.6285    1.7219 H   0  0  0  0  0  0  0  0  0  0  0  0
    0.2247   -0.2449    0.5752 H   0  0  0  0  0  0  0  0  0  0  0  0
   -2.6999   -0.2049    2.1435 H   0  0  0  0  0  0  0  0  0  0  0  0
   -3.0083    2.9043    2.4655 H   0  0  0  0  0  0  0  0  0  0  0  0
   -1.3850    4.0395   -1.4585 H   0  0  0  0  0  0  0  0  0  0  0  0
    4.2604    0.8557    0.7221 H   0  0  0  0  0  0  0  0  0  0  0  0
    1.8950    0.9305   -1.0303 H   0  0  0  0  0  0  0  0  0  0  0  0
    3.9191   -0.0760   -2.1935 H   0  0  0  0  0  0  0  0  0  0  0  0
    5.3479   -0.3142   -1.2228 H   0  0  0  0  0  0  0  0  0  0  0  0
   -4.0598   -1.0432   -2.6435 H   0  0  0  0  0  0  0  0  0  0  0  0
    5.3754   -1.9589    0.6275 H   0  0  0  0  0  0  0  0  0  0  0  0
    1.8470   -1.3555   -1.7773 H   0  0  0  0  0  0  0  0  0  0  0  0
   -6.4191    0.0976   -3.0362 H   0  0  0  0  0  0  0  0  0  0  0  0
   -7.6664    0.5028   -0.7533 H   0  0  0  0  0  0  0  0  0  0  0  0
    6.1736    3.4374   -0.6290 H   0  0  0  0  0  0  0  0  0  0  0  0
    6.1339    2.0332    0.3752 H   0  0  0  0  0  0  0  0  0  0  0  0
    4.4250   -4.0662    1.4841 H   0  0  0  0  0  0  0  0  0  0  0  0
    0.9010   -3.4516   -0.9169 H   0  0  0  0  0  0  0  0  0  0  0  0
    1.2037   -5.2004    0.4141 H   0  0  0  0  0  0  0  0  0  0  0  0
  1  6  2  0  0  0  0
  1  7  2  0  0  0  0
  1 10  1  0  0  0  0
  1 22  1  0  0  0  0
  2 22  1  0  0  0  0
  2 29  1  0  0  0  0
  3 13  1  0  0  0  0
  3 40  1  0  0  0  0
  4 15  1  0  0  0  0
  4 41  1  0  0  0  0
  5 19  2  0  0  0  0
  8 24  2  0  0  0  0
  9 32  1  0  0  0  0
  9 55  1  0  0  0  0
 10 14  1  0  0  0  0
 10 39  1  0  0  0  0
 11 19  1  0  0  0  0
 11 20  1  0  0  0  0
 11 43  1  0  0  0  0
 12 24  1  0  0  0  0
 12 51  1  0  0  0  0
 12 52  1  0  0  0  0
 13 14  1  0  0  0  0
 13 15  1  0  0  0  0
 13 33  1  0  0  0  0
 14 18  1  0  0  0  0
 14 34  1  0  0  0  0
 15 16  1  0  0  0  0
 15 35  1  0  0  0  0
 16 17  1  0  0  0  0
 16 36  1  0  0  0  0
 16 37  1  0  0  0  0
 17 18  2  0  0  0  0
 17 19  1  0  0  0  0
 18 38  1  0  0  0  0
 20 21  1  0  0  0  0
 20 24  1  0  0  0  0
 20 42  1  0  0  0  0
 21 23  1  0  0  0  0
 21 44  1  0  0  0  0
 21 45  1  0  0  0  0
 22 25  2  0  0  0  0
 23 26  2  0  0  0  0
 23 27  1  0  0  0  0
 25 28  1  0  0  0  0
 25 46  1  0  0  0  0
 26 30  1  0  0  0  0
 26 47  1  0  0  0  0
 27 31  2  0  0  0  0
 27 48  1  0  0  0  0
 28 29  2  0  0  0  0
 28 49  1  0  0  0  0
 29 50  1  0  0  0  0
 30 32  2  0  0  0  0
 30 53  1  0  0  0  0
 31 32  1  0  0  0  0
 31 54  1  0  0  0  0
M  END
> <PUBCHEM_COMPOUND_CID>
11882524

> <PUBCHEM_CONFORMER_RMSD>
1.2

> <PUBCHEM_CONFORMER_DIVERSEORDER>
1
83
84
94
42
140
72
3
104
102
162
76
99
20
120
80
134
67
13
25
61
161
131
133
154
68
143
33
22
147
30
163
62
64
12
59
19
63
135
82
101
14
16
105
142
44
138
123
110
23
119
108
103
160
166
156
159
150
153
66
43
93
17
70
168
77
141
115
170
75
148
146
56
107
118
73
169
122
167
126
111
132
60
144
95
96
157
90
29
129
41
11
50
6
28
47
151
130
127
55
48
74
58
85
116
100
113
137
149
165
52
136
24
27
164
78
139
4
86
89
158
112
53
171
57
40
7
81
54
98
128
32
152
8
37
71
39
69
114
49
92
109
121
51
125
91
26
124
34
88
106
5
97
15
31
155
145
18
79
2
46
65
21
38
9
87
117
36
10
45
35

> <PUBCHEM_MMFF94_PARTIAL_CHARGES>
47
1 1.5
10 -0.91
11 -0.73
12 -0.8
13 0.28
14 0.49
15 0.28
16 0.14
17 -0.12
18 -0.29
19 0.62
2 -0.08
20 0.36
21 0.14
22 -0.02
23 -0.14
24 0.57
25 -0.15
26 -0.15
27 -0.15
28 -0.15
29 -0.11
3 -0.68
30 -0.15
31 -0.15
32 0.08
38 0.15
39 0.42
4 -0.68
40 0.4
41 0.4
43 0.37
46 0.15
47 0.15
48 0.15
49 0.15
5 -0.57
50 0.15
51 0.37
52 0.37
53 0.15
54 0.15
55 0.45
6 -0.65
7 -0.65
8 -0.57
9 -0.53

> <PUBCHEM_EFFECTIVE_ROTOR_COUNT>
9.8

> <PUBCHEM_PHARMACOPHORE_FEATURES>
15
1 10 donor
1 11 donor
1 12 donor
1 3 acceptor
1 3 donor
1 4 acceptor
1 4 donor
1 5 acceptor
1 6 acceptor
1 7 acceptor
1 8 acceptor
1 9 donor
5 2 22 25 28 29 rings
6 13 14 15 16 17 18 rings
6 23 26 27 30 31 32 rings

> <PUBCHEM_HEAVY_ATOM_COUNT>
32

> <PUBCHEM_ATOM_DEF_STEREO_COUNT>
4

> <PUBCHEM_ATOM_UDEF_STEREO_COUNT>
0

> <PUBCHEM_BOND_DEF_STEREO_COUNT>
0

> <PUBCHEM_BOND_UDEF_STEREO_COUNT>
0

> <PUBCHEM_ISOTOPIC_ATOM_COUNT>
0

> <PUBCHEM_COMPONENT_COUNT>
1

> <PUBCHEM_CACTVS_TAUTO_COUNT>
8

> <PUBCHEM_CONFORMER_ID>
00B5501C00000001

> <PUBCHEM_MMFF94_ENERGY>
61.4836

> <PUBCHEM_FEATURE_SELFOVERLAP>
76.15

> <PUBCHEM_SHAPE_FINGERPRINT>
10675989 125 18334292045965063746
11069576 57 18341327812682506862
11135926 11 18337677511012745553
12788726 201 17775293746514581841
13533116 47 18342735213330081779
14840074 17 17846786234536068695
15183329 4 17918273169539322565
15250474 111 18341052930131987106
16628084 112 18193279590421017225
17809404 112 17677063424496130475
17857418 61 18272650117287504857
19319366 153 18339919420065511382
19958102 18 18188202114237754941
20775530 9 18341058397598838128
2132832 1 18265605481843190254
21458453 9 10302951272057670981
21703447 108 17846486071766808961
22393880 68 18268167378933697356
23559900 14 18408884074603102849
3729539 64 18335976481548701591
3882209 13 17756683266437405562
463206 1 18271522108404501119
5309563 4 18268441302772741667

> <PUBCHEM_SHAPE_MULTIPOLES>
610.22
13.41
5.49
1.59
10.62
2.38
-0.15
2.97
-5.18
-6.37
1.09
1.07
-0.41
-1.54

> <PUBCHEM_SHAPE_SELFOVERLAP>
1266.214

> <PUBCHEM_SHAPE_VOLUME>
347.3

> <PUBCHEM_COORDINATE_TYPE>
2
5
10

$$$$
