75537146
  -OEChem-12032416333D

 43 45  0     1  0  0  0  0  0999 V2000
   -4.1418    1.8460   -0.2177 F   0  0  0  0  0  0  0  0  0  0  0  0
    3.7640    1.8646   -0.3256 O   0  0  0  0  0  0  0  0  0  0  0  0
    5.0772   -0.7836    0.9222 O   0  0  0  0  0  0  0  0  0  0  0  0
    1.5128    1.1955   -0.3826 N   0  0  0  0  0  0  0  0  0  0  0  0
   -1.1448    0.8479    0.4704 N   0  0  2  0  0  0  0  0  0  0  0  0
    3.0745   -0.2652   -1.0691 N   0  0  0  0  0  0  0  0  0  0  0  0
   -5.4396   -1.5066   -0.6838 N   0  0  0  0  0  0  0  0  0  0  0  0
    0.7583    0.0637   -0.8790 C   0  0  2  0  0  0  0  0  0  0  0  0
   -0.3274   -0.3318    0.1214 C   0  0  0  0  0  0  0  0  0  0  0  0
    1.8239   -1.0026   -1.1247 C   0  0  0  0  0  0  0  0  0  0  0  0
    0.8042    2.3517    0.1256 C   0  0  0  0  0  0  0  0  0  0  0  0
   -0.3106    1.9062    1.0752 C   0  0  0  0  0  0  0  0  0  0  0  0
    2.8932    1.0388   -0.5658 C   0  0  0  0  0  0  0  0  0  0  0  0
   -2.2246    0.4679    1.3809 C   0  0  0  0  0  0  0  0  0  0  0  0
    4.3460   -0.8894   -1.3610 C   0  0  0  0  0  0  0  0  0  0  0  0
    4.8704   -1.6703   -0.1698 C   0  0  0  0  0  0  0  0  0  0  0  0
   -3.3511   -0.2214    0.6579 C   0  0  0  0  0  0  0  0  0  0  0  0
   -4.2495    0.5166   -0.1047 C   0  0  0  0  0  0  0  0  0  0  0  0
   -3.4956   -1.6012    0.7503 C   0  0  0  0  0  0  0  0  0  0  0  0
   -5.2671   -0.1674   -0.7501 C   0  0  0  0  0  0  0  0  0  0  0  0
   -4.5470   -2.1905    0.0668 C   0  0  0  0  0  0  0  0  0  0  0  0
    5.5745   -1.4689    2.0633 C   0  0  0  0  0  0  0  0  0  0  0  0
    0.3081    0.3717   -1.8319 H   0  0  0  0  0  0  0  0  0  0  0  0
   -0.9359   -1.1149   -0.3433 H   0  0  0  0  0  0  0  0  0  0  0  0
    0.1262   -0.7586    1.0263 H   0  0  0  0  0  0  0  0  0  0  0  0
    1.8384   -1.7711   -0.3454 H   0  0  0  0  0  0  0  0  0  0  0  0
    1.7111   -1.4768   -2.1042 H   0  0  0  0  0  0  0  0  0  0  0  0
    0.3860    2.8821   -0.7376 H   0  0  0  0  0  0  0  0  0  0  0  0
    1.5087    3.0225    0.6274 H   0  0  0  0  0  0  0  0  0  0  0  0
    0.1323    1.5461    2.0135 H   0  0  0  0  0  0  0  0  0  0  0  0
   -0.9245    2.7824    1.3156 H   0  0  0  0  0  0  0  0  0  0  0  0
   -2.6577    1.3608    1.8535 H   0  0  0  0  0  0  0  0  0  0  0  0
   -1.8571   -0.1466    2.2143 H   0  0  0  0  0  0  0  0  0  0  0  0
    5.0552   -0.0918   -1.6092 H   0  0  0  0  0  0  0  0  0  0  0  0
    4.2267   -1.5354   -2.2364 H   0  0  0  0  0  0  0  0  0  0  0  0
    4.1591   -2.4516    0.1220 H   0  0  0  0  0  0  0  0  0  0  0  0
    5.8211   -2.1453   -0.4379 H   0  0  0  0  0  0  0  0  0  0  0  0
   -2.8136   -2.2085    1.3355 H   0  0  0  0  0  0  0  0  0  0  0  0
   -5.9935    0.3623   -1.3574 H   0  0  0  0  0  0  0  0  0  0  0  0
   -4.7033   -3.2634    0.1064 H   0  0  0  0  0  0  0  0  0  0  0  0
    5.7157   -0.7414    2.8670 H   0  0  0  0  0  0  0  0  0  0  0  0
    6.5392   -1.9351    1.8410 H   0  0  0  0  0  0  0  0  0  0  0  0
    4.8582   -2.2250    2.3990 H   0  0  0  0  0  0  0  0  0  0  0  0
  1 18  1  0  0  0  0
  2 13  2  0  0  0  0
  3 16  1  0  0  0  0
  3 22  1  0  0  0  0
  4  8  1  0  0  0  0
  4 11  1  0  0  0  0
  4 13  1  0  0  0  0
  5  9  1  0  0  0  0
  5 12  1  0  0  0  0
  5 14  1  0  0  0  0
  6 10  1  0  0  0  0
  6 13  1  0  0  0  0
  6 15  1  0  0  0  0
  7 20  2  0  0  0  0
  7 21  1  0  0  0  0
  8  9  1  0  0  0  0
  8 10  1  0  0  0  0
  8 23  1  0  0  0  0
  9 24  1  0  0  0  0
  9 25  1  0  0  0  0
 10 26  1  0  0  0  0
 10 27  1  0  0  0  0
 11 12  1  0  0  0  0
 11 28  1  0  0  0  0
 11 29  1  0  0  0  0
 12 30  1  0  0  0  0
 12 31  1  0  0  0  0
 14 17  1  0  0  0  0
 14 32  1  0  0  0  0
 14 33  1  0  0  0  0
 15 16  1  0  0  0  0
 15 34  1  0  0  0  0
 15 35  1  0  0  0  0
 16 36  1  0  0  0  0
 16 37  1  0  0  0  0
 17 18  2  0  0  0  0
 17 19  1  0  0  0  0
 18 20  1  0  0  0  0
 19 21  2  0  0  0  0
 19 38  1  0  0  0  0
 20 39  1  0  0  0  0
 21 40  1  0  0  0  0
 22 41  1  0  0  0  0
 22 42  1  0  0  0  0
 22 43  1  0  0  0  0
M  END
> <PUBCHEM_COMPOUND_CID>
75537146

> <PUBCHEM_CONFORMER_RMSD>
0.8

> <PUBCHEM_CONFORMER_DIVERSEORDER>
1
90
17
63
78
76
40
48
60
107
69
94
52
25
96
7
109
82
92
67
99
93
12
32
51
18
65
75
55
19
102
111
5
89
97
28
6
112
91
104
34
35
61
68
81
47
103
85
84
72
73
37
100
74
38
56
33
83
58
66
23
59
54
79
15
106
41
42
70
86
87
114
57
49
44
21
36
10
24
80
71
45
62
53
9
113
43
95
50
46
11
22
108
105
101
64
16
31
4
3
20
77
98
39
8
88
26
29
13
27
110
115
2
14
30

> <PUBCHEM_MMFF94_PARTIAL_CHARGES>
25
1 -0.19
10 0.3
11 0.3
12 0.27
13 0.69
14 0.41
15 0.3
16 0.28
17 -0.14
18 0.19
19 -0.15
2 -0.57
20 0.16
21 0.16
22 0.28
3 -0.56
38 0.15
39 0.15
4 -0.66
40 0.15
5 -0.81
6 -0.66
7 -0.62
8 0.3
9 0.27

> <PUBCHEM_EFFECTIVE_ROTOR_COUNT>
6.2

> <PUBCHEM_PHARMACOPHORE_FEATURES>
7
1 2 acceptor
1 3 acceptor
1 5 cation
1 7 acceptor
5 4 6 8 10 13 rings
6 4 5 8 9 11 12 rings
6 7 17 18 19 20 21 rings

> <PUBCHEM_HEAVY_ATOM_COUNT>
22

> <PUBCHEM_ATOM_DEF_STEREO_COUNT>
1

> <PUBCHEM_ATOM_UDEF_STEREO_COUNT>
0

> <PUBCHEM_BOND_DEF_STEREO_COUNT>
0

> <PUBCHEM_BOND_UDEF_STEREO_COUNT>
0

> <PUBCHEM_ISOTOPIC_ATOM_COUNT>
0

> <PUBCHEM_COMPONENT_COUNT>
1

> <PUBCHEM_CACTVS_TAUTO_COUNT>
1

> <PUBCHEM_CONFORMER_ID>
04809AFA00000001

> <PUBCHEM_MMFF94_ENERGY>
49.005

> <PUBCHEM_FEATURE_SELFOVERLAP>
35.618

> <PUBCHEM_SHAPE_FINGERPRINT>
10447042 23 18272089434902833764
10613725 11 16950280676542795195
10670039 82 9223237351540493066
11405975 8 18410302393237730985
11796584 16 17748833999023737194
12596602 18 18411975850446740642
12616971 3 18337404776669002953
12954195 1 13840532996582699638
13899415 180 18336818758298853821
14251751 18 18114453496769534842
14251752 14 18260264123760226757
14848160 23 18060135418680585254
14848178 5 18343303647714322314
15183329 4 14851603246178046026
15196674 1 18271816739029244893
15788980 27 18113341916177934571
17349148 13 18342750614729286410
17857418 61 18113897143849054338
18222031 100 18343028761723534478
18785283 64 16557889269298874136
19377110 9 13614231620579890385
200 152 18060426815448234325
20028762 73 18131635577936280086
20567600 234 17274525629519775138
20621476 91 17059761321490364439
20626108 58 18408601487219475496
20645477 70 18341058475166810158
21728266 224 18335414625941217122
21756936 100 8213847146847347424
22079108 93 15410602688870394686
221490 88 18197227051485556983
22393880 68 18333726927659735031
23402539 116 18343024345879949623
23559900 14 18410858793049410720
2637199 183 10665231457836026028
3004659 81 18408329886594027102
339767 52 18411974741517379354
4325135 7 13254791343500455171
439807 62 18268145552074176311
5104073 3 18342747342259795169
5283173 99 18336827498694587253
559249 180 18335136449974253731
59682541 52 16298649643159698531
633830 44 12757439400696363354
76465 3 18333731304051834170
8988823 20 18113894979675874532
960060 61 17095529495936163950
9709674 26 18265621077227813355
9971528 1 17095524028136718196

> <PUBCHEM_SHAPE_MULTIPOLES>
413.81
13.2
2.25
1.35
0.12
0.44
0.39
-7.47
0.68
-0.05
0.26
1.46
-0.36
-0.74

> <PUBCHEM_SHAPE_SELFOVERLAP>
866.19

> <PUBCHEM_SHAPE_VOLUME>
235.6

> <PUBCHEM_COORDINATE_TYPE>
2
5
10

$$$$
