45784231
  -OEChem-12032416243D

 37 40  0     1  0  0  0  0  0999 V2000
   -6.1981   -0.3859   -0.6406 F   0  0  0  0  0  0  0  0  0  0  0  0
    3.1745    0.4036   -0.0895 N   0  0  1  0  0  0  0  0  0  0  0  0
   -1.4943    0.8194   -1.0856 N   0  0  0  0  0  0  0  0  0  0  0  0
   -0.9198   -0.1189    0.8456 N   0  0  0  0  0  0  0  0  0  0  0  0
    4.1343   -0.6362    0.2995 C   0  0  0  0  0  0  0  0  0  0  0  0
    5.5481   -0.0259    0.3943 C   0  0  0  0  0  0  0  0  0  0  0  0
    4.6245   -1.3841   -0.9579 C   0  0  0  0  0  0  0  0  0  0  0  0
    0.9343    0.9809   -0.4732 C   0  0  2  0  0  0  0  0  0  0  0  0
    1.9184   -0.1940   -0.5509 C   0  0  0  0  0  0  0  0  0  0  0  0
    6.0503   -1.2620   -0.3806 C   0  0  0  0  0  0  0  0  0  0  0  0
    2.7990    1.2210    1.0654 C   0  0  0  0  0  0  0  0  0  0  0  0
    1.5332    1.9210    0.5876 C   0  0  0  0  0  0  0  0  0  0  0  0
   -0.4868    0.5432   -0.2037 C   0  0  0  0  0  0  0  0  0  0  0  0
   -2.6548    0.3008   -0.5712 C   0  0  0  0  0  0  0  0  0  0  0  0
   -2.2701   -0.2795    0.6343 C   0  0  0  0  0  0  0  0  0  0  0  0
   -3.9681    0.2897   -1.0424 C   0  0  0  0  0  0  0  0  0  0  0  0
   -3.2398   -0.9126    1.4299 C   0  0  0  0  0  0  0  0  0  0  0  0
   -4.9202   -0.3447   -0.2378 C   0  0  0  0  0  0  0  0  0  0  0  0
   -4.5647   -0.9358    0.9768 C   0  0  0  0  0  0  0  0  0  0  0  0
    3.8545   -1.2883    1.1361 H   0  0  0  0  0  0  0  0  0  0  0  0
    5.9486    0.0857    1.4058 H   0  0  0  0  0  0  0  0  0  0  0  0
    5.7046    0.9129   -0.1519 H   0  0  0  0  0  0  0  0  0  0  0  0
    4.5095   -0.8552   -1.9125 H   0  0  0  0  0  0  0  0  0  0  0  0
    4.2547   -2.4065   -1.0758 H   0  0  0  0  0  0  0  0  0  0  0  0
    0.9577    1.5152   -1.4343 H   0  0  0  0  0  0  0  0  0  0  0  0
    1.6021   -1.0223    0.0976 H   0  0  0  0  0  0  0  0  0  0  0  0
    1.9927   -0.5741   -1.5756 H   0  0  0  0  0  0  0  0  0  0  0  0
    6.3388   -2.1001    0.2642 H   0  0  0  0  0  0  0  0  0  0  0  0
    6.8453   -1.0788   -1.1075 H   0  0  0  0  0  0  0  0  0  0  0  0
    3.5766    1.9421    1.3362 H   0  0  0  0  0  0  0  0  0  0  0  0
    2.5713    0.6064    1.9462 H   0  0  0  0  0  0  0  0  0  0  0  0
    1.7869    2.8813    0.1214 H   0  0  0  0  0  0  0  0  0  0  0  0
    0.8529    2.1261    1.4210 H   0  0  0  0  0  0  0  0  0  0  0  0
   -1.4040    1.3168   -1.9617 H   0  0  0  0  0  0  0  0  0  0  0  0
   -4.2418    0.7491   -1.9854 H   0  0  0  0  0  0  0  0  0  0  0  0
   -2.9736   -1.3748    2.3751 H   0  0  0  0  0  0  0  0  0  0  0  0
   -5.3273   -1.4214    1.5800 H   0  0  0  0  0  0  0  0  0  0  0  0
  1 18  1  0  0  0  0
  2  5  1  0  0  0  0
  2  9  1  0  0  0  0
  2 11  1  0  0  0  0
  3 13  1  0  0  0  0
  3 14  1  0  0  0  0
  3 34  1  0  0  0  0
  4 13  2  0  0  0  0
  4 15  1  0  0  0  0
  5  6  1  0  0  0  0
  5  7  1  0  0  0  0
  5 20  1  0  0  0  0
  6 10  1  0  0  0  0
  6 21  1  0  0  0  0
  6 22  1  0  0  0  0
  7 10  1  0  0  0  0
  7 23  1  0  0  0  0
  7 24  1  0  0  0  0
  8  9  1  0  0  0  0
  8 12  1  0  0  0  0
  8 13  1  0  0  0  0
  8 25  1  0  0  0  0
  9 26  1  0  0  0  0
  9 27  1  0  0  0  0
 10 28  1  0  0  0  0
 10 29  1  0  0  0  0
 11 12  1  0  0  0  0
 11 30  1  0  0  0  0
 11 31  1  0  0  0  0
 12 32  1  0  0  0  0
 12 33  1  0  0  0  0
 14 15  2  0  0  0  0
 14 16  1  0  0  0  0
 15 17  1  0  0  0  0
 16 18  2  0  0  0  0
 16 35  1  0  0  0  0
 17 19  2  0  0  0  0
 17 36  1  0  0  0  0
 18 19  1  0  0  0  0
 19 37  1  0  0  0  0
M  END
> <PUBCHEM_COMPOUND_CID>
45784231

> <PUBCHEM_CONFORMER_RMSD>
0.6

> <PUBCHEM_CONFORMER_DIVERSEORDER>
1
11
14
6
10
12
4
13
9
8
7
5
2
3

> <PUBCHEM_MMFF94_PARTIAL_CHARGES>
19
1 -0.19
11 0.27
13 0.01
14 -0.15
15 0.23
16 -0.15
17 -0.15
18 0.19
19 -0.15
2 -0.75
3 0.03
34 0.27
35 0.15
36 0.15
37 0.15
4 -0.57
5 0.21
8 0.18
9 0.27

> <PUBCHEM_EFFECTIVE_ROTOR_COUNT>
3.8

> <PUBCHEM_PHARMACOPHORE_FEATURES>
7
1 2 cation
1 3 donor
3 3 4 13 cation
4 5 6 7 10 rings
5 2 8 9 11 12 rings
5 3 4 13 14 15 rings
6 14 15 16 17 18 19 rings

> <PUBCHEM_HEAVY_ATOM_COUNT>
19

> <PUBCHEM_ATOM_DEF_STEREO_COUNT>
1

> <PUBCHEM_ATOM_UDEF_STEREO_COUNT>
0

> <PUBCHEM_BOND_DEF_STEREO_COUNT>
0

> <PUBCHEM_BOND_UDEF_STEREO_COUNT>
0

> <PUBCHEM_ISOTOPIC_ATOM_COUNT>
0

> <PUBCHEM_COMPONENT_COUNT>
1

> <PUBCHEM_CACTVS_TAUTO_COUNT>
2

> <PUBCHEM_CONFORMER_ID>
02BA9CA700000001

> <PUBCHEM_MMFF94_ENERGY>
39.7678

> <PUBCHEM_FEATURE_SELFOVERLAP>
35.63

> <PUBCHEM_SHAPE_FINGERPRINT>
10354089 29 14405182864026797842
106641 1 16917057889686644298
11128504 68 14851609894729287462
11315181 36 18113623386633110344
11796584 16 18040155123677610834
12107183 9 15406991733576270666
12236239 1 16845854593943556251
12390115 104 17532360977817264861
12403259 118 15841562872673152905
12507557 5 13830129486005677915
12516196 113 18273211998068583984
12596602 18 16343983607058026842
12616971 3 16988842813103796589
12788726 201 15864620683479788445
13288520 33 17967534571211942399
13402501 40 18334018285034940706
13533116 47 17703788137225496706
13544592 145 18187082892551149329
13631057 29 11675747562631427313
13668630 136 18272089405054834143
13685833 64 18411421717243525786
13862211 1 18272087163408842670
13911852 28 17915747475002746598
13914758 101 17775287115385861057
13955234 65 18270116958968310656
14211702 104 17203048594706763351
14251718 22 16660366991207351958
14251731 8 17530965782679805187
14251752 14 16009018458891525554
14252887 29 17917716764973667950
14341114 176 13542467562098167590
14341114 328 15195564611209247178
14366163 111 14418135132107362908
14386348 63 18334014986557546730
14455015 7 18410016537119824802
14528608 73 13479137912535649278
14617045 38 17676489428134776651
15048467 5 11097849684221171743
15183329 4 16515684416482236742
15242439 84 18113052748999225241
15527383 91 17846779615954645840
15788980 27 17989205940842113521
15880784 105 18200591522733485923
17804303 29 17821447988852437005
17834072 8 17603863412534154047
17844677 252 18409171004283829076
17862501 102 16845853494400299543
17870717 6 17603872191283932587
17980427 23 12894771667175651536
1813 80 17845950554302152644
18222031 100 18060144228365170460
19141452 34 18340487863113396111
193927 3 18339655464223119934
19784866 240 18341620303954412348
200 152 18060415811583779257
20325693 3 16588025710579890083
20374829 77 17821728346778844274
20645477 70 18413103974729709164
20681677 155 15791733022455166273
20871999 31 16950282879924334764
21065201 7 17676198117661690025
21120745 212 14807408848493889160
21150785 3 12829489286054017787
21267235 1 17917434190717399246
2215653 11 18260260850441467143
22224240 67 17560793347836704570
2297311 6 17603307051092174493
23175994 123 18410012152238232153
23402539 116 17418093200570129897
23402655 69 12973601140449047152
23557571 272 17894909581613171677
23559900 14 17749671899576643613
23622692 88 16988843891024530652
239999 70 18261112985412713466
26918003 58 18060139859977241875
2871803 45 18114463379763583082
2916195 48 10735877253021377779
300161 21 14634864271088551472
3004659 81 16515676694716595194
314194 84 18202281399207010646
345986 75 17345469285230180218
34797466 226 17749119898116949654
351380 3 17989205924110799902
4325135 7 18113622313998861340
465052 167 18130791161811632510
5104073 3 16056311864401753739
59755656 215 18040429971831032787
67856867 119 16271352136263409289

> <PUBCHEM_SHAPE_MULTIPOLES>
368.79
13.93
1.33
1.15
2.47
0.26
0.12
-6.12
-0.76
1.24
0.12
-0.71
-0.06
1.17

> <PUBCHEM_SHAPE_SELFOVERLAP>
807.321

> <PUBCHEM_SHAPE_VOLUME>
205

> <PUBCHEM_COORDINATE_TYPE>
2
5
10

$$$$
