56774927
  -OEChem-12032416213D

 55 57  0     1  0  0  0  0  0999 V2000
   -2.1075   -1.8893   -1.7915 O   0  0  0  0  0  0  0  0  0  0  0  0
   -1.9183   -0.7491    2.2554 O   0  0  0  0  0  0  0  0  0  0  0  0
    5.0813   -1.4695   -0.0340 O   0  0  0  0  0  0  0  0  0  0  0  0
   -4.5687    2.1117    0.0582 O   0  0  0  0  0  0  0  0  0  0  0  0
   -5.4232   -2.1987   -0.3946 O   0  0  0  0  0  0  0  0  0  0  0  0
   -3.7599   -0.6489    0.1036 N   0  0  0  0  0  0  0  0  0  0  0  0
    3.9939    0.5464    0.4653 N   0  0  0  0  0  0  0  0  0  0  0  0
    6.4300    0.5407    0.1346 C   0  0  0  0  0  0  0  0  0  0  0  0
    6.6283    1.5344   -1.0287 C   0  0  0  0  0  0  0  0  0  0  0  0
    7.6848   -0.1947   -0.3809 C   0  0  0  0  0  0  0  0  0  0  0  0
    8.1218    1.1479   -1.0032 C   0  0  0  0  0  0  0  0  0  0  0  0
   -2.3552   -0.2560   -0.0640 C   0  0  1  0  0  0  0  0  0  0  0  0
    5.1084   -0.2533    0.1728 C   0  0  0  0  0  0  0  0  0  0  0  0
   -1.4633   -1.0047    0.9308 C   0  0  1  0  0  0  0  0  0  0  0  0
   -1.9102   -0.5110   -1.4992 C   0  0  0  0  0  0  0  0  0  0  0  0
   -0.0183   -0.5936    0.8070 C   0  0  0  0  0  0  0  0  0  0  0  0
   -4.5136   -0.0116    1.1749 C   0  0  0  0  0  0  0  0  0  0  0  0
   -4.3121   -1.7111   -0.6097 C   0  0  0  0  0  0  0  0  0  0  0  0
   -3.4790   -2.2166   -1.7823 C   0  0  0  0  0  0  0  0  0  0  0  0
    2.6563    0.1659    0.5790 C   0  0  0  0  0  0  0  0  0  0  0  0
    0.9549   -1.5478    0.5103 C   0  0  0  0  0  0  0  0  0  0  0  0
    0.3459    0.7405    0.9896 C   0  0  0  0  0  0  0  0  0  0  0  0
   -5.3885    1.1117    0.6493 C   0  0  0  0  0  0  0  0  0  0  0  0
    2.2922   -1.1681    0.3963 C   0  0  0  0  0  0  0  0  0  0  0  0
    1.6831    1.1203    0.8757 C   0  0  0  0  0  0  0  0  0  0  0  0
   -5.3446    3.1882   -0.4502 C   0  0  0  0  0  0  0  0  0  0  0  0
   -4.4185    4.2163   -1.0644 C   0  0  0  0  0  0  0  0  0  0  0  0
    6.6229    1.0134    1.1103 H   0  0  0  0  0  0  0  0  0  0  0  0
    6.4111    2.5816   -0.8025 H   0  0  0  0  0  0  0  0  0  0  0  0
    6.1146    1.2555   -1.9562 H   0  0  0  0  0  0  0  0  0  0  0  0
    7.4901   -0.9765   -1.1242 H   0  0  0  0  0  0  0  0  0  0  0  0
    8.3515   -0.5939    0.3880 H   0  0  0  0  0  0  0  0  0  0  0  0
    8.7280    1.7692   -0.3339 H   0  0  0  0  0  0  0  0  0  0  0  0
    8.6140    1.0842   -1.9766 H   0  0  0  0  0  0  0  0  0  0  0  0
   -2.3102    0.8240    0.1180 H   0  0  0  0  0  0  0  0  0  0  0  0
   -1.5624   -2.0872    0.7828 H   0  0  0  0  0  0  0  0  0  0  0  0
   -0.8582   -0.2671   -1.6706 H   0  0  0  0  0  0  0  0  0  0  0  0
   -2.4918    0.0958   -2.2056 H   0  0  0  0  0  0  0  0  0  0  0  0
   -3.8376    0.4070    1.9228 H   0  0  0  0  0  0  0  0  0  0  0  0
   -5.1419   -0.7628    1.6658 H   0  0  0  0  0  0  0  0  0  0  0  0
    4.1775    1.5364    0.6141 H   0  0  0  0  0  0  0  0  0  0  0  0
   -3.5545   -3.3088   -1.7995 H   0  0  0  0  0  0  0  0  0  0  0  0
   -3.9382   -1.8383   -2.7033 H   0  0  0  0  0  0  0  0  0  0  0  0
    0.6848   -2.5904    0.3647 H   0  0  0  0  0  0  0  0  0  0  0  0
   -0.3946    1.4973    1.2332 H   0  0  0  0  0  0  0  0  0  0  0  0
   -5.9599    1.5477    1.4768 H   0  0  0  0  0  0  0  0  0  0  0  0
   -6.0919    0.7275   -0.0990 H   0  0  0  0  0  0  0  0  0  0  0  0
    2.9843   -1.9649    0.1646 H   0  0  0  0  0  0  0  0  0  0  0  0
    1.9531    2.1629    1.0231 H   0  0  0  0  0  0  0  0  0  0  0  0
   -1.2410   -1.0660    2.8772 H   0  0  0  0  0  0  0  0  0  0  0  0
   -6.0395    2.8169   -1.2118 H   0  0  0  0  0  0  0  0  0  0  0  0
   -5.9188    3.6475    0.3621 H   0  0  0  0  0  0  0  0  0  0  0  0
   -3.7086    4.5898   -0.3189 H   0  0  0  0  0  0  0  0  0  0  0  0
   -3.8271    3.7694   -1.8704 H   0  0  0  0  0  0  0  0  0  0  0  0
   -4.9840    5.0609   -1.4677 H   0  0  0  0  0  0  0  0  0  0  0  0
  1 15  1  0  0  0  0
  1 19  1  0  0  0  0
  2 14  1  0  0  0  0
  2 50  1  0  0  0  0
  3 13  2  0  0  0  0
  4 23  1  0  0  0  0
  4 26  1  0  0  0  0
  5 18  2  0  0  0  0
  6 12  1  0  0  0  0
  6 17  1  0  0  0  0
  6 18  1  0  0  0  0
  7 13  1  0  0  0  0
  7 20  1  0  0  0  0
  7 41  1  0  0  0  0
  8  9  1  0  0  0  0
  8 10  1  0  0  0  0
  8 13  1  0  0  0  0
  8 28  1  0  0  0  0
  9 11  1  0  0  0  0
  9 29  1  0  0  0  0
  9 30  1  0  0  0  0
 10 11  1  0  0  0  0
 10 31  1  0  0  0  0
 10 32  1  0  0  0  0
 11 33  1  0  0  0  0
 11 34  1  0  0  0  0
 12 14  1  0  0  0  0
 12 15  1  0  0  0  0
 12 35  1  0  0  0  0
 14 16  1  0  0  0  0
 14 36  1  0  0  0  0
 15 37  1  0  0  0  0
 15 38  1  0  0  0  0
 16 21  2  0  0  0  0
 16 22  1  0  0  0  0
 17 23  1  0  0  0  0
 17 39  1  0  0  0  0
 17 40  1  0  0  0  0
 18 19  1  0  0  0  0
 19 42  1  0  0  0  0
 19 43  1  0  0  0  0
 20 24  2  0  0  0  0
 20 25  1  0  0  0  0
 21 24  1  0  0  0  0
 21 44  1  0  0  0  0
 22 25  2  0  0  0  0
 22 45  1  0  0  0  0
 23 46  1  0  0  0  0
 23 47  1  0  0  0  0
 24 48  1  0  0  0  0
 25 49  1  0  0  0  0
 26 27  1  0  0  0  0
 26 51  1  0  0  0  0
 26 52  1  0  0  0  0
 27 53  1  0  0  0  0
 27 54  1  0  0  0  0
 27 55  1  0  0  0  0
M  END
> <PUBCHEM_COMPOUND_CID>
56774927

> <PUBCHEM_CONFORMER_RMSD>
1

> <PUBCHEM_CONFORMER_DIVERSEORDER>
1
47
42
15
46
11
43
24
44
49
31
39
41
20
21
16
35
37
27
9
30
13
19
34
32
26
8
28
6
48
7
5
40
45
3
23
38
36
29
4
22
50
25
18
2
14
10
33
12
17

> <PUBCHEM_MMFF94_PARTIAL_CHARGES>
29
1 -0.56
12 0.3
13 0.58
14 0.42
15 0.28
16 -0.14
17 0.3
18 0.57
19 0.34
2 -0.68
20 0.12
21 -0.15
22 -0.15
23 0.28
24 -0.15
25 -0.15
26 0.28
3 -0.57
4 -0.56
41 0.37
44 0.15
45 0.15
48 0.15
49 0.15
5 -0.57
50 0.4
6 -0.66
7 -0.55
8 0.05

> <PUBCHEM_EFFECTIVE_ROTOR_COUNT>
10.8

> <PUBCHEM_PHARMACOPHORE_FEATURES>
10
1 1 acceptor
1 2 acceptor
1 2 donor
1 3 acceptor
1 4 acceptor
1 5 acceptor
1 7 donor
4 8 9 10 11 rings
6 1 6 12 15 18 19 rings
6 16 20 21 22 24 25 rings

> <PUBCHEM_HEAVY_ATOM_COUNT>
27

> <PUBCHEM_ATOM_DEF_STEREO_COUNT>
2

> <PUBCHEM_ATOM_UDEF_STEREO_COUNT>
0

> <PUBCHEM_BOND_DEF_STEREO_COUNT>
0

> <PUBCHEM_BOND_UDEF_STEREO_COUNT>
0

> <PUBCHEM_ISOTOPIC_ATOM_COUNT>
0

> <PUBCHEM_COMPONENT_COUNT>
1

> <PUBCHEM_CACTVS_TAUTO_COUNT>
6

> <PUBCHEM_CONFORMER_ID>
0362510F00000001

> <PUBCHEM_MMFF94_ENERGY>
73.2365

> <PUBCHEM_FEATURE_SELFOVERLAP>
50.749

> <PUBCHEM_SHAPE_FINGERPRINT>
10087517 78 18113336392655488933
10816530 145 16153436060157976421
11135926 11 17131841932416164070
11524674 6 14261356877125270292
11646440 116 15213021553381758644
12082328 90 18408042931418693342
12236239 1 18059860593009444738
12895837 130 18407763629268270765
13288520 33 16845298280005095554
13690498 29 18059004111958725615
13782708 43 13470413249615687948
14251752 14 18343582928426676128
14856354 85 18338802337526430903
14930077 153 18335709368362809036
15183329 4 18343298171783734410
15198563 99 18268409362087288829
15419008 91 17560784547359279112
15876981 60 18333735749612446957
17913733 40 14634870825562794984
18927931 339 15554454019614099811
21150785 3 18187644777806751306
21267235 1 17845937462967631451
21424621 283 17822295647956383392
21709351 56 18201433718100792072
21756936 100 18113620075608815057
23035841 295 17274827990975569966
23081809 10 18187356632740282842
23198884 109 18187365454022814514
23559900 14 16343695582430094802
2838139 119 18260833734897096904
392239 28 13696168300628617653
4098825 35 18335139739987631270
4107672 100 18343302565271593004
44249763 50 18199730536193501152
44802255 64 18273215279291736479
559249 180 17775568658275154102
59755656 215 16343432739195301230
6327066 14 18192142699751503829

> <PUBCHEM_SHAPE_MULTIPOLES>
516.34
19.52
2.98
1.45
33.92
3.11
-0.15
8.76
-5.34
-6.76
-1.41
-1.09
-0.39
-0.86

> <PUBCHEM_SHAPE_SELFOVERLAP>
1071.626

> <PUBCHEM_SHAPE_VOLUME>
291.1

> <PUBCHEM_COORDINATE_TYPE>
2
5
10

$$$$
