75537098
  -OEChem-12032416393D

 37 39  0     1  0  0  0  0  0999 V2000
    4.0652    1.9299   -0.1700 O   0  0  0  0  0  0  0  0  0  0  0  0
    2.1744    0.5410   -0.2925 N   0  0  0  0  0  0  0  0  0  0  0  0
   -0.4212   -0.4109    0.2247 N   0  0  2  0  0  0  0  0  0  0  0  0
    4.1938   -0.4247   -0.1106 N   0  0  0  0  0  0  0  0  0  0  0  0
    1.9104   -0.8778   -0.4103 C   0  0  2  0  0  0  0  0  0  0  0  0
    0.7439   -1.2785    0.4922 C   0  0  0  0  0  0  0  0  0  0  0  0
    3.2476   -1.5258   -0.0567 C   0  0  0  0  0  0  0  0  0  0  0  0
    1.0740    1.4772   -0.3902 C   0  0  0  0  0  0  0  0  0  0  0  0
   -0.0927    1.0060    0.4816 C   0  0  0  0  0  0  0  0  0  0  0  0
    3.5434    0.8230   -0.1927 C   0  0  0  0  0  0  0  0  0  0  0  0
   -1.5624   -0.8252    1.0405 C   0  0  0  0  0  0  0  0  0  0  0  0
    5.6159   -0.6272    0.0579 C   0  0  0  0  0  0  0  0  0  0  0  0
   -2.8703   -0.3800    0.4421 C   0  0  0  0  0  0  0  0  0  0  0  0
   -3.4083    0.8603    0.7853 C   0  0  0  0  0  0  0  0  0  0  0  0
   -3.5440   -1.2081   -0.4556 C   0  0  0  0  0  0  0  0  0  0  0  0
   -4.6201    1.2726    0.2309 C   0  0  0  0  0  0  0  0  0  0  0  0
   -4.7557   -0.7960   -1.0100 C   0  0  0  0  0  0  0  0  0  0  0  0
   -5.2938    0.4444   -0.6667 C   0  0  0  0  0  0  0  0  0  0  0  0
    1.6654   -1.0718   -1.4629 H   0  0  0  0  0  0  0  0  0  0  0  0
    0.4939   -2.3271    0.2897 H   0  0  0  0  0  0  0  0  0  0  0  0
    1.0318   -1.2049    1.5497 H   0  0  0  0  0  0  0  0  0  0  0  0
    3.2643   -1.9417    0.9560 H   0  0  0  0  0  0  0  0  0  0  0  0
    3.5326   -2.2999   -0.7755 H   0  0  0  0  0  0  0  0  0  0  0  0
    0.7756    1.5193   -1.4441 H   0  0  0  0  0  0  0  0  0  0  0  0
    1.4138    2.4746   -0.0937 H   0  0  0  0  0  0  0  0  0  0  0  0
    0.1652    1.1516    1.5392 H   0  0  0  0  0  0  0  0  0  0  0  0
   -0.9361    1.6624    0.2521 H   0  0  0  0  0  0  0  0  0  0  0  0
   -1.4749   -0.4784    2.0794 H   0  0  0  0  0  0  0  0  0  0  0  0
   -1.6012   -1.9214    1.1127 H   0  0  0  0  0  0  0  0  0  0  0  0
    5.7947   -1.0554    1.0478 H   0  0  0  0  0  0  0  0  0  0  0  0
    6.1467    0.3242   -0.0273 H   0  0  0  0  0  0  0  0  0  0  0  0
    5.9687   -1.3168   -0.7132 H   0  0  0  0  0  0  0  0  0  0  0  0
   -2.9062    1.5103    1.4968 H   0  0  0  0  0  0  0  0  0  0  0  0
   -3.1350   -2.1759   -0.7335 H   0  0  0  0  0  0  0  0  0  0  0  0
   -5.0412    2.2365    0.5013 H   0  0  0  0  0  0  0  0  0  0  0  0
   -5.2803   -1.4405   -1.7093 H   0  0  0  0  0  0  0  0  0  0  0  0
   -6.2378    0.7649   -1.0978 H   0  0  0  0  0  0  0  0  0  0  0  0
  1 10  2  0  0  0  0
  2  5  1  0  0  0  0
  2  8  1  0  0  0  0
  2 10  1  0  0  0  0
  3  6  1  0  0  0  0
  3  9  1  0  0  0  0
  3 11  1  0  0  0  0
  4  7  1  0  0  0  0
  4 10  1  0  0  0  0
  4 12  1  0  0  0  0
  5  6  1  0  0  0  0
  5  7  1  0  0  0  0
  5 19  1  0  0  0  0
  6 20  1  0  0  0  0
  6 21  1  0  0  0  0
  7 22  1  0  0  0  0
  7 23  1  0  0  0  0
  8  9  1  0  0  0  0
  8 24  1  0  0  0  0
  8 25  1  0  0  0  0
  9 26  1  0  0  0  0
  9 27  1  0  0  0  0
 11 13  1  0  0  0  0
 11 28  1  0  0  0  0
 11 29  1  0  0  0  0
 12 30  1  0  0  0  0
 12 31  1  0  0  0  0
 12 32  1  0  0  0  0
 13 14  2  0  0  0  0
 13 15  1  0  0  0  0
 14 16  1  0  0  0  0
 14 33  1  0  0  0  0
 15 17  2  0  0  0  0
 15 34  1  0  0  0  0
 16 18  2  0  0  0  0
 16 35  1  0  0  0  0
 17 18  1  0  0  0  0
 17 36  1  0  0  0  0
 18 37  1  0  0  0  0
M  END
> <PUBCHEM_COMPOUND_CID>
75537098

> <PUBCHEM_CONFORMER_RMSD>
0.6

> <PUBCHEM_CONFORMER_DIVERSEORDER>
2
14
10
15
9
13
12
7
4
1
3
8
5
11
6

> <PUBCHEM_MMFF94_PARTIAL_CHARGES>
23
1 -0.57
10 0.69
11 0.41
12 0.3
13 -0.14
14 -0.15
15 -0.15
16 -0.15
17 -0.15
18 -0.15
2 -0.66
3 -0.81
33 0.15
34 0.15
35 0.15
36 0.15
37 0.15
4 -0.66
5 0.3
6 0.27
7 0.3
8 0.3
9 0.27

> <PUBCHEM_EFFECTIVE_ROTOR_COUNT>
3.2

> <PUBCHEM_PHARMACOPHORE_FEATURES>
5
1 1 acceptor
1 3 cation
5 2 4 5 7 10 rings
6 13 14 15 16 17 18 rings
6 2 3 5 6 8 9 rings

> <PUBCHEM_HEAVY_ATOM_COUNT>
18

> <PUBCHEM_ATOM_DEF_STEREO_COUNT>
1

> <PUBCHEM_ATOM_UDEF_STEREO_COUNT>
0

> <PUBCHEM_BOND_DEF_STEREO_COUNT>
0

> <PUBCHEM_BOND_UDEF_STEREO_COUNT>
0

> <PUBCHEM_ISOTOPIC_ATOM_COUNT>
0

> <PUBCHEM_COMPONENT_COUNT>
1

> <PUBCHEM_CACTVS_TAUTO_COUNT>
1

> <PUBCHEM_CONFORMER_ID>
04809ACA00000002

> <PUBCHEM_MMFF94_ENERGY>
43.8846

> <PUBCHEM_FEATURE_SELFOVERLAP>
25.468

> <PUBCHEM_SHAPE_FINGERPRINT>
10014705 185 18260547836119609845
10354089 29 8214140768028475062
11089746 13 18408601461771230042
11401426 45 18411699876552904762
11471102 20 18408324401999859068
12107183 9 17550957992085713539
12236239 1 18060698381587350390
128620 24 15339121234197677515
13167823 11 18272650151584271095
13675066 3 17676779741874224033
1420 363 13398631662427970308
14528608 73 18342740753837952276
15196674 1 18409732888826293841
15375358 24 18333735736189168874
15788980 27 18413672413387740003
17834072 33 18272649073562998669
17834072 8 18187085039866057054
18186145 218 17603307054880824019
19489759 90 17418093191705674395
200 152 18131069329109487531
20300324 65 18201438095437208217
20511986 3 18200014188427999651
20612939 158 18333734636688272564
20645477 70 18411985736807613518
21054139 6 17988351646067132206
21267235 1 18412273830223302155
21452121 103 18341886450947529824
231179 274 17167855370578939681
23402539 116 18341610399743886596
23402655 69 18411980231039042733
23557571 272 15123236476954309875
23559900 14 18410012173992409816
29717793 49 17918277527970993308
34797466 226 16558754567343224480
351380 180 18410011031124699608
3545911 37 18334860515579032515
4028521 119 18113892741934733549
4072396 5 18187634783364970098
4214541 1 18413389830668091589
474 4 18113621235060177957
5104073 3 18409171038431935043
59755656 520 17167580493220986339
633830 44 17748826349280384987
67856867 119 18272364317300255080
7495541 125 16200143335226958858
9709674 26 18341061739083888166
9971528 1 18187364346253827940
9981440 41 17474100385622016641

> <PUBCHEM_SHAPE_MULTIPOLES>
349.62
12.1
1.63
0.87
0.2
0.27
-0.03
0.38
2.07
-0.58
0.04
0.66
-0.07
-0.51

> <PUBCHEM_SHAPE_SELFOVERLAP>
738.314

> <PUBCHEM_SHAPE_VOLUME>
197.9

> <PUBCHEM_COORDINATE_TYPE>
2
5
10

$$$$
