11912192
  -OEChem-12032416123D

 57 62  0     1  0  0  0  0  0999 V2000
    4.6537   -0.2632   -1.5426 S   0  0  0  0  0  0  0  0  0  0  0  0
    0.7593    0.0189    1.1203 O   0  0  0  0  0  0  0  0  0  0  0  0
    1.8170   -2.9163    1.2990 O   0  0  0  0  0  0  0  0  0  0  0  0
    4.7119    0.5307   -2.7545 O   0  0  0  0  0  0  0  0  0  0  0  0
    5.1751   -1.6154   -1.5013 O   0  0  0  0  0  0  0  0  0  0  0  0
   -7.7593    1.9636    0.1284 O   0  0  0  0  0  0  0  0  0  0  0  0
   -6.2479    3.8032    0.5014 O   0  0  0  0  0  0  0  0  0  0  0  0
    3.0514   -0.2714   -0.9442 N   0  0  0  0  0  0  0  0  0  0  0  0
   -1.1561   -3.0170    0.4577 N   0  0  0  0  0  0  0  0  0  0  0  0
   -2.8923   -1.4774    0.1096 N   0  0  0  0  0  0  0  0  0  0  0  0
   -2.9711   -3.6750   -0.8760 N   0  0  0  0  0  0  0  0  0  0  0  0
    3.8348    3.3891   -1.5449 N   0  0  0  0  0  0  0  0  0  0  0  0
    1.7282   -1.9626    0.2274 C   0  0  1  0  0  0  0  0  0  0  0  0
    0.4363   -1.1914    0.4154 C   0  0  1  0  0  0  0  0  0  0  0  0
    2.8070   -0.9164    0.3690 C   0  0  2  0  0  0  0  0  0  0  0  0
   -0.4101   -2.0926    1.2833 C   0  0  2  0  0  0  0  0  0  0  0  0
    2.1792    0.0855    1.3183 C   0  0  0  0  0  0  0  0  0  0  0  0
    0.6287   -2.8387    2.1000 C   0  0  0  0  0  0  0  0  0  0  0  0
   -2.3761   -2.7141   -0.1203 C   0  0  0  0  0  0  0  0  0  0  0  0
    5.6614    0.6142   -0.3474 C   0  0  0  0  0  0  0  0  0  0  0  0
    5.5227    1.9716   -0.1833 C   0  0  0  0  0  0  0  0  0  0  0  0
    6.5594   -0.1381    0.3756 C   0  0  0  0  0  0  0  0  0  0  0  0
   -4.0828   -1.2159   -0.4688 C   0  0  0  0  0  0  0  0  0  0  0  0
   -4.1593   -3.3461   -1.4242 C   0  0  0  0  0  0  0  0  0  0  0  0
    6.3268    2.6156    0.7572 C   0  0  0  0  0  0  0  0  0  0  0  0
   -4.7691   -2.1201   -1.2535 C   0  0  0  0  0  0  0  0  0  0  0  0
    7.3633    0.5060    1.3160 C   0  0  0  0  0  0  0  0  0  0  0  0
   -4.6121    0.1023   -0.2129 C   0  0  0  0  0  0  0  0  0  0  0  0
    7.2471    1.8828    1.5067 C   0  0  0  0  0  0  0  0  0  0  0  0
    4.5900    2.7550   -0.9357 C   0  0  0  0  0  0  0  0  0  0  0  0
   -5.9960    0.3042   -0.1832 C   0  0  0  0  0  0  0  0  0  0  0  0
   -3.7318    1.1793    0.0052 C   0  0  0  0  0  0  0  0  0  0  0  0
   -6.4545    1.5818    0.0645 C   0  0  0  0  0  0  0  0  0  0  0  0
   -5.5915    2.6324    0.2774 C   0  0  0  0  0  0  0  0  0  0  0  0
   -4.2224    2.4633    0.2541 C   0  0  0  0  0  0  0  0  0  0  0  0
   -7.6208    3.3721    0.4062 C   0  0  0  0  0  0  0  0  0  0  0  0
    1.7617   -2.5205   -0.7139 H   0  0  0  0  0  0  0  0  0  0  0  0
   -0.0252   -0.8999   -0.5337 H   0  0  0  0  0  0  0  0  0  0  0  0
    3.7316   -1.3228    0.7885 H   0  0  0  0  0  0  0  0  0  0  0  0
   -1.0794   -1.5510    1.9616 H   0  0  0  0  0  0  0  0  0  0  0  0
    2.5171    1.1148    1.1653 H   0  0  0  0  0  0  0  0  0  0  0  0
    2.3749   -0.1887    2.3606 H   0  0  0  0  0  0  0  0  0  0  0  0
    0.3234   -3.8478    2.3936 H   0  0  0  0  0  0  0  0  0  0  0  0
    0.8866   -2.2810    3.0072 H   0  0  0  0  0  0  0  0  0  0  0  0
    2.3495    0.3870   -1.3022 H   0  0  0  0  0  0  0  0  0  0  0  0
   -0.7563   -3.9221    0.2371 H   0  0  0  0  0  0  0  0  0  0  0  0
    6.6762   -1.2097    0.2612 H   0  0  0  0  0  0  0  0  0  0  0  0
   -4.6200   -4.1195   -2.0294 H   0  0  0  0  0  0  0  0  0  0  0  0
    6.2494    3.6883    0.9190 H   0  0  0  0  0  0  0  0  0  0  0  0
   -5.7128   -1.9148   -1.7421 H   0  0  0  0  0  0  0  0  0  0  0  0
    8.0790   -0.0642    1.9011 H   0  0  0  0  0  0  0  0  0  0  0  0
    7.8729    2.3841    2.2392 H   0  0  0  0  0  0  0  0  0  0  0  0
   -6.7148   -0.4962   -0.3223 H   0  0  0  0  0  0  0  0  0  0  0  0
   -2.6525    1.0442   -0.0250 H   0  0  0  0  0  0  0  0  0  0  0  0
   -3.5462    3.2943    0.4197 H   0  0  0  0  0  0  0  0  0  0  0  0
   -8.1249    3.5941    1.3538 H   0  0  0  0  0  0  0  0  0  0  0  0
   -8.1115    3.9374   -0.3944 H   0  0  0  0  0  0  0  0  0  0  0  0
  1  4  2  0  0  0  0
  1  5  2  0  0  0  0
  1  8  1  0  0  0  0
  1 20  1  0  0  0  0
  2 14  1  0  0  0  0
  2 17  1  0  0  0  0
  3 13  1  0  0  0  0
  3 18  1  0  0  0  0
  6 33  1  0  0  0  0
  6 36  1  0  0  0  0
  7 34  1  0  0  0  0
  7 36  1  0  0  0  0
  8 15  1  0  0  0  0
  8 45  1  0  0  0  0
  9 16  1  0  0  0  0
  9 19  1  0  0  0  0
  9 46  1  0  0  0  0
 10 19  1  0  0  0  0
 10 23  2  0  0  0  0
 11 19  2  0  0  0  0
 11 24  1  0  0  0  0
 12 30  3  0  0  0  0
 13 14  1  0  0  0  0
 13 15  1  0  0  0  0
 13 37  1  0  0  0  0
 14 16  1  0  0  0  0
 14 38  1  0  0  0  0
 15 17  1  0  0  0  0
 15 39  1  0  0  0  0
 16 18  1  0  0  0  0
 16 40  1  0  0  0  0
 17 41  1  0  0  0  0
 17 42  1  0  0  0  0
 18 43  1  0  0  0  0
 18 44  1  0  0  0  0
 20 21  1  0  0  0  0
 20 22  2  0  0  0  0
 21 25  2  0  0  0  0
 21 30  1  0  0  0  0
 22 27  1  0  0  0  0
 22 47  1  0  0  0  0
 23 26  1  0  0  0  0
 23 28  1  0  0  0  0
 24 26  2  0  0  0  0
 24 48  1  0  0  0  0
 25 29  1  0  0  0  0
 25 49  1  0  0  0  0
 26 50  1  0  0  0  0
 27 29  2  0  0  0  0
 27 51  1  0  0  0  0
 28 31  2  0  0  0  0
 28 32  1  0  0  0  0
 29 52  1  0  0  0  0
 31 33  1  0  0  0  0
 31 53  1  0  0  0  0
 32 35  2  0  0  0  0
 32 54  1  0  0  0  0
 33 34  2  0  0  0  0
 34 35  1  0  0  0  0
 35 55  1  0  0  0  0
 36 56  1  0  0  0  0
 36 57  1  0  0  0  0
M  END
> <PUBCHEM_COMPOUND_CID>
11912192

> <PUBCHEM_CONFORMER_RMSD>
1.4

> <PUBCHEM_CONFORMER_DIVERSEORDER>
1
102
133
210
51
27
176
75
115
122
127
147
103
139
85
5
149
73
154
235
118
183
172
156
125
187
119
179
76
181
185
212
148
95
157
234
88
190
49
135
136
155
67
100
71
153
239
232
178
70
237
14
195
90
55
36
104
201
62
61
74
222
160
236
167
83
129
211
152
60
117
54
50
132
59
80
33
204
203
112
173
31
177
214
137
93
142
40
106
150
189
126
182
121
161
134
171
113
89
213
68
146
220
170
186
56
72
208
188
25
123
9
180
98
39
174
37
24
66
238
202
15
197
10
58
20
46
92
217
226
194
159
230
57
199
86
151
168
81
192
231
63
114
225
110
44
23
29
52
219
77
175
120
198
116
162
140
3
158
196
99
166
229
16
227
128
17
205
164
34
82
64
218
47
21
96
38
209
228
215
206
145
109
191
84
101
131
124
163
32
79
28
169
207
108
91
35
193
165
233
143
48
11
45
42
107
221
69
8
184
26
111
224
87
78
130
200
144
223
65
2
4
7
19
97
94
41
30
216
13
138
22
141
6
43
18
12
105
53

> <PUBCHEM_MMFF94_PARTIAL_CHARGES>
46
1 1.45
10 -0.62
11 -0.62
12 -0.56
13 0.28
14 0.28
15 0.36
16 0.37
17 0.28
18 0.28
19 0.72
2 -0.56
20 -0.01
21 0.07
22 -0.15
23 0.31
24 0.16
25 -0.15
26 -0.15
27 -0.15
29 -0.15
3 -0.56
30 0.48
31 -0.15
32 -0.15
33 0.08
34 0.08
35 -0.15
36 0.56
4 -0.65
45 0.42
46 0.4
47 0.15
48 0.15
49 0.15
5 -0.65
50 0.15
51 0.15
52 0.15
53 0.15
54 0.15
55 0.15
6 -0.36
7 -0.36
8 -0.91
9 -0.87

> <PUBCHEM_EFFECTIVE_ROTOR_COUNT>
7.8

> <PUBCHEM_PHARMACOPHORE_FEATURES>
17
1 10 acceptor
1 12 acceptor
1 2 acceptor
1 3 acceptor
1 4 acceptor
1 5 acceptor
1 6 acceptor
1 7 acceptor
1 8 donor
1 9 donor
4 9 10 11 19 cation
5 2 13 14 15 17 rings
5 3 13 14 16 18 rings
5 6 7 33 34 36 rings
6 10 11 19 23 24 26 rings
6 20 21 22 25 27 29 rings
6 28 31 32 33 34 35 rings

> <PUBCHEM_HEAVY_ATOM_COUNT>
36

> <PUBCHEM_ATOM_DEF_STEREO_COUNT>
4

> <PUBCHEM_ATOM_UDEF_STEREO_COUNT>
0

> <PUBCHEM_BOND_DEF_STEREO_COUNT>
0

> <PUBCHEM_BOND_UDEF_STEREO_COUNT>
0

> <PUBCHEM_ISOTOPIC_ATOM_COUNT>
0

> <PUBCHEM_COMPONENT_COUNT>
1

> <PUBCHEM_CACTVS_TAUTO_COUNT>
3

> <PUBCHEM_CONFORMER_ID>
00B5C40000000001

> <PUBCHEM_MMFF94_ENERGY>
94.4572

> <PUBCHEM_FEATURE_SELFOVERLAP>
87.154

> <PUBCHEM_SHAPE_FINGERPRINT>
10439779 11 18045786942810999860
10864689 126 18266465295520110732
11007060 377 18413395341401361139
11181472 205 18260267478557322980
11475781 23 18273218599543918844
12061779 8 17460063818302249484
12895836 83 18341894061629350587
12895837 130 18410576219093620849
13540713 5 18264749022789884723
1361 4 9078853891460026328
14394314 77 18338237068839600841
14840074 17 17749117660481368501
14950920 106 11170453773839895822
15183329 4 18337110193705312326
15419008 42 17846225444856310454
16126227 98 18342740698567873481
16708801 149 18043819903397030052
16992727 255 18342738515885918769
18608769 82 18338520863066672051
19302320 297 18041005046150498740
19304144 158 17916583279870315982
19438510 23 18259987054850640035
20691028 202 18408606929354560965
20715895 44 18409168835926153192
21223535 225 18342167890989313661
21424621 283 18335139812754435146
21774942 28 18413103983609774448
23569914 152 17627812820387052902
2838139 119 18336264638787532786
3552219 110 17896883360717623575
38570 142 18115320968489415415
3918712 181 18197775510673944185
4173938 306 17060044991949672610
44249763 50 17988634255088644994
44802255 64 17489307554856986766
44880568 143 18272655700982574516
4516262 110 18114454587897144911
4756326 101 17417513823105157184
50677037 204 18335136497108300181
5265222 85 18272931597260854665
5283173 99 18341613776057848698
563151 74 17168145594425314371
6058803 2 18192125184690760987
99344 41 18412539925718308346

> <PUBCHEM_SHAPE_MULTIPOLES>
684.59
22.8
4.88
1.6
1.11
0.35
0.36
22.77
0.07
6.59
-0.1
-2.45
-0.5
-2.06

> <PUBCHEM_SHAPE_SELFOVERLAP>
1510.844

> <PUBCHEM_SHAPE_VOLUME>
370.3

> <PUBCHEM_COORDINATE_TYPE>
2
5
10

$$$$
