45783791
  -OEChem-12032416273D

 43 46  0     1  0  0  0  0  0999 V2000
   -0.8666   -2.0718    1.3899 O   0  0  0  0  0  0  0  0  0  0  0  0
   -3.3529    0.0456   -0.2952 N   0  0  1  0  0  0  0  0  0  0  0  0
   -0.4241   -0.5148   -0.1582 N   0  0  0  0  0  0  0  0  0  0  0  0
    0.5211   -1.8827    1.4132 N   0  0  0  0  0  0  0  0  0  0  0  0
    4.3874   -0.4415    0.5260 N   0  0  0  0  0  0  0  0  0  0  0  0
    5.7851    1.0002   -0.7558 N   0  0  0  0  0  0  0  0  0  0  0  0
   -3.6473    2.4059    0.2362 C   0  0  0  0  0  0  0  0  0  0  0  0
   -3.2287    3.5275    1.1410 C   0  0  0  0  0  0  0  0  0  0  0  0
   -2.3390    3.1047    0.0089 C   0  0  0  0  0  0  0  0  0  0  0  0
   -3.6465    1.0065    0.7603 C   0  0  0  0  0  0  0  0  0  0  0  0
   -2.8431   -1.2426    0.2157 C   0  0  1  0  0  0  0  0  0  0  0  0
   -4.5346   -0.2671   -1.0991 C   0  0  0  0  0  0  0  0  0  0  0  0
   -3.2789   -2.2802   -0.8353 C   0  0  0  0  0  0  0  0  0  0  0  0
   -4.0779   -1.4929   -1.8641 C   0  0  0  0  0  0  0  0  0  0  0  0
   -1.3452   -1.2290    0.4376 C   0  0  0  0  0  0  0  0  0  0  0  0
    0.7043   -0.9504    0.4735 C   0  0  0  0  0  0  0  0  0  0  0  0
    2.0007   -0.4344    0.1409 C   0  0  0  0  0  0  0  0  0  0  0  0
    2.1551    0.5349   -0.8440 C   0  0  0  0  0  0  0  0  0  0  0  0
    3.1382   -0.8856    0.7908 C   0  0  0  0  0  0  0  0  0  0  0  0
    3.4245    1.0165   -1.1447 C   0  0  0  0  0  0  0  0  0  0  0  0
    4.4983    0.5004   -0.4373 C   0  0  0  0  0  0  0  0  0  0  0  0
    6.9701    0.5508   -0.1003 C   0  0  0  0  0  0  0  0  0  0  0  0
   -4.4607    2.6053   -0.4508 H   0  0  0  0  0  0  0  0  0  0  0  0
   -3.7493    4.4727    1.0461 H   0  0  0  0  0  0  0  0  0  0  0  0
   -2.9067    3.2953    2.1486 H   0  0  0  0  0  0  0  0  0  0  0  0
   -1.4200    2.5879    0.2573 H   0  0  0  0  0  0  0  0  0  0  0  0
   -2.2629    3.7643   -0.8469 H   0  0  0  0  0  0  0  0  0  0  0  0
   -2.8816    0.9324    1.5451 H   0  0  0  0  0  0  0  0  0  0  0  0
   -4.6019    0.7911    1.2556 H   0  0  0  0  0  0  0  0  0  0  0  0
   -3.3350   -1.4979    1.1651 H   0  0  0  0  0  0  0  0  0  0  0  0
   -4.8051    0.5462   -1.7793 H   0  0  0  0  0  0  0  0  0  0  0  0
   -5.4039   -0.5159   -0.4772 H   0  0  0  0  0  0  0  0  0  0  0  0
   -3.9254   -3.0313   -0.3652 H   0  0  0  0  0  0  0  0  0  0  0  0
   -2.4439   -2.8062   -1.3108 H   0  0  0  0  0  0  0  0  0  0  0  0
   -3.4275   -1.2029   -2.6987 H   0  0  0  0  0  0  0  0  0  0  0  0
   -4.9138   -2.0708   -2.2692 H   0  0  0  0  0  0  0  0  0  0  0  0
    1.3051    0.9328   -1.3924 H   0  0  0  0  0  0  0  0  0  0  0  0
    3.1040   -1.6400    1.5712 H   0  0  0  0  0  0  0  0  0  0  0  0
    3.5516    1.7724   -1.9129 H   0  0  0  0  0  0  0  0  0  0  0  0
    5.8274    1.8530   -1.3033 H   0  0  0  0  0  0  0  0  0  0  0  0
    7.1218   -0.5235   -0.2477 H   0  0  0  0  0  0  0  0  0  0  0  0
    7.8427    1.0681   -0.5112 H   0  0  0  0  0  0  0  0  0  0  0  0
    6.9334    0.7603    0.9737 H   0  0  0  0  0  0  0  0  0  0  0  0
  1  4  1  0  0  0  0
  1 15  1  0  0  0  0
  2 10  1  0  0  0  0
  2 11  1  0  0  0  0
  2 12  1  0  0  0  0
  3 15  2  0  0  0  0
  3 16  1  0  0  0  0
  4 16  2  0  0  0  0
  5 19  1  0  0  0  0
  5 21  2  0  0  0  0
  6 21  1  0  0  0  0
  6 22  1  0  0  0  0
  6 40  1  0  0  0  0
  7  8  1  0  0  0  0
  7  9  1  0  0  0  0
  7 10  1  0  0  0  0
  7 23  1  0  0  0  0
  8  9  1  0  0  0  0
  8 24  1  0  0  0  0
  8 25  1  0  0  0  0
  9 26  1  0  0  0  0
  9 27  1  0  0  0  0
 10 28  1  0  0  0  0
 10 29  1  0  0  0  0
 11 13  1  0  0  0  0
 11 15  1  0  0  0  0
 11 30  1  0  0  0  0
 12 14  1  0  0  0  0
 12 31  1  0  0  0  0
 12 32  1  0  0  0  0
 13 14  1  0  0  0  0
 13 33  1  0  0  0  0
 13 34  1  0  0  0  0
 14 35  1  0  0  0  0
 14 36  1  0  0  0  0
 16 17  1  0  0  0  0
 17 18  1  0  0  0  0
 17 19  2  0  0  0  0
 18 20  2  0  0  0  0
 18 37  1  0  0  0  0
 19 38  1  0  0  0  0
 20 21  1  0  0  0  0
 20 39  1  0  0  0  0
 22 41  1  0  0  0  0
 22 42  1  0  0  0  0
 22 43  1  0  0  0  0
M  END
> <PUBCHEM_COMPOUND_CID>
45783791

> <PUBCHEM_CONFORMER_RMSD>
0.8

> <PUBCHEM_CONFORMER_DIVERSEORDER>
1
29
33
37
9
2
4
28
15
30
23
34
31
26
22
21
20
10
18
13
27
8
25
7
38
24
16
11
36
12
5
19
14
3
32
17
6
35

> <PUBCHEM_MMFF94_PARTIAL_CHARGES>
29
1 -0.02
10 0.37
11 0.45
12 0.27
15 0.3
16 0.46
17 0.05
18 -0.15
19 0.16
2 -0.81
20 -0.15
21 0.41
22 0.37
23 0.1
24 0.1
25 0.1
26 0.1
27 0.1
3 -0.57
37 0.15
38 0.15
39 0.15
4 -0.41
40 0.4
5 -0.62
6 -0.87
7 -0.19
8 -0.2
9 -0.2

> <PUBCHEM_EFFECTIVE_ROTOR_COUNT>
6.6

> <PUBCHEM_PHARMACOPHORE_FEATURES>
7
1 2 cation
1 6 donor
3 3 4 16 cation
3 5 6 21 cation
5 1 3 4 15 16 rings
5 2 11 12 13 14 rings
6 5 17 18 19 20 21 rings

> <PUBCHEM_HEAVY_ATOM_COUNT>
22

> <PUBCHEM_ATOM_DEF_STEREO_COUNT>
1

> <PUBCHEM_ATOM_UDEF_STEREO_COUNT>
0

> <PUBCHEM_BOND_DEF_STEREO_COUNT>
0

> <PUBCHEM_BOND_UDEF_STEREO_COUNT>
0

> <PUBCHEM_ISOTOPIC_ATOM_COUNT>
0

> <PUBCHEM_COMPONENT_COUNT>
1

> <PUBCHEM_CACTVS_TAUTO_COUNT>
8

> <PUBCHEM_CONFORMER_ID>
02BA9AEF00000001

> <PUBCHEM_MMFF94_ENERGY>
51.342

> <PUBCHEM_FEATURE_SELFOVERLAP>
35.522

> <PUBCHEM_SHAPE_FINGERPRINT>
10087517 78 18410572903384851164
10291535 26 18336553805886757273
10670039 82 18409728456842329856
10871710 139 18409727319045430525
10937287 8 17767690451884380089
11049842 53 17698994090419793331
11089746 13 18410008884358515268
12107183 9 17905040353287680522
12166972 35 17604991597126163445
12788726 201 18270949169200752247
14251764 38 18270116941493347536
14251764 75 17766288578722408801
14739800 52 18267002003914125688
15064981 113 18058154047482989118
15183329 4 18040432179897786518
15348495 7 11963391869130753422
15420108 30 16683448712908711096
16988056 13 15891943217050200181
17818456 19 17910946951073942458
1813 80 12750968787551421354
19489759 90 18272089422339697798
20300324 65 18341891918018481831
20775438 99 16614447262854246087
21033648 29 16153973746680687894
21033650 10 18198649695036110388
21236236 1 18411139125971151972
21756936 100 18336274482994740491
21864079 5 18189903019733387457
23402539 116 18409728495486207006
235170 7 17275108340121970004
23557571 272 17775005682583324073
23559900 14 18189332541224587416
25147074 1 18261944146982948642
3268164 11 17988920081014900277
397830 11 11819570289630834636
441001 317 18411420622385632856
474 4 17967813812679338059
5104073 3 17241610701355616592
5283173 99 18273496767385704040
531348 171 18202287961716852030
6299153 45 18116145576946131906
6327066 14 18194962946781369413
6328613 192 17895484743234976684
633830 44 18188495657466230306
7288768 16 17676781864068194649
7808743 9 18341896225670765569

> <PUBCHEM_SHAPE_MULTIPOLES>
421.98
12.74
3.04
1.28
18.75
2.57
-0.11
3.8
-3.29
-5.2
0.65
-0.57
-0.4
-2.14

> <PUBCHEM_SHAPE_SELFOVERLAP>
900.17

> <PUBCHEM_SHAPE_VOLUME>
237.3

> <PUBCHEM_COORDINATE_TYPE>
2
5
10

$$$$
