75536255
  -OEChem-12032416303D

 57 60  0     1  0  0  0  0  0999 V2000
   -6.8010   -0.1304    1.1380 F   0  0  0  0  0  0  0  0  0  0  0  0
    2.6881   -1.0632    0.8741 O   0  0  0  0  0  0  0  0  0  0  0  0
    5.4845   -1.2187    1.7932 O   0  0  0  0  0  0  0  0  0  0  0  0
   -1.4264   -1.6224   -1.7312 O   0  0  0  0  0  0  0  0  0  0  0  0
    1.6332    1.5837    0.8701 N   0  0  0  0  0  0  0  0  0  0  0  0
   -0.1149   -2.0194   -1.9626 N   0  0  0  0  0  0  0  0  0  0  0  0
    1.1507    2.8156    0.2489 C   0  0  0  0  0  0  0  0  0  0  0  0
    3.5296    0.0548    1.1858 C   0  0  1  0  0  0  0  0  0  0  0  0
    4.9993   -0.2456    0.8643 C   0  0  2  0  0  0  0  0  0  0  0  0
    0.7909    2.5531   -1.2176 C   0  0  0  0  0  0  0  0  0  0  0  0
   -0.0557    3.3532    1.0264 C   0  0  0  0  0  0  0  0  0  0  0  0
    3.0211    1.3298    0.5161 C   0  0  0  0  0  0  0  0  0  0  0  0
    2.7794   -1.5364   -0.4719 C   0  0  1  0  0  0  0  0  0  0  0  0
    5.1828   -0.8117   -0.5412 C   0  0  0  0  0  0  0  0  0  0  0  0
    4.2107   -1.9595   -0.7985 C   0  0  0  0  0  0  0  0  0  0  0  0
    0.2098    3.8011   -1.8801 C   0  0  0  0  0  0  0  0  0  0  0  0
   -0.6352    4.6005    0.3613 C   0  0  0  0  0  0  0  0  0  0  0  0
   -0.9846    4.3468   -1.1024 C   0  0  0  0  0  0  0  0  0  0  0  0
    1.8209   -2.7130   -0.6100 C   0  0  0  0  0  0  0  0  0  0  0  0
    0.3936   -2.2561   -0.7500 C   0  0  0  0  0  0  0  0  0  0  0  0
   -0.5411   -2.0277    0.2746 C   0  0  0  0  0  0  0  0  0  0  0  0
   -1.6682   -1.6313   -0.3953 C   0  0  0  0  0  0  0  0  0  0  0  0
   -2.9909   -1.2434    0.0002 C   0  0  0  0  0  0  0  0  0  0  0  0
   -3.3375   -1.2234    1.3513 C   0  0  0  0  0  0  0  0  0  0  0  0
   -3.9314   -0.8870   -0.9664 C   0  0  0  0  0  0  0  0  0  0  0  0
   -4.6244   -0.8474    1.7357 C   0  0  0  0  0  0  0  0  0  0  0  0
   -5.2184   -0.5110   -0.5819 C   0  0  0  0  0  0  0  0  0  0  0  0
   -5.5649   -0.4912    0.7690 C   0  0  0  0  0  0  0  0  0  0  0  0
    1.9296    3.5896    0.2953 H   0  0  0  0  0  0  0  0  0  0  0  0
    3.4444    0.1812    2.2732 H   0  0  0  0  0  0  0  0  0  0  0  0
    5.6106    0.6540    0.9967 H   0  0  0  0  0  0  0  0  0  0  0  0
    0.0581    1.7377   -1.2856 H   0  0  0  0  0  0  0  0  0  0  0  0
    1.6668    2.2393   -1.7956 H   0  0  0  0  0  0  0  0  0  0  0  0
   -0.8380    2.5848    1.0888 H   0  0  0  0  0  0  0  0  0  0  0  0
    0.2329    3.5972    2.0563 H   0  0  0  0  0  0  0  0  0  0  0  0
    3.1320    1.2493   -0.5681 H   0  0  0  0  0  0  0  0  0  0  0  0
    3.6509    2.1677    0.8415 H   0  0  0  0  0  0  0  0  0  0  0  0
    2.4734   -0.7398   -1.1606 H   0  0  0  0  0  0  0  0  0  0  0  0
    6.2075   -1.1765   -0.6786 H   0  0  0  0  0  0  0  0  0  0  0  0
    5.0168   -0.0229   -1.2842 H   0  0  0  0  0  0  0  0  0  0  0  0
    4.2884   -2.2841   -1.8424 H   0  0  0  0  0  0  0  0  0  0  0  0
    4.4972   -2.8120   -0.1697 H   0  0  0  0  0  0  0  0  0  0  0  0
   -0.0960    3.5651   -2.9056 H   0  0  0  0  0  0  0  0  0  0  0  0
    0.9858    4.5735   -1.9474 H   0  0  0  0  0  0  0  0  0  0  0  0
    0.0910    5.4201    0.4268 H   0  0  0  0  0  0  0  0  0  0  0  0
   -1.5312    4.9239    0.9030 H   0  0  0  0  0  0  0  0  0  0  0  0
    1.5615    1.6579    1.8849 H   0  0  0  0  0  0  0  0  0  0  0  0
   -1.3322    5.2772   -1.5654 H   0  0  0  0  0  0  0  0  0  0  0  0
   -1.8142    3.6314   -1.1601 H   0  0  0  0  0  0  0  0  0  0  0  0
    1.8957   -3.3762    0.2613 H   0  0  0  0  0  0  0  0  0  0  0  0
    2.0758   -3.3114   -1.4942 H   0  0  0  0  0  0  0  0  0  0  0  0
    6.4278   -1.3605    1.6043 H   0  0  0  0  0  0  0  0  0  0  0  0
   -0.4038   -2.1378    1.3404 H   0  0  0  0  0  0  0  0  0  0  0  0
   -2.6267   -1.4955    2.1273 H   0  0  0  0  0  0  0  0  0  0  0  0
   -3.6998   -0.8897   -2.0284 H   0  0  0  0  0  0  0  0  0  0  0  0
   -4.8950   -0.8317    2.7873 H   0  0  0  0  0  0  0  0  0  0  0  0
   -5.9513   -0.2335   -1.3338 H   0  0  0  0  0  0  0  0  0  0  0  0
  1 28  1  0  0  0  0
  2  8  1  0  0  0  0
  2 13  1  0  0  0  0
  3  9  1  0  0  0  0
  3 52  1  0  0  0  0
  4  6  1  0  0  0  0
  4 22  1  0  0  0  0
  5  7  1  0  0  0  0
  5 12  1  0  0  0  0
  5 47  1  0  0  0  0
  6 20  2  0  0  0  0
  7 10  1  0  0  0  0
  7 11  1  0  0  0  0
  7 29  1  0  0  0  0
  8  9  1  0  0  0  0
  8 12  1  0  0  0  0
  8 30  1  0  0  0  0
  9 14  1  0  0  0  0
  9 31  1  0  0  0  0
 10 16  1  0  0  0  0
 10 32  1  0  0  0  0
 10 33  1  0  0  0  0
 11 17  1  0  0  0  0
 11 34  1  0  0  0  0
 11 35  1  0  0  0  0
 12 36  1  0  0  0  0
 12 37  1  0  0  0  0
 13 15  1  0  0  0  0
 13 19  1  0  0  0  0
 13 38  1  0  0  0  0
 14 15  1  0  0  0  0
 14 39  1  0  0  0  0
 14 40  1  0  0  0  0
 15 41  1  0  0  0  0
 15 42  1  0  0  0  0
 16 18  1  0  0  0  0
 16 43  1  0  0  0  0
 16 44  1  0  0  0  0
 17 18  1  0  0  0  0
 17 45  1  0  0  0  0
 17 46  1  0  0  0  0
 18 48  1  0  0  0  0
 18 49  1  0  0  0  0
 19 20  1  0  0  0  0
 19 50  1  0  0  0  0
 19 51  1  0  0  0  0
 20 21  1  0  0  0  0
 21 22  2  0  0  0  0
 21 53  1  0  0  0  0
 22 23  1  0  0  0  0
 23 24  2  0  0  0  0
 23 25  1  0  0  0  0
 24 26  1  0  0  0  0
 24 54  1  0  0  0  0
 25 27  2  0  0  0  0
 25 55  1  0  0  0  0
 26 28  2  0  0  0  0
 26 56  1  0  0  0  0
 27 28  1  0  0  0  0
 27 57  1  0  0  0  0
M  END
> <PUBCHEM_COMPOUND_CID>
75536255

> <PUBCHEM_CONFORMER_RMSD>
1

> <PUBCHEM_CONFORMER_DIVERSEORDER>
1
75
113
52
45
62
71
40
69
87
30
119
44
12
88
42
109
65
126
112
127
66
80
116
20
70
105
99
46
100
125
90
115
64
85
102
101
10
13
7
84
50
31
128
93
34
48
36
104
117
108
38
122
55
60
76
26
61
72
123
67
96
97
106
33
47
86
2
83
41
68
58
121
118
63
110
73
8
120
37
25
29
35
4
98
49
81
92
77
21
32
6
91
114
59
129
53
89
107
5
18
39
15
16
27
54
19
43
22
74
94
111
14
103
17
57
95
56
82
124
28
51
24
11
78
23
3
79
9

> <PUBCHEM_MMFF94_PARTIAL_CHARGES>
28
1 -0.19
12 0.27
13 0.28
19 0.18
2 -0.56
20 0.11
21 -0.15
22 0.09
23 0.05
24 -0.15
25 -0.15
26 -0.15
27 -0.15
28 0.19
3 -0.68
4 -0.02
47 0.36
5 -0.9
52 0.4
53 0.15
54 0.15
55 0.15
56 0.15
57 0.15
6 -0.41
7 0.27
8 0.28
9 0.28

> <PUBCHEM_EFFECTIVE_ROTOR_COUNT>
8.4

> <PUBCHEM_PHARMACOPHORE_FEATURES>
10
1 2 acceptor
1 3 acceptor
1 3 donor
1 5 cation
1 5 donor
1 6 acceptor
5 4 6 20 21 22 rings
6 2 8 9 13 14 15 rings
6 23 24 25 26 27 28 rings
6 7 10 11 16 17 18 rings

> <PUBCHEM_HEAVY_ATOM_COUNT>
28

> <PUBCHEM_ATOM_DEF_STEREO_COUNT>
3

> <PUBCHEM_ATOM_UDEF_STEREO_COUNT>
0

> <PUBCHEM_BOND_DEF_STEREO_COUNT>
0

> <PUBCHEM_BOND_UDEF_STEREO_COUNT>
0

> <PUBCHEM_ISOTOPIC_ATOM_COUNT>
0

> <PUBCHEM_COMPONENT_COUNT>
1

> <PUBCHEM_CACTVS_TAUTO_COUNT>
1

> <PUBCHEM_CONFORMER_ID>
0480977F00000001

> <PUBCHEM_MMFF94_ENERGY>
38.1732

> <PUBCHEM_FEATURE_SELFOVERLAP>
50.748

> <PUBCHEM_SHAPE_FINGERPRINT>
10006869 2 18049994498974328007
10439779 11 17695048286874194976
10670039 82 18267040379515220638
10688039 33 18334296427079391628
11421498 54 17895751799357595826
12156800 1 17909866182509568100
12166972 35 18200875196865333939
12293681 4 18261115171039877970
12422481 6 18200044919145843361
12633257 1 18261672670384550603
12788726 201 18334296440465395122
13075007 39 18115884055886649763
13402501 40 18338508643435938501
13965767 371 17986083392739722562
14363568 33 18191597555772233261
14790565 3 17545316845012617608
14840074 17 18342460386973340312
14955137 171 18339371854247210671
150020 26 18192717967312057097
151778 21 17901959865451903861
15210252 30 18189907585663827892
15276724 80 18413670223940875868
15420108 30 17627212796433842824
15475509 84 17901379005005044459
18785283 64 18118978116098688075
20739085 24 18338237188570378528
21285901 2 18202290160961452302
21304253 335 17632301189374575619
21360442 67 17253145329618928669
21641784 216 18189920650890844228
21860390 5 18339086002851546639
23845131 108 17329145771915671813
3052486 1 18263932046878709404
469060 322 18115037281419554360
474 4 18272932760538303987
513202 73 18192719938628355330
5283268 108 18410293592944329502
550186 83 18115006576608834480
6086070 43 17971163007108584951
653340 110 18127411150955854072

> <PUBCHEM_SHAPE_MULTIPOLES>
541.38
11.39
5.23
1.67
7.03
8.7
0.12
-7.55
-4.81
-0.68
1.7
0.2
0.1
0.43

> <PUBCHEM_SHAPE_SELFOVERLAP>
1145.223

> <PUBCHEM_SHAPE_VOLUME>
303.5

> <PUBCHEM_COORDINATE_TYPE>
2
5
10

$$$$
