7165012
  -OEChem-12032416133D

 68 71  0     1  0  0  0  0  0999 V2000
   -0.9194    4.7867    0.7267 S   0  0  0  0  0  0  0  0  0  0  0  0
   -1.5439   -1.8231    0.7913 O   0  0  0  0  0  0  0  0  0  0  0  0
    0.1278    0.3683   -1.7274 O   0  0  0  0  0  0  0  0  0  0  0  0
   -1.5330    5.6140   -0.2885 O   0  0  0  0  0  0  0  0  0  0  0  0
    0.4501    4.9863    1.1463 O   0  0  0  0  0  0  0  0  0  0  0  0
    3.5358    3.0738   -0.2612 O   0  0  0  0  0  0  0  0  0  0  0  0
   -1.7731    0.3683    0.0419 N   0  0  0  0  0  0  0  0  0  0  0  0
   -1.1289    3.1420    0.2968 N   0  0  1  0  0  0  0  0  0  0  0  0
    1.8054    0.9386   -0.2176 N   0  0  0  0  0  0  0  0  0  0  0  0
    2.9323   -3.6034   -1.0536 N   0  0  0  0  0  0  0  0  0  0  0  0
    4.0175    2.5931   -2.4551 N   0  0  0  0  0  0  0  0  0  0  0  0
   -3.4306   -1.3613   -0.5526 C   0  0  0  0  0  0  0  0  0  0  0  0
   -0.4572    0.7670    0.5549 C   0  0  2  0  0  0  0  0  0  0  0  0
   -4.6330   -1.1373    0.3671 C   0  0  0  0  0  0  0  0  0  0  0  0
   -3.3410   -2.8182   -1.0124 C   0  0  0  0  0  0  0  0  0  0  0  0
   -2.1668   -0.9697    0.1538 C   0  0  0  0  0  0  0  0  0  0  0  0
   -5.9327   -1.6112   -0.2780 C   0  0  0  0  0  0  0  0  0  0  0  0
   -4.6437   -3.2880   -1.6545 C   0  0  0  0  0  0  0  0  0  0  0  0
   -0.4504    2.1558    1.1884 C   0  0  0  0  0  0  0  0  0  0  0  0
   -2.5136    1.3878   -0.7173 C   0  0  0  0  0  0  0  0  0  0  0  0
   -5.8385   -3.0647   -0.7322 C   0  0  0  0  0  0  0  0  0  0  0  0
   -2.5289    2.7300    0.0017 C   0  0  0  0  0  0  0  0  0  0  0  0
    0.5012    0.6716   -0.5973 C   0  0  0  0  0  0  0  0  0  0  0  0
    2.9212    0.8910   -1.1346 C   0  0  2  0  0  0  0  0  0  0  0  0
   -1.9490    4.8352    2.1706 C   0  0  0  0  0  0  0  0  0  0  0  0
    3.9989   -0.1048   -0.6872 C   0  0  0  0  0  0  0  0  0  0  0  0
    3.4860   -1.5110   -0.5616 C   0  0  0  0  0  0  0  0  0  0  0  0
    3.4963    2.2976   -1.2130 C   0  0  0  0  0  0  0  0  0  0  0  0
    2.9243   -2.1077    0.6017 C   0  0  0  0  0  0  0  0  0  0  0  0
    3.4775   -2.4552   -1.5622 C   0  0  0  0  0  0  0  0  0  0  0  0
    2.5853   -3.4203    0.2660 C   0  0  0  0  0  0  0  0  0  0  0  0
    2.6707   -1.6558    1.9120 C   0  0  0  0  0  0  0  0  0  0  0  0
    2.0033   -4.3070    1.1788 C   0  0  0  0  0  0  0  0  0  0  0  0
    2.0889   -2.5317    2.8357 C   0  0  0  0  0  0  0  0  0  0  0  0
    1.7611   -3.8365    2.4726 C   0  0  0  0  0  0  0  0  0  0  0  0
   -3.5497   -0.7828   -1.4741 H   0  0  0  0  0  0  0  0  0  0  0  0
   -0.1263    0.0391    1.3059 H   0  0  0  0  0  0  0  0  0  0  0  0
   -4.7283   -0.0805    0.6405 H   0  0  0  0  0  0  0  0  0  0  0  0
   -4.4829   -1.6789    1.3107 H   0  0  0  0  0  0  0  0  0  0  0  0
   -2.5157   -2.9391   -1.7251 H   0  0  0  0  0  0  0  0  0  0  0  0
   -3.1171   -3.4790   -0.1646 H   0  0  0  0  0  0  0  0  0  0  0  0
   -6.7588   -1.5008    0.4334 H   0  0  0  0  0  0  0  0  0  0  0  0
   -6.1653   -0.9732   -1.1395 H   0  0  0  0  0  0  0  0  0  0  0  0
   -4.8026   -2.7468   -2.5953 H   0  0  0  0  0  0  0  0  0  0  0  0
   -4.5674   -4.3514   -1.9077 H   0  0  0  0  0  0  0  0  0  0  0  0
   -0.9984    2.1017    2.1367 H   0  0  0  0  0  0  0  0  0  0  0  0
    0.5645    2.4900    1.4171 H   0  0  0  0  0  0  0  0  0  0  0  0
   -3.5522    1.1042   -0.8862 H   0  0  0  0  0  0  0  0  0  0  0  0
   -2.0464    1.4873   -1.7026 H   0  0  0  0  0  0  0  0  0  0  0  0
   -6.7616   -3.3503   -1.2488 H   0  0  0  0  0  0  0  0  0  0  0  0
   -5.7485   -3.7163    0.1457 H   0  0  0  0  0  0  0  0  0  0  0  0
   -3.0996    2.6344    0.9319 H   0  0  0  0  0  0  0  0  0  0  0  0
   -3.0192    3.4699   -0.6387 H   0  0  0  0  0  0  0  0  0  0  0  0
    2.0115    1.1636    0.7507 H   0  0  0  0  0  0  0  0  0  0  0  0
    2.5490    0.6025   -2.1254 H   0  0  0  0  0  0  0  0  0  0  0  0
   -1.5976    4.1185    2.9126 H   0  0  0  0  0  0  0  0  0  0  0  0
   -2.9905    4.6611    1.9000 H   0  0  0  0  0  0  0  0  0  0  0  0
   -1.8643    5.8412    2.5912 H   0  0  0  0  0  0  0  0  0  0  0  0
    4.4251    0.2103    0.2747 H   0  0  0  0  0  0  0  0  0  0  0  0
    4.8340   -0.0880   -1.4000 H   0  0  0  0  0  0  0  0  0  0  0  0
    3.8088   -2.4141   -2.5905 H   0  0  0  0  0  0  0  0  0  0  0  0
    2.8027   -4.4617   -1.5713 H   0  0  0  0  0  0  0  0  0  0  0  0
    2.9213   -0.6431    2.2143 H   0  0  0  0  0  0  0  0  0  0  0  0
    4.4449    3.4947   -2.6389 H   0  0  0  0  0  0  0  0  0  0  0  0
    3.9985    1.9333   -3.2261 H   0  0  0  0  0  0  0  0  0  0  0  0
    1.7474   -5.3229    0.8970 H   0  0  0  0  0  0  0  0  0  0  0  0
    1.8908   -2.1884    3.8477 H   0  0  0  0  0  0  0  0  0  0  0  0
    1.3095   -4.4998    3.2060 H   0  0  0  0  0  0  0  0  0  0  0  0
  1  4  2  0  0  0  0
  1  5  2  0  0  0  0
  1  8  1  0  0  0  0
  1 25  1  0  0  0  0
  2 16  2  0  0  0  0
  3 23  2  0  0  0  0
  6 28  2  0  0  0  0
  7 13  1  0  0  0  0
  7 16  1  0  0  0  0
  7 20  1  0  0  0  0
  8 19  1  0  0  0  0
  8 22  1  0  0  0  0
  9 23  1  0  0  0  0
  9 24  1  0  0  0  0
  9 54  1  0  0  0  0
 10 30  1  0  0  0  0
 10 31  1  0  0  0  0
 10 62  1  0  0  0  0
 11 28  1  0  0  0  0
 11 64  1  0  0  0  0
 11 65  1  0  0  0  0
 12 14  1  0  0  0  0
 12 15  1  0  0  0  0
 12 16  1  0  0  0  0
 12 36  1  0  0  0  0
 13 19  1  0  0  0  0
 13 23  1  0  0  0  0
 13 37  1  0  0  0  0
 14 17  1  0  0  0  0
 14 38  1  0  0  0  0
 14 39  1  0  0  0  0
 15 18  1  0  0  0  0
 15 40  1  0  0  0  0
 15 41  1  0  0  0  0
 17 21  1  0  0  0  0
 17 42  1  0  0  0  0
 17 43  1  0  0  0  0
 18 21  1  0  0  0  0
 18 44  1  0  0  0  0
 18 45  1  0  0  0  0
 19 46  1  0  0  0  0
 19 47  1  0  0  0  0
 20 22  1  0  0  0  0
 20 48  1  0  0  0  0
 20 49  1  0  0  0  0
 21 50  1  0  0  0  0
 21 51  1  0  0  0  0
 22 52  1  0  0  0  0
 22 53  1  0  0  0  0
 24 26  1  0  0  0  0
 24 28  1  0  0  0  0
 24 55  1  0  0  0  0
 25 56  1  0  0  0  0
 25 57  1  0  0  0  0
 25 58  1  0  0  0  0
 26 27  1  0  0  0  0
 26 59  1  0  0  0  0
 26 60  1  0  0  0  0
 27 29  1  0  0  0  0
 27 30  2  0  0  0  0
 29 31  1  0  0  0  0
 29 32  2  0  0  0  0
 30 61  1  0  0  0  0
 31 33  2  0  0  0  0
 32 34  1  0  0  0  0
 32 63  1  0  0  0  0
 33 35  1  0  0  0  0
 33 66  1  0  0  0  0
 34 35  2  0  0  0  0
 34 67  1  0  0  0  0
 35 68  1  0  0  0  0
M  END
> <PUBCHEM_COMPOUND_CID>
7165012

> <PUBCHEM_CONFORMER_RMSD>
1.2

> <PUBCHEM_CONFORMER_DIVERSEORDER>
1
37
160
58
79
64
129
145
38
154
18
127
32
95
114
135
36
47
105
121
134
112
106
125
88
98
66
150
14
138
110
21
143
116
103
71
100
111
41
144
80
74
109
108
141
137
26
62
158
63
59
68
24
146
151
13
130
5
90
48
84
123
60
43
96
115
147
46
81
101
76
39
2
124
44
22
133
132
61
87
159
54
53
142
107
29
15
34
65
40
56
155
93
131
27
55
11
83
75
51
50
97
156
140
73
128
102
86
77
157
3
119
45
85
19
20
153
152
113
82
30
8
104
10
67
49
118
99
35
7
78
4
6
149
70
17
94
57
148
91
139
136
12
69
122
28
72
9
52
120
16
126
23
31
92
25
33
42
117
89

> <PUBCHEM_MMFF94_PARTIAL_CHARGES>
38
1 1.33
10 0.03
11 -0.8
12 0.06
13 0.36
16 0.57
19 0.36
2 -0.57
20 0.3
22 0.36
23 0.57
24 0.36
25 0.11
26 0.18
27 -0.18
28 0.57
3 -0.57
30 -0.3
31 -0.15
32 -0.15
33 -0.15
34 -0.15
35 -0.15
4 -0.65
5 -0.65
54 0.37
6 -0.57
61 0.15
62 0.27
63 0.15
64 0.37
65 0.37
66 0.15
67 0.15
68 0.15
7 -0.66
8 -0.85
9 -0.73

> <PUBCHEM_EFFECTIVE_ROTOR_COUNT>
11.4

> <PUBCHEM_PHARMACOPHORE_FEATURES>
13
1 10 cation
1 10 donor
1 11 donor
1 2 acceptor
1 3 acceptor
1 4 acceptor
1 5 acceptor
1 6 acceptor
1 9 donor
5 10 27 29 30 31 rings
6 12 14 15 17 18 21 rings
6 29 31 32 33 34 35 rings
6 7 8 13 19 20 22 rings

> <PUBCHEM_HEAVY_ATOM_COUNT>
35

> <PUBCHEM_ATOM_DEF_STEREO_COUNT>
2

> <PUBCHEM_ATOM_UDEF_STEREO_COUNT>
0

> <PUBCHEM_BOND_DEF_STEREO_COUNT>
0

> <PUBCHEM_BOND_UDEF_STEREO_COUNT>
0

> <PUBCHEM_ISOTOPIC_ATOM_COUNT>
0

> <PUBCHEM_COMPONENT_COUNT>
1

> <PUBCHEM_CACTVS_TAUTO_COUNT>
4

> <PUBCHEM_CONFORMER_ID>
006D545400000001

> <PUBCHEM_MMFF94_ENERGY>
68.7043

> <PUBCHEM_FEATURE_SELFOVERLAP>
66.082

> <PUBCHEM_SHAPE_FINGERPRINT>
10032420 55 18193838377849827604
10675989 125 18335707177638915373
10940486 97 17978522936075556654
11421498 54 18412829113960657036
12107698 1 18411422791566261510
12788726 201 18337673005977375547
1361 2 17838335538109061557
13692114 37 16542971336035552705
13757389 114 17619636778470544374
13911987 19 17830475112445218836
14068700 675 18409442575440423398
14178342 30 18337101247451815760
15439362 3 17403174197992529501
15484559 13 17978501263074585726
15664445 248 18197209458977902459
15968369 26 17689702482313422799
17818456 19 18195529182262627677
19315092 285 18041544897742947722
19319366 153 18116425036877194998
21033648 29 17265239974291864144
21421861 104 18407762521293282779
23559900 14 18270398265855188446
4017518 198 16903265306000230047
463206 1 18265615570690135895
5265222 85 15310677568979998426
5776283 40 17258225588111531367
70251023 43 18340215115294362202
79837 15 17693373335733601593

> <PUBCHEM_SHAPE_MULTIPOLES>
669.88
9.51
8.14
2.05
7.68
8.27
-0.77
-9.24
3.54
2.47
-2.45
-1.79
-0.57
-4.37

> <PUBCHEM_SHAPE_SELFOVERLAP>
1407.102

> <PUBCHEM_SHAPE_VOLUME>
379.1

> <PUBCHEM_COORDINATE_TYPE>
2
5
10

$$$$
