51136774
  -OEChem-12032416143D

 58 61  0     1  0  0  0  0  0999 V2000
   -5.0947   -1.8296    1.2200 F   0  0  0  0  0  0  0  0  0  0  0  0
   -0.2265    2.4080    1.7345 O   0  0  0  0  0  0  0  0  0  0  0  0
   -3.8102    3.4387   -1.0015 O   0  0  0  0  0  0  0  0  0  0  0  0
    6.6095   -1.0351    0.7670 O   0  0  0  0  0  0  0  0  0  0  0  0
    6.1050    0.9307   -0.2635 O   0  0  0  0  0  0  0  0  0  0  0  0
    0.8669    1.8810   -0.2238 N   0  0  0  0  0  0  0  0  0  0  0  0
   -1.5157    2.0524   -0.1396 N   0  0  0  0  0  0  0  0  0  0  0  0
    0.8145   -2.9812   -0.8993 N   0  0  0  0  0  0  0  0  0  0  0  0
    1.9904   -0.3018   -0.6260 C   0  0  2  0  0  0  0  0  0  0  0  0
    3.3340    0.3600   -0.2265 C   0  0  1  0  0  0  0  0  0  0  0  0
    3.1167    1.5471    0.7269 C   0  0  0  0  0  0  0  0  0  0  0  0
    1.0118    0.7622   -1.1668 C   0  0  0  0  0  0  0  0  0  0  0  0
    2.1208    2.5402    0.1374 C   0  0  0  0  0  0  0  0  0  0  0  0
    1.3344   -1.1041    0.5059 C   0  0  0  0  0  0  0  0  0  0  0  0
    4.3394   -0.6282    0.3641 C   0  0  0  0  0  0  0  0  0  0  0  0
    0.3576   -2.0997   -0.0720 C   0  0  0  0  0  0  0  0  0  0  0  0
   -0.2887    2.1304    0.5303 C   0  0  0  0  0  0  0  0  0  0  0  0
    5.7512   -0.1268    0.2359 C   0  0  0  0  0  0  0  0  0  0  0  0
   -1.0703   -2.0157    0.3279 C   0  0  0  0  0  0  0  0  0  0  0  0
   -2.7635    1.9824    0.6193 C   0  0  0  0  0  0  0  0  0  0  0  0
   -1.7062    2.3540   -1.5640 C   0  0  0  0  0  0  0  0  0  0  0  0
   -1.9952   -2.6731   -0.4932 C   0  0  0  0  0  0  0  0  0  0  0  0
   -0.1224   -3.9858   -1.4138 C   0  0  0  0  0  0  0  0  0  0  0  0
   -1.4943   -3.3940   -1.7093 C   0  0  0  0  0  0  0  0  0  0  0  0
   -3.5793    3.2477    0.3982 C   0  0  0  0  0  0  0  0  0  0  0  0
   -2.5787    3.5984   -1.7117 C   0  0  0  0  0  0  0  0  0  0  0  0
   -1.4988   -1.3104    1.4540 C   0  0  0  0  0  0  0  0  0  0  0  0
   -3.3585   -2.5986   -0.1942 C   0  0  0  0  0  0  0  0  0  0  0  0
   -2.8607   -1.2548    1.7533 C   0  0  0  0  0  0  0  0  0  0  0  0
   -3.7884   -1.8943    0.9305 C   0  0  0  0  0  0  0  0  0  0  0  0
    2.2140   -0.9786   -1.4616 H   0  0  0  0  0  0  0  0  0  0  0  0
    3.7564    0.7680   -1.1570 H   0  0  0  0  0  0  0  0  0  0  0  0
    4.0591    2.0676    0.9284 H   0  0  0  0  0  0  0  0  0  0  0  0
    2.7406    1.1862    1.6925 H   0  0  0  0  0  0  0  0  0  0  0  0
    0.0390    0.3095   -1.3760 H   0  0  0  0  0  0  0  0  0  0  0  0
    1.3947    1.1798   -2.1056 H   0  0  0  0  0  0  0  0  0  0  0  0
    2.5267    2.9944   -0.7741 H   0  0  0  0  0  0  0  0  0  0  0  0
    1.9286    3.3495    0.8501 H   0  0  0  0  0  0  0  0  0  0  0  0
    0.9083   -0.4303    1.2453 H   0  0  0  0  0  0  0  0  0  0  0  0
    2.0758   -1.7088    1.0402 H   0  0  0  0  0  0  0  0  0  0  0  0
    4.2880   -1.5781   -0.1813 H   0  0  0  0  0  0  0  0  0  0  0  0
    4.1354   -0.8131    1.4245 H   0  0  0  0  0  0  0  0  0  0  0  0
   -2.5739    1.8245    1.6846 H   0  0  0  0  0  0  0  0  0  0  0  0
   -3.3165    1.1229    0.2268 H   0  0  0  0  0  0  0  0  0  0  0  0
   -2.2023    1.4845   -2.0091 H   0  0  0  0  0  0  0  0  0  0  0  0
   -0.7546    2.5236   -2.0720 H   0  0  0  0  0  0  0  0  0  0  0  0
   -0.1971   -4.8069   -0.6898 H   0  0  0  0  0  0  0  0  0  0  0  0
    0.2913   -4.4096   -2.3353 H   0  0  0  0  0  0  0  0  0  0  0  0
   -1.4335   -2.6814   -2.5406 H   0  0  0  0  0  0  0  0  0  0  0  0
   -2.1816   -4.1967   -1.9988 H   0  0  0  0  0  0  0  0  0  0  0  0
   -4.5529    3.1596    0.8899 H   0  0  0  0  0  0  0  0  0  0  0  0
   -3.0729    4.1306    0.8056 H   0  0  0  0  0  0  0  0  0  0  0  0
   -2.0632    4.4918   -1.3394 H   0  0  0  0  0  0  0  0  0  0  0  0
   -2.8180    3.7651   -2.7666 H   0  0  0  0  0  0  0  0  0  0  0  0
   -0.8194   -0.8182    2.1391 H   0  0  0  0  0  0  0  0  0  0  0  0
   -4.0908   -3.0871   -0.8310 H   0  0  0  0  0  0  0  0  0  0  0  0
    7.5423   -0.7391    0.7004 H   0  0  0  0  0  0  0  0  0  0  0  0
   -3.2007   -0.7138    2.6317 H   0  0  0  0  0  0  0  0  0  0  0  0
  1 30  1  0  0  0  0
  2 17  2  0  0  0  0
  3 25  1  0  0  0  0
  3 26  1  0  0  0  0
  4 18  1  0  0  0  0
  4 57  1  0  0  0  0
  5 18  2  0  0  0  0
  6 12  1  0  0  0  0
  6 13  1  0  0  0  0
  6 17  1  0  0  0  0
  7 17  1  0  0  0  0
  7 20  1  0  0  0  0
  7 21  1  0  0  0  0
  8 16  2  0  0  0  0
  8 23  1  0  0  0  0
  9 10  1  0  0  0  0
  9 12  1  0  0  0  0
  9 14  1  0  0  0  0
  9 31  1  0  0  0  0
 10 11  1  0  0  0  0
 10 15  1  0  0  0  0
 10 32  1  0  0  0  0
 11 13  1  0  0  0  0
 11 33  1  0  0  0  0
 11 34  1  0  0  0  0
 12 35  1  0  0  0  0
 12 36  1  0  0  0  0
 13 37  1  0  0  0  0
 13 38  1  0  0  0  0
 14 16  1  0  0  0  0
 14 39  1  0  0  0  0
 14 40  1  0  0  0  0
 15 18  1  0  0  0  0
 15 41  1  0  0  0  0
 15 42  1  0  0  0  0
 16 19  1  0  0  0  0
 19 22  2  0  0  0  0
 19 27  1  0  0  0  0
 20 25  1  0  0  0  0
 20 43  1  0  0  0  0
 20 44  1  0  0  0  0
 21 26  1  0  0  0  0
 21 45  1  0  0  0  0
 21 46  1  0  0  0  0
 22 24  1  0  0  0  0
 22 28  1  0  0  0  0
 23 24  1  0  0  0  0
 23 47  1  0  0  0  0
 23 48  1  0  0  0  0
 24 49  1  0  0  0  0
 24 50  1  0  0  0  0
 25 51  1  0  0  0  0
 25 52  1  0  0  0  0
 26 53  1  0  0  0  0
 26 54  1  0  0  0  0
 27 29  2  0  0  0  0
 27 55  1  0  0  0  0
 28 30  2  0  0  0  0
 28 56  1  0  0  0  0
 29 30  1  0  0  0  0
 29 58  1  0  0  0  0
M  END
> <PUBCHEM_COMPOUND_CID>
51136774

> <PUBCHEM_CONFORMER_RMSD>
1

> <PUBCHEM_CONFORMER_DIVERSEORDER>
2
81
48
61
105
29
53
107
9
22
92
65
63
21
127
35
66
83
100
90
37
72
40
119
84
79
86
3
108
122
118
76
67
30
126
49
104
99
75
112
129
43
103
18
59
51
60
87
102
109
41
39
27
56
57
62
31
123
101
36
114
4
17
55
115
85
110
47
128
54
125
117
32
124
89
120
38
12
52
91
13
97
33
74
46
15
20
78
64
23
1
106
96
121
94
82
71
14
50
70
73
19
28
88
130
111
80
77
95
6
98
34
26
69
58
8
113
16
44
5
25
68
116
42
7
93
11
45
24
10

> <PUBCHEM_MMFF94_PARTIAL_CHARGES>
31
1 -0.19
12 0.3
13 0.3
14 0.06
15 0.06
16 0.3
17 0.69
18 0.66
19 0.09
2 -0.57
20 0.3
21 0.3
22 -0.14
23 0.25
24 0.14
25 0.28
26 0.28
27 -0.15
28 -0.15
29 -0.15
3 -0.56
30 0.19
4 -0.65
5 -0.57
55 0.15
56 0.15
57 0.5
58 0.15
6 -0.66
7 -0.66
8 -0.7

> <PUBCHEM_EFFECTIVE_ROTOR_COUNT>
8.8

> <PUBCHEM_PHARMACOPHORE_FEATURES>
10
1 2 acceptor
1 3 acceptor
1 4 acceptor
1 5 acceptor
1 8 acceptor
3 4 5 18 anion
6 19 22 27 28 29 30 rings
6 3 7 20 21 25 26 rings
6 6 9 10 11 12 13 rings
6 8 16 19 22 23 24 rings

> <PUBCHEM_HEAVY_ATOM_COUNT>
30

> <PUBCHEM_ATOM_DEF_STEREO_COUNT>
2

> <PUBCHEM_ATOM_UDEF_STEREO_COUNT>
0

> <PUBCHEM_BOND_DEF_STEREO_COUNT>
0

> <PUBCHEM_BOND_UDEF_STEREO_COUNT>
0

> <PUBCHEM_ISOTOPIC_ATOM_COUNT>
0

> <PUBCHEM_COMPONENT_COUNT>
1

> <PUBCHEM_CACTVS_TAUTO_COUNT>
1

> <PUBCHEM_CONFORMER_ID>
030C490600000002

> <PUBCHEM_MMFF94_ENERGY>
77.4675

> <PUBCHEM_FEATURE_SELFOVERLAP>
50.831

> <PUBCHEM_SHAPE_FINGERPRINT>
104564 63 18335142020161487315
10688039 33 18115029735346287233
12156800 1 17623799748478536251
12422481 6 18265359268911535841
12597179 24 18193553372425530989
12633257 1 17845108431041494066
12788726 201 18265351670972067764
13004483 165 18192992836264854897
13140716 1 18050291663182091498
13692114 37 18197191729832965221
13965767 371 17984174541453443379
14117953 113 18343028817510948415
15276724 80 18338518676875148500
16728300 4 18187916228040176242
17138139 8 17767920408706815837
18603816 31 16056893420754512310
20775438 99 17980465786312960383
21236236 1 18408603656531238176
22113638 7 17907867554465430687
22182313 1 18198921231348007822
23419403 2 17202185503473767888
238 59 17472138380404913533
350125 39 18337960081507050432
4058900 60 17831296095290971860
4409770 3 18411128134717026182
460360 51 18336549309752934686
5080951 261 18045469038274455832
5104073 3 18335125498445888112
513202 73 18333733511802661770
5171179 24 18057307591060121480
57527358 35 14715155927292484982
7237137 82 18337120055150924636
9862522 239 18411702058359608106

> <PUBCHEM_SHAPE_MULTIPOLES>
571.69
9.43
5.42
1.5
14.43
0.49
-0.12
0.3
2.33
-6.33
-2.17
-1.2
-0.08
1.07

> <PUBCHEM_SHAPE_SELFOVERLAP>
1213.609

> <PUBCHEM_SHAPE_VOLUME>
317.7

> <PUBCHEM_COORDINATE_TYPE>
2
5
10

$$$$
