45783540
  -OEChem-12032416263D

 56 59  0     1  0  0  0  0  0999 V2000
   -2.5506   -1.6032    1.8886 O   0  0  0  0  0  0  0  0  0  0  0  0
    0.5345    3.5297    0.8676 O   0  0  0  0  0  0  0  0  0  0  0  0
    4.7952   -1.0423   -0.0069 O   0  0  0  0  0  0  0  0  0  0  0  0
    7.1564    0.3637   -0.5387 O   0  0  0  0  0  0  0  0  0  0  0  0
   -4.1869   -0.2241   -1.0989 N   0  0  1  0  0  0  0  0  0  0  0  0
   -1.5361   -1.1032   -0.0447 N   0  0  0  0  0  0  0  0  0  0  0  0
   -1.1748   -1.6512    2.1469 N   0  0  0  0  0  0  0  0  0  0  0  0
    2.6119   -0.8739   -0.7743 N   0  0  0  0  0  0  0  0  0  0  0  0
   -4.0878   -1.1563    0.0419 C   0  0  1  0  0  0  0  0  0  0  0  0
   -4.6333   -2.4921   -0.4960 C   0  0  0  0  0  0  0  0  0  0  0  0
   -5.0701   -2.1972   -1.9240 C   0  0  0  0  0  0  0  0  0  0  0  0
   -5.2967   -0.6989   -1.9255 C   0  0  0  0  0  0  0  0  0  0  0  0
   -4.3609    1.1645   -0.6926 C   0  0  0  0  0  0  0  0  0  0  0  0
   -2.6758   -1.2743    0.5762 C   0  0  0  0  0  0  0  0  0  0  0  0
   -3.0582    1.7946   -0.2770 C   0  0  0  0  0  0  0  0  0  0  0  0
   -2.9157    2.3214    1.0067 C   0  0  0  0  0  0  0  0  0  0  0  0
   -1.9932    1.8509   -1.1761 C   0  0  0  0  0  0  0  0  0  0  0  0
   -0.6441   -1.3450    0.9593 C   0  0  0  0  0  0  0  0  0  0  0  0
   -1.7086    2.9047    1.3912 C   0  0  0  0  0  0  0  0  0  0  0  0
   -0.7859    2.4344   -0.7917 C   0  0  0  0  0  0  0  0  0  0  0  0
    0.7720   -1.2739    0.7421 C   0  0  0  0  0  0  0  0  0  0  0  0
   -0.6437    2.9613    0.4920 C   0  0  0  0  0  0  0  0  0  0  0  0
    1.6683   -1.5231    1.7757 C   0  0  0  0  0  0  0  0  0  0  0  0
    1.2900   -0.9563   -0.5030 C   0  0  0  0  0  0  0  0  0  0  0  0
    3.0359   -1.4479    1.5356 C   0  0  0  0  0  0  0  0  0  0  0  0
    3.4526   -1.1225    0.2549 C   0  0  0  0  0  0  0  0  0  0  0  0
    1.5816    3.5539   -0.1015 C   0  0  0  0  0  0  0  0  0  0  0  0
    5.1686   -0.7047   -1.3377 C   0  0  0  0  0  0  0  0  0  0  0  0
    6.6813   -0.6413   -1.4262 C   0  0  0  0  0  0  0  0  0  0  0  0
    8.5741    0.4525   -0.5639 C   0  0  0  0  0  0  0  0  0  0  0  0
   -4.7438   -0.8367    0.8638 H   0  0  0  0  0  0  0  0  0  0  0  0
   -3.9043   -3.3093   -0.4730 H   0  0  0  0  0  0  0  0  0  0  0  0
   -5.5030   -2.8004    0.0970 H   0  0  0  0  0  0  0  0  0  0  0  0
   -5.9660   -2.7577   -2.2067 H   0  0  0  0  0  0  0  0  0  0  0  0
   -4.2665   -2.4635   -2.6219 H   0  0  0  0  0  0  0  0  0  0  0  0
   -6.2696   -0.4608   -1.4769 H   0  0  0  0  0  0  0  0  0  0  0  0
   -5.2614   -0.2880   -2.9392 H   0  0  0  0  0  0  0  0  0  0  0  0
   -5.1255    1.2668    0.0887 H   0  0  0  0  0  0  0  0  0  0  0  0
   -4.7274    1.7584   -1.5419 H   0  0  0  0  0  0  0  0  0  0  0  0
   -3.7361    2.2823    1.7182 H   0  0  0  0  0  0  0  0  0  0  0  0
   -2.0911    1.4483   -2.1809 H   0  0  0  0  0  0  0  0  0  0  0  0
   -1.6031    3.3123    2.3929 H   0  0  0  0  0  0  0  0  0  0  0  0
   -0.0001    2.4439   -1.5391 H   0  0  0  0  0  0  0  0  0  0  0  0
    1.3357   -1.7779    2.7785 H   0  0  0  0  0  0  0  0  0  0  0  0
    0.6543   -0.7484   -1.3587 H   0  0  0  0  0  0  0  0  0  0  0  0
    3.7483   -1.6391    2.3306 H   0  0  0  0  0  0  0  0  0  0  0  0
    1.8980    2.5420   -0.3769 H   0  0  0  0  0  0  0  0  0  0  0  0
    1.3082    4.1557   -0.9748 H   0  0  0  0  0  0  0  0  0  0  0  0
    2.4433    4.0416    0.3659 H   0  0  0  0  0  0  0  0  0  0  0  0
    4.7547    0.2787   -1.5933 H   0  0  0  0  0  0  0  0  0  0  0  0
    4.7968   -1.4605   -2.0395 H   0  0  0  0  0  0  0  0  0  0  0  0
    7.1099   -1.6063   -1.1317 H   0  0  0  0  0  0  0  0  0  0  0  0
    6.9868   -0.4059   -2.4516 H   0  0  0  0  0  0  0  0  0  0  0  0
    9.0238   -0.4918   -0.2420 H   0  0  0  0  0  0  0  0  0  0  0  0
    8.9245    0.7146   -1.5669 H   0  0  0  0  0  0  0  0  0  0  0  0
    8.8821    1.2393    0.1298 H   0  0  0  0  0  0  0  0  0  0  0  0
  1  7  1  0  0  0  0
  1 14  1  0  0  0  0
  2 22  1  0  0  0  0
  2 27  1  0  0  0  0
  3 26  1  0  0  0  0
  3 28  1  0  0  0  0
  4 29  1  0  0  0  0
  4 30  1  0  0  0  0
  5  9  1  0  0  0  0
  5 12  1  0  0  0  0
  5 13  1  0  0  0  0
  6 14  2  0  0  0  0
  6 18  1  0  0  0  0
  7 18  2  0  0  0  0
  8 24  1  0  0  0  0
  8 26  2  0  0  0  0
  9 10  1  0  0  0  0
  9 14  1  0  0  0  0
  9 31  1  0  0  0  0
 10 11  1  0  0  0  0
 10 32  1  0  0  0  0
 10 33  1  0  0  0  0
 11 12  1  0  0  0  0
 11 34  1  0  0  0  0
 11 35  1  0  0  0  0
 12 36  1  0  0  0  0
 12 37  1  0  0  0  0
 13 15  1  0  0  0  0
 13 38  1  0  0  0  0
 13 39  1  0  0  0  0
 15 16  2  0  0  0  0
 15 17  1  0  0  0  0
 16 19  1  0  0  0  0
 16 40  1  0  0  0  0
 17 20  2  0  0  0  0
 17 41  1  0  0  0  0
 18 21  1  0  0  0  0
 19 22  2  0  0  0  0
 19 42  1  0  0  0  0
 20 22  1  0  0  0  0
 20 43  1  0  0  0  0
 21 23  1  0  0  0  0
 21 24  2  0  0  0  0
 23 25  2  0  0  0  0
 23 44  1  0  0  0  0
 24 45  1  0  0  0  0
 25 26  1  0  0  0  0
 25 46  1  0  0  0  0
 27 47  1  0  0  0  0
 27 48  1  0  0  0  0
 27 49  1  0  0  0  0
 28 29  1  0  0  0  0
 28 50  1  0  0  0  0
 28 51  1  0  0  0  0
 29 52  1  0  0  0  0
 29 53  1  0  0  0  0
 30 54  1  0  0  0  0
 30 55  1  0  0  0  0
 30 56  1  0  0  0  0
M  END
> <PUBCHEM_COMPOUND_CID>
45783540

> <PUBCHEM_CONFORMER_RMSD>
1

> <PUBCHEM_CONFORMER_DIVERSEORDER>
1
52
8
88
82
46
37
72
55
77
35
81
29
14
93
39
91
27
32
12
57
87
85
16
63
45
41
62
70
53
89
95
38
2
80
9
86
36
47
22
33
76
64
58
25
94
13
54
30
15
90
17
96
20
34
65
83
51
50
44
67
24
19
42
78
73
49
60
23
92
84
26
71
79
28
59
11
40
10
7
74
18
56
4
69
68
75
21
66
48
6
3
43
5
61
31

> <PUBCHEM_MMFF94_PARTIAL_CHARGES>
35
1 -0.02
12 0.27
13 0.41
14 0.3
15 -0.14
16 -0.15
17 -0.15
18 0.46
19 -0.15
2 -0.36
20 -0.15
21 0.05
22 0.08
23 -0.15
24 0.16
25 -0.15
26 0.39
27 0.28
28 0.28
29 0.28
3 -0.36
30 0.28
4 -0.56
40 0.15
41 0.15
42 0.15
43 0.15
44 0.15
45 0.15
46 0.15
5 -0.81
6 -0.57
7 -0.41
8 -0.62
9 0.45

> <PUBCHEM_EFFECTIVE_ROTOR_COUNT>
10

> <PUBCHEM_PHARMACOPHORE_FEATURES>
8
1 2 acceptor
1 4 acceptor
1 5 cation
3 6 7 18 cation
5 1 6 7 14 18 rings
5 5 9 10 11 12 rings
6 15 16 17 19 20 22 rings
6 8 21 23 24 25 26 rings

> <PUBCHEM_HEAVY_ATOM_COUNT>
30

> <PUBCHEM_ATOM_DEF_STEREO_COUNT>
1

> <PUBCHEM_ATOM_UDEF_STEREO_COUNT>
0

> <PUBCHEM_BOND_DEF_STEREO_COUNT>
0

> <PUBCHEM_BOND_UDEF_STEREO_COUNT>
0

> <PUBCHEM_ISOTOPIC_ATOM_COUNT>
0

> <PUBCHEM_COMPONENT_COUNT>
1

> <PUBCHEM_CACTVS_TAUTO_COUNT>
1

> <PUBCHEM_CONFORMER_ID>
02BA99F400000001

> <PUBCHEM_MMFF94_ENERGY>
75.8557

> <PUBCHEM_FEATURE_SELFOVERLAP>
40.598

> <PUBCHEM_SHAPE_FINGERPRINT>
10454371 7 18340495491412943044
10670039 82 18408323268582089154
1100329 8 18339634548181359633
11477941 20 18272081712768290260
12107698 1 18341894117178978612
12156800 1 15002131829586070949
12788726 201 18263640671617181665
13761468 95 17757559555576068620
13782708 43 17489309642828491574
14931854 50 18187920655749693582
17492 54 18041832918655830437
19438510 23 13985206736802687191
20609170 92 18115585006384546068
20642791 239 18188478091820077297
20642791 35 18336811036680728653
20691752 17 17604689150430995577
20721686 56 18338799048045465176
20775438 99 17333902732138899439
20905425 154 18194673998734902957
21304303 64 17095805413457328917
21344244 246 17910105047278887975
23559900 14 18041838535887536933
255183 451 17983005941557074983
497634 4 17131841953701076706
5171179 24 18272083954414430896
531348 171 18057330483236030030
999808 66 14117806829657975230

> <PUBCHEM_SHAPE_MULTIPOLES>
573.98
14.82
3.82
1.79
31.77
3.93
0.23
-5.31
-9.24
-2.91
0.77
-0.71
-0.73
-1.07

> <PUBCHEM_SHAPE_SELFOVERLAP>
1227.445

> <PUBCHEM_SHAPE_VOLUME>
320.5

> <PUBCHEM_COORDINATE_TYPE>
2
5
10

$$$$
