45783576
  -OEChem-12032416313D

 62 66  0     1  0  0  0  0  0999 V2000
   -4.4256   -1.0571   -0.8967 O   0  0  0  0  0  0  0  0  0  0  0  0
    3.1106   -1.7031   -1.6899 O   0  0  0  0  0  0  0  0  0  0  0  0
   -0.0556    3.4707   -1.3528 O   0  0  0  0  0  0  0  0  0  0  0  0
    4.3100   -0.1908    1.4374 N   0  0  1  0  0  0  0  0  0  0  0  0
    1.8323   -1.1165    0.0533 N   0  0  0  0  0  0  0  0  0  0  0  0
    1.7859   -1.7627   -2.1408 N   0  0  0  0  0  0  0  0  0  0  0  0
   -2.3747   -0.8544    0.1682 N   0  0  0  0  0  0  0  0  0  0  0  0
    4.3696   -1.1735    0.3369 C   0  0  1  0  0  0  0  0  0  0  0  0
    4.8235   -2.4837    1.0067 C   0  0  0  0  0  0  0  0  0  0  0  0
    5.0527   -2.1247    2.4680 C   0  0  0  0  0  0  0  0  0  0  0  0
    5.2865   -0.6279    2.4353 C   0  0  0  0  0  0  0  0  0  0  0  0
   -4.9840   -0.6597    0.3510 C   0  0  0  0  0  0  0  0  0  0  0  0
    4.5496    1.1781    0.9987 C   0  0  0  0  0  0  0  0  0  0  0  0
   -6.3534   -1.3128    0.5313 C   0  0  0  0  0  0  0  0  0  0  0  0
   -5.0752    0.8646    0.4098 C   0  0  0  0  0  0  0  0  0  0  0  0
   -7.0363   -0.8406    1.8109 C   0  0  0  0  0  0  0  0  0  0  0  0
   -5.7580    1.3370    1.6892 C   0  0  0  0  0  0  0  0  0  0  0  0
   -7.1255    0.6826    1.8708 C   0  0  0  0  0  0  0  0  0  0  0  0
    3.0482   -1.3154   -0.3891 C   0  0  0  0  0  0  0  0  0  0  0  0
    3.3241    1.7888    0.3726 C   0  0  0  0  0  0  0  0  0  0  0  0
    1.0922   -1.4033   -1.0566 C   0  0  0  0  0  0  0  0  0  0  0  0
    3.3709    2.2572   -0.9406 C   0  0  0  0  0  0  0  0  0  0  0  0
    2.1414    1.8857    1.1059 C   0  0  0  0  0  0  0  0  0  0  0  0
   -3.0605   -1.1491   -0.9590 C   0  0  0  0  0  0  0  0  0  0  0  0
   -0.3387   -1.3224   -1.0486 C   0  0  0  0  0  0  0  0  0  0  0  0
    2.2354    2.8227   -1.5202 C   0  0  0  0  0  0  0  0  0  0  0  0
    1.0058    2.4512    0.5262 C   0  0  0  0  0  0  0  0  0  0  0  0
   -2.4663   -1.5320   -2.1506 C   0  0  0  0  0  0  0  0  0  0  0  0
   -1.0789   -1.6179   -2.1881 C   0  0  0  0  0  0  0  0  0  0  0  0
    1.0527    2.9197   -0.7867 C   0  0  0  0  0  0  0  0  0  0  0  0
   -1.0281   -0.9489    0.0938 C   0  0  0  0  0  0  0  0  0  0  0  0
   -1.2308    3.5386   -0.5463 C   0  0  0  0  0  0  0  0  0  0  0  0
    5.1390   -0.8913   -0.3956 H   0  0  0  0  0  0  0  0  0  0  0  0
    5.7672   -2.8186    0.5592 H   0  0  0  0  0  0  0  0  0  0  0  0
    4.0999   -3.3010    0.9158 H   0  0  0  0  0  0  0  0  0  0  0  0
    4.1556   -2.3592    3.0545 H   0  0  0  0  0  0  0  0  0  0  0  0
    5.8951   -2.6719    2.9012 H   0  0  0  0  0  0  0  0  0  0  0  0
    5.1088   -0.1717    3.4140 H   0  0  0  0  0  0  0  0  0  0  0  0
    6.3153   -0.4103    2.1209 H   0  0  0  0  0  0  0  0  0  0  0  0
   -4.3826   -1.0219    1.1963 H   0  0  0  0  0  0  0  0  0  0  0  0
    4.7943    1.8096    1.8645 H   0  0  0  0  0  0  0  0  0  0  0  0
    5.4191    1.2450    0.3317 H   0  0  0  0  0  0  0  0  0  0  0  0
   -6.2461   -2.4043    0.5423 H   0  0  0  0  0  0  0  0  0  0  0  0
   -6.9871   -1.0856   -0.3359 H   0  0  0  0  0  0  0  0  0  0  0  0
   -5.6278    1.2331   -0.4644 H   0  0  0  0  0  0  0  0  0  0  0  0
   -4.0781    1.3142    0.3388 H   0  0  0  0  0  0  0  0  0  0  0  0
   -6.4774   -1.2077    2.6804 H   0  0  0  0  0  0  0  0  0  0  0  0
   -8.0420   -1.2714    1.8728 H   0  0  0  0  0  0  0  0  0  0  0  0
   -5.1223    1.0994    2.5511 H   0  0  0  0  0  0  0  0  0  0  0  0
   -5.8712    2.4267    1.6664 H   0  0  0  0  0  0  0  0  0  0  0  0
   -7.5562    0.9890    2.8307 H   0  0  0  0  0  0  0  0  0  0  0  0
   -7.8058    1.0382    1.0871 H   0  0  0  0  0  0  0  0  0  0  0  0
    4.2847    2.1860   -1.5243 H   0  0  0  0  0  0  0  0  0  0  0  0
    2.0914    1.5288    2.1313 H   0  0  0  0  0  0  0  0  0  0  0  0
    2.2774    3.1848   -2.5438 H   0  0  0  0  0  0  0  0  0  0  0  0
    0.1208    2.4945    1.1518 H   0  0  0  0  0  0  0  0  0  0  0  0
   -3.0584   -1.7589   -3.0305 H   0  0  0  0  0  0  0  0  0  0  0  0
   -0.6076   -1.9177   -3.1204 H   0  0  0  0  0  0  0  0  0  0  0  0
   -0.5207   -0.7026    1.0219 H   0  0  0  0  0  0  0  0  0  0  0  0
   -1.5897    2.5401   -0.2739 H   0  0  0  0  0  0  0  0  0  0  0  0
   -1.0819    4.1794    0.3293 H   0  0  0  0  0  0  0  0  0  0  0  0
   -2.0136    4.0040   -1.1540 H   0  0  0  0  0  0  0  0  0  0  0  0
  1 12  1  0  0  0  0
  1 24  1  0  0  0  0
  2  6  1  0  0  0  0
  2 19  1  0  0  0  0
  3 30  1  0  0  0  0
  3 32  1  0  0  0  0
  4  8  1  0  0  0  0
  4 11  1  0  0  0  0
  4 13  1  0  0  0  0
  5 19  2  0  0  0  0
  5 21  1  0  0  0  0
  6 21  2  0  0  0  0
  7 24  2  0  0  0  0
  7 31  1  0  0  0  0
  8  9  1  0  0  0  0
  8 19  1  0  0  0  0
  8 33  1  0  0  0  0
  9 10  1  0  0  0  0
  9 34  1  0  0  0  0
  9 35  1  0  0  0  0
 10 11  1  0  0  0  0
 10 36  1  0  0  0  0
 10 37  1  0  0  0  0
 11 38  1  0  0  0  0
 11 39  1  0  0  0  0
 12 14  1  0  0  0  0
 12 15  1  0  0  0  0
 12 40  1  0  0  0  0
 13 20  1  0  0  0  0
 13 41  1  0  0  0  0
 13 42  1  0  0  0  0
 14 16  1  0  0  0  0
 14 43  1  0  0  0  0
 14 44  1  0  0  0  0
 15 17  1  0  0  0  0
 15 45  1  0  0  0  0
 15 46  1  0  0  0  0
 16 18  1  0  0  0  0
 16 47  1  0  0  0  0
 16 48  1  0  0  0  0
 17 18  1  0  0  0  0
 17 49  1  0  0  0  0
 17 50  1  0  0  0  0
 18 51  1  0  0  0  0
 18 52  1  0  0  0  0
 20 22  2  0  0  0  0
 20 23  1  0  0  0  0
 21 25  1  0  0  0  0
 22 26  1  0  0  0  0
 22 53  1  0  0  0  0
 23 27  2  0  0  0  0
 23 54  1  0  0  0  0
 24 28  1  0  0  0  0
 25 29  1  0  0  0  0
 25 31  2  0  0  0  0
 26 30  2  0  0  0  0
 26 55  1  0  0  0  0
 27 30  1  0  0  0  0
 27 56  1  0  0  0  0
 28 29  2  0  0  0  0
 28 57  1  0  0  0  0
 29 58  1  0  0  0  0
 31 59  1  0  0  0  0
 32 60  1  0  0  0  0
 32 61  1  0  0  0  0
 32 62  1  0  0  0  0
M  END
> <PUBCHEM_COMPOUND_CID>
45783576

> <PUBCHEM_CONFORMER_RMSD>
1.2

> <PUBCHEM_CONFORMER_DIVERSEORDER>
1
16
4
7
39
35
48
25
55
54
47
10
63
22
52
28
62
53
42
41
51
17
57
3
21
30
31
32
19
49
29
38
13
44
61
14
27
33
11
15
20
56
2
23
5
45
36
18
43
12
46
9
34
50
8
59
24
37
58
40
26
6
60

> <PUBCHEM_MMFF94_PARTIAL_CHARGES>
32
1 -0.36
11 0.27
12 0.28
13 0.41
19 0.3
2 -0.02
20 -0.14
21 0.46
22 -0.15
23 -0.15
24 0.39
25 0.05
26 -0.15
27 -0.15
28 -0.15
29 -0.15
3 -0.36
30 0.08
31 0.16
32 0.28
4 -0.81
5 -0.57
53 0.15
54 0.15
55 0.15
56 0.15
57 0.15
58 0.15
59 0.15
6 -0.41
7 -0.62
8 0.45

> <PUBCHEM_EFFECTIVE_ROTOR_COUNT>
9.2

> <PUBCHEM_PHARMACOPHORE_FEATURES>
8
1 3 acceptor
1 4 cation
3 5 6 21 cation
5 2 5 6 19 21 rings
5 4 8 9 10 11 rings
6 12 14 15 16 17 18 rings
6 20 22 23 26 27 30 rings
6 7 24 25 28 29 31 rings

> <PUBCHEM_HEAVY_ATOM_COUNT>
32

> <PUBCHEM_ATOM_DEF_STEREO_COUNT>
1

> <PUBCHEM_ATOM_UDEF_STEREO_COUNT>
0

> <PUBCHEM_BOND_DEF_STEREO_COUNT>
0

> <PUBCHEM_BOND_UDEF_STEREO_COUNT>
0

> <PUBCHEM_ISOTOPIC_ATOM_COUNT>
0

> <PUBCHEM_COMPONENT_COUNT>
1

> <PUBCHEM_CACTVS_TAUTO_COUNT>
1

> <PUBCHEM_CONFORMER_ID>
02BA9A1800000001

> <PUBCHEM_MMFF94_ENERGY>
72.8165

> <PUBCHEM_FEATURE_SELFOVERLAP>
40.599

> <PUBCHEM_SHAPE_FINGERPRINT>
10190108 129 18335693924545999690
10439779 11 17988648532003594873
10688039 33 18113889447157052820
11135926 11 17970901387776376436
11399939 17 17026573786850241595
11545043 162 16805590457081790103
11578080 2 17315096569102396674
12422481 6 18272363131672827913
12633257 1 18042394901661231479
13692114 37 17836367052067813705
13782708 43 17022899060635392379
13965767 371 17986934419208433610
14294032 229 16916224532850733695
14950920 106 18260267482229934891
15420108 30 17772175677772747580
15840311 113 17203337650764525755
15968369 153 18130498627326517293
17980427 23 17560221630805181638
1979834 28 17988650678811541519
21033648 29 17561360669318117267
21304253 335 17561363976278950239
21304303 94 8574716814728474780
21421861 104 18409445904055648884
22033318 11 18265913384117872433
22149856 69 17131011857758290611
249057 25 18129649924666363703
3472631 163 15482383252674299802
3680242 22 18407479959604982507
392239 28 18259984881892554419
4112364 45 17274536645973791425
4144715 1 18340505399945043523
44280116 191 12815204211468543235
5104073 3 18338526343455361243
513202 73 17894907404814260429
513532 50 16415493639846656180
5283268 108 18409443670619712572
5951187 136 16414923070716236424
6086070 43 18042659790276228711
7064713 232 17632003234750547566

> <PUBCHEM_SHAPE_MULTIPOLES>
621.01
15.48
3.73
2.31
23.42
3.38
-0.16
-4.91
-13.06
-3
1.11
-0.48
-0.91
-2.14

> <PUBCHEM_SHAPE_SELFOVERLAP>
1339.212

> <PUBCHEM_SHAPE_VOLUME>
340.6

> <PUBCHEM_COORDINATE_TYPE>
2
5
10

$$$$
