11885303
  -OEChem-12032416213D

 52 56  0     1  0  0  0  0  0999 V2000
   -7.4037   -1.4883   -0.7311 Cl  0  0  0  0  0  0  0  0  0  0  0  0
   -1.7843    1.8919   -1.4872 O   0  0  0  0  0  0  0  0  0  0  0  0
    2.5263   -1.8743   -0.6499 O   0  0  0  0  0  0  0  0  0  0  0  0
    0.6847   -3.5113    1.2424 O   0  0  0  0  0  0  0  0  0  0  0  0
    3.0491    0.8575   -0.6411 N   0  0  2  0  0  0  0  0  0  0  0  0
    0.0890    1.9144   -0.0987 N   0  0  0  0  0  0  0  0  0  0  0  0
    2.2182    3.2229   -0.6676 C   0  0  1  0  0  0  0  0  0  0  0  0
    2.1051    1.9299    1.4086 C   0  0  2  0  0  0  0  0  0  0  0  0
    2.3852    3.3195    0.8430 C   0  0  0  0  0  0  0  0  0  0  0  0
    3.2063    2.1869   -1.2440 C   0  0  0  0  0  0  0  0  0  0  0  0
    3.1212    0.9211    0.8264 C   0  0  0  0  0  0  0  0  0  0  0  0
    0.7556    2.8815   -0.9826 C   0  0  0  0  0  0  0  0  0  0  0  0
    0.6860    1.4956    1.0927 C   0  0  0  0  0  0  0  0  0  0  0  0
    4.0356   -0.0794   -1.1733 C   0  0  0  0  0  0  0  0  0  0  0  0
    0.0135    0.7004    1.9398 C   0  0  0  0  0  0  0  0  0  0  0  0
   -1.2127    1.5168   -0.4619 C   0  0  0  0  0  0  0  0  0  0  0  0
   -1.9285    0.5975    0.4911 C   0  0  0  0  0  0  0  0  0  0  0  0
   -1.3106    0.2423    1.6276 C   0  0  0  0  0  0  0  0  0  0  0  0
    3.8071   -1.4672   -0.6396 C   0  0  0  0  0  0  0  0  0  0  0  0
   -3.2764    0.0843    0.1898 C   0  0  0  0  0  0  0  0  0  0  0  0
    4.6527   -2.3986   -0.1446 C   0  0  0  0  0  0  0  0  0  0  0  0
    2.5457   -3.1317   -0.1352 C   0  0  0  0  0  0  0  0  0  0  0  0
    3.8301   -3.5003    0.1911 C   0  0  0  0  0  0  0  0  0  0  0  0
   -4.4033    0.7922    0.6095 C   0  0  0  0  0  0  0  0  0  0  0  0
   -3.4275   -1.1106   -0.5150 C   0  0  0  0  0  0  0  0  0  0  0  0
    1.2478   -3.8137   -0.0358 C   0  0  0  0  0  0  0  0  0  0  0  0
   -5.6793    0.3059    0.3249 C   0  0  0  0  0  0  0  0  0  0  0  0
   -4.7036   -1.5967   -0.7997 C   0  0  0  0  0  0  0  0  0  0  0  0
   -5.8294   -0.8885   -0.3797 C   0  0  0  0  0  0  0  0  0  0  0  0
    2.4518    4.1924   -1.1250 H   0  0  0  0  0  0  0  0  0  0  0  0
    2.2451    1.9715    2.4969 H   0  0  0  0  0  0  0  0  0  0  0  0
    1.6976    4.0629    1.2654 H   0  0  0  0  0  0  0  0  0  0  0  0
    3.4027    3.6404    1.0975 H   0  0  0  0  0  0  0  0  0  0  0  0
    3.0501    2.1182   -2.3279 H   0  0  0  0  0  0  0  0  0  0  0  0
    4.2302    2.5549   -1.0914 H   0  0  0  0  0  0  0  0  0  0  0  0
    4.1317    1.2113    1.1465 H   0  0  0  0  0  0  0  0  0  0  0  0
    2.9133   -0.0540    1.2823 H   0  0  0  0  0  0  0  0  0  0  0  0
    0.1600    3.8023   -0.9147 H   0  0  0  0  0  0  0  0  0  0  0  0
    0.6552    2.5341   -2.0186 H   0  0  0  0  0  0  0  0  0  0  0  0
    5.0587    0.2419   -0.9390 H   0  0  0  0  0  0  0  0  0  0  0  0
    3.9513   -0.1313   -2.2662 H   0  0  0  0  0  0  0  0  0  0  0  0
    0.4565    0.3551    2.8681 H   0  0  0  0  0  0  0  0  0  0  0  0
   -1.7814   -0.4203    2.3481 H   0  0  0  0  0  0  0  0  0  0  0  0
    5.7239   -2.3182   -0.0298 H   0  0  0  0  0  0  0  0  0  0  0  0
    4.1376   -4.4442    0.6180 H   0  0  0  0  0  0  0  0  0  0  0  0
   -4.3025    1.7252    1.1588 H   0  0  0  0  0  0  0  0  0  0  0  0
   -2.5594   -1.6737   -0.8492 H   0  0  0  0  0  0  0  0  0  0  0  0
    0.5558   -3.4722   -0.8119 H   0  0  0  0  0  0  0  0  0  0  0  0
    1.3642   -4.8986   -0.1172 H   0  0  0  0  0  0  0  0  0  0  0  0
   -6.5477    0.8685    0.6582 H   0  0  0  0  0  0  0  0  0  0  0  0
   -4.8053   -2.5288   -1.3497 H   0  0  0  0  0  0  0  0  0  0  0  0
   -0.1750   -3.9637    1.2869 H   0  0  0  0  0  0  0  0  0  0  0  0
  1 29  1  0  0  0  0
  2 16  2  0  0  0  0
  3 19  1  0  0  0  0
  3 22  1  0  0  0  0
  4 26  1  0  0  0  0
  4 52  1  0  0  0  0
  5 10  1  0  0  0  0
  5 11  1  0  0  0  0
  5 14  1  0  0  0  0
  6 12  1  0  0  0  0
  6 13  1  0  0  0  0
  6 16  1  0  0  0  0
  7  9  1  0  0  0  0
  7 10  1  0  0  0  0
  7 12  1  0  0  0  0
  7 30  1  0  0  0  0
  8  9  1  0  0  0  0
  8 11  1  0  0  0  0
  8 13  1  0  0  0  0
  8 31  1  0  0  0  0
  9 32  1  0  0  0  0
  9 33  1  0  0  0  0
 10 34  1  0  0  0  0
 10 35  1  0  0  0  0
 11 36  1  0  0  0  0
 11 37  1  0  0  0  0
 12 38  1  0  0  0  0
 12 39  1  0  0  0  0
 13 15  2  0  0  0  0
 14 19  1  0  0  0  0
 14 40  1  0  0  0  0
 14 41  1  0  0  0  0
 15 18  1  0  0  0  0
 15 42  1  0  0  0  0
 16 17  1  0  0  0  0
 17 18  2  0  0  0  0
 17 20  1  0  0  0  0
 18 43  1  0  0  0  0
 19 21  2  0  0  0  0
 20 24  2  0  0  0  0
 20 25  1  0  0  0  0
 21 23  1  0  0  0  0
 21 44  1  0  0  0  0
 22 23  2  0  0  0  0
 22 26  1  0  0  0  0
 23 45  1  0  0  0  0
 24 27  1  0  0  0  0
 24 46  1  0  0  0  0
 25 28  2  0  0  0  0
 25 47  1  0  0  0  0
 26 48  1  0  0  0  0
 26 49  1  0  0  0  0
 27 29  2  0  0  0  0
 27 50  1  0  0  0  0
 28 29  1  0  0  0  0
 28 51  1  0  0  0  0
M  END
> <PUBCHEM_COMPOUND_CID>
11885303

> <PUBCHEM_CONFORMER_RMSD>
0.8

> <PUBCHEM_CONFORMER_DIVERSEORDER>
1
5
13
16
12
7
8
11
14
9
15
6
2
4
10
3

> <PUBCHEM_MMFF94_PARTIAL_CHARGES>
36
1 -0.18
10 0.27
11 0.27
12 0.3
13 -0.03
14 0.45
15 -0.15
16 0.62
17 -0.01
18 -0.15
19 -0.04
2 -0.57
20 0.03
21 -0.15
22 -0.04
23 -0.15
24 -0.15
25 -0.15
26 0.46
27 -0.15
28 -0.15
29 0.18
3 -0.28
4 -0.68
42 0.15
43 0.15
44 0.15
45 0.15
46 0.15
47 0.15
5 -0.81
50 0.15
51 0.15
52 0.4
6 -0.47
8 0.14

> <PUBCHEM_EFFECTIVE_ROTOR_COUNT>
5

> <PUBCHEM_PHARMACOPHORE_FEATURES>
10
1 2 acceptor
1 3 acceptor
1 4 acceptor
1 4 donor
1 5 cation
5 3 19 21 22 23 rings
6 20 24 25 27 28 29 rings
6 5 7 8 9 10 11 rings
6 6 13 15 16 17 18 rings
6 6 7 8 9 12 13 rings

> <PUBCHEM_HEAVY_ATOM_COUNT>
29

> <PUBCHEM_ATOM_DEF_STEREO_COUNT>
2

> <PUBCHEM_ATOM_UDEF_STEREO_COUNT>
0

> <PUBCHEM_BOND_DEF_STEREO_COUNT>
0

> <PUBCHEM_BOND_UDEF_STEREO_COUNT>
0

> <PUBCHEM_ISOTOPIC_ATOM_COUNT>
0

> <PUBCHEM_COMPONENT_COUNT>
1

> <PUBCHEM_CACTVS_TAUTO_COUNT>
1

> <PUBCHEM_CONFORMER_ID>
00B55AF700000001

> <PUBCHEM_MMFF94_ENERGY>
64.5411

> <PUBCHEM_FEATURE_SELFOVERLAP>
52.301

> <PUBCHEM_SHAPE_FINGERPRINT>
11135609 149 18264745732379861653
114674 6 18409163333566761762
11796584 16 17560530598490013565
12107183 9 18055646023264671113
12166972 35 17969792878149865174
12717326 68 17612010604824104410
13150687 139 17898027943663483492
13533116 47 18272652398316195441
13583140 156 17560787884100714961
1361 2 18335985388519173485
13631057 29 18122633748007343214
13773456 30 18049160261379762968
13911987 19 18046094750712399796
14068700 675 18270965627257123674
14347332 77 18343018879283653217
14931854 50 18338248080713268190
15001296 14 17844516902718992671
15324884 4 17538595461833495480
15664445 248 17167866391217751900
17093844 170 18194398016546493168
17138139 8 17557982033009330750
17492 54 18261975010892237574
17818456 19 17915754072019857009
19026451 147 18340487768598060122
20567600 247 18342174475422065447
20764821 26 18192996139005534910
20775438 99 18265881639666868819
20775530 9 18195242213838519086
21285901 2 17822003242182591389
21304303 94 18335699506974972531
23559900 14 18340477899063231841
23569914 152 17614245933795827527
238 59 18334586771385277274
25222932 49 16700037491086356469
27425 322 16589148431794312675
3004659 81 17989213654787928717
338550 245 18341045340951376263
345986 75 17703511008576393865
4340502 62 17774153655893842720
444735 86 17913473916879731551
46194498 28 17967532410632805821
463206 1 18337679628579672978
484989 97 18191604131594302594
513532 50 18040988583318716169
5309563 4 18339360743229820862
59682541 52 18409160039859407543
6443956 14 18412264995612796048
70251023 43 18336264557256611161

> <PUBCHEM_SHAPE_MULTIPOLES>
571.11
12.22
4.71
1.38
22.52
2.58
0.29
7.16
-3.19
-6.62
-0.12
-0.32
-0.58
-0.6

> <PUBCHEM_SHAPE_SELFOVERLAP>
1249.301

> <PUBCHEM_SHAPE_VOLUME>
309.1

> <PUBCHEM_COORDINATE_TYPE>
2
5
10

$$$$
