26745534
  -OEChem-12032416183D

 39 41  0     1  0  0  0  0  0999 V2000
   -2.7107    2.6994    0.1770 O   0  0  0  0  0  0  0  0  0  0  0  0
   -1.0431    1.8195    1.5118 O   0  0  0  0  0  0  0  0  0  0  0  0
    1.4283    2.0917   -1.4987 O   0  0  0  0  0  0  0  0  0  0  0  0
    0.0554    0.4888   -0.4739 N   0  0  0  0  0  0  0  0  0  0  0  0
   -1.7233   -2.6546    0.5166 N   0  0  0  0  0  0  0  0  0  0  0  0
   -3.3875   -1.8644   -0.7462 N   0  0  0  0  0  0  0  0  0  0  0  0
   -1.1910    1.2217   -0.8191 C   0  0  1  0  0  0  0  0  0  0  0  0
   -2.3164    0.3350   -1.3930 C   0  0  0  0  0  0  0  0  0  0  0  0
   -0.0442   -0.7480    0.3543 C   0  0  0  0  0  0  0  0  0  0  0  0
   -1.3167   -1.4342    0.0653 C   0  0  0  0  0  0  0  0  0  0  0  0
   -2.3551   -0.9699   -0.7023 C   0  0  0  0  0  0  0  0  0  0  0  0
   -1.6141    1.9314    0.4355 C   0  0  0  0  0  0  0  0  0  0  0  0
    1.2844    1.0754   -0.8206 C   0  0  0  0  0  0  0  0  0  0  0  0
   -2.9763   -2.8697    0.0002 C   0  0  0  0  0  0  0  0  0  0  0  0
   -0.9938   -3.5559    1.3749 C   0  0  0  0  0  0  0  0  0  0  0  0
    2.5177    0.4384   -0.3375 C   0  0  0  0  0  0  0  0  0  0  0  0
    3.1441   -0.5413   -1.1079 C   0  0  0  0  0  0  0  0  0  0  0  0
    3.0612    0.8128    0.8914 C   0  0  0  0  0  0  0  0  0  0  0  0
   -3.2225    3.4357    1.2924 C   0  0  0  0  0  0  0  0  0  0  0  0
    4.3143   -1.1467   -0.6494 C   0  0  0  0  0  0  0  0  0  0  0  0
    4.2314    0.2073    1.3499 C   0  0  0  0  0  0  0  0  0  0  0  0
    4.8579   -0.7722    0.5793 C   0  0  0  0  0  0  0  0  0  0  0  0
   -0.9541    2.0051   -1.5491 H   0  0  0  0  0  0  0  0  0  0  0  0
   -2.1041    0.1438   -2.4526 H   0  0  0  0  0  0  0  0  0  0  0  0
   -3.2954    0.8225   -1.3432 H   0  0  0  0  0  0  0  0  0  0  0  0
    0.0213   -0.4594    1.4080 H   0  0  0  0  0  0  0  0  0  0  0  0
    0.7956   -1.4112    0.1328 H   0  0  0  0  0  0  0  0  0  0  0  0
   -3.5380   -3.7720    0.2009 H   0  0  0  0  0  0  0  0  0  0  0  0
   -0.0884   -3.8726    0.8512 H   0  0  0  0  0  0  0  0  0  0  0  0
   -0.7401   -3.0270    2.2971 H   0  0  0  0  0  0  0  0  0  0  0  0
   -1.6151   -4.4251    1.6049 H   0  0  0  0  0  0  0  0  0  0  0  0
    2.7286   -0.8409   -2.0666 H   0  0  0  0  0  0  0  0  0  0  0  0
    2.5803    1.5743    1.4998 H   0  0  0  0  0  0  0  0  0  0  0  0
   -4.0925    4.0045    0.9539 H   0  0  0  0  0  0  0  0  0  0  0  0
   -2.4673    4.1355    1.6628 H   0  0  0  0  0  0  0  0  0  0  0  0
   -3.5375    2.7507    2.0854 H   0  0  0  0  0  0  0  0  0  0  0  0
    4.8018   -1.9098   -1.2490 H   0  0  0  0  0  0  0  0  0  0  0  0
    4.6545    0.4984    2.3069 H   0  0  0  0  0  0  0  0  0  0  0  0
    5.7689   -1.2436    0.9363 H   0  0  0  0  0  0  0  0  0  0  0  0
  1 12  1  0  0  0  0
  1 19  1  0  0  0  0
  2 12  2  0  0  0  0
  3 13  2  0  0  0  0
  4  7  1  0  0  0  0
  4  9  1  0  0  0  0
  4 13  1  0  0  0  0
  5 10  1  0  0  0  0
  5 14  1  0  0  0  0
  5 15  1  0  0  0  0
  6 11  1  0  0  0  0
  6 14  2  0  0  0  0
  7  8  1  0  0  0  0
  7 12  1  0  0  0  0
  7 23  1  0  0  0  0
  8 11  1  0  0  0  0
  8 24  1  0  0  0  0
  8 25  1  0  0  0  0
  9 10  1  0  0  0  0
  9 26  1  0  0  0  0
  9 27  1  0  0  0  0
 10 11  2  0  0  0  0
 13 16  1  0  0  0  0
 14 28  1  0  0  0  0
 15 29  1  0  0  0  0
 15 30  1  0  0  0  0
 15 31  1  0  0  0  0
 16 17  2  0  0  0  0
 16 18  1  0  0  0  0
 17 20  1  0  0  0  0
 17 32  1  0  0  0  0
 18 21  2  0  0  0  0
 18 33  1  0  0  0  0
 19 34  1  0  0  0  0
 19 35  1  0  0  0  0
 19 36  1  0  0  0  0
 20 22  2  0  0  0  0
 20 37  1  0  0  0  0
 21 22  1  0  0  0  0
 21 38  1  0  0  0  0
 22 39  1  0  0  0  0
M  END
> <PUBCHEM_COMPOUND_CID>
26745534

> <PUBCHEM_CONFORMER_RMSD>
0.8

> <PUBCHEM_CONFORMER_DIVERSEORDER>
1
4
7
6
5
8
2
3

> <PUBCHEM_MMFF94_PARTIAL_CHARGES>
28
1 -0.43
10 -0.33
11 0.05
12 0.66
13 0.54
14 0.04
15 0.26
16 0.09
17 -0.15
18 -0.15
19 0.28
2 -0.57
20 -0.15
21 -0.15
22 -0.15
28 0.15
3 -0.57
32 0.15
33 0.15
37 0.15
38 0.15
39 0.15
4 -0.66
5 0.05
6 -0.57
7 0.36
8 0.18
9 0.48

> <PUBCHEM_EFFECTIVE_ROTOR_COUNT>
4.8

> <PUBCHEM_PHARMACOPHORE_FEATURES>
6
1 2 acceptor
1 3 acceptor
3 5 6 14 cation
5 5 6 10 11 14 rings
6 16 17 18 20 21 22 rings
6 4 7 8 9 10 11 rings

> <PUBCHEM_HEAVY_ATOM_COUNT>
22

> <PUBCHEM_ATOM_DEF_STEREO_COUNT>
1

> <PUBCHEM_ATOM_UDEF_STEREO_COUNT>
0

> <PUBCHEM_BOND_DEF_STEREO_COUNT>
0

> <PUBCHEM_BOND_UDEF_STEREO_COUNT>
0

> <PUBCHEM_ISOTOPIC_ATOM_COUNT>
0

> <PUBCHEM_COMPONENT_COUNT>
1

> <PUBCHEM_CACTVS_TAUTO_COUNT>
1

> <PUBCHEM_CONFORMER_ID>
01981ABE00000001

> <PUBCHEM_MMFF94_ENERGY>
58.0132

> <PUBCHEM_FEATURE_SELFOVERLAP>
30.55

> <PUBCHEM_SHAPE_FINGERPRINT>
10366900 7 18129936918491082192
11315181 36 18336255796214391016
11578080 2 15121784103983239185
12363563 72 18196373838615130958
12506688 2 17831586735526899150
12553582 1 18122641705526681759
12788726 201 18338810025205952403
13134695 92 17838612611240016975
13140716 1 18119815964954290514
13583140 156 17203315707454759600
14178342 30 18410290277240217454
14223421 5 18199465640006655392
14289901 80 17560221614284480588
14866123 147 18337957770719953251
15099037 8 18262521514904186124
15420108 30 17764022463776846409
16752209 62 18041542724394615235
16945 1 17968647341293283863
19591789 44 17617101304498292990
20197701 30 18126003763530302809
20510252 161 18339354266271302467
20600515 1 17684047608186271881
20832881 197 18194113252200463911
21339142 149 18201991097539730709
21452121 199 17976529834478332612
21524375 3 17913216351716665437
23184049 29 18262235654918619604
23419403 2 17834637820180591389
23557571 272 18266448992039857194
23558518 356 18410296947076891704
23559900 14 18265321979979409060
25147074 1 18115040691998218636
3027735 51 18410290290025581179
4340502 62 18055364544024764753
58807428 26 18120660132275639737
59755656 520 18197497316392325717
6992083 37 18186805746870194908
81228 2 18411142475903036169
9709674 26 18201998807417334534
9981440 41 16772660002051323096

> <PUBCHEM_SHAPE_MULTIPOLES>
420.2
7.57
3.76
1.4
8.38
0.64
-0.1
0.74
-0.79
-5.39
-1.57
0.11
-0.31
-0.64

> <PUBCHEM_SHAPE_SELFOVERLAP>
909.008

> <PUBCHEM_SHAPE_VOLUME>
229.6

> <PUBCHEM_COORDINATE_TYPE>
2
5
10

$$$$
