75536590
  -OEChem-12032416303D

 36 37  0     1  0  0  0  0  0999 V2000
    4.7115   -0.8743    0.9302 S   0  0  0  0  0  0  0  0  0  0  0  0
   -1.1528    1.2622   -0.1225 O   0  0  0  0  0  0  0  0  0  0  0  0
   -2.6337   -2.0000    0.1434 O   0  0  0  0  0  0  0  0  0  0  0  0
    2.0024   -1.8756    0.3305 O   0  0  0  0  0  0  0  0  0  0  0  0
   -4.6800    0.3800   -0.0132 N   0  0  0  0  0  0  0  0  0  0  0  0
    1.2469   -0.0920   -0.9466 N   0  0  0  0  0  0  0  0  0  0  0  0
   -3.2824    0.3411    0.3855 C   0  0  1  0  0  0  0  0  0  0  0  0
   -2.4632   -0.6916   -0.3661 C   0  0  1  0  0  0  0  0  0  0  0  0
   -1.0510   -0.1714   -0.1337 C   0  0  1  0  0  0  0  0  0  0  0  0
   -2.5352    1.6211    0.0485 C   0  0  0  0  0  0  0  0  0  0  0  0
   -0.0667   -0.6077   -1.2042 C   0  0  0  0  0  0  0  0  0  0  0  0
   -5.3405   -0.8958    0.2788 C   0  0  0  0  0  0  0  0  0  0  0  0
   -5.3833    1.4761    0.6593 C   0  0  0  0  0  0  0  0  0  0  0  0
    2.1904   -0.7783   -0.1882 C   0  0  0  0  0  0  0  0  0  0  0  0
    3.4958   -0.0968    0.0084 C   0  0  0  0  0  0  0  0  0  0  0  0
    3.9080    1.1317   -0.4593 C   0  0  0  0  0  0  0  0  0  0  0  0
    5.2396    1.4384   -0.0558 C   0  0  0  0  0  0  0  0  0  0  0  0
    5.7943    0.4329    0.7050 C   0  0  0  0  0  0  0  0  0  0  0  0
   -3.2000    0.1506    1.4662 H   0  0  0  0  0  0  0  0  0  0  0  0
   -2.7107   -0.6924   -1.4352 H   0  0  0  0  0  0  0  0  0  0  0  0
   -0.6812   -0.4804    0.8529 H   0  0  0  0  0  0  0  0  0  0  0  0
   -2.8667    2.0645   -0.8977 H   0  0  0  0  0  0  0  0  0  0  0  0
   -2.6119    2.3791    0.8342 H   0  0  0  0  0  0  0  0  0  0  0  0
   -0.3639   -0.2155   -2.1831 H   0  0  0  0  0  0  0  0  0  0  0  0
   -0.0228   -1.7003   -1.2669 H   0  0  0  0  0  0  0  0  0  0  0  0
   -2.4197   -1.9885    1.0917 H   0  0  0  0  0  0  0  0  0  0  0  0
   -4.9899   -1.6904   -0.3863 H   0  0  0  0  0  0  0  0  0  0  0  0
   -5.2084   -1.2077    1.3211 H   0  0  0  0  0  0  0  0  0  0  0  0
   -6.4178   -0.8209    0.0870 H   0  0  0  0  0  0  0  0  0  0  0  0
   -5.3303    1.3924    1.7510 H   0  0  0  0  0  0  0  0  0  0  0  0
   -4.9881    2.4533    0.3635 H   0  0  0  0  0  0  0  0  0  0  0  0
   -6.4410    1.4858    0.3708 H   0  0  0  0  0  0  0  0  0  0  0  0
    1.4677    0.8192   -1.3335 H   0  0  0  0  0  0  0  0  0  0  0  0
    3.3048    1.7971   -1.0625 H   0  0  0  0  0  0  0  0  0  0  0  0
    5.7640    2.3501   -0.3105 H   0  0  0  0  0  0  0  0  0  0  0  0
    6.7836    0.4036    1.1394 H   0  0  0  0  0  0  0  0  0  0  0  0
  1 15  1  0  0  0  0
  1 18  1  0  0  0  0
  2  9  1  0  0  0  0
  2 10  1  0  0  0  0
  3  8  1  0  0  0  0
  3 26  1  0  0  0  0
  4 14  2  0  0  0  0
  5  7  1  0  0  0  0
  5 12  1  0  0  0  0
  5 13  1  0  0  0  0
  6 11  1  0  0  0  0
  6 14  1  0  0  0  0
  6 33  1  0  0  0  0
  7  8  1  0  0  0  0
  7 10  1  0  0  0  0
  7 19  1  0  0  0  0
  8  9  1  0  0  0  0
  8 20  1  0  0  0  0
  9 11  1  0  0  0  0
  9 21  1  0  0  0  0
 10 22  1  0  0  0  0
 10 23  1  0  0  0  0
 11 24  1  0  0  0  0
 11 25  1  0  0  0  0
 12 27  1  0  0  0  0
 12 28  1  0  0  0  0
 12 29  1  0  0  0  0
 13 30  1  0  0  0  0
 13 31  1  0  0  0  0
 13 32  1  0  0  0  0
 14 15  1  0  0  0  0
 15 16  2  0  0  0  0
 16 17  1  0  0  0  0
 16 34  1  0  0  0  0
 17 18  2  0  0  0  0
 17 35  1  0  0  0  0
 18 36  1  0  0  0  0
M  END
> <PUBCHEM_COMPOUND_CID>
75536590

> <PUBCHEM_CONFORMER_RMSD>
0.8

> <PUBCHEM_CONFORMER_DIVERSEORDER>
1
57
31
54
14
38
55
11
20
39
10
34
16
28
44
3
51
37
48
49
29
18
13
42
46
19
53
26
23
15
35
56
36
25
22
6
9
12
8
45
41
7
43
4
32
30
21
2
52
47
33
40
50
5
27
24
17

> <PUBCHEM_MMFF94_PARTIAL_CHARGES>
23
1 -0.08
10 0.28
11 0.3
12 0.27
13 0.27
14 0.71
15 -0.05
16 -0.15
17 -0.15
18 -0.11
2 -0.56
26 0.4
3 -0.68
33 0.37
34 0.15
35 0.15
36 0.15
4 -0.57
5 -0.81
6 -0.73
7 0.27
8 0.28
9 0.28

> <PUBCHEM_EFFECTIVE_ROTOR_COUNT>
6

> <PUBCHEM_PHARMACOPHORE_FEATURES>
8
1 2 acceptor
1 3 acceptor
1 3 donor
1 4 acceptor
1 5 cation
1 6 donor
5 1 15 16 17 18 rings
5 2 7 8 9 10 rings

> <PUBCHEM_HEAVY_ATOM_COUNT>
18

> <PUBCHEM_ATOM_DEF_STEREO_COUNT>
3

> <PUBCHEM_ATOM_UDEF_STEREO_COUNT>
0

> <PUBCHEM_BOND_DEF_STEREO_COUNT>
0

> <PUBCHEM_BOND_UDEF_STEREO_COUNT>
0

> <PUBCHEM_ISOTOPIC_ATOM_COUNT>
0

> <PUBCHEM_COMPONENT_COUNT>
1

> <PUBCHEM_CACTVS_TAUTO_COUNT>
2

> <PUBCHEM_CONFORMER_ID>
048098CE00000001

> <PUBCHEM_MMFF94_ENERGY>
35.6723

> <PUBCHEM_FEATURE_SELFOVERLAP>
40.596

> <PUBCHEM_SHAPE_FINGERPRINT>
10354089 29 18334856126402063232
10670039 82 17346053186171325128
11128504 68 12175617382503705994
117890 112 18272371936656530049
11796584 16 11818996270708226360
12107183 9 17687459070918922936
12236239 1 18259703402029733650
12251169 10 18335422361145480324
12507560 40 18337670798258261718
12596602 18 18113899364030414897
12670543 26 9799695866223249859
12730499 353 15554452915918171222
12916748 109 16702306754310738192
13288520 33 10881398733949461847
13533116 47 17749666295145378746
13668630 136 12540693691915891824
13897977 58 18343303673610538309
14251752 14 9583249322614658323
14341114 176 18335703828091379856
14341114 328 18408884049091761922
15048467 5 17846782875919271609
17980427 23 18412547634942349981
1798214 20 8718829791033186764
1813 80 16515408430647843334
18222031 100 15936413321406933238
19050596 39 18335419080154527782
19489759 90 16081082667500921013
19784866 240 11530481103827764180
20645477 56 17489864947064249196
20645477 70 16128388021599000334
21065198 48 18334854983376214786
21150785 3 14692561118567068185
212847 35 18131628985498213256
21652331 79 18411980260914176052
221357 26 11600006535398401986
22224240 67 17240480351857139920
22854114 59 18113334211301965740
23272321 79 18341895216273978565
23402539 116 18411131433963903693
23402655 69 11455890269681009914
23559900 14 17984996903015256367
26918003 58 17386007286254440705
300161 21 18408882906867837917
32948 21 9583520910307667138
34797466 226 17131280171883801324
351380 180 18408885139892298152
351380 3 11458424643825031640
3545911 37 18341615902108663246
449060 50 18409448063970323318
465052 167 12396304742471601456
5104073 3 18336273327812165875
5374978 207 18335420153869990936
542803 24 17918275337722333729
960060 61 11167941394592272088

> <PUBCHEM_SHAPE_MULTIPOLES>
346.71
14.12
1.68
0.88
1.65
0.04
0.04
-3.34
-3.76
-0.45
-0.13
0.34
0.06
-0.61

> <PUBCHEM_SHAPE_SELFOVERLAP>
702.378

> <PUBCHEM_SHAPE_VOLUME>
205

> <PUBCHEM_COORDINATE_TYPE>
2
5
10

$$$$
