75536782
  -OEChem-12032416323D

 48 50  0     1  0  0  0  0  0999 V2000
   -5.4842   -2.0682    0.2375 F   0  0  0  0  0  0  0  0  0  0  0  0
    0.0347   -1.1629   -0.0708 O   0  0  0  0  0  0  0  0  0  0  0  0
   -0.8974    2.1701    0.8925 O   0  0  0  0  0  0  0  0  0  0  0  0
    3.6599    1.3354    0.6813 O   0  0  0  0  0  0  0  0  0  0  0  0
   -3.2967    0.2809    0.1505 N   0  0  0  0  0  0  0  0  0  0  0  0
    2.5588   -0.6311    1.2011 N   0  0  0  0  0  0  0  0  0  0  0  0
    4.7156   -0.7421    0.3983 N   0  0  0  0  0  0  0  0  0  0  0  0
   -1.8875    0.2261   -0.2032 C   0  0  1  0  0  0  0  0  0  0  0  0
   -0.9667    0.7574    0.8796 C   0  0  1  0  0  0  0  0  0  0  0  0
    0.3586    0.1277    0.4726 C   0  0  1  0  0  0  0  0  0  0  0  0
   -1.3730   -1.1949   -0.3650 C   0  0  0  0  0  0  0  0  0  0  0  0
    1.3283   -0.0314    1.6300 C   0  0  0  0  0  0  0  0  0  0  0  0
   -4.1405    0.0841   -1.0221 C   0  0  0  0  0  0  0  0  0  0  0  0
   -5.6043    0.1212   -0.6719 C   0  0  0  0  0  0  0  0  0  0  0  0
    3.6628    0.1084    0.7469 C   0  0  0  0  0  0  0  0  0  0  0  0
   -6.2036   -0.9750   -0.0519 C   0  0  0  0  0  0  0  0  0  0  0  0
   -6.3613    1.2546   -0.9686 C   0  0  0  0  0  0  0  0  0  0  0  0
   -7.5600   -0.9379    0.2716 C   0  0  0  0  0  0  0  0  0  0  0  0
   -7.7177    1.2917   -0.6451 C   0  0  0  0  0  0  0  0  0  0  0  0
   -8.3171    0.1955   -0.0250 C   0  0  0  0  0  0  0  0  0  0  0  0
    5.9909   -0.3859   -0.0993 C   0  0  0  0  0  0  0  0  0  0  0  0
    6.9251   -1.3780   -0.3970 C   0  0  0  0  0  0  0  0  0  0  0  0
    6.3142    0.9570   -0.2921 C   0  0  0  0  0  0  0  0  0  0  0  0
    8.1829   -1.0269   -0.8874 C   0  0  0  0  0  0  0  0  0  0  0  0
    7.5719    1.3082   -0.7825 C   0  0  0  0  0  0  0  0  0  0  0  0
    8.5063    0.3162   -1.0801 C   0  0  0  0  0  0  0  0  0  0  0  0
   -1.7033    0.8047   -1.1195 H   0  0  0  0  0  0  0  0  0  0  0  0
   -1.2818    0.4098    1.8714 H   0  0  0  0  0  0  0  0  0  0  0  0
    0.8351    0.7088   -0.3280 H   0  0  0  0  0  0  0  0  0  0  0  0
   -1.8356   -1.8891    0.3462 H   0  0  0  0  0  0  0  0  0  0  0  0
   -1.5229   -1.5862   -1.3757 H   0  0  0  0  0  0  0  0  0  0  0  0
    0.9116   -0.6984    2.3926 H   0  0  0  0  0  0  0  0  0  0  0  0
    1.5396    0.9380    2.0937 H   0  0  0  0  0  0  0  0  0  0  0  0
   -3.5028    1.1944    0.5559 H   0  0  0  0  0  0  0  0  0  0  0  0
   -3.9305   -0.8826   -1.4972 H   0  0  0  0  0  0  0  0  0  0  0  0
   -3.9282    0.8508   -1.7787 H   0  0  0  0  0  0  0  0  0  0  0  0
   -0.6190    2.4706    0.0109 H   0  0  0  0  0  0  0  0  0  0  0  0
    2.6287   -1.6440    1.2153 H   0  0  0  0  0  0  0  0  0  0  0  0
   -5.9075    2.1171   -1.4495 H   0  0  0  0  0  0  0  0  0  0  0  0
    4.5534   -1.7394    0.5130 H   0  0  0  0  0  0  0  0  0  0  0  0
   -8.0263   -1.7916    0.7546 H   0  0  0  0  0  0  0  0  0  0  0  0
   -8.3071    2.1744   -0.8755 H   0  0  0  0  0  0  0  0  0  0  0  0
   -9.3731    0.2244    0.2270 H   0  0  0  0  0  0  0  0  0  0  0  0
    6.6860   -2.4283   -0.2514 H   0  0  0  0  0  0  0  0  0  0  0  0
    5.6459    1.7807   -0.0850 H   0  0  0  0  0  0  0  0  0  0  0  0
    8.9105   -1.7992   -1.1192 H   0  0  0  0  0  0  0  0  0  0  0  0
    7.8251    2.3537   -0.9331 H   0  0  0  0  0  0  0  0  0  0  0  0
    9.4855    0.5896   -1.4620 H   0  0  0  0  0  0  0  0  0  0  0  0
  1 16  1  0  0  0  0
  2 10  1  0  0  0  0
  2 11  1  0  0  0  0
  3  9  1  0  0  0  0
  3 37  1  0  0  0  0
  4 15  2  0  0  0  0
  5  8  1  0  0  0  0
  5 13  1  0  0  0  0
  5 34  1  0  0  0  0
  6 12  1  0  0  0  0
  6 15  1  0  0  0  0
  6 38  1  0  0  0  0
  7 15  1  0  0  0  0
  7 21  1  0  0  0  0
  7 40  1  0  0  0  0
  8  9  1  0  0  0  0
  8 11  1  0  0  0  0
  8 27  1  0  0  0  0
  9 10  1  0  0  0  0
  9 28  1  0  0  0  0
 10 12  1  0  0  0  0
 10 29  1  0  0  0  0
 11 30  1  0  0  0  0
 11 31  1  0  0  0  0
 12 32  1  0  0  0  0
 12 33  1  0  0  0  0
 13 14  1  0  0  0  0
 13 35  1  0  0  0  0
 13 36  1  0  0  0  0
 14 16  1  0  0  0  0
 14 17  2  0  0  0  0
 16 18  2  0  0  0  0
 17 19  1  0  0  0  0
 17 39  1  0  0  0  0
 18 20  1  0  0  0  0
 18 41  1  0  0  0  0
 19 20  2  0  0  0  0
 19 42  1  0  0  0  0
 20 43  1  0  0  0  0
 21 22  2  0  0  0  0
 21 23  1  0  0  0  0
 22 24  1  0  0  0  0
 22 44  1  0  0  0  0
 23 25  2  0  0  0  0
 23 45  1  0  0  0  0
 24 26  2  0  0  0  0
 24 46  1  0  0  0  0
 25 26  1  0  0  0  0
 25 47  1  0  0  0  0
 26 48  1  0  0  0  0
M  END
> <PUBCHEM_COMPOUND_CID>
75536782

> <PUBCHEM_CONFORMER_RMSD>
1.2

> <PUBCHEM_CONFORMER_DIVERSEORDER>
1
90
57
31
108
78
107
10
60
110
65
116
30
4
86
15
109
115
95
89
6
52
92
54
35
62
73
76
94
99
29
46
61
9
102
38
97
72
20
53
101
40
48
64
83
12
100
82
50
14
113
47
91
32
104
106
68
114
21
22
85
25
79
70
34
41
56
96
75
77
18
23
55
59
28
2
88
27
87
8
103
71
42
63
17
3
26
93
66
74
80
84
98
43
81
69
105
5
33
24
11
111
51
13
67
45
19
39
49
16
37
58
7
44
112
36

> <PUBCHEM_MMFF94_PARTIAL_CHARGES>
39
1 -0.19
10 0.28
11 0.28
12 0.3
13 0.41
14 -0.14
15 0.69
16 0.19
17 -0.15
18 -0.15
19 -0.15
2 -0.56
20 -0.15
21 0.12
22 -0.15
23 -0.15
24 -0.15
25 -0.15
26 -0.15
3 -0.68
34 0.36
37 0.4
38 0.37
39 0.15
4 -0.57
40 0.37
41 0.15
42 0.15
43 0.15
44 0.15
45 0.15
46 0.15
47 0.15
48 0.15
5 -0.9
6 -0.73
7 -0.55
8 0.27
9 0.28

> <PUBCHEM_EFFECTIVE_ROTOR_COUNT>
9

> <PUBCHEM_PHARMACOPHORE_FEATURES>
11
1 2 acceptor
1 3 acceptor
1 3 donor
1 4 acceptor
1 5 cation
1 5 donor
1 6 donor
1 7 donor
5 2 8 9 10 11 rings
6 14 16 17 18 19 20 rings
6 21 22 23 24 25 26 rings

> <PUBCHEM_HEAVY_ATOM_COUNT>
26

> <PUBCHEM_ATOM_DEF_STEREO_COUNT>
3

> <PUBCHEM_ATOM_UDEF_STEREO_COUNT>
0

> <PUBCHEM_BOND_DEF_STEREO_COUNT>
0

> <PUBCHEM_BOND_UDEF_STEREO_COUNT>
0

> <PUBCHEM_ISOTOPIC_ATOM_COUNT>
0

> <PUBCHEM_COMPONENT_COUNT>
1

> <PUBCHEM_CACTVS_TAUTO_COUNT>
3

> <PUBCHEM_CONFORMER_ID>
0480998E00000001

> <PUBCHEM_MMFF94_ENERGY>
60.6963

> <PUBCHEM_FEATURE_SELFOVERLAP>
55.872

> <PUBCHEM_SHAPE_FINGERPRINT>
10 15 7925909283859389042
10066227 49 18201160941229980446
10162869 55 13118289208759412619
10299344 5 17846500330941608038
106641 1 12324247156802120165
10669705 176 18336546014811164724
11315181 36 17675922093916141677
11638347 137 9223236252207875236
12082328 90 18340485578048285653
12592606 108 16415472775032272981
13673619 4 16774076263343752880
13685833 64 15267341821555966298
14216079 64 14764634097261844076
14251764 46 18343864416594256782
14347424 109 12679453201987438842
14428016 248 16588030103877896853
14849402 71 16732989751286172237
14856354 85 18408039637679742543
14933364 13 18334292072156704765
150020 25 18335144198058293378
15183329 4 17060618897509694590
15690457 1 12103559779881488740
15849732 13 18260548935103737022
16994733 274 16226319331377661181
1754911 235 17967249797389196959
18335252 98 18186523206694238931
19301679 30 11095624260265822684
20105231 36 18343022203235269707
20554085 129 14418128552550554352
21095086 128 17704068525981903903
21150785 3 18113056038912492980
21267235 1 18202002135726948929
21403212 168 11240002243450973829
21792961 116 17988362581005725339
221357 26 18413107252360046424
22224240 67 14345794950443162600
23559900 14 17631719599637415576
23569917 315 15625647432637337077
23576562 1 18265602372835371525
246663 6 17131835365210350538
24771293 8 13695586620544520831
28498 318 15985105197626095092
3146122 72 17631165485371674344
335352 9 18341607127949394127
4073 2 17530966878187117195
4107672 100 18410007732948408815
4325135 7 17530683212855660439
4339292 15 11531062798221947201
439807 62 17775005661968551958
444769 64 16559028312001080719
5219985 9 15985104111294756144
5283156 175 18059858355310208988
5470011 282 18411421713750132750
5758199 1 16515401859046972419
59682541 35 14201122305983187237
6394761 36 16271927116704822399
67123 10 18113057142487129007
9689198 14 18186519899447666462

> <PUBCHEM_SHAPE_MULTIPOLES>
495.24
30.31
1.51
1.1
8.55
0.06
0.14
0.24
-10.62
-0.35
-0.02
0.61
0.13
0.53

> <PUBCHEM_SHAPE_SELFOVERLAP>
1048.051

> <PUBCHEM_SHAPE_VOLUME>
277.1

> <PUBCHEM_COORDINATE_TYPE>
2
5
10

$$$$
