75536263
  -OEChem-12032416303D

 55 58  0     1  0  0  0  0  0999 V2000
   -6.8062    0.0148    1.1543 F   0  0  0  0  0  0  0  0  0  0  0  0
    2.6575   -1.1379    0.8484 O   0  0  0  0  0  0  0  0  0  0  0  0
    5.4540   -1.3540    1.7545 O   0  0  0  0  0  0  0  0  0  0  0  0
   -0.6268    4.7476   -0.5911 O   0  0  0  0  0  0  0  0  0  0  0  0
   -1.4817   -1.6131   -1.7345 O   0  0  0  0  0  0  0  0  0  0  0  0
    1.6639    1.5325    0.8380 N   0  0  0  0  0  0  0  0  0  0  0  0
   -0.1809   -2.0412   -1.9705 N   0  0  0  0  0  0  0  0  0  0  0  0
    3.5260   -0.0383    1.1511 C   0  0  1  0  0  0  0  0  0  0  0  0
    4.9868   -0.3740    0.8237 C   0  0  2  0  0  0  0  0  0  0  0  0
    2.7311   -1.6188   -0.4960 C   0  0  1  0  0  0  0  0  0  0  0  0
    5.1503   -0.9501   -0.5802 C   0  0  0  0  0  0  0  0  0  0  0  0
    4.1506   -2.0762   -0.8277 C   0  0  0  0  0  0  0  0  0  0  0  0
    3.0438    1.2452    0.4783 C   0  0  0  0  0  0  0  0  0  0  0  0
    1.0575    2.4624   -0.1116 C   0  0  0  0  0  0  0  0  0  0  0  0
    1.7451   -2.7736   -0.6243 C   0  0  0  0  0  0  0  0  0  0  0  0
   -0.4698    2.3885   -0.0281 C   0  0  0  0  0  0  0  0  0  0  0  0
    1.5276    3.8976    0.1455 C   0  0  0  0  0  0  0  0  0  0  0  0
   -1.1018    3.4442   -0.9286 C   0  0  0  0  0  0  0  0  0  0  0  0
    0.7850    4.8696   -0.7646 C   0  0  0  0  0  0  0  0  0  0  0  0
    0.3280   -2.2844   -0.7594 C   0  0  0  0  0  0  0  0  0  0  0  0
   -0.5960   -2.0302    0.2688 C   0  0  0  0  0  0  0  0  0  0  0  0
   -1.7170   -1.6107   -0.3974 C   0  0  0  0  0  0  0  0  0  0  0  0
   -3.0284   -1.1907    0.0028 C   0  0  0  0  0  0  0  0  0  0  0  0
   -3.3678   -1.1570    1.3555 C   0  0  0  0  0  0  0  0  0  0  0  0
   -3.9653   -0.8168   -0.9607 C   0  0  0  0  0  0  0  0  0  0  0  0
   -4.6438   -0.7498    1.7445 C   0  0  0  0  0  0  0  0  0  0  0  0
   -5.2414   -0.4096   -0.5716 C   0  0  0  0  0  0  0  0  0  0  0  0
   -5.5805   -0.3760    0.7809 C   0  0  0  0  0  0  0  0  0  0  0  0
    3.4477    0.0959    2.2380 H   0  0  0  0  0  0  0  0  0  0  0  0
    5.6192    0.5119    0.9493 H   0  0  0  0  0  0  0  0  0  0  0  0
    2.4399   -0.8186   -1.1869 H   0  0  0  0  0  0  0  0  0  0  0  0
    6.1655   -1.3392   -0.7208 H   0  0  0  0  0  0  0  0  0  0  0  0
    4.9992   -0.1610   -1.3259 H   0  0  0  0  0  0  0  0  0  0  0  0
    4.2157   -2.4070   -1.8705 H   0  0  0  0  0  0  0  0  0  0  0  0
    4.4206   -2.9325   -0.1966 H   0  0  0  0  0  0  0  0  0  0  0  0
    3.1506    1.1509   -0.6075 H   0  0  0  0  0  0  0  0  0  0  0  0
    3.6866    2.0754    0.7930 H   0  0  0  0  0  0  0  0  0  0  0  0
    1.3240    2.1783   -1.1395 H   0  0  0  0  0  0  0  0  0  0  0  0
    1.1343    0.6603    0.8300 H   0  0  0  0  0  0  0  0  0  0  0  0
    1.8089   -3.4346    0.2495 H   0  0  0  0  0  0  0  0  0  0  0  0
    1.9817   -3.3815   -1.5071 H   0  0  0  0  0  0  0  0  0  0  0  0
   -0.7887    2.5691    1.0069 H   0  0  0  0  0  0  0  0  0  0  0  0
   -0.8285    1.3944   -0.3159 H   0  0  0  0  0  0  0  0  0  0  0  0
    2.6055    4.0010   -0.0196 H   0  0  0  0  0  0  0  0  0  0  0  0
    1.3245    4.1657    1.1906 H   0  0  0  0  0  0  0  0  0  0  0  0
   -2.1886    3.4412   -0.7980 H   0  0  0  0  0  0  0  0  0  0  0  0
   -0.8951    3.2427   -1.9862 H   0  0  0  0  0  0  0  0  0  0  0  0
    1.0389    4.7036   -1.8182 H   0  0  0  0  0  0  0  0  0  0  0  0
    1.0633    5.8986   -0.5157 H   0  0  0  0  0  0  0  0  0  0  0  0
    6.3929   -1.5184    1.5617 H   0  0  0  0  0  0  0  0  0  0  0  0
   -0.4559   -2.1385    1.3344 H   0  0  0  0  0  0  0  0  0  0  0  0
   -2.6595   -1.4420    2.1291 H   0  0  0  0  0  0  0  0  0  0  0  0
   -3.7390   -0.8292   -2.0238 H   0  0  0  0  0  0  0  0  0  0  0  0
   -4.9087   -0.7233    2.7974 H   0  0  0  0  0  0  0  0  0  0  0  0
   -5.9713   -0.1183   -1.3211 H   0  0  0  0  0  0  0  0  0  0  0  0
  1 28  1  0  0  0  0
  2  8  1  0  0  0  0
  2 10  1  0  0  0  0
  3  9  1  0  0  0  0
  3 50  1  0  0  0  0
  4 18  1  0  0  0  0
  4 19  1  0  0  0  0
  5  7  1  0  0  0  0
  5 22  1  0  0  0  0
  6 13  1  0  0  0  0
  6 14  1  0  0  0  0
  6 39  1  0  0  0  0
  7 20  2  0  0  0  0
  8  9  1  0  0  0  0
  8 13  1  0  0  0  0
  8 29  1  0  0  0  0
  9 11  1  0  0  0  0
  9 30  1  0  0  0  0
 10 12  1  0  0  0  0
 10 15  1  0  0  0  0
 10 31  1  0  0  0  0
 11 12  1  0  0  0  0
 11 32  1  0  0  0  0
 11 33  1  0  0  0  0
 12 34  1  0  0  0  0
 12 35  1  0  0  0  0
 13 36  1  0  0  0  0
 13 37  1  0  0  0  0
 14 16  1  0  0  0  0
 14 17  1  0  0  0  0
 14 38  1  0  0  0  0
 15 20  1  0  0  0  0
 15 40  1  0  0  0  0
 15 41  1  0  0  0  0
 16 18  1  0  0  0  0
 16 42  1  0  0  0  0
 16 43  1  0  0  0  0
 17 19  1  0  0  0  0
 17 44  1  0  0  0  0
 17 45  1  0  0  0  0
 18 46  1  0  0  0  0
 18 47  1  0  0  0  0
 19 48  1  0  0  0  0
 19 49  1  0  0  0  0
 20 21  1  0  0  0  0
 21 22  2  0  0  0  0
 21 51  1  0  0  0  0
 22 23  1  0  0  0  0
 23 24  2  0  0  0  0
 23 25  1  0  0  0  0
 24 26  1  0  0  0  0
 24 52  1  0  0  0  0
 25 27  2  0  0  0  0
 25 53  1  0  0  0  0
 26 28  2  0  0  0  0
 26 54  1  0  0  0  0
 27 28  1  0  0  0  0
 27 55  1  0  0  0  0
M  END
> <PUBCHEM_COMPOUND_CID>
75536263

> <PUBCHEM_CONFORMER_RMSD>
1

> <PUBCHEM_CONFORMER_DIVERSEORDER>
1
77
93
100
27
56
83
90
43
65
32
49
79
38
67
35
95
84
52
117
113
111
121
75
87
25
103
59
47
8
10
54
108
12
89
44
71
51
92
88
98
73
26
85
24
14
16
105
62
115
80
53
109
34
76
31
119
45
55
13
15
104
97
114
68
78
58
36
19
3
81
99
86
17
94
110
40
116
48
91
29
60
74
18
72
23
22
21
4
112
118
33
30
6
107
63
7
102
5
46
28
50
120
82
69
9
57
11
41
42
106
39
64
66
61
37
70
96
20
2
101

> <PUBCHEM_MMFF94_PARTIAL_CHARGES>
31
1 -0.19
10 0.28
13 0.27
14 0.27
15 0.18
18 0.28
19 0.28
2 -0.56
20 0.11
21 -0.15
22 0.09
23 0.05
24 -0.15
25 -0.15
26 -0.15
27 -0.15
28 0.19
3 -0.68
39 0.36
4 -0.56
5 -0.02
50 0.4
51 0.15
52 0.15
53 0.15
54 0.15
55 0.15
6 -0.9
7 -0.41
8 0.28
9 0.28

> <PUBCHEM_EFFECTIVE_ROTOR_COUNT>
8.4

> <PUBCHEM_PHARMACOPHORE_FEATURES>
11
1 2 acceptor
1 3 acceptor
1 3 donor
1 4 acceptor
1 6 cation
1 6 donor
1 7 acceptor
5 5 7 20 21 22 rings
6 2 8 9 10 11 12 rings
6 23 24 25 26 27 28 rings
6 4 14 16 17 18 19 rings

> <PUBCHEM_HEAVY_ATOM_COUNT>
28

> <PUBCHEM_ATOM_DEF_STEREO_COUNT>
3

> <PUBCHEM_ATOM_UDEF_STEREO_COUNT>
0

> <PUBCHEM_BOND_DEF_STEREO_COUNT>
0

> <PUBCHEM_BOND_UDEF_STEREO_COUNT>
0

> <PUBCHEM_ISOTOPIC_ATOM_COUNT>
0

> <PUBCHEM_COMPONENT_COUNT>
1

> <PUBCHEM_CACTVS_TAUTO_COUNT>
1

> <PUBCHEM_CONFORMER_ID>
0480978700000001

> <PUBCHEM_MMFF94_ENERGY>
45.4064

> <PUBCHEM_FEATURE_SELFOVERLAP>
55.824

> <PUBCHEM_SHAPE_FINGERPRINT>
10006869 2 17977091371925752783
10670039 82 18265633000321005846
10688039 33 18335141942957538606
11135926 11 18120085345767676724
12156800 1 17910147657428295428
12166972 35 18201719604583948307
12293681 4 18260270741783149666
12422481 6 18128549179928955329
12553582 1 18338227280233950372
12633257 1 18334010631313464091
12788726 201 18260834757167625490
13075007 39 18043265706750156851
13402501 40 18339074887592255029
13583140 156 18187922919815481315
14020679 6 18115031908668967619
14363568 33 18191600845722398253
14790565 3 17543912768600644252
14840074 17 18343585169893137444
150020 26 18193001641312042841
15081414 286 18338797922273390564
151778 21 18048040967264503229
15276724 80 18342173376553905692
18785283 64 18192722352346708099
20739085 24 18339361984755028696
21285901 2 18059020488790214654
21360442 67 17181651776329521141
21360443 126 18044654192288921269
21641784 216 18191329116701313460
21796203 349 18192176938671456360
22182313 1 17986101921455620094
469060 322 18337966583828658600
474 4 18272369806316276139
513202 73 18194402191471639058
5283268 108 18410294688055481962
6086070 43 18044343189491132623

> <PUBCHEM_SHAPE_MULTIPOLES>
535.51
11.6
5.25
1.45
8.17
9.5
-0.1
-6.49
-4.76
-2.57
1.97
0.35
-0.6
0.37

> <PUBCHEM_SHAPE_SELFOVERLAP>
1135.617

> <PUBCHEM_SHAPE_VOLUME>
299.5

> <PUBCHEM_COORDINATE_TYPE>
2
5
10

$$$$
