45783416
  -OEChem-12032416263D

 56 60  0     1  0  0  0  0  0999 V2000
   -0.9534    0.7260    3.0091 O   0  0  0  0  0  0  0  0  0  0  0  0
    1.7328   -1.7518    0.1552 O   0  0  0  0  0  0  0  0  0  0  0  0
    0.1140   -3.0704   -1.6827 O   0  0  0  0  0  0  0  0  0  0  0  0
   -3.0766   -0.1941    0.1543 N   0  0  1  0  0  0  0  0  0  0  0  0
   -0.2383   -0.1553    1.0782 N   0  0  0  0  0  0  0  0  0  0  0  0
   -0.5188    3.4470   -0.7209 N   0  0  0  0  0  0  0  0  0  0  0  0
    0.4403    0.8659    3.0097 N   0  0  0  0  0  0  0  0  0  0  0  0
    3.8747   -0.8924    0.1407 N   0  0  0  0  0  0  0  0  0  0  0  0
   -2.7398   -0.1524    1.5913 C   0  0  1  0  0  0  0  0  0  0  0  0
   -3.1952   -1.5173    2.1396 C   0  0  0  0  0  0  0  0  0  0  0  0
   -4.2181   -1.0999    0.0233 C   0  0  0  0  0  0  0  0  0  0  0  0
   -3.8291   -2.2308    0.9539 C   0  0  0  0  0  0  0  0  0  0  0  0
   -3.3528    1.1209   -0.4095 C   0  0  0  0  0  0  0  0  0  0  0  0
   -1.2698    0.1154    1.8372 C   0  0  0  0  0  0  0  0  0  0  0  0
   -2.0871    1.8762   -0.7170 C   0  0  0  0  0  0  0  0  0  0  0  0
   -1.0427    1.4600   -1.5894 C   0  0  0  0  0  0  0  0  0  0  0  0
   -1.7360    3.1012   -0.1984 C   0  0  0  0  0  0  0  0  0  0  0  0
   -0.0714    2.4632   -1.5738 C   0  0  0  0  0  0  0  0  0  0  0  0
    0.7883    0.3233    1.8391 C   0  0  0  0  0  0  0  0  0  0  0  0
   -0.8299    0.3224   -2.3932 C   0  0  0  0  0  0  0  0  0  0  0  0
    1.1068    2.3855   -2.3249 C   0  0  0  0  0  0  0  0  0  0  0  0
    0.3439    0.2310   -3.1500 C   0  0  0  0  0  0  0  0  0  0  0  0
    2.1519    0.2425    1.4011 C   0  0  0  0  0  0  0  0  0  0  0  0
    1.2960    1.2479   -3.1148 C   0  0  0  0  0  0  0  0  0  0  0  0
    2.6005   -0.7774    0.5774 C   0  0  0  0  0  0  0  0  0  0  0  0
    3.0700    1.2066    1.8023 C   0  0  0  0  0  0  0  0  0  0  0  0
    4.3902    1.1224    1.3736 C   0  0  0  0  0  0  0  0  0  0  0  0
    4.7387    0.0630    0.5513 C   0  0  0  0  0  0  0  0  0  0  0  0
    2.2698   -2.7637   -0.6878 C   0  0  0  0  0  0  0  0  0  0  0  0
    1.1750   -3.7562   -1.0287 C   0  0  0  0  0  0  0  0  0  0  0  0
   -0.9337   -3.9584   -2.0464 C   0  0  0  0  0  0  0  0  0  0  0  0
   -3.3243    0.6236    2.1055 H   0  0  0  0  0  0  0  0  0  0  0  0
   -2.3829   -2.1166    2.5650 H   0  0  0  0  0  0  0  0  0  0  0  0
   -3.9485   -1.3674    2.9227 H   0  0  0  0  0  0  0  0  0  0  0  0
   -5.1507   -0.6315    0.3624 H   0  0  0  0  0  0  0  0  0  0  0  0
   -4.3487   -1.4524   -1.0045 H   0  0  0  0  0  0  0  0  0  0  0  0
   -4.6849   -2.8448    1.2494 H   0  0  0  0  0  0  0  0  0  0  0  0
   -3.0899   -2.8841    0.4737 H   0  0  0  0  0  0  0  0  0  0  0  0
   -4.0174    1.7126    0.2333 H   0  0  0  0  0  0  0  0  0  0  0  0
   -3.8799    1.0072   -1.3673 H   0  0  0  0  0  0  0  0  0  0  0  0
   -2.2409    3.7579    0.4963 H   0  0  0  0  0  0  0  0  0  0  0  0
   -0.0196    4.3002   -0.5107 H   0  0  0  0  0  0  0  0  0  0  0  0
   -1.5614   -0.4794   -2.4351 H   0  0  0  0  0  0  0  0  0  0  0  0
    1.8493    3.1758   -2.2969 H   0  0  0  0  0  0  0  0  0  0  0  0
    0.5139   -0.6448   -3.7706 H   0  0  0  0  0  0  0  0  0  0  0  0
    2.2014    1.1554   -3.7092 H   0  0  0  0  0  0  0  0  0  0  0  0
    2.7841    2.0382    2.4414 H   0  0  0  0  0  0  0  0  0  0  0  0
    5.1228    1.8634    1.6719 H   0  0  0  0  0  0  0  0  0  0  0  0
    5.7553   -0.0478    0.1889 H   0  0  0  0  0  0  0  0  0  0  0  0
    3.0872   -3.2919   -0.1829 H   0  0  0  0  0  0  0  0  0  0  0  0
    2.6358   -2.3046   -1.6147 H   0  0  0  0  0  0  0  0  0  0  0  0
    1.5720   -4.5418   -1.6809 H   0  0  0  0  0  0  0  0  0  0  0  0
    0.7867   -4.2091   -0.1091 H   0  0  0  0  0  0  0  0  0  0  0  0
   -0.5693   -4.7153   -2.7475 H   0  0  0  0  0  0  0  0  0  0  0  0
   -1.3561   -4.4381   -1.1581 H   0  0  0  0  0  0  0  0  0  0  0  0
   -1.7208   -3.3787   -2.5361 H   0  0  0  0  0  0  0  0  0  0  0  0
  1  7  1  0  0  0  0
  1 14  1  0  0  0  0
  2 25  1  0  0  0  0
  2 29  1  0  0  0  0
  3 30  1  0  0  0  0
  3 31  1  0  0  0  0
  4  9  1  0  0  0  0
  4 11  1  0  0  0  0
  4 13  1  0  0  0  0
  5 14  2  0  0  0  0
  5 19  1  0  0  0  0
  6 17  1  0  0  0  0
  6 18  1  0  0  0  0
  6 42  1  0  0  0  0
  7 19  2  0  0  0  0
  8 25  1  0  0  0  0
  8 28  2  0  0  0  0
  9 10  1  0  0  0  0
  9 14  1  0  0  0  0
  9 32  1  0  0  0  0
 10 12  1  0  0  0  0
 10 33  1  0  0  0  0
 10 34  1  0  0  0  0
 11 12  1  0  0  0  0
 11 35  1  0  0  0  0
 11 36  1  0  0  0  0
 12 37  1  0  0  0  0
 12 38  1  0  0  0  0
 13 15  1  0  0  0  0
 13 39  1  0  0  0  0
 13 40  1  0  0  0  0
 15 16  1  0  0  0  0
 15 17  2  0  0  0  0
 16 18  1  0  0  0  0
 16 20  2  0  0  0  0
 17 41  1  0  0  0  0
 18 21  2  0  0  0  0
 19 23  1  0  0  0  0
 20 22  1  0  0  0  0
 20 43  1  0  0  0  0
 21 24  1  0  0  0  0
 21 44  1  0  0  0  0
 22 24  2  0  0  0  0
 22 45  1  0  0  0  0
 23 25  2  0  0  0  0
 23 26  1  0  0  0  0
 24 46  1  0  0  0  0
 26 27  2  0  0  0  0
 26 47  1  0  0  0  0
 27 28  1  0  0  0  0
 27 48  1  0  0  0  0
 28 49  1  0  0  0  0
 29 30  1  0  0  0  0
 29 50  1  0  0  0  0
 29 51  1  0  0  0  0
 30 52  1  0  0  0  0
 30 53  1  0  0  0  0
 31 54  1  0  0  0  0
 31 55  1  0  0  0  0
 31 56  1  0  0  0  0
M  END
> <PUBCHEM_COMPOUND_CID>
45783416

> <PUBCHEM_CONFORMER_RMSD>
1

> <PUBCHEM_CONFORMER_DIVERSEORDER>
1
146
125
85
117
133
22
57
9
162
37
111
63
101
80
95
177
71
96
30
70
67
176
28
54
55
78
159
115
59
100
180
50
79
97
77
39
86
38
88
26
120
72
174
181
20
110
53
7
154
40
66
178
135
169
127
147
42
27
164
112
152
10
151
137
74
119
124
14
41
84
48
121
161
51
18
173
172
90
141
73
89
33
91
56
4
165
130
81
167
183
132
170
122
153
94
45
58
128
34
129
160
76
103
11
93
158
17
99
113
44
139
134
114
175
62
131
60
156
2
92
168
19
15
69
98
3
52
6
155
171
166
102
36
107
5
148
31
13
87
83
143
163
64
49
29
118
47
43
144
126
150
8
182
104
32
109
149
136
105
116
46
12
138
61
35
24
108
142
140
25
75
23
21
65
157
179
82
68
16
123
106
145

> <PUBCHEM_MMFF94_PARTIAL_CHARGES>
37
1 -0.02
11 0.27
13 0.45
14 0.3
15 -0.18
17 -0.3
18 -0.15
19 0.46
2 -0.36
20 -0.15
21 -0.15
22 -0.15
23 0.05
24 -0.15
25 0.39
26 -0.15
27 -0.15
28 0.16
29 0.28
3 -0.56
30 0.28
31 0.28
4 -0.81
41 0.15
42 0.27
43 0.15
44 0.15
45 0.15
46 0.15
47 0.15
48 0.15
49 0.15
5 -0.57
6 0.03
7 -0.41
8 -0.62
9 0.45

> <PUBCHEM_EFFECTIVE_ROTOR_COUNT>
9

> <PUBCHEM_PHARMACOPHORE_FEATURES>
12
1 2 acceptor
1 3 acceptor
1 4 cation
1 6 cation
1 6 donor
1 8 acceptor
3 5 7 19 cation
5 1 5 7 14 19 rings
5 4 9 10 11 12 rings
5 6 15 16 17 18 rings
6 16 18 20 21 22 24 rings
6 8 23 25 26 27 28 rings

> <PUBCHEM_HEAVY_ATOM_COUNT>
31

> <PUBCHEM_ATOM_DEF_STEREO_COUNT>
1

> <PUBCHEM_ATOM_UDEF_STEREO_COUNT>
0

> <PUBCHEM_BOND_DEF_STEREO_COUNT>
0

> <PUBCHEM_BOND_UDEF_STEREO_COUNT>
0

> <PUBCHEM_ISOTOPIC_ATOM_COUNT>
0

> <PUBCHEM_COMPONENT_COUNT>
1

> <PUBCHEM_CACTVS_TAUTO_COUNT>
1

> <PUBCHEM_CONFORMER_ID>
02BA997800000001

> <PUBCHEM_MMFF94_ENERGY>
60.854

> <PUBCHEM_FEATURE_SELFOVERLAP>
61.043

> <PUBCHEM_SHAPE_FINGERPRINT>
11578080 2 17910704001806436624
12166972 35 14418137335056476922
128993 33 16306819847714354244
133893 2 16517120486005676765
15274700 242 16986600742193339366
16090146 7 18334583456472476171
20600515 1 17313107453308689784
20691752 17 15769515191193500673
20905425 154 16954255574227908049
23557571 272 18186523172202099187
238 59 17838578250847768038
3411729 13 13397259472328066931
35225 105 17273394283130411407
469060 322 17982414326294801390
6287921 2 18335991861267302604
9925002 15 17833547182197451850

> <PUBCHEM_SHAPE_MULTIPOLES>
595.45
6.39
4.02
3.4
1.81
1.49
0.57
1.89
-3.47
-0.88
3.27
0.41
-0.09
0.77

> <PUBCHEM_SHAPE_SELFOVERLAP>
1302.547

> <PUBCHEM_SHAPE_VOLUME>
325.5

> <PUBCHEM_COORDINATE_TYPE>
2
5
10

$$$$
