25389742
  -OEChem-12032416163D

 66 70  0     1  0  0  0  0  0999 V2000
    5.3779    1.1634   -3.3397 Cl  0  0  0  0  0  0  0  0  0  0  0  0
    3.6622    0.4936    2.3080 O   0  0  0  0  0  0  0  0  0  0  0  0
    4.3566   -0.9794    0.6694 O   0  0  0  0  0  0  0  0  0  0  0  0
   -6.6295    2.4878    1.3135 O   0  0  0  0  0  0  0  0  0  0  0  0
    1.1421    0.2479    1.1546 N   0  0  2  0  0  0  0  0  0  0  0  0
   -2.2679    2.4958   -0.2929 N   0  0  0  0  0  0  0  0  0  0  0  0
   -1.8126   -2.0619    0.6385 N   0  0  0  0  0  0  0  0  0  0  0  0
   -5.9315    2.5410   -0.9077 N   0  0  0  0  0  0  0  0  0  0  0  0
   -0.2523   -0.2095    1.5079 C   0  0  1  0  0  0  0  0  0  0  0  0
    1.2012    0.8663   -0.2063 C   0  0  1  0  0  0  0  0  0  0  0  0
   -1.3134    0.8775    1.2942 C   0  0  0  0  0  0  0  0  0  0  0  0
   -1.2845    1.4261   -0.1286 C   0  0  2  0  0  0  0  0  0  0  0  0
    0.1167    1.9546   -0.4140 C   0  0  0  0  0  0  0  0  0  0  0  0
    2.0594   -0.9208    1.3703 C   0  0  1  0  0  0  0  0  0  0  0  0
   -0.5730   -1.5182    0.8269 C   0  0  0  0  0  0  0  0  0  0  0  0
    1.8225   -2.1133    0.4141 C   0  0  0  0  0  0  0  0  0  0  0  0
    0.3633   -2.4071    0.3354 C   0  0  0  0  0  0  0  0  0  0  0  0
    2.5381    1.5217   -0.5456 C   0  0  0  0  0  0  0  0  0  0  0  0
   -0.3350   -3.5188   -0.2061 C   0  0  0  0  0  0  0  0  0  0  0  0
   -1.6977   -3.2771   -0.0037 C   0  0  0  0  0  0  0  0  0  0  0  0
    3.4906   -0.4961    1.3860 C   0  0  0  0  0  0  0  0  0  0  0  0
   -3.6013    1.9456   -0.4817 C   0  0  0  0  0  0  0  0  0  0  0  0
    3.2625    1.0937   -1.6581 C   0  0  0  0  0  0  0  0  0  0  0  0
    3.0345    2.5491    0.2569 C   0  0  0  0  0  0  0  0  0  0  0  0
    0.0538   -4.7120   -0.8472 C   0  0  0  0  0  0  0  0  0  0  0  0
   -2.6905   -4.1746   -0.4128 C   0  0  0  0  0  0  0  0  0  0  0  0
   -4.6104    3.0649   -0.6912 C   0  0  0  0  0  0  0  0  0  0  0  0
   -0.9296   -5.6166   -1.2627 C   0  0  0  0  0  0  0  0  0  0  0  0
    4.4832    1.6932   -1.9684 C   0  0  0  0  0  0  0  0  0  0  0  0
    4.2553    3.1483   -0.0532 C   0  0  0  0  0  0  0  0  0  0  0  0
   -2.2800   -5.3501   -1.0480 C   0  0  0  0  0  0  0  0  0  0  0  0
    4.9796    2.7206   -1.1659 C   0  0  0  0  0  0  0  0  0  0  0  0
    4.9963    0.9974    2.4280 C   0  0  0  0  0  0  0  0  0  0  0  0
   -6.8345    2.2952    0.1180 C   0  0  0  0  0  0  0  0  0  0  0  0
   -8.1522    1.7720   -0.3878 C   0  0  0  0  0  0  0  0  0  0  0  0
   -0.2494   -0.4185    2.5877 H   0  0  0  0  0  0  0  0  0  0  0  0
    1.0020    0.0919   -0.9582 H   0  0  0  0  0  0  0  0  0  0  0  0
   -2.3026    0.4857    1.5543 H   0  0  0  0  0  0  0  0  0  0  0  0
   -1.1196    1.6954    2.0033 H   0  0  0  0  0  0  0  0  0  0  0  0
   -1.4862    0.6245   -0.8515 H   0  0  0  0  0  0  0  0  0  0  0  0
    0.3102    2.8231    0.2312 H   0  0  0  0  0  0  0  0  0  0  0  0
    0.1660    2.3241   -1.4482 H   0  0  0  0  0  0  0  0  0  0  0  0
    1.8857   -1.2939    2.3927 H   0  0  0  0  0  0  0  0  0  0  0  0
    2.3616   -2.9952    0.7815 H   0  0  0  0  0  0  0  0  0  0  0  0
    2.2045   -1.9000   -0.5914 H   0  0  0  0  0  0  0  0  0  0  0  0
   -2.0271    3.0609   -1.1073 H   0  0  0  0  0  0  0  0  0  0  0  0
   -2.6881   -1.6414    0.9173 H   0  0  0  0  0  0  0  0  0  0  0  0
   -3.9132    1.3537    0.3858 H   0  0  0  0  0  0  0  0  0  0  0  0
   -3.6236    1.2789   -1.3535 H   0  0  0  0  0  0  0  0  0  0  0  0
    2.8769    0.2920   -2.2836 H   0  0  0  0  0  0  0  0  0  0  0  0
    2.4881    2.8948    1.1303 H   0  0  0  0  0  0  0  0  0  0  0  0
    1.1030   -4.9337   -1.0207 H   0  0  0  0  0  0  0  0  0  0  0  0
   -3.7425   -3.9692   -0.2454 H   0  0  0  0  0  0  0  0  0  0  0  0
   -4.3534    3.6611   -1.5738 H   0  0  0  0  0  0  0  0  0  0  0  0
   -4.6301    3.7341    0.1769 H   0  0  0  0  0  0  0  0  0  0  0  0
   -0.6347   -6.5379   -1.7582 H   0  0  0  0  0  0  0  0  0  0  0  0
    4.6426    3.9470    0.5726 H   0  0  0  0  0  0  0  0  0  0  0  0
   -3.0273   -6.0671   -1.3784 H   0  0  0  0  0  0  0  0  0  0  0  0
    5.9298    3.1961   -1.3947 H   0  0  0  0  0  0  0  0  0  0  0  0
    4.9418    2.0234    2.8020 H   0  0  0  0  0  0  0  0  0  0  0  0
    5.5356    0.9966    1.4765 H   0  0  0  0  0  0  0  0  0  0  0  0
    5.5381    0.3911    3.1596 H   0  0  0  0  0  0  0  0  0  0  0  0
   -6.2084    2.3419   -1.8647 H   0  0  0  0  0  0  0  0  0  0  0  0
   -7.9895    0.9632   -1.1059 H   0  0  0  0  0  0  0  0  0  0  0  0
   -8.7396    1.3836    0.4488 H   0  0  0  0  0  0  0  0  0  0  0  0
   -8.7045    2.5827   -0.8707 H   0  0  0  0  0  0  0  0  0  0  0  0
  1 29  1  0  0  0  0
  2 21  1  0  0  0  0
  2 33  1  0  0  0  0
  3 21  2  0  0  0  0
  4 34  2  0  0  0  0
  5  9  1  0  0  0  0
  5 10  1  0  0  0  0
  5 14  1  0  0  0  0
  6 12  1  0  0  0  0
  6 22  1  0  0  0  0
  6 46  1  0  0  0  0
  7 15  1  0  0  0  0
  7 20  1  0  0  0  0
  7 47  1  0  0  0  0
  8 27  1  0  0  0  0
  8 34  1  0  0  0  0
  8 63  1  0  0  0  0
  9 11  1  0  0  0  0
  9 15  1  0  0  0  0
  9 36  1  0  0  0  0
 10 13  1  0  0  0  0
 10 18  1  0  0  0  0
 10 37  1  0  0  0  0
 11 12  1  0  0  0  0
 11 38  1  0  0  0  0
 11 39  1  0  0  0  0
 12 13  1  0  0  0  0
 12 40  1  0  0  0  0
 13 41  1  0  0  0  0
 13 42  1  0  0  0  0
 14 16  1  0  0  0  0
 14 21  1  0  0  0  0
 14 43  1  0  0  0  0
 15 17  2  0  0  0  0
 16 17  1  0  0  0  0
 16 44  1  0  0  0  0
 16 45  1  0  0  0  0
 17 19  1  0  0  0  0
 18 23  2  0  0  0  0
 18 24  1  0  0  0  0
 19 20  1  0  0  0  0
 19 25  2  0  0  0  0
 20 26  2  0  0  0  0
 22 27  1  0  0  0  0
 22 48  1  0  0  0  0
 22 49  1  0  0  0  0
 23 29  1  0  0  0  0
 23 50  1  0  0  0  0
 24 30  2  0  0  0  0
 24 51  1  0  0  0  0
 25 28  1  0  0  0  0
 25 52  1  0  0  0  0
 26 31  1  0  0  0  0
 26 53  1  0  0  0  0
 27 54  1  0  0  0  0
 27 55  1  0  0  0  0
 28 31  2  0  0  0  0
 28 56  1  0  0  0  0
 29 32  2  0  0  0  0
 30 32  1  0  0  0  0
 30 57  1  0  0  0  0
 31 58  1  0  0  0  0
 32 59  1  0  0  0  0
 33 60  1  0  0  0  0
 33 61  1  0  0  0  0
 33 62  1  0  0  0  0
 34 35  1  0  0  0  0
 35 64  1  0  0  0  0
 35 65  1  0  0  0  0
 35 66  1  0  0  0  0
M  END
> <PUBCHEM_COMPOUND_CID>
25389742

> <PUBCHEM_CONFORMER_RMSD>
1

> <PUBCHEM_CONFORMER_DIVERSEORDER>
1
32
34
52
63
67
9
6
41
108
4
21
16
18
28
47
84
14
23
65
78
8
12
102
40
51
71
2
53
36
81
70
13
20
69
42
35
75
46
48
101
89
100
107
76
79
105
31
43
7
10
83
61
39
82
30
56
45
96
44
104
11
62
91
33
37
77
26
72
88
86
15
29
57
49
5
94
55
106
19
22
58
17
98
64
80
3
38
54
93
24
103
60
85
99
73
95
25
90
92
66
59
97
68
74
50
87
27

> <PUBCHEM_MMFF94_PARTIAL_CHARGES>
43
1 -0.18
10 0.41
12 0.27
14 0.33
15 -0.33
16 0.18
17 -0.18
18 -0.14
2 -0.43
20 -0.15
21 0.66
22 0.27
23 -0.15
24 -0.15
25 -0.15
26 -0.15
27 0.3
28 -0.15
29 0.18
3 -0.57
30 -0.15
31 -0.15
32 -0.15
33 0.28
34 0.57
35 0.06
4 -0.57
46 0.36
47 0.27
5 -0.81
50 0.15
51 0.15
52 0.15
53 0.15
56 0.15
57 0.15
58 0.15
59 0.15
6 -0.9
63 0.37
7 0.03
8 -0.73
9 0.45

> <PUBCHEM_EFFECTIVE_ROTOR_COUNT>
9.2

> <PUBCHEM_PHARMACOPHORE_FEATURES>
13
1 3 acceptor
1 4 acceptor
1 5 cation
1 6 cation
1 6 donor
1 7 cation
1 7 donor
1 8 donor
5 7 15 17 19 20 rings
6 18 23 24 29 30 32 rings
6 19 20 25 26 28 31 rings
6 5 9 10 11 12 13 rings
6 5 9 14 15 16 17 rings

> <PUBCHEM_HEAVY_ATOM_COUNT>
35

> <PUBCHEM_ATOM_DEF_STEREO_COUNT>
4

> <PUBCHEM_ATOM_UDEF_STEREO_COUNT>
0

> <PUBCHEM_BOND_DEF_STEREO_COUNT>
0

> <PUBCHEM_BOND_UDEF_STEREO_COUNT>
0

> <PUBCHEM_ISOTOPIC_ATOM_COUNT>
0

> <PUBCHEM_COMPONENT_COUNT>
1

> <PUBCHEM_CACTVS_TAUTO_COUNT>
2

> <PUBCHEM_CONFORMER_ID>
01836AAE00000001

> <PUBCHEM_MMFF94_ENERGY>
72.0386

> <PUBCHEM_FEATURE_SELFOVERLAP>
66.221

> <PUBCHEM_SHAPE_FINGERPRINT>
10190206 1 18118685662721625373
10930396 42 16394899010023812032
10985338 8 18042955476883659137
11445158 3 17896872153981358070
11488393 25 18047770199925806243
11719270 70 18337944577160466969
12788726 201 18046621484662173962
13540713 5 17969490675871448016
13692114 37 18340194250790949043
14294032 229 18338800142517989713
14790565 3 18411133633024270501
14863182 85 18195801873688398049
15324884 4 17250294364791907568
15968369 26 17973721373055154757
16090146 7 18200040542479301386
19319366 153 18057867075359426285
20775438 99 18129929131430792254
21033650 10 17972041611287712078
21197605 99 18333735711310766003
21304303 94 18268161885343374324
21344244 181 18270417000412902213
22149856 69 18268998588566555521
3552219 110 14062392732192707880
46194498 28 18044659690437442213

> <PUBCHEM_SHAPE_MULTIPOLES>
684.62
13.33
7.09
2.02
17.82
11.37
-0.37
-19.79
-3.01
9.14
-3.14
-3.85
-0.41
-1.76

> <PUBCHEM_SHAPE_SELFOVERLAP>
1473.658

> <PUBCHEM_SHAPE_VOLUME>
375.9

> <PUBCHEM_COORDINATE_TYPE>
2
5
10

$$$$
