75367090
  -OEChem-12032416393D

 48 49  0     1  0  0  0  0  0999 V2000
    7.5781   -1.7421   -0.3665 F   0  0  0  0  0  0  0  0  0  0  0  0
   -0.6625   -0.8222    0.3479 O   0  0  0  0  0  0  0  0  0  0  0  0
   -2.0335    2.4314   -0.3154 O   0  0  0  0  0  0  0  0  0  0  0  0
    2.5912    2.1134   -0.5478 O   0  0  0  0  0  0  0  0  0  0  0  0
   -4.1582    0.1681    0.1739 N   0  0  0  0  0  0  0  0  0  0  0  0
    1.7975    0.5372    0.9584 N   0  0  0  0  0  0  0  0  0  0  0  0
   -2.7676    0.1041   -0.2454 C   0  0  1  0  0  0  0  0  0  0  0  0
   -1.8994    1.1937    0.3559 C   0  0  1  0  0  0  0  0  0  0  0  0
   -0.5107    0.5964    0.1733 C   0  0  1  0  0  0  0  0  0  0  0  0
   -2.0594   -1.1488    0.2433 C   0  0  0  0  0  0  0  0  0  0  0  0
   -6.4903   -0.7029   -0.2440 C   0  0  0  0  0  0  0  0  0  0  0  0
   -5.0013   -0.6669   -0.6734 C   0  0  0  0  0  0  0  0  0  0  0  0
    0.5076    1.1297    1.1653 C   0  0  0  0  0  0  0  0  0  0  0  0
   -6.6387   -1.1618    1.2175 C   0  0  0  0  0  0  0  0  0  0  0  0
   -7.3004   -1.6421   -1.1547 C   0  0  0  0  0  0  0  0  0  0  0  0
   -7.0643    0.7212   -0.3702 C   0  0  0  0  0  0  0  0  0  0  0  0
    2.7504    1.0854    0.1052 C   0  0  0  0  0  0  0  0  0  0  0  0
    4.0275    0.3368   -0.0198 C   0  0  0  0  0  0  0  0  0  0  0  0
    4.7841    0.4387   -1.1873 C   0  0  0  0  0  0  0  0  0  0  0  0
    4.4705   -0.4675    1.0303 C   0  0  0  0  0  0  0  0  0  0  0  0
    5.9833   -0.2637   -1.3048 C   0  0  0  0  0  0  0  0  0  0  0  0
    5.6697   -1.1699    0.9128 C   0  0  0  0  0  0  0  0  0  0  0  0
    6.4261   -1.0681   -0.2546 C   0  0  0  0  0  0  0  0  0  0  0  0
   -2.6975    0.1794   -1.3399 H   0  0  0  0  0  0  0  0  0  0  0  0
   -2.1301    1.3409    1.4184 H   0  0  0  0  0  0  0  0  0  0  0  0
   -0.1481    0.7625   -0.8498 H   0  0  0  0  0  0  0  0  0  0  0  0
   -2.3948   -1.4549    1.2409 H   0  0  0  0  0  0  0  0  0  0  0  0
   -2.1821   -1.9969   -0.4371 H   0  0  0  0  0  0  0  0  0  0  0  0
   -4.4764    1.1347    0.1187 H   0  0  0  0  0  0  0  0  0  0  0  0
   -4.9388   -0.3224   -1.7144 H   0  0  0  0  0  0  0  0  0  0  0  0
   -4.6257   -1.6981   -0.6591 H   0  0  0  0  0  0  0  0  0  0  0  0
    0.2150    0.8771    2.1904 H   0  0  0  0  0  0  0  0  0  0  0  0
    0.5905    2.2189    1.0860 H   0  0  0  0  0  0  0  0  0  0  0  0
   -7.6942   -1.2159    1.5078 H   0  0  0  0  0  0  0  0  0  0  0  0
   -6.2035   -2.1573    1.3599 H   0  0  0  0  0  0  0  0  0  0  0  0
   -6.1443   -0.4771    1.9150 H   0  0  0  0  0  0  0  0  0  0  0  0
   -8.3594   -1.6562   -0.8737 H   0  0  0  0  0  0  0  0  0  0  0  0
   -6.9241   -2.6692   -1.0914 H   0  0  0  0  0  0  0  0  0  0  0  0
   -7.2363   -1.3271   -2.2022 H   0  0  0  0  0  0  0  0  0  0  0  0
   -6.9177    1.1211   -1.3800 H   0  0  0  0  0  0  0  0  0  0  0  0
   -8.1424    0.7248   -0.1702 H   0  0  0  0  0  0  0  0  0  0  0  0
   -6.6091    1.4189    0.3405 H   0  0  0  0  0  0  0  0  0  0  0  0
   -1.8291    2.2930   -1.2557 H   0  0  0  0  0  0  0  0  0  0  0  0
    1.9670   -0.3530    1.4141 H   0  0  0  0  0  0  0  0  0  0  0  0
    4.4540    1.0566   -2.0182 H   0  0  0  0  0  0  0  0  0  0  0  0
    3.9281   -0.5503    1.9674 H   0  0  0  0  0  0  0  0  0  0  0  0
    6.5723   -0.1855   -2.2138 H   0  0  0  0  0  0  0  0  0  0  0  0
    6.0188   -1.7909    1.7326 H   0  0  0  0  0  0  0  0  0  0  0  0
  1 23  1  0  0  0  0
  2  9  1  0  0  0  0
  2 10  1  0  0  0  0
  3  8  1  0  0  0  0
  3 43  1  0  0  0  0
  4 17  2  0  0  0  0
  5  7  1  0  0  0  0
  5 12  1  0  0  0  0
  5 29  1  0  0  0  0
  6 13  1  0  0  0  0
  6 17  1  0  0  0  0
  6 44  1  0  0  0  0
  7  8  1  0  0  0  0
  7 10  1  0  0  0  0
  7 24  1  0  0  0  0
  8  9  1  0  0  0  0
  8 25  1  0  0  0  0
  9 13  1  0  0  0  0
  9 26  1  0  0  0  0
 10 27  1  0  0  0  0
 10 28  1  0  0  0  0
 11 12  1  0  0  0  0
 11 14  1  0  0  0  0
 11 15  1  0  0  0  0
 11 16  1  0  0  0  0
 12 30  1  0  0  0  0
 12 31  1  0  0  0  0
 13 32  1  0  0  0  0
 13 33  1  0  0  0  0
 14 34  1  0  0  0  0
 14 35  1  0  0  0  0
 14 36  1  0  0  0  0
 15 37  1  0  0  0  0
 15 38  1  0  0  0  0
 15 39  1  0  0  0  0
 16 40  1  0  0  0  0
 16 41  1  0  0  0  0
 16 42  1  0  0  0  0
 17 18  1  0  0  0  0
 18 19  2  0  0  0  0
 18 20  1  0  0  0  0
 19 21  1  0  0  0  0
 19 45  1  0  0  0  0
 20 22  2  0  0  0  0
 20 46  1  0  0  0  0
 21 23  2  0  0  0  0
 21 47  1  0  0  0  0
 22 23  1  0  0  0  0
 22 48  1  0  0  0  0
M  END
> <PUBCHEM_COMPOUND_CID>
75367090

> <PUBCHEM_CONFORMER_RMSD>
0.8

> <PUBCHEM_CONFORMER_DIVERSEORDER>
1
67
19
63
74
68
95
25
71
92
17
100
44
103
27
50
46
86
41
96
7
84
64
4
54
78
76
80
38
94
77
35
69
75
37
105
3
104
29
47
73
49
59
6
62
32
101
79
51
22
36
99
15
81
10
97
52
53
42
72
93
23
83
13
11
70
43
14
40
85
30
89
60
12
58
45
34
31
21
90
2
102
91
26
18
33
87
9
66
24
82
20
61
48
28
88
55
57
8
56
5
16
39
65
98

> <PUBCHEM_MMFF94_PARTIAL_CHARGES>
26
1 -0.19
10 0.28
12 0.27
13 0.3
17 0.54
18 0.09
19 -0.15
2 -0.56
20 -0.15
21 -0.15
22 -0.15
23 0.19
29 0.36
3 -0.68
4 -0.57
43 0.4
44 0.37
45 0.15
46 0.15
47 0.15
48 0.15
5 -0.9
6 -0.73
7 0.27
8 0.28
9 0.28

> <PUBCHEM_EFFECTIVE_ROTOR_COUNT>
8

> <PUBCHEM_PHARMACOPHORE_FEATURES>
10
1 2 acceptor
1 3 acceptor
1 3 donor
1 4 acceptor
1 5 cation
1 5 donor
1 6 donor
4 11 14 15 16 hydrophobe
5 2 7 8 9 10 rings
6 18 19 20 21 22 23 rings

> <PUBCHEM_HEAVY_ATOM_COUNT>
23

> <PUBCHEM_ATOM_DEF_STEREO_COUNT>
3

> <PUBCHEM_ATOM_UDEF_STEREO_COUNT>
0

> <PUBCHEM_BOND_DEF_STEREO_COUNT>
0

> <PUBCHEM_BOND_UDEF_STEREO_COUNT>
0

> <PUBCHEM_ISOTOPIC_ATOM_COUNT>
0

> <PUBCHEM_COMPONENT_COUNT>
1

> <PUBCHEM_CACTVS_TAUTO_COUNT>
2

> <PUBCHEM_CONFORMER_ID>
047E02B200000001

> <PUBCHEM_MMFF94_ENERGY>
50.7691

> <PUBCHEM_FEATURE_SELFOVERLAP>
50.746

> <PUBCHEM_SHAPE_FINGERPRINT>
10 15 11815895660807730054
10299344 5 18335140891022977411
106641 1 15051726504585313998
11524674 6 16989123175942662287
11963148 33 18341323453085667999
11991303 11 17531245119090876843
12166972 35 17894352202448981421
12236239 1 17530964692006038389
125118 31 11383845865298296579
12730499 353 14273452557277064784
12760667 363 18343022198839374395
13533116 47 18341048618354502880
13668630 136 18342176656980654334
13673619 4 18201719556864820865
13685833 64 17917711305663903346
13782708 43 18131066061029635441
13862211 1 18342736343138491771
13885169 127 18130788919675387937
14251752 14 18410852149367993549
14251764 18 17917996096186743496
14294032 229 18120094983774781589
14347332 77 18337386054521651933
14461889 52 10663813105016642917
15021287 119 15554438618436740481
15048467 5 10953456327913491391
15183329 4 18186801365834364305
15188451 53 17560801009556889130
15348495 7 15267050501897378839
16994733 274 11314292946364330671
17093844 174 13830136079819616011
2026 5 18128261078546896126
21033648 29 12685387313455186884
21150785 3 16298389062792187334
21267235 1 18409452483317552065
21424621 283 11170177728286681927
21781051 124 18261964049761710803
221357 26 17095520695458595204
22224240 67 12607398889040501444
22956985 138 17627525830936669606
23035841 295 18412825807247243827
23522609 53 18125472836452770353
23559900 14 18264767829802229617
246663 6 18410858772218198019
24771293 8 8502657017414846947
28498 318 18272087176135001741
29717793 49 18335423465474438196
3004659 81 18335137605267572384
3472631 163 11747230056347878922
4340502 62 13542469773447383716
445580 37 15574704773730723935
465052 167 18342461477583647948
5758199 1 10953733384028283085
59682541 35 10807924977224369095
59682541 52 17312817161328804922
59755656 215 18409728448115505023
59755656 520 17385720318579639435
6138700 20 18412262831270902127
6438161 24 18334286562062051290

> <PUBCHEM_SHAPE_MULTIPOLES>
438.49
22.51
1.73
1.12
7.44
0.41
-0.01
-12
4.39
0.02
0.11
-0.34
-0.14
-0.35

> <PUBCHEM_SHAPE_SELFOVERLAP>
902.195

> <PUBCHEM_SHAPE_VOLUME>
255.1

> <PUBCHEM_COORDINATE_TYPE>
2
5
10

$$$$
