38026990
  -OEChem-12032416253D

 72 74  0     1  0  0  0  0  0999 V2000
   -3.6201    2.2708    0.9790 S   0  0  0  0  0  0  0  0  0  0  0  0
    2.0033    3.4948   -0.3069 F   0  0  0  0  0  0  0  0  0  0  0  0
    1.2668   -3.3748    0.3735 O   0  0  0  0  0  0  0  0  0  0  0  0
   -3.7911    2.4092    2.4127 O   0  0  0  0  0  0  0  0  0  0  0  0
   -4.4409    3.0457    0.0684 O   0  0  0  0  0  0  0  0  0  0  0  0
    7.0264    0.1253   -0.8765 O   0  0  0  0  0  0  0  0  0  0  0  0
   -3.7216    0.6233    0.5574 N   0  0  0  0  0  0  0  0  0  0  0  0
    1.3325   -1.5192    1.7710 N   0  0  0  0  0  0  0  0  0  0  0  0
    4.5593   -0.1339    0.5192 N   0  0  0  0  0  0  0  0  0  0  0  0
   -1.8942   -0.9530   -1.2192 C   0  0  1  0  0  0  0  0  0  0  0  0
   -3.4347   -1.1030   -1.1534 C   0  0  1  0  0  0  0  0  0  0  0  0
   -1.2175   -2.3299   -1.1402 C   0  0  0  0  0  0  0  0  0  0  0  0
   -1.5797   -3.0837    0.1533 C   0  0  2  0  0  0  0  0  0  0  0  0
   -1.4473   -0.2276   -2.4923 C   0  0  0  0  0  0  0  0  0  0  0  0
   -3.0690   -3.0449    0.4295 C   0  0  0  0  0  0  0  0  0  0  0  0
   -3.8842   -2.1617   -0.1738 C   0  0  0  0  0  0  0  0  0  0  0  0
   -4.1062    0.2309   -0.8073 C   0  0  0  0  0  0  0  0  0  0  0  0
   -0.7858   -2.5436    1.3480 C   0  0  0  0  0  0  0  0  0  0  0  0
   -1.8615   -1.0190   -3.7286 C   0  0  0  0  0  0  0  0  0  0  0  0
    0.0612   -0.0020   -2.4746 C   0  0  0  0  0  0  0  0  0  0  0  0
   -3.6080   -4.0756    1.3820 C   0  0  0  0  0  0  0  0  0  0  0  0
    0.7043   -2.5524    1.0912 C   0  0  0  0  0  0  0  0  0  0  0  0
    2.7573   -1.2865    1.7110 C   0  0  0  0  0  0  0  0  0  0  0  0
    3.1144   -0.3477    0.5681 C   0  0  0  0  0  0  0  0  0  0  0  0
   -1.9343    2.6375    0.5936 C   0  0  0  0  0  0  0  0  0  0  0  0
    4.8823    1.0742   -0.2527 C   0  0  0  0  0  0  0  0  0  0  0  0
    5.2399   -1.2995   -0.0619 C   0  0  0  0  0  0  0  0  0  0  0  0
    6.3950    1.2694   -0.3006 C   0  0  0  0  0  0  0  0  0  0  0  0
    6.7441   -1.0482   -0.1131 C   0  0  0  0  0  0  0  0  0  0  0  0
   -1.5927    3.0894   -0.6811 C   0  0  0  0  0  0  0  0  0  0  0  0
   -0.9457    2.4752    1.5641 C   0  0  0  0  0  0  0  0  0  0  0  0
   -0.2626    3.3792   -0.9853 C   0  0  0  0  0  0  0  0  0  0  0  0
    0.3845    2.7647    1.2599 C   0  0  0  0  0  0  0  0  0  0  0  0
    0.7260    3.2168   -0.0147 C   0  0  0  0  0  0  0  0  0  0  0  0
   -1.5458   -0.3652   -0.3609 H   0  0  0  0  0  0  0  0  0  0  0  0
   -3.8430   -1.4311   -2.1125 H   0  0  0  0  0  0  0  0  0  0  0  0
   -0.1368   -2.2612   -1.2638 H   0  0  0  0  0  0  0  0  0  0  0  0
   -1.5671   -2.9649   -1.9642 H   0  0  0  0  0  0  0  0  0  0  0  0
   -1.2903   -4.1321   -0.0067 H   0  0  0  0  0  0  0  0  0  0  0  0
   -1.9219    0.7574   -2.5421 H   0  0  0  0  0  0  0  0  0  0  0  0
   -4.9527   -2.2103    0.0277 H   0  0  0  0  0  0  0  0  0  0  0  0
   -5.1975    0.1265   -0.8366 H   0  0  0  0  0  0  0  0  0  0  0  0
   -3.8352    1.0025   -1.5321 H   0  0  0  0  0  0  0  0  0  0  0  0
   -0.9549   -3.1653    2.2357 H   0  0  0  0  0  0  0  0  0  0  0  0
   -1.1215   -1.5306    1.6019 H   0  0  0  0  0  0  0  0  0  0  0  0
   -1.4032   -2.0090   -3.7928 H   0  0  0  0  0  0  0  0  0  0  0  0
   -1.5211   -0.4793   -4.6221 H   0  0  0  0  0  0  0  0  0  0  0  0
   -2.9418   -1.1167   -3.8483 H   0  0  0  0  0  0  0  0  0  0  0  0
    0.6291   -0.9070   -2.7121 H   0  0  0  0  0  0  0  0  0  0  0  0
    0.4032    0.3776   -1.5068 H   0  0  0  0  0  0  0  0  0  0  0  0
    0.3337    0.7413   -3.2327 H   0  0  0  0  0  0  0  0  0  0  0  0
   -3.3452   -5.0823    1.0410 H   0  0  0  0  0  0  0  0  0  0  0  0
   -4.6992   -4.0305    1.4643 H   0  0  0  0  0  0  0  0  0  0  0  0
   -3.1964   -3.9283    2.3849 H   0  0  0  0  0  0  0  0  0  0  0  0
   -3.9216   -0.0499    1.3070 H   0  0  0  0  0  0  0  0  0  0  0  0
    0.7808   -0.8857    2.3420 H   0  0  0  0  0  0  0  0  0  0  0  0
    3.2468   -2.2601    1.6167 H   0  0  0  0  0  0  0  0  0  0  0  0
    3.0518   -0.8532    2.6734 H   0  0  0  0  0  0  0  0  0  0  0  0
    2.6013    0.6043    0.7552 H   0  0  0  0  0  0  0  0  0  0  0  0
    2.7255   -0.7200   -0.3889 H   0  0  0  0  0  0  0  0  0  0  0  0
    4.4280    1.9571    0.2113 H   0  0  0  0  0  0  0  0  0  0  0  0
    4.4910    0.9871   -1.2747 H   0  0  0  0  0  0  0  0  0  0  0  0
    4.8704   -1.4889   -1.0783 H   0  0  0  0  0  0  0  0  0  0  0  0
    5.0735   -2.2033    0.5317 H   0  0  0  0  0  0  0  0  0  0  0  0
    6.6393    2.1341   -0.9259 H   0  0  0  0  0  0  0  0  0  0  0  0
    6.8111    1.4537    0.6974 H   0  0  0  0  0  0  0  0  0  0  0  0
    7.1719   -0.9435    0.8915 H   0  0  0  0  0  0  0  0  0  0  0  0
    7.2464   -1.8900   -0.6006 H   0  0  0  0  0  0  0  0  0  0  0  0
   -2.3447    3.2177   -1.4543 H   0  0  0  0  0  0  0  0  0  0  0  0
   -1.1891    2.1167    2.5602 H   0  0  0  0  0  0  0  0  0  0  0  0
    0.0041    3.7283   -1.9783 H   0  0  0  0  0  0  0  0  0  0  0  0
    1.1550    2.6354    2.0142 H   0  0  0  0  0  0  0  0  0  0  0  0
  1  4  2  0  0  0  0
  1  5  2  0  0  0  0
  1  7  1  0  0  0  0
  1 25  1  0  0  0  0
  2 34  1  0  0  0  0
  3 22  2  0  0  0  0
  6 28  1  0  0  0  0
  6 29  1  0  0  0  0
  7 17  1  0  0  0  0
  7 55  1  0  0  0  0
  8 22  1  0  0  0  0
  8 23  1  0  0  0  0
  8 56  1  0  0  0  0
  9 24  1  0  0  0  0
  9 26  1  0  0  0  0
  9 27  1  0  0  0  0
 10 11  1  0  0  0  0
 10 12  1  0  0  0  0
 10 14  1  0  0  0  0
 10 35  1  0  0  0  0
 11 16  1  0  0  0  0
 11 17  1  0  0  0  0
 11 36  1  0  0  0  0
 12 13  1  0  0  0  0
 12 37  1  0  0  0  0
 12 38  1  0  0  0  0
 13 15  1  0  0  0  0
 13 18  1  0  0  0  0
 13 39  1  0  0  0  0
 14 19  1  0  0  0  0
 14 20  1  0  0  0  0
 14 40  1  0  0  0  0
 15 16  2  0  0  0  0
 15 21  1  0  0  0  0
 16 41  1  0  0  0  0
 17 42  1  0  0  0  0
 17 43  1  0  0  0  0
 18 22  1  0  0  0  0
 18 44  1  0  0  0  0
 18 45  1  0  0  0  0
 19 46  1  0  0  0  0
 19 47  1  0  0  0  0
 19 48  1  0  0  0  0
 20 49  1  0  0  0  0
 20 50  1  0  0  0  0
 20 51  1  0  0  0  0
 21 52  1  0  0  0  0
 21 53  1  0  0  0  0
 21 54  1  0  0  0  0
 23 24  1  0  0  0  0
 23 57  1  0  0  0  0
 23 58  1  0  0  0  0
 24 59  1  0  0  0  0
 24 60  1  0  0  0  0
 25 30  2  0  0  0  0
 25 31  1  0  0  0  0
 26 28  1  0  0  0  0
 26 61  1  0  0  0  0
 26 62  1  0  0  0  0
 27 29  1  0  0  0  0
 27 63  1  0  0  0  0
 27 64  1  0  0  0  0
 28 65  1  0  0  0  0
 28 66  1  0  0  0  0
 29 67  1  0  0  0  0
 29 68  1  0  0  0  0
 30 32  1  0  0  0  0
 30 69  1  0  0  0  0
 31 33  2  0  0  0  0
 31 70  1  0  0  0  0
 32 34  2  0  0  0  0
 32 71  1  0  0  0  0
 33 34  1  0  0  0  0
 33 72  1  0  0  0  0
M  END
> <PUBCHEM_COMPOUND_CID>
38026990

> <PUBCHEM_CONFORMER_RMSD>
1.4

> <PUBCHEM_CONFORMER_DIVERSEORDER>
2
64
42
111
28
33
39
31
20
101
107
48
32
93
103
17
34
55
56
86
94
60
89
15
109
30
70
121
76
67
80
66
99
106
95
78
10
43
108
25
47
116
123
38
87
65
57
117
112
37
75
63
77
4
81
58
52
26
6
53
45
16
50
9
114
40
79
97
120
110
22
73
100
51
61
21
36
118
92
102
24
19
84
122
18
69
5
104
59
71
1
68
83
119
113
46
85
96
3
62
44
105
35
13
98
49
12
54
7
8
91
29
23
115
88
82
27
14
74
11
72
90
41

> <PUBCHEM_MMFF94_PARTIAL_CHARGES>
36
1 1.45
11 0.14
13 0.14
15 -0.28
16 -0.29
17 0.36
18 0.06
2 -0.19
21 0.14
22 0.57
23 0.3
24 0.27
25 -0.01
26 0.27
27 0.27
28 0.28
29 0.28
3 -0.57
30 -0.15
31 -0.15
32 -0.15
33 -0.15
34 0.19
4 -0.65
41 0.15
5 -0.65
55 0.42
56 0.37
6 -0.56
69 0.15
7 -0.91
70 0.15
71 0.15
72 0.15
8 -0.73
9 -0.81

> <PUBCHEM_EFFECTIVE_ROTOR_COUNT>
13

> <PUBCHEM_PHARMACOPHORE_FEATURES>
11
1 3 acceptor
1 4 acceptor
1 5 acceptor
1 6 acceptor
1 7 donor
1 8 donor
1 9 cation
3 14 19 20 hydrophobe
6 10 11 12 13 15 16 rings
6 25 30 31 32 33 34 rings
6 6 9 26 27 28 29 rings

> <PUBCHEM_HEAVY_ATOM_COUNT>
34

> <PUBCHEM_ATOM_DEF_STEREO_COUNT>
3

> <PUBCHEM_ATOM_UDEF_STEREO_COUNT>
0

> <PUBCHEM_BOND_DEF_STEREO_COUNT>
0

> <PUBCHEM_BOND_UDEF_STEREO_COUNT>
0

> <PUBCHEM_ISOTOPIC_ATOM_COUNT>
0

> <PUBCHEM_COMPONENT_COUNT>
1

> <PUBCHEM_CACTVS_TAUTO_COUNT>
2

> <PUBCHEM_CONFORMER_ID>
02443EEE00000002

> <PUBCHEM_MMFF94_ENERGY>
51.095

> <PUBCHEM_FEATURE_SELFOVERLAP>
55.839

> <PUBCHEM_SHAPE_FINGERPRINT>
10305334 12 18340212894853623525
10670039 82 18411412891697857314
10871710 139 18339072684305654537
12104220 1 18334851715613101324
12107698 1 18201155571982159871
12156800 1 17980522019517588183
12422481 6 17558019322379442539
12788726 201 18269819948329368672
13615921 28 18268701887101819021
13761468 95 18115578245883917358
14114206 34 18267277911938052012
14251757 5 18412542098428402218
14279260 333 18266732495048954350
14840074 17 18262524675810634137
15001296 14 18261664995504748600
15297060 5 18059580131080481634
15406563 42 18270696311522869254
15444296 8 18058729255283817455
15876981 60 18338520840858248895
15968369 153 18058156409731040032
15975801 100 17536612707682387734
20764821 26 16968008424840629728
35225 105 17700105743755850621
463206 1 18408327683371470664
469060 322 16877946052977674030

> <PUBCHEM_SHAPE_MULTIPOLES>
657.86
11.54
5.48
2.29
24.78
1.21
-1.58
-1.25
-0.3
-4.84
2.07
-1.82
-0.38
-1.06

> <PUBCHEM_SHAPE_SELFOVERLAP>
1339.516

> <PUBCHEM_SHAPE_VOLUME>
384.7

> <PUBCHEM_COORDINATE_TYPE>
2
5
10

$$$$
