51137121
  -OEChem-12032416383D

 37 40  0     1  0  0  0  0  0999 V2000
   -2.0250   -0.2360   -0.1117 N   0  0  1  0  0  0  0  0  0  0  0  0
    2.6208   -1.3874    0.1121 N   0  0  0  0  0  0  0  0  0  0  0  0
    2.0762    0.7675    0.1252 N   0  0  0  0  0  0  0  0  0  0  0  0
   -5.0742   -0.8028   -0.7748 N   0  0  0  0  0  0  0  0  0  0  0  0
   -5.1131    1.1727    0.2388 N   0  0  0  0  0  0  0  0  0  0  0  0
    0.1766   -0.8807    0.3746 C   0  0  1  0  0  0  0  0  0  0  0  0
   -0.5011   -0.3583    1.6533 C   0  0  0  0  0  0  0  0  0  0  0  0
   -0.7262   -0.3979   -0.7686 C   0  0  0  0  0  0  0  0  0  0  0  0
   -1.7235    0.4090    1.1662 C   0  0  0  0  0  0  0  0  0  0  0  0
    1.6186   -0.4620    0.2037 C   0  0  0  0  0  0  0  0  0  0  0  0
   -2.9610    0.5366   -0.9151 C   0  0  0  0  0  0  0  0  0  0  0  0
   -4.3840    0.3361   -0.4657 C   0  0  0  0  0  0  0  0  0  0  0  0
    3.8038   -0.7100   -0.0355 C   0  0  0  0  0  0  0  0  0  0  0  0
    3.4374    0.6330   -0.0242 C   0  0  0  0  0  0  0  0  0  0  0  0
    5.1229   -1.1437   -0.1734 C   0  0  0  0  0  0  0  0  0  0  0  0
    4.4330    1.6155   -0.1574 C   0  0  0  0  0  0  0  0  0  0  0  0
    6.1008   -0.1522   -0.3050 C   0  0  0  0  0  0  0  0  0  0  0  0
   -6.3230   -0.6849   -0.2328 C   0  0  0  0  0  0  0  0  0  0  0  0
    5.7643    1.2034   -0.2974 C   0  0  0  0  0  0  0  0  0  0  0  0
   -6.3231    0.5421    0.3876 C   0  0  0  0  0  0  0  0  0  0  0  0
    0.1346   -1.9792    0.4074 H   0  0  0  0  0  0  0  0  0  0  0  0
   -0.8124   -1.2082    2.2735 H   0  0  0  0  0  0  0  0  0  0  0  0
    0.1508    0.2763    2.2631 H   0  0  0  0  0  0  0  0  0  0  0  0
   -0.7696   -1.1344   -1.5784 H   0  0  0  0  0  0  0  0  0  0  0  0
   -0.3684    0.5522   -1.1873 H   0  0  0  0  0  0  0  0  0  0  0  0
   -2.5494    0.3324    1.8804 H   0  0  0  0  0  0  0  0  0  0  0  0
   -1.4659    1.4686    1.0403 H   0  0  0  0  0  0  0  0  0  0  0  0
   -2.7185    1.6069   -0.9187 H   0  0  0  0  0  0  0  0  0  0  0  0
   -2.9090    0.2086   -1.9626 H   0  0  0  0  0  0  0  0  0  0  0  0
    2.5130   -2.3925    0.1465 H   0  0  0  0  0  0  0  0  0  0  0  0
   -4.7260   -1.5898   -1.3062 H   0  0  0  0  0  0  0  0  0  0  0  0
    5.3816   -2.1964   -0.1789 H   0  0  0  0  0  0  0  0  0  0  0  0
    4.1817    2.6714   -0.1526 H   0  0  0  0  0  0  0  0  0  0  0  0
    7.1425   -0.4433   -0.4152 H   0  0  0  0  0  0  0  0  0  0  0  0
    6.5466    1.9508   -0.4016 H   0  0  0  0  0  0  0  0  0  0  0  0
   -7.0700   -1.4587   -0.3351 H   0  0  0  0  0  0  0  0  0  0  0  0
   -7.1328    1.0036    0.9338 H   0  0  0  0  0  0  0  0  0  0  0  0
  1  8  1  0  0  0  0
  1  9  1  0  0  0  0
  1 11  1  0  0  0  0
  2 10  1  0  0  0  0
  2 13  1  0  0  0  0
  2 30  1  0  0  0  0
  3 10  2  0  0  0  0
  3 14  1  0  0  0  0
  4 12  1  0  0  0  0
  4 18  1  0  0  0  0
  4 31  1  0  0  0  0
  5 12  2  0  0  0  0
  5 20  1  0  0  0  0
  6  7  1  0  0  0  0
  6  8  1  0  0  0  0
  6 10  1  0  0  0  0
  6 21  1  0  0  0  0
  7  9  1  0  0  0  0
  7 22  1  0  0  0  0
  7 23  1  0  0  0  0
  8 24  1  0  0  0  0
  8 25  1  0  0  0  0
  9 26  1  0  0  0  0
  9 27  1  0  0  0  0
 11 12  1  0  0  0  0
 11 28  1  0  0  0  0
 11 29  1  0  0  0  0
 13 14  1  0  0  0  0
 13 15  2  0  0  0  0
 14 16  2  0  0  0  0
 15 17  1  0  0  0  0
 15 32  1  0  0  0  0
 16 19  1  0  0  0  0
 16 33  1  0  0  0  0
 17 19  2  0  0  0  0
 17 34  1  0  0  0  0
 18 20  2  0  0  0  0
 18 36  1  0  0  0  0
 19 35  1  0  0  0  0
 20 37  1  0  0  0  0
M  END
> <PUBCHEM_COMPOUND_CID>
51137121

> <PUBCHEM_CONFORMER_RMSD>
0.6

> <PUBCHEM_CONFORMER_DIVERSEORDER>
1
35
38
39
18
11
33
23
40
42
36
37
20
24
41
15
31
10
6
32
16
28
4
13
30
43
19
34
22
2
14
21
3
25
8
7
27
5
17
9
26
29
12

> <PUBCHEM_MMFF94_PARTIAL_CHARGES>
27
1 -0.81
10 0.01
11 0.45
12 0.01
13 -0.15
14 0.23
15 -0.15
16 -0.15
17 -0.15
18 -0.3
19 -0.15
2 0.03
20 0.08
3 -0.57
30 0.27
31 0.27
32 0.15
33 0.15
34 0.15
35 0.15
36 0.15
37 0.15
4 0.03
5 -0.57
6 0.18
8 0.27
9 0.27

> <PUBCHEM_EFFECTIVE_ROTOR_COUNT>
4

> <PUBCHEM_PHARMACOPHORE_FEATURES>
9
1 1 cation
1 2 donor
1 4 donor
3 2 3 10 cation
3 4 5 12 cation
5 1 6 7 8 9 rings
5 2 3 10 13 14 rings
5 4 5 12 18 20 rings
6 13 14 15 16 17 19 rings

> <PUBCHEM_HEAVY_ATOM_COUNT>
20

> <PUBCHEM_ATOM_DEF_STEREO_COUNT>
1

> <PUBCHEM_ATOM_UDEF_STEREO_COUNT>
0

> <PUBCHEM_BOND_DEF_STEREO_COUNT>
0

> <PUBCHEM_BOND_UDEF_STEREO_COUNT>
0

> <PUBCHEM_ISOTOPIC_ATOM_COUNT>
0

> <PUBCHEM_COMPONENT_COUNT>
1

> <PUBCHEM_CACTVS_TAUTO_COUNT>
1

> <PUBCHEM_CONFORMER_ID>
030C4A6100000001

> <PUBCHEM_MMFF94_ENERGY>
28.9098

> <PUBCHEM_FEATURE_SELFOVERLAP>
45.782

> <PUBCHEM_SHAPE_FINGERPRINT>
10 15 15140962902771644492
10299344 5 18131633396519485239
10354089 29 11746938690045440126
10595046 47 18413106147940930323
106641 1 14057010446258942540
11287383 113 18409449197841767155
11315181 36 11097859584431953991
11646440 116 17312830367973718013
11796584 16 13973678447215570604
12107183 9 17548701781372185859
12166972 35 18409169917646696452
12236239 1 18060138725826164322
12730499 353 18113059316025755466
12788726 201 16845298189821410227
12916748 109 17240762865572448820
13167372 99 18340488863540154224
13533116 47 17418094274575964518
14123256 10 17530963588552786667
1420 363 17603589621185299115
14251732 16 18335140942420244523
14251752 14 17489870406015258977
14251764 18 18114177537063452200
14856354 85 17489592299073494023
14933364 13 18410857650973166885
15048467 5 18342739603150720081
15183329 4 18131352990235283169
15537594 2 15770055021400661311
17834072 33 18342737424937500518
17844677 252 18410860932296733925
18006028 8 11600006544109493291
19489759 90 11602819095428058431
200 152 18131631175156054578
20157964 124 18409731772852124168
20374829 77 14620789409872397909
20567600 75 11167952337815456177
20645477 56 17385442137151254186
20645477 70 18338516340360464510
21150785 3 17917436441169525060
21267235 1 18342743983885376454
220451 1 17489587866013493567
221357 26 18409728448279022492
23035841 295 17561083614168202679
23198884 109 18411983559617409913
23402539 116 17275097332305315549
23536379 177 18343019973814225651
23559900 14 18335419118413542913
23622692 88 14056722357022078898
2916195 48 17676482852286567101
29717793 49 17560808719286955644
3004659 81 18060702767334528598
335352 9 18408327688494041534
347723 3 17060619992615624147
3545911 37 18186802482736929254
4073 2 18041284373843677594
4325135 7 18410572903531842887
4340502 62 16515683334134667498
4463277 17 16200430273576052443
5283156 175 17060343985670390542
542803 24 18273211993367220373
59682541 35 16588316016257716689
59755656 215 15502370085329623714
59755656 520 17458340866290962554
7495541 125 17846211207013128923
9996256 80 18408038515843861159

> <PUBCHEM_SHAPE_MULTIPOLES>
386.69
16.97
1.25
0.96
8.22
0.13
-0.23
2.17
2.48
-1.09
0.03
0.57
-0.04
-0.28

> <PUBCHEM_SHAPE_SELFOVERLAP>
851.237

> <PUBCHEM_SHAPE_VOLUME>
208

> <PUBCHEM_COORDINATE_TYPE>
2
5
10

$$$$
