11941403
  -OEChem-12032416313D

 59 63  0     1  0  0  0  0  0999 V2000
   -8.0056   -1.9804   -0.6544 S   0  0  0  0  0  0  0  0  0  0  0  0
    4.8205   -0.9385    1.3114 O   0  0  0  0  0  0  0  0  0  0  0  0
    3.0695    3.2009    1.4146 O   0  0  0  0  0  0  0  0  0  0  0  0
   -0.2468    1.9352   -2.4787 O   0  0  0  0  0  0  0  0  0  0  0  0
    1.6508    1.7664   -1.1906 N   0  0  0  0  0  0  0  0  0  0  0  0
    4.0495   -0.2051   -0.7590 N   0  0  0  0  0  0  0  0  0  0  0  0
    0.8537    2.6794    1.4902 N   0  0  0  0  0  0  0  0  0  0  0  0
    3.7993    1.1722   -0.4002 C   0  0  2  0  0  0  0  0  0  0  0  0
    2.3378    1.3715    0.0251 C   0  0  1  0  0  0  0  0  0  0  0  0
    3.9468    2.0953   -1.6115 C   0  0  0  0  0  0  0  0  0  0  0  0
    4.6831   -2.4981   -0.4898 C   0  0  0  0  0  0  0  0  0  0  0  0
    2.5831    2.0190   -2.2797 C   0  0  0  0  0  0  0  0  0  0  0  0
    3.3961   -3.3087   -0.2997 C   0  0  0  0  0  0  0  0  0  0  0  0
    5.7949   -3.2933    0.1964 C   0  0  0  0  0  0  0  0  0  0  0  0
    3.8149   -4.5967    0.4013 C   0  0  0  0  0  0  0  0  0  0  0  0
    5.0674   -4.2117    1.1677 C   0  0  0  0  0  0  0  0  0  0  0  0
    4.5404   -1.1429    0.1331 C   0  0  0  0  0  0  0  0  0  0  0  0
    2.1325    2.5160    1.0001 C   0  0  0  0  0  0  0  0  0  0  0  0
    0.2863    1.7502   -1.3847 C   0  0  0  0  0  0  0  0  0  0  0  0
   -0.5862    1.5209   -0.2037 C   0  0  0  0  0  0  0  0  0  0  0  0
   -0.3349    2.0383    1.0786 C   0  0  0  0  0  0  0  0  0  0  0  0
   -1.8133    0.8841   -0.4640 C   0  0  0  0  0  0  0  0  0  0  0  0
   -1.3480    1.9625    2.0504 C   0  0  0  0  0  0  0  0  0  0  0  0
   -2.7878    0.7766    0.5270 C   0  0  0  0  0  0  0  0  0  0  0  0
   -2.5602    1.3274    1.7815 C   0  0  0  0  0  0  0  0  0  0  0  0
   -4.0422    0.1140    0.2428 C   0  0  0  0  0  0  0  0  0  0  0  0
   -5.2082    0.5209    0.8910 C   0  0  0  0  0  0  0  0  0  0  0  0
   -4.0852   -0.9317   -0.6793 C   0  0  0  0  0  0  0  0  0  0  0  0
   -6.4175   -0.1181    0.6172 C   0  0  0  0  0  0  0  0  0  0  0  0
   -5.2946   -1.5705   -0.9532 C   0  0  0  0  0  0  0  0  0  0  0  0
   -6.4607   -1.1638   -0.3049 C   0  0  0  0  0  0  0  0  0  0  0  0
   -7.6357   -3.6915   -0.1748 C   0  0  0  0  0  0  0  0  0  0  0  0
    4.5099    1.4444    0.3873 H   0  0  0  0  0  0  0  0  0  0  0  0
    1.8981    0.4578    0.4426 H   0  0  0  0  0  0  0  0  0  0  0  0
    4.7580    1.8133   -2.2895 H   0  0  0  0  0  0  0  0  0  0  0  0
    4.1282    3.1223   -1.2717 H   0  0  0  0  0  0  0  0  0  0  0  0
    4.9228   -2.3869   -1.5542 H   0  0  0  0  0  0  0  0  0  0  0  0
    2.3124    2.9365   -2.8109 H   0  0  0  0  0  0  0  0  0  0  0  0
    2.5203    1.1781   -2.9795 H   0  0  0  0  0  0  0  0  0  0  0  0
    2.6613   -2.7711    0.3120 H   0  0  0  0  0  0  0  0  0  0  0  0
    2.9165   -3.5290   -1.2596 H   0  0  0  0  0  0  0  0  0  0  0  0
    6.5508   -2.6810    0.6980 H   0  0  0  0  0  0  0  0  0  0  0  0
    6.3159   -3.9044   -0.5517 H   0  0  0  0  0  0  0  0  0  0  0  0
    3.7904   -0.5058   -1.6944 H   0  0  0  0  0  0  0  0  0  0  0  0
    4.0512   -5.3666   -0.3431 H   0  0  0  0  0  0  0  0  0  0  0  0
    3.0292   -4.9878    1.0539 H   0  0  0  0  0  0  0  0  0  0  0  0
    4.8035   -3.6712    2.0840 H   0  0  0  0  0  0  0  0  0  0  0  0
    5.6688   -5.0824    1.4443 H   0  0  0  0  0  0  0  0  0  0  0  0
    0.7737    3.2801    2.3074 H   0  0  0  0  0  0  0  0  0  0  0  0
   -2.0039    0.5151   -1.4698 H   0  0  0  0  0  0  0  0  0  0  0  0
   -1.1874    2.3721    3.0462 H   0  0  0  0  0  0  0  0  0  0  0  0
   -3.2795    1.2594    2.5928 H   0  0  0  0  0  0  0  0  0  0  0  0
   -5.2289    1.3496    1.5934 H   0  0  0  0  0  0  0  0  0  0  0  0
   -3.1977   -1.3014   -1.1858 H   0  0  0  0  0  0  0  0  0  0  0  0
   -7.3175    0.2165    1.1272 H   0  0  0  0  0  0  0  0  0  0  0  0
   -5.3046   -2.3825   -1.6758 H   0  0  0  0  0  0  0  0  0  0  0  0
   -8.5469   -4.2902   -0.2545 H   0  0  0  0  0  0  0  0  0  0  0  0
   -7.2824   -3.7288    0.8593 H   0  0  0  0  0  0  0  0  0  0  0  0
   -6.8787   -4.1238   -0.8340 H   0  0  0  0  0  0  0  0  0  0  0  0
  1 31  1  0  0  0  0
  1 32  1  0  0  0  0
  2 17  2  0  0  0  0
  3 18  2  0  0  0  0
  4 19  2  0  0  0  0
  5  9  1  0  0  0  0
  5 12  1  0  0  0  0
  5 19  1  0  0  0  0
  6  8  1  0  0  0  0
  6 17  1  0  0  0  0
  6 44  1  0  0  0  0
  7 18  1  0  0  0  0
  7 21  1  0  0  0  0
  7 49  1  0  0  0  0
  8  9  1  0  0  0  0
  8 10  1  0  0  0  0
  8 33  1  0  0  0  0
  9 18  1  0  0  0  0
  9 34  1  0  0  0  0
 10 12  1  0  0  0  0
 10 35  1  0  0  0  0
 10 36  1  0  0  0  0
 11 13  1  0  0  0  0
 11 14  1  0  0  0  0
 11 17  1  0  0  0  0
 11 37  1  0  0  0  0
 12 38  1  0  0  0  0
 12 39  1  0  0  0  0
 13 15  1  0  0  0  0
 13 40  1  0  0  0  0
 13 41  1  0  0  0  0
 14 16  1  0  0  0  0
 14 42  1  0  0  0  0
 14 43  1  0  0  0  0
 15 16  1  0  0  0  0
 15 45  1  0  0  0  0
 15 46  1  0  0  0  0
 16 47  1  0  0  0  0
 16 48  1  0  0  0  0
 19 20  1  0  0  0  0
 20 21  2  0  0  0  0
 20 22  1  0  0  0  0
 21 23  1  0  0  0  0
 22 24  2  0  0  0  0
 22 50  1  0  0  0  0
 23 25  2  0  0  0  0
 23 51  1  0  0  0  0
 24 25  1  0  0  0  0
 24 26  1  0  0  0  0
 25 52  1  0  0  0  0
 26 27  2  0  0  0  0
 26 28  1  0  0  0  0
 27 29  1  0  0  0  0
 27 53  1  0  0  0  0
 28 30  2  0  0  0  0
 28 54  1  0  0  0  0
 29 31  2  0  0  0  0
 29 55  1  0  0  0  0
 30 31  1  0  0  0  0
 30 56  1  0  0  0  0
 32 57  1  0  0  0  0
 32 58  1  0  0  0  0
 32 59  1  0  0  0  0
M  END
> <PUBCHEM_COMPOUND_CID>
11941403

> <PUBCHEM_CONFORMER_RMSD>
1

> <PUBCHEM_CONFORMER_DIVERSEORDER>
1
4
3
2
6
5
7
8

> <PUBCHEM_MMFF94_PARTIAL_CHARGES>
34
1 -0.33
11 0.06
12 0.3
17 0.57
18 0.57
19 0.54
2 -0.57
20 0.09
21 0.12
22 -0.15
23 -0.15
25 -0.15
27 -0.15
28 -0.15
29 -0.15
3 -0.57
30 -0.15
31 0.1
32 0.23
4 -0.57
44 0.37
49 0.37
5 -0.66
50 0.15
51 0.15
52 0.15
53 0.15
54 0.15
55 0.15
56 0.15
6 -0.73
7 -0.55
8 0.3
9 0.36

> <PUBCHEM_EFFECTIVE_ROTOR_COUNT>
6.8

> <PUBCHEM_PHARMACOPHORE_FEATURES>
11
1 2 acceptor
1 3 acceptor
1 32 hydrophobe
1 4 acceptor
1 6 donor
1 7 donor
5 11 13 14 15 16 rings
5 5 8 9 10 12 rings
6 20 21 22 23 24 25 rings
6 26 27 28 29 30 31 rings
7 5 7 9 18 19 20 21 rings

> <PUBCHEM_HEAVY_ATOM_COUNT>
32

> <PUBCHEM_ATOM_DEF_STEREO_COUNT>
2

> <PUBCHEM_ATOM_UDEF_STEREO_COUNT>
0

> <PUBCHEM_BOND_DEF_STEREO_COUNT>
0

> <PUBCHEM_BOND_UDEF_STEREO_COUNT>
0

> <PUBCHEM_ISOTOPIC_ATOM_COUNT>
0

> <PUBCHEM_COMPONENT_COUNT>
1

> <PUBCHEM_CACTVS_TAUTO_COUNT>
6

> <PUBCHEM_CONFORMER_ID>
00B6361B00000001

> <PUBCHEM_MMFF94_ENERGY>
106.5045

> <PUBCHEM_FEATURE_SELFOVERLAP>
55.88

> <PUBCHEM_SHAPE_FINGERPRINT>
10622 236 18265895761323438346
11227150 75 16591374685454688258
11409948 35 18409443697192110223
11497681 19 18194126206149064830
11963148 33 17841140362782247503
12107183 9 18056771927245065105
12166972 35 18334580096768800214
131258 38 18269260417487011046
13533116 47 18412266155206174761
1361 4 18337111280348271599
13782708 43 18410009953699695245
14068700 675 18340768122366312570
15163728 17 8141500441692190768
15183329 4 16515953870420719885
15264996 154 18269571480457131542
15361156 5 17533800216588290348
15475509 35 18343578581334249393
15475509 8 17240769415762085589
16728300 4 18200589199319923903
17134984 74 18265057005702527950
17324776 126 17899687964770320538
19315092 285 18273498961660077904
19319366 153 18269276944895621676
19438510 23 10015280426764524238
19841028 212 18409446951569188098
20028762 73 18342178808733681982
20775438 99 17968379051951042714
20775530 9 18265603291779134510
208703 8 18272933782439808006
21033648 29 14620519965721621321
21641784 216 14923933527868894149
21792938 131 18200868591855213363
21792938 79 11527383703444921491
23569943 247 18336264540626161155
24983565 74 17843395439767497071
25222932 49 17701250567045980781
3004659 81 17774453796914589493
3472631 163 8069735304387284032
34797466 226 16950844825383001061
373842 8 18410858802146630911
376196 1 15723921918713619212
3886686 26 17052475686660957019
397830 11 10231752345246064117
4073 2 17911236436496917185
437795 70 16878784873017651269
439807 62 18340771529177425439
474113 269 18059283276564323303
4756326 101 14202272443282688550
484985 159 17473542452616852288
50009960 94 18336813208958936211
513202 73 18114464453621536381
6201320 221 18271226250411005295
6677587 24 17316748086785457548
6697151 62 17845352402412151473
70251023 43 18187929443601362544
7970288 3 18124595280571716994
9555976 147 17702110166670400977
96874 4 18339640044832390459

> <PUBCHEM_SHAPE_MULTIPOLES>
629.84
18.17
5.32
1.76
28.14
5.88
-0.25
23.1
-0.98
-7.52
0.92
-0.68
-1.53
-2.92

> <PUBCHEM_SHAPE_SELFOVERLAP>
1365.283

> <PUBCHEM_SHAPE_VOLUME>
346.3

> <PUBCHEM_COORDINATE_TYPE>
2
5
10

$$$$
