11879672
  -OEChem-12032416353D

 55 58  0     1  0  0  0  0  0999 V2000
   -1.6243   -3.0340    0.1626 O   0  0  0  0  0  0  0  0  0  0  0  0
   -1.4268   -0.5480   -1.7537 O   0  0  0  0  0  0  0  0  0  0  0  0
    3.1345   -0.7330   -0.3807 O   0  0  0  0  0  0  0  0  0  0  0  0
   -6.1257   -1.0360   -1.0392 O   0  0  0  0  0  0  0  0  0  0  0  0
   -9.3680    2.6336    0.2375 O   0  0  0  0  0  0  0  0  0  0  0  0
   -7.3934    3.3168    1.1278 O   0  0  0  0  0  0  0  0  0  0  0  0
    1.1286   -1.3448    0.7310 N   0  0  0  0  0  0  0  0  0  0  0  0
   -4.0798   -0.3494   -0.1759 N   0  0  0  0  0  0  0  0  0  0  0  0
    0.7030   -1.4491    1.9977 N   0  0  0  0  0  0  0  0  0  0  0  0
    2.8275   -0.7746    1.9521 N   0  0  0  0  0  0  0  0  0  0  0  0
    1.7465   -1.0995    2.7400 N   0  0  0  0  0  0  0  0  0  0  0  0
    6.3819    2.8554   -0.3319 N   0  0  0  0  0  0  0  0  0  0  0  0
   -1.0111   -0.7996   -0.3990 C   0  0  1  0  0  0  0  0  0  0  0  0
   -2.0734   -1.6720    0.2409 C   0  0  1  0  0  0  0  0  0  0  0  0
    0.2428   -1.6533   -0.3945 C   0  0  2  0  0  0  0  0  0  0  0  0
   -3.2946   -1.4722   -0.6283 C   0  0  2  0  0  0  0  0  0  0  0  0
   -0.3101   -3.0742   -0.4103 C   0  0  0  0  0  0  0  0  0  0  0  0
   -2.6818   -1.2012   -1.9898 C   0  0  0  0  0  0  0  0  0  0  0  0
    2.4232   -0.9337    0.7130 C   0  0  0  0  0  0  0  0  0  0  0  0
   -5.4411   -0.2249   -0.4215 C   0  0  0  0  0  0  0  0  0  0  0  0
   -6.0022    1.0560    0.1696 C   0  0  0  0  0  0  0  0  0  0  0  0
   -7.4971    1.2118   -0.0895 C   0  0  0  0  0  0  0  0  0  0  0  0
    4.4561   -0.3100   -0.3459 C   0  0  0  0  0  0  0  0  0  0  0  0
   -8.0417    2.4933    0.4972 C   0  0  0  0  0  0  0  0  0  0  0  0
    4.7531    1.0528   -0.3563 C   0  0  0  0  0  0  0  0  0  0  0  0
    5.4874   -1.2482   -0.3006 C   0  0  0  0  0  0  0  0  0  0  0  0
    6.0813    1.4775   -0.3214 C   0  0  0  0  0  0  0  0  0  0  0  0
    6.8156   -0.8236   -0.2656 C   0  0  0  0  0  0  0  0  0  0  0  0
    7.1125    0.5393   -0.2760 C   0  0  0  0  0  0  0  0  0  0  0  0
    5.3182    3.8381   -0.3931 C   0  0  0  0  0  0  0  0  0  0  0  0
    7.7588    3.3066   -0.2960 C   0  0  0  0  0  0  0  0  0  0  0  0
   -0.9014    0.1732    0.0912 H   0  0  0  0  0  0  0  0  0  0  0  0
   -2.2366   -1.4422    1.2988 H   0  0  0  0  0  0  0  0  0  0  0  0
    0.8443   -1.4934   -1.2972 H   0  0  0  0  0  0  0  0  0  0  0  0
   -3.9397   -2.3564   -0.6700 H   0  0  0  0  0  0  0  0  0  0  0  0
    0.3044   -3.7911    0.1427 H   0  0  0  0  0  0  0  0  0  0  0  0
   -0.4180   -3.4358   -1.4388 H   0  0  0  0  0  0  0  0  0  0  0  0
   -2.4677   -2.1375   -2.5169 H   0  0  0  0  0  0  0  0  0  0  0  0
   -3.3000   -0.5738   -2.6390 H   0  0  0  0  0  0  0  0  0  0  0  0
   -3.5992    0.4092    0.3002 H   0  0  0  0  0  0  0  0  0  0  0  0
   -5.8053    1.0529    1.2487 H   0  0  0  0  0  0  0  0  0  0  0  0
   -5.4554    1.9032   -0.2623 H   0  0  0  0  0  0  0  0  0  0  0  0
   -7.6887    1.2209   -1.1685 H   0  0  0  0  0  0  0  0  0  0  0  0
   -8.0429    0.3723    0.3557 H   0  0  0  0  0  0  0  0  0  0  0  0
    3.9200    1.7485   -0.3928 H   0  0  0  0  0  0  0  0  0  0  0  0
    5.2628   -2.3113   -0.2931 H   0  0  0  0  0  0  0  0  0  0  0  0
    7.6180   -1.5547   -0.2305 H   0  0  0  0  0  0  0  0  0  0  0  0
    8.1611    0.8184   -0.2479 H   0  0  0  0  0  0  0  0  0  0  0  0
   -9.7282    3.4643    0.6149 H   0  0  0  0  0  0  0  0  0  0  0  0
    5.7117    4.8607   -0.3978 H   0  0  0  0  0  0  0  0  0  0  0  0
    4.6590    3.7629    0.4789 H   0  0  0  0  0  0  0  0  0  0  0  0
    4.7290    3.7274   -1.3103 H   0  0  0  0  0  0  0  0  0  0  0  0
    7.8268    4.4003   -0.3047 H   0  0  0  0  0  0  0  0  0  0  0  0
    8.3142    2.9529   -1.1719 H   0  0  0  0  0  0  0  0  0  0  0  0
    8.2617    2.9716    0.6181 H   0  0  0  0  0  0  0  0  0  0  0  0
  1 14  1  0  0  0  0
  1 17  1  0  0  0  0
  2 13  1  0  0  0  0
  2 18  1  0  0  0  0
  3 19  1  0  0  0  0
  3 23  1  0  0  0  0
  4 20  2  0  0  0  0
  5 24  1  0  0  0  0
  5 49  1  0  0  0  0
  6 24  2  0  0  0  0
  7  9  1  0  0  0  0
  7 15  1  0  0  0  0
  7 19  1  0  0  0  0
  8 16  1  0  0  0  0
  8 20  1  0  0  0  0
  8 40  1  0  0  0  0
  9 11  2  0  0  0  0
 10 11  1  0  0  0  0
 10 19  2  0  0  0  0
 12 27  1  0  0  0  0
 12 30  1  0  0  0  0
 12 31  1  0  0  0  0
 13 14  1  0  0  0  0
 13 15  1  0  0  0  0
 13 32  1  0  0  0  0
 14 16  1  0  0  0  0
 14 33  1  0  0  0  0
 15 17  1  0  0  0  0
 15 34  1  0  0  0  0
 16 18  1  0  0  0  0
 16 35  1  0  0  0  0
 17 36  1  0  0  0  0
 17 37  1  0  0  0  0
 18 38  1  0  0  0  0
 18 39  1  0  0  0  0
 20 21  1  0  0  0  0
 21 22  1  0  0  0  0
 21 41  1  0  0  0  0
 21 42  1  0  0  0  0
 22 24  1  0  0  0  0
 22 43  1  0  0  0  0
 22 44  1  0  0  0  0
 23 25  1  0  0  0  0
 23 26  2  0  0  0  0
 25 27  2  0  0  0  0
 25 45  1  0  0  0  0
 26 28  1  0  0  0  0
 26 46  1  0  0  0  0
 27 29  1  0  0  0  0
 28 29  2  0  0  0  0
 28 47  1  0  0  0  0
 29 48  1  0  0  0  0
 30 50  1  0  0  0  0
 30 51  1  0  0  0  0
 30 52  1  0  0  0  0
 31 53  1  0  0  0  0
 31 54  1  0  0  0  0
 31 55  1  0  0  0  0
M  END
> <PUBCHEM_COMPOUND_CID>
11879672

> <PUBCHEM_CONFORMER_RMSD>
1

> <PUBCHEM_CONFORMER_DIVERSEORDER>
1
185
152
222
49
171
134
128
146
194
86
184
37
217
24
112
89
191
117
126
83
190
164
226
192
151
161
105
157
223
208
183
73
113
233
75
148
61
195
201
170
131
74
28
168
174
235
69
52
221
16
193
238
198
225
119
116
68
207
26
230
104
177
107
138
210
118
135
110
120
132
169
108
64
167
199
106
67
122
200
95
91
173
163
153
213
219
165
176
72
31
84
231
178
172
196
149
156
144
211
71
103
33
202
224
188
36
209
182
32
121
139
23
206
147
15
137
229
38
55
90
159
133
60
175
34
181
100
186
18
129
51
236
56
46
40
70
154
124
218
115
102
109
43
5
214
216
9
27
66
35
205
204
166
125
6
76
44
187
127
111
99
77
228
197
150
114
140
81
8
21
220
42
22
79
136
141
14
78
13
59
232
234
54
30
162
10
179
20
41
227
189
29
215
82
48
93
63
87
237
92
142
7
88
62
12
45
85
98
19
203
65
130
39
155
47
212
53
101
3
80
94
58
97
25
123
17
57
160
158
50
180
145
4
11
143
96
2

> <PUBCHEM_MMFF94_PARTIAL_CHARGES>
36
1 -0.56
10 -0.34
12 -0.84
13 0.28
14 0.28
15 0.26
16 0.3
17 0.28
18 0.28
19 0.25
2 -0.56
20 0.57
21 0.06
22 0.06
23 0.08
24 0.66
25 -0.15
26 -0.15
27 0.1
28 -0.15
29 -0.15
3 -0.15
30 0.37
31 0.37
4 -0.57
40 0.37
45 0.15
46 0.15
47 0.15
48 0.15
49 0.5
5 -0.65
6 -0.57
7 0.31
8 -0.73
9 -0.42

> <PUBCHEM_EFFECTIVE_ROTOR_COUNT>
10.2

> <PUBCHEM_PHARMACOPHORE_FEATURES>
13
1 1 acceptor
1 12 cation
1 2 acceptor
1 4 acceptor
1 5 acceptor
1 6 acceptor
1 8 donor
3 5 6 24 anion
3 7 10 19 cation
5 1 13 14 15 17 rings
5 2 13 14 16 18 rings
5 7 9 10 11 19 rings
6 23 25 26 27 28 29 rings

> <PUBCHEM_HEAVY_ATOM_COUNT>
31

> <PUBCHEM_ATOM_DEF_STEREO_COUNT>
4

> <PUBCHEM_ATOM_UDEF_STEREO_COUNT>
0

> <PUBCHEM_BOND_DEF_STEREO_COUNT>
0

> <PUBCHEM_BOND_UDEF_STEREO_COUNT>
0

> <PUBCHEM_ISOTOPIC_ATOM_COUNT>
0

> <PUBCHEM_COMPONENT_COUNT>
1

> <PUBCHEM_CACTVS_TAUTO_COUNT>
2

> <PUBCHEM_CONFORMER_ID>
00B544F800000001

> <PUBCHEM_MMFF94_ENERGY>
83.4854

> <PUBCHEM_FEATURE_SELFOVERLAP>
66.722

> <PUBCHEM_SHAPE_FINGERPRINT>
10 15 14634869764731934278
10670039 82 16271928152477860659
10816530 90 18343293769284650912
10883706 17 10447055374807676301
11135609 127 18201431524279897468
11408170 253 18059863805593196873
125118 31 18412263956462727868
12539765 74 18202571652717404799
12895836 83 18339076111584496974
12895837 130 18045785852062606830
13540713 4 15768340977326457711
14251757 52 18410011022513770113
14394314 77 18409168827068174365
14664723 55 18272658909370955145
14747281 78 17968394381548924766
15064981 194 18117577316804569718
15183329 4 15913329078707724859
15198563 99 14908191811267232523
15276724 80 18336260163336788676
15840311 113 18334581217787023885
16993427 108 10737287965706138189
16994733 274 18410290349933116392
19438510 23 18186519933802032992
2026 5 9151168745670868769
20691028 202 18339359772514763092
21033648 29 17241047729985068906
21307412 95 13901914456904730789
21585482 111 18192150391985371765
22002106 203 10735611150772467644
23559900 14 13901612095666258222
3014063 24 10303818683067116868
3178227 256 15936700306467793822
3633792 109 18202571692432068518
3711267 37 18272381828436296281
3918712 181 18267021653553553813
4366758 26 18341903944118133641
5104073 3 15575539251020641159
5223283 242 18266183825624039462
5385378 56 16950552282486585170
54076057 255 18272082795005045089
5718773 13 9223232940297245701
5911458 16 18412267220733201601
59682541 35 14129068018621489607
59682541 52 15841548540024589079
6328613 192 18412545439755059985
6698420 124 18187367640467389962
9689198 14 18335708234516971995
9980921 221 16486988262846769017

> <PUBCHEM_SHAPE_MULTIPOLES>
572.86
25.82
3.88
1.4
22.96
3.42
-0.64
31.66
1.19
-0.04
-0.15
0.16
-0.64
-2.84

> <PUBCHEM_SHAPE_SELFOVERLAP>
1219.76

> <PUBCHEM_SHAPE_VOLUME>
319

> <PUBCHEM_COORDINATE_TYPE>
2
5
10

$$$$
