51137956
  -OEChem-12032416233D

 54 57  0     1  0  0  0  0  0999 V2000
   -1.8127    2.0845   -1.6923 O   0  0  0  0  0  0  0  0  0  0  0  0
   -0.0612   -0.2689   -0.7546 N   0  0  0  0  0  0  0  0  0  0  0  0
   -2.5792    1.1390    0.2923 N   0  0  0  0  0  0  0  0  0  0  0  0
    4.3576    2.0540    0.0085 N   0  0  0  0  0  0  0  0  0  0  0  0
   -3.9786    1.4468    0.1300 C   0  0  0  0  0  0  0  0  0  0  0  0
    0.7237   -1.1755    0.0939 C   0  0  2  0  0  0  0  0  0  0  0  0
   -0.2398    1.0701   -0.2117 C   0  0  1  0  0  0  0  0  0  0  0  0
   -4.6844    1.5806    1.4733 C   0  0  0  0  0  0  0  0  0  0  0  0
   -4.7378    0.3066   -0.5383 C   0  0  0  0  0  0  0  0  0  0  0  0
   -4.9935    0.1450    1.8890 C   0  0  0  0  0  0  0  0  0  0  0  0
   -5.0694   -0.6642    0.5939 C   0  0  0  0  0  0  0  0  0  0  0  0
    0.7809    2.0497   -0.7877 C   0  0  0  0  0  0  0  0  0  0  0  0
    2.1863   -0.7803    0.3217 C   0  0  0  0  0  0  0  0  0  0  0  0
    0.5825   -2.5546   -0.5751 C   0  0  0  0  0  0  0  0  0  0  0  0
    2.7344    0.5122    0.0786 C   0  0  0  0  0  0  0  0  0  0  0  0
    2.1897    1.7568   -0.3929 C   0  0  0  0  0  0  0  0  0  0  0  0
   -1.6144    1.4866   -0.6378 C   0  0  0  0  0  0  0  0  0  0  0  0
   -0.7753   -3.2121   -0.3094 C   0  0  0  0  0  0  0  0  0  0  0  0
    4.0887    0.7476    0.3421 C   0  0  0  0  0  0  0  0  0  0  0  0
    3.2230    2.6712   -0.4285 C   0  0  0  0  0  0  0  0  0  0  0  0
    3.0665   -1.7357    0.8907 C   0  0  0  0  0  0  0  0  0  0  0  0
    4.9510   -0.2208    0.8591 C   0  0  0  0  0  0  0  0  0  0  0  0
   -1.9465   -2.3742   -0.8243 C   0  0  0  0  0  0  0  0  0  0  0  0
   -0.8024   -4.5957   -0.9631 C   0  0  0  0  0  0  0  0  0  0  0  0
    4.4110   -1.4686    1.1425 C   0  0  0  0  0  0  0  0  0  0  0  0
   -4.0644    2.3687   -0.4552 H   0  0  0  0  0  0  0  0  0  0  0  0
    0.2614   -1.2225    1.0895 H   0  0  0  0  0  0  0  0  0  0  0  0
   -0.1900    1.0787    0.8855 H   0  0  0  0  0  0  0  0  0  0  0  0
   -4.0897    2.1060    2.2273 H   0  0  0  0  0  0  0  0  0  0  0  0
   -5.6259    2.1284    1.3434 H   0  0  0  0  0  0  0  0  0  0  0  0
   -5.6731    0.6891   -0.9655 H   0  0  0  0  0  0  0  0  0  0  0  0
   -4.1782   -0.1794   -1.3436 H   0  0  0  0  0  0  0  0  0  0  0  0
   -4.1915   -0.2482    2.5247 H   0  0  0  0  0  0  0  0  0  0  0  0
   -5.9237    0.0856    2.4629 H   0  0  0  0  0  0  0  0  0  0  0  0
   -6.0623   -1.1040    0.4526 H   0  0  0  0  0  0  0  0  0  0  0  0
   -4.3537   -1.4906    0.6305 H   0  0  0  0  0  0  0  0  0  0  0  0
    0.7335    2.0677   -1.8857 H   0  0  0  0  0  0  0  0  0  0  0  0
    0.5250    3.0663   -0.4582 H   0  0  0  0  0  0  0  0  0  0  0  0
    0.3181   -0.2356   -1.7002 H   0  0  0  0  0  0  0  0  0  0  0  0
    1.3401   -3.2603   -0.2226 H   0  0  0  0  0  0  0  0  0  0  0  0
    0.7659   -2.4776   -1.6571 H   0  0  0  0  0  0  0  0  0  0  0  0
   -2.3039    0.5945    1.1048 H   0  0  0  0  0  0  0  0  0  0  0  0
   -0.9014   -3.3533    0.7717 H   0  0  0  0  0  0  0  0  0  0  0  0
    3.2430    3.7110   -0.7245 H   0  0  0  0  0  0  0  0  0  0  0  0
    2.7022   -2.7173    1.1848 H   0  0  0  0  0  0  0  0  0  0  0  0
    5.2624    2.4964    0.0927 H   0  0  0  0  0  0  0  0  0  0  0  0
    5.9957   -0.0047    1.0553 H   0  0  0  0  0  0  0  0  0  0  0  0
   -2.8692   -2.9662   -0.8152 H   0  0  0  0  0  0  0  0  0  0  0  0
   -2.1342   -1.5204   -0.1735 H   0  0  0  0  0  0  0  0  0  0  0  0
   -1.7918   -2.0363   -1.8540 H   0  0  0  0  0  0  0  0  0  0  0  0
   -1.7461   -5.1091   -0.7492 H   0  0  0  0  0  0  0  0  0  0  0  0
   -0.6956   -4.5243   -2.0510 H   0  0  0  0  0  0  0  0  0  0  0  0
    0.0089   -5.2252   -0.5823 H   0  0  0  0  0  0  0  0  0  0  0  0
    5.0410   -2.2412    1.5751 H   0  0  0  0  0  0  0  0  0  0  0  0
  1 17  2  0  0  0  0
  2  6  1  0  0  0  0
  2  7  1  0  0  0  0
  2 39  1  0  0  0  0
  3  5  1  0  0  0  0
  3 17  1  0  0  0  0
  3 42  1  0  0  0  0
  4 19  1  0  0  0  0
  4 20  1  0  0  0  0
  4 46  1  0  0  0  0
  5  8  1  0  0  0  0
  5  9  1  0  0  0  0
  5 26  1  0  0  0  0
  6 13  1  0  0  0  0
  6 14  1  0  0  0  0
  6 27  1  0  0  0  0
  7 12  1  0  0  0  0
  7 17  1  0  0  0  0
  7 28  1  0  0  0  0
  8 10  1  0  0  0  0
  8 29  1  0  0  0  0
  8 30  1  0  0  0  0
  9 11  1  0  0  0  0
  9 31  1  0  0  0  0
  9 32  1  0  0  0  0
 10 11  1  0  0  0  0
 10 33  1  0  0  0  0
 10 34  1  0  0  0  0
 11 35  1  0  0  0  0
 11 36  1  0  0  0  0
 12 16  1  0  0  0  0
 12 37  1  0  0  0  0
 12 38  1  0  0  0  0
 13 15  2  0  0  0  0
 13 21  1  0  0  0  0
 14 18  1  0  0  0  0
 14 40  1  0  0  0  0
 14 41  1  0  0  0  0
 15 16  1  0  0  0  0
 15 19  1  0  0  0  0
 16 20  2  0  0  0  0
 18 23  1  0  0  0  0
 18 24  1  0  0  0  0
 18 43  1  0  0  0  0
 19 22  2  0  0  0  0
 20 44  1  0  0  0  0
 21 25  2  0  0  0  0
 21 45  1  0  0  0  0
 22 25  1  0  0  0  0
 22 47  1  0  0  0  0
 23 48  1  0  0  0  0
 23 49  1  0  0  0  0
 23 50  1  0  0  0  0
 24 51  1  0  0  0  0
 24 52  1  0  0  0  0
 24 53  1  0  0  0  0
 25 54  1  0  0  0  0
M  END
> <PUBCHEM_COMPOUND_CID>
51137956

> <PUBCHEM_CONFORMER_RMSD>
0.8

> <PUBCHEM_CONFORMER_DIVERSEORDER>
1
23
42
35
34
32
7
10
11
17
43
12
18
46
20
38
47
14
41
40
22
39
36
5
19
4
45
9
2
25
21
27
3
6
24
33
31
28
26
30
15
16
8
29
44
37
13

> <PUBCHEM_MMFF94_PARTIAL_CHARGES>
23
1 -0.57
12 0.18
13 -0.14
16 -0.18
17 0.57
19 -0.15
2 -0.9
20 -0.3
21 -0.15
22 -0.15
25 -0.15
3 -0.73
39 0.36
4 0.03
42 0.37
44 0.15
45 0.15
46 0.27
47 0.15
5 0.3
54 0.15
6 0.41
7 0.33

> <PUBCHEM_EFFECTIVE_ROTOR_COUNT>
6.8

> <PUBCHEM_PHARMACOPHORE_FEATURES>
11
1 1 acceptor
1 2 cation
1 2 donor
1 3 donor
1 4 cation
1 4 donor
3 18 23 24 hydrophobe
5 4 15 16 19 20 rings
5 5 8 9 10 11 rings
6 13 15 19 21 22 25 rings
7 2 6 7 12 13 15 16 rings

> <PUBCHEM_HEAVY_ATOM_COUNT>
25

> <PUBCHEM_ATOM_DEF_STEREO_COUNT>
2

> <PUBCHEM_ATOM_UDEF_STEREO_COUNT>
0

> <PUBCHEM_BOND_DEF_STEREO_COUNT>
0

> <PUBCHEM_BOND_UDEF_STEREO_COUNT>
0

> <PUBCHEM_ISOTOPIC_ATOM_COUNT>
0

> <PUBCHEM_COMPONENT_COUNT>
1

> <PUBCHEM_CACTVS_TAUTO_COUNT>
2

> <PUBCHEM_CONFORMER_ID>
030C4DA400000001

> <PUBCHEM_MMFF94_ENERGY>
52.8583

> <PUBCHEM_FEATURE_SELFOVERLAP>
55.952

> <PUBCHEM_SHAPE_FINGERPRINT>
1100329 8 18411412947410852864
11115154 58 16837660136458537879
11513181 2 18059864994950751079
12035758 1 18198615533246598338
12422481 6 18335700499054116115
12633257 1 18341891891810795558
12788726 201 17914326038195877759
12839892 36 18411416181447399739
13140716 1 18337661019108416968
13540713 5 18118111705637078372
13583140 156 17169250577466812966
14341114 328 17917438609801163377
14464042 87 18126559257505024775
14787075 74 17918269870540293473
14790565 3 18411984684344972796
14840074 17 18187372059909440765
14866123 147 18339635737233413062
14955137 171 18267023856491078610
15210252 30 11455594492226470450
15475509 84 17394748597476230459
17138139 8 17628603597017723623
19591789 44 18337950095528557462
1979834 28 18265638519248258281
20028762 73 18273207586942557879
20261772 1 18408602573798546578
20739085 24 18263658293768328957
21033648 29 18055325017081985584
21197605 99 18263375835893077899
23558518 356 17760935434352229884
23559900 14 18050284761221744663
25147074 1 18116143558343365028
338550 245 18260830448924953180
350125 39 18408037438276561620
465052 167 18040724644788323232
6287921 2 17986402074881078183
6438718 38 17916861460105665015
7064713 232 18272086089260408201

> <PUBCHEM_SHAPE_MULTIPOLES>
493.68
10.58
4.01
1.25
4.94
4.22
0.24
-3.9
5.09
-0.17
-1.53
0.92
-0.06
-1.28

> <PUBCHEM_SHAPE_SELFOVERLAP>
1058.248

> <PUBCHEM_SHAPE_VOLUME>
274.1

> <PUBCHEM_COORDINATE_TYPE>
2
5
10

$$$$
