11912841
  -OEChem-12032416123D

 48 51  0     1  0  0  0  0  0999 V2000
   -4.2836    3.5797   -0.4410 F   0  0  0  0  0  0  0  0  0  0  0  0
    2.6704   -0.6346    1.2379 O   0  0  0  0  0  0  0  0  0  0  0  0
    0.8236    1.7198    0.5604 O   0  0  0  0  0  0  0  0  0  0  0  0
    4.3217    1.2081   -0.0184 O   0  0  0  0  0  0  0  0  0  0  0  0
    7.1874   -0.5653   -1.2113 O   0  0  0  0  0  0  0  0  0  0  0  0
    6.9733    1.0631    0.4106 O   0  0  0  0  0  0  0  0  0  0  0  0
   -0.1674   -1.8032    0.7406 N   0  0  0  0  0  0  0  0  0  0  0  0
   -2.2975   -0.9519    0.2462 N   0  0  0  0  0  0  0  0  0  0  0  0
   -1.7440   -3.2499   -0.2226 N   0  0  0  0  0  0  0  0  0  0  0  0
    0.8062    0.3386    0.1421 C   0  0  1  0  0  0  0  0  0  0  0  0
    2.2512   -0.0880   -0.0231 C   0  0  1  0  0  0  0  0  0  0  0  0
    0.2933   -0.5346    1.2631 C   0  0  2  0  0  0  0  0  0  0  0  0
    2.9457    1.2183   -0.3247 C   0  0  1  0  0  0  0  0  0  0  0  0
    1.5362   -0.7348    2.1127 C   0  0  0  0  0  0  0  0  0  0  0  0
    2.1778    2.1940    0.5382 C   0  0  0  0  0  0  0  0  0  0  0  0
   -1.4410   -2.0078    0.2395 C   0  0  0  0  0  0  0  0  0  0  0  0
    5.0427    0.2874   -0.8334 C   0  0  0  0  0  0  0  0  0  0  0  0
    6.4980    0.3335   -0.4488 C   0  0  0  0  0  0  0  0  0  0  0  0
   -3.5303   -1.1866   -0.2491 C   0  0  0  0  0  0  0  0  0  0  0  0
   -2.9940   -3.4142   -0.7035 C   0  0  0  0  0  0  0  0  0  0  0  0
   -3.9385   -2.4090   -0.7425 C   0  0  0  0  0  0  0  0  0  0  0  0
   -4.4230   -0.0526   -0.2338 C   0  0  0  0  0  0  0  0  0  0  0  0
   -3.9129    1.2426   -0.3469 C   0  0  0  0  0  0  0  0  0  0  0  0
   -5.8003   -0.2462   -0.1060 C   0  0  0  0  0  0  0  0  0  0  0  0
    8.5942   -0.6369   -0.9578 C   0  0  0  0  0  0  0  0  0  0  0  0
   -4.7755    2.3386   -0.3323 C   0  0  0  0  0  0  0  0  0  0  0  0
   -6.6629    0.8498   -0.0914 C   0  0  0  0  0  0  0  0  0  0  0  0
   -6.1506    2.1422   -0.2045 C   0  0  0  0  0  0  0  0  0  0  0  0
    0.2331    0.2850   -0.7888 H   0  0  0  0  0  0  0  0  0  0  0  0
    2.3887   -0.8589   -0.7870 H   0  0  0  0  0  0  0  0  0  0  0  0
   -0.4846   -0.0597    1.8719 H   0  0  0  0  0  0  0  0  0  0  0  0
    2.7930    1.4878   -1.3786 H   0  0  0  0  0  0  0  0  0  0  0  0
    1.5671   -1.6956    2.6360 H   0  0  0  0  0  0  0  0  0  0  0  0
    1.6329    0.0633    2.8571 H   0  0  0  0  0  0  0  0  0  0  0  0
    2.2035    3.2122    0.1383 H   0  0  0  0  0  0  0  0  0  0  0  0
    2.5574    2.2300    1.5654 H   0  0  0  0  0  0  0  0  0  0  0  0
    0.4787   -2.5822    0.6827 H   0  0  0  0  0  0  0  0  0  0  0  0
    4.9466    0.5731   -1.8861 H   0  0  0  0  0  0  0  0  0  0  0  0
    4.6899   -0.7349   -0.6691 H   0  0  0  0  0  0  0  0  0  0  0  0
   -3.2205   -4.4081   -1.0745 H   0  0  0  0  0  0  0  0  0  0  0  0
   -4.9161   -2.6041   -1.1640 H   0  0  0  0  0  0  0  0  0  0  0  0
   -2.8476    1.4309   -0.4580 H   0  0  0  0  0  0  0  0  0  0  0  0
   -6.2401   -1.2332    0.0103 H   0  0  0  0  0  0  0  0  0  0  0  0
    8.7774   -0.9443    0.0762 H   0  0  0  0  0  0  0  0  0  0  0  0
    9.0227   -1.3868   -1.6281 H   0  0  0  0  0  0  0  0  0  0  0  0
    9.0657    0.3287   -1.1639 H   0  0  0  0  0  0  0  0  0  0  0  0
   -7.7331    0.6978    0.0140 H   0  0  0  0  0  0  0  0  0  0  0  0
   -6.8219    2.9958   -0.1917 H   0  0  0  0  0  0  0  0  0  0  0  0
  1 26  1  0  0  0  0
  2 11  1  0  0  0  0
  2 14  1  0  0  0  0
  3 10  1  0  0  0  0
  3 15  1  0  0  0  0
  4 13  1  0  0  0  0
  4 17  1  0  0  0  0
  5 18  1  0  0  0  0
  5 25  1  0  0  0  0
  6 18  2  0  0  0  0
  7 12  1  0  0  0  0
  7 16  1  0  0  0  0
  7 37  1  0  0  0  0
  8 16  1  0  0  0  0
  8 19  2  0  0  0  0
  9 16  2  0  0  0  0
  9 20  1  0  0  0  0
 10 11  1  0  0  0  0
 10 12  1  0  0  0  0
 10 29  1  0  0  0  0
 11 13  1  0  0  0  0
 11 30  1  0  0  0  0
 12 14  1  0  0  0  0
 12 31  1  0  0  0  0
 13 15  1  0  0  0  0
 13 32  1  0  0  0  0
 14 33  1  0  0  0  0
 14 34  1  0  0  0  0
 15 35  1  0  0  0  0
 15 36  1  0  0  0  0
 17 18  1  0  0  0  0
 17 38  1  0  0  0  0
 17 39  1  0  0  0  0
 19 21  1  0  0  0  0
 19 22  1  0  0  0  0
 20 21  2  0  0  0  0
 20 40  1  0  0  0  0
 21 41  1  0  0  0  0
 22 23  2  0  0  0  0
 22 24  1  0  0  0  0
 23 26  1  0  0  0  0
 23 42  1  0  0  0  0
 24 27  2  0  0  0  0
 24 43  1  0  0  0  0
 25 44  1  0  0  0  0
 25 45  1  0  0  0  0
 25 46  1  0  0  0  0
 26 28  2  0  0  0  0
 27 28  1  0  0  0  0
 27 47  1  0  0  0  0
 28 48  1  0  0  0  0
M  END
> <PUBCHEM_COMPOUND_CID>
11912841

> <PUBCHEM_CONFORMER_RMSD>
1

> <PUBCHEM_CONFORMER_DIVERSEORDER>
1
257
55
353
347
246
212
119
202
241
218
315
332
152
161
290
78
95
113
354
251
358
173
56
29
203
248
232
219
201
59
262
41
305
342
109
275
206
11
237
120
134
167
30
348
302
265
169
355
129
111
334
187
52
200
229
316
312
215
26
276
135
138
106
249
352
43
211
341
214
344
177
300
10
228
100
286
279
323
310
297
37
149
63
136
124
244
284
299
97
27
195
357
179
21
260
328
79
102
175
198
194
351
268
239
306
255
7
81
331
234
125
295
181
336
150
338
66
185
271
216
54
327
247
225
317
240
46
90
61
222
339
110
112
298
224
197
345
217
189
210
31
92
82
122
350
227
65
137
24
170
209
69
242
294
289
64
326
45
89
273
314
38
132
274
308
285
146
281
142
71
159
158
264
34
180
236
108
25
123
141
162
133
116
186
155
160
287
190
5
35
333
277
223
51
28
283
318
243
259
329
230
272
233
311
324
349
346
42
62
252
292
3
131
231
238
121
208
60
164
235
325
278
193
53
221
291
196
93
322
163
356
115
280
304
205
307
126
47
282
174
147
85
8
101
261
117
172
118
20
130
319
330
184
148
73
13
340
76
337
207
288
263
96
48
12
154
83
250
183
293
335
144
145
320
75
157
192
39
204
296
50
94
77
127
143
267
105
9
309
213
4
153
168
40
87
301
114
17
343
14
15
99
191
23
253
140
84
151
68
178
6
88
182
49
256
18
67
270
188
220
107
16
321
72
199
171
128
269
74
91
80
44
258
2
70
254
104
32
58
22
166
226
36
245
165
57
19
313
303
33
266
98
156
139
86
176
103

> <PUBCHEM_MMFF94_PARTIAL_CHARGES>
34
1 -0.19
10 0.28
11 0.28
12 0.37
13 0.28
14 0.28
15 0.28
16 0.72
17 0.34
18 0.66
19 0.31
2 -0.56
20 0.16
21 -0.15
23 -0.15
24 -0.15
25 0.28
26 0.19
27 -0.15
28 -0.15
3 -0.56
37 0.4
4 -0.56
40 0.15
41 0.15
42 0.15
43 0.15
47 0.15
48 0.15
5 -0.43
6 -0.57
7 -0.87
8 -0.62
9 -0.62

> <PUBCHEM_EFFECTIVE_ROTOR_COUNT>
8.2

> <PUBCHEM_PHARMACOPHORE_FEATURES>
11
1 2 acceptor
1 3 acceptor
1 4 acceptor
1 6 acceptor
1 7 donor
1 8 acceptor
4 7 8 9 16 cation
5 2 10 11 12 14 rings
5 3 10 11 13 15 rings
6 22 23 24 26 27 28 rings
6 8 9 16 19 20 21 rings

> <PUBCHEM_HEAVY_ATOM_COUNT>
28

> <PUBCHEM_ATOM_DEF_STEREO_COUNT>
4

> <PUBCHEM_ATOM_UDEF_STEREO_COUNT>
0

> <PUBCHEM_BOND_DEF_STEREO_COUNT>
0

> <PUBCHEM_BOND_UDEF_STEREO_COUNT>
0

> <PUBCHEM_ISOTOPIC_ATOM_COUNT>
0

> <PUBCHEM_COMPONENT_COUNT>
1

> <PUBCHEM_CACTVS_TAUTO_COUNT>
3

> <PUBCHEM_CONFORMER_ID>
00B5C68900000001

> <PUBCHEM_MMFF94_ENERGY>
83.8532

> <PUBCHEM_FEATURE_SELFOVERLAP>
56.549

> <PUBCHEM_SHAPE_FINGERPRINT>
10 15 11963391860440604464
10165383 225 18272375244509043217
10411042 1 17906169913219562431
10577160 183 18334575690754788730
10670039 82 18410006642158675277
10674148 151 18113900460407513872
10730089 173 18409730655965773173
10815517 723 17967251992540134916
10835480 77 18059855125600720080
10864689 126 18339634547580550897
11135609 99 11383533620875229125
11200772 48 18335709351230003234
11211813 163 18411700954690111462
11796584 16 18131072671243468598
12144603 126 18113334220767548266
12758862 11 18201999949979005272
13177829 73 18334011705102305804
13761468 95 18041832892612045805
14068700 675 11023816276003537971
14251752 14 18410011027235998594
14251757 5 18342175592171591353
14257110 125 18335138687936798213
14294032 229 17822571578463254740
14856354 85 16443355303101635251
14931854 50 18341037550608799229
15183329 4 18410857655378903858
15230672 131 18410291372679314182
15297060 5 18272656697605164337
15350500 55 17241035493607925765
15475509 8 18113341899625949532
16628084 112 17678732333577769386
16992727 255 18335709312638705132
1768 4 14129352840448622606
18608769 82 18339366366070355771
19611394 137 17824276002222431043
21133410 127 17682682813973638421
21304303 282 17201664167569176249
21365058 27 15213022656803323208
21781055 127 17631737037463327835
21859007 373 18272357694771934064
21987440 362 18046912576002381821
22393880 68 18341044219985653858
23559900 14 17988638661756863328
3009799 131 18131353033817848648
339767 52 9799689299371455769
3610482 184 17968956312681973822
38570 142 17822013103290086346
4098825 35 18341896294205489470
4149490 64 13398046757103054487
444769 64 18336837428800991450
4516262 110 17821999913508895151
508180 173 18411983585129290920
5283173 99 18340485668501087528
531348 171 18342459287124693854
59682541 35 8502363422055614948
59755656 215 18412829054020752940
59755656 520 18335135393253822799
6328613 192 18334015016717425892
7808743 9 18410288130067747435

> <PUBCHEM_SHAPE_MULTIPOLES>
524.66
19.57
3.22
1.09
27.47
0.69
-0.39
-6.16
7.2
-5.6
0.52
1.04
0.28
0.24

> <PUBCHEM_SHAPE_SELFOVERLAP>
1136.765

> <PUBCHEM_SHAPE_VOLUME>
288.1

> <PUBCHEM_COORDINATE_TYPE>
2
5
10

$$$$
