45361444
  -OEChem-12032416313D

 73 76  0     1  0  0  0  0  0999 V2000
    1.8494    1.0464   -1.6030 O   0  0  0  0  0  0  0  0  0  0  0  0
    6.1812   -1.7524   -0.7042 O   0  0  0  0  0  0  0  0  0  0  0  0
   -3.8927    1.1037    2.1600 O   0  0  0  0  0  0  0  0  0  0  0  0
   -3.0746   -0.0893    0.3481 N   0  0  0  0  0  0  0  0  0  0  0  0
    6.3565    0.5592   -0.5489 N   0  0  0  0  0  0  0  0  0  0  0  0
  -10.3839    0.2719   -1.5874 N   0  0  0  0  0  0  0  0  0  0  0  0
    0.9021   -1.6233    0.9564 C   0  0  1  0  0  0  0  0  0  0  0  0
    0.7673   -0.3182    0.1035 C   0  0  2  0  0  0  0  0  0  0  0  0
   -0.7066   -0.1342   -0.4077 C   0  0  1  0  0  0  0  0  0  0  0  0
    1.8690   -0.2448   -0.9927 C   0  0  2  0  0  0  0  0  0  0  0  0
    2.3332   -1.7149    1.5368 C   0  0  0  0  0  0  0  0  0  0  0  0
    3.2920   -0.4413   -0.4197 C   0  0  1  0  0  0  0  0  0  0  0  0
   -0.0841   -1.5528    2.1452 C   0  0  0  0  0  0  0  0  0  0  0  0
   -1.6969   -0.1402    0.7906 C   0  0  2  0  0  0  0  0  0  0  0  0
    3.4130   -1.6831    0.4633 C   0  0  0  0  0  0  0  0  0  0  0  0
   -1.5287   -1.3482    1.7119 C   0  0  0  0  0  0  0  0  0  0  0  0
    0.6165   -2.9040    0.1318 C   0  0  0  0  0  0  0  0  0  0  0  0
    4.3495   -0.4964   -1.5291 C   0  0  2  0  0  0  0  0  0  0  0  0
   -0.9174    1.1475   -1.2314 C   0  0  0  0  0  0  0  0  0  0  0  0
    4.0985   -1.6625   -2.4677 C   0  0  0  0  0  0  0  0  0  0  0  0
    5.7099   -0.6278   -0.8920 C   0  0  0  0  0  0  0  0  0  0  0  0
   -4.0656    0.5379    1.0836 C   0  0  0  0  0  0  0  0  0  0  0  0
    7.6802    0.5140    0.0758 C   0  0  0  0  0  0  0  0  0  0  0  0
    5.8409    1.9109   -0.8001 C   0  0  0  0  0  0  0  0  0  0  0  0
    7.6951    1.3062    1.3804 C   0  0  0  0  0  0  0  0  0  0  0  0
    5.8216    2.7312    0.4879 C   0  0  0  0  0  0  0  0  0  0  0  0
   -5.4331    0.4794    0.5059 C   0  0  0  0  0  0  0  0  0  0  0  0
    7.1905    2.7323    1.1667 C   0  0  0  0  0  0  0  0  0  0  0  0
   -6.5474    0.5479    1.3422 C   0  0  0  0  0  0  0  0  0  0  0  0
   -5.6023    0.3573   -0.8733 C   0  0  0  0  0  0  0  0  0  0  0  0
   -7.8309    0.4945    0.7992 C   0  0  0  0  0  0  0  0  0  0  0  0
   -6.8861    0.3037   -1.4162 C   0  0  0  0  0  0  0  0  0  0  0  0
   -8.0004    0.3725   -0.5800 C   0  0  0  0  0  0  0  0  0  0  0  0
   -9.3157    0.3170   -1.1360 C   0  0  0  0  0  0  0  0  0  0  0  0
    0.9518    0.5351    0.7760 H   0  0  0  0  0  0  0  0  0  0  0  0
   -0.9577   -0.9695   -1.0736 H   0  0  0  0  0  0  0  0  0  0  0  0
    1.6274   -0.9742   -1.7685 H   0  0  0  0  0  0  0  0  0  0  0  0
    2.5046   -0.8794    2.2290 H   0  0  0  0  0  0  0  0  0  0  0  0
    2.4444   -2.6311    2.1311 H   0  0  0  0  0  0  0  0  0  0  0  0
    3.5142    0.4287    0.2146 H   0  0  0  0  0  0  0  0  0  0  0  0
   -0.0178   -2.4670    2.7489 H   0  0  0  0  0  0  0  0  0  0  0  0
    0.1983   -0.7254    2.8101 H   0  0  0  0  0  0  0  0  0  0  0  0
   -1.5065    0.7620    1.3883 H   0  0  0  0  0  0  0  0  0  0  0  0
    4.3721   -1.6932    0.9930 H   0  0  0  0  0  0  0  0  0  0  0  0
    3.3618   -2.6159   -0.1015 H   0  0  0  0  0  0  0  0  0  0  0  0
   -1.9067   -2.2535    1.2213 H   0  0  0  0  0  0  0  0  0  0  0  0
   -2.1512   -1.2223    2.6072 H   0  0  0  0  0  0  0  0  0  0  0  0
    1.2721   -2.9963   -0.7385 H   0  0  0  0  0  0  0  0  0  0  0  0
    0.7649   -3.7992    0.7472 H   0  0  0  0  0  0  0  0  0  0  0  0
   -0.4079   -2.9454   -0.2470 H   0  0  0  0  0  0  0  0  0  0  0  0
    4.3049    0.3840   -2.1723 H   0  0  0  0  0  0  0  0  0  0  0  0
   -0.4300    1.0740   -2.2077 H   0  0  0  0  0  0  0  0  0  0  0  0
   -1.9758    1.3257   -1.4471 H   0  0  0  0  0  0  0  0  0  0  0  0
   -0.5342    2.0268   -0.7036 H   0  0  0  0  0  0  0  0  0  0  0  0
   -3.3118   -0.6345   -0.4740 H   0  0  0  0  0  0  0  0  0  0  0  0
    2.0219    1.7095   -0.9130 H   0  0  0  0  0  0  0  0  0  0  0  0
    4.8985   -1.7016   -3.2190 H   0  0  0  0  0  0  0  0  0  0  0  0
    4.1010   -2.6450   -1.9898 H   0  0  0  0  0  0  0  0  0  0  0  0
    3.1686   -1.5560   -3.0324 H   0  0  0  0  0  0  0  0  0  0  0  0
    7.9857   -0.5193    0.2684 H   0  0  0  0  0  0  0  0  0  0  0  0
    8.3940    0.9392   -0.6396 H   0  0  0  0  0  0  0  0  0  0  0  0
    6.5047    2.3763   -1.5385 H   0  0  0  0  0  0  0  0  0  0  0  0
    4.8358    1.9291   -1.2155 H   0  0  0  0  0  0  0  0  0  0  0  0
    8.7097    1.3273    1.7928 H   0  0  0  0  0  0  0  0  0  0  0  0
    7.0545    0.8055    2.1172 H   0  0  0  0  0  0  0  0  0  0  0  0
    5.0797    2.3099    1.1777 H   0  0  0  0  0  0  0  0  0  0  0  0
    5.5147    3.7601    0.2701 H   0  0  0  0  0  0  0  0  0  0  0  0
    7.1285    3.2532    2.1286 H   0  0  0  0  0  0  0  0  0  0  0  0
    7.9064    3.2848    0.5460 H   0  0  0  0  0  0  0  0  0  0  0  0
   -6.4360    0.6388    2.4194 H   0  0  0  0  0  0  0  0  0  0  0  0
   -4.7628    0.3322   -1.5618 H   0  0  0  0  0  0  0  0  0  0  0  0
   -8.6899    0.5480    1.4640 H   0  0  0  0  0  0  0  0  0  0  0  0
   -7.0026    0.2151   -2.4938 H   0  0  0  0  0  0  0  0  0  0  0  0
  1 10  1  0  0  0  0
  1 56  1  0  0  0  0
  2 21  2  0  0  0  0
  3 22  2  0  0  0  0
  4 14  1  0  0  0  0
  4 22  1  0  0  0  0
  4 55  1  0  0  0  0
  5 21  1  0  0  0  0
  5 23  1  0  0  0  0
  5 24  1  0  0  0  0
  6 34  3  0  0  0  0
  7  8  1  0  0  0  0
  7 11  1  0  0  0  0
  7 13  1  0  0  0  0
  7 17  1  0  0  0  0
  8  9  1  0  0  0  0
  8 10  1  0  0  0  0
  8 35  1  0  0  0  0
  9 14  1  0  0  0  0
  9 19  1  0  0  0  0
  9 36  1  0  0  0  0
 10 12  1  0  0  0  0
 10 37  1  0  0  0  0
 11 15  1  0  0  0  0
 11 38  1  0  0  0  0
 11 39  1  0  0  0  0
 12 15  1  0  0  0  0
 12 18  1  0  0  0  0
 12 40  1  0  0  0  0
 13 16  1  0  0  0  0
 13 41  1  0  0  0  0
 13 42  1  0  0  0  0
 14 16  1  0  0  0  0
 14 43  1  0  0  0  0
 15 44  1  0  0  0  0
 15 45  1  0  0  0  0
 16 46  1  0  0  0  0
 16 47  1  0  0  0  0
 17 48  1  0  0  0  0
 17 49  1  0  0  0  0
 17 50  1  0  0  0  0
 18 20  1  0  0  0  0
 18 21  1  0  0  0  0
 18 51  1  0  0  0  0
 19 52  1  0  0  0  0
 19 53  1  0  0  0  0
 19 54  1  0  0  0  0
 20 57  1  0  0  0  0
 20 58  1  0  0  0  0
 20 59  1  0  0  0  0
 22 27  1  0  0  0  0
 23 25  1  0  0  0  0
 23 60  1  0  0  0  0
 23 61  1  0  0  0  0
 24 26  1  0  0  0  0
 24 62  1  0  0  0  0
 24 63  1  0  0  0  0
 25 28  1  0  0  0  0
 25 64  1  0  0  0  0
 25 65  1  0  0  0  0
 26 28  1  0  0  0  0
 26 66  1  0  0  0  0
 26 67  1  0  0  0  0
 27 29  2  0  0  0  0
 27 30  1  0  0  0  0
 28 68  1  0  0  0  0
 28 69  1  0  0  0  0
 29 31  1  0  0  0  0
 29 70  1  0  0  0  0
 30 32  2  0  0  0  0
 30 71  1  0  0  0  0
 31 33  2  0  0  0  0
 31 72  1  0  0  0  0
 32 33  1  0  0  0  0
 32 73  1  0  0  0  0
 33 34  1  0  0  0  0
M  END
> <PUBCHEM_COMPOUND_CID>
45361444

> <PUBCHEM_CONFORMER_RMSD>
1

> <PUBCHEM_CONFORMER_DIVERSEORDER>
1
26
19
28
8
9
12
15
20
23
16
30
24
17
2
14
25
7
22
27
10
4
18
6
29
21
13
3
11
5

> <PUBCHEM_MMFF94_PARTIAL_CHARGES>
26
1 -0.68
10 0.28
14 0.3
18 0.06
2 -0.57
21 0.57
22 0.54
23 0.3
24 0.3
27 0.09
29 -0.15
3 -0.57
30 -0.15
31 -0.15
32 -0.15
33 0.07
34 0.48
4 -0.73
5 -0.66
55 0.37
56 0.4
6 -0.56
70 0.15
71 0.15
72 0.15
73 0.15

> <PUBCHEM_EFFECTIVE_ROTOR_COUNT>
8.8

> <PUBCHEM_PHARMACOPHORE_FEATURES>
11
1 1 acceptor
1 1 donor
1 2 acceptor
1 20 hydrophobe
1 3 acceptor
1 4 donor
1 6 acceptor
6 27 29 30 31 32 33 rings
6 5 23 24 25 26 28 rings
6 7 8 10 11 12 15 rings
6 7 8 9 13 14 16 rings

> <PUBCHEM_HEAVY_ATOM_COUNT>
34

> <PUBCHEM_ATOM_DEF_STEREO_COUNT>
6

> <PUBCHEM_ATOM_UDEF_STEREO_COUNT>
1

> <PUBCHEM_BOND_DEF_STEREO_COUNT>
0

> <PUBCHEM_BOND_UDEF_STEREO_COUNT>
0

> <PUBCHEM_ISOTOPIC_ATOM_COUNT>
0

> <PUBCHEM_COMPONENT_COUNT>
1

> <PUBCHEM_CACTVS_TAUTO_COUNT>
2

> <PUBCHEM_CONFORMER_ID>
02B4292400000001

> <PUBCHEM_MMFF94_ENERGY>
93.6245

> <PUBCHEM_FEATURE_SELFOVERLAP>
55.836

> <PUBCHEM_SHAPE_FINGERPRINT>
10 15 16950288438102580700
10533779 1 17843393236818513496
11135609 127 17775281708148798488
11719270 70 16732987509492370442
12089408 11 17632296753596070133
12522641 24 18261384526299127786
12838862 33 17749100102591543797
13165053 68 17415547968574704829
13383668 254 18201173117746679785
13617811 41 16558747919371738776
13673619 4 14692566607751284659
13811026 1 18187649145730033979
13947947 74 17530963546109958021
14117953 113 17095251289213626182
14347424 109 14057007152535842102
14359421 15 8934183471967755976
15131766 46 14203687565437794270
15183329 4 15123515791441391250
15669420 48 12823295711506225376
15684393 108 17060619984553178421
15840311 113 17846782919154119036
16120349 18 18131067151846268772
17686467 74 18131069355750080665
18365409 1 18059289984950624119
20157964 124 18059582378055193654
20554085 129 17894344492950516952
20771845 171 15913340087278578692
21049683 271 15482669082963912747
21150785 3 17203891863883977025
21362857 166 14692307114486338476
21403212 168 17821725052866002088
21792934 111 17168135715937034226
21792938 131 15792287078649708890
21859007 373 17240474814816484716
22224240 67 18334013899646036387
22899556 105 11310966945392861708
23522609 53 16199055871008887699
23528521 120 18201146742299902821
24893992 56 16370732560925709417
25269216 80 13038918741494401106
34797466 226 18060146405190863918
4093350 32 18202287983312474958
4258327 124 17560242547739089244
445580 126 17022617572530588547
445580 167 17775283867905372937
44880568 143 17559689347335556649
4760202 170 18410847764333907613
5470011 282 17489870423300539109
5776283 40 16630519683025238007
6057620 51 17346882234917615819
6201320 215 12396841292063525263

> <PUBCHEM_SHAPE_MULTIPOLES>
667.15
27.93
2.22
1.95
39.92
0.09
-0.03
-15.15
-5.41
-5.01
0.59
0.17
0.26
1.83

> <PUBCHEM_SHAPE_SELFOVERLAP>
1404.205

> <PUBCHEM_SHAPE_VOLUME>
368.8

> <PUBCHEM_COORDINATE_TYPE>
2
5
10

$$$$
