75537060
  -OEChem-12032416303D

 47 50  0     1  0  0  0  0  0999 V2000
   -3.6056   -2.2747   -0.2991 O   0  0  0  0  0  0  0  0  0  0  0  0
    6.5085    1.8981   -0.7943 O   0  0  0  0  0  0  0  0  0  0  0  0
   -1.3752   -1.5975   -0.3213 N   0  0  0  0  0  0  0  0  0  0  0  0
    1.3856   -1.6318    0.2204 N   0  0  2  0  0  0  0  0  0  0  0  0
   -2.9483    0.0218   -0.1470 N   0  0  0  0  0  0  0  0  0  0  0  0
    4.8363    1.3687    0.7251 N   0  0  0  0  0  0  0  0  0  0  0  0
   -0.6304   -0.3657   -0.4006 C   0  0  2  0  0  0  0  0  0  0  0  0
    0.5950   -0.4189    0.5109 C   0  0  0  0  0  0  0  0  0  0  0  0
   -1.6597    0.6960   -0.0319 C   0  0  0  0  0  0  0  0  0  0  0  0
   -0.6710   -2.8581   -0.4425 C   0  0  0  0  0  0  0  0  0  0  0  0
    0.5791   -2.8490    0.4403 C   0  0  0  0  0  0  0  0  0  0  0  0
   -2.7626   -1.3878   -0.2663 C   0  0  0  0  0  0  0  0  0  0  0  0
    2.5926   -1.6633    1.0459 C   0  0  0  0  0  0  0  0  0  0  0  0
   -4.1869    0.7207   -0.0600 C   0  0  0  0  0  0  0  0  0  0  0  0
    3.6528   -0.7298    0.5249 C   0  0  0  0  0  0  0  0  0  0  0  0
   -5.3894    0.0145   -0.0884 C   0  0  0  0  0  0  0  0  0  0  0  0
   -4.1969    2.1108    0.0534 C   0  0  0  0  0  0  0  0  0  0  0  0
    4.4140   -1.0612   -0.5907 C   0  0  0  0  0  0  0  0  0  0  0  0
    3.9007    0.4859    1.1413 C   0  0  0  0  0  0  0  0  0  0  0  0
   -6.6022    0.6986   -0.0035 C   0  0  0  0  0  0  0  0  0  0  0  0
   -5.4094    2.7949    0.1383 C   0  0  0  0  0  0  0  0  0  0  0  0
   -6.6121    2.0888    0.1099 C   0  0  0  0  0  0  0  0  0  0  0  0
    5.3862   -0.1789   -1.0489 C   0  0  0  0  0  0  0  0  0  0  0  0
    5.5566    1.0123   -0.3620 C   0  0  0  0  0  0  0  0  0  0  0  0
    6.6424    3.1055   -0.0538 C   0  0  0  0  0  0  0  0  0  0  0  0
   -0.3234   -0.2444   -1.4480 H   0  0  0  0  0  0  0  0  0  0  0  0
    1.1801    0.4900    0.3335 H   0  0  0  0  0  0  0  0  0  0  0  0
    0.2861   -0.4124    1.5651 H   0  0  0  0  0  0  0  0  0  0  0  0
   -1.5443    1.0486    0.9990 H   0  0  0  0  0  0  0  0  0  0  0  0
   -1.5923    1.5406   -0.7251 H   0  0  0  0  0  0  0  0  0  0  0  0
   -0.3973   -2.9771   -1.4972 H   0  0  0  0  0  0  0  0  0  0  0  0
   -1.3407   -3.6807   -0.1724 H   0  0  0  0  0  0  0  0  0  0  0  0
    0.2808   -2.9176    1.4951 H   0  0  0  0  0  0  0  0  0  0  0  0
    1.1692   -3.7430    0.2061 H   0  0  0  0  0  0  0  0  0  0  0  0
    3.0344   -2.6697    1.0369 H   0  0  0  0  0  0  0  0  0  0  0  0
    2.3709   -1.4551    2.1015 H   0  0  0  0  0  0  0  0  0  0  0  0
   -5.4545   -1.0613   -0.1755 H   0  0  0  0  0  0  0  0  0  0  0  0
   -3.2859    2.7000    0.0860 H   0  0  0  0  0  0  0  0  0  0  0  0
    4.2584   -2.0028   -1.1100 H   0  0  0  0  0  0  0  0  0  0  0  0
    3.3401    0.8016    2.0158 H   0  0  0  0  0  0  0  0  0  0  0  0
   -7.5393    0.1499   -0.0257 H   0  0  0  0  0  0  0  0  0  0  0  0
   -5.4179    3.8773    0.2281 H   0  0  0  0  0  0  0  0  0  0  0  0
   -7.5562    2.6216    0.1763 H   0  0  0  0  0  0  0  0  0  0  0  0
    5.9882   -0.4224   -1.9175 H   0  0  0  0  0  0  0  0  0  0  0  0
    7.4344    3.6997   -0.5194 H   0  0  0  0  0  0  0  0  0  0  0  0
    6.9382    2.9012    0.9807 H   0  0  0  0  0  0  0  0  0  0  0  0
    5.7177    3.6913   -0.0870 H   0  0  0  0  0  0  0  0  0  0  0  0
  1 12  2  0  0  0  0
  2 24  1  0  0  0  0
  2 25  1  0  0  0  0
  3  7  1  0  0  0  0
  3 10  1  0  0  0  0
  3 12  1  0  0  0  0
  4  8  1  0  0  0  0
  4 11  1  0  0  0  0
  4 13  1  0  0  0  0
  5  9  1  0  0  0  0
  5 12  1  0  0  0  0
  5 14  1  0  0  0  0
  6 19  1  0  0  0  0
  6 24  2  0  0  0  0
  7  8  1  0  0  0  0
  7  9  1  0  0  0  0
  7 26  1  0  0  0  0
  8 27  1  0  0  0  0
  8 28  1  0  0  0  0
  9 29  1  0  0  0  0
  9 30  1  0  0  0  0
 10 11  1  0  0  0  0
 10 31  1  0  0  0  0
 10 32  1  0  0  0  0
 11 33  1  0  0  0  0
 11 34  1  0  0  0  0
 13 15  1  0  0  0  0
 13 35  1  0  0  0  0
 13 36  1  0  0  0  0
 14 16  2  0  0  0  0
 14 17  1  0  0  0  0
 15 18  1  0  0  0  0
 15 19  2  0  0  0  0
 16 20  1  0  0  0  0
 16 37  1  0  0  0  0
 17 21  2  0  0  0  0
 17 38  1  0  0  0  0
 18 23  2  0  0  0  0
 18 39  1  0  0  0  0
 19 40  1  0  0  0  0
 20 22  2  0  0  0  0
 20 41  1  0  0  0  0
 21 22  1  0  0  0  0
 21 42  1  0  0  0  0
 22 43  1  0  0  0  0
 23 24  1  0  0  0  0
 23 44  1  0  0  0  0
 25 45  1  0  0  0  0
 25 46  1  0  0  0  0
 25 47  1  0  0  0  0
M  END
> <PUBCHEM_COMPOUND_CID>
75537060

> <PUBCHEM_CONFORMER_RMSD>
0.8

> <PUBCHEM_CONFORMER_DIVERSEORDER>
1
29
13
8
18
31
12
30
16
21
20
28
14
7
26
11
19
33
27
22
15
10
32
17
24
23
6
25
9
4
2
5
3

> <PUBCHEM_MMFF94_PARTIAL_CHARGES>
33
1 -0.57
10 0.3
11 0.27
12 0.69
13 0.41
14 0.12
15 -0.14
16 -0.15
17 -0.15
18 -0.15
19 0.16
2 -0.36
20 -0.15
21 -0.15
22 -0.15
23 -0.15
24 0.39
25 0.28
3 -0.66
37 0.15
38 0.15
39 0.15
4 -0.81
40 0.15
41 0.15
42 0.15
43 0.15
44 0.15
5 -0.48
6 -0.62
7 0.3
8 0.27
9 0.3

> <PUBCHEM_EFFECTIVE_ROTOR_COUNT>
5.2

> <PUBCHEM_PHARMACOPHORE_FEATURES>
6
1 1 acceptor
1 4 cation
5 3 5 7 9 12 rings
6 14 16 17 20 21 22 rings
6 3 4 7 8 10 11 rings
6 6 15 18 19 23 24 rings

> <PUBCHEM_HEAVY_ATOM_COUNT>
25

> <PUBCHEM_ATOM_DEF_STEREO_COUNT>
1

> <PUBCHEM_ATOM_UDEF_STEREO_COUNT>
0

> <PUBCHEM_BOND_DEF_STEREO_COUNT>
0

> <PUBCHEM_BOND_UDEF_STEREO_COUNT>
0

> <PUBCHEM_ISOTOPIC_ATOM_COUNT>
0

> <PUBCHEM_COMPONENT_COUNT>
1

> <PUBCHEM_CACTVS_TAUTO_COUNT>
1

> <PUBCHEM_CONFORMER_ID>
04809AA400000001

> <PUBCHEM_MMFF94_ENERGY>
78.5977

> <PUBCHEM_FEATURE_SELFOVERLAP>
30.541

> <PUBCHEM_SHAPE_FINGERPRINT>
10 15 18187367632077493001
10050765 1 18410575076095464610
10280341 67 18126557054667512440
10411042 1 17690841585731572423
10554248 39 18193539091954957319
10670039 82 17632019619945553752
10753850 27 10952050043888334326
10906281 52 18059303050546228897
11796584 16 13398330370382485693
11991303 11 16701728437127947733
12166972 35 12247677184244560386
12236239 1 18259985950880461871
12342043 65 13769029539604772578
12390115 104 18343027691986806675
12596602 18 17676488298922082545
12760667 363 10087641511486135861
12788726 201 17488179292897206401
12895836 83 18412824720103449522
12895837 130 18192155017543174116
13540713 5 18265593477204590770
13782708 43 12103261812784385733
13885169 86 18335146418171679308
13944108 23 17911240511814732889
13955234 65 17677887934111635970
14020679 6 17458352965471980105
14211702 104 8935003693648553936
14257110 125 18409729543052018994
14347332 77 10087920774771122779
14528608 73 18341609287468689131
1454969 45 18412537709699904015
14565420 104 18040433265822938586
14790565 3 18339644430146493225
14840074 17 17894354371138135189
14931854 50 17988653995344471776
14933364 13 18412267216021028669
15183329 4 16487259854517830288
15188451 53 8935003650846060804
15840311 113 18261397702567785949
16126227 98 18339082691178819985
17980427 23 17967535705168185951
19438510 23 18114179778830731072
19611394 137 18114760329734230819
1979834 28 13407080240914121144
20058555 10 18336825278344487125
21033648 29 18270673272853699258
21298829 104 18334580191728105740
21304304 249 9151177558537377304
21585482 111 18187644635487976956
245318 6 17823717410653675292
25122255 55 9295290564252524416
270888 7 18409165532769332648
2747138 104 18044389441941326099
2748736 6 18337099112072776516
3472631 163 18411984680625051388
34797466 226 18131639962711844567
4073 2 18187369860817886266
4340502 62 16370728101705203762
44249763 50 17631153346817012040
465052 167 8358252657653713896
5104073 3 17967246507850826698
543368 44 18408884049160587021
54583773 228 18411130326691120781
5718773 13 9511468809971007524
59682541 35 18187660102766652185
59682541 52 16056597599637401244
6328613 192 18411982451379217033
633830 44 18412255117372911054
636775 72 18196085776018827552
6438161 24 9439109937067778473
6697151 62 16958692864341369331
6712543 237 14996279223506893593
6898599 12 18271522112604432463
7808743 9 18410006671891240842
7970288 3 9655579604189993492

> <PUBCHEM_SHAPE_MULTIPOLES>
482.83
18.43
3.3
0.86
1.66
0.23
0.06
17.81
-1.61
0.6
-0.01
0.9
-0.07
-0.71

> <PUBCHEM_SHAPE_SELFOVERLAP>
1040.093

> <PUBCHEM_SHAPE_VOLUME>
264.6

> <PUBCHEM_COORDINATE_TYPE>
2
5
10

$$$$
