51137098
  -OEChem-12032416243D

 43 46  0     1  0  0  0  0  0999 V2000
   -7.9638   -0.1269    0.5664 F   0  0  0  0  0  0  0  0  0  0  0  0
   -1.6815   -0.2722   -0.1302 N   0  0  1  0  0  0  0  0  0  0  0  0
    2.9663   -1.2647    0.4801 N   0  0  0  0  0  0  0  0  0  0  0  0
    2.4031    0.8188   -0.0505 N   0  0  0  0  0  0  0  0  0  0  0  0
    0.5117   -0.7451    0.5523 C   0  0  1  0  0  0  0  0  0  0  0  0
   -0.2042    0.0661    1.6463 C   0  0  0  0  0  0  0  0  0  0  0  0
   -0.3643   -0.5718   -0.6958 C   0  0  0  0  0  0  0  0  0  0  0  0
   -1.4195    0.6719    0.9561 C   0  0  0  0  0  0  0  0  0  0  0  0
    1.9542   -0.3602    0.3178 C   0  0  0  0  0  0  0  0  0  0  0  0
   -2.6021    0.2650   -1.1213 C   0  0  0  0  0  0  0  0  0  0  0  0
   -4.0348    0.1605   -0.6704 C   0  0  0  0  0  0  0  0  0  0  0  0
    4.1471   -0.6271    0.1976 C   0  0  0  0  0  0  0  0  0  0  0  0
    3.7689    0.6718   -0.1307 C   0  0  0  0  0  0  0  0  0  0  0  0
    5.4728   -1.0617    0.2009 C   0  0  0  0  0  0  0  0  0  0  0  0
    4.7590    1.6061   -0.4787 C   0  0  0  0  0  0  0  0  0  0  0  0
   -4.7805   -0.9782   -0.9757 C   0  0  0  0  0  0  0  0  0  0  0  0
   -4.6165    1.2018    0.0527 C   0  0  0  0  0  0  0  0  0  0  0  0
    6.4452   -0.1188   -0.1480 C   0  0  0  0  0  0  0  0  0  0  0  0
    6.0968    1.1921   -0.4821 C   0  0  0  0  0  0  0  0  0  0  0  0
   -6.1078   -1.0753   -0.5583 C   0  0  0  0  0  0  0  0  0  0  0  0
   -5.9438    1.1048    0.4702 C   0  0  0  0  0  0  0  0  0  0  0  0
   -6.6895   -0.0338    0.1647 C   0  0  0  0  0  0  0  0  0  0  0  0
    7.8830   -0.5232   -0.1633 C   0  0  0  0  0  0  0  0  0  0  0  0
    0.4781   -1.8022    0.8538 H   0  0  0  0  0  0  0  0  0  0  0  0
   -0.5243   -0.6096    2.4493 H   0  0  0  0  0  0  0  0  0  0  0  0
    0.4259    0.8409    2.0959 H   0  0  0  0  0  0  0  0  0  0  0  0
   -0.3799   -1.4856   -1.2999 H   0  0  0  0  0  0  0  0  0  0  0  0
   -0.0033    0.2511   -1.3271 H   0  0  0  0  0  0  0  0  0  0  0  0
   -1.1690    1.6724    0.5806 H   0  0  0  0  0  0  0  0  0  0  0  0
   -2.2551    0.7572    1.6570 H   0  0  0  0  0  0  0  0  0  0  0  0
   -2.3612    1.3011   -1.3961 H   0  0  0  0  0  0  0  0  0  0  0  0
   -2.5117   -0.3047   -2.0569 H   0  0  0  0  0  0  0  0  0  0  0  0
    2.8664   -2.2320    0.7584 H   0  0  0  0  0  0  0  0  0  0  0  0
    5.7296   -2.0821    0.4641 H   0  0  0  0  0  0  0  0  0  0  0  0
    4.4983    2.6269   -0.7395 H   0  0  0  0  0  0  0  0  0  0  0  0
   -4.3390   -1.7978   -1.5363 H   0  0  0  0  0  0  0  0  0  0  0  0
   -4.0494    2.0972    0.2929 H   0  0  0  0  0  0  0  0  0  0  0  0
    6.8665    1.9128   -0.7491 H   0  0  0  0  0  0  0  0  0  0  0  0
   -6.6886   -1.9618   -0.7953 H   0  0  0  0  0  0  0  0  0  0  0  0
   -6.3974    1.9159    1.0321 H   0  0  0  0  0  0  0  0  0  0  0  0
    8.4272   -0.0084   -0.9624 H   0  0  0  0  0  0  0  0  0  0  0  0
    7.9924   -1.5982   -0.3429 H   0  0  0  0  0  0  0  0  0  0  0  0
    8.3512   -0.2803    0.7958 H   0  0  0  0  0  0  0  0  0  0  0  0
  1 22  1  0  0  0  0
  2  7  1  0  0  0  0
  2  8  1  0  0  0  0
  2 10  1  0  0  0  0
  3  9  1  0  0  0  0
  3 12  1  0  0  0  0
  3 33  1  0  0  0  0
  4  9  2  0  0  0  0
  4 13  1  0  0  0  0
  5  6  1  0  0  0  0
  5  7  1  0  0  0  0
  5  9  1  0  0  0  0
  5 24  1  0  0  0  0
  6  8  1  0  0  0  0
  6 25  1  0  0  0  0
  6 26  1  0  0  0  0
  7 27  1  0  0  0  0
  7 28  1  0  0  0  0
  8 29  1  0  0  0  0
  8 30  1  0  0  0  0
 10 11  1  0  0  0  0
 10 31  1  0  0  0  0
 10 32  1  0  0  0  0
 11 16  2  0  0  0  0
 11 17  1  0  0  0  0
 12 13  2  0  0  0  0
 12 14  1  0  0  0  0
 13 15  1  0  0  0  0
 14 18  2  0  0  0  0
 14 34  1  0  0  0  0
 15 19  2  0  0  0  0
 15 35  1  0  0  0  0
 16 20  1  0  0  0  0
 16 36  1  0  0  0  0
 17 21  2  0  0  0  0
 17 37  1  0  0  0  0
 18 19  1  0  0  0  0
 18 23  1  0  0  0  0
 19 38  1  0  0  0  0
 20 22  2  0  0  0  0
 20 39  1  0  0  0  0
 21 22  1  0  0  0  0
 21 40  1  0  0  0  0
 23 41  1  0  0  0  0
 23 42  1  0  0  0  0
 23 43  1  0  0  0  0
M  END
> <PUBCHEM_COMPOUND_CID>
51137098

> <PUBCHEM_CONFORMER_RMSD>
0.6

> <PUBCHEM_CONFORMER_DIVERSEORDER>
1
120
94
119
95
105
68
122
70
42
85
114
23
118
53
40
125
91
88
106
3
103
98
113
110
104
78
13
58
72
84
117
29
26
99
82
116
83
90
18
124
92
34
7
101
86
59
108
121
93
89
57
87
14
32
100
27
38
21
73
8
36
77
37
16
115
17
43
97
67
31
75
4
96
102
52
9
48
111
65
24
76
33
6
11
54
81
44
35
49
51
22
50
80
10
55
79
15
12
28
69
30
39
19
112
71
63
74
2
47
109
45
62
25
66
20
64
61
41
60
107
56
46
5
123

> <PUBCHEM_MMFF94_PARTIAL_CHARGES>
30
1 -0.19
10 0.41
11 -0.14
12 -0.15
13 0.23
14 -0.15
15 -0.15
16 -0.15
17 -0.15
18 -0.14
19 -0.15
2 -0.81
20 -0.15
21 -0.15
22 0.19
23 0.14
3 0.03
33 0.27
34 0.15
35 0.15
36 0.15
37 0.15
38 0.15
39 0.15
4 -0.57
40 0.15
5 0.18
7 0.27
8 0.27
9 0.01

> <PUBCHEM_EFFECTIVE_ROTOR_COUNT>
4

> <PUBCHEM_PHARMACOPHORE_FEATURES>
7
1 2 cation
1 3 donor
3 3 4 9 cation
5 2 5 6 7 8 rings
5 3 4 9 12 13 rings
6 11 16 17 20 21 22 rings
6 12 13 14 15 18 19 rings

> <PUBCHEM_HEAVY_ATOM_COUNT>
23

> <PUBCHEM_ATOM_DEF_STEREO_COUNT>
1

> <PUBCHEM_ATOM_UDEF_STEREO_COUNT>
0

> <PUBCHEM_BOND_DEF_STEREO_COUNT>
0

> <PUBCHEM_BOND_UDEF_STEREO_COUNT>
0

> <PUBCHEM_ISOTOPIC_ATOM_COUNT>
0

> <PUBCHEM_COMPONENT_COUNT>
1

> <PUBCHEM_CACTVS_TAUTO_COUNT>
2

> <PUBCHEM_CONFORMER_ID>
030C4A4A00000001

> <PUBCHEM_MMFF94_ENERGY>
47.229

> <PUBCHEM_FEATURE_SELFOVERLAP>
35.63

> <PUBCHEM_SHAPE_FINGERPRINT>
10 15 14779549023984896764
10299344 5 18342738524908265551
10595046 47 18410008819279813233
106641 1 13262404379576050412
11315181 36 18408041815307113677
11408170 108 18058450903941216814
11524674 6 15554445223932418375
11646440 116 16805609161369179628
11796584 16 14907892804175801822
12166972 35 18334295379319128220
12236239 1 18272931618134245980
12730499 353 17603866685257256834
12788726 201 17274826800873886819
12916748 109 16805318877678015756
13167372 99 18337954493733544744
13533116 47 16878213170289814296
14123256 10 16950281806551567795
14170010 4 18113336431963990996
1420 363 17095242514710977527
14251752 14 17704354359522043137
14251764 18 18409166614647267900
14251764 46 18410573985151457647
14294032 229 17273154404796366952
14849402 71 18261961863291281549
14856354 85 18060421344150451487
14933364 13 18410012134926110965
15183329 4 18410851053491716108
15419008 47 15864065485831034749
15461852 350 14201403802666628995
15537594 2 16343981399238680223
15716309 27 18335420162739578351
17093844 174 14117796921484758687
18006028 8 12463570677240717371
18335252 98 18260554428873719875
19489759 90 11241968170984690391
20157964 124 18260830410818801904
20567600 254 15791725308582970523
21095086 128 18407759248828811935
21150785 3 18411983564118098846
21236236 1 12966861113176349595
21267235 1 18409450259215543716
21315763 28 18410292510211832708
21792961 116 17632296727256605989
220451 1 18131064931269075183
221357 26 18260263041128314228
22224240 67 15719393949055727256
23035841 295 18060700598207109007
23198884 109 18409167718828428817
23516275 137 18129402426923808507
23536379 177 18413106147656106681
23569943 247 17098043941294945610
23622692 88 13840269199553910466
29717793 49 18060706083360290268
3004659 81 18273213097696035346
314173 85 14549020991745564899
347723 3 17418092117858348602
3545911 37 17676205775593471290
397830 11 15937554712659763361
4073 2 17968100879904175306
4325135 7 18408322185875816797
5283156 175 17561086882733221454
542803 24 18413666911365685926
5758199 1 18113620083766200355
59682541 35 16081095908890544457
59755656 520 17967810574042407995
9996256 80 18334573529563182204

> <PUBCHEM_SHAPE_MULTIPOLES>
451.11
22.03
1.26
1
2.96
0.17
-0.12
-0.07
1.79
-0.42
0.08
0.51
0.01
-1.01

> <PUBCHEM_SHAPE_SELFOVERLAP>
989.302

> <PUBCHEM_SHAPE_VOLUME>
249.1

> <PUBCHEM_COORDINATE_TYPE>
2
5
10

$$$$
