25389387
  -OEChem-12032416333D

 67 71  0     1  0  0  0  0  0999 V2000
   -6.0410   -0.4666    1.1279 S   0  0  0  0  0  0  0  0  0  0  0  0
   -4.7948   -3.0241    0.4212 S   0  0  0  0  0  0  0  0  0  0  0  0
   -7.0318    0.4618    0.6176 O   0  0  0  0  0  0  0  0  0  0  0  0
   -6.2365   -1.1083    2.4138 O   0  0  0  0  0  0  0  0  0  0  0  0
   -2.6202    2.7786   -1.0109 N   0  0  2  0  0  0  0  0  0  0  0  0
    1.4073    0.2408   -0.1536 N   0  0  0  0  0  0  0  0  0  0  0  0
   -4.5086    0.2769    1.1032 N   0  0  0  0  0  0  0  0  0  0  0  0
   -0.5957    2.2800    0.5445 C   0  0  2  0  0  0  0  0  0  0  0  0
   -0.3152    1.7989   -0.8974 C   0  0  2  0  0  0  0  0  0  0  0  0
   -3.0767    2.0438    0.1998 C   0  0  2  0  0  0  0  0  0  0  0  0
   -1.8765    1.6043    1.0677 C   0  0  0  0  0  0  0  0  0  0  0  0
   -1.5980    1.9874   -1.7379 C   0  0  0  0  0  0  0  0  0  0  0  0
   -0.8779    3.7926    0.4645 C   0  0  0  0  0  0  0  0  0  0  0  0
   -1.9926    4.0466   -0.5658 C   0  0  0  0  0  0  0  0  0  0  0  0
    0.1955    0.3614   -0.9641 C   0  0  0  0  0  0  0  0  0  0  0  0
   -3.9919    0.8660   -0.1429 C   0  0  0  0  0  0  0  0  0  0  0  0
    2.5734    0.7387   -0.8953 C   0  0  0  0  0  0  0  0  0  0  0  0
    1.6045   -1.1514    0.2721 C   0  0  0  0  0  0  0  0  0  0  0  0
    4.0943   -0.7546    0.4656 C   0  0  0  0  0  0  0  0  0  0  0  0
    3.8414    0.6691   -0.0417 C   0  0  0  0  0  0  0  0  0  0  0  0
    2.8390   -1.2853    1.1661 C   0  0  0  0  0  0  0  0  0  0  0  0
    5.3024   -0.7984    1.3973 C   0  0  0  0  0  0  0  0  0  0  0  0
    6.5962   -0.7835    0.6298 C   0  0  0  0  0  0  0  0  0  0  0  0
   -5.8354   -1.7543   -0.0656 C   0  0  0  0  0  0  0  0  0  0  0  0
    7.1846   -1.9839    0.2319 C   0  0  0  0  0  0  0  0  0  0  0  0
    7.2073    0.4304    0.3162 C   0  0  0  0  0  0  0  0  0  0  0  0
   -6.3439   -1.9584   -1.3295 C   0  0  0  0  0  0  0  0  0  0  0  0
    8.3843   -1.9704   -0.4798 C   0  0  0  0  0  0  0  0  0  0  0  0
    8.4069    0.4440   -0.3953 C   0  0  0  0  0  0  0  0  0  0  0  0
    8.9955   -0.7564   -0.7933 C   0  0  0  0  0  0  0  0  0  0  0  0
   -5.8732   -3.1735   -1.9057 C   0  0  0  0  0  0  0  0  0  0  0  0
   -5.0228   -3.8517   -1.0605 C   0  0  0  0  0  0  0  0  0  0  0  0
    0.2434    2.0992    1.2233 H   0  0  0  0  0  0  0  0  0  0  0  0
    0.4416    2.4658   -1.3311 H   0  0  0  0  0  0  0  0  0  0  0  0
   -3.6865    2.7381    0.7972 H   0  0  0  0  0  0  0  0  0  0  0  0
   -1.7451    0.5175    1.0780 H   0  0  0  0  0  0  0  0  0  0  0  0
   -2.0508    1.9091    2.1075 H   0  0  0  0  0  0  0  0  0  0  0  0
   -1.3444    2.5065   -2.6718 H   0  0  0  0  0  0  0  0  0  0  0  0
   -2.0178    1.0284   -2.0612 H   0  0  0  0  0  0  0  0  0  0  0  0
    0.0290    4.3356    0.1739 H   0  0  0  0  0  0  0  0  0  0  0  0
   -1.1813    4.1696    1.4487 H   0  0  0  0  0  0  0  0  0  0  0  0
   -2.7536    4.7097   -0.1362 H   0  0  0  0  0  0  0  0  0  0  0  0
   -1.5905    4.5859   -1.4328 H   0  0  0  0  0  0  0  0  0  0  0  0
    0.3745    0.0597   -2.0047 H   0  0  0  0  0  0  0  0  0  0  0  0
   -0.5865   -0.3110   -0.5908 H   0  0  0  0  0  0  0  0  0  0  0  0
   -3.4588    0.0855   -0.6949 H   0  0  0  0  0  0  0  0  0  0  0  0
   -4.8223    1.2202   -0.7635 H   0  0  0  0  0  0  0  0  0  0  0  0
    2.4399    1.7854   -1.1868 H   0  0  0  0  0  0  0  0  0  0  0  0
    2.7252    0.1633   -1.8184 H   0  0  0  0  0  0  0  0  0  0  0  0
    1.7017   -1.8157   -0.5967 H   0  0  0  0  0  0  0  0  0  0  0  0
    0.7352   -1.4919    0.8482 H   0  0  0  0  0  0  0  0  0  0  0  0
    4.2789   -1.4010   -0.4045 H   0  0  0  0  0  0  0  0  0  0  0  0
    4.6795    1.0187   -0.6532 H   0  0  0  0  0  0  0  0  0  0  0  0
    3.7476    1.3628    0.8041 H   0  0  0  0  0  0  0  0  0  0  0  0
    2.6724   -0.7363    2.1024 H   0  0  0  0  0  0  0  0  0  0  0  0
    2.9767   -2.3394    1.4354 H   0  0  0  0  0  0  0  0  0  0  0  0
   -3.7858   -0.1794    1.6749 H   0  0  0  0  0  0  0  0  0  0  0  0
    5.2766   -1.7121    2.0064 H   0  0  0  0  0  0  0  0  0  0  0  0
    5.2801    0.0292    2.1181 H   0  0  0  0  0  0  0  0  0  0  0  0
    6.7173   -2.9363    0.4679 H   0  0  0  0  0  0  0  0  0  0  0  0
    6.7657    1.3733    0.6274 H   0  0  0  0  0  0  0  0  0  0  0  0
   -7.0205   -1.2707   -1.8201 H   0  0  0  0  0  0  0  0  0  0  0  0
    8.8423   -2.9050   -0.7901 H   0  0  0  0  0  0  0  0  0  0  0  0
    8.8839    1.3891   -0.6378 H   0  0  0  0  0  0  0  0  0  0  0  0
    9.9297   -0.7458   -1.3471 H   0  0  0  0  0  0  0  0  0  0  0  0
   -6.1443   -3.5318   -2.8903 H   0  0  0  0  0  0  0  0  0  0  0  0
   -4.5243   -4.7934   -1.2422 H   0  0  0  0  0  0  0  0  0  0  0  0
  1  3  2  0  0  0  0
  1  4  2  0  0  0  0
  1  7  1  0  0  0  0
  1 24  1  0  0  0  0
  2 24  1  0  0  0  0
  2 32  1  0  0  0  0
  5 10  1  0  0  0  0
  5 12  1  0  0  0  0
  5 14  1  0  0  0  0
  6 15  1  0  0  0  0
  6 17  1  0  0  0  0
  6 18  1  0  0  0  0
  7 16  1  0  0  0  0
  7 57  1  0  0  0  0
  8  9  1  0  0  0  0
  8 11  1  0  0  0  0
  8 13  1  0  0  0  0
  8 33  1  0  0  0  0
  9 12  1  0  0  0  0
  9 15  1  0  0  0  0
  9 34  1  0  0  0  0
 10 11  1  0  0  0  0
 10 16  1  0  0  0  0
 10 35  1  0  0  0  0
 11 36  1  0  0  0  0
 11 37  1  0  0  0  0
 12 38  1  0  0  0  0
 12 39  1  0  0  0  0
 13 14  1  0  0  0  0
 13 40  1  0  0  0  0
 13 41  1  0  0  0  0
 14 42  1  0  0  0  0
 14 43  1  0  0  0  0
 15 44  1  0  0  0  0
 15 45  1  0  0  0  0
 16 46  1  0  0  0  0
 16 47  1  0  0  0  0
 17 20  1  0  0  0  0
 17 48  1  0  0  0  0
 17 49  1  0  0  0  0
 18 21  1  0  0  0  0
 18 50  1  0  0  0  0
 18 51  1  0  0  0  0
 19 20  1  0  0  0  0
 19 21  1  0  0  0  0
 19 22  1  0  0  0  0
 19 52  1  0  0  0  0
 20 53  1  0  0  0  0
 20 54  1  0  0  0  0
 21 55  1  0  0  0  0
 21 56  1  0  0  0  0
 22 23  1  0  0  0  0
 22 58  1  0  0  0  0
 22 59  1  0  0  0  0
 23 25  2  0  0  0  0
 23 26  1  0  0  0  0
 24 27  2  0  0  0  0
 25 28  1  0  0  0  0
 25 60  1  0  0  0  0
 26 29  2  0  0  0  0
 26 61  1  0  0  0  0
 27 31  1  0  0  0  0
 27 62  1  0  0  0  0
 28 30  2  0  0  0  0
 28 63  1  0  0  0  0
 29 30  1  0  0  0  0
 29 64  1  0  0  0  0
 30 65  1  0  0  0  0
 31 32  2  0  0  0  0
 31 66  1  0  0  0  0
 32 67  1  0  0  0  0
M  END
> <PUBCHEM_COMPOUND_CID>
25389387

> <PUBCHEM_CONFORMER_RMSD>
1.2

> <PUBCHEM_CONFORMER_DIVERSEORDER>
1
107
115
145
43
117
52
143
25
114
103
46
71
121
45
100
96
135
86
136
37
99
124
125
28
127
146
137
8
80
7
81
44
64
132
89
142
77
104
36
57
122
128
79
91
42
118
24
83
22
49
65
123
134
97
35
139
105
23
15
140
26
93
133
16
120
38
119
73
116
131
109
47
32
102
72
34
129
138
69
51
62
147
55
90
113
87
141
31
58
40
59
111
29
60
78
14
126
101
21
19
63
130
4
88
48
70
84
17
85
53
41
67
76
68
108
110
61
56
13
92
112
106
66
20
75
94
5
98
144
30
95
39
18
11
74
82
33
27
50
2
54
9
3
6
10
12

> <PUBCHEM_MMFF94_PARTIAL_CHARGES>
34
1 1.5
10 0.27
12 0.27
14 0.27
15 0.27
16 0.36
17 0.27
18 0.27
2 -0.08
22 0.14
23 -0.14
24 -0.02
25 -0.15
26 -0.15
27 -0.15
28 -0.15
29 -0.15
3 -0.65
30 -0.15
31 -0.15
32 -0.11
4 -0.65
5 -0.81
57 0.42
6 -0.81
60 0.15
61 0.15
62 0.15
63 0.15
64 0.15
65 0.15
66 0.15
67 0.15
7 -0.91

> <PUBCHEM_EFFECTIVE_ROTOR_COUNT>
10.4

> <PUBCHEM_PHARMACOPHORE_FEATURES>
9
1 3 acceptor
1 4 acceptor
1 5 cation
1 6 cation
1 7 donor
5 2 24 27 31 32 rings
6 23 25 26 28 29 30 rings
6 6 17 18 19 20 21 rings
8 5 8 9 10 11 12 13 14 rings

> <PUBCHEM_HEAVY_ATOM_COUNT>
32

> <PUBCHEM_ATOM_DEF_STEREO_COUNT>
3

> <PUBCHEM_ATOM_UDEF_STEREO_COUNT>
0

> <PUBCHEM_BOND_DEF_STEREO_COUNT>
0

> <PUBCHEM_BOND_UDEF_STEREO_COUNT>
0

> <PUBCHEM_ISOTOPIC_ATOM_COUNT>
0

> <PUBCHEM_COMPONENT_COUNT>
1

> <PUBCHEM_CACTVS_TAUTO_COUNT>
1

> <PUBCHEM_CONFORMER_ID>
0183694B00000001

> <PUBCHEM_MMFF94_ENERGY>
64.6017

> <PUBCHEM_FEATURE_SELFOVERLAP>
45.69

> <PUBCHEM_SHAPE_FINGERPRINT>
10055352 69 18128253588223814360
10577160 103 14418140646956563862
10815517 723 18411696621021169782
11135609 201 9006788622547019261
11181472 205 10015580637190777610
11497681 19 18408040736774418166
11621639 183 15409796699708045635
11828042 279 17678165208794681148
12106331 60 18040433295660726443
12144600 37 18269278963883762942
12373685 5 15864891154924093536
12522641 126 18117559746294828988
12559416 138 18335697286947255899
1361 4 18341611457029437430
13631057 29 18335697230599775960
13782708 43 18271801316155034994
14068700 675 18335142007198068516
14394314 77 18408323259971296329
1454969 45 18186520999560739146
15131766 46 15981702381601511784
15328829 1 17603590742457198078
15392192 29 18334584559825480995
15728490 51 18408322198961295482
16989713 51 18412538803872163839
16992727 255 11097844177525082958
16993089 31 17203062798648719390
17324776 126 17198801284574297151
18608769 82 18342175553606575742
19315958 150 17987810588368665531
19611394 137 18201999923898198624
21298829 104 8718836396381502246
21424621 283 8646497327097929391
21796203 349 18118714173357705201
2747138 104 18343858910283153816
4173938 306 13912604992025603244
45377200 153 18341620291993482022
4625314 4 18411981339024807468
463206 1 18260834851783669291
4760202 70 18194681690731459524
49967989 163 18040723596970076610
54039377 194 18114188562181607067
5776283 40 11025799803739247343
6201460 15 17552905639918430759
636775 72 8502361231591424774
6691757 9 17846508007340396649
9896288 288 17917152680516098545
9953998 17 17989209235604126451

> <PUBCHEM_SHAPE_MULTIPOLES>
639.56
25.46
4.32
1.48
39.44
1.16
0.07
-21.8
0.04
-7.79
-1.28
-1.99
-0.39
-1.44

> <PUBCHEM_SHAPE_SELFOVERLAP>
1329.405

> <PUBCHEM_SHAPE_VOLUME>
365.6

> <PUBCHEM_COORDINATE_TYPE>
2
5
10

$$$$
