26763399
  -OEChem-12032416183D

 47 49  0     1  0  0  0  0  0999 V2000
   -7.8891    1.7355    0.3401 F   0  0  0  0  0  0  0  0  0  0  0  0
   -6.1626    3.0184    0.6571 F   0  0  0  0  0  0  0  0  0  0  0  0
   -6.6677    2.3605   -1.3468 F   0  0  0  0  0  0  0  0  0  0  0  0
    2.9850   -0.4205   -1.3013 O   0  0  0  0  0  0  0  0  0  0  0  0
    2.8023   -2.7543    0.6795 O   0  0  0  0  0  0  0  0  0  0  0  0
    5.2899   -0.2157    0.2323 O   0  0  0  0  0  0  0  0  0  0  0  0
   -1.5044   -2.5164    0.1237 O   0  0  0  0  0  0  0  0  0  0  0  0
    6.9502    2.9255    0.6286 O   0  0  0  0  0  0  0  0  0  0  0  0
    7.4270    1.1127   -0.7185 O   0  0  0  0  0  0  0  0  0  0  0  0
   -0.0489   -0.9499   -0.7557 N   0  0  0  0  0  0  0  0  0  0  0  0
   -2.2378   -0.3489   -0.4002 N   0  0  0  0  0  0  0  0  0  0  0  0
    1.9519   -1.6071    0.4730 C   0  0  1  0  0  0  0  0  0  0  0  0
    2.8600   -0.4432    0.1305 C   0  0  1  0  0  0  0  0  0  0  0  0
    1.1193   -1.7961   -0.7736 C   0  0  2  0  0  0  0  0  0  0  0  0
    4.1564   -0.8329    0.7992 C   0  0  1  0  0  0  0  0  0  0  0  0
    2.0844   -1.3827   -1.8713 C   0  0  0  0  0  0  0  0  0  0  0  0
    4.1727   -2.3334    0.6135 C   0  0  0  0  0  0  0  0  0  0  0  0
   -1.3007   -1.3808   -0.2990 C   0  0  0  0  0  0  0  0  0  0  0  0
    5.5195    1.0814    0.7772 C   0  0  0  0  0  0  0  0  0  0  0  0
    6.7410    1.6736    0.1252 C   0  0  0  0  0  0  0  0  0  0  0  0
   -3.6063   -0.3813   -0.0444 C   0  0  0  0  0  0  0  0  0  0  0  0
   -4.3989    0.7534   -0.2172 C   0  0  0  0  0  0  0  0  0  0  0  0
   -4.1635   -1.5480    0.4790 C   0  0  0  0  0  0  0  0  0  0  0  0
   -5.7486    0.7213    0.1332 C   0  0  0  0  0  0  0  0  0  0  0  0
   -5.5132   -1.5800    0.8296 C   0  0  0  0  0  0  0  0  0  0  0  0
   -6.3059   -0.4454    0.6567 C   0  0  0  0  0  0  0  0  0  0  0  0
    8.0848    3.6199    0.1005 C   0  0  0  0  0  0  0  0  0  0  0  0
   -6.5968    1.9343   -0.0511 C   0  0  0  0  0  0  0  0  0  0  0  0
    1.3750   -1.4519    1.3902 H   0  0  0  0  0  0  0  0  0  0  0  0
    2.4725    0.5296    0.4464 H   0  0  0  0  0  0  0  0  0  0  0  0
    0.7993   -2.8338   -0.9160 H   0  0  0  0  0  0  0  0  0  0  0  0
    4.0924   -0.6287    1.8773 H   0  0  0  0  0  0  0  0  0  0  0  0
    2.6895   -2.2345   -2.2009 H   0  0  0  0  0  0  0  0  0  0  0  0
    1.5964   -0.9475   -2.7488 H   0  0  0  0  0  0  0  0  0  0  0  0
    4.5875   -2.6284   -0.3570 H   0  0  0  0  0  0  0  0  0  0  0  0
    4.7509   -2.8424    1.3906 H   0  0  0  0  0  0  0  0  0  0  0  0
    0.0552    0.0235   -1.0262 H   0  0  0  0  0  0  0  0  0  0  0  0
    4.6617    1.7291    0.5699 H   0  0  0  0  0  0  0  0  0  0  0  0
    5.7030    1.0027    1.8539 H   0  0  0  0  0  0  0  0  0  0  0  0
   -1.9041    0.5355   -0.7751 H   0  0  0  0  0  0  0  0  0  0  0  0
   -3.9681    1.6651   -0.6250 H   0  0  0  0  0  0  0  0  0  0  0  0
   -3.6156   -2.4651    0.6423 H   0  0  0  0  0  0  0  0  0  0  0  0
   -5.9480   -2.4880    1.2373 H   0  0  0  0  0  0  0  0  0  0  0  0
   -7.3549   -0.4913    0.9361 H   0  0  0  0  0  0  0  0  0  0  0  0
    8.1381    4.5999    0.5821 H   0  0  0  0  0  0  0  0  0  0  0  0
    7.9720    3.7644   -0.9783 H   0  0  0  0  0  0  0  0  0  0  0  0
    9.0035    3.0687    0.3231 H   0  0  0  0  0  0  0  0  0  0  0  0
  1 28  1  0  0  0  0
  2 28  1  0  0  0  0
  3 28  1  0  0  0  0
  4 13  1  0  0  0  0
  4 16  1  0  0  0  0
  5 12  1  0  0  0  0
  5 17  1  0  0  0  0
  6 15  1  0  0  0  0
  6 19  1  0  0  0  0
  7 18  2  0  0  0  0
  8 20  1  0  0  0  0
  8 27  1  0  0  0  0
  9 20  2  0  0  0  0
 10 14  1  0  0  0  0
 10 18  1  0  0  0  0
 10 37  1  0  0  0  0
 11 18  1  0  0  0  0
 11 21  1  0  0  0  0
 11 40  1  0  0  0  0
 12 13  1  0  0  0  0
 12 14  1  0  0  0  0
 12 29  1  0  0  0  0
 13 15  1  0  0  0  0
 13 30  1  0  0  0  0
 14 16  1  0  0  0  0
 14 31  1  0  0  0  0
 15 17  1  0  0  0  0
 15 32  1  0  0  0  0
 16 33  1  0  0  0  0
 16 34  1  0  0  0  0
 17 35  1  0  0  0  0
 17 36  1  0  0  0  0
 19 20  1  0  0  0  0
 19 38  1  0  0  0  0
 19 39  1  0  0  0  0
 21 22  1  0  0  0  0
 21 23  2  0  0  0  0
 22 24  2  0  0  0  0
 22 41  1  0  0  0  0
 23 25  1  0  0  0  0
 23 42  1  0  0  0  0
 24 26  1  0  0  0  0
 24 28  1  0  0  0  0
 25 26  2  0  0  0  0
 25 43  1  0  0  0  0
 26 44  1  0  0  0  0
 27 45  1  0  0  0  0
 27 46  1  0  0  0  0
 27 47  1  0  0  0  0
M  END
> <PUBCHEM_COMPOUND_CID>
26763399

> <PUBCHEM_CONFORMER_RMSD>
1

> <PUBCHEM_CONFORMER_DIVERSEORDER>
1
190
108
192
178
79
78
107
132
198
194
138
199
113
122
165
160
130
104
92
101
16
34
164
71
123
53
96
82
144
203
35
90
30
139
152
176
103
112
111
5
205
127
124
197
32
128
154
75
60
188
137
191
85
44
120
125
13
170
119
153
193
204
88
159
157
22
98
73
140
95
86
168
115
31
189
64
80
12
57
173
114
177
133
18
202
77
208
6
33
110
61
59
201
184
49
206
81
118
158
134
72
182
28
76
105
100
166
181
117
43
195
121
180
14
147
3
99
151
67
48
66
163
196
172
150
74
136
51
40
142
143
109
89
174
183
187
156
8
162
55
200
56
167
106
207
97
161
36
38
87
83
25
102
84
70
116
185
179
93
58
24
52
47
63
169
41
171
29
94
11
9
175
46
155
146
68
141
21
20
42
62
27
131
19
149
4
15
148
54
10
91
37
135
23
17
145
2
129
186
69
50
7
26
126
45
39
65

> <PUBCHEM_MMFF94_PARTIAL_CHARGES>
34
1 -0.34
10 -0.73
11 -0.55
12 0.28
13 0.28
14 0.3
15 0.28
16 0.28
17 0.28
18 0.69
19 0.34
2 -0.34
20 0.66
21 0.12
22 -0.15
23 -0.15
24 -0.14
25 -0.15
26 -0.15
27 0.28
28 1.16
3 -0.34
37 0.37
4 -0.56
40 0.37
41 0.15
42 0.15
43 0.15
44 0.15
5 -0.56
6 -0.56
7 -0.57
8 -0.43
9 -0.57

> <PUBCHEM_EFFECTIVE_ROTOR_COUNT>
10.2

> <PUBCHEM_PHARMACOPHORE_FEATURES>
10
1 10 donor
1 11 donor
1 4 acceptor
1 5 acceptor
1 6 acceptor
1 7 acceptor
1 9 acceptor
5 4 12 13 14 16 rings
5 5 12 13 15 17 rings
6 21 22 23 24 25 26 rings

> <PUBCHEM_HEAVY_ATOM_COUNT>
28

> <PUBCHEM_ATOM_DEF_STEREO_COUNT>
4

> <PUBCHEM_ATOM_UDEF_STEREO_COUNT>
0

> <PUBCHEM_BOND_DEF_STEREO_COUNT>
0

> <PUBCHEM_BOND_UDEF_STEREO_COUNT>
0

> <PUBCHEM_ISOTOPIC_ATOM_COUNT>
0

> <PUBCHEM_COMPONENT_COUNT>
1

> <PUBCHEM_CACTVS_TAUTO_COUNT>
3

> <PUBCHEM_CONFORMER_ID>
0198608700000001

> <PUBCHEM_MMFF94_ENERGY>
68.6295

> <PUBCHEM_FEATURE_SELFOVERLAP>
51.527

> <PUBCHEM_SHAPE_FINGERPRINT>
10 15 18333454231722602715
10006869 2 18341886369437868816
10280341 67 18129929205078894896
10554248 39 17703505485190805926
10670039 82 16271658818830415794
10693767 8 11095619874972695964
10730089 47 9007052470002169475
10835480 77 18408881824314754073
11991303 11 16486968548455958342
12596602 18 18334012774523036283
12895837 130 18269555099139574975
13073987 5 18260551113217171435
13668630 136 11024104343892002927
13685833 64 11458427929348237054
13782708 43 8502651510865456875
13911987 19 17489587853445043947
14251757 52 18412824690360600664
14347424 109 18187639151257299202
14565420 104 18114176459064000546
14951699 99 18407760335027932276
15183329 4 13038914326104691318
15238133 3 18113627784932901006
15461852 350 17988637519928649799
15475509 35 11746934305021130756
15840311 113 18408324385184026212
16989713 51 17202192122794481215
16994733 274 18260544563186128776
1768 4 18272098214538861969
18335252 114 17489871540598852896
20058555 10 18413387618491539281
20105231 36 11815890190111652685
20511986 3 18041272185021818747
20691028 202 18267017457280581584
21033648 29 18336274478826750263
21095123 293 18190746526306396684
21130935 74 18113337492209627083
21344244 78 16298390145435066518
21521239 73 12751239216637117862
21585482 111 18335136488619053212
22224240 67 17749383836784895122
23559900 14 18051416159220574031
24771293 8 18188207719175221164
270888 7 18413105082841911838
2838139 119 18128813221907925620
312425 54 17385724681812517371
3663271 9 18113334215185996643
406291 66 8862953775234350000
4073 2 18186805789872979499
4169191 19 18411697690742105277
437795 150 13686008856644524333
465052 167 11025805279389792282
504579 68 12679178272482429497
5104073 3 17968099703156976395
54039377 194 8358262562144003088
5718773 13 9079124358239891128
5758199 1 18114462361956677562
6438161 24 9079118843375159052
9689198 14 18341618161462050972

> <PUBCHEM_SHAPE_MULTIPOLES>
509.23
24.69
3.49
1.05
2.16
2.22
-0.33
26.9
3.25
2.72
0.33
0.28
-0.22
0.87

> <PUBCHEM_SHAPE_SELFOVERLAP>
1081.503

> <PUBCHEM_SHAPE_VOLUME>
285.4

> <PUBCHEM_COORDINATE_TYPE>
2
5
10

$$$$
