45361549
  -OEChem-12032416313D

 67 70  0     1  0  0  0  0  0999 V2000
    1.5044    1.4285   -1.2064 O   0  0  0  0  0  0  0  0  0  0  0  0
    5.7903   -1.5394   -0.6128 O   0  0  0  0  0  0  0  0  0  0  0  0
   -4.5000    0.7300    2.0487 O   0  0  0  0  0  0  0  0  0  0  0  0
   -3.5448   -0.0483    0.0847 N   0  0  0  0  0  0  0  0  0  0  0  0
    5.8963    0.6763    0.0332 N   0  0  0  0  0  0  0  0  0  0  0  0
   -5.9536    0.1218   -1.1030 N   0  0  0  0  0  0  0  0  0  0  0  0
   -8.2341    1.0283    0.2551 N   0  0  0  0  0  0  0  0  0  0  0  0
    0.3832   -1.7241    0.6321 C   0  0  1  0  0  0  0  0  0  0  0  0
    0.3057   -0.2629    0.0772 C   0  0  2  0  0  0  0  0  0  0  0  0
   -1.1274    0.0453   -0.4877 C   0  0  1  0  0  0  0  0  0  0  0  0
    1.4849    0.0351   -0.8930 C   0  0  2  0  0  0  0  0  0  0  0  0
    1.7680   -1.9567    1.2813 C   0  0  0  0  0  0  0  0  0  0  0  0
    2.8626   -0.2981   -0.2744 C   0  0  1  0  0  0  0  0  0  0  0  0
   -0.6883   -1.9032    1.7322 C   0  0  0  0  0  0  0  0  0  0  0  0
   -2.2034   -0.2105    0.6048 C   0  0  2  0  0  0  0  0  0  0  0  0
    2.9239   -1.7040    0.3225 C   0  0  0  0  0  0  0  0  0  0  0  0
   -2.0979   -1.5923    1.2498 C   0  0  0  0  0  0  0  0  0  0  0  0
    0.1652   -2.7907   -0.4709 C   0  0  0  0  0  0  0  0  0  0  0  0
    3.9993   -0.1221   -1.2888 C   0  0  2  0  0  0  0  0  0  0  0  0
   -1.2827    1.4781   -1.0248 C   0  0  0  0  0  0  0  0  0  0  0  0
    3.8238   -1.0525   -2.4751 C   0  0  0  0  0  0  0  0  0  0  0  0
    5.3095   -0.4051   -0.5983 C   0  0  0  0  0  0  0  0  0  0  0  0
   -4.5904    0.4147    0.8650 C   0  0  0  0  0  0  0  0  0  0  0  0
    7.1585    0.5665    0.7499 C   0  0  0  0  0  0  0  0  0  0  0  0
    5.3822    2.0415    0.0841 C   0  0  0  0  0  0  0  0  0  0  0  0
    7.5854    2.0062    0.9911 C   0  0  0  0  0  0  0  0  0  0  0  0
    6.2548    2.7369    1.1194 C   0  0  0  0  0  0  0  0  0  0  0  0
   -5.9111    0.4995    0.1902 C   0  0  0  0  0  0  0  0  0  0  0  0
   -7.0312    0.9448    0.8571 C   0  0  0  0  0  0  0  0  0  0  0  0
   -7.1566    0.2055   -1.7051 C   0  0  0  0  0  0  0  0  0  0  0  0
   -8.2766    0.6507   -1.0381 C   0  0  0  0  0  0  0  0  0  0  0  0
    0.4359    0.4210    0.9315 H   0  0  0  0  0  0  0  0  0  0  0  0
   -1.3249   -0.6218   -1.3364 H   0  0  0  0  0  0  0  0  0  0  0  0
    1.3043   -0.5047   -1.8248 H   0  0  0  0  0  0  0  0  0  0  0  0
    1.8839   -1.2946    2.1502 H   0  0  0  0  0  0  0  0  0  0  0  0
    1.8393   -2.9817    1.6675 H   0  0  0  0  0  0  0  0  0  0  0  0
    3.0242    0.4005    0.5567 H   0  0  0  0  0  0  0  0  0  0  0  0
   -0.6625   -2.9277    2.1249 H   0  0  0  0  0  0  0  0  0  0  0  0
   -0.4597   -1.2441    2.5806 H   0  0  0  0  0  0  0  0  0  0  0  0
   -2.0617    0.5375    1.3973 H   0  0  0  0  0  0  0  0  0  0  0  0
    3.8417   -1.8412    0.9050 H   0  0  0  0  0  0  0  0  0  0  0  0
    2.9184   -2.4900   -0.4351 H   0  0  0  0  0  0  0  0  0  0  0  0
   -2.4345   -2.3643    0.5470 H   0  0  0  0  0  0  0  0  0  0  0  0
   -2.7854   -1.6575    2.1031 H   0  0  0  0  0  0  0  0  0  0  0  0
    0.8836   -2.6984   -1.2903 H   0  0  0  0  0  0  0  0  0  0  0  0
    0.2721   -3.8002   -0.0568 H   0  0  0  0  0  0  0  0  0  0  0  0
   -0.8283   -2.7366   -0.9233 H   0  0  0  0  0  0  0  0  0  0  0  0
    4.0021    0.8974   -1.6874 H   0  0  0  0  0  0  0  0  0  0  0  0
   -0.7244    1.6136   -1.9553 H   0  0  0  0  0  0  0  0  0  0  0  0
   -2.3231    1.7117   -1.2728 H   0  0  0  0  0  0  0  0  0  0  0  0
   -0.9434    2.2166   -0.2911 H   0  0  0  0  0  0  0  0  0  0  0  0
   -3.7305   -0.3402   -0.8709 H   0  0  0  0  0  0  0  0  0  0  0  0
    1.6219    1.9230   -0.3774 H   0  0  0  0  0  0  0  0  0  0  0  0
    4.6751   -0.9311   -3.1580 H   0  0  0  0  0  0  0  0  0  0  0  0
    3.8022   -2.1156   -2.2242 H   0  0  0  0  0  0  0  0  0  0  0  0
    2.9353   -0.8178   -3.0669 H   0  0  0  0  0  0  0  0  0  0  0  0
    6.9614    0.0417    1.6912 H   0  0  0  0  0  0  0  0  0  0  0  0
    7.8877   -0.0078    0.1709 H   0  0  0  0  0  0  0  0  0  0  0  0
    5.5208    2.4870   -0.9072 H   0  0  0  0  0  0  0  0  0  0  0  0
    4.3248    2.0819    0.3482 H   0  0  0  0  0  0  0  0  0  0  0  0
    8.1343    2.3866    0.1212 H   0  0  0  0  0  0  0  0  0  0  0  0
    8.2213    2.1154    1.8737 H   0  0  0  0  0  0  0  0  0  0  0  0
    5.8427    2.5806    2.1237 H   0  0  0  0  0  0  0  0  0  0  0  0
    6.3387    3.8131    0.9459 H   0  0  0  0  0  0  0  0  0  0  0  0
   -7.0152    1.2528    1.8959 H   0  0  0  0  0  0  0  0  0  0  0  0
   -7.1915   -0.0978   -2.7441 H   0  0  0  0  0  0  0  0  0  0  0  0
   -9.2428    0.7176   -1.5227 H   0  0  0  0  0  0  0  0  0  0  0  0
  1 11  1  0  0  0  0
  1 53  1  0  0  0  0
  2 22  2  0  0  0  0
  3 23  2  0  0  0  0
  4 15  1  0  0  0  0
  4 23  1  0  0  0  0
  4 52  1  0  0  0  0
  5 22  1  0  0  0  0
  5 24  1  0  0  0  0
  5 25  1  0  0  0  0
  6 28  2  0  0  0  0
  6 30  1  0  0  0  0
  7 29  2  0  0  0  0
  7 31  1  0  0  0  0
  8  9  1  0  0  0  0
  8 12  1  0  0  0  0
  8 14  1  0  0  0  0
  8 18  1  0  0  0  0
  9 10  1  0  0  0  0
  9 11  1  0  0  0  0
  9 32  1  0  0  0  0
 10 15  1  0  0  0  0
 10 20  1  0  0  0  0
 10 33  1  0  0  0  0
 11 13  1  0  0  0  0
 11 34  1  0  0  0  0
 12 16  1  0  0  0  0
 12 35  1  0  0  0  0
 12 36  1  0  0  0  0
 13 16  1  0  0  0  0
 13 19  1  0  0  0  0
 13 37  1  0  0  0  0
 14 17  1  0  0  0  0
 14 38  1  0  0  0  0
 14 39  1  0  0  0  0
 15 17  1  0  0  0  0
 15 40  1  0  0  0  0
 16 41  1  0  0  0  0
 16 42  1  0  0  0  0
 17 43  1  0  0  0  0
 17 44  1  0  0  0  0
 18 45  1  0  0  0  0
 18 46  1  0  0  0  0
 18 47  1  0  0  0  0
 19 21  1  0  0  0  0
 19 22  1  0  0  0  0
 19 48  1  0  0  0  0
 20 49  1  0  0  0  0
 20 50  1  0  0  0  0
 20 51  1  0  0  0  0
 21 54  1  0  0  0  0
 21 55  1  0  0  0  0
 21 56  1  0  0  0  0
 23 28  1  0  0  0  0
 24 26  1  0  0  0  0
 24 57  1  0  0  0  0
 24 58  1  0  0  0  0
 25 27  1  0  0  0  0
 25 59  1  0  0  0  0
 25 60  1  0  0  0  0
 26 27  1  0  0  0  0
 26 61  1  0  0  0  0
 26 62  1  0  0  0  0
 27 63  1  0  0  0  0
 27 64  1  0  0  0  0
 28 29  1  0  0  0  0
 29 65  1  0  0  0  0
 30 31  2  0  0  0  0
 30 66  1  0  0  0  0
 31 67  1  0  0  0  0
M  END
> <PUBCHEM_COMPOUND_CID>
45361549

> <PUBCHEM_CONFORMER_RMSD>
1

> <PUBCHEM_CONFORMER_DIVERSEORDER>
1
21
31
35
42
45
51
47
5
44
26
43
48
50
6
25
14
32
37
17
29
52
4
46
49
8
18
19
10
28
34
22
33
7
27
11
30
36
16
24
13
41
12
2
39
23
40
38
15
20
9
3

> <PUBCHEM_MMFF94_PARTIAL_CHARGES>
23
1 -0.68
11 0.28
15 0.3
19 0.06
2 -0.57
22 0.57
23 0.54
24 0.3
25 0.3
28 0.4
29 0.16
3 -0.57
30 0.16
31 0.16
4 -0.73
5 -0.66
52 0.37
53 0.4
6 -0.62
65 0.15
66 0.15
67 0.15
7 -0.62

> <PUBCHEM_EFFECTIVE_ROTOR_COUNT>
8.6

> <PUBCHEM_PHARMACOPHORE_FEATURES>
12
1 1 acceptor
1 1 donor
1 2 acceptor
1 21 hydrophobe
1 3 acceptor
1 4 donor
1 6 acceptor
1 7 acceptor
5 5 24 25 26 27 rings
6 6 7 28 29 30 31 rings
6 8 9 10 14 15 17 rings
6 8 9 11 12 13 16 rings

> <PUBCHEM_HEAVY_ATOM_COUNT>
31

> <PUBCHEM_ATOM_DEF_STEREO_COUNT>
6

> <PUBCHEM_ATOM_UDEF_STEREO_COUNT>
1

> <PUBCHEM_BOND_DEF_STEREO_COUNT>
0

> <PUBCHEM_BOND_UDEF_STEREO_COUNT>
0

> <PUBCHEM_ISOTOPIC_ATOM_COUNT>
0

> <PUBCHEM_COMPONENT_COUNT>
1

> <PUBCHEM_CACTVS_TAUTO_COUNT>
2

> <PUBCHEM_CONFORMER_ID>
02B4298D00000001

> <PUBCHEM_MMFF94_ENERGY>
92.8511

> <PUBCHEM_FEATURE_SELFOVERLAP>
60.916

> <PUBCHEM_SHAPE_FINGERPRINT>
10 15 17240204361168778164
10006869 2 18187353299703249274
10595046 47 16988570065173349969
11315181 36 17489870437113965857
11719270 70 17095525071624113770
12236239 1 18131633361895769039
12373685 5 18131342016932043566
12838862 33 17968364715339093389
12925494 130 18054223499931510896
13383668 254 18059591204550715273
13617811 41 13039191420552318472
13782708 43 14476954542107493317
15183329 4 17313109614400238413
15238133 3 17240771722090425030
16994733 274 17775286045311361297
20157964 124 18060424603793310534
2026 5 9222417103577914592
20511986 3 18187358844279655827
20554085 129 18187919595082565354
21033648 29 17385446535582945731
21150785 3 16917067767626004849
21403212 168 18186794794872122256
21521721 280 18342175570148057123
21792934 111 17603857863088118186
21859007 373 17458612419814053093
22224240 67 18333448746643300595
23522609 53 15912230675244679371
23559900 14 18410293657622482129
23576562 1 13757770656453360481
24771293 8 18410576201371160492
335352 9 17967823729975329918
34797466 226 17846223223899067487
397638 26 17313103068500606521
4093350 32 17988928855543415452
4340502 62 17676206862151917858
44880568 143 17488475091685411297
4760202 170 18341321233283810493
6004065 56 18200875183611374613

> <PUBCHEM_SHAPE_MULTIPOLES>
600.43
22.87
2.3
1.67
20.22
0.32
-0.29
-15.37
-0.29
-3.35
0.64
0.23
0.21
1.67

> <PUBCHEM_SHAPE_SELFOVERLAP>
1265.852

> <PUBCHEM_SHAPE_VOLUME>
333.9

> <PUBCHEM_COORDINATE_TYPE>
2
5
10

$$$$
