51138091
  -OEChem-12032416203D

 68 71  0     1  0  0  0  0  0999 V2000
   -2.9290    2.2746   -0.8079 O   0  0  0  0  0  0  0  0  0  0  0  0
   -1.6285   -0.4772   -0.3364 N   0  0  0  0  0  0  0  0  0  0  0  0
    3.1313    0.8624    0.6902 N   0  0  0  0  0  0  0  0  0  0  0  0
   -3.8584    1.1488    1.0055 N   0  0  0  0  0  0  0  0  0  0  0  0
    6.7470    1.0025   -0.2673 N   0  0  0  0  0  0  0  0  0  0  0  0
    4.9573    0.6003   -1.5190 N   0  0  0  0  0  0  0  0  0  0  0  0
   -7.4346    1.4721    0.0168 N   0  0  0  0  0  0  0  0  0  0  0  0
   -1.0206   -1.6412    0.3223 C   0  0  2  0  0  0  0  0  0  0  0  0
    0.4883   -1.5556    0.5737 C   0  0  0  0  0  0  0  0  0  0  0  0
    1.2588   -0.3576    0.5403 C   0  0  0  0  0  0  0  0  0  0  0  0
   -1.5671    0.7575    0.4326 C   0  0  1  0  0  0  0  0  0  0  0  0
    0.9464    1.0261    0.3041 C   0  0  0  0  0  0  0  0  0  0  0  0
   -1.4035   -2.8366   -0.5687 C   0  0  0  0  0  0  0  0  0  0  0  0
   -0.3862    1.6267    0.0047 C   0  0  0  0  0  0  0  0  0  0  0  0
    2.6326   -0.4139    0.8025 C   0  0  0  0  0  0  0  0  0  0  0  0
   -2.8576   -3.2805   -0.3818 C   0  0  0  0  0  0  0  0  0  0  0  0
    2.1264    1.7361    0.3969 C   0  0  0  0  0  0  0  0  0  0  0  0
    1.1821   -2.7352    0.9461 C   0  0  0  0  0  0  0  0  0  0  0  0
   -2.8440    1.4773    0.1225 C   0  0  0  0  0  0  0  0  0  0  0  0
    3.3065   -1.5938    1.1219 C   0  0  0  0  0  0  0  0  0  0  0  0
    4.5149    1.2456    0.8733 C   0  0  0  0  0  0  0  0  0  0  0  0
    2.5517   -2.7569    1.2023 C   0  0  0  0  0  0  0  0  0  0  0  0
   -3.1291   -4.5031   -1.2617 C   0  0  0  0  0  0  0  0  0  0  0  0
   -3.8589   -2.1730   -0.7129 C   0  0  0  0  0  0  0  0  0  0  0  0
    5.3823    0.9435   -0.3232 C   0  0  0  0  0  0  0  0  0  0  0  0
   -5.1828    1.7229    0.9370 C   0  0  0  0  0  0  0  0  0  0  0  0
   -6.0981    0.8926    0.0492 C   0  0  0  0  0  0  0  0  0  0  0  0
    7.2225    0.6762   -1.5061 C   0  0  0  0  0  0  0  0  0  0  0  0
    7.5540    1.3446    0.8802 C   0  0  0  0  0  0  0  0  0  0  0  0
    6.0995    0.4322   -2.2610 C   0  0  0  0  0  0  0  0  0  0  0  0
   -7.4798    2.6153   -0.8973 C   0  0  0  0  0  0  0  0  0  0  0  0
   -8.4237    0.4675   -0.3788 C   0  0  0  0  0  0  0  0  0  0  0  0
   -1.4871   -1.7779    1.3076 H   0  0  0  0  0  0  0  0  0  0  0  0
   -1.5198    0.5666    1.5131 H   0  0  0  0  0  0  0  0  0  0  0  0
   -0.4259    1.8429   -1.0723 H   0  0  0  0  0  0  0  0  0  0  0  0
   -0.4577    2.5997    0.5104 H   0  0  0  0  0  0  0  0  0  0  0  0
   -1.2057   -2.6068   -1.6262 H   0  0  0  0  0  0  0  0  0  0  0  0
   -0.7851   -3.7151   -0.3634 H   0  0  0  0  0  0  0  0  0  0  0  0
   -1.2463   -0.3479   -1.2724 H   0  0  0  0  0  0  0  0  0  0  0  0
   -3.0104   -3.5828    0.6621 H   0  0  0  0  0  0  0  0  0  0  0  0
    2.3196    2.7943    0.2779 H   0  0  0  0  0  0  0  0  0  0  0  0
    0.6475   -3.6731    1.0776 H   0  0  0  0  0  0  0  0  0  0  0  0
    4.3720   -1.6138    1.3236 H   0  0  0  0  0  0  0  0  0  0  0  0
    4.8837    0.7316    1.7680 H   0  0  0  0  0  0  0  0  0  0  0  0
    4.5432    2.3222    1.0792 H   0  0  0  0  0  0  0  0  0  0  0  0
    3.0324   -3.6917    1.4782 H   0  0  0  0  0  0  0  0  0  0  0  0
   -3.0082   -4.2639   -2.3239 H   0  0  0  0  0  0  0  0  0  0  0  0
   -2.4438   -5.3218   -1.0174 H   0  0  0  0  0  0  0  0  0  0  0  0
   -4.1496   -4.8717   -1.1123 H   0  0  0  0  0  0  0  0  0  0  0  0
   -3.6384   -1.6870   -1.6688 H   0  0  0  0  0  0  0  0  0  0  0  0
   -3.9071   -1.4308    0.0850 H   0  0  0  0  0  0  0  0  0  0  0  0
   -4.8715   -2.5869   -0.7893 H   0  0  0  0  0  0  0  0  0  0  0  0
   -3.6839    0.4619    1.7331 H   0  0  0  0  0  0  0  0  0  0  0  0
   -5.0841    2.7509    0.5748 H   0  0  0  0  0  0  0  0  0  0  0  0
   -5.5672    1.7611    1.9625 H   0  0  0  0  0  0  0  0  0  0  0  0
   -6.1365   -0.1167    0.4818 H   0  0  0  0  0  0  0  0  0  0  0  0
   -5.6766    0.7727   -0.9578 H   0  0  0  0  0  0  0  0  0  0  0  0
    8.2778    0.6453   -1.7387 H   0  0  0  0  0  0  0  0  0  0  0  0
    8.6047    1.3983    0.5838 H   0  0  0  0  0  0  0  0  0  0  0  0
    7.4216    0.5689    1.6384 H   0  0  0  0  0  0  0  0  0  0  0  0
    7.2290    2.3170    1.2586 H   0  0  0  0  0  0  0  0  0  0  0  0
    6.0553    0.1439   -3.3011 H   0  0  0  0  0  0  0  0  0  0  0  0
   -8.4876    3.0462   -0.9162 H   0  0  0  0  0  0  0  0  0  0  0  0
   -6.8150    3.4215   -0.5729 H   0  0  0  0  0  0  0  0  0  0  0  0
   -7.2121    2.3369   -1.9233 H   0  0  0  0  0  0  0  0  0  0  0  0
   -9.4312    0.8983   -0.3801 H   0  0  0  0  0  0  0  0  0  0  0  0
   -8.2209    0.0594   -1.3757 H   0  0  0  0  0  0  0  0  0  0  0  0
   -8.4409   -0.3611    0.3380 H   0  0  0  0  0  0  0  0  0  0  0  0
  1 19  2  0  0  0  0
  2  8  1  0  0  0  0
  2 11  1  0  0  0  0
  2 39  1  0  0  0  0
  3 15  1  0  0  0  0
  3 17  1  0  0  0  0
  3 21  1  0  0  0  0
  4 19  1  0  0  0  0
  4 26  1  0  0  0  0
  4 53  1  0  0  0  0
  5 25  1  0  0  0  0
  5 28  1  0  0  0  0
  5 29  1  0  0  0  0
  6 25  2  0  0  0  0
  6 30  1  0  0  0  0
  7 27  1  0  0  0  0
  7 31  1  0  0  0  0
  7 32  1  0  0  0  0
  8  9  1  0  0  0  0
  8 13  1  0  0  0  0
  8 33  1  0  0  0  0
  9 10  2  0  0  0  0
  9 18  1  0  0  0  0
 10 12  1  0  0  0  0
 10 15  1  0  0  0  0
 11 14  1  0  0  0  0
 11 19  1  0  0  0  0
 11 34  1  0  0  0  0
 12 14  1  0  0  0  0
 12 17  2  0  0  0  0
 13 16  1  0  0  0  0
 13 37  1  0  0  0  0
 13 38  1  0  0  0  0
 14 35  1  0  0  0  0
 14 36  1  0  0  0  0
 15 20  2  0  0  0  0
 16 23  1  0  0  0  0
 16 24  1  0  0  0  0
 16 40  1  0  0  0  0
 17 41  1  0  0  0  0
 18 22  2  0  0  0  0
 18 42  1  0  0  0  0
 20 22  1  0  0  0  0
 20 43  1  0  0  0  0
 21 25  1  0  0  0  0
 21 44  1  0  0  0  0
 21 45  1  0  0  0  0
 22 46  1  0  0  0  0
 23 47  1  0  0  0  0
 23 48  1  0  0  0  0
 23 49  1  0  0  0  0
 24 50  1  0  0  0  0
 24 51  1  0  0  0  0
 24 52  1  0  0  0  0
 26 27  1  0  0  0  0
 26 54  1  0  0  0  0
 26 55  1  0  0  0  0
 27 56  1  0  0  0  0
 27 57  1  0  0  0  0
 28 30  2  0  0  0  0
 28 58  1  0  0  0  0
 29 59  1  0  0  0  0
 29 60  1  0  0  0  0
 29 61  1  0  0  0  0
 30 62  1  0  0  0  0
 31 63  1  0  0  0  0
 31 64  1  0  0  0  0
 31 65  1  0  0  0  0
 32 66  1  0  0  0  0
 32 67  1  0  0  0  0
 32 68  1  0  0  0  0
M  END
> <PUBCHEM_COMPOUND_CID>
51138091

> <PUBCHEM_CONFORMER_RMSD>
1.2

> <PUBCHEM_CONFORMER_DIVERSEORDER>
1
109
11
17
64
61
85
34
30
120
71
101
31
7
111
122
60
113
53
110
140
9
93
54
73
138
119
26
79
114
100
27
89
126
66
58
8
49
90
96
102
32
2
139
84
10
68
103
134
70
28
137
21
15
67
19
128
117
75
82
18
35
4
69
108
136
76
106
39
94
20
6
112
48
87
116
51
133
80
104
42
36
29
12
78
91
43
135
74
50
13
105
99
131
33
23
115
81
59
55
127
22
125
52
86
88
92
16
124
77
47
57
38
95
141
118
72
121
40
46
45
130
5
97
63
3
98
44
132
56
62
37
129
83
123
24
107
25
14
65
41

> <PUBCHEM_MMFF94_PARTIAL_CHARGES>
35
1 -0.57
11 0.33
12 -0.18
14 0.18
15 -0.15
17 -0.3
18 -0.15
19 0.57
2 -0.9
20 -0.15
21 0.44
22 -0.15
25 0.01
26 0.3
27 0.27
28 -0.3
29 0.26
3 0.05
30 0.08
31 0.27
32 0.27
39 0.36
4 -0.73
41 0.15
42 0.15
43 0.15
46 0.15
5 0.05
53 0.37
58 0.15
6 -0.57
62 0.15
7 -0.81
8 0.41
9 -0.14

> <PUBCHEM_EFFECTIVE_ROTOR_COUNT>
9.8

> <PUBCHEM_PHARMACOPHORE_FEATURES>
12
1 1 acceptor
1 2 cation
1 2 donor
1 3 cation
1 4 donor
1 7 cation
3 16 23 24 hydrophobe
3 5 6 25 cation
5 3 10 12 15 17 rings
5 5 6 25 28 30 rings
6 9 10 15 18 20 22 rings
7 2 8 9 10 11 12 14 rings

> <PUBCHEM_HEAVY_ATOM_COUNT>
32

> <PUBCHEM_ATOM_DEF_STEREO_COUNT>
2

> <PUBCHEM_ATOM_UDEF_STEREO_COUNT>
0

> <PUBCHEM_BOND_DEF_STEREO_COUNT>
0

> <PUBCHEM_BOND_UDEF_STEREO_COUNT>
0

> <PUBCHEM_ISOTOPIC_ATOM_COUNT>
0

> <PUBCHEM_COMPONENT_COUNT>
1

> <PUBCHEM_CACTVS_TAUTO_COUNT>
2

> <PUBCHEM_CONFORMER_ID>
030C4E2B00000001

> <PUBCHEM_MMFF94_ENERGY>
62.8298

> <PUBCHEM_FEATURE_SELFOVERLAP>
61.029

> <PUBCHEM_SHAPE_FINGERPRINT>
10050765 1 18125155193376754545
10165383 225 18408886226345340480
10190108 129 18118421741656399419
11007060 377 18131360691433613449
12838862 33 18337093623215621408
12954195 1 18272096040826558018
13540713 5 18263062401780121346
13617811 41 18259991457245456820
13782708 43 12606817243379848909
14294032 229 18187358805540586949
1454969 45 18259988158731295389
14790565 3 18053674577024468120
14840074 17 18260547797617989205
15131766 46 15576431135713986868
15629462 23 16486429706201383281
19319366 153 18113617837720435586
21583282 1 18041574545823149502
22311459 1 18409448081103447200
22393880 68 18342735269359777178
23559900 14 17988358273423053456
23576562 1 18190187964917885261
25147074 1 18260818307385295210
350125 39 18410006646042244387
397830 11 12540693756393239422
45377200 153 16916492762490591247
5486654 2 18341894074324543345
563151 40 18408893948591089434
59755656 215 18273220785080957380
59755656 520 18413951685315266317

> <PUBCHEM_SHAPE_MULTIPOLES>
622.79
20.03
3.9
1.34
6.61
4.58
-0.47
-15.89
-6.04
5.22
-0.58
-1.85
0.17
-1.36

> <PUBCHEM_SHAPE_SELFOVERLAP>
1319.678

> <PUBCHEM_SHAPE_VOLUME>
350.3

> <PUBCHEM_COORDINATE_TYPE>
2
5
10

$$$$
