40724278
  -OEChem-12032416153D

 59 63  0     1  0  0  0  0  0999 V2000
   -3.0575   -0.4962    2.1151 O   0  0  0  0  0  0  0  0  0  0  0  0
    1.8606    1.5585    1.6602 O   0  0  0  0  0  0  0  0  0  0  0  0
   -2.9320    0.9427    0.2954 N   0  0  0  0  0  0  0  0  0  0  0  0
    0.1142    1.8906    0.1504 N   0  0  0  0  0  0  0  0  0  0  0  0
   -1.9947    3.2119    0.7527 C   0  0  1  0  0  0  0  0  0  0  0  0
   -1.7682    2.2280   -1.4891 C   0  0  2  0  0  0  0  0  0  0  0  0
   -2.0554    3.5257   -0.7372 C   0  0  0  0  0  0  0  0  0  0  0  0
   -3.0406    2.1458    1.1226 C   0  0  0  0  0  0  0  0  0  0  0  0
   -2.8524    1.1852   -1.1530 C   0  0  0  0  0  0  0  0  0  0  0  0
   -0.5703    2.7696    1.1084 C   0  0  0  0  0  0  0  0  0  0  0  0
   -0.3996    1.6800   -1.1313 C   0  0  0  0  0  0  0  0  0  0  0  0
   -2.9621   -1.4988   -0.0197 C   0  0  0  0  0  0  0  0  0  0  0  0
   -2.9910   -0.3145    0.8968 C   0  0  0  0  0  0  0  0  0  0  0  0
   -1.5151   -1.9189   -0.2816 C   0  0  0  0  0  0  0  0  0  0  0  0
   -3.7730   -2.6373    0.6018 C   0  0  0  0  0  0  0  0  0  0  0  0
    0.3024    0.9719   -2.0303 C   0  0  0  0  0  0  0  0  0  0  0  0
   -1.4451   -3.1870   -1.1288 C   0  0  0  0  0  0  0  0  0  0  0  0
   -3.6982   -3.9058   -0.2440 C   0  0  0  0  0  0  0  0  0  0  0  0
    1.3591    1.3665    0.5511 C   0  0  0  0  0  0  0  0  0  0  0  0
   -2.2539   -4.3226   -0.5080 C   0  0  0  0  0  0  0  0  0  0  0  0
    2.1057    0.5466   -0.4665 C   0  0  0  0  0  0  0  0  0  0  0  0
    1.5707    0.3944   -1.6872 C   0  0  0  0  0  0  0  0  0  0  0  0
    3.3946   -0.0873   -0.1390 C   0  0  0  0  0  0  0  0  0  0  0  0
    3.4544   -1.3746    0.3949 C   0  0  0  0  0  0  0  0  0  0  0  0
    4.5702    0.6258   -0.3736 C   0  0  0  0  0  0  0  0  0  0  0  0
    4.6900   -1.9485    0.6944 C   0  0  0  0  0  0  0  0  0  0  0  0
    2.2154   -2.1682    0.6594 C   0  0  0  0  0  0  0  0  0  0  0  0
    5.8057    0.0518   -0.0740 C   0  0  0  0  0  0  0  0  0  0  0  0
    5.8657   -1.2353    0.4600 C   0  0  0  0  0  0  0  0  0  0  0  0
   -2.2269    4.1164    1.3284 H   0  0  0  0  0  0  0  0  0  0  0  0
   -1.8128    2.4398   -2.5655 H   0  0  0  0  0  0  0  0  0  0  0  0
   -1.3226    4.2989   -1.0000 H   0  0  0  0  0  0  0  0  0  0  0  0
   -3.0446    3.9151   -1.0071 H   0  0  0  0  0  0  0  0  0  0  0  0
   -2.9633    1.8937    2.1855 H   0  0  0  0  0  0  0  0  0  0  0  0
   -4.0495    2.5457    0.9623 H   0  0  0  0  0  0  0  0  0  0  0  0
   -3.8380    1.5502   -1.4670 H   0  0  0  0  0  0  0  0  0  0  0  0
   -2.6498    0.2827   -1.7288 H   0  0  0  0  0  0  0  0  0  0  0  0
    0.0632    3.6632    1.1936 H   0  0  0  0  0  0  0  0  0  0  0  0
   -0.5515    2.2920    2.0962 H   0  0  0  0  0  0  0  0  0  0  0  0
   -3.4708   -1.2783   -0.9620 H   0  0  0  0  0  0  0  0  0  0  0  0
   -0.9984   -2.0911    0.6716 H   0  0  0  0  0  0  0  0  0  0  0  0
   -0.9656   -1.1250   -0.7866 H   0  0  0  0  0  0  0  0  0  0  0  0
   -4.8214   -2.3358    0.7191 H   0  0  0  0  0  0  0  0  0  0  0  0
   -3.4039   -2.8750    1.6081 H   0  0  0  0  0  0  0  0  0  0  0  0
   -0.0784    0.7846   -3.0288 H   0  0  0  0  0  0  0  0  0  0  0  0
   -0.4010   -3.4986   -1.2429 H   0  0  0  0  0  0  0  0  0  0  0  0
   -1.8264   -2.9740   -2.1350 H   0  0  0  0  0  0  0  0  0  0  0  0
   -4.2098   -3.7379   -1.1997 H   0  0  0  0  0  0  0  0  0  0  0  0
   -4.2295   -4.7192    0.2630 H   0  0  0  0  0  0  0  0  0  0  0  0
   -2.2371   -5.1935   -1.1729 H   0  0  0  0  0  0  0  0  0  0  0  0
   -1.7851   -4.6307    0.4347 H   0  0  0  0  0  0  0  0  0  0  0  0
    2.0670   -0.1891   -2.4572 H   0  0  0  0  0  0  0  0  0  0  0  0
    4.5417    1.6306   -0.7885 H   0  0  0  0  0  0  0  0  0  0  0  0
    4.7558   -2.9503    1.1105 H   0  0  0  0  0  0  0  0  0  0  0  0
    1.5448   -1.6285    1.3359 H   0  0  0  0  0  0  0  0  0  0  0  0
    1.6939   -2.3855   -0.2777 H   0  0  0  0  0  0  0  0  0  0  0  0
    2.4417   -3.1292    1.1346 H   0  0  0  0  0  0  0  0  0  0  0  0
    6.7211    0.6071   -0.2563 H   0  0  0  0  0  0  0  0  0  0  0  0
    6.8278   -1.6821    0.6931 H   0  0  0  0  0  0  0  0  0  0  0  0
  1 13  2  0  0  0  0
  2 19  2  0  0  0  0
  3  8  1  0  0  0  0
  3  9  1  0  0  0  0
  3 13  1  0  0  0  0
  4 10  1  0  0  0  0
  4 11  1  0  0  0  0
  4 19  1  0  0  0  0
  5  7  1  0  0  0  0
  5  8  1  0  0  0  0
  5 10  1  0  0  0  0
  5 30  1  0  0  0  0
  6  7  1  0  0  0  0
  6  9  1  0  0  0  0
  6 11  1  0  0  0  0
  6 31  1  0  0  0  0
  7 32  1  0  0  0  0
  7 33  1  0  0  0  0
  8 34  1  0  0  0  0
  8 35  1  0  0  0  0
  9 36  1  0  0  0  0
  9 37  1  0  0  0  0
 10 38  1  0  0  0  0
 10 39  1  0  0  0  0
 11 16  2  0  0  0  0
 12 13  1  0  0  0  0
 12 14  1  0  0  0  0
 12 15  1  0  0  0  0
 12 40  1  0  0  0  0
 14 17  1  0  0  0  0
 14 41  1  0  0  0  0
 14 42  1  0  0  0  0
 15 18  1  0  0  0  0
 15 43  1  0  0  0  0
 15 44  1  0  0  0  0
 16 22  1  0  0  0  0
 16 45  1  0  0  0  0
 17 20  1  0  0  0  0
 17 46  1  0  0  0  0
 17 47  1  0  0  0  0
 18 20  1  0  0  0  0
 18 48  1  0  0  0  0
 18 49  1  0  0  0  0
 19 21  1  0  0  0  0
 20 50  1  0  0  0  0
 20 51  1  0  0  0  0
 21 22  2  0  0  0  0
 21 23  1  0  0  0  0
 22 52  1  0  0  0  0
 23 24  1  0  0  0  0
 23 25  2  0  0  0  0
 24 26  2  0  0  0  0
 24 27  1  0  0  0  0
 25 28  1  0  0  0  0
 25 53  1  0  0  0  0
 26 29  1  0  0  0  0
 26 54  1  0  0  0  0
 27 55  1  0  0  0  0
 27 56  1  0  0  0  0
 27 57  1  0  0  0  0
 28 29  2  0  0  0  0
 28 58  1  0  0  0  0
 29 59  1  0  0  0  0
M  END
> <PUBCHEM_COMPOUND_CID>
40724278

> <PUBCHEM_CONFORMER_RMSD>
0.8

> <PUBCHEM_CONFORMER_DIVERSEORDER>
1
15
7
17
14
6
8
16
11
3
13
10
2
5
4
12
9

> <PUBCHEM_MMFF94_PARTIAL_CHARGES>
28
1 -0.57
10 0.3
11 -0.03
12 0.06
13 0.57
16 -0.15
19 0.62
2 -0.57
21 -0.01
22 -0.15
23 0.03
24 -0.14
25 -0.15
26 -0.15
27 0.14
28 -0.15
29 -0.15
3 -0.66
4 -0.47
45 0.15
52 0.15
53 0.15
54 0.15
58 0.15
59 0.15
6 0.14
8 0.3
9 0.3

> <PUBCHEM_EFFECTIVE_ROTOR_COUNT>
5.2

> <PUBCHEM_PHARMACOPHORE_FEATURES>
7
1 1 acceptor
1 2 acceptor
6 12 14 15 17 18 20 rings
6 23 24 25 26 28 29 rings
6 3 5 6 7 8 9 rings
6 4 11 16 19 21 22 rings
6 4 5 6 7 10 11 rings

> <PUBCHEM_HEAVY_ATOM_COUNT>
29

> <PUBCHEM_ATOM_DEF_STEREO_COUNT>
2

> <PUBCHEM_ATOM_UDEF_STEREO_COUNT>
0

> <PUBCHEM_BOND_DEF_STEREO_COUNT>
0

> <PUBCHEM_BOND_UDEF_STEREO_COUNT>
0

> <PUBCHEM_ISOTOPIC_ATOM_COUNT>
0

> <PUBCHEM_COMPONENT_COUNT>
1

> <PUBCHEM_CACTVS_TAUTO_COUNT>
3

> <PUBCHEM_CONFORMER_ID>
026D673600000001

> <PUBCHEM_MMFF94_ENERGY>
73.8451

> <PUBCHEM_FEATURE_SELFOVERLAP>
37.089

> <PUBCHEM_SHAPE_FINGERPRINT>
10483366 6 18338216221320813879
11014199 57 18122064466476055578
11370993 70 17977381638188932220
11552529 35 18411134727845233656
12293681 25 17834922594293065621
12422481 6 17830207656436564569
12633257 1 17917163757241809185
12788726 201 18265067971160294646
13004483 165 18338794632322920295
13009979 54 18189347912221619062
13103583 49 18059029374502478563
13583140 156 18341321194401770540
13631057 29 18337390539121214550
138480 1 16249691340805946287
14020679 6 17559960913680135433
14081887 123 18340475747015558696
14394314 77 18265341788215435073
14659021 117 18188764071784770698
14844126 61 18409167705695750363
14863182 85 16897082237031847305
14950920 106 17846506962582156144
15927050 60 17694218873255896765
16728300 4 17824820045086659299
19930381 70 16970268436763446155
20511986 3 17895184455747406840
20775530 9 18193549193422754723
21421861 104 17332824141496353035
23559900 14 18336815459737946944
23569943 247 14404072245856663236
35225 105 17987784242443257383
392239 28 18340204210962806680
4409770 3 18336257960271370421
463206 1 18118971535950945323
469060 322 17022902337510751158
484985 159 18335126571059187607

> <PUBCHEM_SHAPE_MULTIPOLES>
575.11
9.48
4.97
1.51
14.18
2.73
0.14
5.33
-1.89
-6.63
0.25
-0.61
-0.62
-0.62

> <PUBCHEM_SHAPE_SELFOVERLAP>
1252.545

> <PUBCHEM_SHAPE_VOLUME>
306.3

> <PUBCHEM_COORDINATE_TYPE>
2
5
10

$$$$
