75536627
  -OEChem-12032416343D

 45 47  0     1  0  0  0  0  0999 V2000
    0.4167   -0.9282    0.0058 O   0  0  0  0  0  0  0  0  0  0  0  0
   -0.8246    2.4264    0.3393 O   0  0  0  0  0  0  0  0  0  0  0  0
    3.7875    2.0118    0.0229 O   0  0  0  0  0  0  0  0  0  0  0  0
   -3.0376    0.2045    0.1340 N   0  0  0  0  0  0  0  0  0  0  0  0
    2.9183    0.0917    0.9926 N   0  0  0  0  0  0  0  0  0  0  0  0
   -7.5527    0.6410   -0.6109 N   0  0  0  0  0  0  0  0  0  0  0  0
   -1.6456    0.2137   -0.2854 C   0  0  1  0  0  0  0  0  0  0  0  0
   -0.7444    1.0410    0.6125 C   0  0  1  0  0  0  0  0  0  0  0  0
    0.6231    0.4712    0.2606 C   0  0  1  0  0  0  0  0  0  0  0  0
   -0.9901   -1.1543   -0.1911 C   0  0  0  0  0  0  0  0  0  0  0  0
    1.6490    0.6458    1.3662 C   0  0  0  0  0  0  0  0  0  0  0  0
   -3.9013   -0.3077   -0.9231 C   0  0  0  0  0  0  0  0  0  0  0  0
   -5.3459   -0.3402   -0.5003 C   0  0  0  0  0  0  0  0  0  0  0  0
    3.9007    0.8310    0.3408 C   0  0  0  0  0  0  0  0  0  0  0  0
   -5.8196   -1.3271    0.3571 C   0  0  0  0  0  0  0  0  0  0  0  0
   -6.2449    0.6124   -0.9523 C   0  0  0  0  0  0  0  0  0  0  0  0
    5.1504    0.1040   -0.0010 C   0  0  0  0  0  0  0  0  0  0  0  0
   -7.1588   -1.3311    0.7310 C   0  0  0  0  0  0  0  0  0  0  0  0
    5.9247    0.5184   -1.0847 C   0  0  0  0  0  0  0  0  0  0  0  0
    5.5502   -0.9922    0.7631 C   0  0  0  0  0  0  0  0  0  0  0  0
   -7.9767   -0.3342    0.2241 C   0  0  0  0  0  0  0  0  0  0  0  0
    7.0988   -0.1636   -1.4045 C   0  0  0  0  0  0  0  0  0  0  0  0
    6.7243   -1.6741    0.4436 C   0  0  0  0  0  0  0  0  0  0  0  0
    7.4986   -1.2599   -0.6403 C   0  0  0  0  0  0  0  0  0  0  0  0
   -1.5599    0.6077   -1.3081 H   0  0  0  0  0  0  0  0  0  0  0  0
   -0.9817    0.8750    1.6708 H   0  0  0  0  0  0  0  0  0  0  0  0
    1.0034    0.9193   -0.6669 H   0  0  0  0  0  0  0  0  0  0  0  0
   -1.3482   -1.7295    0.6706 H   0  0  0  0  0  0  0  0  0  0  0  0
   -1.1373   -1.7566   -1.0928 H   0  0  0  0  0  0  0  0  0  0  0  0
    1.3354    0.1118    2.2700 H   0  0  0  0  0  0  0  0  0  0  0  0
    1.7733    1.7053    1.6142 H   0  0  0  0  0  0  0  0  0  0  0  0
   -3.3233    1.1575    0.3608 H   0  0  0  0  0  0  0  0  0  0  0  0
   -3.6100   -1.3273   -1.2060 H   0  0  0  0  0  0  0  0  0  0  0  0
   -3.8038    0.3055   -1.8284 H   0  0  0  0  0  0  0  0  0  0  0  0
   -0.6144    2.5656   -0.5996 H   0  0  0  0  0  0  0  0  0  0  0  0
    3.0491   -0.8996    1.1630 H   0  0  0  0  0  0  0  0  0  0  0  0
   -5.1548   -2.0970    0.7390 H   0  0  0  0  0  0  0  0  0  0  0  0
   -5.9362    1.4094   -1.6216 H   0  0  0  0  0  0  0  0  0  0  0  0
   -7.5501   -2.0906    1.3981 H   0  0  0  0  0  0  0  0  0  0  0  0
    5.6279    1.3675   -1.6947 H   0  0  0  0  0  0  0  0  0  0  0  0
    4.9938   -1.3283    1.6329 H   0  0  0  0  0  0  0  0  0  0  0  0
   -9.0290   -0.2929    0.4853 H   0  0  0  0  0  0  0  0  0  0  0  0
    7.7014    0.1585   -2.2487 H   0  0  0  0  0  0  0  0  0  0  0  0
    7.0399   -2.5234    1.0425 H   0  0  0  0  0  0  0  0  0  0  0  0
    8.4135   -1.7900   -0.8882 H   0  0  0  0  0  0  0  0  0  0  0  0
  1  9  1  0  0  0  0
  1 10  1  0  0  0  0
  2  8  1  0  0  0  0
  2 35  1  0  0  0  0
  3 14  2  0  0  0  0
  4  7  1  0  0  0  0
  4 12  1  0  0  0  0
  4 32  1  0  0  0  0
  5 11  1  0  0  0  0
  5 14  1  0  0  0  0
  5 36  1  0  0  0  0
  6 16  1  0  0  0  0
  6 21  2  0  0  0  0
  7  8  1  0  0  0  0
  7 10  1  0  0  0  0
  7 25  1  0  0  0  0
  8  9  1  0  0  0  0
  8 26  1  0  0  0  0
  9 11  1  0  0  0  0
  9 27  1  0  0  0  0
 10 28  1  0  0  0  0
 10 29  1  0  0  0  0
 11 30  1  0  0  0  0
 11 31  1  0  0  0  0
 12 13  1  0  0  0  0
 12 33  1  0  0  0  0
 12 34  1  0  0  0  0
 13 15  1  0  0  0  0
 13 16  2  0  0  0  0
 14 17  1  0  0  0  0
 15 18  2  0  0  0  0
 15 37  1  0  0  0  0
 16 38  1  0  0  0  0
 17 19  2  0  0  0  0
 17 20  1  0  0  0  0
 18 21  1  0  0  0  0
 18 39  1  0  0  0  0
 19 22  1  0  0  0  0
 19 40  1  0  0  0  0
 20 23  2  0  0  0  0
 20 41  1  0  0  0  0
 21 42  1  0  0  0  0
 22 24  2  0  0  0  0
 22 43  1  0  0  0  0
 23 24  1  0  0  0  0
 23 44  1  0  0  0  0
 24 45  1  0  0  0  0
M  END
> <PUBCHEM_COMPOUND_CID>
75536627

> <PUBCHEM_CONFORMER_RMSD>
1

> <PUBCHEM_CONFORMER_DIVERSEORDER>
1
94
102
131
42
146
116
41
151
172
122
106
20
184
17
51
170
148
53
114
9
23
72
101
97
140
104
30
57
66
134
14
154
8
59
81
145
177
32
98
128
178
164
60
176
142
165
156
4
118
33
31
46
175
67
69
73
71
135
138
132
28
188
161
65
39
13
83
93
150
113
89
166
3
181
58
70
155
68
7
55
29
105
109
144
11
121
125
90
133
167
78
127
187
141
48
149
174
169
26
84
124
38
56
44
43
111
6
99
147
120
75
103
88
112
179
137
115
119
171
157
130
110
180
80
40
37
85
183
160
36
162
12
74
16
139
163
47
45
168
5
186
117
79
100
129
2
152
25
34
182
76
91
50
95
173
22
126
21
63
107
158
35
153
185
61
19
82
10
24
86
159
62
108
49
64
18
27
15
123
96
136
77
54
87
143
92
52

> <PUBCHEM_MMFF94_PARTIAL_CHARGES>
36
1 -0.56
10 0.28
11 0.3
12 0.41
13 -0.14
14 0.54
15 -0.15
16 0.16
17 0.09
18 -0.15
19 -0.15
2 -0.68
20 -0.15
21 0.16
22 -0.15
23 -0.15
24 -0.15
3 -0.57
32 0.36
35 0.4
36 0.37
37 0.15
38 0.15
39 0.15
4 -0.9
40 0.15
41 0.15
42 0.15
43 0.15
44 0.15
45 0.15
5 -0.73
6 -0.62
7 0.27
8 0.28
9 0.28

> <PUBCHEM_EFFECTIVE_ROTOR_COUNT>
8

> <PUBCHEM_PHARMACOPHORE_FEATURES>
11
1 1 acceptor
1 2 acceptor
1 2 donor
1 3 acceptor
1 4 cation
1 4 donor
1 5 donor
1 6 acceptor
5 1 7 8 9 10 rings
6 17 19 20 22 23 24 rings
6 6 13 15 16 18 21 rings

> <PUBCHEM_HEAVY_ATOM_COUNT>
24

> <PUBCHEM_ATOM_DEF_STEREO_COUNT>
3

> <PUBCHEM_ATOM_UDEF_STEREO_COUNT>
0

> <PUBCHEM_BOND_DEF_STEREO_COUNT>
0

> <PUBCHEM_BOND_UDEF_STEREO_COUNT>
0

> <PUBCHEM_ISOTOPIC_ATOM_COUNT>
0

> <PUBCHEM_COMPONENT_COUNT>
1

> <PUBCHEM_CACTVS_TAUTO_COUNT>
2

> <PUBCHEM_CONFORMER_ID>
048098F300000001

> <PUBCHEM_MMFF94_ENERGY>
57.5439

> <PUBCHEM_FEATURE_SELFOVERLAP>
55.822

> <PUBCHEM_SHAPE_FINGERPRINT>
10 15 10663816382192084058
10162869 55 8862650275537920497
10299344 5 18187083949197707851
106641 1 8574423236401951509
11135609 127 17023477464635181444
11315181 36 14707207722172469117
11524674 6 17274820281461970719
11638347 137 12031794656379576652
12166972 35 18113620105420937420
125118 31 10303820890559468642
13533116 47 16443612515945124464
13673619 4 17917991668075870872
13685833 64 17775566438325188114
14216079 64 17775005665751595430
14251752 14 18341890779704565725
14251764 18 11455885862701601593
14294032 229 18124885560020992385
14347424 109 15410888583479242858
14856354 85 17968098647132863863
14933364 13 18040151825295324733
15131766 46 12821570633175431282
15183329 4 17846499231398390391
15352257 5 18409167731529493867
15849732 13 17748828531197917223
16090146 7 16805620130673215264
17093844 174 12823296806675542399
20157964 124 7925638812715861768
21150785 3 17022623078568054558
21267235 1 18412827984014921752
21365058 27 16081088178097053907
21781051 124 18410862096048579786
21792961 116 18337665326876186293
220451 1 16805313401789749579
221357 26 17821445747412577332
22224240 67 13110962019937190092
23035841 295 18272650160495861383
23081809 10 14707473777394056961
232437 2 18409449207602989091
23559900 14 18200303459066063776
246663 6 18272654545135289666
24771293 8 11674875572179027087
28498 318 17775567515750121261
3004659 81 18342174475712170288
328311 84 18412546526555774691
34797466 226 16587744235418745206
4107672 100 17968089790683518117
444769 64 17775565356088882199
445580 37 17603580790880654541
5207 217 13695868129996754249
5758199 1 13840263672215947513
59682541 35 9871741395339522846
59755656 215 18272932700128784575
6394761 36 17847062177584260995
6438161 24 18334287640399613962

> <PUBCHEM_SHAPE_MULTIPOLES>
461.36
25.84
1.56
1.07
10.08
0.28
0.06
-8.52
4.98
-0.73
-0.22
-0.71
0.03
0.47

> <PUBCHEM_SHAPE_SELFOVERLAP>
977.722

> <PUBCHEM_SHAPE_VOLUME>
256.6

> <PUBCHEM_COORDINATE_TYPE>
2
5
10

$$$$
