40777634
  -OEChem-12032416353D

 59 62  0     1  0  0  0  0  0999 V2000
   -4.6909   -1.4652   -1.2219 O   0  0  0  0  0  0  0  0  0  0  0  0
   -3.4003   -1.0298    0.6661 N   0  0  0  0  0  0  0  0  0  0  0  0
    2.9662    0.6183   -0.8610 N   0  0  0  0  0  0  0  0  0  0  0  0
    2.8318    1.8468   -0.3329 N   0  0  0  0  0  0  0  0  0  0  0  0
   -5.7469   -0.5453    0.7138 C   0  0  0  0  0  0  0  0  0  0  0  0
   -0.3357    0.1053    0.6401 C   0  0  2  0  0  0  0  0  0  0  0  0
   -2.1376   -1.4885    0.1514 C   0  0  1  0  0  0  0  0  0  0  0  0
   -1.3041   -0.3595   -0.4673 C   0  0  0  0  0  0  0  0  0  0  0  0
   -5.5094    0.8917    1.1824 C   0  0  0  0  0  0  0  0  0  0  0  0
   -7.0316   -0.6968   -0.1033 C   0  0  0  0  0  0  0  0  0  0  0  0
   -5.6763    1.9288    0.0721 C   0  0  0  0  0  0  0  0  0  0  0  0
   -7.1659    0.3507   -1.2073 C   0  0  0  0  0  0  0  0  0  0  0  0
   -7.0009    1.7652   -0.6639 C   0  0  0  0  0  0  0  0  0  0  0  0
   -4.5731   -1.0582   -0.0690 C   0  0  0  0  0  0  0  0  0  0  0  0
    1.0119    0.5398    0.1115 C   0  0  0  0  0  0  0  0  0  0  0  0
   -0.2974   -1.0846    1.5547 C   0  0  0  0  0  0  0  0  0  0  0  0
   -1.2830   -1.9476    1.2868 C   0  0  0  0  0  0  0  0  0  0  0  0
    1.9034   -0.2031   -0.6234 C   0  0  0  0  0  0  0  0  0  0  0  0
    1.6360    1.7928    0.2599 C   0  0  0  0  0  0  0  0  0  0  0  0
    1.8423   -1.5936   -1.1123 C   0  0  0  0  0  0  0  0  0  0  0  0
    4.1661    0.2947   -1.5974 C   0  0  0  0  0  0  0  0  0  0  0  0
    1.1229    2.9797    0.9666 C   0  0  0  0  0  0  0  0  0  0  0  0
    5.3504   -0.0003   -0.7107 C   0  0  0  0  0  0  0  0  0  0  0  0
    6.0529    1.0462   -0.1133 C   0  0  0  0  0  0  0  0  0  0  0  0
    5.7429   -1.3201   -0.4884 C   0  0  0  0  0  0  0  0  0  0  0  0
    7.1480    0.7729    0.7064 C   0  0  0  0  0  0  0  0  0  0  0  0
    6.8379   -1.5936    0.3314 C   0  0  0  0  0  0  0  0  0  0  0  0
    7.5404   -0.5469    0.9287 C   0  0  0  0  0  0  0  0  0  0  0  0
   -5.8318   -1.1906    1.5990 H   0  0  0  0  0  0  0  0  0  0  0  0
   -0.7924    0.9362    1.1935 H   0  0  0  0  0  0  0  0  0  0  0  0
   -2.3025   -2.2881   -0.5784 H   0  0  0  0  0  0  0  0  0  0  0  0
   -1.9226    0.4748   -0.8208 H   0  0  0  0  0  0  0  0  0  0  0  0
   -0.7751   -0.7405   -1.3486 H   0  0  0  0  0  0  0  0  0  0  0  0
   -4.5310    1.0335    1.6522 H   0  0  0  0  0  0  0  0  0  0  0  0
   -6.2474    1.1163    1.9647 H   0  0  0  0  0  0  0  0  0  0  0  0
   -7.8870   -0.5896    0.5769 H   0  0  0  0  0  0  0  0  0  0  0  0
   -7.1127   -1.7011   -0.5367 H   0  0  0  0  0  0  0  0  0  0  0  0
   -4.8481    1.8365   -0.6412 H   0  0  0  0  0  0  0  0  0  0  0  0
   -5.6157    2.9363    0.4992 H   0  0  0  0  0  0  0  0  0  0  0  0
   -8.1522    0.2558   -1.6764 H   0  0  0  0  0  0  0  0  0  0  0  0
   -6.4290    0.1761   -1.9989 H   0  0  0  0  0  0  0  0  0  0  0  0
   -7.8294    1.9953    0.0173 H   0  0  0  0  0  0  0  0  0  0  0  0
   -7.0561    2.4855   -1.4879 H   0  0  0  0  0  0  0  0  0  0  0  0
   -3.4269   -0.7031    1.6275 H   0  0  0  0  0  0  0  0  0  0  0  0
    0.4168   -1.2123    2.3560 H   0  0  0  0  0  0  0  0  0  0  0  0
   -1.4534   -2.8614    1.8384 H   0  0  0  0  0  0  0  0  0  0  0  0
    1.7579   -1.6136   -2.2038 H   0  0  0  0  0  0  0  0  0  0  0  0
    2.7387   -2.1513   -0.8248 H   0  0  0  0  0  0  0  0  0  0  0  0
    0.9923   -2.1480   -0.7097 H   0  0  0  0  0  0  0  0  0  0  0  0
    4.3925    1.1492   -2.2485 H   0  0  0  0  0  0  0  0  0  0  0  0
    3.9621   -0.5432   -2.2724 H   0  0  0  0  0  0  0  0  0  0  0  0
    0.9521    2.7529    2.0240 H   0  0  0  0  0  0  0  0  0  0  0  0
    1.8231    3.8203    0.9148 H   0  0  0  0  0  0  0  0  0  0  0  0
    0.1750    3.3080    0.5279 H   0  0  0  0  0  0  0  0  0  0  0  0
    5.7627    2.0798   -0.2820 H   0  0  0  0  0  0  0  0  0  0  0  0
    5.2081   -2.1456   -0.9496 H   0  0  0  0  0  0  0  0  0  0  0  0
    7.6959    1.5878    1.1705 H   0  0  0  0  0  0  0  0  0  0  0  0
    7.1441   -2.6212    0.5039 H   0  0  0  0  0  0  0  0  0  0  0  0
    8.3933   -0.7598    1.5665 H   0  0  0  0  0  0  0  0  0  0  0  0
  1 14  2  0  0  0  0
  2  7  1  0  0  0  0
  2 14  1  0  0  0  0
  2 44  1  0  0  0  0
  3  4  1  0  0  0  0
  3 18  1  0  0  0  0
  3 21  1  0  0  0  0
  4 19  2  0  0  0  0
  5  9  1  0  0  0  0
  5 10  1  0  0  0  0
  5 14  1  0  0  0  0
  5 29  1  0  0  0  0
  6  8  1  0  0  0  0
  6 15  1  0  0  0  0
  6 16  1  0  0  0  0
  6 30  1  0  0  0  0
  7  8  1  0  0  0  0
  7 17  1  0  0  0  0
  7 31  1  0  0  0  0
  8 32  1  0  0  0  0
  8 33  1  0  0  0  0
  9 11  1  0  0  0  0
  9 34  1  0  0  0  0
  9 35  1  0  0  0  0
 10 12  1  0  0  0  0
 10 36  1  0  0  0  0
 10 37  1  0  0  0  0
 11 13  1  0  0  0  0
 11 38  1  0  0  0  0
 11 39  1  0  0  0  0
 12 13  1  0  0  0  0
 12 40  1  0  0  0  0
 12 41  1  0  0  0  0
 13 42  1  0  0  0  0
 13 43  1  0  0  0  0
 15 18  2  0  0  0  0
 15 19  1  0  0  0  0
 16 17  2  0  0  0  0
 16 45  1  0  0  0  0
 17 46  1  0  0  0  0
 18 20  1  0  0  0  0
 19 22  1  0  0  0  0
 20 47  1  0  0  0  0
 20 48  1  0  0  0  0
 20 49  1  0  0  0  0
 21 23  1  0  0  0  0
 21 50  1  0  0  0  0
 21 51  1  0  0  0  0
 22 52  1  0  0  0  0
 22 53  1  0  0  0  0
 22 54  1  0  0  0  0
 23 24  2  0  0  0  0
 23 25  1  0  0  0  0
 24 26  1  0  0  0  0
 24 55  1  0  0  0  0
 25 27  2  0  0  0  0
 25 56  1  0  0  0  0
 26 28  2  0  0  0  0
 26 57  1  0  0  0  0
 27 28  1  0  0  0  0
 27 58  1  0  0  0  0
 28 59  1  0  0  0  0
M  END
> <PUBCHEM_COMPOUND_CID>
40777634

> <PUBCHEM_CONFORMER_RMSD>
1

> <PUBCHEM_CONFORMER_DIVERSEORDER>
3
91
64
104
46
102
86
53
90
76
126
130
83
137
15
80
63
122
51
116
13
98
32
127
85
92
61
29
73
117
133
36
82
66
101
52
18
132
79
108
10
31
58
22
23
111
42
125
21
27
78
7
119
40
120
50
57
100
41
49
105
136
77
131
59
96
11
60
26
45
115
20
43
74
93
34
48
72
56
47
106
113
89
70
84
71
12
4
128
110
17
121
81
55
16
44
9
25
24
19
87
75
109
69
30
33
135
8
28
97
65
124
88
107
37
134
1
103
129
95
6
39
94
38
2
68
99
118
114
54
67
62
35
112
14
123
5

> <PUBCHEM_MMFF94_PARTIAL_CHARGES>
30
1 -0.57
14 0.57
15 -0.18
16 -0.29
17 -0.29
18 -0.33
19 0.11
2 -0.73
20 0.18
21 0.4
22 0.18
23 -0.14
24 -0.15
25 -0.15
26 -0.15
27 -0.15
28 -0.15
3 0.31
4 -0.71
44 0.37
45 0.15
46 0.15
5 0.06
55 0.15
56 0.15
57 0.15
58 0.15
59 0.15
6 0.32
7 0.44

> <PUBCHEM_EFFECTIVE_ROTOR_COUNT>
7.8

> <PUBCHEM_PHARMACOPHORE_FEATURES>
7
1 1 acceptor
1 2 donor
1 4 acceptor
5 3 4 15 18 19 rings
5 6 7 8 16 17 rings
6 23 24 25 26 27 28 rings
6 5 9 10 11 12 13 rings

> <PUBCHEM_HEAVY_ATOM_COUNT>
28

> <PUBCHEM_ATOM_DEF_STEREO_COUNT>
2

> <PUBCHEM_ATOM_UDEF_STEREO_COUNT>
0

> <PUBCHEM_BOND_DEF_STEREO_COUNT>
0

> <PUBCHEM_BOND_UDEF_STEREO_COUNT>
0

> <PUBCHEM_ISOTOPIC_ATOM_COUNT>
0

> <PUBCHEM_COMPONENT_COUNT>
1

> <PUBCHEM_CACTVS_TAUTO_COUNT>
2

> <PUBCHEM_CONFORMER_ID>
026E37A200000003

> <PUBCHEM_MMFF94_ENERGY>
45.229

> <PUBCHEM_FEATURE_SELFOVERLAP>
35.523

> <PUBCHEM_SHAPE_FINGERPRINT>
10591671 39 10447929477496709928
10613725 11 18334579057191392722
10670039 82 18334852797855546181
10674148 151 16950562190918075232
10835480 77 18188493618005487756
11315181 36 10087922978722341751
11719270 70 18131352999258072830
11724838 91 12895349998097587946
11796584 16 17603871160945573298
12664476 115 18409166624361127245
13782708 43 17824559679557859819
13899415 154 11602822406574043934
13914758 101 18409167697137347034
14251752 14 18261112963136147133
14251764 18 18410294717803768076
14347424 109 18186517727228306084
1454969 45 10087637091706306001
15119646 104 18410292480664526562
15142383 8 17967532372500085684
15183329 4 18409455777573285870
15728490 51 11815889068149111732
15849732 13 17346598581954487116
18365409 1 14620217715740771980
20105231 36 12324243841040174776
20511986 3 17846491539450008822
20567600 234 15769774667790216224
20737093 133 17408789370223297904
21150785 3 15626220217390417231
21365058 27 12179847195041020040
21458453 9 10303802194434408558
21521721 280 10881409737908843126
21774942 28 18201162035813390889
21792934 111 18342728608277172336
21814621 53 16661220255254643296
21859007 373 18411410700726777644
22224240 67 15339116845310956558
23559900 14 18263361563041032456
24893992 56 18041000666158608513
2747138 104 10735873980298749895
2838139 119 18409167731966694269
3004659 81 18114473318713486606
3009799 131 18273216413078498018
4258327 124 13326277256760344874
4339292 15 17489015090182936007
437795 51 12973879282848018376
4625314 4 10591775272090958354
5028188 123 12468647122589650746
59755656 520 17240484732396987851
6004065 56 17703790357475597322
6371380 46 18334294296733460666
9689198 14 13912326784864845070

> <PUBCHEM_SHAPE_MULTIPOLES>
555.41
22.61
2.22
1.27
2.03
0.91
0.01
1
1.35
0.37
-0.38
0.08
-0.15
0.3

> <PUBCHEM_SHAPE_SELFOVERLAP>
1185.382

> <PUBCHEM_SHAPE_VOLUME>
309.4

> <PUBCHEM_COORDINATE_TYPE>
2
5
10

$$$$
