28962043
  -OEChem-12032416133D

 63 66  0     1  0  0  0  0  0999 V2000
    2.4929   -0.9765    2.4434 S   0  0  0  0  0  0  0  0  0  0  0  0
    1.7375    3.3075    0.6054 O   0  0  0  0  0  0  0  0  0  0  0  0
    0.5914    2.3738   -1.9990 O   0  0  0  0  0  0  0  0  0  0  0  0
    3.2458    5.3099   -0.6676 O   0  0  0  0  0  0  0  0  0  0  0  0
    1.2000   -1.5993    2.6552 O   0  0  0  0  0  0  0  0  0  0  0  0
    3.5019   -1.0184    3.4843 O   0  0  0  0  0  0  0  0  0  0  0  0
    4.9033   -3.3820   -2.3972 O   0  0  0  0  0  0  0  0  0  0  0  0
   -1.3639    1.4750   -0.1040 N   0  0  0  0  0  0  0  0  0  0  0  0
   -3.8044   -0.0085   -0.0527 N   0  0  0  0  0  0  0  0  0  0  0  0
    2.2664    0.6381    1.9538 N   0  0  0  0  0  0  0  0  0  0  0  0
   -4.7867   -2.1424    0.2392 N   0  0  0  0  0  0  0  0  0  0  0  0
   -0.4944    2.6067    0.1655 C   0  0  1  0  0  0  0  0  0  0  0  0
    0.7633    2.3134    0.9935 C   0  0  1  0  0  0  0  0  0  0  0  0
    0.0610    3.3059   -1.0657 C   0  0  1  0  0  0  0  0  0  0  0  0
    1.1819    4.1277   -0.4405 C   0  0  2  0  0  0  0  0  0  0  0  0
   -1.8498    0.8884    1.1511 C   0  0  0  0  0  0  0  0  0  0  0  0
   -2.5012    1.8859   -0.9362 C   0  0  0  0  0  0  0  0  0  0  0  0
    1.4088    0.9465    0.7954 C   0  0  0  0  0  0  0  0  0  0  0  0
   -2.7214   -0.3403    0.8817 C   0  0  0  0  0  0  0  0  0  0  0  0
   -3.3958    0.6909   -1.2748 C   0  0  0  0  0  0  0  0  0  0  0  0
    2.2899    4.5490   -1.3885 C   0  0  0  0  0  0  0  0  0  0  0  0
   -4.9337   -0.8347   -0.0705 C   0  0  0  0  0  0  0  0  0  0  0  0
   -6.1427   -0.2489   -0.4093 C   0  0  0  0  0  0  0  0  0  0  0  0
    3.2129   -1.6944    0.9974 C   0  0  0  0  0  0  0  0  0  0  0  0
   -7.2738   -1.0571   -0.4316 C   0  0  0  0  0  0  0  0  0  0  0  0
   -5.9081   -2.8968    0.2069 C   0  0  0  0  0  0  0  0  0  0  0  0
    2.3953   -2.2564    0.0168 C   0  0  0  0  0  0  0  0  0  0  0  0
    4.5985   -1.6991    0.8371 C   0  0  0  0  0  0  0  0  0  0  0  0
   -7.1629   -2.4074   -0.1186 C   0  0  0  0  0  0  0  0  0  0  0  0
    2.9635   -2.8232   -1.1240 C   0  0  0  0  0  0  0  0  0  0  0  0
    5.1666   -2.2659   -0.3037 C   0  0  0  0  0  0  0  0  0  0  0  0
    4.3492   -2.8279   -1.2844 C   0  0  0  0  0  0  0  0  0  0  0  0
    4.0086   -3.9397   -3.3587 C   0  0  0  0  0  0  0  0  0  0  0  0
   -1.0611    3.3703    0.7231 H   0  0  0  0  0  0  0  0  0  0  0  0
    0.5409    2.4673    2.0572 H   0  0  0  0  0  0  0  0  0  0  0  0
   -0.6676    3.9419   -1.5785 H   0  0  0  0  0  0  0  0  0  0  0  0
    0.7686    5.0114    0.0626 H   0  0  0  0  0  0  0  0  0  0  0  0
   -2.4420    1.6282    1.7083 H   0  0  0  0  0  0  0  0  0  0  0  0
   -1.0446    0.5759    1.8216 H   0  0  0  0  0  0  0  0  0  0  0  0
   -2.1679    2.3039   -1.8919 H   0  0  0  0  0  0  0  0  0  0  0  0
   -3.0969    2.6576   -0.4300 H   0  0  0  0  0  0  0  0  0  0  0  0
    2.0479    0.9529   -0.0952 H   0  0  0  0  0  0  0  0  0  0  0  0
    0.6788    0.1464    0.6752 H   0  0  0  0  0  0  0  0  0  0  0  0
   -2.1111   -1.1531    0.4675 H   0  0  0  0  0  0  0  0  0  0  0  0
   -3.1326   -0.6846    1.8390 H   0  0  0  0  0  0  0  0  0  0  0  0
   -4.2591    1.0593   -1.8405 H   0  0  0  0  0  0  0  0  0  0  0  0
   -2.8586   -0.0097   -1.9272 H   0  0  0  0  0  0  0  0  0  0  0  0
    1.8963    5.1588   -2.2072 H   0  0  0  0  0  0  0  0  0  0  0  0
    2.8159    3.6809   -1.7983 H   0  0  0  0  0  0  0  0  0  0  0  0
    0.8310    2.8659   -2.8025 H   0  0  0  0  0  0  0  0  0  0  0  0
    3.0102    1.3186    2.1538 H   0  0  0  0  0  0  0  0  0  0  0  0
    3.9397    5.5689   -1.2976 H   0  0  0  0  0  0  0  0  0  0  0  0
   -6.2343    0.8078   -0.6379 H   0  0  0  0  0  0  0  0  0  0  0  0
   -8.2407   -0.6350   -0.6884 H   0  0  0  0  0  0  0  0  0  0  0  0
   -5.7680   -3.9428    0.4590 H   0  0  0  0  0  0  0  0  0  0  0  0
    1.3139   -2.2614    0.1208 H   0  0  0  0  0  0  0  0  0  0  0  0
    5.2536   -1.2606    1.5844 H   0  0  0  0  0  0  0  0  0  0  0  0
   -8.0313   -3.0561   -0.1286 H   0  0  0  0  0  0  0  0  0  0  0  0
    2.2704   -3.2415   -1.8459 H   0  0  0  0  0  0  0  0  0  0  0  0
    6.2466   -2.2654   -0.4239 H   0  0  0  0  0  0  0  0  0  0  0  0
    4.6192   -4.3356   -4.1767 H   0  0  0  0  0  0  0  0  0  0  0  0
    3.3536   -3.1750   -3.7899 H   0  0  0  0  0  0  0  0  0  0  0  0
    3.4456   -4.7825   -2.9433 H   0  0  0  0  0  0  0  0  0  0  0  0
  1  5  2  0  0  0  0
  1  6  2  0  0  0  0
  1 10  1  0  0  0  0
  1 24  1  0  0  0  0
  2 13  1  0  0  0  0
  2 15  1  0  0  0  0
  3 14  1  0  0  0  0
  3 50  1  0  0  0  0
  4 21  1  0  0  0  0
  4 52  1  0  0  0  0
  7 32  1  0  0  0  0
  7 33  1  0  0  0  0
  8 12  1  0  0  0  0
  8 16  1  0  0  0  0
  8 17  1  0  0  0  0
  9 19  1  0  0  0  0
  9 20  1  0  0  0  0
  9 22  1  0  0  0  0
 10 18  1  0  0  0  0
 10 51  1  0  0  0  0
 11 22  1  0  0  0  0
 11 26  2  0  0  0  0
 12 13  1  0  0  0  0
 12 14  1  0  0  0  0
 12 34  1  0  0  0  0
 13 18  1  0  0  0  0
 13 35  1  0  0  0  0
 14 15  1  0  0  0  0
 14 36  1  0  0  0  0
 15 21  1  0  0  0  0
 15 37  1  0  0  0  0
 16 19  1  0  0  0  0
 16 38  1  0  0  0  0
 16 39  1  0  0  0  0
 17 20  1  0  0  0  0
 17 40  1  0  0  0  0
 17 41  1  0  0  0  0
 18 42  1  0  0  0  0
 18 43  1  0  0  0  0
 19 44  1  0  0  0  0
 19 45  1  0  0  0  0
 20 46  1  0  0  0  0
 20 47  1  0  0  0  0
 21 48  1  0  0  0  0
 21 49  1  0  0  0  0
 22 23  2  0  0  0  0
 23 25  1  0  0  0  0
 23 53  1  0  0  0  0
 24 27  2  0  0  0  0
 24 28  1  0  0  0  0
 25 29  2  0  0  0  0
 25 54  1  0  0  0  0
 26 29  1  0  0  0  0
 26 55  1  0  0  0  0
 27 30  1  0  0  0  0
 27 56  1  0  0  0  0
 28 31  2  0  0  0  0
 28 57  1  0  0  0  0
 29 58  1  0  0  0  0
 30 32  2  0  0  0  0
 30 59  1  0  0  0  0
 31 32  1  0  0  0  0
 31 60  1  0  0  0  0
 33 61  1  0  0  0  0
 33 62  1  0  0  0  0
 33 63  1  0  0  0  0
M  END
> <PUBCHEM_COMPOUND_CID>
28962043

> <PUBCHEM_CONFORMER_RMSD>
1

> <PUBCHEM_CONFORMER_DIVERSEORDER>
1
19
31
76
63
61
86
69
84
18
29
94
73
62
71
60
28
88
81
66
85
46
8
74
22
21
55
27
36
90
44
45
17
97
65
23
49
92
33
52
24
75
95
67
25
89
68
39
83
57
51
2
87
77
30
80
56
59
12
13
93
96
32
78
3
64
72
20
82
15
58
54
35
26
70
48
7
47
16
79
34
6
91
9
40
37
43
98
5
4
41
11
14
38
53
10
50
42

> <PUBCHEM_MMFF94_PARTIAL_CHARGES>
44
1 1.45
10 -0.91
11 -0.62
12 0.27
13 0.28
14 0.28
15 0.28
16 0.27
17 0.27
18 0.36
19 0.37
2 -0.56
20 0.37
21 0.28
22 0.41
23 -0.15
24 -0.01
25 -0.15
26 0.16
27 -0.15
28 -0.15
29 -0.15
3 -0.68
30 -0.15
31 -0.15
32 0.08
33 0.28
4 -0.68
5 -0.65
50 0.4
51 0.42
52 0.4
53 0.15
54 0.15
55 0.15
56 0.15
57 0.15
58 0.15
59 0.15
6 -0.65
60 0.15
7 -0.36
8 -0.81
9 -0.84

> <PUBCHEM_EFFECTIVE_ROTOR_COUNT>
10.2

> <PUBCHEM_PHARMACOPHORE_FEATURES>
16
1 10 donor
1 11 acceptor
1 2 acceptor
1 3 acceptor
1 3 donor
1 4 acceptor
1 4 donor
1 5 acceptor
1 6 acceptor
1 7 acceptor
1 8 cation
1 9 cation
5 2 12 13 14 15 rings
6 11 22 23 25 26 29 rings
6 24 27 28 30 31 32 rings
6 8 9 16 17 19 20 rings

> <PUBCHEM_HEAVY_ATOM_COUNT>
33

> <PUBCHEM_ATOM_DEF_STEREO_COUNT>
4

> <PUBCHEM_ATOM_UDEF_STEREO_COUNT>
0

> <PUBCHEM_BOND_DEF_STEREO_COUNT>
0

> <PUBCHEM_BOND_UDEF_STEREO_COUNT>
0

> <PUBCHEM_ISOTOPIC_ATOM_COUNT>
0

> <PUBCHEM_COMPONENT_COUNT>
1

> <PUBCHEM_CACTVS_TAUTO_COUNT>
1

> <PUBCHEM_CONFORMER_ID>
01B9ECFB00000001

> <PUBCHEM_MMFF94_ENERGY>
95.1342

> <PUBCHEM_FEATURE_SELFOVERLAP>
81.227

> <PUBCHEM_SHAPE_FINGERPRINT>
10032420 55 17458617874970962411
10169797 241 17823428278135326523
11488393 25 18191036783604270424
11513181 2 18051132798325920175
11607047 141 18271540775323652995
11954058 11 18201720660929547263
12107183 9 18262788572657333929
12128747 34 16772105814052836521
12342043 65 17702098059258501558
12522641 68 17181104747323903468
12623949 98 17988642978336359742
12633257 1 14692556720124587043
12788726 201 17465099345455703768
131258 43 18060150825276999828
13636023 20 17603309236993243244
13757389 114 17762914164229725653
14251740 57 18271802445578855723
14681488 357 18411418423447065683
14918310 93 17969488472548463388
15324884 4 17841402892262251368
15484559 13 17825386538483128912
16989378 47 18342750632093928543
19026451 147 18333453127757881974
1979834 28 18130211765806020827
20028762 73 18047469216701929548
20554085 129 9655570829677036603
20587220 46 17631176457889306983
20771845 140 18055342789551135192
20775438 99 17973153221791628907
21223535 225 13480528639994634030
21304303 282 7852415671364142400
21344244 181 17909569576922547756
21344244 246 18336271240774797860
21716022 299 18339658809676486332
2260408 40 18131625695025848265
22849339 104 17761775065893092428
23559900 14 18410291428655722455
24204213 148 16981494944441780199
24893989 43 18120647192078436067
25222932 49 18043224968621753938
4017518 198 17980775045681613068
44344687 77 18046378385297095105
46194498 28 18261666077767571245
613672 6 18195784333157895725
6700243 42 18124318211993919438
86090 222 18201996603693930027
9980921 177 17703246023055455171

> <PUBCHEM_SHAPE_MULTIPOLES>
627.83
14.52
6.47
2.47
25.18
6.52
-0.4
-19.15
3.15
-7.87
4.37
-4.62
-1.83
2.09

> <PUBCHEM_SHAPE_SELFOVERLAP>
1315.742

> <PUBCHEM_SHAPE_VOLUME>
356.1

> <PUBCHEM_COORDINATE_TYPE>
2
5
10

$$$$
