7144233
  -OEChem-12032416413D

 60 64  0     1  0  0  0  0  0999 V2000
    6.2184   -1.3739   -0.0257 S   0  0  0  0  0  0  0  0  0  0  0  0
   -2.7651    2.5952    2.3802 O   0  0  0  0  0  0  0  0  0  0  0  0
   -3.3457    0.2044   -1.8623 O   0  0  0  0  0  0  0  0  0  0  0  0
   -0.0851   -3.3742   -0.5073 O   0  0  0  0  0  0  0  0  0  0  0  0
   -1.0668    2.4030    0.7784 N   0  0  0  0  0  0  0  0  0  0  0  0
   -1.2376    1.1303   -2.0927 N   0  0  0  0  0  0  0  0  0  0  0  0
   -1.5012   -1.0530   -1.2397 N   0  0  0  0  0  0  0  0  0  0  0  0
   -1.2492    3.5462   -1.5070 C   0  0  2  0  0  0  0  0  0  0  0  0
    0.7187    2.1655   -0.9804 C   0  0  2  0  0  0  0  0  0  0  0  0
    0.2721    3.5444   -1.4671 C   0  0  0  0  0  0  0  0  0  0  0  0
   -1.7643    3.3727   -0.0781 C   0  0  0  0  0  0  0  0  0  0  0  0
   -1.7724    2.4463   -2.4492 C   0  0  0  0  0  0  0  0  0  0  0  0
    0.2296    1.0938   -1.9807 C   0  0  0  0  0  0  0  0  0  0  0  0
    0.1855    1.8599    0.4243 C   0  0  0  0  0  0  0  0  0  0  0  0
    0.8502    1.0654    1.3036 C   0  0  0  0  0  0  0  0  0  0  0  0
   -1.6820    2.1374    2.0149 C   0  0  0  0  0  0  0  0  0  0  0  0
   -2.1237    0.0910   -1.7357 C   0  0  0  0  0  0  0  0  0  0  0  0
    0.2449    0.7681    2.5878 C   0  0  0  0  0  0  0  0  0  0  0  0
   -0.9474    1.2471    2.9413 C   0  0  0  0  0  0  0  0  0  0  0  0
    2.1641    0.4690    0.9774 C   0  0  0  0  0  0  0  0  0  0  0  0
    2.2223   -0.7674    0.3417 C   0  0  0  0  0  0  0  0  0  0  0  0
    3.3326    1.1476    1.3097 C   0  0  0  0  0  0  0  0  0  0  0  0
   -2.0565   -2.0140   -0.3606 C   0  0  0  0  0  0  0  0  0  0  0  0
    3.4611   -1.3306    0.0354 C   0  0  0  0  0  0  0  0  0  0  0  0
    4.5714    0.5844    1.0033 C   0  0  0  0  0  0  0  0  0  0  0  0
    4.6357   -0.6548    0.3661 C   0  0  0  0  0  0  0  0  0  0  0  0
   -1.3363   -3.1545   -0.0132 C   0  0  0  0  0  0  0  0  0  0  0  0
   -3.3341   -1.8059    0.1542 C   0  0  0  0  0  0  0  0  0  0  0  0
   -1.8969   -4.0922    0.8541 C   0  0  0  0  0  0  0  0  0  0  0  0
   -3.8945   -2.7439    1.0213 C   0  0  0  0  0  0  0  0  0  0  0  0
   -3.1760   -3.8869    1.3712 C   0  0  0  0  0  0  0  0  0  0  0  0
    6.1189   -1.5241   -1.8319 C   0  0  0  0  0  0  0  0  0  0  0  0
    0.0092   -4.0962   -1.7333 C   0  0  0  0  0  0  0  0  0  0  0  0
   -1.6065    4.5098   -1.8905 H   0  0  0  0  0  0  0  0  0  0  0  0
    1.8146    2.1680   -0.9864 H   0  0  0  0  0  0  0  0  0  0  0  0
    0.6452    4.3317   -0.8000 H   0  0  0  0  0  0  0  0  0  0  0  0
    0.6803    3.7494   -2.4643 H   0  0  0  0  0  0  0  0  0  0  0  0
   -1.6832    4.3367    0.4432 H   0  0  0  0  0  0  0  0  0  0  0  0
   -2.8340    3.1270   -0.0881 H   0  0  0  0  0  0  0  0  0  0  0  0
   -2.8671    2.4396   -2.4477 H   0  0  0  0  0  0  0  0  0  0  0  0
   -1.4525    2.6531   -3.4778 H   0  0  0  0  0  0  0  0  0  0  0  0
    0.6264    1.3121   -2.9804 H   0  0  0  0  0  0  0  0  0  0  0  0
    0.6141    0.1142   -1.7132 H   0  0  0  0  0  0  0  0  0  0  0  0
    0.7847    0.1209    3.2729 H   0  0  0  0  0  0  0  0  0  0  0  0
   -1.3944    1.0142    3.9003 H   0  0  0  0  0  0  0  0  0  0  0  0
   -0.5579   -1.2649   -1.5410 H   0  0  0  0  0  0  0  0  0  0  0  0
    1.3172   -1.3075    0.0902 H   0  0  0  0  0  0  0  0  0  0  0  0
    3.2974    2.1142    1.8059 H   0  0  0  0  0  0  0  0  0  0  0  0
    3.4860   -2.3015   -0.4531 H   0  0  0  0  0  0  0  0  0  0  0  0
    5.4759    1.1263    1.2685 H   0  0  0  0  0  0  0  0  0  0  0  0
   -3.9298   -0.9240   -0.0424 H   0  0  0  0  0  0  0  0  0  0  0  0
   -1.3425   -4.9844    1.1326 H   0  0  0  0  0  0  0  0  0  0  0  0
   -4.8866   -2.5804    1.4322 H   0  0  0  0  0  0  0  0  0  0  0  0
   -3.6114   -4.6158    2.0484 H   0  0  0  0  0  0  0  0  0  0  0  0
    7.0809   -1.8742   -2.2152 H   0  0  0  0  0  0  0  0  0  0  0  0
    5.8953   -0.5532   -2.2825 H   0  0  0  0  0  0  0  0  0  0  0  0
    5.3486   -2.2445   -2.1190 H   0  0  0  0  0  0  0  0  0  0  0  0
   -0.3718   -5.1145   -1.6064 H   0  0  0  0  0  0  0  0  0  0  0  0
    1.0637   -4.1503   -2.0175 H   0  0  0  0  0  0  0  0  0  0  0  0
   -0.5414   -3.5862   -2.5300 H   0  0  0  0  0  0  0  0  0  0  0  0
  1 26  1  0  0  0  0
  1 32  1  0  0  0  0
  2 16  2  0  0  0  0
  3 17  2  0  0  0  0
  4 27  1  0  0  0  0
  4 33  1  0  0  0  0
  5 11  1  0  0  0  0
  5 14  1  0  0  0  0
  5 16  1  0  0  0  0
  6 12  1  0  0  0  0
  6 13  1  0  0  0  0
  6 17  1  0  0  0  0
  7 17  1  0  0  0  0
  7 23  1  0  0  0  0
  7 46  1  0  0  0  0
  8 10  1  0  0  0  0
  8 11  1  0  0  0  0
  8 12  1  0  0  0  0
  8 34  1  0  0  0  0
  9 10  1  0  0  0  0
  9 13  1  0  0  0  0
  9 14  1  0  0  0  0
  9 35  1  0  0  0  0
 10 36  1  0  0  0  0
 10 37  1  0  0  0  0
 11 38  1  0  0  0  0
 11 39  1  0  0  0  0
 12 40  1  0  0  0  0
 12 41  1  0  0  0  0
 13 42  1  0  0  0  0
 13 43  1  0  0  0  0
 14 15  2  0  0  0  0
 15 18  1  0  0  0  0
 15 20  1  0  0  0  0
 16 19  1  0  0  0  0
 18 19  2  0  0  0  0
 18 44  1  0  0  0  0
 19 45  1  0  0  0  0
 20 21  2  0  0  0  0
 20 22  1  0  0  0  0
 21 24  1  0  0  0  0
 21 47  1  0  0  0  0
 22 25  2  0  0  0  0
 22 48  1  0  0  0  0
 23 27  1  0  0  0  0
 23 28  2  0  0  0  0
 24 26  2  0  0  0  0
 24 49  1  0  0  0  0
 25 26  1  0  0  0  0
 25 50  1  0  0  0  0
 27 29  2  0  0  0  0
 28 30  1  0  0  0  0
 28 51  1  0  0  0  0
 29 31  1  0  0  0  0
 29 52  1  0  0  0  0
 30 31  2  0  0  0  0
 30 53  1  0  0  0  0
 31 54  1  0  0  0  0
 32 55  1  0  0  0  0
 32 56  1  0  0  0  0
 32 57  1  0  0  0  0
 33 58  1  0  0  0  0
 33 59  1  0  0  0  0
 33 60  1  0  0  0  0
M  END
> <PUBCHEM_COMPOUND_CID>
7144233

> <PUBCHEM_CONFORMER_RMSD>
1

> <PUBCHEM_CONFORMER_DIVERSEORDER>
1
2
12
18
6
11
9
8
13
24
20
10
25
7
19
5
17
4
16
3
21
23
15
14
22

> <PUBCHEM_MMFF94_PARTIAL_CHARGES>
42
1 -0.33
11 0.3
12 0.3
13 0.3
14 -0.03
15 -0.03
16 0.62
17 0.69
18 -0.15
19 -0.14
2 -0.57
20 0.03
21 -0.15
22 -0.15
23 0.12
24 -0.15
25 -0.15
26 0.1
27 0.08
28 -0.15
29 -0.15
3 -0.57
30 -0.15
31 -0.15
32 0.23
33 0.28
4 -0.36
44 0.15
45 0.15
46 0.37
47 0.15
48 0.15
49 0.15
5 -0.47
50 0.15
51 0.15
52 0.15
53 0.15
54 0.15
6 -0.66
7 -0.55
9 0.14

> <PUBCHEM_EFFECTIVE_ROTOR_COUNT>
7

> <PUBCHEM_PHARMACOPHORE_FEATURES>
10
1 2 acceptor
1 3 acceptor
1 32 hydrophobe
1 4 acceptor
1 7 donor
6 20 21 22 24 25 26 rings
6 23 27 28 29 30 31 rings
6 5 14 15 16 18 19 rings
6 5 8 9 10 11 14 rings
6 6 8 9 10 12 13 rings

> <PUBCHEM_HEAVY_ATOM_COUNT>
33

> <PUBCHEM_ATOM_DEF_STEREO_COUNT>
2

> <PUBCHEM_ATOM_UDEF_STEREO_COUNT>
0

> <PUBCHEM_BOND_DEF_STEREO_COUNT>
0

> <PUBCHEM_BOND_UDEF_STEREO_COUNT>
0

> <PUBCHEM_ISOTOPIC_ATOM_COUNT>
0

> <PUBCHEM_COMPONENT_COUNT>
1

> <PUBCHEM_CACTVS_TAUTO_COUNT>
2

> <PUBCHEM_CONFORMER_ID>
006D032900000001

> <PUBCHEM_MMFF94_ENERGY>
113.7165

> <PUBCHEM_FEATURE_SELFOVERLAP>
52.334

> <PUBCHEM_SHAPE_FINGERPRINT>
107951 10 18123456181755224500
11421498 54 17182804584432131161
11607047 403 17329165576268901649
12156800 1 17838945577872997854
12422481 6 14979419295537714174
13135754 10 18129964311523568022
150020 26 17836935863886333234
15219462 58 17916579998520810648
19315092 285 15833083705040459719
20771845 171 16815980631796473421
20775530 9 18191017005190578074
23466295 7 18408322185712578834
3027735 51 18199175200937397067
35225 105 17916033369104561305
4058900 60 17549555006891423224
469060 322 18040726865629436490
484985 159 18411702041380472170
5080951 261 18336531747726204610
6287921 2 17181368630219459923
7097593 13 17479735361165392763

> <PUBCHEM_SHAPE_MULTIPOLES>
650.42
8.16
5.71
2.67
15.7
2.53
-0.38
6.81
0.22
-5.71
1.05
-1.16
-1.6
1.48

> <PUBCHEM_SHAPE_SELFOVERLAP>
1406.1

> <PUBCHEM_SHAPE_VOLUME>
358

> <PUBCHEM_COORDINATE_TYPE>
2
5
10

$$$$
