44716869
  -OEChem-12032416133D

 67 69  0     1  0  0  0  0  0999 V2000
   -7.2863    0.8099   -1.3834 S   0  0  0  0  0  0  0  0  0  0  0  0
    4.6834    0.1699    0.1632 O   0  0  0  0  0  0  0  0  0  0  0  0
   -2.0332   -2.4359    0.9091 O   0  0  0  0  0  0  0  0  0  0  0  0
    4.6679   -2.4909    0.8397 O   0  0  0  0  0  0  0  0  0  0  0  0
   -3.2949    0.5594   -1.4829 O   0  0  0  0  0  0  0  0  0  0  0  0
    4.8924    2.0585   -1.1268 O   0  0  0  0  0  0  0  0  0  0  0  0
   -4.0575    1.7173    0.3822 N   0  0  0  0  0  0  0  0  0  0  0  0
    6.6779    1.2051    0.0842 N   0  0  0  0  0  0  0  0  0  0  0  0
    0.4065   -0.5073    0.4607 C   0  0  2  0  0  0  0  0  0  0  0  0
    1.2702   -1.4431   -0.4707 C   0  0  1  0  0  0  0  0  0  0  0  0
    2.8308   -1.4178   -0.2474 C   0  0  1  0  0  0  0  0  0  0  0  0
   -1.0532   -0.4614   -0.1556 C   0  0  1  0  0  0  0  0  0  0  0  0
    1.0190    0.9188    0.4283 C   0  0  0  0  0  0  0  0  0  0  0  0
    0.6541   -2.8570   -0.5553 C   0  0  0  0  0  0  0  0  0  0  0  0
    3.3121    0.0644   -0.2191 C   0  0  1  0  0  0  0  0  0  0  0  0
   -1.6850   -1.8599   -0.3459 C   0  0  1  0  0  0  0  0  0  0  0  0
    2.5133    0.9533    0.7278 C   0  0  0  0  0  0  0  0  0  0  0  0
   -0.7691   -2.8096   -1.1127 C   0  0  0  0  0  0  0  0  0  0  0  0
    0.3590   -0.9745    1.9359 C   0  0  0  0  0  0  0  0  0  0  0  0
    3.3005   -2.1858    1.0050 C   0  0  0  0  0  0  0  0  0  0  0  0
    3.5287   -2.1109   -1.4535 C   0  0  0  0  0  0  0  0  0  0  0  0
   -2.0381    0.4599    0.5823 C   0  0  0  0  0  0  0  0  0  0  0  0
   -3.1782    0.8955   -0.3076 C   0  0  0  0  0  0  0  0  0  0  0  0
    5.3747    1.2257   -0.3660 C   0  0  0  0  0  0  0  0  0  0  0  0
   -5.2419    2.2865   -0.2187 C   0  0  0  0  0  0  0  0  0  0  0  0
    7.6713    2.1853   -0.2895 C   0  0  0  0  0  0  0  0  0  0  0  0
   -6.4479    1.4148   -0.0184 C   0  0  0  0  0  0  0  0  0  0  0  0
    7.5235    3.4596    0.5159 C   0  0  0  0  0  0  0  0  0  0  0  0
   -7.0200    1.0015    1.1647 C   0  0  0  0  0  0  0  0  0  0  0  0
   -8.1615    0.1772    0.9476 C   0  0  0  0  0  0  0  0  0  0  0  0
   -8.4186   -0.0081   -0.3929 C   0  0  0  0  0  0  0  0  0  0  0  0
    1.1454   -1.0194   -1.4817 H   0  0  0  0  0  0  0  0  0  0  0  0
   -0.9240   -0.0510   -1.1691 H   0  0  0  0  0  0  0  0  0  0  0  0
    0.8541    1.3688   -0.5596 H   0  0  0  0  0  0  0  0  0  0  0  0
    0.5241    1.5734    1.1542 H   0  0  0  0  0  0  0  0  0  0  0  0
    1.2428   -3.4975   -1.2196 H   0  0  0  0  0  0  0  0  0  0  0  0
    0.6496   -3.3506    0.4211 H   0  0  0  0  0  0  0  0  0  0  0  0
    3.1806    0.4552   -1.2388 H   0  0  0  0  0  0  0  0  0  0  0  0
   -2.6205   -1.7752   -0.9088 H   0  0  0  0  0  0  0  0  0  0  0  0
    2.7145    0.6829    1.7702 H   0  0  0  0  0  0  0  0  0  0  0  0
    2.8596    1.9913    0.6441 H   0  0  0  0  0  0  0  0  0  0  0  0
   -1.1826   -3.8252   -1.1015 H   0  0  0  0  0  0  0  0  0  0  0  0
   -0.7246   -2.4922   -2.1622 H   0  0  0  0  0  0  0  0  0  0  0  0
    0.0791   -2.0236    2.0443 H   0  0  0  0  0  0  0  0  0  0  0  0
   -0.3588   -0.3834    2.5146 H   0  0  0  0  0  0  0  0  0  0  0  0
    1.3144   -0.8555    2.4470 H   0  0  0  0  0  0  0  0  0  0  0  0
    3.1942   -1.6051    1.9221 H   0  0  0  0  0  0  0  0  0  0  0  0
    2.7669   -3.1318    1.1276 H   0  0  0  0  0  0  0  0  0  0  0  0
    4.6036   -1.8994   -1.4960 H   0  0  0  0  0  0  0  0  0  0  0  0
    3.1114   -1.7527   -2.4022 H   0  0  0  0  0  0  0  0  0  0  0  0
    3.4070   -3.1992   -1.4321 H   0  0  0  0  0  0  0  0  0  0  0  0
   -2.4517   -0.0217    1.4754 H   0  0  0  0  0  0  0  0  0  0  0  0
   -1.5476    1.3804    0.9114 H   0  0  0  0  0  0  0  0  0  0  0  0
   -2.4510   -3.2962    0.7346 H   0  0  0  0  0  0  0  0  0  0  0  0
    4.9534   -2.9787    1.6309 H   0  0  0  0  0  0  0  0  0  0  0  0
   -3.8800    1.9241    1.3611 H   0  0  0  0  0  0  0  0  0  0  0  0
    6.9519    0.4615    0.7192 H   0  0  0  0  0  0  0  0  0  0  0  0
   -5.4121    3.2561    0.2625 H   0  0  0  0  0  0  0  0  0  0  0  0
   -5.0452    2.4743   -1.2802 H   0  0  0  0  0  0  0  0  0  0  0  0
    7.5670    2.4019   -1.3579 H   0  0  0  0  0  0  0  0  0  0  0  0
    8.6556    1.7381   -0.1202 H   0  0  0  0  0  0  0  0  0  0  0  0
    8.2976    4.1804    0.2351 H   0  0  0  0  0  0  0  0  0  0  0  0
    6.5470    3.9256    0.3486 H   0  0  0  0  0  0  0  0  0  0  0  0
    7.6157    3.2575    1.5883 H   0  0  0  0  0  0  0  0  0  0  0  0
   -6.6418    1.2754    2.1414 H   0  0  0  0  0  0  0  0  0  0  0  0
   -8.7637   -0.2577    1.7346 H   0  0  0  0  0  0  0  0  0  0  0  0
   -9.2172   -0.5847   -0.8381 H   0  0  0  0  0  0  0  0  0  0  0  0
  1 27  1  0  0  0  0
  1 31  1  0  0  0  0
  2 15  1  0  0  0  0
  2 24  1  0  0  0  0
  3 16  1  0  0  0  0
  3 54  1  0  0  0  0
  4 20  1  0  0  0  0
  4 55  1  0  0  0  0
  5 23  2  0  0  0  0
  6 24  2  0  0  0  0
  7 23  1  0  0  0  0
  7 25  1  0  0  0  0
  7 56  1  0  0  0  0
  8 24  1  0  0  0  0
  8 26  1  0  0  0  0
  8 57  1  0  0  0  0
  9 10  1  0  0  0  0
  9 12  1  0  0  0  0
  9 13  1  0  0  0  0
  9 19  1  0  0  0  0
 10 11  1  0  0  0  0
 10 14  1  0  0  0  0
 10 32  1  0  0  0  0
 11 15  1  0  0  0  0
 11 20  1  0  0  0  0
 11 21  1  0  0  0  0
 12 16  1  0  0  0  0
 12 22  1  0  0  0  0
 12 33  1  0  0  0  0
 13 17  1  0  0  0  0
 13 34  1  0  0  0  0
 13 35  1  0  0  0  0
 14 18  1  0  0  0  0
 14 36  1  0  0  0  0
 14 37  1  0  0  0  0
 15 17  1  0  0  0  0
 15 38  1  0  0  0  0
 16 18  1  0  0  0  0
 16 39  1  0  0  0  0
 17 40  1  0  0  0  0
 17 41  1  0  0  0  0
 18 42  1  0  0  0  0
 18 43  1  0  0  0  0
 19 44  1  0  0  0  0
 19 45  1  0  0  0  0
 19 46  1  0  0  0  0
 20 47  1  0  0  0  0
 20 48  1  0  0  0  0
 21 49  1  0  0  0  0
 21 50  1  0  0  0  0
 21 51  1  0  0  0  0
 22 23  1  0  0  0  0
 22 52  1  0  0  0  0
 22 53  1  0  0  0  0
 25 27  1  0  0  0  0
 25 58  1  0  0  0  0
 25 59  1  0  0  0  0
 26 28  1  0  0  0  0
 26 60  1  0  0  0  0
 26 61  1  0  0  0  0
 27 29  2  0  0  0  0
 28 62  1  0  0  0  0
 28 63  1  0  0  0  0
 28 64  1  0  0  0  0
 29 30  1  0  0  0  0
 29 65  1  0  0  0  0
 30 31  2  0  0  0  0
 30 66  1  0  0  0  0
 31 67  1  0  0  0  0
M  END
> <PUBCHEM_COMPOUND_CID>
44716869

> <PUBCHEM_CONFORMER_RMSD>
1

> <PUBCHEM_CONFORMER_DIVERSEORDER>
1
73
51
93
27
102
100
65
84
42
61
87
85
94
54
69
43
13
101
103
108
107
50
30
66
95
34
72
115
8
62
78
89
99
26
33
105
19
57
91
96
97
28
114
49
92
79
38
7
113
110
75
29
70
20
88
52
35
46
111
59
68
77
104
55
67
106
41
71
74
112
63
58
11
36
31
80
24
109
48
83
81
2
98
76
40
86
23
39
15
47
9
25
64
90
21
60
16
45
37
18
82
17
32
53
44
12
14
6
22
5
4
10
56
3

> <PUBCHEM_MMFF94_PARTIAL_CHARGES>
27
1 -0.08
15 0.28
16 0.28
2 -0.43
20 0.28
22 0.06
23 0.57
24 0.78
25 0.48
26 0.3
27 -0.14
29 -0.15
3 -0.68
30 -0.15
31 -0.11
4 -0.68
5 -0.57
54 0.4
55 0.4
56 0.37
57 0.37
6 -0.57
65 0.15
66 0.15
67 0.15
7 -0.73
8 -0.73

> <PUBCHEM_EFFECTIVE_ROTOR_COUNT>
11.6

> <PUBCHEM_PHARMACOPHORE_FEATURES>
11
1 3 acceptor
1 3 donor
1 4 acceptor
1 4 donor
1 5 acceptor
1 6 acceptor
1 7 donor
1 8 donor
5 1 27 29 30 31 rings
6 9 10 11 13 15 17 rings
6 9 10 12 14 16 18 rings

> <PUBCHEM_HEAVY_ATOM_COUNT>
31

> <PUBCHEM_ATOM_DEF_STEREO_COUNT>
5

> <PUBCHEM_ATOM_UDEF_STEREO_COUNT>
1

> <PUBCHEM_BOND_DEF_STEREO_COUNT>
0

> <PUBCHEM_BOND_UDEF_STEREO_COUNT>
0

> <PUBCHEM_ISOTOPIC_ATOM_COUNT>
0

> <PUBCHEM_COMPONENT_COUNT>
1

> <PUBCHEM_CACTVS_TAUTO_COUNT>
4

> <PUBCHEM_CONFORMER_ID>
02AA534500000001

> <PUBCHEM_MMFF94_ENERGY>
82.3581

> <PUBCHEM_FEATURE_SELFOVERLAP>
55.837

> <PUBCHEM_SHAPE_FINGERPRINT>
10 15 18113056047307560785
10165383 225 18413108376686565805
10369192 42 18412544310621916429
11135609 187 18342739594302641353
11135609 201 18408316713565378536
11578080 2 17487313049411865426
11796584 16 13326271672754195165
12730499 353 18341054017318154891
12788726 201 17703513181909337440
13782708 43 17897169010032968795
14294032 229 18058731449859546679
14664723 55 18337689602264361756
14849402 71 18343303686875989321
15131766 46 14781549117160852318
15183329 4 16343698803935199357
15840311 113 18334296449044741422
16126227 98 18342176704246523333
18335252 98 18410298025783225795
18608769 82 18340207492254036145
19302320 297 17968095387206012836
20157964 124 18335985290072477282
21033648 29 18197487632037957392
21365058 27 17703792522962450831
21521721 280 18342181042384733331
21781055 127 17203053967842731778
22149856 69 17845945009826109675
22224240 67 17603585240028838433
23389318 12 18342447163517967005
23522609 53 17417547813054571617
24771293 8 18186806859668041197
25269216 80 16987989622409158797
335352 9 18341055130147097806
350125 39 18341893013430509359
4073 2 18335708188095102401
4112364 45 18261660529276201026
4258327 124 18042701644025893261
45377200 153 15697706130581995861
46194498 28 17986959535412258014
5470011 282 13254797971453255256
5758199 1 18273217491532248161
5776283 40 18129942394105822272
6081469 158 9511465519983386817

> <PUBCHEM_SHAPE_MULTIPOLES>
602.51
22.41
3.32
1.25
18.95
0.52
0.07
-20.22
-0.88
-5.28
-0.24
0.6
0.31
-0.13

> <PUBCHEM_SHAPE_SELFOVERLAP>
1231.948

> <PUBCHEM_SHAPE_VOLUME>
350.2

> <PUBCHEM_COORDINATE_TYPE>
2
5
10

$$$$
