75536845
  -OEChem-12032416343D

 33 33  0     1  0  0  0  0  0999 V2000
    2.7460   -0.1296   -1.1904 O   0  0  0  0  0  0  0  0  0  0  0  0
    2.4443    1.9071    1.2677 O   0  0  0  0  0  0  0  0  0  0  0  0
    3.5488   -2.5045    0.0162 O   0  0  0  0  0  0  0  0  0  0  0  0
   -1.7414    1.5584    0.6974 O   0  0  0  0  0  0  0  0  0  0  0  0
   -0.2406    0.2298   -0.4752 N   0  0  0  0  0  0  0  0  0  0  0  0
   -2.4137   -0.4752   -0.1945 N   0  0  0  0  0  0  0  0  0  0  0  0
    0.9049    1.0961   -0.3563 C   0  0  1  0  0  0  0  0  0  0  0  0
    1.7807    0.7233    0.8229 C   0  0  1  0  0  0  0  0  0  0  0  0
    2.8120   -0.2434    0.2428 C   0  0  1  0  0  0  0  0  0  0  0  0
    1.8476    0.9321   -1.5319 C   0  0  0  0  0  0  0  0  0  0  0  0
    2.5475   -1.6958    0.6096 C   0  0  0  0  0  0  0  0  0  0  0  0
   -1.4887    0.5323    0.0676 C   0  0  0  0  0  0  0  0  0  0  0  0
   -3.7846   -0.4151    0.2548 C   0  0  0  0  0  0  0  0  0  0  0  0
   -4.3096   -1.8160    0.5416 C   0  0  0  0  0  0  0  0  0  0  0  0
   -4.6531    0.3004   -0.7724 C   0  0  0  0  0  0  0  0  0  0  0  0
    0.5447    2.1298   -0.3029 H   0  0  0  0  0  0  0  0  0  0  0  0
    1.2290    0.3182    1.6773 H   0  0  0  0  0  0  0  0  0  0  0  0
    3.8348    0.0255    0.5319 H   0  0  0  0  0  0  0  0  0  0  0  0
    1.3447    0.6955   -2.4744 H   0  0  0  0  0  0  0  0  0  0  0  0
    2.4514    1.8350   -1.6775 H   0  0  0  0  0  0  0  0  0  0  0  0
    1.5790   -2.0324    0.2264 H   0  0  0  0  0  0  0  0  0  0  0  0
    2.5768   -1.8376    1.6943 H   0  0  0  0  0  0  0  0  0  0  0  0
   -0.1206   -0.6726   -0.9254 H   0  0  0  0  0  0  0  0  0  0  0  0
    3.0314    1.6523    1.9999 H   0  0  0  0  0  0  0  0  0  0  0  0
   -3.8126    0.1607    1.1878 H   0  0  0  0  0  0  0  0  0  0  0  0
   -2.1299   -1.2482   -0.7890 H   0  0  0  0  0  0  0  0  0  0  0  0
    3.3596   -3.4248    0.2667 H   0  0  0  0  0  0  0  0  0  0  0  0
   -4.2975   -2.4385   -0.3602 H   0  0  0  0  0  0  0  0  0  0  0  0
   -3.6906   -2.3156    1.2949 H   0  0  0  0  0  0  0  0  0  0  0  0
   -5.3374   -1.7800    0.9173 H   0  0  0  0  0  0  0  0  0  0  0  0
   -4.6441   -0.2247   -1.7341 H   0  0  0  0  0  0  0  0  0  0  0  0
   -4.2909    1.3187   -0.9509 H   0  0  0  0  0  0  0  0  0  0  0  0
   -5.6908    0.3670   -0.4294 H   0  0  0  0  0  0  0  0  0  0  0  0
  1  9  1  0  0  0  0
  1 10  1  0  0  0  0
  2  8  1  0  0  0  0
  2 24  1  0  0  0  0
  3 11  1  0  0  0  0
  3 27  1  0  0  0  0
  4 12  2  0  0  0  0
  5  7  1  0  0  0  0
  5 12  1  0  0  0  0
  5 23  1  0  0  0  0
  6 12  1  0  0  0  0
  6 13  1  0  0  0  0
  6 26  1  0  0  0  0
  7  8  1  0  0  0  0
  7 10  1  0  0  0  0
  7 16  1  0  0  0  0
  8  9  1  0  0  0  0
  8 17  1  0  0  0  0
  9 11  1  0  0  0  0
  9 18  1  0  0  0  0
 10 19  1  0  0  0  0
 10 20  1  0  0  0  0
 11 21  1  0  0  0  0
 11 22  1  0  0  0  0
 13 14  1  0  0  0  0
 13 15  1  0  0  0  0
 13 25  1  0  0  0  0
 14 28  1  0  0  0  0
 14 29  1  0  0  0  0
 14 30  1  0  0  0  0
 15 31  1  0  0  0  0
 15 32  1  0  0  0  0
 15 33  1  0  0  0  0
M  END
> <PUBCHEM_COMPOUND_CID>
75536845

> <PUBCHEM_CONFORMER_RMSD>
0.6

> <PUBCHEM_CONFORMER_DIVERSEORDER>
1
68
59
41
58
12
42
15
56
33
31
21
37
24
34
8
38
11
35
55
64
32
17
66
48
23
26
7
60
53
9
54
67
10
16
25
13
47
6
65
36
20
39
18
22
30
57
43
4
28
19
29
3
61
44
27
52
46
63
14
2
45
62
40
50
51
5
49

> <PUBCHEM_MMFF94_PARTIAL_CHARGES>
17
1 -0.56
10 0.28
11 0.28
12 0.69
13 0.3
2 -0.68
23 0.37
24 0.4
26 0.37
27 0.4
3 -0.68
4 -0.57
5 -0.73
6 -0.73
7 0.3
8 0.28
9 0.28

> <PUBCHEM_EFFECTIVE_ROTOR_COUNT>
6

> <PUBCHEM_PHARMACOPHORE_FEATURES>
10
1 1 acceptor
1 2 acceptor
1 2 donor
1 3 acceptor
1 3 donor
1 4 acceptor
1 5 donor
1 6 donor
3 13 14 15 hydrophobe
5 1 7 8 9 10 rings

> <PUBCHEM_HEAVY_ATOM_COUNT>
15

> <PUBCHEM_ATOM_DEF_STEREO_COUNT>
3

> <PUBCHEM_ATOM_UDEF_STEREO_COUNT>
0

> <PUBCHEM_BOND_DEF_STEREO_COUNT>
0

> <PUBCHEM_BOND_UDEF_STEREO_COUNT>
0

> <PUBCHEM_ISOTOPIC_ATOM_COUNT>
0

> <PUBCHEM_COMPONENT_COUNT>
1

> <PUBCHEM_CACTVS_TAUTO_COUNT>
3

> <PUBCHEM_CONFORMER_ID>
048099CD00000001

> <PUBCHEM_MMFF94_ENERGY>
24.618

> <PUBCHEM_FEATURE_SELFOVERLAP>
50.802

> <PUBCHEM_SHAPE_FINGERPRINT>
10980938 120 10663817494472887627
11031198 65 12612755717716542345
12006461 19 18336828585078395138
12616999 72 17749962179204370254
12932764 1 18272933860049314861
13296908 3 18340486772402348617
13571099 22 18333447630025481221
13675066 3 18334288799649951681
13705890 14 17968095343247692401
14251710 61 18335706026840855099
14252887 29 18334011734992919497
14350558 41 18261112988810979283
15239191 94 18409737257156433815
177051 138 18409448098493637243
18186145 218 18411142463334586809
20281475 54 18335427885064227409
20645477 70 18131064948448535359
22169311 21 18336256929610957859
22485316 2 18340764940243626863
23557571 272 17895737552666478285
23559900 14 18408599275253379985
3060560 45 16008748022075808922
31174 14 17988919015483670601
5374978 207 17704072906600476481
81539 233 18057598978900569792
94968 8 18260552212322344226
9709674 26 17968382354896651619

> <PUBCHEM_SHAPE_MULTIPOLES>
275.25
8.34
1.96
1.11
8.75
1.04
-0.1
3.54
-0.26
-1.25
0.33
-0.64
-0.41
0.36

> <PUBCHEM_SHAPE_SELFOVERLAP>
541.162

> <PUBCHEM_SHAPE_VOLUME>
166.7

> <PUBCHEM_COORDINATE_TYPE>
2
5
10

$$$$
