25338314
  -OEChem-12032416193D

 52 55  0     1  0  0  0  0  0999 V2000
   -2.0686    2.9465   -1.2478 O   0  0  0  0  0  0  0  0  0  0  0  0
    4.4111    0.5131   -0.8121 O   0  0  0  0  0  0  0  0  0  0  0  0
    0.6628    3.4854    0.9122 N   0  0  1  0  0  0  0  0  0  0  0  0
    2.7923    1.3699    0.6143 N   0  0  0  0  0  0  0  0  0  0  0  0
   -1.3100    1.2141   -0.0478 N   0  0  0  0  0  0  0  0  0  0  0  0
   -3.1218    2.0253   -1.1852 N   0  0  0  0  0  0  0  0  0  0  0  0
    2.5736    2.6082   -0.0948 C   0  0  1  0  0  0  0  0  0  0  0  0
    0.2339    3.2031   -0.4710 C   0  0  1  0  0  0  0  0  0  0  0  0
    1.4374    2.4823   -1.1096 C   0  0  0  0  0  0  0  0  0  0  0  0
    2.1102    3.7105    0.8456 C   0  0  0  0  0  0  0  0  0  0  0  0
   -1.0410    2.3912   -0.5537 C   0  0  0  0  0  0  0  0  0  0  0  0
   -0.0367    4.6159    1.5106 C   0  0  0  0  0  0  0  0  0  0  0  0
    3.7053    0.4155    0.1884 C   0  0  0  0  0  0  0  0  0  0  0  0
    3.7356   -0.7804    1.1207 C   0  0  0  0  0  0  0  0  0  0  0  0
   -2.5975    1.0316   -0.4615 C   0  0  0  0  0  0  0  0  0  0  0  0
    3.3811   -2.0762    0.4406 C   0  0  0  0  0  0  0  0  0  0  0  0
   -3.3321   -0.1564   -0.1356 C   0  0  0  0  0  0  0  0  0  0  0  0
    2.0525   -2.4984    0.3923 C   0  0  0  0  0  0  0  0  0  0  0  0
    4.3816   -2.8546   -0.1412 C   0  0  0  0  0  0  0  0  0  0  0  0
   -2.7318   -1.1619    0.6225 C   0  0  0  0  0  0  0  0  0  0  0  0
   -4.6471   -0.3063   -0.5761 C   0  0  0  0  0  0  0  0  0  0  0  0
   -3.4462   -2.3170    0.9397 C   0  0  0  0  0  0  0  0  0  0  0  0
   -5.3616   -1.4615   -0.2590 C   0  0  0  0  0  0  0  0  0  0  0  0
   -4.7611   -2.4668    0.4989 C   0  0  0  0  0  0  0  0  0  0  0  0
    1.7244   -3.6989   -0.2377 C   0  0  0  0  0  0  0  0  0  0  0  0
    4.0537   -4.0551   -0.7714 C   0  0  0  0  0  0  0  0  0  0  0  0
    2.7250   -4.4772   -0.8195 C   0  0  0  0  0  0  0  0  0  0  0  0
   -5.5250   -3.7018    0.8382 C   0  0  0  0  0  0  0  0  0  0  0  0
    3.5076    2.8885   -0.5947 H   0  0  0  0  0  0  0  0  0  0  0  0
    0.0856    4.1456   -1.0176 H   0  0  0  0  0  0  0  0  0  0  0  0
    1.2309    1.4376   -1.3705 H   0  0  0  0  0  0  0  0  0  0  0  0
    1.7137    3.0039   -2.0346 H   0  0  0  0  0  0  0  0  0  0  0  0
    2.5778    3.6487    1.8341 H   0  0  0  0  0  0  0  0  0  0  0  0
    2.3369    4.6915    0.4081 H   0  0  0  0  0  0  0  0  0  0  0  0
    2.2032    1.1770    1.4191 H   0  0  0  0  0  0  0  0  0  0  0  0
   -1.1116    4.4162    1.5751 H   0  0  0  0  0  0  0  0  0  0  0  0
    0.1073    5.5430    0.9443 H   0  0  0  0  0  0  0  0  0  0  0  0
    0.3158    4.7819    2.5345 H   0  0  0  0  0  0  0  0  0  0  0  0
    3.0772   -0.6329    1.9855 H   0  0  0  0  0  0  0  0  0  0  0  0
    4.7488   -0.8412    1.5387 H   0  0  0  0  0  0  0  0  0  0  0  0
    1.2638   -1.8990    0.8397 H   0  0  0  0  0  0  0  0  0  0  0  0
    5.4203   -2.5359   -0.1119 H   0  0  0  0  0  0  0  0  0  0  0  0
   -1.7088   -1.0749    0.9803 H   0  0  0  0  0  0  0  0  0  0  0  0
   -5.1480    0.4557   -1.1680 H   0  0  0  0  0  0  0  0  0  0  0  0
   -2.9682   -3.0926    1.5321 H   0  0  0  0  0  0  0  0  0  0  0  0
   -6.3861   -1.5662   -0.6064 H   0  0  0  0  0  0  0  0  0  0  0  0
    0.6897   -4.0269   -0.2759 H   0  0  0  0  0  0  0  0  0  0  0  0
    4.8326   -4.6609   -1.2249 H   0  0  0  0  0  0  0  0  0  0  0  0
    2.4696   -5.4118   -1.3103 H   0  0  0  0  0  0  0  0  0  0  0  0
   -6.0569   -3.5663    1.7851 H   0  0  0  0  0  0  0  0  0  0  0  0
   -6.2544   -3.9425    0.0573 H   0  0  0  0  0  0  0  0  0  0  0  0
   -4.8584   -4.5660    0.9306 H   0  0  0  0  0  0  0  0  0  0  0  0
  1  6  1  0  0  0  0
  1 11  1  0  0  0  0
  2 13  2  0  0  0  0
  3  8  1  0  0  0  0
  3 10  1  0  0  0  0
  3 12  1  0  0  0  0
  4  7  1  0  0  0  0
  4 13  1  0  0  0  0
  4 35  1  0  0  0  0
  5 11  2  0  0  0  0
  5 15  1  0  0  0  0
  6 15  2  0  0  0  0
  7  9  1  0  0  0  0
  7 10  1  0  0  0  0
  7 29  1  0  0  0  0
  8  9  1  0  0  0  0
  8 11  1  0  0  0  0
  8 30  1  0  0  0  0
  9 31  1  0  0  0  0
  9 32  1  0  0  0  0
 10 33  1  0  0  0  0
 10 34  1  0  0  0  0
 12 36  1  0  0  0  0
 12 37  1  0  0  0  0
 12 38  1  0  0  0  0
 13 14  1  0  0  0  0
 14 16  1  0  0  0  0
 14 39  1  0  0  0  0
 14 40  1  0  0  0  0
 15 17  1  0  0  0  0
 16 18  2  0  0  0  0
 16 19  1  0  0  0  0
 17 20  2  0  0  0  0
 17 21  1  0  0  0  0
 18 25  1  0  0  0  0
 18 41  1  0  0  0  0
 19 26  2  0  0  0  0
 19 42  1  0  0  0  0
 20 22  1  0  0  0  0
 20 43  1  0  0  0  0
 21 23  2  0  0  0  0
 21 44  1  0  0  0  0
 22 24  2  0  0  0  0
 22 45  1  0  0  0  0
 23 24  1  0  0  0  0
 23 46  1  0  0  0  0
 24 28  1  0  0  0  0
 25 27  2  0  0  0  0
 25 47  1  0  0  0  0
 26 27  1  0  0  0  0
 26 48  1  0  0  0  0
 27 49  1  0  0  0  0
 28 50  1  0  0  0  0
 28 51  1  0  0  0  0
 28 52  1  0  0  0  0
M  END
> <PUBCHEM_COMPOUND_CID>
25338314

> <PUBCHEM_CONFORMER_RMSD>
0.8

> <PUBCHEM_CONFORMER_DIVERSEORDER>
1
37
193
137
124
102
62
192
98
101
194
31
171
163
30
155
185
165
71
28
136
179
79
156
83
126
127
60
191
54
105
8
170
178
120
184
32
76
94
143
174
6
44
34
181
100
58
164
159
142
73
4
15
187
70
87
117
154
139
49
129
153
95
16
64
134
25
169
189
69
130
72
175
23
12
128
138
52
19
122
114
33
147
40
46
133
113
146
145
35
53
17
148
24
132
42
9
158
150
151
74
173
10
63
5
38
91
176
29
162
125
183
90
195
131
119
92
108
172
47
116
61
167
96
55
50
11
66
177
188
103
85
140
110
89
107
56
121
97
135
20
75
152
104
51
36
67
115
27
18
43
82
160
22
118
80
13
109
180
81
111
182
21
86
161
68
112
88
123
190
149
168
78
26
186
99
166
2
7
59
39
48
65
45
41
141
144
106
77
57
157
84
3
93
14

> <PUBCHEM_MMFF94_PARTIAL_CHARGES>
37
1 -0.02
10 0.27
11 0.3
12 0.27
13 0.57
14 0.2
15 0.46
16 -0.14
17 0.05
18 -0.15
19 -0.15
2 -0.57
20 -0.15
21 -0.15
22 -0.15
23 -0.15
24 -0.14
25 -0.15
26 -0.15
27 -0.15
28 0.14
3 -0.81
35 0.37
4 -0.73
41 0.15
42 0.15
43 0.15
44 0.15
45 0.15
46 0.15
47 0.15
48 0.15
49 0.15
5 -0.57
6 -0.41
7 0.3
8 0.45

> <PUBCHEM_EFFECTIVE_ROTOR_COUNT>
7

> <PUBCHEM_PHARMACOPHORE_FEATURES>
8
1 2 acceptor
1 3 cation
1 4 donor
3 5 6 15 cation
5 1 5 6 11 15 rings
5 3 7 8 9 10 rings
6 16 18 19 25 26 27 rings
6 17 20 21 22 23 24 rings

> <PUBCHEM_HEAVY_ATOM_COUNT>
28

> <PUBCHEM_ATOM_DEF_STEREO_COUNT>
2

> <PUBCHEM_ATOM_UDEF_STEREO_COUNT>
0

> <PUBCHEM_BOND_DEF_STEREO_COUNT>
0

> <PUBCHEM_BOND_UDEF_STEREO_COUNT>
0

> <PUBCHEM_ISOTOPIC_ATOM_COUNT>
0

> <PUBCHEM_COMPONENT_COUNT>
1

> <PUBCHEM_CACTVS_TAUTO_COUNT>
2

> <PUBCHEM_CONFORMER_ID>
0182A1CA00000001

> <PUBCHEM_MMFF94_ENERGY>
58.8543

> <PUBCHEM_FEATURE_SELFOVERLAP>
40.597

> <PUBCHEM_SHAPE_FINGERPRINT>
11014199 57 18268436728664076962
11059048 146 16970272834404392258
114674 6 18192428803911116584
13383661 66 18056507078260544454
13402501 40 18189333648482014330
13533116 47 17981331398195261881
1361 2 17905325478965876771
13989917 61 18265617770172684531
14251757 5 17689443680891580718
14659021 117 17761483700186733490
14866123 147 17693657013665109881
15927050 60 17547011192446019884
17909252 39 18341336592012228410
1979834 28 18194398020662164907
19930381 70 18337388343997729067
20775438 99 17832944383743064039
20775530 9 18265050241239734954
21315759 227 18261096453334570006
21344244 181 17981068589246958596
23559900 14 18336537257736519959
23572383 38 18194098760352474954
23845131 108 16974755019620464769
3117164 225 18341062809369431049
325973 47 18339078160009694727
3737641 26 18341624668036732960
404807 14 18268437824350612755
4435113 14 17678755642212362979
445580 102 18409729547479076158
4573279 150 17901143817860977011
4616759 239 17337287699313006954
463206 1 18410854394982008438
49967989 163 17331698846986188734
5309563 4 18412265055546938326
54324442 115 16973651642622576815
56633871 153 18196943175664696561
57527585 103 17460909261059917760
613672 6 18195222465451856050
6433294 58 18337106885968499659
86090 222 18049174550508888874

> <PUBCHEM_SHAPE_MULTIPOLES>
544.56
11.04
7.57
1.13
9.39
0.2
-0.06
-12.59
-0.32
-4.61
-0.46
0.04
0.52
2.36

> <PUBCHEM_SHAPE_SELFOVERLAP>
1173.575

> <PUBCHEM_SHAPE_VOLUME>
301.6

> <PUBCHEM_COORDINATE_TYPE>
2
5
10

$$$$
