51137406
  -OEChem-12032416243D

 41 43  0     1  0  0  0  0  0999 V2000
    0.1437   -0.7233   -0.3287 O   0  0  0  0  0  0  0  0  0  0  0  0
   -3.7070    0.3879    0.2959 N   0  0  1  0  0  0  0  0  0  0  0  0
   -0.0109   -2.6818    0.7414 N   0  0  0  0  0  0  0  0  0  0  0  0
    1.2005   -2.6531    0.0760 N   0  0  0  0  0  0  0  0  0  0  0  0
   -1.9344   -1.0088    0.9335 C   0  0  2  0  0  0  0  0  0  0  0  0
   -2.8855   -0.7037   -0.2316 C   0  0  0  0  0  0  0  0  0  0  0  0
   -1.8742    0.2999    1.7402 C   0  0  0  0  0  0  0  0  0  0  0  0
   -2.7638    1.2738    0.9783 C   0  0  0  0  0  0  0  0  0  0  0  0
   -4.4556    1.0735   -0.7471 C   0  0  0  0  0  0  0  0  0  0  0  0
   -0.5935   -1.5357    0.4770 C   0  0  0  0  0  0  0  0  0  0  0  0
   -5.2399    2.2411   -0.1551 C   0  0  0  0  0  0  0  0  0  0  0  0
   -5.3867    0.0826   -1.4385 C   0  0  0  0  0  0  0  0  0  0  0  0
    1.2478   -1.4922   -0.5348 C   0  0  0  0  0  0  0  0  0  0  0  0
    2.3022   -0.9245   -1.3843 C   0  0  0  0  0  0  0  0  0  0  0  0
    3.1851    0.1124   -0.6979 C   0  0  0  0  0  0  0  0  0  0  0  0
    2.7360    1.4250   -0.5531 C   0  0  0  0  0  0  0  0  0  0  0  0
    4.4420   -0.2520   -0.2153 C   0  0  0  0  0  0  0  0  0  0  0  0
    3.5437    2.3734    0.0745 C   0  0  0  0  0  0  0  0  0  0  0  0
    5.2498    0.6963    0.4123 C   0  0  0  0  0  0  0  0  0  0  0  0
    4.8007    2.0090    0.5572 C   0  0  0  0  0  0  0  0  0  0  0  0
   -2.3889   -1.7782    1.5732 H   0  0  0  0  0  0  0  0  0  0  0  0
   -3.4751   -1.5952   -0.4713 H   0  0  0  0  0  0  0  0  0  0  0  0
   -2.3350   -0.3996   -1.1316 H   0  0  0  0  0  0  0  0  0  0  0  0
   -2.2808    0.1255    2.7444 H   0  0  0  0  0  0  0  0  0  0  0  0
   -0.8592    0.6944    1.8574 H   0  0  0  0  0  0  0  0  0  0  0  0
   -2.1573    1.8522    0.2694 H   0  0  0  0  0  0  0  0  0  0  0  0
   -3.2490    1.9630    1.6763 H   0  0  0  0  0  0  0  0  0  0  0  0
   -3.7773    1.4822   -1.5087 H   0  0  0  0  0  0  0  0  0  0  0  0
   -5.8983    2.6827   -0.9119 H   0  0  0  0  0  0  0  0  0  0  0  0
   -4.5853    3.0455    0.1957 H   0  0  0  0  0  0  0  0  0  0  0  0
   -5.8718    1.9200    0.6810 H   0  0  0  0  0  0  0  0  0  0  0  0
   -6.0443    0.6043   -2.1435 H   0  0  0  0  0  0  0  0  0  0  0  0
   -4.8403   -0.6662   -2.0211 H   0  0  0  0  0  0  0  0  0  0  0  0
   -6.0283   -0.4392   -0.7192 H   0  0  0  0  0  0  0  0  0  0  0  0
    2.9338   -1.7357   -1.7684 H   0  0  0  0  0  0  0  0  0  0  0  0
    1.8546   -0.4647   -2.2751 H   0  0  0  0  0  0  0  0  0  0  0  0
    1.7591    1.7213   -0.9259 H   0  0  0  0  0  0  0  0  0  0  0  0
    4.8029   -1.2716   -0.3199 H   0  0  0  0  0  0  0  0  0  0  0  0
    3.1941    3.3955    0.1872 H   0  0  0  0  0  0  0  0  0  0  0  0
    6.2283    0.4126    0.7887 H   0  0  0  0  0  0  0  0  0  0  0  0
    5.4297    2.7473    1.0459 H   0  0  0  0  0  0  0  0  0  0  0  0
  1 10  1  0  0  0  0
  1 13  1  0  0  0  0
  2  6  1  0  0  0  0
  2  8  1  0  0  0  0
  2  9  1  0  0  0  0
  3  4  1  0  0  0  0
  3 10  2  0  0  0  0
  4 13  2  0  0  0  0
  5  6  1  0  0  0  0
  5  7  1  0  0  0  0
  5 10  1  0  0  0  0
  5 21  1  0  0  0  0
  6 22  1  0  0  0  0
  6 23  1  0  0  0  0
  7  8  1  0  0  0  0
  7 24  1  0  0  0  0
  7 25  1  0  0  0  0
  8 26  1  0  0  0  0
  8 27  1  0  0  0  0
  9 11  1  0  0  0  0
  9 12  1  0  0  0  0
  9 28  1  0  0  0  0
 11 29  1  0  0  0  0
 11 30  1  0  0  0  0
 11 31  1  0  0  0  0
 12 32  1  0  0  0  0
 12 33  1  0  0  0  0
 12 34  1  0  0  0  0
 13 14  1  0  0  0  0
 14 15  1  0  0  0  0
 14 35  1  0  0  0  0
 14 36  1  0  0  0  0
 15 16  2  0  0  0  0
 15 17  1  0  0  0  0
 16 18  1  0  0  0  0
 16 37  1  0  0  0  0
 17 19  2  0  0  0  0
 17 38  1  0  0  0  0
 18 20  2  0  0  0  0
 18 39  1  0  0  0  0
 19 20  1  0  0  0  0
 19 40  1  0  0  0  0
 20 41  1  0  0  0  0
M  END
> <PUBCHEM_COMPOUND_CID>
51137406

> <PUBCHEM_CONFORMER_RMSD>
0.8

> <PUBCHEM_CONFORMER_DIVERSEORDER>
1
42
28
44
47
24
3
13
27
36
64
26
49
19
54
57
35
2
9
60
39
59
55
46
53
25
23
63
17
20
51
5
32
34
45
16
62
56
7
15
31
48
43
22
6
21
11
52
58
41
33
18
29
38
4
12
14
8
50
61
30
40
10
37

> <PUBCHEM_MMFF94_PARTIAL_CHARGES>
22
1 -0.28
10 0.3
13 0.3
14 0.32
15 -0.14
16 -0.15
17 -0.15
18 -0.15
19 -0.15
2 -0.81
20 -0.15
3 -0.34
37 0.15
38 0.15
39 0.15
4 -0.34
40 0.15
41 0.15
5 0.18
6 0.27
8 0.27
9 0.27

> <PUBCHEM_EFFECTIVE_ROTOR_COUNT>
5

> <PUBCHEM_PHARMACOPHORE_FEATURES>
5
1 2 cation
3 9 11 12 hydrophobe
5 1 3 4 10 13 rings
5 2 5 6 7 8 rings
6 15 16 17 18 19 20 rings

> <PUBCHEM_HEAVY_ATOM_COUNT>
20

> <PUBCHEM_ATOM_DEF_STEREO_COUNT>
1

> <PUBCHEM_ATOM_UDEF_STEREO_COUNT>
0

> <PUBCHEM_BOND_DEF_STEREO_COUNT>
0

> <PUBCHEM_BOND_UDEF_STEREO_COUNT>
0

> <PUBCHEM_ISOTOPIC_ATOM_COUNT>
0

> <PUBCHEM_COMPONENT_COUNT>
1

> <PUBCHEM_CACTVS_TAUTO_COUNT>
1

> <PUBCHEM_CONFORMER_ID>
030C4B7E00000001

> <PUBCHEM_MMFF94_ENERGY>
30.305

> <PUBCHEM_FEATURE_SELFOVERLAP>
25.373

> <PUBCHEM_SHAPE_FINGERPRINT>
10042902 136 13613369634014328213
10498660 4 18413395349231750624
10692045 39 17168695315488937234
11089746 13 18408036304194225006
11370993 70 18411139155814240496
11543360 7 16917072131165143175
11725454 13 17749100089321669523
12403259 415 18336281109897201582
12467345 10 17988917916377952405
12596602 18 13334748915905007989
12633257 1 15357698616862089622
12670546 177 17989484109126419405
12769317 202 18339913827569828337
13103583 49 11891329803784028389
13402501 40 18408319986373370868
13464513 79 9727625099341432860
13583140 156 17749114434275029466
14123255 352 18410013273240182860
14251732 14 16271917255881897885
14251732 17 18334010592890320976
14251764 38 18336830908650674565
14252887 29 9222941539698827446
14341114 176 8430314666997169453
14420673 8 7853311863772144569
14848178 96 18410580578053299332
14957384 54 18187359995472893616
15003188 100 18411417340650875948
15061688 2 18408886243482725690
15537594 2 10953457431989437032
17959699 21 18342738469036806329
1813 80 11671779368698809490
18186145 218 18199493037481652142
192875 21 18060423512687228608
193927 3 11167932576723694047
19752476 56 18270404858640770801
19782 4 18334296474097269511
20291156 8 8502380996871989618
20621476 13 18341614858189816208
20715895 44 18409165472228847177
20871999 31 15482390876689447971
21033648 29 18186811291688551016
212916 134 16805042908875551099
21304303 282 18056172886475921790
21403212 168 18262220154819738858
21452121 103 18261952942759426834
21475661 188 18335703857966545748
21713013 43 11599741549143590248
22749437 52 18270413779472532624
22950370 63 9367351456877725910
23016692 55 10303813211262814865
23227448 37 18341895246544348391
235170 7 14548749378161971976
23559900 14 18270967834554335214
2838139 119 18341608209263469781
3117164 225 10737280226233509159
328317 168 18341894099598156437
351380 180 18412262835317930100
4028521 119 18343588455490403833
43658 37 18410013217358083211
474 4 18412546513549423610
495365 180 17459191776964472827
5104073 3 18041567923668913507
57724786 102 17604159202542216276
6328613 192 18263374723950092252
67856867 119 18339071575945999795
7970288 3 9871752377397611164
8509985 295 18261385629641349080
9981440 41 18334857242455660355

> <PUBCHEM_SHAPE_MULTIPOLES>
390.78
12.12
2.62
1.22
2.47
0.31
0.06
-8.74
-2.19
-0.78
0.31
0.79
0.05
0.62

> <PUBCHEM_SHAPE_SELFOVERLAP>
825.151

> <PUBCHEM_SHAPE_VOLUME>
222.4

> <PUBCHEM_COORDINATE_TYPE>
2
5
10

$$$$
