45783575
  -OEChem-12032416273D

 65 69  0     1  0  0  0  0  0999 V2000
    1.4485    2.3879    1.8735 O   0  0  0  0  0  0  0  0  0  0  0  0
   -4.8891   -0.2968   -1.3122 O   0  0  0  0  0  0  0  0  0  0  0  0
    4.5229   -4.7462   -0.9083 O   0  0  0  0  0  0  0  0  0  0  0  0
    4.0855    1.3717   -0.4759 N   0  0  1  0  0  0  0  0  0  0  0  0
    4.3506   -2.7731    0.3063 N   0  0  0  0  0  0  0  0  0  0  0  0
    1.1204    1.5128   -0.1619 N   0  0  0  0  0  0  0  0  0  0  0  0
    0.0897    2.0549    1.8073 N   0  0  0  0  0  0  0  0  0  0  0  0
   -3.6320    0.6555    0.3898 N   0  0  0  0  0  0  0  0  0  0  0  0
    4.5131    0.1120    0.1278 C   0  0  0  0  0  0  0  0  0  0  0  0
    3.4613    2.2977    0.4900 C   0  0  1  0  0  0  0  0  0  0  0  0
    5.2012    2.0978   -1.0829 C   0  0  0  0  0  0  0  0  0  0  0  0
    3.7519    3.7022   -0.0707 C   0  0  0  0  0  0  0  0  0  0  0  0
    5.1401   -0.7964   -0.9376 C   0  0  0  0  0  0  0  0  0  0  0  0
    3.3190   -0.5858    0.7919 C   0  0  0  0  0  0  0  0  0  0  0  0
    4.5944    3.4666   -1.3161 C   0  0  0  0  0  0  0  0  0  0  0  0
    5.5072   -2.1566   -0.3469 C   0  0  0  0  0  0  0  0  0  0  0  0
    3.7220   -1.9514    1.3481 C   0  0  0  0  0  0  0  0  0  0  0  0
    1.9811    2.0365    0.6739 C   0  0  0  0  0  0  0  0  0  0  0  0
    3.9554   -4.0611   -0.0535 C   0  0  0  0  0  0  0  0  0  0  0  0
   -5.9840   -0.1903   -0.4086 C   0  0  0  0  0  0  0  0  0  0  0  0
   -7.2759    0.0360   -1.1928 C   0  0  0  0  0  0  0  0  0  0  0  0
   -6.0621   -1.4496    0.4532 C   0  0  0  0  0  0  0  0  0  0  0  0
   -8.4932    0.0596   -0.2742 C   0  0  0  0  0  0  0  0  0  0  0  0
   -7.2792   -1.4262    1.3720 C   0  0  0  0  0  0  0  0  0  0  0  0
   -8.5701   -1.1977    0.5889 C   0  0  0  0  0  0  0  0  0  0  0  0
   -0.0260    1.5446    0.5777 C   0  0  0  0  0  0  0  0  0  0  0  0
    2.7541   -4.6241    0.6630 C   0  0  0  0  0  0  0  0  0  0  0  0
   -1.2717    1.0597    0.0574 C   0  0  0  0  0  0  0  0  0  0  0  0
   -3.6748    0.1537   -0.8649 C   0  0  0  0  0  0  0  0  0  0  0  0
   -1.3556    0.5364   -1.2281 C   0  0  0  0  0  0  0  0  0  0  0  0
   -2.4283    1.0967    0.8193 C   0  0  0  0  0  0  0  0  0  0  0  0
   -2.5764    0.0726   -1.7056 C   0  0  0  0  0  0  0  0  0  0  0  0
    5.2697    0.3054    0.9022 H   0  0  0  0  0  0  0  0  0  0  0  0
    3.9548    2.2261    1.4698 H   0  0  0  0  0  0  0  0  0  0  0  0
    5.5265    1.6684   -2.0351 H   0  0  0  0  0  0  0  0  0  0  0  0
    6.0619    2.1751   -0.4066 H   0  0  0  0  0  0  0  0  0  0  0  0
    2.8515    4.2769   -0.3131 H   0  0  0  0  0  0  0  0  0  0  0  0
    4.3318    4.2784    0.6607 H   0  0  0  0  0  0  0  0  0  0  0  0
    6.0541   -0.3608   -1.3554 H   0  0  0  0  0  0  0  0  0  0  0  0
    4.4361   -0.9435   -1.7675 H   0  0  0  0  0  0  0  0  0  0  0  0
    2.5090   -0.7355    0.0673 H   0  0  0  0  0  0  0  0  0  0  0  0
    2.9357   -0.0234    1.6472 H   0  0  0  0  0  0  0  0  0  0  0  0
    5.3519    4.2435   -1.4558 H   0  0  0  0  0  0  0  0  0  0  0  0
    3.9505    3.4544   -2.2044 H   0  0  0  0  0  0  0  0  0  0  0  0
    5.9020   -2.8060   -1.1347 H   0  0  0  0  0  0  0  0  0  0  0  0
    6.2917   -2.0475    0.4113 H   0  0  0  0  0  0  0  0  0  0  0  0
    4.4575   -1.8342    2.1532 H   0  0  0  0  0  0  0  0  0  0  0  0
    2.8468   -2.4389    1.7812 H   0  0  0  0  0  0  0  0  0  0  0  0
   -5.8877    0.6906    0.2410 H   0  0  0  0  0  0  0  0  0  0  0  0
   -7.2097    0.9755   -1.7548 H   0  0  0  0  0  0  0  0  0  0  0  0
   -7.3923   -0.7533   -1.9468 H   0  0  0  0  0  0  0  0  0  0  0  0
   -5.1518   -1.5637    1.0530 H   0  0  0  0  0  0  0  0  0  0  0  0
   -6.1019   -2.3354   -0.1942 H   0  0  0  0  0  0  0  0  0  0  0  0
   -9.4059    0.1516   -0.8735 H   0  0  0  0  0  0  0  0  0  0  0  0
   -8.4456    0.9440    0.3731 H   0  0  0  0  0  0  0  0  0  0  0  0
   -7.1587   -0.6304    2.1172 H   0  0  0  0  0  0  0  0  0  0  0  0
   -7.3447   -2.3717    1.9220 H   0  0  0  0  0  0  0  0  0  0  0  0
   -9.4134   -1.1166    1.2839 H   0  0  0  0  0  0  0  0  0  0  0  0
   -8.7658   -2.0668   -0.0513 H   0  0  0  0  0  0  0  0  0  0  0  0
    2.5436   -5.6296    0.2859 H   0  0  0  0  0  0  0  0  0  0  0  0
    2.9532   -4.6973    1.7354 H   0  0  0  0  0  0  0  0  0  0  0  0
    1.8759   -4.0001    0.4766 H   0  0  0  0  0  0  0  0  0  0  0  0
   -0.4871    0.4771   -1.8790 H   0  0  0  0  0  0  0  0  0  0  0  0
   -2.4480    1.4890    1.8317 H   0  0  0  0  0  0  0  0  0  0  0  0
   -2.6590   -0.3386   -2.7057 H   0  0  0  0  0  0  0  0  0  0  0  0
  1  7  1  0  0  0  0
  1 18  1  0  0  0  0
  2 20  1  0  0  0  0
  2 29  1  0  0  0  0
  3 19  2  0  0  0  0
  4  9  1  0  0  0  0
  4 10  1  0  0  0  0
  4 11  1  0  0  0  0
  5 16  1  0  0  0  0
  5 17  1  0  0  0  0
  5 19  1  0  0  0  0
  6 18  2  0  0  0  0
  6 26  1  0  0  0  0
  7 26  2  0  0  0  0
  8 29  2  0  0  0  0
  8 31  1  0  0  0  0
  9 13  1  0  0  0  0
  9 14  1  0  0  0  0
  9 33  1  0  0  0  0
 10 12  1  0  0  0  0
 10 18  1  0  0  0  0
 10 34  1  0  0  0  0
 11 15  1  0  0  0  0
 11 35  1  0  0  0  0
 11 36  1  0  0  0  0
 12 15  1  0  0  0  0
 12 37  1  0  0  0  0
 12 38  1  0  0  0  0
 13 16  1  0  0  0  0
 13 39  1  0  0  0  0
 13 40  1  0  0  0  0
 14 17  1  0  0  0  0
 14 41  1  0  0  0  0
 14 42  1  0  0  0  0
 15 43  1  0  0  0  0
 15 44  1  0  0  0  0
 16 45  1  0  0  0  0
 16 46  1  0  0  0  0
 17 47  1  0  0  0  0
 17 48  1  0  0  0  0
 19 27  1  0  0  0  0
 20 21  1  0  0  0  0
 20 22  1  0  0  0  0
 20 49  1  0  0  0  0
 21 23  1  0  0  0  0
 21 50  1  0  0  0  0
 21 51  1  0  0  0  0
 22 24  1  0  0  0  0
 22 52  1  0  0  0  0
 22 53  1  0  0  0  0
 23 25  1  0  0  0  0
 23 54  1  0  0  0  0
 23 55  1  0  0  0  0
 24 25  1  0  0  0  0
 24 56  1  0  0  0  0
 24 57  1  0  0  0  0
 25 58  1  0  0  0  0
 25 59  1  0  0  0  0
 26 28  1  0  0  0  0
 27 60  1  0  0  0  0
 27 61  1  0  0  0  0
 27 62  1  0  0  0  0
 28 30  1  0  0  0  0
 28 31  2  0  0  0  0
 29 32  1  0  0  0  0
 30 32  2  0  0  0  0
 30 63  1  0  0  0  0
 31 64  1  0  0  0  0
 32 65  1  0  0  0  0
M  END
> <PUBCHEM_COMPOUND_CID>
45783575

> <PUBCHEM_CONFORMER_RMSD>
1

> <PUBCHEM_CONFORMER_DIVERSEORDER>
1
161
190
11
204
157
57
69
167
27
199
107
43
191
132
164
144
162
206
118
93
102
108
198
202
39
133
195
142
200
149
58
124
192
120
175
121
159
180
6
100
8
41
168
98
171
26
94
96
117
48
44
140
66
207
51
188
151
128
194
150
112
76
88
99
125
186
189
155
42
129
7
154
104
156
54
174
21
45
89
38
177
34
176
114
62
172
49
101
203
61
138
119
153
56
187
73
182
178
17
123
3
92
53
105
71
152
145
126
87
135
181
146
37
5
90
83
193
196
183
148
131
115
13
179
137
111
18
130
32
23
147
52
166
2
173
103
97
95
184
29
60
106
197
24
113
59
72
64
201
74
160
158
28
141
40
205
19
170
91
36
77
46
163
85
80
79
127
82
81
122
15
68
134
14
75
50
165
110
185
84
116
25
169
143
4
139
9
78
86
30
35
12
109
63
16
136
55
20
70
65
67
31
22
47
10
33

> <PUBCHEM_MMFF94_PARTIAL_CHARGES>
26
1 -0.02
10 0.45
11 0.27
16 0.3
17 0.3
18 0.3
19 0.57
2 -0.36
20 0.28
26 0.46
27 0.06
28 0.05
29 0.39
3 -0.57
30 -0.15
31 0.16
32 -0.15
4 -0.81
5 -0.66
6 -0.57
63 0.15
64 0.15
65 0.15
7 -0.41
8 -0.62
9 0.27

> <PUBCHEM_EFFECTIVE_ROTOR_COUNT>
9.4

> <PUBCHEM_PHARMACOPHORE_FEATURES>
8
1 3 acceptor
1 4 cation
3 6 7 26 cation
5 1 6 7 18 26 rings
5 4 10 11 12 15 rings
6 20 21 22 23 24 25 rings
6 5 9 13 14 16 17 rings
6 8 28 29 30 31 32 rings

> <PUBCHEM_HEAVY_ATOM_COUNT>
32

> <PUBCHEM_ATOM_DEF_STEREO_COUNT>
1

> <PUBCHEM_ATOM_UDEF_STEREO_COUNT>
0

> <PUBCHEM_BOND_DEF_STEREO_COUNT>
0

> <PUBCHEM_BOND_UDEF_STEREO_COUNT>
0

> <PUBCHEM_ISOTOPIC_ATOM_COUNT>
0

> <PUBCHEM_COMPONENT_COUNT>
1

> <PUBCHEM_CACTVS_TAUTO_COUNT>
1

> <PUBCHEM_CONFORMER_ID>
02BA9A1700000001

> <PUBCHEM_MMFF94_ENERGY>
58.2572

> <PUBCHEM_FEATURE_SELFOVERLAP>
40.599

> <PUBCHEM_SHAPE_FINGERPRINT>
10319688 140 18410012126652882282
10622 236 18126843803013651362
11103572 155 18337675313018716227
11181472 205 18410579462280135493
11227150 75 16664564742373257098
11409948 35 18338514150359634199
117089 54 17983584000667717566
12107183 9 17983303620828110977
13008946 62 17246984099831480916
13533116 47 18413666924546116793
13617811 41 15719108055174964447
13782708 43 18260824878806200095
14114211 68 18263378022120420348
14118638 360 18343588455633751281
14675020 138 18198047266097213432
15183329 4 17417817287935062421
15328684 2 17346332462224832251
15352257 5 18259984916437032507
15467298 65 18056744637160581799
15475509 35 18273207603873786024
15483637 11 18049160269743513242
15927050 60 18196932386728591095
17134984 74 18408326601218397326
17324776 126 17246376800172803650
19319366 153 18270676597432959028
21304303 94 18335136510050879954
22033318 11 17844551962737483913
23522609 53 17986418726739044737
25269216 80 15575576776593369603
255183 451 18127417748569290718
345986 75 17704070659863225576
34797466 226 17168423861024907693
3534868 343 18336838553851366924
4073 2 18195243553952438481
4093350 32 17895757433880415156
4112364 45 8790592681484538262
4144715 1 18040716987811667845
437795 51 18333733541793592691
44344687 77 18263094245010175227
4435113 14 18114755931419532251
45270241 37 18262525900066380357
46194498 28 18040709264922068524
54039377 194 18200880578654606462
6441014 3 17546161901129031394
70251023 43 18336827494610603616
9831232 110 18261948549292914583

> <PUBCHEM_SHAPE_MULTIPOLES>
616.03
21.58
4.95
1.42
49.03
5.06
0.07
8.66
-2.33
-13.43
0.12
0.35
-0.35
0.33

> <PUBCHEM_SHAPE_SELFOVERLAP>
1311.933

> <PUBCHEM_SHAPE_VOLUME>
340.1

> <PUBCHEM_COORDINATE_TYPE>
2
5
10

$$$$
