45360777
  -OEChem-12032416293D

 69 72  0     1  0  0  0  0  0999 V2000
    0.7285    5.0808    0.8054 O   0  0  0  0  0  0  0  0  0  0  0  0
   -4.5136   -0.4225   -2.3870 O   0  0  0  0  0  0  0  0  0  0  0  0
   -8.4155   -2.9314    1.5442 O   0  0  0  0  0  0  0  0  0  0  0  0
   -1.0815    1.9639    0.2293 N   0  0  1  0  0  0  0  0  0  0  0  0
   -0.8009    4.5608   -0.7955 N   0  0  0  0  0  0  0  0  0  0  0  0
    2.1819    0.3893    0.1489 N   0  0  0  0  0  0  0  0  0  0  0  0
   -4.9990   -1.5827   -0.4335 N   0  0  0  0  0  0  0  0  0  0  0  0
    8.0222   -2.1081   -0.5763 N   0  0  0  0  0  0  0  0  0  0  0  0
   -0.3251    2.9357    1.0292 C   0  0  1  0  0  0  0  0  0  0  0  0
   -2.1737    2.5433   -0.5446 C   0  0  1  0  0  0  0  0  0  0  0  0
    0.8998    0.8771    0.6311 C   0  0  1  0  0  0  0  0  0  0  0  0
    1.0009    2.2258    1.3445 C   0  0  0  0  0  0  0  0  0  0  0  0
   -0.1073    1.1382   -0.4806 C   0  0  0  0  0  0  0  0  0  0  0  0
   -1.6582    3.6231   -1.4831 C   0  0  0  0  0  0  0  0  0  0  0  0
   -2.9826    1.4935   -1.3074 C   0  0  0  0  0  0  0  0  0  0  0  0
   -0.0696    4.2676    0.3298 C   0  0  0  0  0  0  0  0  0  0  0  0
   -3.5735    0.4344   -0.3883 C   0  0  0  0  0  0  0  0  0  0  0  0
    2.9513   -0.2157    1.2289 C   0  0  0  0  0  0  0  0  0  0  0  0
   -4.4010   -0.5576   -1.1659 C   0  0  0  0  0  0  0  0  0  0  0  0
   -5.7805   -2.6115   -1.1243 C   0  0  0  0  0  0  0  0  0  0  0  0
   -4.8827   -1.7682    1.0190 C   0  0  0  0  0  0  0  0  0  0  0  0
   -7.1753   -2.7331   -0.5201 C   0  0  0  0  0  0  0  0  0  0  0  0
   -6.2622   -1.8767    1.6622 C   0  0  0  0  0  0  0  0  0  0  0  0
   -7.1053   -2.9608    0.9907 C   0  0  0  0  0  0  0  0  0  0  0  0
    4.2894   -0.7150    0.7526 C   0  0  0  0  0  0  0  0  0  0  0  0
    4.3718   -1.9010    0.0227 C   0  0  0  0  0  0  0  0  0  0  0  0
    5.4467    0.0083    1.0408 C   0  0  0  0  0  0  0  0  0  0  0  0
    5.6114   -2.3637   -0.4186 C   0  0  0  0  0  0  0  0  0  0  0  0
    6.6865   -0.4543    0.5995 C   0  0  0  0  0  0  0  0  0  0  0  0
    6.7688   -1.6403   -0.1302 C   0  0  0  0  0  0  0  0  0  0  0  0
    9.2298   -1.3599   -0.2885 C   0  0  0  0  0  0  0  0  0  0  0  0
    8.1185   -3.3392   -1.3351 C   0  0  0  0  0  0  0  0  0  0  0  0
   -0.8734    3.1562    1.9526 H   0  0  0  0  0  0  0  0  0  0  0  0
   -2.8579    3.0202    0.1720 H   0  0  0  0  0  0  0  0  0  0  0  0
    0.4492    0.1410    1.3142 H   0  0  0  0  0  0  0  0  0  0  0  0
    1.1270    2.0772    2.4231 H   0  0  0  0  0  0  0  0  0  0  0  0
    1.8660    2.7961    0.9845 H   0  0  0  0  0  0  0  0  0  0  0  0
    0.3575    1.6708   -1.3191 H   0  0  0  0  0  0  0  0  0  0  0  0
   -0.5293    0.1985   -0.8505 H   0  0  0  0  0  0  0  0  0  0  0  0
   -2.4875    4.1966   -1.9113 H   0  0  0  0  0  0  0  0  0  0  0  0
   -1.0800    3.2073   -2.3156 H   0  0  0  0  0  0  0  0  0  0  0  0
   -3.7975    2.0023   -1.8406 H   0  0  0  0  0  0  0  0  0  0  0  0
   -2.3681    1.0211   -2.0848 H   0  0  0  0  0  0  0  0  0  0  0  0
   -0.6371    5.4591   -1.2396 H   0  0  0  0  0  0  0  0  0  0  0  0
    2.0199   -0.3108   -0.5755 H   0  0  0  0  0  0  0  0  0  0  0  0
   -4.2155    0.9190    0.3559 H   0  0  0  0  0  0  0  0  0  0  0  0
   -2.7791   -0.1151    0.1270 H   0  0  0  0  0  0  0  0  0  0  0  0
    3.1072    0.5064    2.0402 H   0  0  0  0  0  0  0  0  0  0  0  0
    2.4060   -1.0610    1.6697 H   0  0  0  0  0  0  0  0  0  0  0  0
   -5.8587   -2.3903   -2.1934 H   0  0  0  0  0  0  0  0  0  0  0  0
   -5.2353   -3.5576   -1.0246 H   0  0  0  0  0  0  0  0  0  0  0  0
   -4.3133   -2.6912    1.1810 H   0  0  0  0  0  0  0  0  0  0  0  0
   -4.3263   -0.9599    1.4959 H   0  0  0  0  0  0  0  0  0  0  0  0
   -7.7519   -1.8214   -0.7249 H   0  0  0  0  0  0  0  0  0  0  0  0
   -7.7258   -3.5520   -0.9978 H   0  0  0  0  0  0  0  0  0  0  0  0
   -6.7827   -0.9125    1.5905 H   0  0  0  0  0  0  0  0  0  0  0  0
   -6.1664   -2.0885    2.7336 H   0  0  0  0  0  0  0  0  0  0  0  0
   -6.6724   -3.9458    1.2020 H   0  0  0  0  0  0  0  0  0  0  0  0
    3.4769   -2.4735   -0.2069 H   0  0  0  0  0  0  0  0  0  0  0  0
    5.3967    0.9350    1.6064 H   0  0  0  0  0  0  0  0  0  0  0  0
   -8.9360   -3.6229    1.1009 H   0  0  0  0  0  0  0  0  0  0  0  0
    5.6226   -3.2912   -0.9823 H   0  0  0  0  0  0  0  0  0  0  0  0
    7.5568    0.1444    0.8491 H   0  0  0  0  0  0  0  0  0  0  0  0
   10.1182   -1.8501   -0.7023 H   0  0  0  0  0  0  0  0  0  0  0  0
    9.3957   -1.2761    0.7914 H   0  0  0  0  0  0  0  0  0  0  0  0
    9.1910   -0.3592   -0.7332 H   0  0  0  0  0  0  0  0  0  0  0  0
    9.1554   -3.5682   -1.6053 H   0  0  0  0  0  0  0  0  0  0  0  0
    7.5601   -3.2694   -2.2753 H   0  0  0  0  0  0  0  0  0  0  0  0
    7.7534   -4.1928   -0.7531 H   0  0  0  0  0  0  0  0  0  0  0  0
  1 16  2  0  0  0  0
  2 19  2  0  0  0  0
  3 24  1  0  0  0  0
  3 61  1  0  0  0  0
  4  9  1  0  0  0  0
  4 10  1  0  0  0  0
  4 13  1  0  0  0  0
  5 14  1  0  0  0  0
  5 16  1  0  0  0  0
  5 44  1  0  0  0  0
  6 11  1  0  0  0  0
  6 18  1  0  0  0  0
  6 45  1  0  0  0  0
  7 19  1  0  0  0  0
  7 20  1  0  0  0  0
  7 21  1  0  0  0  0
  8 30  1  0  0  0  0
  8 31  1  0  0  0  0
  8 32  1  0  0  0  0
  9 12  1  0  0  0  0
  9 16  1  0  0  0  0
  9 33  1  0  0  0  0
 10 14  1  0  0  0  0
 10 15  1  0  0  0  0
 10 34  1  0  0  0  0
 11 12  1  0  0  0  0
 11 13  1  0  0  0  0
 11 35  1  0  0  0  0
 12 36  1  0  0  0  0
 12 37  1  0  0  0  0
 13 38  1  0  0  0  0
 13 39  1  0  0  0  0
 14 40  1  0  0  0  0
 14 41  1  0  0  0  0
 15 17  1  0  0  0  0
 15 42  1  0  0  0  0
 15 43  1  0  0  0  0
 17 19  1  0  0  0  0
 17 46  1  0  0  0  0
 17 47  1  0  0  0  0
 18 25  1  0  0  0  0
 18 48  1  0  0  0  0
 18 49  1  0  0  0  0
 20 22  1  0  0  0  0
 20 50  1  0  0  0  0
 20 51  1  0  0  0  0
 21 23  1  0  0  0  0
 21 52  1  0  0  0  0
 21 53  1  0  0  0  0
 22 24  1  0  0  0  0
 22 54  1  0  0  0  0
 22 55  1  0  0  0  0
 23 24  1  0  0  0  0
 23 56  1  0  0  0  0
 23 57  1  0  0  0  0
 24 58  1  0  0  0  0
 25 26  2  0  0  0  0
 25 27  1  0  0  0  0
 26 28  1  0  0  0  0
 26 59  1  0  0  0  0
 27 29  2  0  0  0  0
 27 60  1  0  0  0  0
 28 30  2  0  0  0  0
 28 62  1  0  0  0  0
 29 30  1  0  0  0  0
 29 63  1  0  0  0  0
 31 64  1  0  0  0  0
 31 65  1  0  0  0  0
 31 66  1  0  0  0  0
 32 67  1  0  0  0  0
 32 68  1  0  0  0  0
 32 69  1  0  0  0  0
M  END
> <PUBCHEM_COMPOUND_CID>
45360777

> <PUBCHEM_CONFORMER_RMSD>
1

> <PUBCHEM_CONFORMER_DIVERSEORDER>
1
140
121
57
174
74
214
83
161
274
247
72
238
123
10
142
153
93
118
231
120
35
258
64
236
85
39
21
168
172
218
267
131
251
207
111
127
163
209
103
245
242
249
271
151
234
260
69
53
42
116
186
20
166
158
28
254
171
128
114
184
195
134
97
182
221
104
162
146
241
26
61
112
98
145
204
152
132
88
191
4
279
220
203
237
239
22
232
193
29
217
243
284
40
108
94
278
205
216
194
110
155
228
266
277
259
200
240
248
58
189
75
196
139
107
233
66
130
119
30
265
283
24
156
113
37
33
229
276
272
49
8
244
11
183
31
129
76
187
78
206
250
106
268
55
150
159
23
224
179
87
148
177
92
115
262
222
86
185
175
79
81
164
68
256
223
154
253
176
190
44
137
122
34
225
138
199
144
105
280
282
109
198
59
18
169
173
147
12
143
82
257
2
124
19
15
27
226
269
5
60
188
252
70
84
235
136
73
80
36
51
281
201
270
149
90
56
99
32
9
71
3
157
89
192
125
54
48
227
197
50
230
215
263
212
202
261
165
178
264
117
208
41
77
246
6
255
46
14
275
101
45
62
91
65
38
273
213
47
16
170
95
102
219
63
133
17
167
96
126
181
211
160
141
210
180
43
135
25
7
52
100
13
67

> <PUBCHEM_MMFF94_PARTIAL_CHARGES>
35
1 -0.57
10 0.27
11 0.27
13 0.27
14 0.3
16 0.57
17 0.06
18 0.41
19 0.57
2 -0.57
20 0.3
21 0.3
24 0.28
25 -0.14
26 -0.15
27 -0.15
28 -0.15
29 -0.15
3 -0.68
30 0.1
31 0.37
32 0.37
4 -0.81
44 0.37
45 0.36
5 -0.73
59 0.15
6 -0.9
60 0.15
61 0.4
62 0.15
63 0.15
7 -0.66
8 -0.84
9 0.33

> <PUBCHEM_EFFECTIVE_ROTOR_COUNT>
10.4

> <PUBCHEM_PHARMACOPHORE_FEATURES>
13
1 1 acceptor
1 2 acceptor
1 3 acceptor
1 3 donor
1 4 cation
1 5 donor
1 6 cation
1 6 donor
1 8 cation
5 4 9 11 12 13 rings
6 25 26 27 28 29 30 rings
6 4 5 9 10 14 16 rings
6 7 20 21 22 23 24 rings

> <PUBCHEM_HEAVY_ATOM_COUNT>
32

> <PUBCHEM_ATOM_DEF_STEREO_COUNT>
3

> <PUBCHEM_ATOM_UDEF_STEREO_COUNT>
0

> <PUBCHEM_BOND_DEF_STEREO_COUNT>
0

> <PUBCHEM_BOND_UDEF_STEREO_COUNT>
0

> <PUBCHEM_ISOTOPIC_ATOM_COUNT>
0

> <PUBCHEM_COMPONENT_COUNT>
1

> <PUBCHEM_CACTVS_TAUTO_COUNT>
3

> <PUBCHEM_CONFORMER_ID>
02B4268900000001

> <PUBCHEM_MMFF94_ENERGY>
82.538

> <PUBCHEM_FEATURE_SELFOVERLAP>
66.16

> <PUBCHEM_SHAPE_FINGERPRINT>
10076449 9 18413111675886126538
10319688 140 18192431002982357877
11059845 2 17773897341552698233
11607047 191 16985201033531147025
11621639 307 12108325029413112815
117089 54 18410575101842954599
11973864 196 17532672307491062404
12106331 60 18338787919426583214
12107183 9 18341901788676579665
1361 87 17677326247247669531
13631057 29 18261392217862698850
13673619 4 18131067134787297074
13690498 29 18334568023657864541
13782708 43 18200589178224843170
14950920 106 15194417863225181671
15064981 194 18267594498900817052
15324884 4 17911478165303724848
15351339 4 17895463744064168482
15467298 65 17900533472332598930
15773216 30 18119255206004175364
16067689 302 18339080501626531940
16992779 147 16126947811838403394
17686467 74 18410567384979389520
19246450 95 17774735178023992587
20505436 4 17391638770090886744
21133410 32 15430903014682170953
21307412 95 18339906136011408837
21344244 246 18187650266996918044
21365058 113 18041278880870442053
21716022 299 18041573558076110853
22149856 69 18131354111606564794
22899556 105 18337407019106642876
25269216 80 16081084892821741035
255183 451 18336541728771458861
2747138 104 18341887481623135906
3552219 110 17703516566823627736
393628 194 8358259280536723023
397638 26 10592043561808688134
4112364 45 12175358967454626941
4330586 98 16878801528642816307
437795 150 18338235947372705966
437815 12 18335420205757856035
5372103 7 9511192824242336171
54039377 194 18409452500540165030
6201320 77 17417818284013703142
636775 8 18342181030054174270
6673363 416 18412833470091970700
999808 66 18272649034766323118

> <PUBCHEM_SHAPE_MULTIPOLES>
616.03
25.18
5.95
1.54
21.84
6.73
-0.17
-41.99
-0.68
-4.47
-0.22
-1.82
-0.18
3.88

> <PUBCHEM_SHAPE_SELFOVERLAP>
1286.245

> <PUBCHEM_SHAPE_VOLUME>
349.3

> <PUBCHEM_COORDINATE_TYPE>
2
5
10

$$$$
