7049381
  -OEChem-12032416363D

 59 61  0     1  0  0  0  0  0999 V2000
   -2.9019    3.6379    2.2699 S   0  0  0  0  0  0  0  0  0  0  0  0
    3.8557   -0.4758    2.4643 F   0  0  0  0  0  0  0  0  0  0  0  0
    8.0605   -1.1396    0.4004 F   0  0  0  0  0  0  0  0  0  0  0  0
   -1.3146   -0.1335    0.5956 O   0  0  0  0  0  0  0  0  0  0  0  0
   -2.7356   -4.0170    1.6746 O   0  0  0  0  0  0  0  0  0  0  0  0
   -4.3942    1.5279    0.1493 O   0  0  0  0  0  0  0  0  0  0  0  0
   -3.8172   -2.0288    1.2121 O   0  0  0  0  0  0  0  0  0  0  0  0
    2.6401    1.4135   -2.0785 O   0  0  0  0  0  0  0  0  0  0  0  0
   -2.2843    2.0276   -0.6606 N   0  0  0  0  0  0  0  0  0  0  0  0
   -2.3189   -1.5719   -0.9139 N   0  0  0  0  0  0  0  0  0  0  0  0
    0.8353    1.5145   -0.6366 N   0  0  0  0  0  0  0  0  0  0  0  0
    2.8145    0.6303    0.1277 N   0  0  0  0  0  0  0  0  0  0  0  0
   -2.1147    0.8050   -1.4319 C   0  0  1  0  0  0  0  0  0  0  0  0
   -0.9014    1.0624   -2.3229 C   0  0  0  0  0  0  0  0  0  0  0  0
   -0.0894    2.1158   -1.5646 C   0  0  1  0  0  0  0  0  0  0  0  0
   -1.1559    2.9392   -0.8493 C   0  0  0  0  0  0  0  0  0  0  0  0
   -2.0220   -2.8031   -0.1937 C   0  0  2  0  0  0  0  0  0  0  0  0
   -1.8709   -0.3320   -0.4857 C   0  0  0  0  0  0  0  0  0  0  0  0
   -2.9820   -1.8518   -2.1851 C   0  0  0  0  0  0  0  0  0  0  0  0
   -2.2763   -3.9145   -1.2055 C   0  0  0  0  0  0  0  0  0  0  0  0
   -3.3507   -3.3260   -2.1167 C   0  0  0  0  0  0  0  0  0  0  0  0
   -3.4624    2.3219    0.0090 C   0  0  0  0  0  0  0  0  0  0  0  0
   -2.9707   -2.8770    0.9646 C   0  0  0  0  0  0  0  0  0  0  0  0
   -3.5498    3.7091    0.5937 C   0  0  0  0  0  0  0  0  0  0  0  0
    2.1599    1.2007   -0.9677 C   0  0  0  0  0  0  0  0  0  0  0  0
   -3.5760   -4.2149    2.8159 C   0  0  0  0  0  0  0  0  0  0  0  0
    4.1529    0.1789    0.2005 C   0  0  0  0  0  0  0  0  0  0  0  0
   -3.1155    5.3763    2.7263 C   0  0  0  0  0  0  0  0  0  0  0  0
    4.6437   -0.3707    1.3849 C   0  0  0  0  0  0  0  0  0  0  0  0
    4.9822    0.2835   -0.9162 C   0  0  0  0  0  0  0  0  0  0  0  0
    5.9639   -0.8157    1.4525 C   0  0  0  0  0  0  0  0  0  0  0  0
    6.3024   -0.1615   -0.8484 C   0  0  0  0  0  0  0  0  0  0  0  0
    6.7933   -0.7110    0.3360 C   0  0  0  0  0  0  0  0  0  0  0  0
   -3.0223    0.6621   -2.0210 H   0  0  0  0  0  0  0  0  0  0  0  0
   -1.2447    1.4967   -3.2706 H   0  0  0  0  0  0  0  0  0  0  0  0
   -0.3290    0.1581   -2.5551 H   0  0  0  0  0  0  0  0  0  0  0  0
    0.4860    2.7405   -2.2565 H   0  0  0  0  0  0  0  0  0  0  0  0
   -1.5011    3.7526   -1.4976 H   0  0  0  0  0  0  0  0  0  0  0  0
   -0.8200    3.3575    0.1030 H   0  0  0  0  0  0  0  0  0  0  0  0
   -0.9948   -2.7803    0.1845 H   0  0  0  0  0  0  0  0  0  0  0  0
   -2.2715   -1.6518   -2.9939 H   0  0  0  0  0  0  0  0  0  0  0  0
   -3.8686   -1.2259   -2.3147 H   0  0  0  0  0  0  0  0  0  0  0  0
   -2.5871   -4.8670   -0.7670 H   0  0  0  0  0  0  0  0  0  0  0  0
   -1.3664   -4.0917   -1.7923 H   0  0  0  0  0  0  0  0  0  0  0  0
   -4.3367   -3.4456   -1.6516 H   0  0  0  0  0  0  0  0  0  0  0  0
   -3.3803   -3.7984   -3.1024 H   0  0  0  0  0  0  0  0  0  0  0  0
    0.4949    1.2510    0.2832 H   0  0  0  0  0  0  0  0  0  0  0  0
   -3.0209    4.4506   -0.0079 H   0  0  0  0  0  0  0  0  0  0  0  0
   -4.6054    4.0002    0.6188 H   0  0  0  0  0  0  0  0  0  0  0  0
    2.2716    0.5221    0.9809 H   0  0  0  0  0  0  0  0  0  0  0  0
   -3.2862   -5.1551    3.2926 H   0  0  0  0  0  0  0  0  0  0  0  0
   -4.6232   -4.2859    2.5068 H   0  0  0  0  0  0  0  0  0  0  0  0
   -3.4386   -3.4002    3.5332 H   0  0  0  0  0  0  0  0  0  0  0  0
   -2.7659    5.5250    3.7513 H   0  0  0  0  0  0  0  0  0  0  0  0
   -4.1709    5.6560    2.6744 H   0  0  0  0  0  0  0  0  0  0  0  0
   -2.5305    6.0180    2.0624 H   0  0  0  0  0  0  0  0  0  0  0  0
    4.6770    0.6963   -1.8670 H   0  0  0  0  0  0  0  0  0  0  0  0
    6.3461   -1.2438    2.3745 H   0  0  0  0  0  0  0  0  0  0  0  0
    6.9495   -0.0811   -1.7169 H   0  0  0  0  0  0  0  0  0  0  0  0
  1 24  1  0  0  0  0
  1 28  1  0  0  0  0
  2 29  1  0  0  0  0
  3 33  1  0  0  0  0
  4 18  2  0  0  0  0
  5 23  1  0  0  0  0
  5 26  1  0  0  0  0
  6 22  2  0  0  0  0
  7 23  2  0  0  0  0
  8 25  2  0  0  0  0
  9 13  1  0  0  0  0
  9 16  1  0  0  0  0
  9 22  1  0  0  0  0
 10 17  1  0  0  0  0
 10 18  1  0  0  0  0
 10 19  1  0  0  0  0
 11 15  1  0  0  0  0
 11 25  1  0  0  0  0
 11 47  1  0  0  0  0
 12 25  1  0  0  0  0
 12 27  1  0  0  0  0
 12 50  1  0  0  0  0
 13 14  1  0  0  0  0
 13 18  1  0  0  0  0
 13 34  1  0  0  0  0
 14 15  1  0  0  0  0
 14 35  1  0  0  0  0
 14 36  1  0  0  0  0
 15 16  1  0  0  0  0
 15 37  1  0  0  0  0
 16 38  1  0  0  0  0
 16 39  1  0  0  0  0
 17 20  1  0  0  0  0
 17 23  1  0  0  0  0
 17 40  1  0  0  0  0
 19 21  1  0  0  0  0
 19 41  1  0  0  0  0
 19 42  1  0  0  0  0
 20 21  1  0  0  0  0
 20 43  1  0  0  0  0
 20 44  1  0  0  0  0
 21 45  1  0  0  0  0
 21 46  1  0  0  0  0
 22 24  1  0  0  0  0
 24 48  1  0  0  0  0
 24 49  1  0  0  0  0
 26 51  1  0  0  0  0
 26 52  1  0  0  0  0
 26 53  1  0  0  0  0
 27 29  2  0  0  0  0
 27 30  1  0  0  0  0
 28 54  1  0  0  0  0
 28 55  1  0  0  0  0
 28 56  1  0  0  0  0
 29 31  1  0  0  0  0
 30 32  2  0  0  0  0
 30 57  1  0  0  0  0
 31 33  2  0  0  0  0
 31 58  1  0  0  0  0
 32 33  1  0  0  0  0
 32 59  1  0  0  0  0
M  END
> <PUBCHEM_COMPOUND_CID>
7049381

> <PUBCHEM_CONFORMER_RMSD>
1.2

> <PUBCHEM_CONFORMER_DIVERSEORDER>
1
6
51
25
62
64
43
47
19
45
26
52
28
14
38
67
10
15
61
57
53
23
48
29
60
31
54
16
56
50
41
65
34
58
68
27
32
9
37
30
49
33
63
46
11
42
35
55
40
22
39
13
3
7
66
8
18
2
12
44
5
20
36
24
59
21
17
4

> <PUBCHEM_MMFF94_PARTIAL_CHARGES>
35
1 -0.46
10 -0.66
11 -0.73
12 -0.55
13 0.36
15 0.3
16 0.3
17 0.36
18 0.57
19 0.3
2 -0.19
22 0.57
23 0.66
24 0.29
25 0.69
26 0.28
27 0.12
28 0.23
29 0.19
3 -0.19
30 -0.15
31 -0.15
32 -0.15
33 0.19
4 -0.57
47 0.37
5 -0.43
50 0.37
57 0.15
58 0.15
59 0.15
6 -0.57
7 -0.57
8 -0.57
9 -0.66

> <PUBCHEM_EFFECTIVE_ROTOR_COUNT>
13

> <PUBCHEM_PHARMACOPHORE_FEATURES>
10
1 11 donor
1 12 donor
1 28 hydrophobe
1 4 acceptor
1 6 acceptor
1 7 acceptor
1 8 acceptor
5 10 17 19 20 21 rings
5 9 13 14 15 16 rings
6 27 29 30 31 32 33 rings

> <PUBCHEM_HEAVY_ATOM_COUNT>
33

> <PUBCHEM_ATOM_DEF_STEREO_COUNT>
3

> <PUBCHEM_ATOM_UDEF_STEREO_COUNT>
0

> <PUBCHEM_BOND_DEF_STEREO_COUNT>
0

> <PUBCHEM_BOND_UDEF_STEREO_COUNT>
0

> <PUBCHEM_ISOTOPIC_ATOM_COUNT>
0

> <PUBCHEM_COMPONENT_COUNT>
1

> <PUBCHEM_CACTVS_TAUTO_COUNT>
3

> <PUBCHEM_CONFORMER_ID>
006B90A500000001

> <PUBCHEM_MMFF94_ENERGY>
82.2674

> <PUBCHEM_FEATURE_SELFOVERLAP>
50.798

> <PUBCHEM_SHAPE_FINGERPRINT>
10074138 170 18342465802716675929
10305334 12 18113902615627223691
10816530 145 18340762638216172352
11552529 35 18342447175706679076
12160290 23 18339936965165314117
12717326 25 17984439438262592114
12788726 201 18195828451241659093
12988421 55 17981609269115104109
14068700 675 18268977859925022847
14705955 166 17846501383267047393
14844126 61 18342452673090881111
14856354 85 18410295775152122724
14866123 147 18260553342215228395
15444296 121 18200881682414261048
15484559 13 14430745109144628588
15537594 2 17531807949053167064
20775530 9 17896871243754388622
21795232 338 18412829118714384960
3383291 50 18343577456712675359
345986 75 18048053044843953899
376196 1 16842481129204175533
4073 2 18201152171233029694
4616759 239 18058428973267602120
484985 159 17967530199009627307
508706 21 18342739624489011574
5104073 3 18409443709649399832
5486654 36 18334575776036910372
5912855 24 18116448101114903012
613672 6 17827334877165815330
79837 15 18267321841359349449
9896288 288 18128822945867280377
9981440 41 17131267948370051581

> <PUBCHEM_SHAPE_MULTIPOLES>
619.16
13.79
6.28
2.66
36.68
0.82
0.97
-3.35
4.99
-14.63
4.11
-1.97
-0.41
-1.92

> <PUBCHEM_SHAPE_SELFOVERLAP>
1289.879

> <PUBCHEM_SHAPE_VOLUME>
354.9

> <PUBCHEM_COORDINATE_TYPE>
2
5
10

$$$$
