51138067
  -OEChem-12032416143D

 56 58  0     1  0  0  0  0  0999 V2000
   -2.8208   -2.4697    1.1078 O   0  0  0  0  0  0  0  0  0  0  0  0
   -1.6406    0.2969    0.4455 N   0  0  0  0  0  0  0  0  0  0  0  0
    3.3012   -0.6087    0.9577 N   0  0  0  0  0  0  0  0  0  0  0  0
   -3.2955   -1.7966   -1.0696 N   0  0  0  0  0  0  0  0  0  0  0  0
   -0.9601    1.3948   -0.2542 C   0  0  2  0  0  0  0  0  0  0  0  0
    0.5620    1.4520   -0.0895 C   0  0  0  0  0  0  0  0  0  0  0  0
   -1.2829   -1.0353   -0.0201 C   0  0  1  0  0  0  0  0  0  0  0  0
    1.3773    0.3809    0.3778 C   0  0  0  0  0  0  0  0  0  0  0  0
   -1.6567    2.6705    0.2525 C   0  0  0  0  0  0  0  0  0  0  0  0
   -0.2056   -1.6666    0.8597 C   0  0  0  0  0  0  0  0  0  0  0  0
    1.1117   -0.9687    0.7973 C   0  0  0  0  0  0  0  0  0  0  0  0
   -3.0318    2.8945   -0.3843 C   0  0  0  0  0  0  0  0  0  0  0  0
    2.7627    0.5584    0.4696 C   0  0  0  0  0  0  0  0  0  0  0  0
    2.3194   -1.5346    1.1525 C   0  0  0  0  0  0  0  0  0  0  0  0
    1.2454    2.6251   -0.4996 C   0  0  0  0  0  0  0  0  0  0  0  0
   -2.5411   -1.8410    0.0905 C   0  0  0  0  0  0  0  0  0  0  0  0
    3.4124    1.7386    0.1044 C   0  0  0  0  0  0  0  0  0  0  0  0
    2.6276    2.7692   -0.3964 C   0  0  0  0  0  0  0  0  0  0  0  0
   -3.6205    4.2084    0.1351 C   0  0  0  0  0  0  0  0  0  0  0  0
   -4.0038    1.7471   -0.1061 C   0  0  0  0  0  0  0  0  0  0  0  0
    4.7057   -0.8459    1.2144 C   0  0  0  0  0  0  0  0  0  0  0  0
   -4.5434   -2.5075   -1.2288 C   0  0  0  0  0  0  0  0  0  0  0  0
    5.4592   -1.0848   -0.0233 C   0  0  0  0  0  0  0  0  0  0  0  0
   -5.6652   -1.6291   -0.7841 C   0  0  0  0  0  0  0  0  0  0  0  0
    6.0774   -1.2800   -1.0343 C   0  0  0  0  0  0  0  0  0  0  0  0
   -6.5224   -1.9508    0.1915 C   0  0  0  0  0  0  0  0  0  0  0  0
    6.8284   -1.5172   -2.2661 C   0  0  0  0  0  0  0  0  0  0  0  0
   -1.1472    1.3011   -1.3328 H   0  0  0  0  0  0  0  0  0  0  0  0
   -0.9550   -1.0299   -1.0683 H   0  0  0  0  0  0  0  0  0  0  0  0
   -1.7405    2.6529    1.3494 H   0  0  0  0  0  0  0  0  0  0  0  0
   -1.0700    3.5691    0.0412 H   0  0  0  0  0  0  0  0  0  0  0  0
   -0.5235   -1.6965    1.9115 H   0  0  0  0  0  0  0  0  0  0  0  0
   -0.0662   -2.7137    0.5570 H   0  0  0  0  0  0  0  0  0  0  0  0
   -1.5214    0.3791    1.4545 H   0  0  0  0  0  0  0  0  0  0  0  0
   -2.9137    2.9908   -1.4712 H   0  0  0  0  0  0  0  0  0  0  0  0
    2.5478   -2.5257    1.5223 H   0  0  0  0  0  0  0  0  0  0  0  0
    0.7019    3.4537   -0.9476 H   0  0  0  0  0  0  0  0  0  0  0  0
    4.4881    1.8538    0.1819 H   0  0  0  0  0  0  0  0  0  0  0  0
    3.0976    3.6938   -0.7209 H   0  0  0  0  0  0  0  0  0  0  0  0
   -3.7787    4.1730    1.2185 H   0  0  0  0  0  0  0  0  0  0  0  0
   -4.5845    4.4182   -0.3405 H   0  0  0  0  0  0  0  0  0  0  0  0
   -2.9547    5.0499   -0.0841 H   0  0  0  0  0  0  0  0  0  0  0  0
   -4.0193    1.4637    0.9511 H   0  0  0  0  0  0  0  0  0  0  0  0
   -3.7766    0.8793   -0.7264 H   0  0  0  0  0  0  0  0  0  0  0  0
   -5.0254    2.0411   -0.3752 H   0  0  0  0  0  0  0  0  0  0  0  0
    4.7882   -1.7090    1.8846 H   0  0  0  0  0  0  0  0  0  0  0  0
    5.0976    0.0204    1.7583 H   0  0  0  0  0  0  0  0  0  0  0  0
   -2.9802   -1.2242   -1.8475 H   0  0  0  0  0  0  0  0  0  0  0  0
   -4.6550   -2.7484   -2.2904 H   0  0  0  0  0  0  0  0  0  0  0  0
   -4.5020   -3.4437   -0.6619 H   0  0  0  0  0  0  0  0  0  0  0  0
   -5.8019   -0.6834   -1.3025 H   0  0  0  0  0  0  0  0  0  0  0  0
   -7.3252   -1.2738    0.4623 H   0  0  0  0  0  0  0  0  0  0  0  0
   -6.4393   -2.8858    0.7343 H   0  0  0  0  0  0  0  0  0  0  0  0
    7.8672   -1.7797   -2.0443 H   0  0  0  0  0  0  0  0  0  0  0  0
    6.3860   -2.3372   -2.8398 H   0  0  0  0  0  0  0  0  0  0  0  0
    6.8315   -0.6239   -2.8980 H   0  0  0  0  0  0  0  0  0  0  0  0
  1 16  2  0  0  0  0
  2  5  1  0  0  0  0
  2  7  1  0  0  0  0
  2 34  1  0  0  0  0
  3 13  1  0  0  0  0
  3 14  1  0  0  0  0
  3 21  1  0  0  0  0
  4 16  1  0  0  0  0
  4 22  1  0  0  0  0
  4 48  1  0  0  0  0
  5  6  1  0  0  0  0
  5  9  1  0  0  0  0
  5 28  1  0  0  0  0
  6  8  2  0  0  0  0
  6 15  1  0  0  0  0
  7 10  1  0  0  0  0
  7 16  1  0  0  0  0
  7 29  1  0  0  0  0
  8 11  1  0  0  0  0
  8 13  1  0  0  0  0
  9 12  1  0  0  0  0
  9 30  1  0  0  0  0
  9 31  1  0  0  0  0
 10 11  1  0  0  0  0
 10 32  1  0  0  0  0
 10 33  1  0  0  0  0
 11 14  2  0  0  0  0
 12 19  1  0  0  0  0
 12 20  1  0  0  0  0
 12 35  1  0  0  0  0
 13 17  2  0  0  0  0
 14 36  1  0  0  0  0
 15 18  2  0  0  0  0
 15 37  1  0  0  0  0
 17 18  1  0  0  0  0
 17 38  1  0  0  0  0
 18 39  1  0  0  0  0
 19 40  1  0  0  0  0
 19 41  1  0  0  0  0
 19 42  1  0  0  0  0
 20 43  1  0  0  0  0
 20 44  1  0  0  0  0
 20 45  1  0  0  0  0
 21 23  1  0  0  0  0
 21 46  1  0  0  0  0
 21 47  1  0  0  0  0
 22 24  1  0  0  0  0
 22 49  1  0  0  0  0
 22 50  1  0  0  0  0
 23 25  3  0  0  0  0
 24 26  2  0  0  0  0
 24 51  1  0  0  0  0
 25 27  1  0  0  0  0
 26 52  1  0  0  0  0
 26 53  1  0  0  0  0
 27 54  1  0  0  0  0
 27 55  1  0  0  0  0
 27 56  1  0  0  0  0
M  END
> <PUBCHEM_COMPOUND_CID>
51138067

> <PUBCHEM_CONFORMER_RMSD>
0.8

> <PUBCHEM_CONFORMER_DIVERSEORDER>
1
27
14
67
136
135
48
115
59
142
96
87
7
10
13
28
40
3
17
73
54
112
66
63
33
110
117
78
82
81
119
133
127
55
49
99
108
88
77
11
41
123
98
25
31
35
18
118
16
44
76
92
4
143
106
105
97
12
58
89
139
103
85
93
102
125
140
114
30
37
29
131
116
100
134
71
46
24
141
74
15
132
5
39
2
79
90
45
69
60
130
129
9
50
23
26
122
53
65
22
91
43
36
6
72
57
137
111
94
124
138
120
109
121
21
62
52
47
34
126
84
51
8
56
61
107
75
20
80
113
19
104
38
128
95
64
32
70
68
42
86
83
101

> <PUBCHEM_MMFF94_PARTIAL_CHARGES>
31
1 -0.57
10 0.18
11 -0.18
13 -0.15
14 -0.3
15 -0.15
16 0.57
17 -0.15
18 -0.15
2 -0.9
21 0.46
22 0.44
23 -0.2
24 -0.29
25 -0.2
26 -0.3
27 0.2
3 0.05
34 0.36
36 0.15
37 0.15
38 0.15
39 0.15
4 -0.73
48 0.37
5 0.41
51 0.15
52 0.15
53 0.15
6 -0.14
7 0.33

> <PUBCHEM_EFFECTIVE_ROTOR_COUNT>
7.8

> <PUBCHEM_PHARMACOPHORE_FEATURES>
11
1 1 acceptor
1 2 cation
1 2 donor
1 26 hydrophobe
1 27 hydrophobe
1 3 cation
1 4 donor
3 12 19 20 hydrophobe
5 3 8 11 13 14 rings
6 6 8 13 15 17 18 rings
7 2 5 6 7 8 10 11 rings

> <PUBCHEM_HEAVY_ATOM_COUNT>
27

> <PUBCHEM_ATOM_DEF_STEREO_COUNT>
2

> <PUBCHEM_ATOM_UDEF_STEREO_COUNT>
0

> <PUBCHEM_BOND_DEF_STEREO_COUNT>
0

> <PUBCHEM_BOND_UDEF_STEREO_COUNT>
0

> <PUBCHEM_ISOTOPIC_ATOM_COUNT>
0

> <PUBCHEM_COMPONENT_COUNT>
1

> <PUBCHEM_CACTVS_TAUTO_COUNT>
2

> <PUBCHEM_CONFORMER_ID>
030C4E1300000001

> <PUBCHEM_MMFF94_ENERGY>
50.3459

> <PUBCHEM_FEATURE_SELFOVERLAP>
55.951

> <PUBCHEM_SHAPE_FINGERPRINT>
1100329 8 18337103467143500921
12107698 1 18411133658235087246
12788726 201 18411134771095730017
12954195 1 18341895147691405119
13140716 1 18335406947199386960
13690498 29 18411423903592720702
13757389 114 18122635959119429180
13782708 43 17632569440426732374
14117953 113 18272365378748086303
14347332 77 18413388747819492078
14790565 3 17832147117792043104
15420108 30 17833538008474816817
15510800 12 16987449595028921430
16087824 20 18337947876344450389
19591789 44 17472411054803646426
20691752 17 17313377921054809072
21267235 1 18409168835462306227
21279426 13 18262223509120319967
21307412 95 17842292363257660678
221357 26 18409728499686397310
23558518 356 18114749325316127720
23559900 14 18190171480880336394
23576562 1 18186528682651318348
23622692 118 18411412938325234428
244849 19 17202460278691757154
25147074 1 18260830401538400992
350125 39 18408318891356689689
7164475 11 18339070583887448149

> <PUBCHEM_SHAPE_MULTIPOLES>
534.83
13.75
4.24
1.23
5.2
3.46
-0.35
-9.87
-5.4
-5.44
-0.47
1.48
-0.81
0.01

> <PUBCHEM_SHAPE_SELFOVERLAP>
1122.192

> <PUBCHEM_SHAPE_VOLUME>
301.4

> <PUBCHEM_COORDINATE_TYPE>
2
5
10

$$$$
