11912792
  -OEChem-12032416373D

 59 63  0     1  0  0  0  0  0999 V2000
   -0.1791    0.5328    2.3449 O   0  0  0  0  0  0  0  0  0  0  0  0
   -1.4575    3.2936    1.6518 O   0  0  0  0  0  0  0  0  0  0  0  0
   -5.0880    1.0743    0.8772 O   0  0  0  0  0  0  0  0  0  0  0  0
   -3.2678   -0.8652   -3.1104 O   0  0  0  0  0  0  0  0  0  0  0  0
   -3.9163    0.9119   -1.8502 O   0  0  0  0  0  0  0  0  0  0  0  0
    6.5474   -3.4746    1.0574 O   0  0  0  0  0  0  0  0  0  0  0  0
   -3.0649    0.0255    1.3077 N   0  0  0  0  0  0  0  0  0  0  0  0
    1.0428    2.9189   -0.1334 N   0  0  0  0  0  0  0  0  0  0  0  0
    2.7386    1.3174   -0.3903 N   0  0  0  0  0  0  0  0  0  0  0  0
    2.2300    2.8753   -2.1570 N   0  0  0  0  0  0  0  0  0  0  0  0
   -1.6112    1.9728    1.1062 C   0  0  1  0  0  0  0  0  0  0  0  0
   -0.2478    1.3101    1.1376 C   0  0  1  0  0  0  0  0  0  0  0  0
   -2.4561    1.1197    2.0246 C   0  0  2  0  0  0  0  0  0  0  0  0
    0.7231    2.4654    1.2025 C   0  0  2  0  0  0  0  0  0  0  0  0
   -1.4365    0.6184    3.0318 C   0  0  0  0  0  0  0  0  0  0  0  0
   -0.0712    3.5268    1.9412 C   0  0  0  0  0  0  0  0  0  0  0  0
   -4.3490    0.0974    0.7871 C   0  0  0  0  0  0  0  0  0  0  0  0
    2.0331    2.3536   -0.9170 C   0  0  0  0  0  0  0  0  0  0  0  0
   -4.8410   -1.1238    0.0988 C   0  0  0  0  0  0  0  0  0  0  0  0
   -4.6299   -1.2927   -1.2546 C   0  0  0  0  0  0  0  0  0  0  0  0
    3.6963    0.7906   -1.1811 C   0  0  0  0  0  0  0  0  0  0  0  0
   -5.5057   -2.0653    0.8602 C   0  0  0  0  0  0  0  0  0  0  0  0
    3.2033    2.3005   -2.8937 C   0  0  0  0  0  0  0  0  0  0  0  0
    3.9757    1.2452   -2.4537 C   0  0  0  0  0  0  0  0  0  0  0  0
   -5.1026   -2.4501   -1.8732 C   0  0  0  0  0  0  0  0  0  0  0  0
   -5.9785   -3.2227    0.2417 C   0  0  0  0  0  0  0  0  0  0  0  0
    4.4320   -0.3086   -0.6032 C   0  0  0  0  0  0  0  0  0  0  0  0
   -3.9295   -0.3034   -2.0632 C   0  0  0  0  0  0  0  0  0  0  0  0
   -5.7770   -3.4152   -1.1250 C   0  0  0  0  0  0  0  0  0  0  0  0
    5.7612   -0.5318   -0.9692 C   0  0  0  0  0  0  0  0  0  0  0  0
    3.8169   -1.1533    0.3234 C   0  0  0  0  0  0  0  0  0  0  0  0
    6.4716   -1.5948   -0.4113 C   0  0  0  0  0  0  0  0  0  0  0  0
    4.5274   -2.2161    0.8813 C   0  0  0  0  0  0  0  0  0  0  0  0
    5.8547   -2.4369    0.5140 C   0  0  0  0  0  0  0  0  0  0  0  0
    5.8558   -4.2960    1.9970 C   0  0  0  0  0  0  0  0  0  0  0  0
   -2.0110    2.0814    0.0931 H   0  0  0  0  0  0  0  0  0  0  0  0
   -0.0915    0.6225    0.3003 H   0  0  0  0  0  0  0  0  0  0  0  0
   -3.2428    1.6914    2.5287 H   0  0  0  0  0  0  0  0  0  0  0  0
    1.6367    2.2433    1.7658 H   0  0  0  0  0  0  0  0  0  0  0  0
   -1.6823   -0.3571    3.4623 H   0  0  0  0  0  0  0  0  0  0  0  0
   -1.3104    1.3349    3.8510 H   0  0  0  0  0  0  0  0  0  0  0  0
    0.1893    4.5525    1.6621 H   0  0  0  0  0  0  0  0  0  0  0  0
    0.0541    3.4246    3.0249 H   0  0  0  0  0  0  0  0  0  0  0  0
   -2.5159   -0.8154    1.1503 H   0  0  0  0  0  0  0  0  0  0  0  0
    0.4886    3.6555   -0.5555 H   0  0  0  0  0  0  0  0  0  0  0  0
   -5.6664   -1.9222    1.9248 H   0  0  0  0  0  0  0  0  0  0  0  0
    3.3456    2.7223   -3.8829 H   0  0  0  0  0  0  0  0  0  0  0  0
    4.7246    0.8161   -3.1068 H   0  0  0  0  0  0  0  0  0  0  0  0
   -4.9739   -2.6242   -2.9384 H   0  0  0  0  0  0  0  0  0  0  0  0
   -6.5043   -3.9738    0.8242 H   0  0  0  0  0  0  0  0  0  0  0  0
   -6.1480   -4.3151   -1.6068 H   0  0  0  0  0  0  0  0  0  0  0  0
    6.2884    0.1137   -1.6666 H   0  0  0  0  0  0  0  0  0  0  0  0
    2.7803   -1.0149    0.6228 H   0  0  0  0  0  0  0  0  0  0  0  0
    7.5071   -1.7592   -0.6970 H   0  0  0  0  0  0  0  0  0  0  0  0
    3.9870   -2.8324    1.5916 H   0  0  0  0  0  0  0  0  0  0  0  0
   -2.7985   -0.1926   -3.6489 H   0  0  0  0  0  0  0  0  0  0  0  0
    5.0073   -4.8107    1.5335 H   0  0  0  0  0  0  0  0  0  0  0  0
    6.5568   -5.0695    2.3276 H   0  0  0  0  0  0  0  0  0  0  0  0
    5.5618   -3.7295    2.8871 H   0  0  0  0  0  0  0  0  0  0  0  0
  1 12  1  0  0  0  0
  1 15  1  0  0  0  0
  2 11  1  0  0  0  0
  2 16  1  0  0  0  0
  3 17  2  0  0  0  0
  4 28  1  0  0  0  0
  4 56  1  0  0  0  0
  5 28  2  0  0  0  0
  6 34  1  0  0  0  0
  6 35  1  0  0  0  0
  7 13  1  0  0  0  0
  7 17  1  0  0  0  0
  7 44  1  0  0  0  0
  8 14  1  0  0  0  0
  8 18  1  0  0  0  0
  8 45  1  0  0  0  0
  9 18  1  0  0  0  0
  9 21  2  0  0  0  0
 10 18  2  0  0  0  0
 10 23  1  0  0  0  0
 11 12  1  0  0  0  0
 11 13  1  0  0  0  0
 11 36  1  0  0  0  0
 12 14  1  0  0  0  0
 12 37  1  0  0  0  0
 13 15  1  0  0  0  0
 13 38  1  0  0  0  0
 14 16  1  0  0  0  0
 14 39  1  0  0  0  0
 15 40  1  0  0  0  0
 15 41  1  0  0  0  0
 16 42  1  0  0  0  0
 16 43  1  0  0  0  0
 17 19  1  0  0  0  0
 19 20  1  0  0  0  0
 19 22  2  0  0  0  0
 20 25  2  0  0  0  0
 20 28  1  0  0  0  0
 21 24  1  0  0  0  0
 21 27  1  0  0  0  0
 22 26  1  0  0  0  0
 22 46  1  0  0  0  0
 23 24  2  0  0  0  0
 23 47  1  0  0  0  0
 24 48  1  0  0  0  0
 25 29  1  0  0  0  0
 25 49  1  0  0  0  0
 26 29  2  0  0  0  0
 26 50  1  0  0  0  0
 27 30  2  0  0  0  0
 27 31  1  0  0  0  0
 29 51  1  0  0  0  0
 30 32  1  0  0  0  0
 30 52  1  0  0  0  0
 31 33  2  0  0  0  0
 31 53  1  0  0  0  0
 32 34  2  0  0  0  0
 32 54  1  0  0  0  0
 33 34  1  0  0  0  0
 33 55  1  0  0  0  0
 35 57  1  0  0  0  0
 35 58  1  0  0  0  0
 35 59  1  0  0  0  0
M  END
> <PUBCHEM_COMPOUND_CID>
11912792

> <PUBCHEM_CONFORMER_RMSD>
1

> <PUBCHEM_CONFORMER_DIVERSEORDER>
1
57
155
41
152
42
108
83
86
102
123
69
21
79
147
105
31
103
50
120
82
119
93
110
46
67
132
74
159
39
97
153
96
85
136
12
56
17
100
26
4
29
91
36
163
114
157
58
99
130
107
76
78
10
71
129
125
146
145
88
116
22
160
149
113
154
84
121
134
51
15
60
89
162
49
13
68
122
171
151
167
101
48
170
28
106
62
124
16
61
80
25
27
77
18
55
11
54
140
90
47
32
165
72
135
64
164
142
3
14
126
109
40
115
104
139
168
117
53
73
112
169
35
63
33
43
111
141
81
19
30
150
166
45
128
23
98
75
24
59
52
65
95
158
148
138
8
137
87
66
2
70
5
44
118
143
156
94
20
131
38
161
127
92
34
6
133
7
144
9
37

> <PUBCHEM_MMFF94_PARTIAL_CHARGES>
47
1 -0.56
10 -0.62
11 0.28
12 0.28
13 0.3
14 0.37
15 0.28
16 0.28
17 0.54
18 0.72
19 0.09
2 -0.56
20 0.09
21 0.31
22 -0.15
23 0.16
24 -0.15
25 -0.15
26 -0.15
28 0.63
29 -0.15
3 -0.57
30 -0.15
31 -0.15
32 -0.15
33 -0.15
34 0.08
35 0.28
4 -0.65
44 0.37
45 0.4
46 0.15
47 0.15
48 0.15
49 0.15
5 -0.57
50 0.15
51 0.15
52 0.15
53 0.15
54 0.15
55 0.15
56 0.5
6 -0.36
7 -0.73
8 -0.87
9 -0.62

> <PUBCHEM_EFFECTIVE_ROTOR_COUNT>
9.2

> <PUBCHEM_PHARMACOPHORE_FEATURES>
16
1 1 acceptor
1 2 acceptor
1 3 acceptor
1 4 acceptor
1 5 acceptor
1 6 acceptor
1 7 donor
1 8 donor
1 9 acceptor
3 4 5 28 anion
4 8 9 10 18 cation
5 1 11 12 13 15 rings
5 2 11 12 14 16 rings
6 19 20 22 25 26 29 rings
6 27 30 31 32 33 34 rings
6 9 10 18 21 23 24 rings

> <PUBCHEM_HEAVY_ATOM_COUNT>
35

> <PUBCHEM_ATOM_DEF_STEREO_COUNT>
4

> <PUBCHEM_ATOM_UDEF_STEREO_COUNT>
0

> <PUBCHEM_BOND_DEF_STEREO_COUNT>
0

> <PUBCHEM_BOND_UDEF_STEREO_COUNT>
0

> <PUBCHEM_ISOTOPIC_ATOM_COUNT>
0

> <PUBCHEM_COMPONENT_COUNT>
1

> <PUBCHEM_CACTVS_TAUTO_COUNT>
6

> <PUBCHEM_CONFORMER_ID>
00B5C65800000001

> <PUBCHEM_MMFF94_ENERGY>
123.4009

> <PUBCHEM_FEATURE_SELFOVERLAP>
81.966

> <PUBCHEM_SHAPE_FINGERPRINT>
10074138 170 16126720045237727473
10462674 125 13972238108501082981
10556698 54 15792551042037353775
10622 236 18335703802147821250
10908659 184 17988374774893646407
10928967 22 18129658754913409231
11069576 57 18261969504728093150
11135609 149 18187354442133336852
11135926 11 17461476682997973004
11227150 75 18336250289618671906
11285246 1 17168698627088505356
11497681 19 18339365146684843622
11607047 403 18198048374425252504
11828042 74 17172653450756048406
12166972 35 18334857242487094006
12422481 6 16200435775239416949
13383661 66 16893998098574486915
13636023 20 17677315157214401514
14068700 675 18339361873212421392
14340393 91 17823119177944382951
14480069 147 18337116769173927747
14705955 166 13325204025478836019
15163728 17 12324238347676847737
15320294 125 18270972228479381101
15419009 47 17825096022167543021
16991981 162 11171641212027176832
18603816 31 17974845078149390744
19304671 126 16081365310476719389
19315092 285 18409734001455140708
20775438 99 18045775956052489802
208703 8 18273224105307299502
21033650 10 13335034857785122560
21458453 9 15194986281041177690
25025965 108 17389936765843165346
392239 28 14476961164282594108
4015057 19 17822303412909068736
4017518 198 16968019939827201132
42767 28 17096070451283091191
437795 139 18343014497509383626
437795 70 15791732983789982942
4394409 98 18059565846689038437
439807 62 18338241574196438635
44880168 125 17618226101395937762
46194498 28 15865508092779955876
463206 1 18342185487301338419
57527295 17 18267887135938114465
59025328 239 17894918421278774700
6058803 2 18194430860415782632
613672 6 17132124519821351309
6636735 143 14548747188150533467
66674814 147 18334297565367603282
6677587 24 16883840732166523700
6700243 42 16011016443592064323

> <PUBCHEM_SHAPE_MULTIPOLES>
665.14
17.45
4.92
3
3.3
1.71
0.71
22.83
3.34
3.03
-1.62
-0.52
-1.16
-6.03

> <PUBCHEM_SHAPE_SELFOVERLAP>
1466.128

> <PUBCHEM_SHAPE_VOLUME>
356.1

> <PUBCHEM_COORDINATE_TYPE>
2
5
10

$$$$
