71692850
  -OEChem-12032416403D

 69 72  0     1  0  0  0  0  0999 V2000
    1.0178    3.7403   -0.8559 O   0  0  0  0  0  0  0  0  0  0  0  0
    5.5383   -1.4643   -1.8181 O   0  0  0  0  0  0  0  0  0  0  0  0
   -0.4667   -1.0042    0.9988 O   0  0  0  0  0  0  0  0  0  0  0  0
   -8.5493   -0.2451   -1.0629 O   0  0  0  0  0  0  0  0  0  0  0  0
    2.3255    2.2809    0.3761 N   0  0  0  0  0  0  0  0  0  0  0  0
    7.1696   -1.1293   -0.1972 N   0  0  0  0  0  0  0  0  0  0  0  0
   -0.6983    1.8827    1.2725 N   0  0  0  0  0  0  0  0  0  0  0  0
   -5.7977   -0.4638   -0.5337 N   0  0  0  0  0  0  0  0  0  0  0  0
    3.5139   -0.2987   -0.2781 C   0  0  1  0  0  0  0  0  0  0  0  0
    2.4106   -0.1139    0.8060 C   0  0  2  0  0  0  0  0  0  0  0  0
    3.4126    0.8530   -1.3059 C   0  0  0  0  0  0  0  0  0  0  0  0
    2.4980    1.2868    1.4413 C   0  0  0  0  0  0  0  0  0  0  0  0
    3.3759    2.2332   -0.6443 C   0  0  0  0  0  0  0  0  0  0  0  0
    4.9412   -0.4047    0.2733 C   0  0  0  0  0  0  0  0  0  0  0  0
    2.3939   -1.1911    1.8577 C   0  0  0  0  0  0  0  0  0  0  0  0
    1.1863    3.0559    0.1603 C   0  0  0  0  0  0  0  0  0  0  0  0
    5.8836   -1.0569   -0.7125 C   0  0  0  0  0  0  0  0  0  0  0  0
    1.4010   -2.0378    2.1799 C   0  0  0  0  0  0  0  0  0  0  0  0
    0.1164    3.0939    1.2359 C   0  0  0  0  0  0  0  0  0  0  0  0
   -0.0098   -2.1746    1.6665 C   0  0  0  0  0  0  0  0  0  0  0  0
   -1.3041    1.5049   -0.0024 C   0  0  0  0  0  0  0  0  0  0  0  0
   -2.2358    0.3138    0.1462 C   0  0  0  0  0  0  0  0  0  0  0  0
    8.2783   -1.7072   -0.9214 C   0  0  0  0  0  0  0  0  0  0  0  0
   -1.7890   -0.9345    0.6375 C   0  0  0  0  0  0  0  0  0  0  0  0
   -4.4632   -0.6196   -0.1445 C   0  0  0  0  0  0  0  0  0  0  0  0
   -3.5786    0.4529   -0.2419 C   0  0  0  0  0  0  0  0  0  0  0  0
   -6.6104    0.5430    0.1628 C   0  0  0  0  0  0  0  0  0  0  0  0
   -6.5435   -1.6101   -1.0645 C   0  0  0  0  0  0  0  0  0  0  0  0
   -2.6856   -2.0062    0.7244 C   0  0  0  0  0  0  0  0  0  0  0  0
   -4.0167   -1.8462    0.3363 C   0  0  0  0  0  0  0  0  0  0  0  0
   -7.8108    0.9206   -0.6976 C   0  0  0  0  0  0  0  0  0  0  0  0
   -7.7482   -1.1179   -1.8588 C   0  0  0  0  0  0  0  0  0  0  0  0
    8.8450   -0.7356   -1.9358 C   0  0  0  0  0  0  0  0  0  0  0  0
    3.2797   -1.2327   -0.8087 H   0  0  0  0  0  0  0  0  0  0  0  0
    1.4732   -0.1516    0.2447 H   0  0  0  0  0  0  0  0  0  0  0  0
    2.4853    0.7188   -1.8791 H   0  0  0  0  0  0  0  0  0  0  0  0
    4.2325    0.8161   -2.0309 H   0  0  0  0  0  0  0  0  0  0  0  0
    1.7406    1.4021    2.2189 H   0  0  0  0  0  0  0  0  0  0  0  0
    3.4719    1.4594    1.9144 H   0  0  0  0  0  0  0  0  0  0  0  0
    4.3278    2.4674   -0.1562 H   0  0  0  0  0  0  0  0  0  0  0  0
    3.2101    2.9999   -1.4079 H   0  0  0  0  0  0  0  0  0  0  0  0
    4.9731   -1.0328    1.1686 H   0  0  0  0  0  0  0  0  0  0  0  0
    5.3439    0.5742    0.5535 H   0  0  0  0  0  0  0  0  0  0  0  0
    3.3033   -1.2948    2.4466 H   0  0  0  0  0  0  0  0  0  0  0  0
    1.6362   -2.7570    2.9658 H   0  0  0  0  0  0  0  0  0  0  0  0
    0.5880    3.2626    2.2096 H   0  0  0  0  0  0  0  0  0  0  0  0
   -0.5248    3.9648    1.0520 H   0  0  0  0  0  0  0  0  0  0  0  0
   -0.0479   -3.0361    0.9898 H   0  0  0  0  0  0  0  0  0  0  0  0
   -0.6490   -2.3665    2.5376 H   0  0  0  0  0  0  0  0  0  0  0  0
    7.3556   -0.7551    0.7288 H   0  0  0  0  0  0  0  0  0  0  0  0
   -1.4299    2.0070    1.9727 H   0  0  0  0  0  0  0  0  0  0  0  0
   -0.5393    1.2320   -0.7392 H   0  0  0  0  0  0  0  0  0  0  0  0
   -1.8575    2.3592   -0.4112 H   0  0  0  0  0  0  0  0  0  0  0  0
    7.9351   -2.6178   -1.4237 H   0  0  0  0  0  0  0  0  0  0  0  0
    9.0427   -1.9828   -0.1883 H   0  0  0  0  0  0  0  0  0  0  0  0
   -3.9239    1.4062   -0.6371 H   0  0  0  0  0  0  0  0  0  0  0  0
   -6.0413    1.4507    0.3909 H   0  0  0  0  0  0  0  0  0  0  0  0
   -6.9545    0.1153    1.1127 H   0  0  0  0  0  0  0  0  0  0  0  0
   -5.9164   -2.2230   -1.7228 H   0  0  0  0  0  0  0  0  0  0  0  0
   -6.8909   -2.2321   -0.2304 H   0  0  0  0  0  0  0  0  0  0  0  0
   -2.3793   -2.9817    1.0896 H   0  0  0  0  0  0  0  0  0  0  0  0
   -8.4800    1.5801   -0.1360 H   0  0  0  0  0  0  0  0  0  0  0  0
   -7.5008    1.4550   -1.6038 H   0  0  0  0  0  0  0  0  0  0  0  0
   -7.4381   -0.5958   -2.7722 H   0  0  0  0  0  0  0  0  0  0  0  0
   -8.3706   -1.9672   -2.1580 H   0  0  0  0  0  0  0  0  0  0  0  0
   -4.6807   -2.7006    0.4351 H   0  0  0  0  0  0  0  0  0  0  0  0
    8.0955   -0.4583   -2.6842 H   0  0  0  0  0  0  0  0  0  0  0  0
    9.1843    0.1848   -1.4489 H   0  0  0  0  0  0  0  0  0  0  0  0
    9.6976   -1.1820   -2.4567 H   0  0  0  0  0  0  0  0  0  0  0  0
  1 16  2  0  0  0  0
  2 17  2  0  0  0  0
  3 20  1  0  0  0  0
  3 24  1  0  0  0  0
  4 31  1  0  0  0  0
  4 32  1  0  0  0  0
  5 12  1  0  0  0  0
  5 13  1  0  0  0  0
  5 16  1  0  0  0  0
  6 17  1  0  0  0  0
  6 23  1  0  0  0  0
  6 50  1  0  0  0  0
  7 19  1  0  0  0  0
  7 21  1  0  0  0  0
  7 51  1  0  0  0  0
  8 25  1  0  0  0  0
  8 27  1  0  0  0  0
  8 28  1  0  0  0  0
  9 10  1  0  0  0  0
  9 11  1  0  0  0  0
  9 14  1  0  0  0  0
  9 34  1  0  0  0  0
 10 12  1  0  0  0  0
 10 15  1  0  0  0  0
 10 35  1  0  0  0  0
 11 13  1  0  0  0  0
 11 36  1  0  0  0  0
 11 37  1  0  0  0  0
 12 38  1  0  0  0  0
 12 39  1  0  0  0  0
 13 40  1  0  0  0  0
 13 41  1  0  0  0  0
 14 17  1  0  0  0  0
 14 42  1  0  0  0  0
 14 43  1  0  0  0  0
 15 18  2  0  0  0  0
 15 44  1  0  0  0  0
 16 19  1  0  0  0  0
 18 20  1  0  0  0  0
 18 45  1  0  0  0  0
 19 46  1  0  0  0  0
 19 47  1  0  0  0  0
 20 48  1  0  0  0  0
 20 49  1  0  0  0  0
 21 22  1  0  0  0  0
 21 52  1  0  0  0  0
 21 53  1  0  0  0  0
 22 24  2  0  0  0  0
 22 26  1  0  0  0  0
 23 33  1  0  0  0  0
 23 54  1  0  0  0  0
 23 55  1  0  0  0  0
 24 29  1  0  0  0  0
 25 26  2  0  0  0  0
 25 30  1  0  0  0  0
 26 56  1  0  0  0  0
 27 31  1  0  0  0  0
 27 57  1  0  0  0  0
 27 58  1  0  0  0  0
 28 32  1  0  0  0  0
 28 59  1  0  0  0  0
 28 60  1  0  0  0  0
 29 30  2  0  0  0  0
 29 61  1  0  0  0  0
 30 66  1  0  0  0  0
 31 62  1  0  0  0  0
 31 63  1  0  0  0  0
 32 64  1  0  0  0  0
 32 65  1  0  0  0  0
 33 67  1  0  0  0  0
 33 68  1  0  0  0  0
 33 69  1  0  0  0  0
M  END
> <PUBCHEM_COMPOUND_CID>
71692850

> <PUBCHEM_CONFORMER_RMSD>
1

> <PUBCHEM_CONFORMER_DIVERSEORDER>
1
14
79
21
24
51
81
55
43
49
40
7
29
47
37
50
58
74
56
69
78
42
59
36
68
17
19
26
12
27
76
31
10
45
46
63
30
11
9
64
25
35
73
82
33
71
39
20
52
66
70
28
60
48
34
8
57
23
18
72
38
62
5
54
13
15
77
61
6
22
53
32
4
2
16
41
80
44
67
3
65
75

> <PUBCHEM_MMFF94_PARTIAL_CHARGES>
37
1 -0.57
10 0.14
12 0.3
13 0.3
14 0.06
15 -0.29
16 0.57
17 0.57
18 -0.29
19 0.33
2 -0.57
20 0.42
21 0.41
22 -0.14
23 0.3
24 0.08
25 0.1
26 -0.15
27 0.37
28 0.37
29 -0.15
3 -0.36
30 -0.15
31 0.28
32 0.28
4 -0.56
44 0.15
45 0.15
5 -0.66
50 0.37
51 0.36
56 0.15
6 -0.73
61 0.15
66 0.15
7 -0.9
8 -0.84

> <PUBCHEM_EFFECTIVE_ROTOR_COUNT>
8

> <PUBCHEM_PHARMACOPHORE_FEATURES>
11
1 1 acceptor
1 2 acceptor
1 3 acceptor
1 4 acceptor
1 6 donor
1 7 cation
1 7 donor
1 8 cation
6 22 24 25 26 29 30 rings
6 4 8 27 28 31 32 rings
6 5 9 10 11 12 13 rings

> <PUBCHEM_HEAVY_ATOM_COUNT>
33

> <PUBCHEM_ATOM_DEF_STEREO_COUNT>
2

> <PUBCHEM_ATOM_UDEF_STEREO_COUNT>
0

> <PUBCHEM_BOND_DEF_STEREO_COUNT>
1

> <PUBCHEM_BOND_UDEF_STEREO_COUNT>
0

> <PUBCHEM_ISOTOPIC_ATOM_COUNT>
0

> <PUBCHEM_COMPONENT_COUNT>
1

> <PUBCHEM_CACTVS_TAUTO_COUNT>
4

> <PUBCHEM_CONFORMER_ID>
0445F23200000001

> <PUBCHEM_MMFF94_ENERGY>
98.0894

> <PUBCHEM_FEATURE_SELFOVERLAP>
55.822

> <PUBCHEM_SHAPE_FINGERPRINT>
10 15 10735870669564435470
10162869 55 10735866271871410977
10165383 225 17095243614217837330
10483366 6 18335140873558564226
10670039 82 17894910694225998493
10675989 125 18188483704984104977
10693767 8 18342450452345174391
10904742 90 11097857397697676644
10917259 69 18128538159856250689
11115154 58 18343589507900141688
11720765 8 18270402810205771152
11828532 37 18263654016313406295
12107698 1 18343303660736302932
12202916 173 18343023281298662670
12539745 222 16558476275474896114
12741549 16 16487252136915157794
13540713 4 17971480855592951259
13631057 29 18341055104392883984
13811026 1 18341611534105882706
14068700 675 18343022168754212344
14114211 68 17385731252991407722
14117953 113 18273215287618082807
14931854 50 18187083923512423470
15183329 4 18260548909207325651
15198563 99 18262810549683273540
15351339 4 18114739314105862474
16993089 31 16270544937228290662
20105231 36 18410016581304751283
20465049 17 18186804702976643427
20505436 4 13118000024089884136
20775438 99 17550087604247932782
21279426 13 18334857268636452443
221357 26 18408319986399029808
22224240 67 9007053552840297698
23559900 14 18336547243113762904
23576562 1 18189335852032755247
24893992 56 18040714797203897099
249057 3 18413107281681051471
3004659 81 18333447651437241584
335352 9 18335139795384421215
3633792 109 17821737152442983308
4339292 15 18059579028376732006
437815 12 18272936020170029168
484989 97 18042134313411688547
504579 68 18268409379309082871
513532 50 18129649923896016153

> <PUBCHEM_SHAPE_MULTIPOLES>
635.72
22.6
3.11
1.72
5.83
2.62
-0.1
-11.51
17.69
-1.52
-0.64
-1.2
-0.67
0.26

> <PUBCHEM_SHAPE_SELFOVERLAP>
1322.063

> <PUBCHEM_SHAPE_VOLUME>
356

> <PUBCHEM_COORDINATE_TYPE>
2
5
10

$$$$
