40780152
  -OEChem-12032416163D

 53 57  0     1  0  0  0  0  0999 V2000
    6.0025    1.1783   -0.0236 S   0  0  0  0  0  0  0  0  0  0  0  0
   -5.4333   -0.0659    1.8710 O   0  0  0  0  0  0  0  0  0  0  0  0
   -1.6041   -2.3415    0.6347 N   0  0  2  0  0  0  0  0  0  0  0  0
   -3.4682    0.8942    1.0659 N   0  0  0  0  0  0  0  0  0  0  0  0
    1.1273    0.5258   -1.6323 N   0  0  0  0  0  0  0  0  0  0  0  0
    3.2243    1.4681   -0.9098 N   0  0  0  0  0  0  0  0  0  0  0  0
   -0.9307   -1.4684   -1.7248 C   0  0  2  0  0  0  0  0  0  0  0  0
   -2.4428   -1.1701    0.2678 C   0  0  2  0  0  0  0  0  0  0  0  0
    0.3274   -1.6422   -0.8297 C   0  0  2  0  0  0  0  0  0  0  0  0
   -1.9235   -0.5133   -1.0293 C   0  0  0  0  0  0  0  0  0  0  0  0
   -1.6130   -2.8508   -1.8068 C   0  0  0  0  0  0  0  0  0  0  0  0
   -0.1682   -1.9669    0.6085 C   0  0  0  0  0  0  0  0  0  0  0  0
   -1.8259   -3.3959   -0.3837 C   0  0  0  0  0  0  0  0  0  0  0  0
   -2.5638   -0.1592    1.4100 C   0  0  0  0  0  0  0  0  0  0  0  0
    1.3770   -0.5400   -0.8437 C   0  0  0  0  0  0  0  0  0  0  0  0
   -5.5854    2.0633    0.8824 C   0  0  0  0  0  0  0  0  0  0  0  0
   -5.4856    2.5013   -0.5494 C   0  0  0  0  0  0  0  0  0  0  0  0
   -6.7599    1.8969   -0.0367 C   0  0  0  0  0  0  0  0  0  0  0  0
   -4.8329    0.8529    1.3260 C   0  0  0  0  0  0  0  0  0  0  0  0
    2.5120   -0.6721   -0.0699 C   0  0  0  0  0  0  0  0  0  0  0  0
    3.4098    0.3733   -0.1434 C   0  0  0  0  0  0  0  0  0  0  0  0
    2.0788    1.4786   -1.6180 C   0  0  0  0  0  0  0  0  0  0  0  0
    4.6353    0.3649    0.6102 C   0  0  0  0  0  0  0  0  0  0  0  0
    1.8377    2.6740   -2.4764 C   0  0  0  0  0  0  0  0  0  0  0  0
    4.9022   -0.2241    1.8266 C   0  0  0  0  0  0  0  0  0  0  0  0
    6.2468   -0.0046    2.2438 C   0  0  0  0  0  0  0  0  0  0  0  0
    6.9563    0.7436    1.3305 C   0  0  0  0  0  0  0  0  0  0  0  0
   -0.6759   -1.1081   -2.7270 H   0  0  0  0  0  0  0  0  0  0  0  0
   -3.4615   -1.5388    0.0749 H   0  0  0  0  0  0  0  0  0  0  0  0
    0.8569   -2.5295   -1.2103 H   0  0  0  0  0  0  0  0  0  0  0  0
   -1.4367    0.4480   -0.8304 H   0  0  0  0  0  0  0  0  0  0  0  0
   -2.7689   -0.3106   -1.6986 H   0  0  0  0  0  0  0  0  0  0  0  0
   -0.9957   -3.5489   -2.3842 H   0  0  0  0  0  0  0  0  0  0  0  0
   -2.5750   -2.7616   -2.3262 H   0  0  0  0  0  0  0  0  0  0  0  0
    0.4216   -2.8006    1.0125 H   0  0  0  0  0  0  0  0  0  0  0  0
    0.0117   -1.1354    1.2997 H   0  0  0  0  0  0  0  0  0  0  0  0
   -2.8405   -3.8019   -0.2881 H   0  0  0  0  0  0  0  0  0  0  0  0
   -1.1523   -4.2418   -0.1957 H   0  0  0  0  0  0  0  0  0  0  0  0
   -1.6047    0.3134    1.6442 H   0  0  0  0  0  0  0  0  0  0  0  0
   -2.9245   -0.6553    2.3186 H   0  0  0  0  0  0  0  0  0  0  0  0
   -5.6701    2.8407    1.6350 H   0  0  0  0  0  0  0  0  0  0  0  0
   -3.0831    1.7169    0.6109 H   0  0  0  0  0  0  0  0  0  0  0  0
   -4.8995    1.9118   -1.2439 H   0  0  0  0  0  0  0  0  0  0  0  0
   -5.4772    3.5656   -0.7509 H   0  0  0  0  0  0  0  0  0  0  0  0
   -7.6087    2.5549    0.1045 H   0  0  0  0  0  0  0  0  0  0  0  0
   -7.0173    0.9027   -0.3808 H   0  0  0  0  0  0  0  0  0  0  0  0
    2.6845   -1.5499    0.5412 H   0  0  0  0  0  0  0  0  0  0  0  0
    2.2609    2.5054   -3.4709 H   0  0  0  0  0  0  0  0  0  0  0  0
    0.7656    2.8686   -2.5793 H   0  0  0  0  0  0  0  0  0  0  0  0
    2.3039    3.5643   -2.0426 H   0  0  0  0  0  0  0  0  0  0  0  0
    4.1778   -0.7840    2.4051 H   0  0  0  0  0  0  0  0  0  0  0  0
    6.6716   -0.3754    3.1675 H   0  0  0  0  0  0  0  0  0  0  0  0
    7.9891    1.0561    1.3937 H   0  0  0  0  0  0  0  0  0  0  0  0
  1 23  1  0  0  0  0
  1 27  1  0  0  0  0
  2 19  2  0  0  0  0
  3  8  1  0  0  0  0
  3 12  1  0  0  0  0
  3 13  1  0  0  0  0
  4 14  1  0  0  0  0
  4 19  1  0  0  0  0
  4 42  1  0  0  0  0
  5 15  2  0  0  0  0
  5 22  1  0  0  0  0
  6 21  1  0  0  0  0
  6 22  2  0  0  0  0
  7  9  1  0  0  0  0
  7 10  1  0  0  0  0
  7 11  1  0  0  0  0
  7 28  1  0  0  0  0
  8 10  1  0  0  0  0
  8 14  1  0  0  0  0
  8 29  1  0  0  0  0
  9 12  1  0  0  0  0
  9 15  1  0  0  0  0
  9 30  1  0  0  0  0
 10 31  1  0  0  0  0
 10 32  1  0  0  0  0
 11 13  1  0  0  0  0
 11 33  1  0  0  0  0
 11 34  1  0  0  0  0
 12 35  1  0  0  0  0
 12 36  1  0  0  0  0
 13 37  1  0  0  0  0
 13 38  1  0  0  0  0
 14 39  1  0  0  0  0
 14 40  1  0  0  0  0
 15 20  1  0  0  0  0
 16 17  1  0  0  0  0
 16 18  1  0  0  0  0
 16 19  1  0  0  0  0
 16 41  1  0  0  0  0
 17 18  1  0  0  0  0
 17 43  1  0  0  0  0
 17 44  1  0  0  0  0
 18 45  1  0  0  0  0
 18 46  1  0  0  0  0
 20 21  2  0  0  0  0
 20 47  1  0  0  0  0
 21 23  1  0  0  0  0
 22 24  1  0  0  0  0
 23 25  2  0  0  0  0
 24 48  1  0  0  0  0
 24 49  1  0  0  0  0
 24 50  1  0  0  0  0
 25 26  1  0  0  0  0
 25 51  1  0  0  0  0
 26 27  2  0  0  0  0
 26 52  1  0  0  0  0
 27 53  1  0  0  0  0
M  END
> <PUBCHEM_COMPOUND_CID>
40780152

> <PUBCHEM_CONFORMER_RMSD>
0.8

> <PUBCHEM_CONFORMER_DIVERSEORDER>
1
207
201
88
146
169
17
203
71
64
97
9
154
135
152
193
127
204
186
5
87
132
86
179
185
160
137
115
95
93
156
44
145
120
54
182
119
72
73
199
118
181
83
62
192
104
174
130
144
175
196
123
108
65
67
151
105
206
131
92
177
76
165
183
141
195
49
38
180
168
77
134
205
56
100
41
91
69
157
82
46
161
189
90
170
173
43
29
81
163
53
142
59
10
190
121
184
85
155
66
147
126
158
99
153
12
80
110
34
164
68
107
39
178
128
4
194
94
70
106
60
26
48
30
149
14
78
129
28
101
172
45
112
75
122
96
74
42
143
52
167
2
16
197
200
162
36
150
102
50
23
176
116
117
208
133
109
7
171
139
35
24
79
124
6
187
40
19
20
51
202
58
138
114
47
25
57
113
21
148
140
136
188
55
15
37
125
98
8
13
33
3
111
198
32
18
63
22
27
11
159
84
103
31
166
61
191
89

> <PUBCHEM_MMFF94_PARTIAL_CHARGES>
34
1 -0.08
12 0.27
13 0.27
14 0.3
15 0.17
16 -0.1
17 -0.2
18 -0.2
19 0.63
2 -0.57
20 -0.15
21 0.36
22 0.48
23 -0.01
24 0.14
25 -0.15
26 -0.15
27 -0.11
3 -0.81
4 -0.73
41 0.1
42 0.37
43 0.1
44 0.1
45 0.1
46 0.1
47 0.15
5 -0.62
51 0.15
52 0.15
53 0.15
6 -0.62
8 0.27
9 0.14

> <PUBCHEM_EFFECTIVE_ROTOR_COUNT>
7.8

> <PUBCHEM_PHARMACOPHORE_FEATURES>
8
1 2 acceptor
1 3 cation
1 4 donor
1 5 acceptor
3 5 6 22 cation
5 1 23 25 26 27 rings
6 5 6 15 20 21 22 rings
8 3 7 8 9 10 11 12 13 rings

> <PUBCHEM_HEAVY_ATOM_COUNT>
27

> <PUBCHEM_ATOM_DEF_STEREO_COUNT>
3

> <PUBCHEM_ATOM_UDEF_STEREO_COUNT>
0

> <PUBCHEM_BOND_DEF_STEREO_COUNT>
0

> <PUBCHEM_BOND_UDEF_STEREO_COUNT>
0

> <PUBCHEM_ISOTOPIC_ATOM_COUNT>
0

> <PUBCHEM_COMPONENT_COUNT>
1

> <PUBCHEM_CACTVS_TAUTO_COUNT>
2

> <PUBCHEM_CONFORMER_ID>
026E417800000001

> <PUBCHEM_MMFF94_ENERGY>
64.0474

> <PUBCHEM_FEATURE_SELFOVERLAP>
40.596

> <PUBCHEM_SHAPE_FINGERPRINT>
10042902 136 12540995026473349609
10692045 39 18200315394854421954
10764073 3 16733262327538699871
10928967 22 8213572221944378497
10939801 23 18113627815304302780
11135609 201 17917160386578634289
11374522 165 17973425629965945605
11961588 58 16558741304468266675
12107183 9 18040433291534537752
12120059 20 7924471057867682600
12403259 118 18261403260476700833
12422481 6 18260547783999792732
12633257 1 17530972409598136778
12760667 363 12468357959990446363
12788726 201 17907874142618981871
13103583 49 17458630042270096186
13540713 5 17971196065159859958
1361 2 14045442462911124912
13911987 19 13398346940972981426
13941219 33 17022615369265185106
13947920 24 14333118706925466405
14251764 30 11458433435681303873
14294032 229 18130238167698203295
14765038 42 17749390421190740904
14767858 380 11600002171975151984
14950920 106 17313957449170075417
15238133 3 18336554893004379092
15669420 48 15410883081700086493
15684973 49 18126849524279978982
16994733 274 16200155340393755329
17138139 8 10303521767546321020
173720 79 18410580617177445043
17492 54 13830126187296395932
17974551 9 17024331788462895977
17980427 23 18270395122282246644
19246450 95 17968926488170925473
193927 3 11674883307504336547
20554085 129 17988352681480603105
20567600 254 18201717315213268689
20642791 105 18269553995902958155
20642791 268 18263075690967532468
20715895 44 18189624835219200569
21033648 29 18340496564664208313
21304303 282 17988066881673104247
21403212 168 18114736045524758801
21591331 117 11242260636381966513
21859007 373 18192714444995509460
23522609 53 17605011350081827548
23559900 14 18055944054696690671
25147074 1 18044663228778143118
25269216 80 15051722077086396745
2838139 119 16702304512031997888
3117164 225 17748834041756606105
3459 39 18273490169693237489
3737641 26 13623797294211091808
4098825 35 14045478695519100945
437815 12 12757154588993994899
4938544 92 18130500955166155384
5028188 123 18341054138457850428
5104073 3 18115580603968337304
5171179 24 17693661415668634118
54728670 133 17606093132143167012
6058803 2 17826800536126553902
6371009 1 18409167697607644421
6697151 62 15984002336883762716
9981440 41 18060421343407575135
999808 66 14851879236565688848

> <PUBCHEM_SHAPE_MULTIPOLES>
533.7
15.93
3.08
2.13
3
1.3
0.23
-13.06
-10.2
-3.97
1.42
1.07
-0.48
-1.38

> <PUBCHEM_SHAPE_SELFOVERLAP>
1139.292

> <PUBCHEM_SHAPE_VOLUME>
298.6

> <PUBCHEM_COORDINATE_TYPE>
2
5
10

$$$$
