45361654
  -OEChem-12032416193D

 74 76  0     1  0  0  0  0  0999 V2000
   -0.9724   -2.6487   -1.2637 O   0  0  0  0  0  0  0  0  0  0  0  0
    3.9887   -2.9107    0.7087 O   0  0  0  0  0  0  0  0  0  0  0  0
   -5.9605    2.0768   -0.9042 O   0  0  0  0  0  0  0  0  0  0  0  0
    5.8372    3.7274    0.5586 O   0  0  0  0  0  0  0  0  0  0  0  0
   -5.2856    0.2217    0.3171 N   0  0  0  0  0  0  0  0  0  0  0  0
    3.4718   -1.8521   -1.2893 N   0  0  0  0  0  0  0  0  0  0  0  0
   -7.5241    0.6667    0.0706 N   0  0  0  0  0  0  0  0  0  0  0  0
   -1.0912    0.1884    1.2882 C   0  0  1  0  0  0  0  0  0  0  0  0
   -1.5481   -0.6995    0.0833 C   0  0  2  0  0  0  0  0  0  0  0  0
   -3.0990   -0.9457    0.1267 C   0  0  1  0  0  0  0  0  0  0  0  0
   -0.6713   -1.9791   -0.0385 C   0  0  2  0  0  0  0  0  0  0  0  0
    0.4170    0.5049    1.1533 C   0  0  0  0  0  0  0  0  0  0  0  0
   -1.8591    1.5297    1.2459 C   0  0  0  0  0  0  0  0  0  0  0  0
    0.8421   -1.6623   -0.0682 C   0  0  1  0  0  0  0  0  0  0  0  0
   -3.8587    0.4102    0.1597 C   0  0  2  0  0  0  0  0  0  0  0  0
    1.2820   -0.7461    1.0735 C   0  0  0  0  0  0  0  0  0  0  0  0
   -3.3708    1.3535    1.2589 C   0  0  0  0  0  0  0  0  0  0  0  0
   -1.3355   -0.4964    2.6569 C   0  0  0  0  0  0  0  0  0  0  0  0
    1.6910   -2.9395   -0.0563 C   0  0  2  0  0  0  0  0  0  0  0  0
   -3.6217   -1.7898   -1.0480 C   0  0  0  0  0  0  0  0  0  0  0  0
    1.3933   -3.7560    1.1964 C   0  0  0  0  0  0  0  0  0  0  0  0
    3.1710   -2.5809   -0.1477 C   0  0  0  0  0  0  0  0  0  0  0  0
   -6.2299    1.0808   -0.2341 C   0  0  0  0  0  0  0  0  0  0  0  0
    4.8077   -1.3957   -1.5954 C   0  0  0  0  0  0  0  0  0  0  0  0
   -8.6987    1.3773   -0.3766 C   0  0  0  0  0  0  0  0  0  0  0  0
    5.0811   -0.0346   -1.0237 C   0  0  0  0  0  0  0  0  0  0  0  0
   -9.0334    1.0450   -1.8161 C   0  0  0  0  0  0  0  0  0  0  0  0
    4.5342    1.0983   -1.6262 C   0  0  0  0  0  0  0  0  0  0  0  0
    5.8823    0.0968    0.1105 C   0  0  0  0  0  0  0  0  0  0  0  0
    4.7884    2.3626   -1.0947 C   0  0  0  0  0  0  0  0  0  0  0  0
    6.1367    1.3610    0.6422 C   0  0  0  0  0  0  0  0  0  0  0  0
    5.5898    2.4939    0.0395 C   0  0  0  0  0  0  0  0  0  0  0  0
    5.2456    4.8423   -0.1070 C   0  0  0  0  0  0  0  0  0  0  0  0
   -1.3701   -0.1212   -0.8377 H   0  0  0  0  0  0  0  0  0  0  0  0
   -3.3436   -1.5062    1.0379 H   0  0  0  0  0  0  0  0  0  0  0  0
   -0.9474   -2.6509    0.7759 H   0  0  0  0  0  0  0  0  0  0  0  0
    0.5895    1.1059    0.2502 H   0  0  0  0  0  0  0  0  0  0  0  0
    0.7534    1.1202    1.9978 H   0  0  0  0  0  0  0  0  0  0  0  0
   -1.5831    2.0841    0.3388 H   0  0  0  0  0  0  0  0  0  0  0  0
   -1.5654    2.1628    2.0929 H   0  0  0  0  0  0  0  0  0  0  0  0
    1.0258   -1.1213   -1.0061 H   0  0  0  0  0  0  0  0  0  0  0  0
   -3.6965    0.9117   -0.8045 H   0  0  0  0  0  0  0  0  0  0  0  0
    2.3177   -0.4163    0.9319 H   0  0  0  0  0  0  0  0  0  0  0  0
    1.2559   -1.2414    2.0463 H   0  0  0  0  0  0  0  0  0  0  0  0
   -3.6996    0.9921    2.2410 H   0  0  0  0  0  0  0  0  0  0  0  0
   -3.8420    2.3378    1.1396 H   0  0  0  0  0  0  0  0  0  0  0  0
   -2.3943   -0.6798    2.8567 H   0  0  0  0  0  0  0  0  0  0  0  0
   -0.9615    0.1318    3.4739 H   0  0  0  0  0  0  0  0  0  0  0  0
   -0.8338   -1.4647    2.7364 H   0  0  0  0  0  0  0  0  0  0  0  0
    1.4591   -3.5550   -0.9350 H   0  0  0  0  0  0  0  0  0  0  0  0
   -3.2779   -1.3911   -2.0080 H   0  0  0  0  0  0  0  0  0  0  0  0
   -4.7157   -1.8204   -1.0749 H   0  0  0  0  0  0  0  0  0  0  0  0
   -3.3036   -2.8322   -0.9574 H   0  0  0  0  0  0  0  0  0  0  0  0
   -5.6098   -0.5268    0.9220 H   0  0  0  0  0  0  0  0  0  0  0  0
   -0.7836   -2.0381   -1.9965 H   0  0  0  0  0  0  0  0  0  0  0  0
    0.3674   -4.1288    1.2329 H   0  0  0  0  0  0  0  0  0  0  0  0
    1.6194   -3.2404    2.1325 H   0  0  0  0  0  0  0  0  0  0  0  0
    2.0269   -4.6528    1.1980 H   0  0  0  0  0  0  0  0  0  0  0  0
    2.7485   -1.6647   -1.9760 H   0  0  0  0  0  0  0  0  0  0  0  0
   -7.6502   -0.1775    0.6203 H   0  0  0  0  0  0  0  0  0  0  0  0
    5.5337   -2.1292   -1.2255 H   0  0  0  0  0  0  0  0  0  0  0  0
    4.9082   -1.3699   -2.6865 H   0  0  0  0  0  0  0  0  0  0  0  0
   -9.5253    1.0936    0.2821 H   0  0  0  0  0  0  0  0  0  0  0  0
   -8.5240    2.4530   -0.2693 H   0  0  0  0  0  0  0  0  0  0  0  0
   -8.2215    1.3335   -2.4916 H   0  0  0  0  0  0  0  0  0  0  0  0
   -9.2026   -0.0299   -1.9404 H   0  0  0  0  0  0  0  0  0  0  0  0
   -9.9397    1.5727   -2.1285 H   0  0  0  0  0  0  0  0  0  0  0  0
    3.9077    1.0068   -2.5097 H   0  0  0  0  0  0  0  0  0  0  0  0
    6.3133   -0.7773    0.5913 H   0  0  0  0  0  0  0  0  0  0  0  0
    4.3318    3.1994   -1.6120 H   0  0  0  0  0  0  0  0  0  0  0  0
    6.7610    1.4570    1.5263 H   0  0  0  0  0  0  0  0  0  0  0  0
    5.5466    5.7420    0.4396 H   0  0  0  0  0  0  0  0  0  0  0  0
    4.1517    4.7980   -0.0718 H   0  0  0  0  0  0  0  0  0  0  0  0
    5.6242    4.9479   -1.1294 H   0  0  0  0  0  0  0  0  0  0  0  0
  1 11  1  0  0  0  0
  1 55  1  0  0  0  0
  2 22  2  0  0  0  0
  3 23  2  0  0  0  0
  4 32  1  0  0  0  0
  4 33  1  0  0  0  0
  5 15  1  0  0  0  0
  5 23  1  0  0  0  0
  5 54  1  0  0  0  0
  6 22  1  0  0  0  0
  6 24  1  0  0  0  0
  6 59  1  0  0  0  0
  7 23  1  0  0  0  0
  7 25  1  0  0  0  0
  7 60  1  0  0  0  0
  8  9  1  0  0  0  0
  8 12  1  0  0  0  0
  8 13  1  0  0  0  0
  8 18  1  0  0  0  0
  9 10  1  0  0  0  0
  9 11  1  0  0  0  0
  9 34  1  0  0  0  0
 10 15  1  0  0  0  0
 10 20  1  0  0  0  0
 10 35  1  0  0  0  0
 11 14  1  0  0  0  0
 11 36  1  0  0  0  0
 12 16  1  0  0  0  0
 12 37  1  0  0  0  0
 12 38  1  0  0  0  0
 13 17  1  0  0  0  0
 13 39  1  0  0  0  0
 13 40  1  0  0  0  0
 14 16  1  0  0  0  0
 14 19  1  0  0  0  0
 14 41  1  0  0  0  0
 15 17  1  0  0  0  0
 15 42  1  0  0  0  0
 16 43  1  0  0  0  0
 16 44  1  0  0  0  0
 17 45  1  0  0  0  0
 17 46  1  0  0  0  0
 18 47  1  0  0  0  0
 18 48  1  0  0  0  0
 18 49  1  0  0  0  0
 19 21  1  0  0  0  0
 19 22  1  0  0  0  0
 19 50  1  0  0  0  0
 20 51  1  0  0  0  0
 20 52  1  0  0  0  0
 20 53  1  0  0  0  0
 21 56  1  0  0  0  0
 21 57  1  0  0  0  0
 21 58  1  0  0  0  0
 24 26  1  0  0  0  0
 24 61  1  0  0  0  0
 24 62  1  0  0  0  0
 25 27  1  0  0  0  0
 25 63  1  0  0  0  0
 25 64  1  0  0  0  0
 26 28  2  0  0  0  0
 26 29  1  0  0  0  0
 27 65  1  0  0  0  0
 27 66  1  0  0  0  0
 27 67  1  0  0  0  0
 28 30  1  0  0  0  0
 28 68  1  0  0  0  0
 29 31  2  0  0  0  0
 29 69  1  0  0  0  0
 30 32  2  0  0  0  0
 30 70  1  0  0  0  0
 31 32  1  0  0  0  0
 31 71  1  0  0  0  0
 33 72  1  0  0  0  0
 33 73  1  0  0  0  0
 33 74  1  0  0  0  0
M  END
> <PUBCHEM_COMPOUND_CID>
45361654

> <PUBCHEM_CONFORMER_RMSD>
1.2

> <PUBCHEM_CONFORMER_DIVERSEORDER>
1
3
8
19
41
31
101
110
100
18
98
2
39
25
87
70
69
79
28
108
45
32
104
85
53
99
112
74
15
94
12
84
29
95
73
82
80
5
67
50
107
76
72
42
17
75
54
68
40
47
6
38
92
62
103
11
27
37
66
56
63
58
81
61
77
43
113
7
91
48
86
24
22
33
89
102
109
9
57
34
16
20
90
93
111
52
49
13
105
65
4
55
46
78
97
36
59
44
21
35
83
14
23
30
60
26
10
51
71
96
88
64
106

> <PUBCHEM_MMFF94_PARTIAL_CHARGES>
29
1 -0.68
11 0.28
15 0.3
19 0.06
2 -0.57
22 0.57
23 0.69
24 0.44
25 0.3
26 -0.14
28 -0.15
29 -0.15
3 -0.57
30 -0.15
31 -0.15
32 0.08
33 0.28
4 -0.36
5 -0.73
54 0.37
55 0.4
59 0.37
6 -0.73
60 0.37
68 0.15
69 0.15
7 -0.73
70 0.15
71 0.15

> <PUBCHEM_EFFECTIVE_ROTOR_COUNT>
11.6

> <PUBCHEM_PHARMACOPHORE_FEATURES>
12
1 1 acceptor
1 1 donor
1 2 acceptor
1 21 hydrophobe
1 3 acceptor
1 4 acceptor
1 5 donor
1 6 donor
1 7 donor
6 26 28 29 30 31 32 rings
6 8 9 10 13 15 17 rings
6 8 9 11 12 14 16 rings

> <PUBCHEM_HEAVY_ATOM_COUNT>
33

> <PUBCHEM_ATOM_DEF_STEREO_COUNT>
6

> <PUBCHEM_ATOM_UDEF_STEREO_COUNT>
1

> <PUBCHEM_BOND_DEF_STEREO_COUNT>
0

> <PUBCHEM_BOND_UDEF_STEREO_COUNT>
0

> <PUBCHEM_ISOTOPIC_ATOM_COUNT>
0

> <PUBCHEM_COMPONENT_COUNT>
1

> <PUBCHEM_CACTVS_TAUTO_COUNT>
6

> <PUBCHEM_CONFORMER_ID>
02B429F600000001

> <PUBCHEM_MMFF94_ENERGY>
91.2442

> <PUBCHEM_FEATURE_SELFOVERLAP>
60.963

> <PUBCHEM_SHAPE_FINGERPRINT>
10673678 19 18412548703961879775
10675989 125 18341337751622042368
10816530 90 18412816997494165593
10883706 89 8934732123651918231
10928967 22 9726819131997271588
11007060 377 18334022666707873129
11135609 127 18409721863698181005
11135609 187 18198341951892075344
11211813 74 18409165477320373589
11386260 185 18200320914261333782
117089 54 8573619506657149504
13150687 139 18130518465927748134
13617811 41 18343295964060548201
14117953 113 18341337751964816716
14556957 393 17346328046434150689
14675020 138 15285360583377694835
14790565 3 18271821076687718770
15082195 135 18342177730722309482
15183329 4 18202291298705987057
15840311 113 18408888404209920471
1813 80 11743845742446676858
19053607 189 17982444099916316432
19319366 153 18339358565766720059
20511986 3 18272083920312505926
20715895 44 18410856599159671528
21049683 118 17748825246080926690
21792934 111 11746932067580565615
23522609 53 17488202425976360089
23559900 14 17560792268934438937
23569914 2 17171477131906579501
3117164 225 11098121293463227470
3472631 163 18343868827151429110
34797466 226 18059863818049933887
3534868 343 17630898092478954574
4112364 45 18187632623064881520
44317340 157 18411707573155742542
44880168 125 14129876195167536392
5109719 28 18336557121749670649
56633871 153 10737276991764302576
57634706 306 18335135435876428205
6898599 12 18058730350347665887
9981440 41 18124881407557282658

> <PUBCHEM_SHAPE_MULTIPOLES>
640.7
20.84
4.37
1.62
32.85
1.32
-0.23
19.96
8.77
-8.33
-0.02
0.43
-0.13
0.58

> <PUBCHEM_SHAPE_SELFOVERLAP>
1323.275

> <PUBCHEM_SHAPE_VOLUME>
364.3

> <PUBCHEM_COORDINATE_TYPE>
2
5
10

$$$$
