75536857
  -OEChem-12032416303D

 44 46  0     1  0  0  0  0  0999 V2000
    1.7631   -0.9369   -1.3676 S   0  0  0  0  0  0  0  0  0  0  0  0
    6.6084   -1.5014    1.9401 F   0  0  0  0  0  0  0  0  0  0  0  0
   -6.7739   -1.0617    0.4344 F   0  0  0  0  0  0  0  0  0  0  0  0
   -5.8874   -1.3233   -1.5337 F   0  0  0  0  0  0  0  0  0  0  0  0
   -5.3944   -2.7018    0.0665 F   0  0  0  0  0  0  0  0  0  0  0  0
    1.6276    3.6076   -0.1141 O   0  0  0  0  0  0  0  0  0  0  0  0
   -1.2846    1.8512    1.2536 O   0  0  0  0  0  0  0  0  0  0  0  0
    2.1594   -1.0207   -2.7553 O   0  0  0  0  0  0  0  0  0  0  0  0
    0.7459   -1.8087   -0.8245 O   0  0  0  0  0  0  0  0  0  0  0  0
    1.3473    0.6899   -1.0061 N   0  0  1  0  0  0  0  0  0  0  0  0
   -2.1404    0.0952    0.0044 N   0  0  0  0  0  0  0  0  0  0  0  0
    0.7229    0.9052    0.3343 C   0  0  0  0  0  0  0  0  0  0  0  0
   -0.2902    2.0436    0.2481 C   0  0  2  0  0  0  0  0  0  0  0  0
    2.3896    1.6976   -1.3627 C   0  0  0  0  0  0  0  0  0  0  0  0
    0.3249    3.4336    0.4262 C   0  0  0  0  0  0  0  0  0  0  0  0
    1.8052    3.1024   -1.4317 C   0  0  0  0  0  0  0  0  0  0  0  0
    3.2135   -1.1067   -0.3771 C   0  0  0  0  0  0  0  0  0  0  0  0
    3.1102   -1.5526    0.9406 C   0  0  0  0  0  0  0  0  0  0  0  0
    4.4634   -0.7945   -0.9120 C   0  0  0  0  0  0  0  0  0  0  0  0
   -2.3566    1.0726    0.9130 C   0  0  0  0  0  0  0  0  0  0  0  0
    4.2570   -1.6864    1.7233 C   0  0  0  0  0  0  0  0  0  0  0  0
    5.6101   -0.9282   -0.1291 C   0  0  0  0  0  0  0  0  0  0  0  0
   -3.5836    1.3225    1.5061 C   0  0  0  0  0  0  0  0  0  0  0  0
    5.5069   -1.3744    1.1884 C   0  0  0  0  0  0  0  0  0  0  0  0
   -4.6579    0.5175    1.1433 C   0  0  0  0  0  0  0  0  0  0  0  0
   -4.4748   -0.4984    0.2117 C   0  0  0  0  0  0  0  0  0  0  0  0
   -3.2079   -0.6668   -0.3235 C   0  0  0  0  0  0  0  0  0  0  0  0
   -5.6036   -1.3763   -0.1971 C   0  0  0  0  0  0  0  0  0  0  0  0
    1.4974    1.1347    1.0769 H   0  0  0  0  0  0  0  0  0  0  0  0
    0.2462   -0.0097    0.6936 H   0  0  0  0  0  0  0  0  0  0  0  0
   -0.7679    2.0380   -0.7429 H   0  0  0  0  0  0  0  0  0  0  0  0
    2.7985    1.4590   -2.3498 H   0  0  0  0  0  0  0  0  0  0  0  0
    3.1951    1.6790   -0.6215 H   0  0  0  0  0  0  0  0  0  0  0  0
   -0.3412    4.1907   -0.0059 H   0  0  0  0  0  0  0  0  0  0  0  0
    0.3899    3.6779    1.4932 H   0  0  0  0  0  0  0  0  0  0  0  0
    2.5386    3.7571   -1.9147 H   0  0  0  0  0  0  0  0  0  0  0  0
    0.8826    3.1580   -2.0209 H   0  0  0  0  0  0  0  0  0  0  0  0
    2.1472   -1.7976    1.3792 H   0  0  0  0  0  0  0  0  0  0  0  0
    4.5689   -0.4452   -1.9351 H   0  0  0  0  0  0  0  0  0  0  0  0
    4.1772   -2.0324    2.7496 H   0  0  0  0  0  0  0  0  0  0  0  0
    6.5834   -0.6848   -0.5449 H   0  0  0  0  0  0  0  0  0  0  0  0
   -3.7097    2.1192    2.2311 H   0  0  0  0  0  0  0  0  0  0  0  0
   -5.6288    0.6964    1.5964 H   0  0  0  0  0  0  0  0  0  0  0  0
   -3.0039   -1.4429   -1.0547 H   0  0  0  0  0  0  0  0  0  0  0  0
  1  8  2  0  0  0  0
  1  9  2  0  0  0  0
  1 10  1  0  0  0  0
  1 17  1  0  0  0  0
  2 24  1  0  0  0  0
  3 28  1  0  0  0  0
  4 28  1  0  0  0  0
  5 28  1  0  0  0  0
  6 15  1  0  0  0  0
  6 16  1  0  0  0  0
  7 13  1  0  0  0  0
  7 20  1  0  0  0  0
 10 12  1  0  0  0  0
 10 14  1  0  0  0  0
 11 20  2  0  0  0  0
 11 27  1  0  0  0  0
 12 13  1  0  0  0  0
 12 29  1  0  0  0  0
 12 30  1  0  0  0  0
 13 15  1  0  0  0  0
 13 31  1  0  0  0  0
 14 16  1  0  0  0  0
 14 32  1  0  0  0  0
 14 33  1  0  0  0  0
 15 34  1  0  0  0  0
 15 35  1  0  0  0  0
 16 36  1  0  0  0  0
 16 37  1  0  0  0  0
 17 18  2  0  0  0  0
 17 19  1  0  0  0  0
 18 21  1  0  0  0  0
 18 38  1  0  0  0  0
 19 22  2  0  0  0  0
 19 39  1  0  0  0  0
 20 23  1  0  0  0  0
 21 24  2  0  0  0  0
 21 40  1  0  0  0  0
 22 24  1  0  0  0  0
 22 41  1  0  0  0  0
 23 25  2  0  0  0  0
 23 42  1  0  0  0  0
 25 26  1  0  0  0  0
 25 43  1  0  0  0  0
 26 27  2  0  0  0  0
 26 28  1  0  0  0  0
 27 44  1  0  0  0  0
M  END
> <PUBCHEM_COMPOUND_CID>
75536857

> <PUBCHEM_CONFORMER_RMSD>
0.8

> <PUBCHEM_CONFORMER_DIVERSEORDER>
1
229
340
56
266
318
268
328
250
176
241
41
272
282
88
190
125
249
263
262
94
242
161
105
338
261
217
186
172
221
116
79
123
237
309
98
283
330
60
337
11
50
329
167
149
136
89
193
295
70
206
252
114
74
216
285
210
312
160
215
181
306
191
226
203
308
121
122
294
99
320
293
107
76
276
133
247
83
159
102
259
57
326
45
211
314
348
292
150
173
347
187
62
225
287
179
19
258
339
305
155
280
137
204
321
288
15
61
81
129
180
344
345
349
168
224
117
28
9
271
6
302
10
166
332
311
38
255
33
156
112
200
279
118
162
267
336
185
299
126
243
24
65
198
265
67
96
177
275
343
256
12
188
307
95
119
175
220
327
228
342
68
189
232
13
152
148
101
290
296
297
134
234
106
73
35
315
192
325
218
233
341
153
316
205
322
253
128
141
42
140
169
335
303
27
142
49
34
317
269
222
182
87
145
91
313
238
324
333
40
16
331
20
138
7
170
174
289
346
143
151
104
278
236
77
273
75
208
197
8
270
111
334
146
286
115
230
4
214
246
304
251
223
63
163
157
132
21
2
44
183
158
80
277
31
298
93
291
260
69
82
52
209
3
100
164
26
231
245
207
84
54
144
323
213
135
139
25
227
131
244
113
5
239
32
254
301
281
264
240
29
130
235
86
248
184
72
257
196
108
103
124
319
90
120
194
199
171
23
300
201
178
18
165
37
66
92
195
97
39
284
30
219
48
202
109
71
55
58
274
64
59
36
78
212
310
47
43
110
51
46
14
147
53
154
127
22
85
17

> <PUBCHEM_MMFF94_PARTIAL_CHARGES>
35
1 1.45
10 -0.85
11 -0.62
12 0.36
13 0.28
14 0.36
15 0.28
16 0.28
17 -0.01
18 -0.15
19 -0.15
2 -0.19
20 0.39
21 -0.15
22 -0.15
23 -0.15
24 0.19
25 -0.15
26 -0.14
27 0.16
28 1.16
3 -0.34
38 0.15
39 0.15
4 -0.34
40 0.15
41 0.15
42 0.15
43 0.15
44 0.15
5 -0.34
6 -0.56
7 -0.36
8 -0.65
9 -0.65

> <PUBCHEM_EFFECTIVE_ROTOR_COUNT>
6.4

> <PUBCHEM_PHARMACOPHORE_FEATURES>
6
1 6 acceptor
1 8 acceptor
1 9 acceptor
6 11 20 23 25 26 27 rings
6 17 18 19 21 22 24 rings
7 6 10 12 13 14 15 16 rings

> <PUBCHEM_HEAVY_ATOM_COUNT>
28

> <PUBCHEM_ATOM_DEF_STEREO_COUNT>
1

> <PUBCHEM_ATOM_UDEF_STEREO_COUNT>
0

> <PUBCHEM_BOND_DEF_STEREO_COUNT>
0

> <PUBCHEM_BOND_UDEF_STEREO_COUNT>
0

> <PUBCHEM_ISOTOPIC_ATOM_COUNT>
0

> <PUBCHEM_COMPONENT_COUNT>
1

> <PUBCHEM_CACTVS_TAUTO_COUNT>
1

> <PUBCHEM_CONFORMER_ID>
048099D900000001

> <PUBCHEM_MMFF94_ENERGY>
65.3412

> <PUBCHEM_FEATURE_SELFOVERLAP>
30.466

> <PUBCHEM_SHAPE_FINGERPRINT>
10447042 23 17531253825157403226
11552529 35 17832984950052195576
11963148 33 17547287170013148543
12166972 35 17822012003862880494
12553582 1 18194707898247183861
12616971 3 18338252513440783393
12623949 98 17560250102803186062
13083527 12 18410575072295739508
14178342 30 17987247624834016449
14251757 17 14418420944995787338
14863182 85 17489601060052657734
15052358 14 12829491407303553866
15183329 4 13767922390728623202
17349148 13 18341058457738955843
17857418 61 18408888438590627283
1813 80 18409736123211234268
18222031 100 18409735028231716766
18681886 176 17845953917129774364
19026451 147 18409451413881387794
1979834 28 17346611780621460223
20028762 73 18342177760845947414
20567600 70 18337673112945337074
20621476 91 18340758257195374088
20626108 58 18412548699503466520
21033648 29 17060052601682246067
21049683 118 17126189579551620472
2132832 1 18342177773878295289
21424621 283 9294990359551300582
21458453 9 16915355900894227082
23559900 14 14634878573467142055
23622692 118 18413671314287906633
25147074 1 18270419251408859761
3004659 81 18341625827699184069
314194 84 18041005007510948802
339767 52 18272086059369658197
4098825 35 17894630357922237821
4394409 98 18337376159808818855
439807 62 18115593789777126371
5104073 3 18130239258709204361
56616090 89 18272088275135420625
6669772 16 17970632015816525976
67856867 119 18341617070134526569

> <PUBCHEM_SHAPE_MULTIPOLES>
517.54
14.32
3.33
1.74
9.07
3.15
0.32
-12.83
-3.56
-0.45
0.13
-1.5
-0.31
-2.48

> <PUBCHEM_SHAPE_SELFOVERLAP>
1092.946

> <PUBCHEM_SHAPE_VOLUME>
291.3

> <PUBCHEM_COORDINATE_TYPE>
2
5
10

$$$$
