45783589
  -OEChem-12032416393D

 61 65  0     1  0  0  0  0  0999 V2000
   -4.4714   -0.9425   -0.8708 O   0  0  0  0  0  0  0  0  0  0  0  0
    3.0583   -1.7117   -1.6154 O   0  0  0  0  0  0  0  0  0  0  0  0
    4.2703   -0.0526    1.4316 N   0  0  1  0  0  0  0  0  0  0  0  0
    1.7843   -1.0214    0.0927 N   0  0  0  0  0  0  0  0  0  0  0  0
    1.7335   -1.7800   -2.0650 N   0  0  0  0  0  0  0  0  0  0  0  0
   -2.4197   -0.7074    0.1860 N   0  0  0  0  0  0  0  0  0  0  0  0
    4.3204   -1.0916    0.3836 C   0  0  1  0  0  0  0  0  0  0  0  0
    4.7589   -2.3702    1.1213 C   0  0  0  0  0  0  0  0  0  0  0  0
    4.9902   -1.9385    2.5624 C   0  0  0  0  0  0  0  0  0  0  0  0
    5.2407   -0.4480    2.4525 C   0  0  0  0  0  0  0  0  0  0  0  0
   -5.0269   -0.4748    0.3536 C   0  0  0  0  0  0  0  0  0  0  0  0
    4.5257    1.2890    0.9230 C   0  0  0  0  0  0  0  0  0  0  0  0
   -6.4037   -1.1026    0.5650 C   0  0  0  0  0  0  0  0  0  0  0  0
   -5.1013    1.0514    0.3331 C   0  0  0  0  0  0  0  0  0  0  0  0
   -7.0830   -0.5571    1.8171 C   0  0  0  0  0  0  0  0  0  0  0  0
   -5.7804    1.5970    1.5851 C   0  0  0  0  0  0  0  0  0  0  0  0
   -7.1553    0.9680    1.7978 C   0  0  0  0  0  0  0  0  0  0  0  0
    2.9985   -1.2564   -0.3365 C   0  0  0  0  0  0  0  0  0  0  0  0
    3.3079    1.8799    0.2637 C   0  0  0  0  0  0  0  0  0  0  0  0
    1.0424   -1.3572   -1.0022 C   0  0  0  0  0  0  0  0  0  0  0  0
    3.3624    2.2787   -1.0718 C   0  0  0  0  0  0  0  0  0  0  0  0
    2.1261    2.0312    0.9892 C   0  0  0  0  0  0  0  0  0  0  0  0
   -3.1072   -1.0526   -0.9256 C   0  0  0  0  0  0  0  0  0  0  0  0
   -0.3874   -1.2603   -1.0011 C   0  0  0  0  0  0  0  0  0  0  0  0
    2.2352    2.8289   -1.6819 C   0  0  0  0  0  0  0  0  0  0  0  0
    0.9989    2.5814    0.3791 C   0  0  0  0  0  0  0  0  0  0  0  0
    1.0534    2.9801   -0.9565 C   0  0  0  0  0  0  0  0  0  0  0  0
   -2.5158   -1.5033   -2.0947 C   0  0  0  0  0  0  0  0  0  0  0  0
   -1.1294   -1.6063   -2.1251 C   0  0  0  0  0  0  0  0  0  0  0  0
   -1.0741   -0.8205    0.1191 C   0  0  0  0  0  0  0  0  0  0  0  0
   -0.1516    3.5691   -1.6091 C   0  0  0  0  0  0  0  0  0  0  0  0
    5.0938   -0.8563   -0.3611 H   0  0  0  0  0  0  0  0  0  0  0  0
    5.6995   -2.7382    0.6934 H   0  0  0  0  0  0  0  0  0  0  0  0
    4.0264   -3.1831    1.0715 H   0  0  0  0  0  0  0  0  0  0  0  0
    4.0899   -2.1323    3.1585 H   0  0  0  0  0  0  0  0  0  0  0  0
    5.8259   -2.4717    3.0250 H   0  0  0  0  0  0  0  0  0  0  0  0
    5.0667    0.0602    3.4060 H   0  0  0  0  0  0  0  0  0  0  0  0
    6.2721   -0.2584    2.1293 H   0  0  0  0  0  0  0  0  0  0  0  0
   -4.4306   -0.7992    1.2177 H   0  0  0  0  0  0  0  0  0  0  0  0
    4.7763    1.9619    1.7553 H   0  0  0  0  0  0  0  0  0  0  0  0
    5.3968    1.3117    0.2550 H   0  0  0  0  0  0  0  0  0  0  0  0
   -6.3085   -2.1931    0.6327 H   0  0  0  0  0  0  0  0  0  0  0  0
   -7.0337   -0.9137   -0.3140 H   0  0  0  0  0  0  0  0  0  0  0  0
   -5.6488    1.3801   -0.5600 H   0  0  0  0  0  0  0  0  0  0  0  0
   -4.0991    1.4858    0.2407 H   0  0  0  0  0  0  0  0  0  0  0  0
   -6.5293   -0.8848    2.7056 H   0  0  0  0  0  0  0  0  0  0  0  0
   -8.0934   -0.9730    1.8994 H   0  0  0  0  0  0  0  0  0  0  0  0
   -5.1486    1.3975    2.4593 H   0  0  0  0  0  0  0  0  0  0  0  0
   -5.8815    2.6852    1.5056 H   0  0  0  0  0  0  0  0  0  0  0  0
   -7.5838    1.3286    2.7397 H   0  0  0  0  0  0  0  0  0  0  0  0
   -7.8306    1.2899    0.9954 H   0  0  0  0  0  0  0  0  0  0  0  0
    4.2757    2.1648   -1.6496 H   0  0  0  0  0  0  0  0  0  0  0  0
    2.0694    1.7294    2.0317 H   0  0  0  0  0  0  0  0  0  0  0  0
    2.2897    3.1332   -2.7238 H   0  0  0  0  0  0  0  0  0  0  0  0
    0.0831    2.6924    0.9537 H   0  0  0  0  0  0  0  0  0  0  0  0
   -3.1093   -1.7690   -2.9627 H   0  0  0  0  0  0  0  0  0  0  0  0
   -0.6603   -1.9592   -3.0398 H   0  0  0  0  0  0  0  0  0  0  0  0
   -0.5652   -0.5322    1.0342 H   0  0  0  0  0  0  0  0  0  0  0  0
    0.1278    4.2436   -2.4255 H   0  0  0  0  0  0  0  0  0  0  0  0
   -0.7379    4.1563   -0.8942 H   0  0  0  0  0  0  0  0  0  0  0  0
   -0.7849    2.7733   -2.0141 H   0  0  0  0  0  0  0  0  0  0  0  0
  1 11  1  0  0  0  0
  1 23  1  0  0  0  0
  2  5  1  0  0  0  0
  2 18  1  0  0  0  0
  3  7  1  0  0  0  0
  3 10  1  0  0  0  0
  3 12  1  0  0  0  0
  4 18  2  0  0  0  0
  4 20  1  0  0  0  0
  5 20  2  0  0  0  0
  6 23  2  0  0  0  0
  6 30  1  0  0  0  0
  7  8  1  0  0  0  0
  7 18  1  0  0  0  0
  7 32  1  0  0  0  0
  8  9  1  0  0  0  0
  8 33  1  0  0  0  0
  8 34  1  0  0  0  0
  9 10  1  0  0  0  0
  9 35  1  0  0  0  0
  9 36  1  0  0  0  0
 10 37  1  0  0  0  0
 10 38  1  0  0  0  0
 11 13  1  0  0  0  0
 11 14  1  0  0  0  0
 11 39  1  0  0  0  0
 12 19  1  0  0  0  0
 12 40  1  0  0  0  0
 12 41  1  0  0  0  0
 13 15  1  0  0  0  0
 13 42  1  0  0  0  0
 13 43  1  0  0  0  0
 14 16  1  0  0  0  0
 14 44  1  0  0  0  0
 14 45  1  0  0  0  0
 15 17  1  0  0  0  0
 15 46  1  0  0  0  0
 15 47  1  0  0  0  0
 16 17  1  0  0  0  0
 16 48  1  0  0  0  0
 16 49  1  0  0  0  0
 17 50  1  0  0  0  0
 17 51  1  0  0  0  0
 19 21  2  0  0  0  0
 19 22  1  0  0  0  0
 20 24  1  0  0  0  0
 21 25  1  0  0  0  0
 21 52  1  0  0  0  0
 22 26  2  0  0  0  0
 22 53  1  0  0  0  0
 23 28  1  0  0  0  0
 24 29  1  0  0  0  0
 24 30  2  0  0  0  0
 25 27  2  0  0  0  0
 25 54  1  0  0  0  0
 26 27  1  0  0  0  0
 26 55  1  0  0  0  0
 27 31  1  0  0  0  0
 28 29  2  0  0  0  0
 28 56  1  0  0  0  0
 29 57  1  0  0  0  0
 30 58  1  0  0  0  0
 31 59  1  0  0  0  0
 31 60  1  0  0  0  0
 31 61  1  0  0  0  0
M  END
> <PUBCHEM_COMPOUND_CID>
45783589

> <PUBCHEM_CONFORMER_RMSD>
1.2

> <PUBCHEM_CONFORMER_DIVERSEORDER>
1
48
32
15
66
59
31
14
8
27
39
52
37
41
55
22
46
40
26
45
61
47
56
11
16
65
10
58
19
49
2
3
21
38
44
64
33
6
9
12
57
29
51
50
36
4
18
53
23
13
62
60
17
5
63
67
42
68
7
43
35
54
25
20
28
34
30
24

> <PUBCHEM_MMFF94_PARTIAL_CHARGES>
31
1 -0.36
10 0.27
11 0.28
12 0.41
18 0.3
19 -0.14
2 -0.02
20 0.46
21 -0.15
22 -0.15
23 0.39
24 0.05
25 -0.15
26 -0.15
27 -0.14
28 -0.15
29 -0.15
3 -0.81
30 0.16
31 0.14
4 -0.57
5 -0.41
52 0.15
53 0.15
54 0.15
55 0.15
56 0.15
57 0.15
58 0.15
6 -0.62
7 0.45

> <PUBCHEM_EFFECTIVE_ROTOR_COUNT>
8.2

> <PUBCHEM_PHARMACOPHORE_FEATURES>
7
1 3 cation
3 4 5 20 cation
5 2 4 5 18 20 rings
5 3 7 8 9 10 rings
6 11 13 14 15 16 17 rings
6 19 21 22 25 26 27 rings
6 6 23 24 28 29 30 rings

> <PUBCHEM_HEAVY_ATOM_COUNT>
31

> <PUBCHEM_ATOM_DEF_STEREO_COUNT>
1

> <PUBCHEM_ATOM_UDEF_STEREO_COUNT>
0

> <PUBCHEM_BOND_DEF_STEREO_COUNT>
0

> <PUBCHEM_BOND_UDEF_STEREO_COUNT>
0

> <PUBCHEM_ISOTOPIC_ATOM_COUNT>
0

> <PUBCHEM_COMPONENT_COUNT>
1

> <PUBCHEM_CACTVS_TAUTO_COUNT>
1

> <PUBCHEM_CONFORMER_ID>
02BA9A2500000001

> <PUBCHEM_MMFF94_ENERGY>
61.4307

> <PUBCHEM_FEATURE_SELFOVERLAP>
35.525

> <PUBCHEM_SHAPE_FINGERPRINT>
10190108 129 18335130966007905586
10439779 11 17988927799303876841
10674148 151 18129395955067028932
10688039 33 17968365776238486636
11545043 162 16660630839796568287
11578080 2 17170136951753845328
12422481 6 18270953553444775377
12633257 1 18042114508979349663
13150687 139 10591754446781321898
13782708 43 16950278512343755603
13965767 371 17987492941151078946
14294032 229 17059495296001686839
14950920 106 18187366558520571075
15274700 259 18337946785597174501
15420108 30 17843105172970248084
15840311 113 17274830091488598427
17980427 23 17703209819483607646
1979834 28 17988648475445806902
21033648 29 17489299780755397675
21304253 335 17632576045890832271
21304303 94 8574714615758025116
21421861 104 18408600375340040300
21703447 108 12973891476307937111
22033318 11 18265067855375968041
22149856 69 17202506497558308003
23559900 14 17560536005442876903
249057 25 18200863089500200447
3472631 163 15625934391311402378
3680242 22 18335420157858938443
4112364 45 17417524830273048945
4144715 1 18340505395639461771
44280116 191 13031093315313630899
5104073 3 18337400439253466875
513202 73 17821722807068195637
513532 50 16415492536050656044
5283268 108 18336257969140912140
58260988 587 16661225774640533596
5951187 136 16486699185429816832
7064713 232 17703215304399424310

> <PUBCHEM_SHAPE_MULTIPOLES>
606.3
15.8
3.51
2.37
25.79
3.08
-0.13
-3.44
-13.3
-3.52
1.11
-0.5
-0.72
-2.44

> <PUBCHEM_SHAPE_SELFOVERLAP>
1308.797

> <PUBCHEM_SHAPE_VOLUME>
332.3

> <PUBCHEM_COORDINATE_TYPE>
2
5
10

$$$$
