75536792
  -OEChem-12032416313D

 48 50  0     1  0  0  0  0  0999 V2000
   -7.1905   -0.3053    0.6649 F   0  0  0  0  0  0  0  0  0  0  0  0
   -7.4854    1.8491    0.6521 F   0  0  0  0  0  0  0  0  0  0  0  0
    0.5546    0.3165   -1.0266 O   0  0  0  0  0  0  0  0  0  0  0  0
   -0.6448   -2.3746    1.0288 O   0  0  0  0  0  0  0  0  0  0  0  0
    3.8678   -1.3764    1.4560 O   0  0  0  0  0  0  0  0  0  0  0  0
   -2.8475   -0.9226   -0.6789 N   0  0  0  0  0  0  0  0  0  0  0  0
    3.1703   -0.8307   -0.6884 N   0  0  0  0  0  0  0  0  0  0  0  0
    7.4570    1.7624   -0.0414 N   0  0  0  0  0  0  0  0  0  0  0  0
   -3.8563    0.1006   -0.4099 C   0  0  0  0  0  0  0  0  0  0  0  0
   -1.5359   -0.4831   -0.2316 C   0  0  1  0  0  0  0  0  0  0  0  0
   -0.5142   -1.6020   -0.1488 C   0  0  1  0  0  0  0  0  0  0  0  0
   -4.2897    0.0305    1.0595 C   0  0  0  0  0  0  0  0  0  0  0  0
   -5.0523   -0.0879   -1.3513 C   0  0  0  0  0  0  0  0  0  0  0  0
    0.7877   -0.8124   -0.1681 C   0  0  1  0  0  0  0  0  0  0  0  0
   -0.8641    0.4657   -1.2107 C   0  0  0  0  0  0  0  0  0  0  0  0
   -5.3963    1.0395    1.3606 C   0  0  0  0  0  0  0  0  0  0  0  0
   -6.1593    0.9209   -1.0513 C   0  0  0  0  0  0  0  0  0  0  0  0
   -6.5711    0.8768    0.4107 C   0  0  0  0  0  0  0  0  0  0  0  0
    1.9689   -1.6147   -0.6844 C   0  0  0  0  0  0  0  0  0  0  0  0
    4.0366   -0.7739    0.3991 C   0  0  0  0  0  0  0  0  0  0  0  0
    5.2246    0.1049    0.2464 C   0  0  0  0  0  0  0  0  0  0  0  0
    5.8192    0.6758    1.3663 C   0  0  0  0  0  0  0  0  0  0  0  0
    5.7450    0.3617   -1.0172 C   0  0  0  0  0  0  0  0  0  0  0  0
    6.9232    1.4897    1.1704 C   0  0  0  0  0  0  0  0  0  0  0  0
    6.8525    1.1897   -1.1065 C   0  0  0  0  0  0  0  0  0  0  0  0
   -3.4522    1.1013   -0.6126 H   0  0  0  0  0  0  0  0  0  0  0  0
   -1.5859   -0.0147    0.7591 H   0  0  0  0  0  0  0  0  0  0  0  0
   -0.5860   -2.2674   -1.0182 H   0  0  0  0  0  0  0  0  0  0  0  0
   -3.4546    0.2293    1.7394 H   0  0  0  0  0  0  0  0  0  0  0  0
   -4.6562   -0.9771    1.2980 H   0  0  0  0  0  0  0  0  0  0  0  0
   -5.4562   -1.1041   -1.2500 H   0  0  0  0  0  0  0  0  0  0  0  0
   -4.7338    0.0242   -2.3951 H   0  0  0  0  0  0  0  0  0  0  0  0
   -3.1039   -1.7939   -0.2158 H   0  0  0  0  0  0  0  0  0  0  0  0
    1.0191   -0.4206    0.8312 H   0  0  0  0  0  0  0  0  0  0  0  0
   -1.0823    0.2105   -2.2542 H   0  0  0  0  0  0  0  0  0  0  0  0
   -1.1400    1.5117   -1.0469 H   0  0  0  0  0  0  0  0  0  0  0  0
   -5.0024    2.0605    1.2884 H   0  0  0  0  0  0  0  0  0  0  0  0
   -5.7391    0.9066    2.3931 H   0  0  0  0  0  0  0  0  0  0  0  0
   -5.8243    1.9328   -1.3093 H   0  0  0  0  0  0  0  0  0  0  0  0
   -7.0281    0.7063   -1.6838 H   0  0  0  0  0  0  0  0  0  0  0  0
    1.8005   -1.9232   -1.7220 H   0  0  0  0  0  0  0  0  0  0  0  0
    2.1221   -2.5122   -0.0756 H   0  0  0  0  0  0  0  0  0  0  0  0
   -0.5832   -1.7785    1.7942 H   0  0  0  0  0  0  0  0  0  0  0  0
    3.3349   -0.2545   -1.5069 H   0  0  0  0  0  0  0  0  0  0  0  0
    5.4420    0.5047    2.3688 H   0  0  0  0  0  0  0  0  0  0  0  0
    5.3449   -0.0748   -1.9250 H   0  0  0  0  0  0  0  0  0  0  0  0
    7.4227    1.9601    2.0110 H   0  0  0  0  0  0  0  0  0  0  0  0
    7.3011    1.4161   -2.0682 H   0  0  0  0  0  0  0  0  0  0  0  0
  1 18  1  0  0  0  0
  2 18  1  0  0  0  0
  3 14  1  0  0  0  0
  3 15  1  0  0  0  0
  4 11  1  0  0  0  0
  4 43  1  0  0  0  0
  5 20  2  0  0  0  0
  6  9  1  0  0  0  0
  6 10  1  0  0  0  0
  6 33  1  0  0  0  0
  7 19  1  0  0  0  0
  7 20  1  0  0  0  0
  7 44  1  0  0  0  0
  8 24  2  0  0  0  0
  8 25  1  0  0  0  0
  9 12  1  0  0  0  0
  9 13  1  0  0  0  0
  9 26  1  0  0  0  0
 10 11  1  0  0  0  0
 10 15  1  0  0  0  0
 10 27  1  0  0  0  0
 11 14  1  0  0  0  0
 11 28  1  0  0  0  0
 12 16  1  0  0  0  0
 12 29  1  0  0  0  0
 12 30  1  0  0  0  0
 13 17  1  0  0  0  0
 13 31  1  0  0  0  0
 13 32  1  0  0  0  0
 14 19  1  0  0  0  0
 14 34  1  0  0  0  0
 15 35  1  0  0  0  0
 15 36  1  0  0  0  0
 16 18  1  0  0  0  0
 16 37  1  0  0  0  0
 16 38  1  0  0  0  0
 17 18  1  0  0  0  0
 17 39  1  0  0  0  0
 17 40  1  0  0  0  0
 19 41  1  0  0  0  0
 19 42  1  0  0  0  0
 20 21  1  0  0  0  0
 21 22  2  0  0  0  0
 21 23  1  0  0  0  0
 22 24  1  0  0  0  0
 22 45  1  0  0  0  0
 23 25  2  0  0  0  0
 23 46  1  0  0  0  0
 24 47  1  0  0  0  0
 25 48  1  0  0  0  0
M  END
> <PUBCHEM_COMPOUND_CID>
75536792

> <PUBCHEM_CONFORMER_RMSD>
0.8

> <PUBCHEM_CONFORMER_DIVERSEORDER>
1
98
19
8
194
187
116
59
125
179
35
202
55
102
192
64
203
121
163
94
205
141
174
198
75
161
66
171
91
57
146
124
45
196
16
110
178
158
41
165
33
184
29
172
155
108
61
127
195
138
5
38
181
67
73
199
83
77
112
168
164
117
32
27
170
31
200
50
99
189
106
162
139
129
54
81
20
95
190
160
133
191
24
62
101
166
176
180
123
188
135
109
39
136
186
144
143
151
115
173
122
9
152
119
193
130
37
68
74
204
46
132
159
48
22
150
201
87
111
43
49
131
56
79
167
11
197
30
105
76
148
118
85
177
145
78
28
156
93
185
44
140
169
40
97
18
183
10
182
114
84
86
69
53
104
15
126
82
142
23
128
42
26
58
134
65
88
60
17
3
13
80
51
96
107
113
34
4
72
157
92
7
12
103
70
2
6
52
47
149
137
154
25
120
90
71
153
21
175
63
89
14
147
100
36

> <PUBCHEM_MMFF94_PARTIAL_CHARGES>
28
1 -0.34
10 0.27
11 0.28
14 0.28
15 0.28
18 0.68
19 0.3
2 -0.34
20 0.54
21 0.09
22 -0.15
23 -0.15
24 0.16
25 0.16
3 -0.56
33 0.36
4 -0.68
43 0.4
44 0.37
45 0.15
46 0.15
47 0.15
48 0.15
5 -0.57
6 -0.9
7 -0.73
8 -0.62
9 0.27

> <PUBCHEM_EFFECTIVE_ROTOR_COUNT>
8.2

> <PUBCHEM_PHARMACOPHORE_FEATURES>
11
1 3 acceptor
1 4 acceptor
1 4 donor
1 5 acceptor
1 6 cation
1 6 donor
1 7 donor
1 8 acceptor
5 3 10 11 14 15 rings
6 8 21 22 23 24 25 rings
6 9 12 13 16 17 18 rings

> <PUBCHEM_HEAVY_ATOM_COUNT>
25

> <PUBCHEM_ATOM_DEF_STEREO_COUNT>
3

> <PUBCHEM_ATOM_UDEF_STEREO_COUNT>
0

> <PUBCHEM_BOND_DEF_STEREO_COUNT>
0

> <PUBCHEM_BOND_UDEF_STEREO_COUNT>
0

> <PUBCHEM_ISOTOPIC_ATOM_COUNT>
0

> <PUBCHEM_COMPONENT_COUNT>
1

> <PUBCHEM_CACTVS_TAUTO_COUNT>
2

> <PUBCHEM_CONFORMER_ID>
0480999800000001

> <PUBCHEM_MMFF94_ENERGY>
48.7149

> <PUBCHEM_FEATURE_SELFOVERLAP>
55.822

> <PUBCHEM_SHAPE_FINGERPRINT>
10 15 17168145650106699510
106641 1 18113622313571599739
10670039 82 14620523297967565762
10753850 27 7925913673231679958
10906281 52 18336554884235109686
11315181 36 18413105070800964079
11991303 11 13901614268751016429
12166972 35 13542460999019115258
12236239 1 18201718406557162959
125118 31 18337954489275125101
12596602 18 18187085027244906419
12670543 26 13254799027297271839
12760667 363 9079119968292756438
13533116 47 18339922607095092922
13540713 5 17243313891357606782
13668630 136 9007055760174068825
13673619 4 8574715697952913166
13685833 64 11386364846721776534
13782708 43 7781513715622680006
13862211 1 9151174255284844702
14251752 14 13542465349704733156
14251764 18 18187083983583709559
14347332 77 10447663378656243694
14556957 393 13973697173194087682
14849402 71 18337675312449062509
14933364 13 16917350341840017229
15048467 5 18201719552469119670
15183329 4 14333135169503313338
15188451 53 12468352457952860006
15348495 7 16515693280994120216
15419008 91 11026072563916448182
15461852 350 17060049360110592053
15706992 2 18272102612052609689
15716309 27 13695589961960063135
1577012 14 18060133228758772519
16988056 13 15410601645520371370
16994733 274 18342736287098475145
17093844 174 16081083767619119525
1768 124 12685083779453110784
17980427 23 18114462383120544910
190975 80 16588027943356222704
2026 5 7853577902890049705
20281389 69 18413106134766059992
21130935 74 18041563534155009731
21150785 3 15697999647597230084
21424621 283 18342181029431311547
21637258 2 11314027984740352190
221357 26 15267346223929145714
2215653 11 12967130527894922438
22224240 67 18113618984792902547
23035841 295 7925908180306202877
23081809 10 18060125523276603687
23569943 247 8646507227008993157
23576562 1 14763758929130322577
249999 5 18042400245070956234
29717793 49 10663817490367856930
3004659 81 12895070713290584070
4073 2 18343304777512845815
4340502 62 16298103177464312874
445580 37 16630813192573925129
5104073 3 17314238936778577232
5283156 175 10737282446551849885
543368 44 18131350791966083289
559249 180 12179843897312575195
5758199 1 18410576180386381963
59682541 35 17676211307268931217
59682541 52 14836411328867271116
59755656 215 11887678368296474044
6438161 24 10952052226333244140

> <PUBCHEM_SHAPE_MULTIPOLES>
467.39
23.43
1.69
1.39
0.78
0.19
-0.07
-15.32
-2.09
0.66
-0.37
0.2
-0.11
-0.44

> <PUBCHEM_SHAPE_SELFOVERLAP>
982.471

> <PUBCHEM_SHAPE_VOLUME>
264.5

> <PUBCHEM_COORDINATE_TYPE>
2
5
10

$$$$
