51137603
  -OEChem-12032416243D

 45 48  0     1  0  0  0  0  0999 V2000
    9.3120    1.1320    0.3411 F   0  0  0  0  0  0  0  0  0  0  0  0
    1.0852   -0.1372    0.3643 O   0  0  0  0  0  0  0  0  0  0  0  0
    3.9960   -0.0376   -0.4186 O   0  0  0  0  0  0  0  0  0  0  0  0
   -3.6458   -0.0468    0.2350 N   0  0  1  0  0  0  0  0  0  0  0  0
    0.1115   -1.9803   -0.4474 N   0  0  0  0  0  0  0  0  0  0  0  0
    1.4562   -2.2491   -0.2736 N   0  0  0  0  0  0  0  0  0  0  0  0
   -8.4647    1.3324   -0.1617 N   0  0  0  0  0  0  0  0  0  0  0  0
   -1.3200    0.0959   -0.0285 C   0  0  1  0  0  0  0  0  0  0  0  0
   -2.0053    0.2874   -1.3927 C   0  0  0  0  0  0  0  0  0  0  0  0
   -2.4086   -0.5024    0.8725 C   0  0  0  0  0  0  0  0  0  0  0  0
   -3.4228   -0.2350   -1.1984 C   0  0  0  0  0  0  0  0  0  0  0  0
   -4.8155   -0.7689    0.7134 C   0  0  0  0  0  0  0  0  0  0  0  0
   -0.0596   -0.7372   -0.0625 C   0  0  0  0  0  0  0  0  0  0  0  0
   -6.0928   -0.0330    0.4070 C   0  0  0  0  0  0  0  0  0  0  0  0
    1.9849   -1.1455    0.2015 C   0  0  0  0  0  0  0  0  0  0  0  0
   -6.4608    1.0727    1.1656 C   0  0  0  0  0  0  0  0  0  0  0  0
   -6.9093   -0.4567   -0.6356 C   0  0  0  0  0  0  0  0  0  0  0  0
    3.3760   -0.8596    0.5739 C   0  0  0  0  0  0  0  0  0  0  0  0
   -7.6455    1.7148    0.8437 C   0  0  0  0  0  0  0  0  0  0  0  0
   -8.0741    0.2538   -0.8771 C   0  0  0  0  0  0  0  0  0  0  0  0
    5.3179    0.2533   -0.2297 C   0  0  0  0  0  0  0  0  0  0  0  0
    5.9894   -0.2460    0.8864 C   0  0  0  0  0  0  0  0  0  0  0  0
    5.9959    1.0491   -1.1532 C   0  0  0  0  0  0  0  0  0  0  0  0
    7.3384    0.0508    1.0792 C   0  0  0  0  0  0  0  0  0  0  0  0
    7.3450    1.3461   -0.9603 C   0  0  0  0  0  0  0  0  0  0  0  0
    8.0163    0.8469    0.1559 C   0  0  0  0  0  0  0  0  0  0  0  0
   -1.0578    1.0927    0.3538 H   0  0  0  0  0  0  0  0  0  0  0  0
   -2.0283    1.3559   -1.6413 H   0  0  0  0  0  0  0  0  0  0  0  0
   -1.4971   -0.2335   -2.2111 H   0  0  0  0  0  0  0  0  0  0  0  0
   -2.3212   -0.1328    1.9000 H   0  0  0  0  0  0  0  0  0  0  0  0
   -2.3497   -1.5989    0.8952 H   0  0  0  0  0  0  0  0  0  0  0  0
   -4.1345    0.3248   -1.8132 H   0  0  0  0  0  0  0  0  0  0  0  0
   -3.4672   -1.2936   -1.4853 H   0  0  0  0  0  0  0  0  0  0  0  0
   -4.8528   -1.7972    0.3289 H   0  0  0  0  0  0  0  0  0  0  0  0
   -4.7663   -0.8739    1.8066 H   0  0  0  0  0  0  0  0  0  0  0  0
   -5.8476    1.4303    1.9858 H   0  0  0  0  0  0  0  0  0  0  0  0
   -6.6526   -1.3139   -1.2486 H   0  0  0  0  0  0  0  0  0  0  0  0
    3.8954   -1.8233    0.6493 H   0  0  0  0  0  0  0  0  0  0  0  0
    3.3773   -0.3501    1.5457 H   0  0  0  0  0  0  0  0  0  0  0  0
   -7.9774    2.5821    1.4048 H   0  0  0  0  0  0  0  0  0  0  0  0
   -8.7451   -0.0357   -1.6791 H   0  0  0  0  0  0  0  0  0  0  0  0
    5.5290   -0.8650    1.6484 H   0  0  0  0  0  0  0  0  0  0  0  0
    5.4781    1.4407   -2.0245 H   0  0  0  0  0  0  0  0  0  0  0  0
    7.8623   -0.3360    1.9484 H   0  0  0  0  0  0  0  0  0  0  0  0
    7.8731    1.9658   -1.6789 H   0  0  0  0  0  0  0  0  0  0  0  0
  1 26  1  0  0  0  0
  2 13  1  0  0  0  0
  2 15  1  0  0  0  0
  3 18  1  0  0  0  0
  3 21  1  0  0  0  0
  4 10  1  0  0  0  0
  4 11  1  0  0  0  0
  4 12  1  0  0  0  0
  5  6  1  0  0  0  0
  5 13  2  0  0  0  0
  6 15  2  0  0  0  0
  7 19  2  0  0  0  0
  7 20  1  0  0  0  0
  8  9  1  0  0  0  0
  8 10  1  0  0  0  0
  8 13  1  0  0  0  0
  8 27  1  0  0  0  0
  9 11  1  0  0  0  0
  9 28  1  0  0  0  0
  9 29  1  0  0  0  0
 10 30  1  0  0  0  0
 10 31  1  0  0  0  0
 11 32  1  0  0  0  0
 11 33  1  0  0  0  0
 12 14  1  0  0  0  0
 12 34  1  0  0  0  0
 12 35  1  0  0  0  0
 14 16  2  0  0  0  0
 14 17  1  0  0  0  0
 15 18  1  0  0  0  0
 16 19  1  0  0  0  0
 16 36  1  0  0  0  0
 17 20  2  0  0  0  0
 17 37  1  0  0  0  0
 18 38  1  0  0  0  0
 18 39  1  0  0  0  0
 19 40  1  0  0  0  0
 20 41  1  0  0  0  0
 21 22  2  0  0  0  0
 21 23  1  0  0  0  0
 22 24  1  0  0  0  0
 22 42  1  0  0  0  0
 23 25  2  0  0  0  0
 23 43  1  0  0  0  0
 24 26  2  0  0  0  0
 24 44  1  0  0  0  0
 25 26  1  0  0  0  0
 25 45  1  0  0  0  0
M  END
> <PUBCHEM_COMPOUND_CID>
51137603

> <PUBCHEM_CONFORMER_RMSD>
1.2

> <PUBCHEM_CONFORMER_DIVERSEORDER>
1
57
50
66
4
76
33
71
47
35
75
26
68
14
52
32
42
59
22
31
2
11
65
46
19
6
8
64
45
73
61
34
40
7
60
28
56
69
20
29
39
36
30
5
53
17
43
77
41
10
15
37
74
48
24
78
67
9
3
54
13
21
70
23
49
44
62
72
38
25
18
27
63
55
51
12
16
58

> <PUBCHEM_MMFF94_PARTIAL_CHARGES>
33
1 -0.19
10 0.27
11 0.27
12 0.41
13 0.3
14 -0.14
15 0.3
16 -0.15
17 -0.15
18 0.46
19 0.16
2 -0.28
20 0.16
21 0.08
22 -0.15
23 -0.15
24 -0.15
25 -0.15
26 0.19
3 -0.36
36 0.15
37 0.15
4 -0.81
40 0.15
41 0.15
42 0.15
43 0.15
44 0.15
45 0.15
5 -0.34
6 -0.34
7 -0.62
8 0.18

> <PUBCHEM_EFFECTIVE_ROTOR_COUNT>
7

> <PUBCHEM_PHARMACOPHORE_FEATURES>
7
1 3 acceptor
1 4 cation
1 7 acceptor
5 2 5 6 13 15 rings
5 4 8 9 10 11 rings
6 21 22 23 24 25 26 rings
6 7 14 16 17 19 20 rings

> <PUBCHEM_HEAVY_ATOM_COUNT>
26

> <PUBCHEM_ATOM_DEF_STEREO_COUNT>
1

> <PUBCHEM_ATOM_UDEF_STEREO_COUNT>
0

> <PUBCHEM_BOND_DEF_STEREO_COUNT>
0

> <PUBCHEM_BOND_UDEF_STEREO_COUNT>
0

> <PUBCHEM_ISOTOPIC_ATOM_COUNT>
0

> <PUBCHEM_COMPONENT_COUNT>
1

> <PUBCHEM_CACTVS_TAUTO_COUNT>
1

> <PUBCHEM_CONFORMER_ID>
030C4C4300000001

> <PUBCHEM_MMFF94_ENERGY>
60.0943

> <PUBCHEM_FEATURE_SELFOVERLAP>
35.523

> <PUBCHEM_SHAPE_FINGERPRINT>
10 15 17458345238477381423
10066227 49 12463303474767729972
10533779 47 16226047734777947232
106641 1 17967537883037974675
10670039 82 14620519995791881859
10904742 90 18060418014770569142
11135926 11 13695862654118999187
11315181 36 18411419510869785547
11386260 185 14404889297989221522
11638347 137 15213013839583727440
12592606 108 10015863184706382676
12645989 146 10879983658537882307
13553643 46 17530681004895195093
13668630 136 7853575712260575224
13685833 64 8502653701335740070
14150022 121 18187081712026902989
14251764 18 18335421265908038881
14251764 46 18260828198035074730
14344974 52 17060048298066531880
14428016 248 18334580161467850276
14617042 71 17749961085048773604
15152005 1 14689152774930131837
15183329 4 14333134052701163742
15419008 47 14634860972569987462
15461852 350 17131827695137219149
155225 1 18413951684883015945
15690457 1 8142085351692057384
15849732 13 16343983615531825721
17093844 174 16370725929685841953
1754908 1 14707213231487362449
1754911 235 17418092113822207945
1818759 1 8358259263139750968
19301679 30 11386625409676835352
19841028 212 11098116856883817296
2026 5 10735619968113543980
20721686 146 17916871193472670269
21095086 128 11167933668115086693
21150785 3 15985103007551379289
21267235 1 8935001473102800722
21792934 111 15574714699331469423
22224240 67 18186238433114008099
23576562 1 16342836851386172041
24771293 8 18408326566885260541
249057 3 15339113572155460592
3004659 81 12823295698283966022
3711267 37 18201168710177161008
4073 2 18409173195361014243
4325135 7 17967812751626983711
4340502 62 16732702744755502850
444769 64 9511453438731584829
45377200 153 14188994731916183877
5104073 3 16588859058309486889
5758199 1 18412262830986189011
59682541 35 17603871134500263121
636775 72 18114461151203818013
636775 8 16773789351903634287
68570916 9 15648198436590438659
9953998 17 17167864188136340219

> <PUBCHEM_SHAPE_MULTIPOLES>
496.13
30.39
1.45
1.14
9.4
0.2
0.07
-15.99
-2.66
0.12
0.05
-0.39
-0.16
-1.22

> <PUBCHEM_SHAPE_SELFOVERLAP>
1072.878

> <PUBCHEM_SHAPE_VOLUME>
274.5

> <PUBCHEM_COORDINATE_TYPE>
2
5
10

$$$$
