38026852
  -OEChem-12032416253D

 70 72  0     1  0  0  0  0  0999 V2000
   -2.8624    1.4514   -0.8705 S   0  0  0  0  0  0  0  0  0  0  0  0
   -8.5129    1.8183    0.7766 F   0  0  0  0  0  0  0  0  0  0  0  0
    3.5424   -2.5020    0.2378 O   0  0  0  0  0  0  0  0  0  0  0  0
   -2.8264    0.9858   -2.2438 O   0  0  0  0  0  0  0  0  0  0  0  0
   -2.2338    2.7076   -0.5095 O   0  0  0  0  0  0  0  0  0  0  0  0
    6.6133    3.9323   -0.2698 O   0  0  0  0  0  0  0  0  0  0  0  0
   -2.2813    0.2214    0.1552 N   0  0  0  0  0  0  0  0  0  0  0  0
    4.0696   -0.2613   -0.0716 N   0  0  0  0  0  0  0  0  0  0  0  0
    6.1111    1.6953    0.1013 N   0  0  0  0  0  0  0  0  0  0  0  0
   -0.6758   -2.2005   -0.5772 C   0  0  1  0  0  0  0  0  0  0  0  0
   -1.8059   -2.1570    0.4817 C   0  0  1  0  0  0  0  0  0  0  0  0
    0.5681   -2.8977   -0.0055 C   0  0  0  0  0  0  0  0  0  0  0  0
    1.1056   -2.1905    1.2529 C   0  0  2  0  0  0  0  0  0  0  0  0
   -1.1247   -2.9094   -1.8590 C   0  0  0  0  0  0  0  0  0  0  0  0
   -0.0025   -1.8706    2.2356 C   0  0  0  0  0  0  0  0  0  0  0  0
   -1.2985   -1.8737    1.8762 C   0  0  0  0  0  0  0  0  0  0  0  0
   -2.8749   -1.1240    0.1076 C   0  0  0  0  0  0  0  0  0  0  0  0
    1.8926   -0.9283    0.8835 C   0  0  0  0  0  0  0  0  0  0  0  0
   -0.2904   -2.4400   -3.0467 C   0  0  0  0  0  0  0  0  0  0  0  0
   -1.0257   -4.4224   -1.6926 C   0  0  0  0  0  0  0  0  0  0  0  0
    0.4102   -1.5915    3.6541 C   0  0  0  0  0  0  0  0  0  0  0  0
    3.2389   -1.3092    0.3215 C   0  0  0  0  0  0  0  0  0  0  0  0
    5.3956   -0.5474   -0.6250 C   0  0  0  0  0  0  0  0  0  0  0  0
    3.7098    1.1628   -0.0546 C   0  0  0  0  0  0  0  0  0  0  0  0
    6.4711    0.2713    0.0842 C   0  0  0  0  0  0  0  0  0  0  0  0
    4.7853    1.9812    0.6549 C   0  0  0  0  0  0  0  0  0  0  0  0
   -4.5562    1.5611   -0.3768 C   0  0  0  0  0  0  0  0  0  0  0  0
    6.9408    2.7432   -0.2941 C   0  0  0  0  0  0  0  0  0  0  0  0
   -4.9294    2.4338    0.6455 C   0  0  0  0  0  0  0  0  0  0  0  0
   -5.5196    0.7753   -1.0093 C   0  0  0  0  0  0  0  0  0  0  0  0
    8.3174    2.3669   -0.7804 C   0  0  0  0  0  0  0  0  0  0  0  0
   -6.2660    2.5208    1.0350 C   0  0  0  0  0  0  0  0  0  0  0  0
   -6.8561    0.8622   -0.6196 C   0  0  0  0  0  0  0  0  0  0  0  0
   -7.2294    1.7350    0.4024 C   0  0  0  0  0  0  0  0  0  0  0  0
   -0.4011   -1.1716   -0.8384 H   0  0  0  0  0  0  0  0  0  0  0  0
   -2.3011   -3.1350    0.5295 H   0  0  0  0  0  0  0  0  0  0  0  0
    1.3497   -2.9833   -0.7661 H   0  0  0  0  0  0  0  0  0  0  0  0
    0.3265   -3.9206    0.3115 H   0  0  0  0  0  0  0  0  0  0  0  0
    1.7687   -2.9060    1.7594 H   0  0  0  0  0  0  0  0  0  0  0  0
   -2.1660   -2.6625   -2.0891 H   0  0  0  0  0  0  0  0  0  0  0  0
   -2.0549   -1.6827    2.6351 H   0  0  0  0  0  0  0  0  0  0  0  0
   -3.7020   -1.1624    0.8266 H   0  0  0  0  0  0  0  0  0  0  0  0
   -3.2913   -1.3311   -0.8807 H   0  0  0  0  0  0  0  0  0  0  0  0
    2.0794   -0.3152    1.7722 H   0  0  0  0  0  0  0  0  0  0  0  0
    1.3490   -0.3188    0.1556 H   0  0  0  0  0  0  0  0  0  0  0  0
    0.7716   -2.6768   -2.9298 H   0  0  0  0  0  0  0  0  0  0  0  0
   -0.3834   -1.3576   -3.1867 H   0  0  0  0  0  0  0  0  0  0  0  0
   -0.6345   -2.9207   -3.9691 H   0  0  0  0  0  0  0  0  0  0  0  0
    0.0058   -4.7900   -1.7013 H   0  0  0  0  0  0  0  0  0  0  0  0
   -1.5221   -4.9104   -2.5406 H   0  0  0  0  0  0  0  0  0  0  0  0
   -1.5302   -4.7827   -0.7913 H   0  0  0  0  0  0  0  0  0  0  0  0
    1.0103   -2.4194    4.0455 H   0  0  0  0  0  0  0  0  0  0  0  0
   -0.4535   -1.4723    4.3171 H   0  0  0  0  0  0  0  0  0  0  0  0
    1.0001   -0.6728    3.7183 H   0  0  0  0  0  0  0  0  0  0  0  0
   -1.8842    0.5103    1.0576 H   0  0  0  0  0  0  0  0  0  0  0  0
    5.3598   -0.2881   -1.6900 H   0  0  0  0  0  0  0  0  0  0  0  0
    5.6293   -1.6141   -0.5510 H   0  0  0  0  0  0  0  0  0  0  0  0
    2.7452    1.3425    0.4222 H   0  0  0  0  0  0  0  0  0  0  0  0
    3.6224    1.4780   -1.1014 H   0  0  0  0  0  0  0  0  0  0  0  0
    6.5606   -0.0444    1.1306 H   0  0  0  0  0  0  0  0  0  0  0  0
    7.4358    0.0971   -0.3953 H   0  0  0  0  0  0  0  0  0  0  0  0
    4.5515    3.0479    0.5826 H   0  0  0  0  0  0  0  0  0  0  0  0
    4.8209    1.7207    1.7195 H   0  0  0  0  0  0  0  0  0  0  0  0
   -4.1950    3.0495    1.1568 H   0  0  0  0  0  0  0  0  0  0  0  0
   -5.2512    0.0873   -1.8059 H   0  0  0  0  0  0  0  0  0  0  0  0
    8.2437    1.7632   -1.6888 H   0  0  0  0  0  0  0  0  0  0  0  0
    8.8602    1.8244   -0.0017 H   0  0  0  0  0  0  0  0  0  0  0  0
    8.8805    3.2749   -1.0175 H   0  0  0  0  0  0  0  0  0  0  0  0
   -6.5569    3.1989    1.8318 H   0  0  0  0  0  0  0  0  0  0  0  0
   -7.6064    0.2500   -1.1113 H   0  0  0  0  0  0  0  0  0  0  0  0
  1  4  2  0  0  0  0
  1  5  2  0  0  0  0
  1  7  1  0  0  0  0
  1 27  1  0  0  0  0
  2 34  1  0  0  0  0
  3 22  2  0  0  0  0
  6 28  2  0  0  0  0
  7 17  1  0  0  0  0
  7 55  1  0  0  0  0
  8 22  1  0  0  0  0
  8 23  1  0  0  0  0
  8 24  1  0  0  0  0
  9 25  1  0  0  0  0
  9 26  1  0  0  0  0
  9 28  1  0  0  0  0
 10 11  1  0  0  0  0
 10 12  1  0  0  0  0
 10 14  1  0  0  0  0
 10 35  1  0  0  0  0
 11 16  1  0  0  0  0
 11 17  1  0  0  0  0
 11 36  1  0  0  0  0
 12 13  1  0  0  0  0
 12 37  1  0  0  0  0
 12 38  1  0  0  0  0
 13 15  1  0  0  0  0
 13 18  1  0  0  0  0
 13 39  1  0  0  0  0
 14 19  1  0  0  0  0
 14 20  1  0  0  0  0
 14 40  1  0  0  0  0
 15 16  2  0  0  0  0
 15 21  1  0  0  0  0
 16 41  1  0  0  0  0
 17 42  1  0  0  0  0
 17 43  1  0  0  0  0
 18 22  1  0  0  0  0
 18 44  1  0  0  0  0
 18 45  1  0  0  0  0
 19 46  1  0  0  0  0
 19 47  1  0  0  0  0
 19 48  1  0  0  0  0
 20 49  1  0  0  0  0
 20 50  1  0  0  0  0
 20 51  1  0  0  0  0
 21 52  1  0  0  0  0
 21 53  1  0  0  0  0
 21 54  1  0  0  0  0
 23 25  1  0  0  0  0
 23 56  1  0  0  0  0
 23 57  1  0  0  0  0
 24 26  1  0  0  0  0
 24 58  1  0  0  0  0
 24 59  1  0  0  0  0
 25 60  1  0  0  0  0
 25 61  1  0  0  0  0
 26 62  1  0  0  0  0
 26 63  1  0  0  0  0
 27 29  2  0  0  0  0
 27 30  1  0  0  0  0
 28 31  1  0  0  0  0
 29 32  1  0  0  0  0
 29 64  1  0  0  0  0
 30 33  2  0  0  0  0
 30 65  1  0  0  0  0
 31 66  1  0  0  0  0
 31 67  1  0  0  0  0
 31 68  1  0  0  0  0
 32 34  2  0  0  0  0
 32 69  1  0  0  0  0
 33 34  1  0  0  0  0
 33 70  1  0  0  0  0
M  END
> <PUBCHEM_COMPOUND_CID>
38026852

> <PUBCHEM_CONFORMER_RMSD>
1.2

> <PUBCHEM_CONFORMER_DIVERSEORDER>
1
118
208
126
139
63
9
122
23
215
221
147
58
39
75
184
46
48
179
38
207
74
133
114
77
124
141
159
95
144
197
49
178
192
187
109
68
50
32
125
107
20
196
152
177
91
112
162
29
55
117
42
10
127
132
164
199
69
218
210
76
106
40
81
180
165
146
174
223
12
3
183
45
108
213
135
151
25
26
62
28
160
97
86
173
120
52
170
145
80
37
82
212
2
137
44
172
64
166
203
15
54
31
222
102
96
128
57
167
214
157
115
7
92
18
220
158
116
154
93
84
190
188
169
175
189
201
138
67
34
168
216
194
33
136
51
88
65
103
140
130
111
60
85
161
182
70
200
36
149
73
193
87
35
19
14
22
8
148
202
105
72
185
61
13
204
131
11
186
142
217
53
71
59
219
205
211
143
191
90
156
104
79
30
101
98
83
129
134
153
119
100
110
21
4
94
89
163
198
6
66
171
176
17
16
209
47
123
99
150
155
78
24
121
43
56
113
27
5
41
181
195
206

> <PUBCHEM_MMFF94_PARTIAL_CHARGES>
35
1 1.45
11 0.14
13 0.14
15 -0.28
16 -0.29
17 0.36
18 0.06
2 -0.19
21 0.14
22 0.57
23 0.3
24 0.3
25 0.3
26 0.3
27 -0.01
28 0.57
29 -0.15
3 -0.57
30 -0.15
31 0.06
32 -0.15
33 -0.15
34 0.19
4 -0.65
41 0.15
5 -0.65
55 0.42
6 -0.57
64 0.15
65 0.15
69 0.15
7 -0.91
70 0.15
8 -0.66
9 -0.66

> <PUBCHEM_EFFECTIVE_ROTOR_COUNT>
11

> <PUBCHEM_PHARMACOPHORE_FEATURES>
9
1 3 acceptor
1 4 acceptor
1 5 acceptor
1 6 acceptor
1 7 donor
3 14 19 20 hydrophobe
6 10 11 12 13 15 16 rings
6 27 29 30 32 33 34 rings
6 8 9 23 24 25 26 rings

> <PUBCHEM_HEAVY_ATOM_COUNT>
34

> <PUBCHEM_ATOM_DEF_STEREO_COUNT>
3

> <PUBCHEM_ATOM_UDEF_STEREO_COUNT>
0

> <PUBCHEM_BOND_DEF_STEREO_COUNT>
0

> <PUBCHEM_BOND_UDEF_STEREO_COUNT>
0

> <PUBCHEM_ISOTOPIC_ATOM_COUNT>
0

> <PUBCHEM_COMPONENT_COUNT>
1

> <PUBCHEM_CACTVS_TAUTO_COUNT>
1

> <PUBCHEM_CONFORMER_ID>
02443E6400000001

> <PUBCHEM_MMFF94_ENERGY>
63.0485

> <PUBCHEM_FEATURE_SELFOVERLAP>
45.69

> <PUBCHEM_SHAPE_FINGERPRINT>
10369192 42 18342458128105392757
10673678 19 18200879461614910443
11273773 42 18413385453986011349
11720765 8 8574125260404275487
1200032 147 18335138696373719984
12895836 83 18273489087562048947
12895837 130 18266180711303023484
12988421 55 16733529646466954538
14114211 68 17203329962372386767
14114211 80 18202286870873857339
14251764 75 18411419505477987916
14294032 229 18270965772785384571
14394314 77 18338521846445974873
15064981 113 17131565972725795396
15119646 57 18339636858229686740
15183329 4 14189286029213989235
16112460 7 18335144193695455896
16114785 44 18189620612554426642
16126227 98 18412544340211803157
16993427 108 10953743322028653029
17899979 129 18341337708503167670
19302320 297 18113899390771616900
19319366 153 18114172000054263618
19438510 23 18260829319411968618
21033648 29 18337945818569377408
21307412 95 13183015242199642061
21716022 299 15911087036980843079
21772528 278 18410008857834364183
23522609 53 17774167769709804553
2838139 119 18335696083738142886
437795 51 18410858750685567145
437815 12 9295280643315498503
44249763 50 17987223625237163992
44802255 64 18129671927557429182
469060 322 15791722035813207319
474113 269 7853573487905437449
5776283 40 18271525394302974752
58260988 587 18129389194376677639
6712543 237 14562528470660811337
7288768 16 17676201403364529626

> <PUBCHEM_SHAPE_MULTIPOLES>
657.86
20.05
4.86
2.17
7.24
1.1
-0.67
-29.75
1.7
1.46
1.24
-0.9
2.2
-1.71

> <PUBCHEM_SHAPE_SELFOVERLAP>
1348.244

> <PUBCHEM_SHAPE_VOLUME>
382.1

> <PUBCHEM_COORDINATE_TYPE>
2
5
10

$$$$
