71693153
  -OEChem-12032416303D

 65 67  0     1  0  0  0  0  0999 V2000
    3.8553   -1.7590   -1.2899 O   0  0  0  0  0  0  0  0  0  0  0  0
    3.7750   -0.0255    0.2555 N   0  0  0  0  0  0  0  0  0  0  0  0
   -2.8616    1.0104    1.4341 N   0  0  0  0  0  0  0  0  0  0  0  0
   -1.9132   -0.5585    0.1776 N   0  0  0  0  0  0  0  0  0  0  0  0
    3.6223   -2.2190    0.9723 N   0  0  0  0  0  0  0  0  0  0  0  0
    1.4027    1.2606   -1.0717 C   0  0  1  0  0  0  0  0  0  0  0  0
    2.6857    1.9849   -0.5931 C   0  0  1  0  0  0  0  0  0  0  0  0
    0.1520    2.0210   -0.6052 C   0  0  0  0  0  0  0  0  0  0  0  0
    0.0918    2.1587    0.9278 C   0  0  2  0  0  0  0  0  0  0  0  0
    1.3745    1.1007   -2.5949 C   0  0  0  0  0  0  0  0  0  0  0  0
    1.4163    2.6162    1.5046 C   0  0  0  0  0  0  0  0  0  0  0  0
    2.5627    2.5433    0.8053 C   0  0  0  0  0  0  0  0  0  0  0  0
    3.9046    1.0582   -0.6674 C   0  0  0  0  0  0  0  0  0  0  0  0
   -0.3694    0.8516    1.5820 C   0  0  0  0  0  0  0  0  0  0  0  0
    0.4868   -0.0752   -2.9902 C   0  0  0  0  0  0  0  0  0  0  0  0
    0.8929    2.3881   -3.2561 C   0  0  0  0  0  0  0  0  0  0  0  0
    1.3856    3.2024    2.8886 C   0  0  0  0  0  0  0  0  0  0  0  0
   -1.6988    0.4072    1.0427 C   0  0  0  0  0  0  0  0  0  0  0  0
    3.7592   -1.3734   -0.1256 C   0  0  0  0  0  0  0  0  0  0  0  0
   -3.8950    0.3930    0.7777 C   0  0  0  0  0  0  0  0  0  0  0  0
   -3.2775   -0.5825   -0.0001 C   0  0  0  0  0  0  0  0  0  0  0  0
   -4.0681   -1.4122   -0.8130 C   0  0  0  0  0  0  0  0  0  0  0  0
   -5.2751    0.5976    0.7970 C   0  0  0  0  0  0  0  0  0  0  0  0
   -5.4559   -1.2249   -0.8095 C   0  0  0  0  0  0  0  0  0  0  0  0
   -6.0467   -0.2371   -0.0181 C   0  0  0  0  0  0  0  0  0  0  0  0
    3.5781   -3.6572    0.8516 C   0  0  0  0  0  0  0  0  0  0  0  0
   -3.4840   -2.4822   -1.6766 C   0  0  0  0  0  0  0  0  0  0  0  0
    2.1587   -4.1812    0.6700 C   0  0  0  0  0  0  0  0  0  0  0  0
    1.2408   -3.8057    1.8246 C   0  0  0  0  0  0  0  0  0  0  0  0
    1.3716    0.2609   -0.6216 H   0  0  0  0  0  0  0  0  0  0  0  0
    2.8886    2.8421   -1.2473 H   0  0  0  0  0  0  0  0  0  0  0  0
   -0.7649    1.5820   -1.0071 H   0  0  0  0  0  0  0  0  0  0  0  0
    0.1766    3.0520   -0.9843 H   0  0  0  0  0  0  0  0  0  0  0  0
   -0.6545    2.9377    1.1405 H   0  0  0  0  0  0  0  0  0  0  0  0
    2.3774    0.8795   -2.9743 H   0  0  0  0  0  0  0  0  0  0  0  0
    3.4763    2.9304    1.2524 H   0  0  0  0  0  0  0  0  0  0  0  0
    4.8123    1.6044   -0.3836 H   0  0  0  0  0  0  0  0  0  0  0  0
    4.0715    0.6816   -1.6801 H   0  0  0  0  0  0  0  0  0  0  0  0
   -0.4619    0.9745    2.6684 H   0  0  0  0  0  0  0  0  0  0  0  0
    0.3634    0.0500    1.4274 H   0  0  0  0  0  0  0  0  0  0  0  0
   -0.5547    0.0684   -2.6864 H   0  0  0  0  0  0  0  0  0  0  0  0
    0.8460   -1.0062   -2.5383 H   0  0  0  0  0  0  0  0  0  0  0  0
    0.4962   -0.2130   -4.0770 H   0  0  0  0  0  0  0  0  0  0  0  0
   -0.1802    2.5639   -3.1271 H   0  0  0  0  0  0  0  0  0  0  0  0
    1.0545    2.3180   -4.3390 H   0  0  0  0  0  0  0  0  0  0  0  0
    1.4463    3.2694   -2.9185 H   0  0  0  0  0  0  0  0  0  0  0  0
    0.6765    4.0353    2.9329 H   0  0  0  0  0  0  0  0  0  0  0  0
    2.3642    3.5874    3.1948 H   0  0  0  0  0  0  0  0  0  0  0  0
    1.0852    2.4488    3.6226 H   0  0  0  0  0  0  0  0  0  0  0  0
    3.7581    0.1834    1.2492 H   0  0  0  0  0  0  0  0  0  0  0  0
   -2.9467    1.7760    2.0896 H   0  0  0  0  0  0  0  0  0  0  0  0
   -5.7313    1.3648    1.4122 H   0  0  0  0  0  0  0  0  0  0  0  0
    3.5408   -1.8084    1.8973 H   0  0  0  0  0  0  0  0  0  0  0  0
   -6.0922   -1.8530   -1.4291 H   0  0  0  0  0  0  0  0  0  0  0  0
   -7.1268   -0.1140   -0.0352 H   0  0  0  0  0  0  0  0  0  0  0  0
    4.1977   -3.9655    0.0026 H   0  0  0  0  0  0  0  0  0  0  0  0
    4.0244   -4.0714    1.7619 H   0  0  0  0  0  0  0  0  0  0  0  0
   -3.7353   -2.3009   -2.7267 H   0  0  0  0  0  0  0  0  0  0  0  0
   -2.3929   -2.5166   -1.5952 H   0  0  0  0  0  0  0  0  0  0  0  0
   -3.8736   -3.4619   -1.3815 H   0  0  0  0  0  0  0  0  0  0  0  0
    1.7329   -3.7899   -0.2617 H   0  0  0  0  0  0  0  0  0  0  0  0
    2.1902   -5.2728    0.5770 H   0  0  0  0  0  0  0  0  0  0  0  0
    0.2532   -4.2558    1.6806 H   0  0  0  0  0  0  0  0  0  0  0  0
    1.6413   -4.1657    2.7776 H   0  0  0  0  0  0  0  0  0  0  0  0
    1.1047   -2.7219    1.8936 H   0  0  0  0  0  0  0  0  0  0  0  0
  1 19  2  0  0  0  0
  2 13  1  0  0  0  0
  2 19  1  0  0  0  0
  2 50  1  0  0  0  0
  3 18  1  0  0  0  0
  3 20  1  0  0  0  0
  3 51  1  0  0  0  0
  4 18  2  0  0  0  0
  4 21  1  0  0  0  0
  5 19  1  0  0  0  0
  5 26  1  0  0  0  0
  5 53  1  0  0  0  0
  6  7  1  0  0  0  0
  6  8  1  0  0  0  0
  6 10  1  0  0  0  0
  6 30  1  0  0  0  0
  7 12  1  0  0  0  0
  7 13  1  0  0  0  0
  7 31  1  0  0  0  0
  8  9  1  0  0  0  0
  8 32  1  0  0  0  0
  8 33  1  0  0  0  0
  9 11  1  0  0  0  0
  9 14  1  0  0  0  0
  9 34  1  0  0  0  0
 10 15  1  0  0  0  0
 10 16  1  0  0  0  0
 10 35  1  0  0  0  0
 11 12  2  0  0  0  0
 11 17  1  0  0  0  0
 12 36  1  0  0  0  0
 13 37  1  0  0  0  0
 13 38  1  0  0  0  0
 14 18  1  0  0  0  0
 14 39  1  0  0  0  0
 14 40  1  0  0  0  0
 15 41  1  0  0  0  0
 15 42  1  0  0  0  0
 15 43  1  0  0  0  0
 16 44  1  0  0  0  0
 16 45  1  0  0  0  0
 16 46  1  0  0  0  0
 17 47  1  0  0  0  0
 17 48  1  0  0  0  0
 17 49  1  0  0  0  0
 20 21  1  0  0  0  0
 20 23  2  0  0  0  0
 21 22  2  0  0  0  0
 22 24  1  0  0  0  0
 22 27  1  0  0  0  0
 23 25  1  0  0  0  0
 23 52  1  0  0  0  0
 24 25  2  0  0  0  0
 24 54  1  0  0  0  0
 25 55  1  0  0  0  0
 26 28  1  0  0  0  0
 26 56  1  0  0  0  0
 26 57  1  0  0  0  0
 27 58  1  0  0  0  0
 27 59  1  0  0  0  0
 27 60  1  0  0  0  0
 28 29  1  0  0  0  0
 28 61  1  0  0  0  0
 28 62  1  0  0  0  0
 29 63  1  0  0  0  0
 29 64  1  0  0  0  0
 29 65  1  0  0  0  0
M  END
> <PUBCHEM_COMPOUND_CID>
71693153

> <PUBCHEM_CONFORMER_RMSD>
1

> <PUBCHEM_CONFORMER_DIVERSEORDER>
1
61
74
191
120
118
52
159
79
167
39
47
153
30
48
158
175
62
185
178
91
119
140
149
90
49
157
88
163
18
31
78
151
70
110
12
107
180
134
106
121
32
60
11
25
67
169
136
176
172
73
72
122
150
124
42
182
146
141
45
50
184
34
86
87
5
166
188
114
112
56
19
68
193
95
173
102
83
183
133
126
20
82
190
36
22
101
138
40
174
15
144
143
116
179
94
105
41
156
58
139
165
51
14
10
192
109
148
186
162
142
104
43
77
99
57
76
164
137
84
171
111
85
170
161
17
131
100
21
44
38
177
8
16
93
37
27
135
147
35
71
115
29
23
168
125
65
89
59
152
130
4
55
53
129
81
63
155
145
96
2
13
80
128
132
113
64
127
189
66
26
92
46
24
9
117
108
3
69
98
187
123
54
7
75
6
97
154
160
33
181
28
103

> <PUBCHEM_MMFF94_PARTIAL_CHARGES>
29
1 -0.57
11 -0.28
12 -0.29
13 0.3
14 0.18
17 0.14
18 0.01
19 0.69
2 -0.73
20 -0.15
21 0.23
22 -0.14
23 -0.15
24 -0.15
25 -0.15
26 0.3
27 0.14
3 0.03
36 0.15
4 -0.57
5 -0.73
50 0.37
51 0.27
52 0.15
53 0.37
54 0.15
55 0.15
7 0.14
9 0.14

> <PUBCHEM_EFFECTIVE_ROTOR_COUNT>
9.8

> <PUBCHEM_PHARMACOPHORE_FEATURES>
10
1 1 acceptor
1 2 donor
1 29 hydrophobe
1 3 donor
1 5 donor
3 10 15 16 hydrophobe
3 3 4 18 cation
5 3 4 18 20 21 rings
6 20 21 22 23 24 25 rings
6 6 7 8 9 11 12 rings

> <PUBCHEM_HEAVY_ATOM_COUNT>
29

> <PUBCHEM_ATOM_DEF_STEREO_COUNT>
3

> <PUBCHEM_ATOM_UDEF_STEREO_COUNT>
0

> <PUBCHEM_BOND_DEF_STEREO_COUNT>
0

> <PUBCHEM_BOND_UDEF_STEREO_COUNT>
0

> <PUBCHEM_ISOTOPIC_ATOM_COUNT>
0

> <PUBCHEM_COMPONENT_COUNT>
1

> <PUBCHEM_CACTVS_TAUTO_COUNT>
9

> <PUBCHEM_CONFORMER_ID>
0445F36100000001

> <PUBCHEM_MMFF94_ENERGY>
42.7751

> <PUBCHEM_FEATURE_SELFOVERLAP>
50.901

> <PUBCHEM_SHAPE_FINGERPRINT>
12617007 42 16660371384943260420
13533116 47 18412542141673746995
14068700 675 18269559347695667554
14251757 17 15213308473544089638
14705955 166 15768090065014876890
17138139 8 17985263229774065638
17349148 13 16917355844220897457
18681886 176 16056043587796538904
20511986 3 18201992248733228445
20626108 58 17704071815330740481
20764821 26 16751564088782275874
20775530 9 17827363176869184194
21285901 2 17458340810666715070
25222932 49 17412175839511727543
345986 75 18197213655282218234
35225 105 17254578495368929494
3680242 22 17846234249644774375
46194498 28 16517967122658966593
463206 1 18411703200773637818
484985 159 17183058043216252938
5081480 168 17459181885870574223
66674814 147 18115859857951655242
6823239 73 16772418229552311556
8509985 295 18131635582019490077
9709674 26 16915966108984430381

> <PUBCHEM_SHAPE_MULTIPOLES>
571.01
10.09
4.62
2.68
14.09
4.51
-1.48
4.75
-0.26
-5.96
2.21
-1.2
-1.67
-1.73

> <PUBCHEM_SHAPE_SELFOVERLAP>
1188.852

> <PUBCHEM_SHAPE_VOLUME>
325.3

> <PUBCHEM_COORDINATE_TYPE>
2
5
10

$$$$
