26743165
  -OEChem-12032416193D

 60 63  0     1  0  0  0  0  0999 V2000
   -4.6188    2.1802   -0.6715 F   0  0  0  0  0  0  0  0  0  0  0  0
    1.8384    1.6026    1.6569 O   0  0  0  0  0  0  0  0  0  0  0  0
    0.6835   -3.6729    0.1050 O   0  0  0  0  0  0  0  0  0  0  0  0
   -2.2214   -2.0130   -0.4629 O   0  0  0  0  0  0  0  0  0  0  0  0
    6.6118   -0.3932   -0.0141 N   0  0  0  0  0  0  0  0  0  0  0  0
    1.6398    2.9116   -0.2531 N   0  0  0  0  0  0  0  0  0  0  0  0
    1.9615   -3.5537   -0.4275 N   0  0  0  0  0  0  0  0  0  0  0  0
    3.7195   -0.1214    0.5026 C   0  0  1  0  0  0  0  0  0  0  0  0
    4.3109   -1.2590   -0.3635 C   0  0  2  0  0  0  0  0  0  0  0  0
    4.7996    0.3829    1.4743 C   0  0  0  0  0  0  0  0  0  0  0  0
    5.6424   -0.8452   -1.0127 C   0  0  0  0  0  0  0  0  0  0  0  0
    6.1052    0.7359    0.7631 C   0  0  0  0  0  0  0  0  0  0  0  0
    3.3352   -1.7757   -1.4216 C   0  0  0  0  0  0  0  0  0  0  0  0
    3.1310    1.0390   -0.3088 C   0  0  0  0  0  0  0  0  0  0  0  0
    2.0642   -2.2738   -0.7968 C   0  0  0  0  0  0  0  0  0  0  0  0
    2.1430    1.8572    0.4948 C   0  0  0  0  0  0  0  0  0  0  0  0
    0.8938   -1.5444   -0.5249 C   0  0  0  0  0  0  0  0  0  0  0  0
    0.0575   -2.4698    0.0414 C   0  0  0  0  0  0  0  0  0  0  0  0
    0.6750    3.8554    0.2630 C   0  0  0  0  0  0  0  0  0  0  0  0
   -1.3124   -2.4155    0.5654 C   0  0  0  0  0  0  0  0  0  0  0  0
   -0.7366    3.4088    0.0138 C   0  0  0  0  0  0  0  0  0  0  0  0
   -1.3897    3.7834   -1.1605 C   0  0  0  0  0  0  0  0  0  0  0  0
   -1.3951    2.6197    0.9568 C   0  0  0  0  0  0  0  0  0  0  0  0
   -2.7013    3.3688   -1.3917 C   0  0  0  0  0  0  0  0  0  0  0  0
   -2.7066    2.2051    0.7256 C   0  0  0  0  0  0  0  0  0  0  0  0
   -3.5281   -1.8575   -0.0939 C   0  0  0  0  0  0  0  0  0  0  0  0
   -3.3598    2.5797   -0.4486 C   0  0  0  0  0  0  0  0  0  0  0  0
   -3.9123   -2.0895    1.2268 C   0  0  0  0  0  0  0  0  0  0  0  0
   -4.4775   -1.4668   -1.0380 C   0  0  0  0  0  0  0  0  0  0  0  0
   -5.2460   -1.9308    1.6034 C   0  0  0  0  0  0  0  0  0  0  0  0
   -5.8111   -1.3081   -0.6617 C   0  0  0  0  0  0  0  0  0  0  0  0
   -6.1955   -1.5400    0.6591 C   0  0  0  0  0  0  0  0  0  0  0  0
    2.9280   -0.5536    1.1279 H   0  0  0  0  0  0  0  0  0  0  0  0
    4.5336   -2.0947    0.3184 H   0  0  0  0  0  0  0  0  0  0  0  0
    5.0020   -0.4031    2.2146 H   0  0  0  0  0  0  0  0  0  0  0  0
    4.4480    1.2520    2.0414 H   0  0  0  0  0  0  0  0  0  0  0  0
    6.0717   -1.7037   -1.5419 H   0  0  0  0  0  0  0  0  0  0  0  0
    5.4824   -0.0596   -1.7616 H   0  0  0  0  0  0  0  0  0  0  0  0
    5.9839    1.6156    0.1215 H   0  0  0  0  0  0  0  0  0  0  0  0
    6.8548    1.0025    1.5165 H   0  0  0  0  0  0  0  0  0  0  0  0
    3.1153   -1.0277   -2.1905 H   0  0  0  0  0  0  0  0  0  0  0  0
    3.8047   -2.6091   -1.9628 H   0  0  0  0  0  0  0  0  0  0  0  0
    2.5866    0.7000   -1.1921 H   0  0  0  0  0  0  0  0  0  0  0  0
    3.9154    1.7100   -0.6753 H   0  0  0  0  0  0  0  0  0  0  0  0
    7.4756   -0.1205   -0.4820 H   0  0  0  0  0  0  0  0  0  0  0  0
    0.6681   -0.5072   -0.7180 H   0  0  0  0  0  0  0  0  0  0  0  0
    1.9425    3.0264   -1.2162 H   0  0  0  0  0  0  0  0  0  0  0  0
    0.8650    4.8194   -0.2222 H   0  0  0  0  0  0  0  0  0  0  0  0
    0.8452    4.0005    1.3364 H   0  0  0  0  0  0  0  0  0  0  0  0
   -1.3132   -1.6830    1.3831 H   0  0  0  0  0  0  0  0  0  0  0  0
   -1.5920   -3.4066    0.9449 H   0  0  0  0  0  0  0  0  0  0  0  0
   -0.8868    4.3964   -1.9037 H   0  0  0  0  0  0  0  0  0  0  0  0
   -0.9000    2.3216    1.8768 H   0  0  0  0  0  0  0  0  0  0  0  0
   -3.2099    3.6593   -2.3062 H   0  0  0  0  0  0  0  0  0  0  0  0
   -3.2194    1.5894    1.4586 H   0  0  0  0  0  0  0  0  0  0  0  0
   -3.2339   -2.3988    2.0140 H   0  0  0  0  0  0  0  0  0  0  0  0
   -4.1837   -1.2834   -2.0679 H   0  0  0  0  0  0  0  0  0  0  0  0
   -5.5466   -2.1117    2.6313 H   0  0  0  0  0  0  0  0  0  0  0  0
   -6.5502   -1.0030   -1.3966 H   0  0  0  0  0  0  0  0  0  0  0  0
   -7.2339   -1.4162    0.9521 H   0  0  0  0  0  0  0  0  0  0  0  0
  1 27  1  0  0  0  0
  2 16  2  0  0  0  0
  3  7  1  0  0  0  0
  3 18  1  0  0  0  0
  4 20  1  0  0  0  0
  4 26  1  0  0  0  0
  5 11  1  0  0  0  0
  5 12  1  0  0  0  0
  5 45  1  0  0  0  0
  6 16  1  0  0  0  0
  6 19  1  0  0  0  0
  6 47  1  0  0  0  0
  7 15  2  0  0  0  0
  8  9  1  0  0  0  0
  8 10  1  0  0  0  0
  8 14  1  0  0  0  0
  8 33  1  0  0  0  0
  9 11  1  0  0  0  0
  9 13  1  0  0  0  0
  9 34  1  0  0  0  0
 10 12  1  0  0  0  0
 10 35  1  0  0  0  0
 10 36  1  0  0  0  0
 11 37  1  0  0  0  0
 11 38  1  0  0  0  0
 12 39  1  0  0  0  0
 12 40  1  0  0  0  0
 13 15  1  0  0  0  0
 13 41  1  0  0  0  0
 13 42  1  0  0  0  0
 14 16  1  0  0  0  0
 14 43  1  0  0  0  0
 14 44  1  0  0  0  0
 15 17  1  0  0  0  0
 17 18  2  0  0  0  0
 17 46  1  0  0  0  0
 18 20  1  0  0  0  0
 19 21  1  0  0  0  0
 19 48  1  0  0  0  0
 19 49  1  0  0  0  0
 20 50  1  0  0  0  0
 20 51  1  0  0  0  0
 21 22  2  0  0  0  0
 21 23  1  0  0  0  0
 22 24  1  0  0  0  0
 22 52  1  0  0  0  0
 23 25  2  0  0  0  0
 23 53  1  0  0  0  0
 24 27  2  0  0  0  0
 24 54  1  0  0  0  0
 25 27  1  0  0  0  0
 25 55  1  0  0  0  0
 26 28  2  0  0  0  0
 26 29  1  0  0  0  0
 28 30  1  0  0  0  0
 28 56  1  0  0  0  0
 29 31  2  0  0  0  0
 29 57  1  0  0  0  0
 30 32  2  0  0  0  0
 30 58  1  0  0  0  0
 31 32  1  0  0  0  0
 31 59  1  0  0  0  0
 32 60  1  0  0  0  0
M  END
> <PUBCHEM_COMPOUND_CID>
26743165

> <PUBCHEM_CONFORMER_RMSD>
1.4

> <PUBCHEM_CONFORMER_DIVERSEORDER>
1
55
19
44
97
7
56
46
89
101
129
84
8
45
52
76
91
69
102
6
20
50
39
75
35
23
99
133
10
49
21
114
110
28
88
83
16
87
131
58
115
41
126
2
24
80
125
123
59
66
22
85
34
120
109
27
64
108
74
37
36
13
33
136
130
15
79
82
68
116
128
93
48
4
32
42
11
96
57
95
38
71
18
105
121
17
29
5
65
73
26
54
70
100
60
103
62
31
3
112
122
98
61
9
113
51
135
67
30
94
92
25
40
47
12
134
124
90
53
107
43
104
119
81
118
77
106
86
132
127
14
78
72
117
63
111

> <PUBCHEM_MMFF94_PARTIAL_CHARGES>
41
1 -0.19
11 0.27
12 0.27
13 0.18
14 0.06
15 0.11
16 0.57
17 -0.15
18 -0.04
19 0.44
2 -0.57
20 0.46
21 -0.14
22 -0.15
23 -0.15
24 -0.15
25 -0.15
26 0.08
27 0.19
28 -0.15
29 -0.15
3 -0.02
30 -0.15
31 -0.15
32 -0.15
4 -0.36
45 0.36
46 0.15
47 0.37
5 -0.9
52 0.15
53 0.15
54 0.15
55 0.15
56 0.15
57 0.15
58 0.15
59 0.15
6 -0.73
60 0.15
7 -0.41

> <PUBCHEM_EFFECTIVE_ROTOR_COUNT>
11.2

> <PUBCHEM_PHARMACOPHORE_FEATURES>
10
1 2 acceptor
1 4 acceptor
1 5 cation
1 5 donor
1 6 donor
1 7 acceptor
5 3 7 15 17 18 rings
6 21 22 23 24 25 27 rings
6 26 28 29 30 31 32 rings
6 5 8 9 10 11 12 rings

> <PUBCHEM_HEAVY_ATOM_COUNT>
32

> <PUBCHEM_ATOM_DEF_STEREO_COUNT>
2

> <PUBCHEM_ATOM_UDEF_STEREO_COUNT>
0

> <PUBCHEM_BOND_DEF_STEREO_COUNT>
0

> <PUBCHEM_BOND_UDEF_STEREO_COUNT>
0

> <PUBCHEM_ISOTOPIC_ATOM_COUNT>
0

> <PUBCHEM_COMPONENT_COUNT>
1

> <PUBCHEM_CACTVS_TAUTO_COUNT>
2

> <PUBCHEM_CONFORMER_ID>
0198117D00000001

> <PUBCHEM_MMFF94_ENERGY>
62.1171

> <PUBCHEM_FEATURE_SELFOVERLAP>
50.747

> <PUBCHEM_SHAPE_FINGERPRINT>
10190206 1 17829925314230433924
10670039 82 18264226771993266942
10688039 33 18334016120128031140
10864689 126 17907587930282281125
10939801 23 18192142914462757056
11828532 37 17897449626042769707
12422481 6 18341349854944877537
13122387 1 17619066131935507493
13402501 40 18412823603142875091
13561361 72 18410288120987468992
14117953 113 18413109489599787599
14725015 67 18335691780307344315
150020 26 17760660561082638299
15264996 44 18199485422309133861
15274700 232 16901032189790784878
15274700 256 18410290329929669218
17627616 140 17972310716442287731
20721686 56 18264770038095648355
20764821 26 18338246963594158217
20775530 9 18411975880015866209
21360443 126 18261951834726794045
3052486 1 18408605834243116134
354706 132 18045510711867577612
463206 1 18267021652878093381
469060 322 18263381260145920635
50150288 127 16269966532801338033
508706 21 18408041784387819799
550186 83 17897424293623648393

> <PUBCHEM_SHAPE_MULTIPOLES>
618.72
13.68
5.65
1.31
2.24
3.57
0.13
-6.37
1.22
-3.52
-0.83
-0.21
0.1
2.3

> <PUBCHEM_SHAPE_SELFOVERLAP>
1317.922

> <PUBCHEM_SHAPE_VOLUME>
343.1

> <PUBCHEM_COORDINATE_TYPE>
2
5
10

$$$$
