38027434
  -OEChem-12032416253D

 68 69  0     1  0  0  0  0  0999 V2000
    3.8648    0.7745   -0.5080 O   0  0  0  0  0  0  0  0  0  0  0  0
   -3.3310    0.5036    1.4606 O   0  0  0  0  0  0  0  0  0  0  0  0
   -2.6035    1.7602   -0.3405 N   0  0  0  0  0  0  0  0  0  0  0  0
    2.8729   -1.1362   -1.3835 N   0  0  0  0  0  0  0  0  0  0  0  0
   -3.2123   -0.4400   -0.6855 N   0  0  0  0  0  0  0  0  0  0  0  0
    4.9698   -3.6349    0.4133 N   0  0  0  0  0  0  0  0  0  0  0  0
    0.0304    2.3770    0.9731 C   0  0  1  0  0  0  0  0  0  0  0  0
   -0.8983    3.3953    0.2656 C   0  0  1  0  0  0  0  0  0  0  0  0
    1.4825    2.5616    0.5068 C   0  0  0  0  0  0  0  0  0  0  0  0
    1.6327    2.3831   -1.0158 C   0  0  2  0  0  0  0  0  0  0  0  0
   -0.0446    2.5027    2.4980 C   0  0  0  0  0  0  0  0  0  0  0  0
    0.5737    3.1516   -1.7799 C   0  0  0  0  0  0  0  0  0  0  0  0
   -0.5443    3.6077   -1.1877 C   0  0  0  0  0  0  0  0  0  0  0  0
   -2.3679    2.9738    0.3769 C   0  0  0  0  0  0  0  0  0  0  0  0
    1.6201    0.8999   -1.4019 C   0  0  0  0  0  0  0  0  0  0  0  0
    0.3569    1.1889    3.1607 C   0  0  0  0  0  0  0  0  0  0  0  0
    0.8419    3.6458    2.9818 C   0  0  0  0  0  0  0  0  0  0  0  0
    0.8506    3.4241   -3.2323 C   0  0  0  0  0  0  0  0  0  0  0  0
    2.9135    0.2066   -1.0379 C   0  0  0  0  0  0  0  0  0  0  0  0
   -3.0794    0.5803    0.2604 C   0  0  0  0  0  0  0  0  0  0  0  0
    3.9733   -2.0438   -1.1536 C   0  0  0  0  0  0  0  0  0  0  0  0
    3.8673   -2.7033    0.2135 C   0  0  0  0  0  0  0  0  0  0  0  0
   -3.6585   -1.7657   -0.4755 C   0  0  0  0  0  0  0  0  0  0  0  0
    4.6313   -4.6230    1.4398 C   0  0  0  0  0  0  0  0  0  0  0  0
    6.1915   -2.9177    0.7836 C   0  0  0  0  0  0  0  0  0  0  0  0
   -3.7269   -2.6569   -1.5464 C   0  0  0  0  0  0  0  0  0  0  0  0
   -4.0304   -2.1817    0.8029 C   0  0  0  0  0  0  0  0  0  0  0  0
   -4.1671   -3.9641   -1.3387 C   0  0  0  0  0  0  0  0  0  0  0  0
   -4.4704   -3.4890    1.0105 C   0  0  0  0  0  0  0  0  0  0  0  0
   -4.5387   -4.3803   -0.0602 C   0  0  0  0  0  0  0  0  0  0  0  0
   -0.2858    1.3637    0.6997 H   0  0  0  0  0  0  0  0  0  0  0  0
   -0.8034    4.3756    0.7493 H   0  0  0  0  0  0  0  0  0  0  0  0
    2.1559    1.8814    1.0375 H   0  0  0  0  0  0  0  0  0  0  0  0
    1.8317    3.5800    0.7209 H   0  0  0  0  0  0  0  0  0  0  0  0
    2.6060    2.8150   -1.2883 H   0  0  0  0  0  0  0  0  0  0  0  0
   -1.0715    2.7138    2.8136 H   0  0  0  0  0  0  0  0  0  0  0  0
   -1.2481    4.1944   -1.7749 H   0  0  0  0  0  0  0  0  0  0  0  0
   -3.0142    3.7353   -0.0762 H   0  0  0  0  0  0  0  0  0  0  0  0
   -2.6872    2.8747    1.4177 H   0  0  0  0  0  0  0  0  0  0  0  0
    1.5039    0.7823   -2.4863 H   0  0  0  0  0  0  0  0  0  0  0  0
    0.7862    0.3638   -0.9354 H   0  0  0  0  0  0  0  0  0  0  0  0
    1.3896    0.9064    2.9339 H   0  0  0  0  0  0  0  0  0  0  0  0
   -0.2971    0.3717    2.8377 H   0  0  0  0  0  0  0  0  0  0  0  0
    0.2695    1.2679    4.2500 H   0  0  0  0  0  0  0  0  0  0  0  0
    1.9108    3.4139    2.9282 H   0  0  0  0  0  0  0  0  0  0  0  0
    0.6325    3.8393    4.0412 H   0  0  0  0  0  0  0  0  0  0  0  0
    0.6487    4.5838    2.4530 H   0  0  0  0  0  0  0  0  0  0  0  0
    1.8162    3.9273   -3.3471 H   0  0  0  0  0  0  0  0  0  0  0  0
    0.0895    4.0714   -3.6811 H   0  0  0  0  0  0  0  0  0  0  0  0
    0.8709    2.4954   -3.8095 H   0  0  0  0  0  0  0  0  0  0  0  0
   -2.4857    1.7634   -1.3491 H   0  0  0  0  0  0  0  0  0  0  0  0
    2.0324   -1.5138   -1.8116 H   0  0  0  0  0  0  0  0  0  0  0  0
    3.9382   -2.7955   -1.9502 H   0  0  0  0  0  0  0  0  0  0  0  0
    4.9037   -1.4784   -1.2643 H   0  0  0  0  0  0  0  0  0  0  0  0
   -2.9575   -0.2103   -1.6428 H   0  0  0  0  0  0  0  0  0  0  0  0
    3.8122   -1.9539    1.0145 H   0  0  0  0  0  0  0  0  0  0  0  0
    2.9090   -3.2406    0.2384 H   0  0  0  0  0  0  0  0  0  0  0  0
    3.7552   -5.2084    1.1388 H   0  0  0  0  0  0  0  0  0  0  0  0
    4.4201   -4.1556    2.4084 H   0  0  0  0  0  0  0  0  0  0  0  0
    5.4515   -5.3374    1.5722 H   0  0  0  0  0  0  0  0  0  0  0  0
    6.5188   -2.2368   -0.0078 H   0  0  0  0  0  0  0  0  0  0  0  0
    7.0162   -3.6247    0.9316 H   0  0  0  0  0  0  0  0  0  0  0  0
    6.0704   -2.3418    1.7085 H   0  0  0  0  0  0  0  0  0  0  0  0
   -3.4401   -2.3456   -2.5476 H   0  0  0  0  0  0  0  0  0  0  0  0
   -4.0051   -1.5515    1.6805 H   0  0  0  0  0  0  0  0  0  0  0  0
   -4.2204   -4.6582   -2.1724 H   0  0  0  0  0  0  0  0  0  0  0  0
   -4.7601   -3.8143    2.0056 H   0  0  0  0  0  0  0  0  0  0  0  0
   -4.8813   -5.3981    0.1014 H   0  0  0  0  0  0  0  0  0  0  0  0
  1 19  2  0  0  0  0
  2 20  2  0  0  0  0
  3 14  1  0  0  0  0
  3 20  1  0  0  0  0
  3 51  1  0  0  0  0
  4 19  1  0  0  0  0
  4 21  1  0  0  0  0
  4 52  1  0  0  0  0
  5 20  1  0  0  0  0
  5 23  1  0  0  0  0
  5 55  1  0  0  0  0
  6 22  1  0  0  0  0
  6 24  1  0  0  0  0
  6 25  1  0  0  0  0
  7  8  1  0  0  0  0
  7  9  1  0  0  0  0
  7 11  1  0  0  0  0
  7 31  1  0  0  0  0
  8 13  1  0  0  0  0
  8 14  1  0  0  0  0
  8 32  1  0  0  0  0
  9 10  1  0  0  0  0
  9 33  1  0  0  0  0
  9 34  1  0  0  0  0
 10 12  1  0  0  0  0
 10 15  1  0  0  0  0
 10 35  1  0  0  0  0
 11 16  1  0  0  0  0
 11 17  1  0  0  0  0
 11 36  1  0  0  0  0
 12 13  2  0  0  0  0
 12 18  1  0  0  0  0
 13 37  1  0  0  0  0
 14 38  1  0  0  0  0
 14 39  1  0  0  0  0
 15 19  1  0  0  0  0
 15 40  1  0  0  0  0
 15 41  1  0  0  0  0
 16 42  1  0  0  0  0
 16 43  1  0  0  0  0
 16 44  1  0  0  0  0
 17 45  1  0  0  0  0
 17 46  1  0  0  0  0
 17 47  1  0  0  0  0
 18 48  1  0  0  0  0
 18 49  1  0  0  0  0
 18 50  1  0  0  0  0
 21 22  1  0  0  0  0
 21 53  1  0  0  0  0
 21 54  1  0  0  0  0
 22 56  1  0  0  0  0
 22 57  1  0  0  0  0
 23 26  2  0  0  0  0
 23 27  1  0  0  0  0
 24 58  1  0  0  0  0
 24 59  1  0  0  0  0
 24 60  1  0  0  0  0
 25 61  1  0  0  0  0
 25 62  1  0  0  0  0
 25 63  1  0  0  0  0
 26 28  1  0  0  0  0
 26 64  1  0  0  0  0
 27 29  2  0  0  0  0
 27 65  1  0  0  0  0
 28 30  2  0  0  0  0
 28 66  1  0  0  0  0
 29 30  1  0  0  0  0
 29 67  1  0  0  0  0
 30 68  1  0  0  0  0
M  END
> <PUBCHEM_COMPOUND_CID>
38027434

> <PUBCHEM_CONFORMER_RMSD>
1.2

> <PUBCHEM_CONFORMER_DIVERSEORDER>
1
11
79
113
46
53
27
101
51
64
29
89
20
91
72
87
116
62
45
49
96
28
16
4
35
110
102
90
50
44
23
94
13
103
106
47
115
58
9
30
26
82
57
88
108
38
54
66
15
73
69
12
61
24
99
48
100
19
10
37
86
80
74
70
75
107
22
63
18
105
17
25
67
84
41
104
81
92
3
39
7
33
32
59
71
95
77
34
97
2
36
65
43
6
85
55
68
98
78
21
93
42
52
8
14
60
40
76
31
114
56
109
112
5
111
83

> <PUBCHEM_MMFF94_PARTIAL_CHARGES>
34
1 -0.57
10 0.14
12 -0.28
13 -0.29
14 0.3
15 0.06
18 0.14
19 0.57
2 -0.57
20 0.69
21 0.3
22 0.27
23 0.12
24 0.27
25 0.27
26 -0.15
27 -0.15
28 -0.15
29 -0.15
3 -0.73
30 -0.15
37 0.15
4 -0.73
5 -0.55
51 0.37
52 0.37
55 0.37
6 -0.81
64 0.15
65 0.15
66 0.15
67 0.15
68 0.15
8 0.14

> <PUBCHEM_EFFECTIVE_ROTOR_COUNT>
12.8

> <PUBCHEM_PHARMACOPHORE_FEATURES>
9
1 1 acceptor
1 2 acceptor
1 3 donor
1 4 donor
1 5 donor
1 6 cation
3 11 16 17 hydrophobe
6 23 26 27 28 29 30 rings
6 7 8 9 10 12 13 rings

> <PUBCHEM_HEAVY_ATOM_COUNT>
30

> <PUBCHEM_ATOM_DEF_STEREO_COUNT>
3

> <PUBCHEM_ATOM_UDEF_STEREO_COUNT>
0

> <PUBCHEM_BOND_DEF_STEREO_COUNT>
0

> <PUBCHEM_BOND_UDEF_STEREO_COUNT>
0

> <PUBCHEM_ISOTOPIC_ATOM_COUNT>
0

> <PUBCHEM_COMPONENT_COUNT>
1

> <PUBCHEM_CACTVS_TAUTO_COUNT>
6

> <PUBCHEM_CONFORMER_ID>
024440AA00000001

> <PUBCHEM_MMFF94_ENERGY>
64.9786

> <PUBCHEM_FEATURE_SELFOVERLAP>
45.719

> <PUBCHEM_SHAPE_FINGERPRINT>
10928967 22 17910409599400165151
11285246 1 18186523180819070562
114674 6 17551798448582042945
12523318 42 17980193089932559616
12969540 37 18337951315421017740
14289585 56 14871051841620590186
14508693 111 18334573504411375682
14863182 85 17691681612023836297
15968369 26 17613418357474498059
18603816 31 16595335023722782386
19315092 285 17200511012137963195
19319366 153 17761216917865706166
20764821 26 17260186021876816791
20775530 9 18270410493632497935
21049683 118 15402755194772702072
229767 44 17905613202887601883
23559900 14 18264479762899759999
86090 222 16615057513023748763

> <PUBCHEM_SHAPE_MULTIPOLES>
585.72
10.54
8.05
2.69
0.38
4.67
0.86
21.85
0.06
-2.85
0.82
-1.04
-2.9
-2.24

> <PUBCHEM_SHAPE_SELFOVERLAP>
1187.5

> <PUBCHEM_SHAPE_VOLUME>
340.2

> <PUBCHEM_COORDINATE_TYPE>
2
5
10

$$$$
