40777681
  -OEChem-12032416183D

 59 62  0     1  0  0  0  0  0999 V2000
    8.8305    0.0135    0.3993 F   0  0  0  0  0  0  0  0  0  0  0  0
    8.2172    2.0993    0.4261 F   0  0  0  0  0  0  0  0  0  0  0  0
    8.4338    1.0483   -1.4650 F   0  0  0  0  0  0  0  0  0  0  0  0
   -6.2414   -1.1816   -0.4317 O   0  0  0  0  0  0  0  0  0  0  0  0
   -4.2723    0.0587   -0.4953 N   0  0  0  0  0  0  0  0  0  0  0  0
    2.5214   -0.6390    0.1099 N   0  0  0  0  0  0  0  0  0  0  0  0
    2.1967   -1.9430    0.1327 N   0  0  0  0  0  0  0  0  0  0  0  0
   -6.3730    1.1810   -0.7626 C   0  0  0  0  0  0  0  0  0  0  0  0
   -3.3504   -1.0243   -0.2795 C   0  0  1  0  0  0  0  0  0  0  0  0
   -6.6174    1.8712    0.5809 C   0  0  0  0  0  0  0  0  0  0  0  0
   -7.6609    0.9647   -1.5599 C   0  0  0  0  0  0  0  0  0  0  0  0
   -1.1108   -0.1977    0.2917 C   0  0  2  0  0  0  0  0  0  0  0  0
   -1.9625   -0.7483   -0.8708 C   0  0  0  0  0  0  0  0  0  0  0  0
   -7.7499    1.2338    1.3841 C   0  0  0  0  0  0  0  0  0  0  0  0
   -8.7921    0.3534   -0.7337 C   0  0  0  0  0  0  0  0  0  0  0  0
   -9.0284    1.1209    0.5618 C   0  0  0  0  0  0  0  0  0  0  0  0
   -5.6447   -0.1150   -0.5529 C   0  0  0  0  0  0  0  0  0  0  0  0
    0.3399   -0.6154    0.2195 C   0  0  0  0  0  0  0  0  0  0  0  0
   -3.0698   -1.1457    1.1823 C   0  0  0  0  0  0  0  0  0  0  0  0
   -1.8494   -0.7001    1.4982 C   0  0  0  0  0  0  0  0  0  0  0  0
    1.4453    0.1977    0.1601 C   0  0  0  0  0  0  0  0  0  0  0  0
    0.8629   -1.9223    0.1998 C   0  0  0  0  0  0  0  0  0  0  0  0
    1.5621    1.6701    0.1485 C   0  0  0  0  0  0  0  0  0  0  0  0
    0.1200   -3.1941    0.2446 C   0  0  0  0  0  0  0  0  0  0  0  0
    3.8626   -0.2608    0.0401 C   0  0  0  0  0  0  0  0  0  0  0  0
    4.2810    0.9380    0.6175 C   0  0  0  0  0  0  0  0  0  0  0  0
    4.7845   -1.0805   -0.6110 C   0  0  0  0  0  0  0  0  0  0  0  0
    5.6212    1.3172    0.5437 C   0  0  0  0  0  0  0  0  0  0  0  0
    6.1247   -0.7013   -0.6847 C   0  0  0  0  0  0  0  0  0  0  0  0
    6.5432    0.4974   -0.1073 C   0  0  0  0  0  0  0  0  0  0  0  0
    7.9759    0.9037   -0.1863 C   0  0  0  0  0  0  0  0  0  0  0  0
   -5.7262    1.8307   -1.3683 H   0  0  0  0  0  0  0  0  0  0  0  0
   -3.7676   -1.9536   -0.6815 H   0  0  0  0  0  0  0  0  0  0  0  0
   -1.1800    0.8970    0.3003 H   0  0  0  0  0  0  0  0  0  0  0  0
   -6.8739    2.9218    0.3926 H   0  0  0  0  0  0  0  0  0  0  0  0
   -5.7050    1.8774    1.1894 H   0  0  0  0  0  0  0  0  0  0  0  0
   -7.4713    0.3340   -2.4370 H   0  0  0  0  0  0  0  0  0  0  0  0
   -8.0003    1.9364   -1.9422 H   0  0  0  0  0  0  0  0  0  0  0  0
   -1.9942   -0.0368   -1.7051 H   0  0  0  0  0  0  0  0  0  0  0  0
   -1.5551   -1.6782   -1.2808 H   0  0  0  0  0  0  0  0  0  0  0  0
   -7.9432    1.8335    2.2810 H   0  0  0  0  0  0  0  0  0  0  0  0
   -7.4459    0.2386    1.7300 H   0  0  0  0  0  0  0  0  0  0  0  0
   -8.5911   -0.6982   -0.5066 H   0  0  0  0  0  0  0  0  0  0  0  0
   -9.7131    0.3618   -1.3291 H   0  0  0  0  0  0  0  0  0  0  0  0
   -9.4041    2.1250    0.3294 H   0  0  0  0  0  0  0  0  0  0  0  0
   -9.8038    0.6191    1.1515 H   0  0  0  0  0  0  0  0  0  0  0  0
   -3.8933    1.0010   -0.5326 H   0  0  0  0  0  0  0  0  0  0  0  0
   -3.7779   -1.5312    1.9024 H   0  0  0  0  0  0  0  0  0  0  0  0
   -1.4582   -0.6720    2.5056 H   0  0  0  0  0  0  0  0  0  0  0  0
    1.6870    2.0766    1.1563 H   0  0  0  0  0  0  0  0  0  0  0  0
    2.3257    2.0476   -0.5371 H   0  0  0  0  0  0  0  0  0  0  0  0
    0.6296    2.1084   -0.2279 H   0  0  0  0  0  0  0  0  0  0  0  0
   -0.2477   -3.4635   -0.7501 H   0  0  0  0  0  0  0  0  0  0  0  0
    0.7641   -4.0129    0.5852 H   0  0  0  0  0  0  0  0  0  0  0  0
   -0.7274   -3.1554    0.9326 H   0  0  0  0  0  0  0  0  0  0  0  0
    3.6579    1.5614    1.2432 H   0  0  0  0  0  0  0  0  0  0  0  0
    4.4881   -2.0150   -1.0809 H   0  0  0  0  0  0  0  0  0  0  0  0
    5.9329    2.2414    1.0227 H   0  0  0  0  0  0  0  0  0  0  0  0
    6.8355   -1.3449   -1.1964 H   0  0  0  0  0  0  0  0  0  0  0  0
  1 31  1  0  0  0  0
  2 31  1  0  0  0  0
  3 31  1  0  0  0  0
  4 17  2  0  0  0  0
  5  9  1  0  0  0  0
  5 17  1  0  0  0  0
  5 47  1  0  0  0  0
  6  7  1  0  0  0  0
  6 21  1  0  0  0  0
  6 25  1  0  0  0  0
  7 22  2  0  0  0  0
  8 10  1  0  0  0  0
  8 11  1  0  0  0  0
  8 17  1  0  0  0  0
  8 32  1  0  0  0  0
  9 13  1  0  0  0  0
  9 19  1  0  0  0  0
  9 33  1  0  0  0  0
 10 14  1  0  0  0  0
 10 35  1  0  0  0  0
 10 36  1  0  0  0  0
 11 15  1  0  0  0  0
 11 37  1  0  0  0  0
 11 38  1  0  0  0  0
 12 13  1  0  0  0  0
 12 18  1  0  0  0  0
 12 20  1  0  0  0  0
 12 34  1  0  0  0  0
 13 39  1  0  0  0  0
 13 40  1  0  0  0  0
 14 16  1  0  0  0  0
 14 41  1  0  0  0  0
 14 42  1  0  0  0  0
 15 16  1  0  0  0  0
 15 43  1  0  0  0  0
 15 44  1  0  0  0  0
 16 45  1  0  0  0  0
 16 46  1  0  0  0  0
 18 21  2  0  0  0  0
 18 22  1  0  0  0  0
 19 20  2  0  0  0  0
 19 48  1  0  0  0  0
 20 49  1  0  0  0  0
 21 23  1  0  0  0  0
 22 24  1  0  0  0  0
 23 50  1  0  0  0  0
 23 51  1  0  0  0  0
 23 52  1  0  0  0  0
 24 53  1  0  0  0  0
 24 54  1  0  0  0  0
 24 55  1  0  0  0  0
 25 26  2  0  0  0  0
 25 27  1  0  0  0  0
 26 28  1  0  0  0  0
 26 56  1  0  0  0  0
 27 29  2  0  0  0  0
 27 57  1  0  0  0  0
 28 30  2  0  0  0  0
 28 58  1  0  0  0  0
 29 30  1  0  0  0  0
 29 59  1  0  0  0  0
 30 31  1  0  0  0  0
M  END
> <PUBCHEM_COMPOUND_CID>
40777681

> <PUBCHEM_CONFORMER_RMSD>
1

> <PUBCHEM_CONFORMER_DIVERSEORDER>
5
6
33
36
21
89
65
56
76
43
74
55
11
7
57
27
54
12
70
64
9
67
75
8
45
90
13
23
40
24
18
71
44
79
66
30
32
37
68
58
41
85
59
61
34
3
10
92
17
46
80
29
86
82
88
63
72
31
26
49
14
84
42
60
25
87
16
77
91
39
20
15
51
50
53
35
48
19
81
22
47
73
2
38
52
4
28
78
62
93
83
1
69

> <PUBCHEM_MMFF94_PARTIAL_CHARGES>
32
1 -0.34
12 0.32
17 0.57
18 -0.18
19 -0.29
2 -0.34
20 -0.29
21 -0.33
22 0.11
23 0.18
24 0.18
25 -0.02
26 -0.15
27 -0.15
28 -0.15
29 -0.15
3 -0.34
30 -0.14
31 1.16
4 -0.57
47 0.37
48 0.15
49 0.15
5 -0.73
56 0.15
57 0.15
58 0.15
59 0.15
6 0.59
7 -0.71
8 0.06
9 0.44

> <PUBCHEM_EFFECTIVE_ROTOR_COUNT>
7.8

> <PUBCHEM_PHARMACOPHORE_FEATURES>
7
1 4 acceptor
1 5 donor
1 7 acceptor
5 6 7 18 21 22 rings
5 9 12 13 19 20 rings
6 25 26 27 28 29 30 rings
6 8 10 11 14 15 16 rings

> <PUBCHEM_HEAVY_ATOM_COUNT>
31

> <PUBCHEM_ATOM_DEF_STEREO_COUNT>
2

> <PUBCHEM_ATOM_UDEF_STEREO_COUNT>
0

> <PUBCHEM_BOND_DEF_STEREO_COUNT>
0

> <PUBCHEM_BOND_UDEF_STEREO_COUNT>
0

> <PUBCHEM_ISOTOPIC_ATOM_COUNT>
0

> <PUBCHEM_COMPONENT_COUNT>
1

> <PUBCHEM_CACTVS_TAUTO_COUNT>
2

> <PUBCHEM_CONFORMER_ID>
026E37D100000005

> <PUBCHEM_MMFF94_ENERGY>
65.1616

> <PUBCHEM_FEATURE_SELFOVERLAP>
35.523

> <PUBCHEM_SHAPE_FINGERPRINT>
10 15 17458343027218064065
106641 1 13767929026537413589
10883706 142 17894912923604103715
11135609 187 18343581850226991090
11135609 99 8502072073313678681
11181472 205 17345766170274728793
12013929 27 10302652067847054265
12082328 90 17775283851300107741
12236239 1 17846497032744555743
12838862 33 18338220626981351744
13150687 139 17988931063289065942
13540713 5 15911380645440682603
14849402 71 18409449193969293289
15021287 119 8286190644569575523
15064981 194 18127422347718855295
15183329 4 18271803493824688825
15461852 350 16630522956159407629
15690457 1 8214141850133510101
1577012 14 18410566288829143271
1818759 1 10735877295976397261
18603816 31 11747230091066801161
195137 175 17989211442938027585
19841028 212 11095625376478013108
20105231 36 11674870071333301592
2026 5 11671522066605662836
20505436 4 18412537713130779735
21033648 29 18336255855901010216
21150785 3 17203608181389073653
21267235 1 9367349245370767986
21298829 104 18412547599970733033
21585482 111 18337952265199990837
21792934 111 18411408511432426928
22224240 67 17603304847705665627
23559900 14 10447339040412496847
23576562 1 18128811035321361357
246663 6 11312056560407294684
24771293 8 18040716940492746301
249057 3 16558463179840093660
335352 9 18412261756991021157
3383291 50 9871746897056096157
3633792 109 18131637781496192426
3711267 37 18335148574604361229
395649 100 18114741651212435027
4073 2 18260269646904443411
4325135 7 8862941676258274905
4625314 4 12391505395437929483
504579 68 16415481553660679808
5219985 9 10231756694993250442
5385378 56 17967529030673197138
5470011 282 14261348072706323272
5758199 1 18407759231527526067
5937810 71 18200877267435820313
59521270 166 13110971903490296921
59682541 35 7997966861007598526
5969126 39 12535350074169097019
636775 8 17203036488206305487
9953998 17 13695589945555939713
9962374 69 8358244922401880529

> <PUBCHEM_SHAPE_MULTIPOLES>
595.33
29.93
2.06
1.1
3.27
0.79
0.01
-18.31
-4.15
-0.64
0.26
1.28
-0.12
-0.02

> <PUBCHEM_SHAPE_SELFOVERLAP>
1284.577

> <PUBCHEM_SHAPE_VOLUME>
328.8

> <PUBCHEM_COORDINATE_TYPE>
2
5
10

$$$$
