26744892
  -OEChem-12032416403D

 55 60  0     1  0  0  0  0  0999 V2000
    0.5265   -2.3337    2.2846 O   0  0  0  0  0  0  0  0  0  0  0  0
   -4.8264    5.4575   -0.0902 O   0  0  0  0  0  0  0  0  0  0  0  0
   -2.7945    5.8504   -1.0303 O   0  0  0  0  0  0  0  0  0  0  0  0
   -2.2195   -1.1520    0.3974 N   0  0  1  0  0  0  0  0  0  0  0  0
   -4.7507   -3.1771   -1.4890 N   0  0  0  0  0  0  0  0  0  0  0  0
   -3.0357   -4.5450   -1.9198 N   0  0  0  0  0  0  0  0  0  0  0  0
    0.9913   -1.3519    0.3258 N   0  0  0  0  0  0  0  0  0  0  0  0
    1.8548   -1.8981    2.3727 N   0  0  0  0  0  0  0  0  0  0  0  0
   -1.3459   -2.3379    0.6989 C   0  0  1  0  0  0  0  0  0  0  0  0
   -1.3064   -3.3701   -0.4835 C   0  0  0  0  0  0  0  0  0  0  0  0
   -3.6347   -1.5448    0.1348 C   0  0  0  0  0  0  0  0  0  0  0  0
   -3.6897   -2.7036   -0.7790 C   0  0  0  0  0  0  0  0  0  0  0  0
   -2.6557   -3.5600   -1.0532 C   0  0  0  0  0  0  0  0  0  0  0  0
   -2.2142   -0.1633    1.4841 C   0  0  0  0  0  0  0  0  0  0  0  0
    0.0934   -1.9728    1.0484 C   0  0  0  0  0  0  0  0  0  0  0  0
   -2.5645    1.2151    0.9897 C   0  0  0  0  0  0  0  0  0  0  0  0
   -4.3064   -4.2886   -2.1617 C   0  0  0  0  0  0  0  0  0  0  0  0
   -1.6181    1.9672    0.2937 C   0  0  0  0  0  0  0  0  0  0  0  0
   -3.8348    1.7399    1.2275 C   0  0  0  0  0  0  0  0  0  0  0  0
    2.0551   -1.3296    1.1801 C   0  0  0  0  0  0  0  0  0  0  0  0
    3.3057   -0.7322    0.8103 C   0  0  0  0  0  0  0  0  0  0  0  0
   -1.9421    3.2441   -0.1646 C   0  0  0  0  0  0  0  0  0  0  0  0
   -4.1587    3.0168    0.7693 C   0  0  0  0  0  0  0  0  0  0  0  0
   -3.2124    3.7689    0.0731 C   0  0  0  0  0  0  0  0  0  0  0  0
    3.4564   -0.1540   -0.4505 C   0  0  0  0  0  0  0  0  0  0  0  0
    4.3678   -0.7292    1.7097 C   0  0  0  0  0  0  0  0  0  0  0  0
    4.6741    0.4354   -0.8276 C   0  0  0  0  0  0  0  0  0  0  0  0
    5.7540    0.4384    0.0870 C   0  0  0  0  0  0  0  0  0  0  0  0
    5.5846   -0.1480    1.3518 C   0  0  0  0  0  0  0  0  0  0  0  0
   -3.5512    5.0998   -0.4053 C   0  0  0  0  0  0  0  0  0  0  0  0
    4.8434    1.0219   -2.0923 C   0  0  0  0  0  0  0  0  0  0  0  0
    6.9718    1.0278   -0.2902 C   0  0  0  0  0  0  0  0  0  0  0  0
    6.0603    1.6029   -2.4504 C   0  0  0  0  0  0  0  0  0  0  0  0
    7.1224    1.6058   -1.5511 C   0  0  0  0  0  0  0  0  0  0  0  0
   -1.7774   -2.8499    1.5726 H   0  0  0  0  0  0  0  0  0  0  0  0
   -0.9060   -4.3267   -0.1274 H   0  0  0  0  0  0  0  0  0  0  0  0
   -0.6416   -3.0127   -1.2804 H   0  0  0  0  0  0  0  0  0  0  0  0
   -4.1752   -0.7082   -0.3216 H   0  0  0  0  0  0  0  0  0  0  0  0
   -4.1462   -1.8185    1.0667 H   0  0  0  0  0  0  0  0  0  0  0  0
   -1.2229   -0.0626    1.9426 H   0  0  0  0  0  0  0  0  0  0  0  0
   -2.8661   -0.4645    2.3155 H   0  0  0  0  0  0  0  0  0  0  0  0
   -5.6860   -2.7924   -1.5157 H   0  0  0  0  0  0  0  0  0  0  0  0
   -4.9574   -4.8608   -2.8073 H   0  0  0  0  0  0  0  0  0  0  0  0
   -0.6250    1.5690    0.1022 H   0  0  0  0  0  0  0  0  0  0  0  0
   -4.5812    1.1639    1.7681 H   0  0  0  0  0  0  0  0  0  0  0  0
   -1.1907    3.8139   -0.7050 H   0  0  0  0  0  0  0  0  0  0  0  0
   -5.1592    3.3864    0.9761 H   0  0  0  0  0  0  0  0  0  0  0  0
    2.6305   -0.1513   -1.1606 H   0  0  0  0  0  0  0  0  0  0  0  0
    4.2875   -1.1699    2.7003 H   0  0  0  0  0  0  0  0  0  0  0  0
    6.4015   -0.1569    2.0704 H   0  0  0  0  0  0  0  0  0  0  0  0
    4.0272    1.0313   -2.8117 H   0  0  0  0  0  0  0  0  0  0  0  0
    7.8155    1.0416    0.3967 H   0  0  0  0  0  0  0  0  0  0  0  0
    6.1782    2.0530   -3.4318 H   0  0  0  0  0  0  0  0  0  0  0  0
    8.0695    2.0583   -1.8304 H   0  0  0  0  0  0  0  0  0  0  0  0
   -5.0447    6.3562   -0.4175 H   0  0  0  0  0  0  0  0  0  0  0  0
  1  8  1  0  0  0  0
  1 15  1  0  0  0  0
  2 30  1  0  0  0  0
  2 55  1  0  0  0  0
  3 30  2  0  0  0  0
  4  9  1  0  0  0  0
  4 11  1  0  0  0  0
  4 14  1  0  0  0  0
  5 12  1  0  0  0  0
  5 17  1  0  0  0  0
  5 42  1  0  0  0  0
  6 13  1  0  0  0  0
  6 17  2  0  0  0  0
  7 15  2  0  0  0  0
  7 20  1  0  0  0  0
  8 20  2  0  0  0  0
  9 10  1  0  0  0  0
  9 15  1  0  0  0  0
  9 35  1  0  0  0  0
 10 13  1  0  0  0  0
 10 36  1  0  0  0  0
 10 37  1  0  0  0  0
 11 12  1  0  0  0  0
 11 38  1  0  0  0  0
 11 39  1  0  0  0  0
 12 13  2  0  0  0  0
 14 16  1  0  0  0  0
 14 40  1  0  0  0  0
 14 41  1  0  0  0  0
 16 18  2  0  0  0  0
 16 19  1  0  0  0  0
 17 43  1  0  0  0  0
 18 22  1  0  0  0  0
 18 44  1  0  0  0  0
 19 23  2  0  0  0  0
 19 45  1  0  0  0  0
 20 21  1  0  0  0  0
 21 25  2  0  0  0  0
 21 26  1  0  0  0  0
 22 24  2  0  0  0  0
 22 46  1  0  0  0  0
 23 24  1  0  0  0  0
 23 47  1  0  0  0  0
 24 30  1  0  0  0  0
 25 27  1  0  0  0  0
 25 48  1  0  0  0  0
 26 29  2  0  0  0  0
 26 49  1  0  0  0  0
 27 28  1  0  0  0  0
 27 31  2  0  0  0  0
 28 29  1  0  0  0  0
 28 32  2  0  0  0  0
 29 50  1  0  0  0  0
 31 33  1  0  0  0  0
 31 51  1  0  0  0  0
 32 34  1  0  0  0  0
 32 52  1  0  0  0  0
 33 34  2  0  0  0  0
 33 53  1  0  0  0  0
 34 54  1  0  0  0  0
M  END
> <PUBCHEM_COMPOUND_CID>
26744892

> <PUBCHEM_CONFORMER_RMSD>
0.8

> <PUBCHEM_CONFORMER_DIVERSEORDER>
1
96
38
57
52
69
99
92
83
39
63
53
78
88
59
13
55
15
82
101
94
108
54
62
105
28
79
73
116
75
50
117
43
61
109
4
30
2
36
107
115
14
26
6
29
91
122
110
118
23
95
46
74
85
86
42
67
68
87
97
66
47
81
80
120
19
7
70
44
64
104
27
3
45
35
111
90
49
24
48
16
113
40
72
93
77
102
71
119
34
89
12
112
17
32
76
65
106
22
58
5
33
20
37
100
51
25
84
41
114
18
11
103
98
8
121
21
60
56
10
31
9

> <PUBCHEM_MMFF94_PARTIAL_CHARGES>
46
1 -0.02
10 0.18
11 0.45
12 -0.33
13 0.05
14 0.41
15 0.3
16 -0.14
17 0.04
18 -0.15
19 -0.15
2 -0.65
20 0.46
21 0.05
22 -0.15
23 -0.15
24 0.09
25 -0.15
26 -0.15
29 -0.15
3 -0.57
30 0.63
31 -0.15
32 -0.15
33 -0.15
34 -0.15
4 -0.81
42 0.27
43 0.15
44 0.15
45 0.15
46 0.15
47 0.15
48 0.15
49 0.15
5 0.03
50 0.15
51 0.15
52 0.15
53 0.15
54 0.15
55 0.5
6 -0.57
7 -0.57
8 -0.41
9 0.45

> <PUBCHEM_EFFECTIVE_ROTOR_COUNT>
5.8

> <PUBCHEM_PHARMACOPHORE_FEATURES>
13
1 2 acceptor
1 3 acceptor
1 4 cation
1 5 donor
3 2 3 30 anion
3 5 6 17 cation
3 7 8 20 cation
5 1 7 8 15 20 rings
5 5 6 12 13 17 rings
6 16 18 19 22 23 24 rings
6 21 25 26 27 28 29 rings
6 27 28 31 32 33 34 rings
6 4 9 10 11 12 13 rings

> <PUBCHEM_HEAVY_ATOM_COUNT>
34

> <PUBCHEM_ATOM_DEF_STEREO_COUNT>
1

> <PUBCHEM_ATOM_UDEF_STEREO_COUNT>
0

> <PUBCHEM_BOND_DEF_STEREO_COUNT>
0

> <PUBCHEM_BOND_UDEF_STEREO_COUNT>
0

> <PUBCHEM_ISOTOPIC_ATOM_COUNT>
0

> <PUBCHEM_COMPONENT_COUNT>
1

> <PUBCHEM_CACTVS_TAUTO_COUNT>
2

> <PUBCHEM_CONFORMER_ID>
0198183C00000001

> <PUBCHEM_MMFF94_ENERGY>
87.3002

> <PUBCHEM_FEATURE_SELFOVERLAP>
66.157

> <PUBCHEM_SHAPE_FINGERPRINT>
10771551 21 17536896724974822116
10871710 139 18408326596707249995
10974685 15 18199209402406022118
11049842 53 17984973804924361554
11410812 94 18340501045354445868
11477941 20 18198341964755365068
12788726 201 18336824294327113970
13008946 62 18053952749577971309
13540713 5 18189601783771034106
13617811 41 18198901607405549487
13761468 95 17981640132970977112
13782708 43 17274547645733877918
14068700 675 18192703655884531853
14114211 80 17984431741386052481
14202776 33 18340492256922501228
14294032 229 18341900667030472441
14556957 393 18263081174743795718
14910302 57 17774730835105713582
15064981 113 18200869592001890430
15198563 99 18270392914842876823
15289351 153 18046071730241873372
15444296 121 18196943382488622587
15448158 71 18116998788852240096
15705408 1 17546982575179173847
15968369 153 18192730044343433792
16992828 155 18261395498949590941
17686467 74 17841993583968262970
21033650 10 18270135599136710402
21641784 216 18339920544909267791
21716022 299 17334780172650790695
21792964 463 17967527952878498727
23516275 100 17691399038021710800
24893989 43 15758999445491730005
249057 25 18187915210707277250
255183 451 17482259823263698719
312425 54 7925371575972202492
3388396 114 17760659457002587692
3552219 110 18041002899194014083
3610482 184 18261691345408275134
376196 1 17685498646329920041
4066623 53 18052802926148674365
44249763 50 18273208712413568424
46194498 28 17202203122241817408
50677037 204 18115594901878237548
5219985 13 18193561073418112705
6058803 2 18189879951269765354
6371009 1 18042398209693612084
6608658 132 18337673121535128663
6700243 42 17988096598350994782
7808743 9 18409732820434118536

> <PUBCHEM_SHAPE_MULTIPOLES>
657.19
15.44
7.43
2.09
27.73
7.61
-0.27
6.6
-6.63
-19.18
-3.66
1.5
-1.38
-4.93

> <PUBCHEM_SHAPE_SELFOVERLAP>
1476.128

> <PUBCHEM_SHAPE_VOLUME>
347

> <PUBCHEM_COORDINATE_TYPE>
2
5
10

$$$$
