51136972
  -OEChem-12032416223D

 59 62  0     1  0  0  0  0  0999 V2000
   -5.8303   -0.7111    0.8429 Cl  0  0  0  0  0  0  0  0  0  0  0  0
   -1.8565   -1.6733    0.7022 O   0  0  0  0  0  0  0  0  0  0  0  0
   -0.0018   -2.5146   -1.4934 O   0  0  0  0  0  0  0  0  0  0  0  0
   -3.5187   -3.9014    0.2808 O   0  0  0  0  0  0  0  0  0  0  0  0
   -3.5758   -0.4007   -1.3225 O   0  0  0  0  0  0  0  0  0  0  0  0
    1.6806   -0.8648    0.1405 N   0  0  0  0  0  0  0  0  0  0  0  0
    4.3484    0.1561    0.1589 N   0  0  0  0  0  0  0  0  0  0  0  0
   -2.2317    1.0212   -0.0752 N   0  0  0  0  0  0  0  0  0  0  0  0
    0.5208   -1.5530    0.6795 C   0  0  1  0  0  0  0  0  0  0  0  0
   -0.7676   -0.7274    0.7887 C   0  0  1  0  0  0  0  0  0  0  0  0
    0.0757   -2.7815   -0.0991 C   0  0  1  0  0  0  0  0  0  0  0  0
   -1.3186   -2.9911    0.4797 C   0  0  2  0  0  0  0  0  0  0  0  0
    2.8266   -1.7779    0.0525 C   0  0  0  0  0  0  0  0  0  0  0  0
    2.0269    0.2922    0.9756 C   0  0  0  0  0  0  0  0  0  0  0  0
   -0.9977    0.3263   -0.2888 C   0  0  0  0  0  0  0  0  0  0  0  0
    4.0402   -1.0800   -0.5666 C   0  0  0  0  0  0  0  0  0  0  0  0
    3.2130    1.0591    0.3865 C   0  0  0  0  0  0  0  0  0  0  0  0
   -2.2761   -3.7819   -0.3929 C   0  0  0  0  0  0  0  0  0  0  0  0
    5.6260    0.7183    0.0609 C   0  0  0  0  0  0  0  0  0  0  0  0
   -3.4422    0.5961   -0.6174 C   0  0  0  0  0  0  0  0  0  0  0  0
    6.1522    1.4449    1.1289 C   0  0  0  0  0  0  0  0  0  0  0  0
    6.3733    0.5522   -1.1051 C   0  0  0  0  0  0  0  0  0  0  0  0
   -4.6278    1.4418   -0.3241 C   0  0  0  0  0  0  0  0  0  0  0  0
    7.4258    2.0054    1.0311 C   0  0  0  0  0  0  0  0  0  0  0  0
    7.6469    1.1126   -1.2030 C   0  0  0  0  0  0  0  0  0  0  0  0
    8.1731    1.8393   -0.1350 C   0  0  0  0  0  0  0  0  0  0  0  0
   -5.7505    0.9365    0.3314 C   0  0  0  0  0  0  0  0  0  0  0  0
   -4.5959    2.7777   -0.7238 C   0  0  0  0  0  0  0  0  0  0  0  0
   -6.8415    1.7672    0.5873 C   0  0  0  0  0  0  0  0  0  0  0  0
   -5.6869    3.6085   -0.4679 C   0  0  0  0  0  0  0  0  0  0  0  0
   -6.8097    3.1032    0.1877 C   0  0  0  0  0  0  0  0  0  0  0  0
    0.7516   -1.9019    1.6993 H   0  0  0  0  0  0  0  0  0  0  0  0
   -0.8273   -0.2511    1.7754 H   0  0  0  0  0  0  0  0  0  0  0  0
    0.7129   -3.6579    0.0569 H   0  0  0  0  0  0  0  0  0  0  0  0
   -1.2513   -3.4559    1.4719 H   0  0  0  0  0  0  0  0  0  0  0  0
    2.6052   -2.6396   -0.5861 H   0  0  0  0  0  0  0  0  0  0  0  0
    3.0937   -2.1653    1.0452 H   0  0  0  0  0  0  0  0  0  0  0  0
    1.2079    1.0028    1.1023 H   0  0  0  0  0  0  0  0  0  0  0  0
    2.2932   -0.0436    1.9882 H   0  0  0  0  0  0  0  0  0  0  0  0
   -1.0454   -0.1414   -1.2782 H   0  0  0  0  0  0  0  0  0  0  0  0
   -0.2236    1.0927   -0.3296 H   0  0  0  0  0  0  0  0  0  0  0  0
    3.8351   -0.8533   -1.6208 H   0  0  0  0  0  0  0  0  0  0  0  0
    4.8885   -1.7748   -0.5268 H   0  0  0  0  0  0  0  0  0  0  0  0
    3.4723    1.8686    1.0785 H   0  0  0  0  0  0  0  0  0  0  0  0
    2.9257    1.5261   -0.5645 H   0  0  0  0  0  0  0  0  0  0  0  0
   -1.8862   -4.7836   -0.5968 H   0  0  0  0  0  0  0  0  0  0  0  0
   -2.4733   -3.2664   -1.3381 H   0  0  0  0  0  0  0  0  0  0  0  0
   -0.1849   -3.3563   -1.9442 H   0  0  0  0  0  0  0  0  0  0  0  0
   -2.2143    1.8546    0.5058 H   0  0  0  0  0  0  0  0  0  0  0  0
   -4.1103   -4.4123   -0.2976 H   0  0  0  0  0  0  0  0  0  0  0  0
    5.5916    1.5736    2.0511 H   0  0  0  0  0  0  0  0  0  0  0  0
    5.9899    0.0051   -1.9615 H   0  0  0  0  0  0  0  0  0  0  0  0
    7.8370    2.5686    1.8638 H   0  0  0  0  0  0  0  0  0  0  0  0
    8.2279    0.9862   -2.1119 H   0  0  0  0  0  0  0  0  0  0  0  0
    9.1647    2.2757   -0.2113 H   0  0  0  0  0  0  0  0  0  0  0  0
   -3.7313    3.1867   -1.2405 H   0  0  0  0  0  0  0  0  0  0  0  0
   -7.7241    1.3891    1.0970 H   0  0  0  0  0  0  0  0  0  0  0  0
   -5.6628    4.6485   -0.7801 H   0  0  0  0  0  0  0  0  0  0  0  0
   -7.6591    3.7501    0.3866 H   0  0  0  0  0  0  0  0  0  0  0  0
  1 27  1  0  0  0  0
  2 10  1  0  0  0  0
  2 12  1  0  0  0  0
  3 11  1  0  0  0  0
  3 48  1  0  0  0  0
  4 18  1  0  0  0  0
  4 50  1  0  0  0  0
  5 20  2  0  0  0  0
  6  9  1  0  0  0  0
  6 13  1  0  0  0  0
  6 14  1  0  0  0  0
  7 16  1  0  0  0  0
  7 17  1  0  0  0  0
  7 19  1  0  0  0  0
  8 15  1  0  0  0  0
  8 20  1  0  0  0  0
  8 49  1  0  0  0  0
  9 10  1  0  0  0  0
  9 11  1  0  0  0  0
  9 32  1  0  0  0  0
 10 15  1  0  0  0  0
 10 33  1  0  0  0  0
 11 12  1  0  0  0  0
 11 34  1  0  0  0  0
 12 18  1  0  0  0  0
 12 35  1  0  0  0  0
 13 16  1  0  0  0  0
 13 36  1  0  0  0  0
 13 37  1  0  0  0  0
 14 17  1  0  0  0  0
 14 38  1  0  0  0  0
 14 39  1  0  0  0  0
 15 40  1  0  0  0  0
 15 41  1  0  0  0  0
 16 42  1  0  0  0  0
 16 43  1  0  0  0  0
 17 44  1  0  0  0  0
 17 45  1  0  0  0  0
 18 46  1  0  0  0  0
 18 47  1  0  0  0  0
 19 21  2  0  0  0  0
 19 22  1  0  0  0  0
 20 23  1  0  0  0  0
 21 24  1  0  0  0  0
 21 51  1  0  0  0  0
 22 25  2  0  0  0  0
 22 52  1  0  0  0  0
 23 27  1  0  0  0  0
 23 28  2  0  0  0  0
 24 26  2  0  0  0  0
 24 53  1  0  0  0  0
 25 26  1  0  0  0  0
 25 54  1  0  0  0  0
 26 55  1  0  0  0  0
 27 29  2  0  0  0  0
 28 30  1  0  0  0  0
 28 56  1  0  0  0  0
 29 31  1  0  0  0  0
 29 57  1  0  0  0  0
 30 31  2  0  0  0  0
 30 58  1  0  0  0  0
 31 59  1  0  0  0  0
M  END
> <PUBCHEM_COMPOUND_CID>
51136972

> <PUBCHEM_CONFORMER_RMSD>
1

> <PUBCHEM_CONFORMER_DIVERSEORDER>
1
23
37
46
26
25
33
39
43
45
42
38
10
4
18
36
32
22
21
44
41
7
27
19
29
30
6
20
34
13
40
16
31
28
47
24
17
12
5
35
3
8
15
2
14
9
11

> <PUBCHEM_MMFF94_PARTIAL_CHARGES>
43
1 -0.18
10 0.28
11 0.28
12 0.28
13 0.27
14 0.27
15 0.3
16 0.37
17 0.37
18 0.28
19 0.1
2 -0.56
20 0.54
21 -0.15
22 -0.15
23 0.09
24 -0.15
25 -0.15
26 -0.15
27 0.18
28 -0.15
29 -0.15
3 -0.68
30 -0.15
31 -0.15
4 -0.68
48 0.4
49 0.37
5 -0.57
50 0.4
51 0.15
52 0.15
53 0.15
54 0.15
55 0.15
56 0.15
57 0.15
58 0.15
59 0.15
6 -0.81
7 -0.84
8 -0.73
9 0.27

> <PUBCHEM_EFFECTIVE_ROTOR_COUNT>
9.2

> <PUBCHEM_PHARMACOPHORE_FEATURES>
13
1 2 acceptor
1 3 acceptor
1 3 donor
1 4 acceptor
1 4 donor
1 5 acceptor
1 6 cation
1 7 cation
1 8 donor
5 2 9 10 11 12 rings
6 19 21 22 24 25 26 rings
6 23 27 28 29 30 31 rings
6 6 7 13 14 16 17 rings

> <PUBCHEM_HEAVY_ATOM_COUNT>
31

> <PUBCHEM_ATOM_DEF_STEREO_COUNT>
4

> <PUBCHEM_ATOM_UDEF_STEREO_COUNT>
0

> <PUBCHEM_BOND_DEF_STEREO_COUNT>
0

> <PUBCHEM_BOND_UDEF_STEREO_COUNT>
0

> <PUBCHEM_ISOTOPIC_ATOM_COUNT>
0

> <PUBCHEM_COMPONENT_COUNT>
1

> <PUBCHEM_CACTVS_TAUTO_COUNT>
2

> <PUBCHEM_CONFORMER_ID>
030C49CC00000001

> <PUBCHEM_MMFF94_ENERGY>
97.9541

> <PUBCHEM_FEATURE_SELFOVERLAP>
65.98

> <PUBCHEM_SHAPE_FINGERPRINT>
10 15 18113902637328653449
10050765 1 18410009927551220130
10190206 1 18339629144843476399
10369192 42 18410573972741628397
11007060 377 18412544344907353291
11135609 187 18342738490216179160
11475781 23 18201999937516154412
1200032 147 18261958449081600352
12522641 68 18272365356872466215
12895836 83 18410008827737885785
12895837 130 18188778361193704876
12988421 55 17676195862693407787
13248334 5 17905324027251483187
14068700 686 18047468929245225725
14294032 229 18186796981000212596
14395042 24 17968951906968940251
14790565 3 18195246620627880497
15183329 4 16630526206843261620
15188451 53 10879995744770973136
15328684 2 17822834477420755360
15604295 49 18196370545372662680
15803439 3 17060328613497194815
16126227 98 18409732859125850953
16992610 120 18262252062147469012
16994733 274 18261110729801360561
17980427 23 17531531000935369118
18608769 82 18339082700169467107
2026 5 8790879679821827441
21033648 29 18186811248543783890
21424621 283 18409730621110169312
21756936 100 18411694405233996735
23522609 53 17459200728266810988
23569914 152 17341828720857954518
24771293 8 18333733507143905789
25269216 80 17131253750173438093
2838139 119 18411972590265881916
4073 2 18186809041542445939
4403749 210 18261109661134419493
44249763 50 18200586012474756072
44880568 143 18267308810887665132
5385378 56 18114740439672130210
563151 74 16805604724752203512
5758199 1 18410576158890667513
58902169 19 13973696052344519858
59682541 52 16917069915732301444
6327066 14 18409446960058356549
636775 72 18340482378593581880
7808743 9 18335696148157091803
9689198 14 18343305851127620972
9896288 288 18188493608962574826

> <PUBCHEM_SHAPE_MULTIPOLES>
601.41
22.11
4.26
1.07
21.4
2.39
0.09
-24.63
0.06
-6.54
0.29
0.66
-0.05
0.98

> <PUBCHEM_SHAPE_SELFOVERLAP>
1274.453

> <PUBCHEM_SHAPE_VOLUME>
334.6

> <PUBCHEM_COORDINATE_TYPE>
2
5
10

$$$$
