7161676
  -OEChem-12032416353D

 33 33  0     1  0  0  0  0  0999 V2000
    2.8643   -0.4618   -0.0271 S   0  0  0  0  0  0  0  0  0  0  0  0
   -0.5372    2.5574    0.4438 O   0  0  0  0  0  0  0  0  0  0  0  0
    3.2512    0.9091    0.2250 O   0  0  0  0  0  0  0  0  0  0  0  0
    3.4487   -1.2310   -1.1041 O   0  0  0  0  0  0  0  0  0  0  0  0
    0.4885    1.6253   -1.4043 O   0  0  0  0  0  0  0  0  0  0  0  0
   -3.7328   -0.0535    0.8250 O   0  0  0  0  0  0  0  0  0  0  0  0
    1.1606   -0.5385   -0.1568 N   0  0  2  0  0  0  0  0  0  0  0  0
   -1.6674   -0.9092    0.1828 N   0  0  0  0  0  0  0  0  0  0  0  0
    0.3824    0.4220    0.6751 C   0  0  2  0  0  0  0  0  0  0  0  0
   -0.9276   -0.1604    1.1999 C   0  0  0  0  0  0  0  0  0  0  0  0
    0.5725   -1.8998   -0.2489 C   0  0  0  0  0  0  0  0  0  0  0  0
   -0.8810   -1.7868   -0.6882 C   0  0  0  0  0  0  0  0  0  0  0  0
    0.1333    1.5829   -0.2343 C   0  0  0  0  0  0  0  0  0  0  0  0
   -3.0558   -0.7864    0.1008 C   0  0  0  0  0  0  0  0  0  0  0  0
    3.0765   -1.3769    1.4781 C   0  0  0  0  0  0  0  0  0  0  0  0
   -3.7341   -1.6260   -0.9548 C   0  0  0  0  0  0  0  0  0  0  0  0
   -0.8422    3.7338   -0.3119 C   0  0  0  0  0  0  0  0  0  0  0  0
    0.9811    0.7744    1.5221 H   0  0  0  0  0  0  0  0  0  0  0  0
   -0.7138   -0.8749    2.0054 H   0  0  0  0  0  0  0  0  0  0  0  0
   -1.5656    0.6131    1.6402 H   0  0  0  0  0  0  0  0  0  0  0  0
    0.6285   -2.4061    0.7205 H   0  0  0  0  0  0  0  0  0  0  0  0
    1.1178   -2.4986   -0.9854 H   0  0  0  0  0  0  0  0  0  0  0  0
   -0.9386   -1.3695   -1.7006 H   0  0  0  0  0  0  0  0  0  0  0  0
   -1.3425   -2.7791   -0.7085 H   0  0  0  0  0  0  0  0  0  0  0  0
    2.4715   -0.9361    2.2714 H   0  0  0  0  0  0  0  0  0  0  0  0
    2.8224   -2.4252    1.3170 H   0  0  0  0  0  0  0  0  0  0  0  0
    4.1318   -1.3090    1.7552 H   0  0  0  0  0  0  0  0  0  0  0  0
   -4.7972   -1.3692   -0.9945 H   0  0  0  0  0  0  0  0  0  0  0  0
   -3.6453   -2.6862   -0.7050 H   0  0  0  0  0  0  0  0  0  0  0  0
   -3.3017   -1.4312   -1.9394 H   0  0  0  0  0  0  0  0  0  0  0  0
    0.0795    4.2105   -0.6589 H   0  0  0  0  0  0  0  0  0  0  0  0
   -1.3730    4.4302    0.3426 H   0  0  0  0  0  0  0  0  0  0  0  0
   -1.4902    3.4828   -1.1571 H   0  0  0  0  0  0  0  0  0  0  0  0
  1  3  2  0  0  0  0
  1  4  2  0  0  0  0
  1  7  1  0  0  0  0
  1 15  1  0  0  0  0
  2 13  1  0  0  0  0
  2 17  1  0  0  0  0
  5 13  2  0  0  0  0
  6 14  2  0  0  0  0
  7  9  1  0  0  0  0
  7 11  1  0  0  0  0
  8 10  1  0  0  0  0
  8 12  1  0  0  0  0
  8 14  1  0  0  0  0
  9 10  1  0  0  0  0
  9 13  1  0  0  0  0
  9 18  1  0  0  0  0
 10 19  1  0  0  0  0
 10 20  1  0  0  0  0
 11 12  1  0  0  0  0
 11 21  1  0  0  0  0
 11 22  1  0  0  0  0
 12 23  1  0  0  0  0
 12 24  1  0  0  0  0
 14 16  1  0  0  0  0
 15 25  1  0  0  0  0
 15 26  1  0  0  0  0
 15 27  1  0  0  0  0
 16 28  1  0  0  0  0
 16 29  1  0  0  0  0
 16 30  1  0  0  0  0
 17 31  1  0  0  0  0
 17 32  1  0  0  0  0
 17 33  1  0  0  0  0
M  END
> <PUBCHEM_COMPOUND_CID>
7161676

> <PUBCHEM_CONFORMER_RMSD>
0.6

> <PUBCHEM_CONFORMER_DIVERSEORDER>
3
17
4
32
53
11
38
16
33
41
48
47
2
31
55
49
25
28
27
42
39
52
43
54
9
51
24
19
26
50
7
21
30
15
44
46
23
1
20
29
40
12
37
14
22
35
13
34
8
6
45
10
5
36
18

> <PUBCHEM_MMFF94_PARTIAL_CHARGES>
17
1 1.33
10 0.3
11 0.36
12 0.3
13 0.66
14 0.57
15 0.11
16 0.06
17 0.28
2 -0.43
3 -0.65
4 -0.65
5 -0.57
6 -0.57
7 -0.85
8 -0.66
9 0.42

> <PUBCHEM_EFFECTIVE_ROTOR_COUNT>
5.2

> <PUBCHEM_PHARMACOPHORE_FEATURES>
5
1 3 acceptor
1 4 acceptor
1 5 acceptor
1 6 acceptor
6 7 8 9 10 11 12 rings

> <PUBCHEM_HEAVY_ATOM_COUNT>
17

> <PUBCHEM_ATOM_DEF_STEREO_COUNT>
1

> <PUBCHEM_ATOM_UDEF_STEREO_COUNT>
0

> <PUBCHEM_BOND_DEF_STEREO_COUNT>
0

> <PUBCHEM_BOND_UDEF_STEREO_COUNT>
0

> <PUBCHEM_ISOTOPIC_ATOM_COUNT>
0

> <PUBCHEM_COMPONENT_COUNT>
1

> <PUBCHEM_CACTVS_TAUTO_COUNT>
1

> <PUBCHEM_CONFORMER_ID>
006D474C00000003

> <PUBCHEM_MMFF94_ENERGY>
33.7355

> <PUBCHEM_FEATURE_SELFOVERLAP>
25.391

> <PUBCHEM_SHAPE_FINGERPRINT>
10219947 1 18411702114252166331
104564 63 18265618688740687093
11132069 177 18060133211067440802
12423570 1 11213538626378445472
13132413 78 18198062675585010077
13134695 92 18263066864213393301
14181834 199 18192989550377347517
14648413 74 17832139798650059179
14993402 34 18340769354900626374
15490181 8 17040346389921904072
15848700 24 18341324556748766214
16945 1 18268425728925446314
193761 8 17762904264345256979
20339313 130 18338242677417218019
20388701 513 18340760451591346002
20511035 2 17627227093494085511
20671657 1 17978513362382528245
20711985 344 18263935336554645602
21041028 32 18263100897893183385
21130352 189 18336821000350422359
21501502 16 17973167223357951162
21524375 3 17322956642432216072
22112679 90 18197807490303591417
23388829 49 18410582789882082129
23402539 116 18412536604938805870
23419403 2 17829565691795854620
23530152 11 17473822819075633053
23559900 14 17346604071329100338
2748010 2 18339912788245602529
305870 269 17400636520432912989
3250762 1 17765157167844224695
3286 77 16558753382333287690
34934 24 18266454485318781306
4175511 71 18338806714076408485
589210 1 17832420899806807635
6992083 37 18272094928519634267
7364860 26 17837488914150405705
81228 2 18262524680205457984

> <PUBCHEM_SHAPE_MULTIPOLES>
314.39
5.49
3.06
1.15
0.54
3.59
-0.06
-3.24
-0.09
0.91
0.6
-0.23
-0.19
-0.45

> <PUBCHEM_SHAPE_SELFOVERLAP>
615.193

> <PUBCHEM_SHAPE_VOLUME>
190.5

> <PUBCHEM_COORDINATE_TYPE>
2
5
10

$$$$
