51136666
  -OEChem-12032416143D

 58 61  0     1  0  0  0  0  0999 V2000
    0.8276    3.4515    1.7705 O   0  0  0  0  0  0  0  0  0  0  0  0
    5.9948   -2.9327    0.7087 O   0  0  0  0  0  0  0  0  0  0  0  0
    6.3502   -0.7415    0.2055 O   0  0  0  0  0  0  0  0  0  0  0  0
   -5.2681   -1.6618    1.3664 O   0  0  0  0  0  0  0  0  0  0  0  0
    1.8048    2.0277    0.1920 N   0  0  0  0  0  0  0  0  0  0  0  0
    0.1888   -1.6416   -1.9848 N   0  0  0  0  0  0  0  0  0  0  0  0
   -1.9451    3.0133   -1.8232 N   0  0  0  0  0  0  0  0  0  0  0  0
    2.1646   -0.2612   -0.7065 C   0  0  2  0  0  0  0  0  0  0  0  0
    3.5780   -0.2466   -0.0701 C   0  0  1  0  0  0  0  0  0  0  0  0
    3.6402    0.6908    1.1479 C   0  0  0  0  0  0  0  0  0  0  0  0
    1.7085    1.1791   -1.0041 C   0  0  0  0  0  0  0  0  0  0  0  0
    3.1339    2.0872    0.7972 C   0  0  0  0  0  0  0  0  0  0  0  0
    1.1101   -0.9905    0.1354 C   0  0  0  0  0  0  0  0  0  0  0  0
    4.0863   -1.6406    0.2964 C   0  0  0  0  0  0  0  0  0  0  0  0
   -0.0513   -1.3984   -0.7386 C   0  0  0  0  0  0  0  0  0  0  0  0
    0.7528    2.7448    0.7667 C   0  0  0  0  0  0  0  0  0  0  0  0
   -1.4039   -1.4929   -0.1325 C   0  0  0  0  0  0  0  0  0  0  0  0
    5.5869   -1.6781    0.3871 C   0  0  0  0  0  0  0  0  0  0  0  0
   -2.4923   -1.4874   -1.0143 C   0  0  0  0  0  0  0  0  0  0  0  0
   -2.2266   -1.3738   -2.4860 C   0  0  0  0  0  0  0  0  0  0  0  0
   -0.9281   -2.0963   -2.8199 C   0  0  0  0  0  0  0  0  0  0  0  0
   -0.5672    2.6607    0.1318 C   0  0  0  0  0  0  0  0  0  0  0  0
   -1.6099   -1.5696    1.2462 C   0  0  0  0  0  0  0  0  0  0  0  0
   -3.7930   -1.5332   -0.5051 C   0  0  0  0  0  0  0  0  0  0  0  0
   -2.9120   -1.6307    1.7445 C   0  0  0  0  0  0  0  0  0  0  0  0
   -4.0006   -1.6098    0.8722 C   0  0  0  0  0  0  0  0  0  0  0  0
   -1.6668    2.1706    0.8275 C   0  0  0  0  0  0  0  0  0  0  0  0
   -0.7573    3.0655   -1.1796 C   0  0  0  0  0  0  0  0  0  0  0  0
   -2.9054    2.1012    0.1994 C   0  0  0  0  0  0  0  0  0  0  0  0
   -2.9909    2.5312   -1.1150 C   0  0  0  0  0  0  0  0  0  0  0  0
   -5.4089   -1.7367    2.7843 C   0  0  0  0  0  0  0  0  0  0  0  0
    2.2958   -0.7652   -1.6723 H   0  0  0  0  0  0  0  0  0  0  0  0
    4.2483    0.1760   -0.8335 H   0  0  0  0  0  0  0  0  0  0  0  0
    4.6632    0.7708    1.5311 H   0  0  0  0  0  0  0  0  0  0  0  0
    3.0280    0.2813    1.9615 H   0  0  0  0  0  0  0  0  0  0  0  0
    2.3624    1.6286   -1.7618 H   0  0  0  0  0  0  0  0  0  0  0  0
    0.7082    1.1486   -1.4303 H   0  0  0  0  0  0  0  0  0  0  0  0
    0.7815   -0.3627    0.9679 H   0  0  0  0  0  0  0  0  0  0  0  0
    1.5063   -1.9204    0.5559 H   0  0  0  0  0  0  0  0  0  0  0  0
    3.1244    2.7128    1.6955 H   0  0  0  0  0  0  0  0  0  0  0  0
    3.8027    2.5662    0.0724 H   0  0  0  0  0  0  0  0  0  0  0  0
    3.7960   -2.3566   -0.4818 H   0  0  0  0  0  0  0  0  0  0  0  0
    3.6757   -1.9710    1.2568 H   0  0  0  0  0  0  0  0  0  0  0  0
   -2.1526   -0.3120   -2.7498 H   0  0  0  0  0  0  0  0  0  0  0  0
   -3.0460   -1.8122   -3.0663 H   0  0  0  0  0  0  0  0  0  0  0  0
   -0.6758   -1.9133   -3.8701 H   0  0  0  0  0  0  0  0  0  0  0  0
   -1.0416   -3.1814   -2.7028 H   0  0  0  0  0  0  0  0  0  0  0  0
   -0.7837   -1.5976    1.9494 H   0  0  0  0  0  0  0  0  0  0  0  0
   -4.6451   -1.5099   -1.1797 H   0  0  0  0  0  0  0  0  0  0  0  0
    6.9716   -2.9934    0.7767 H   0  0  0  0  0  0  0  0  0  0  0  0
   -3.0055   -1.6921    2.8235 H   0  0  0  0  0  0  0  0  0  0  0  0
   -1.5701    1.8380    1.8575 H   0  0  0  0  0  0  0  0  0  0  0  0
    0.0544    3.4768   -1.7725 H   0  0  0  0  0  0  0  0  0  0  0  0
   -3.7765    1.7242    0.7225 H   0  0  0  0  0  0  0  0  0  0  0  0
   -3.9341    2.4964   -1.6501 H   0  0  0  0  0  0  0  0  0  0  0  0
   -4.9742   -2.6592    3.1839 H   0  0  0  0  0  0  0  0  0  0  0  0
   -5.0109   -0.8425    3.2760 H   0  0  0  0  0  0  0  0  0  0  0  0
   -6.4817   -1.7693    3.0010 H   0  0  0  0  0  0  0  0  0  0  0  0
  1 16  2  0  0  0  0
  2 18  1  0  0  0  0
  2 50  1  0  0  0  0
  3 18  2  0  0  0  0
  4 26  1  0  0  0  0
  4 31  1  0  0  0  0
  5 11  1  0  0  0  0
  5 12  1  0  0  0  0
  5 16  1  0  0  0  0
  6 15  2  0  0  0  0
  6 21  1  0  0  0  0
  7 28  1  0  0  0  0
  7 30  2  0  0  0  0
  8  9  1  0  0  0  0
  8 11  1  0  0  0  0
  8 13  1  0  0  0  0
  8 32  1  0  0  0  0
  9 10  1  0  0  0  0
  9 14  1  0  0  0  0
  9 33  1  0  0  0  0
 10 12  1  0  0  0  0
 10 34  1  0  0  0  0
 10 35  1  0  0  0  0
 11 36  1  0  0  0  0
 11 37  1  0  0  0  0
 12 40  1  0  0  0  0
 12 41  1  0  0  0  0
 13 15  1  0  0  0  0
 13 38  1  0  0  0  0
 13 39  1  0  0  0  0
 14 18  1  0  0  0  0
 14 42  1  0  0  0  0
 14 43  1  0  0  0  0
 15 17  1  0  0  0  0
 16 22  1  0  0  0  0
 17 19  2  0  0  0  0
 17 23  1  0  0  0  0
 19 20  1  0  0  0  0
 19 24  1  0  0  0  0
 20 21  1  0  0  0  0
 20 44  1  0  0  0  0
 20 45  1  0  0  0  0
 21 46  1  0  0  0  0
 21 47  1  0  0  0  0
 22 27  1  0  0  0  0
 22 28  2  0  0  0  0
 23 25  2  0  0  0  0
 23 48  1  0  0  0  0
 24 26  2  0  0  0  0
 24 49  1  0  0  0  0
 25 26  1  0  0  0  0
 25 51  1  0  0  0  0
 27 29  2  0  0  0  0
 27 52  1  0  0  0  0
 28 53  1  0  0  0  0
 29 30  1  0  0  0  0
 29 54  1  0  0  0  0
 30 55  1  0  0  0  0
 31 56  1  0  0  0  0
 31 57  1  0  0  0  0
 31 58  1  0  0  0  0
M  END
> <PUBCHEM_COMPOUND_CID>
51136666

> <PUBCHEM_CONFORMER_RMSD>
1

> <PUBCHEM_CONFORMER_DIVERSEORDER>
1
59
102
94
146
89
76
39
107
130
142
13
133
17
91
71
126
38
74
98
140
43
104
96
101
33
119
75
118
127
112
123
125
5
15
32
36
81
22
11
61
110
137
117
51
136
124
80
84
65
115
99
86
18
116
93
120
144
113
23
145
100
57
12
35
141
20
47
132
25
79
49
3
67
114
7
138
135
87
103
92
52
122
24
105
4
88
46
72
78
19
63
95
77
139
58
121
70
30
9
26
73
16
82
45
62
14
53
134
48
50
131
34
37
31
41
28
64
90
128
85
97
109
108
111
55
29
42
68
21
40
56
8
27
66
143
44
6
60
83
69
54
129
106
10
2

> <PUBCHEM_MMFF94_PARTIAL_CHARGES>
36
1 -0.57
11 0.3
12 0.3
13 0.06
14 0.06
15 0.3
16 0.54
17 0.09
18 0.66
19 -0.14
2 -0.65
20 0.14
21 0.25
22 0.09
23 -0.15
24 -0.15
25 -0.15
26 0.08
27 -0.15
28 0.16
29 -0.15
3 -0.57
30 0.16
31 0.28
4 -0.36
48 0.15
49 0.15
5 -0.66
50 0.5
51 0.15
52 0.15
53 0.15
54 0.15
55 0.15
6 -0.7
7 -0.62

> <PUBCHEM_EFFECTIVE_ROTOR_COUNT>
8.6

> <PUBCHEM_PHARMACOPHORE_FEATURES>
11
1 1 acceptor
1 2 acceptor
1 3 acceptor
1 4 acceptor
1 6 acceptor
1 7 acceptor
3 2 3 18 anion
6 17 19 23 24 25 26 rings
6 5 8 9 10 11 12 rings
6 6 15 17 19 20 21 rings
6 7 22 27 28 29 30 rings

> <PUBCHEM_HEAVY_ATOM_COUNT>
31

> <PUBCHEM_ATOM_DEF_STEREO_COUNT>
2

> <PUBCHEM_ATOM_UDEF_STEREO_COUNT>
0

> <PUBCHEM_BOND_DEF_STEREO_COUNT>
0

> <PUBCHEM_BOND_UDEF_STEREO_COUNT>
0

> <PUBCHEM_ISOTOPIC_ATOM_COUNT>
0

> <PUBCHEM_COMPONENT_COUNT>
1

> <PUBCHEM_CACTVS_TAUTO_COUNT>
1

> <PUBCHEM_CONFORMER_ID>
030C489A00000001

> <PUBCHEM_MMFF94_ENERGY>
95.1225

> <PUBCHEM_FEATURE_SELFOVERLAP>
55.908

> <PUBCHEM_SHAPE_FINGERPRINT>
10119406 146 17550388432980275822
10190108 129 18191882321463908880
10688039 33 18114466750985836613
10764073 3 18338812121973231097
11135609 12 18261109694872218160
11578080 2 17272537720849372560
12422481 6 18343033181255431793
12633257 1 17060341863655807802
13140716 1 18342176627053260640
13965767 371 17845662589012269710
14790565 3 17329429956959139552
14840074 17 18052829335902902093
15420108 30 17343785073918316444
16728300 4 18190173499241347482
17492 54 17979324514285765669
17980427 23 16271641295279224122
22182313 1 17844259427739872702
23559900 14 16878219878570560759
24893992 56 17894909651836023611
3380486 145 18129644413664296216
35225 105 18049136913683898925
469060 322 16588026775267796422
513202 73 18198910202231142422
70251023 43 18197190737078789975
7064713 232 17131566027996101403

> <PUBCHEM_SHAPE_MULTIPOLES>
599.55
10.18
4.27
2.18
9.23
3.37
-0.53
-8.83
5.66
-0.5
-0.02
-2.73
-0.92
1.36

> <PUBCHEM_SHAPE_SELFOVERLAP>
1290.203

> <PUBCHEM_SHAPE_VOLUME>
326.4

> <PUBCHEM_COORDINATE_TYPE>
2
5
10

$$$$
