7134566
  -OEChem-12032416353D

 62 63  0     1  0  0  0  0  0999 V2000
    7.1839    1.4873   -0.1707 S   0  0  0  0  0  0  0  0  0  0  0  0
   -1.6716   -0.6255    1.8488 O   0  0  0  0  0  0  0  0  0  0  0  0
   -3.7573    2.8136    1.3334 O   0  0  0  0  0  0  0  0  0  0  0  0
    3.5941    1.6073    1.4059 O   0  0  0  0  0  0  0  0  0  0  0  0
   -2.2741   -3.8091   -0.9771 O   0  0  0  0  0  0  0  0  0  0  0  0
   -7.7948    1.4580   -1.1015 O   0  0  0  0  0  0  0  0  0  0  0  0
   -6.1471    0.1788   -2.0030 O   0  0  0  0  0  0  0  0  0  0  0  0
   -1.9088    1.6252    0.5639 N   0  0  0  0  0  0  0  0  0  0  0  0
    2.2161    1.8890   -0.4417 N   0  0  0  0  0  0  0  0  0  0  0  0
   -0.8124   -1.8051    0.0352 N   0  0  0  0  0  0  0  0  0  0  0  0
   -1.6656   -5.2861    0.6724 N   0  0  0  0  0  0  0  0  0  0  0  0
    0.9847    1.4933    0.1981 C   0  0  2  0  0  0  0  0  0  0  0  0
   -1.3424    0.5175   -0.2227 C   0  0  1  0  0  0  0  0  0  0  0  0
    0.0351    0.8369   -0.8081 C   0  0  0  0  0  0  0  0  0  0  0  0
    0.3101    2.6948    0.8564 C   0  0  0  0  0  0  0  0  0  0  0  0
   -1.0041    2.2890    1.5101 C   0  0  0  0  0  0  0  0  0  0  0  0
   -1.3087   -0.6833    0.6769 C   0  0  0  0  0  0  0  0  0  0  0  0
   -3.2643    1.9751    0.5741 C   0  0  0  0  0  0  0  0  0  0  0  0
   -0.6561   -3.0849    0.6879 C   0  0  2  0  0  0  0  0  0  0  0  0
   -4.1543    1.2758   -0.4234 C   0  0  0  0  0  0  0  0  0  0  0  0
    0.8027   -3.5885    0.6939 C   0  0  0  0  0  0  0  0  0  0  0  0
    3.4306    1.9123    0.2258 C   0  0  0  0  0  0  0  0  0  0  0  0
   -5.5789    1.7702   -0.2756 C   0  0  0  0  0  0  0  0  0  0  0  0
    4.5851    2.3450   -0.6566 C   0  0  0  0  0  0  0  0  0  0  0  0
   -1.6056   -4.0731    0.0196 C   0  0  0  0  0  0  0  0  0  0  0  0
    1.7690   -2.6247    1.3907 C   0  0  0  0  0  0  0  0  0  0  0  0
    1.2913   -3.8756   -0.7293 C   0  0  0  0  0  0  0  0  0  0  0  0
    5.5886    1.2286   -0.7365 C   0  0  0  0  0  0  0  0  0  0  0  0
   -6.5094    1.0402   -1.2122 C   0  0  0  0  0  0  0  0  0  0  0  0
    5.4138   -0.0477   -1.2245 C   0  0  0  0  0  0  0  0  0  0  0  0
    6.6053   -0.8236   -1.1324 C   0  0  0  0  0  0  0  0  0  0  0  0
    7.6453   -0.1107   -0.5778 C   0  0  0  0  0  0  0  0  0  0  0  0
    1.2319    0.7621    0.9780 H   0  0  0  0  0  0  0  0  0  0  0  0
   -2.0051    0.2663   -1.0557 H   0  0  0  0  0  0  0  0  0  0  0  0
   -0.1152    1.5366   -1.6432 H   0  0  0  0  0  0  0  0  0  0  0  0
    0.5204   -0.0399   -1.2511 H   0  0  0  0  0  0  0  0  0  0  0  0
    0.9716    3.1407    1.6088 H   0  0  0  0  0  0  0  0  0  0  0  0
    0.1209    3.4726    0.1048 H   0  0  0  0  0  0  0  0  0  0  0  0
   -1.4831    3.1804    1.9290 H   0  0  0  0  0  0  0  0  0  0  0  0
   -0.8180    1.6120    2.3502 H   0  0  0  0  0  0  0  0  0  0  0  0
    2.1698    2.2147   -1.4027 H   0  0  0  0  0  0  0  0  0  0  0  0
   -0.6349   -1.7672   -0.9639 H   0  0  0  0  0  0  0  0  0  0  0  0
   -0.9879   -2.9855    1.7296 H   0  0  0  0  0  0  0  0  0  0  0  0
   -4.1137    0.1955   -0.2446 H   0  0  0  0  0  0  0  0  0  0  0  0
   -3.7918    1.4830   -1.4365 H   0  0  0  0  0  0  0  0  0  0  0  0
    0.8465   -4.5352    1.2471 H   0  0  0  0  0  0  0  0  0  0  0  0
   -5.9407    1.6044    0.7459 H   0  0  0  0  0  0  0  0  0  0  0  0
   -5.6392    2.8408   -0.5035 H   0  0  0  0  0  0  0  0  0  0  0  0
    4.2437    2.5944   -1.6674 H   0  0  0  0  0  0  0  0  0  0  0  0
    5.0090    3.2585   -0.2243 H   0  0  0  0  0  0  0  0  0  0  0  0
    1.4260   -2.4000    2.4059 H   0  0  0  0  0  0  0  0  0  0  0  0
    2.7686   -3.0662    1.4645 H   0  0  0  0  0  0  0  0  0  0  0  0
    1.8615   -1.6811    0.8439 H   0  0  0  0  0  0  0  0  0  0  0  0
    2.3148   -4.2667   -0.7073 H   0  0  0  0  0  0  0  0  0  0  0  0
    0.6729   -4.6266   -1.2301 H   0  0  0  0  0  0  0  0  0  0  0  0
    1.3009   -2.9714   -1.3468 H   0  0  0  0  0  0  0  0  0  0  0  0
   -2.2662   -6.0296    0.3317 H   0  0  0  0  0  0  0  0  0  0  0  0
   -1.1409   -5.4804    1.5189 H   0  0  0  0  0  0  0  0  0  0  0  0
    4.4783   -0.4123   -1.6298 H   0  0  0  0  0  0  0  0  0  0  0  0
    6.6949   -1.8522   -1.4566 H   0  0  0  0  0  0  0  0  0  0  0  0
    8.6540   -0.4518   -0.3921 H   0  0  0  0  0  0  0  0  0  0  0  0
   -8.3886    0.9843   -1.7221 H   0  0  0  0  0  0  0  0  0  0  0  0
  1 28  1  0  0  0  0
  1 32  1  0  0  0  0
  2 17  2  0  0  0  0
  3 18  2  0  0  0  0
  4 22  2  0  0  0  0
  5 25  2  0  0  0  0
  6 29  1  0  0  0  0
  6 62  1  0  0  0  0
  7 29  2  0  0  0  0
  8 13  1  0  0  0  0
  8 16  1  0  0  0  0
  8 18  1  0  0  0  0
  9 12  1  0  0  0  0
  9 22  1  0  0  0  0
  9 41  1  0  0  0  0
 10 17  1  0  0  0  0
 10 19  1  0  0  0  0
 10 42  1  0  0  0  0
 11 25  1  0  0  0  0
 11 57  1  0  0  0  0
 11 58  1  0  0  0  0
 12 14  1  0  0  0  0
 12 15  1  0  0  0  0
 12 33  1  0  0  0  0
 13 14  1  0  0  0  0
 13 17  1  0  0  0  0
 13 34  1  0  0  0  0
 14 35  1  0  0  0  0
 14 36  1  0  0  0  0
 15 16  1  0  0  0  0
 15 37  1  0  0  0  0
 15 38  1  0  0  0  0
 16 39  1  0  0  0  0
 16 40  1  0  0  0  0
 18 20  1  0  0  0  0
 19 21  1  0  0  0  0
 19 25  1  0  0  0  0
 19 43  1  0  0  0  0
 20 23  1  0  0  0  0
 20 44  1  0  0  0  0
 20 45  1  0  0  0  0
 21 26  1  0  0  0  0
 21 27  1  0  0  0  0
 21 46  1  0  0  0  0
 22 24  1  0  0  0  0
 23 29  1  0  0  0  0
 23 47  1  0  0  0  0
 23 48  1  0  0  0  0
 24 28  1  0  0  0  0
 24 49  1  0  0  0  0
 24 50  1  0  0  0  0
 26 51  1  0  0  0  0
 26 52  1  0  0  0  0
 26 53  1  0  0  0  0
 27 54  1  0  0  0  0
 27 55  1  0  0  0  0
 27 56  1  0  0  0  0
 28 30  2  0  0  0  0
 30 31  1  0  0  0  0
 30 59  1  0  0  0  0
 31 32  2  0  0  0  0
 31 60  1  0  0  0  0
 32 61  1  0  0  0  0
M  END
> <PUBCHEM_COMPOUND_CID>
7134566

> <PUBCHEM_CONFORMER_RMSD>
1.2

> <PUBCHEM_CONFORMER_DIVERSEORDER>
1
22
7
17
32
21
23
31
19
12
16
13
27
11
3
30
24
28
10
15
6
9
5
20
25
18
4
14
2
29
26
8

> <PUBCHEM_MMFF94_PARTIAL_CHARGES>
35
1 -0.08
10 -0.73
11 -0.8
12 0.3
13 0.36
16 0.3
17 0.57
18 0.57
19 0.36
2 -0.57
20 0.06
22 0.57
23 0.06
24 0.24
25 0.57
28 -0.14
29 0.66
3 -0.57
30 -0.15
31 -0.15
32 -0.11
4 -0.57
41 0.37
42 0.37
5 -0.57
57 0.37
58 0.37
59 0.15
6 -0.65
60 0.15
61 0.15
62 0.5
7 -0.57
8 -0.66
9 -0.73

> <PUBCHEM_EFFECTIVE_ROTOR_COUNT>
14.2

> <PUBCHEM_PHARMACOPHORE_FEATURES>
13
1 10 donor
1 11 donor
1 2 acceptor
1 3 acceptor
1 4 acceptor
1 5 acceptor
1 6 acceptor
1 7 acceptor
1 9 donor
3 21 26 27 hydrophobe
3 6 7 29 anion
5 1 28 30 31 32 rings
6 8 12 13 14 15 16 rings

> <PUBCHEM_HEAVY_ATOM_COUNT>
32

> <PUBCHEM_ATOM_DEF_STEREO_COUNT>
3

> <PUBCHEM_ATOM_UDEF_STEREO_COUNT>
0

> <PUBCHEM_BOND_DEF_STEREO_COUNT>
0

> <PUBCHEM_BOND_UDEF_STEREO_COUNT>
0

> <PUBCHEM_ISOTOPIC_ATOM_COUNT>
0

> <PUBCHEM_COMPONENT_COUNT>
1

> <PUBCHEM_CACTVS_TAUTO_COUNT>
8

> <PUBCHEM_CONFORMER_ID>
006CDD6600000001

> <PUBCHEM_MMFF94_ENERGY>
57.6091

> <PUBCHEM_FEATURE_SELFOVERLAP>
66.032

> <PUBCHEM_SHAPE_FINGERPRINT>
10254770 206 18047185255899465114
10483366 6 18341888615347016799
11135609 187 18336262332437645405
11135926 11 18409170979294597453
11991303 11 18113622334635181007
12202916 173 17988923362665541404
12643181 29 18409172104665147742
1361 2 18338233739374075283
13692114 37 18272075119919741454
14784336 7 18059571343715109160
14866123 147 18339653354983305938
15664445 248 17407130858818742151
15927050 60 18411979161355296455
16067689 391 17986666176952935143
19301676 85 18341339886157601990
19958102 18 18409729560454025900
20721686 146 14201664322571781751
21344244 246 18338797810556644951
23559900 14 18272086162623888912
249057 3 18187369852813780332
2747138 104 10447923997387881588
3383291 50 18413394245572816506
340366 18 18041569143123874332
3633792 109 18410573946597927284
38695281 34 18336554794093439856
4017518 198 18411987953580515926
4073 2 18341053030071918816
45266715 3 18341055116238861806
484989 97 18338801242588909763
5085150 59 18342451556890091658
513202 73 17899712433393203499
563151 97 18339361839038091409
59755656 520 18409162225386091581

> <PUBCHEM_SHAPE_MULTIPOLES>
607.25
16.69
5.63
1.41
8.42
9.44
-0.07
-12.19
9.41
-3.05
-1.17
-0.87
-0.11
0.24

> <PUBCHEM_SHAPE_SELFOVERLAP>
1232.772

> <PUBCHEM_SHAPE_VOLUME>
353

> <PUBCHEM_COORDINATE_TYPE>
2
5
10

$$$$
