25389057
  -OEChem-12032416163D

 58 62  0     1  0  0  0  0  0999 V2000
    4.6097    1.2153    1.0591 O   0  0  0  0  0  0  0  0  0  0  0  0
    4.1008   -2.0516   -0.2210 O   0  0  0  0  0  0  0  0  0  0  0  0
    0.4807    3.1169    0.5497 N   0  0  2  0  0  0  0  0  0  0  0  0
   -3.8746    1.2044    0.3831 N   0  0  0  0  0  0  0  0  0  0  0  0
    2.6304    0.0405    0.7638 N   0  0  0  0  0  0  0  0  0  0  0  0
   -4.5436    0.0550    0.5774 N   0  0  0  0  0  0  0  0  0  0  0  0
   -0.6284    2.0173   -1.5344 C   0  0  2  0  0  0  0  0  0  0  0  0
   -1.6680    2.1899   -0.3927 C   0  0  2  0  0  0  0  0  0  0  0  0
    1.3032    1.9701    0.0819 C   0  0  2  0  0  0  0  0  0  0  0  0
    0.5617    1.1810   -1.0185 C   0  0  0  0  0  0  0  0  0  0  0  0
   -0.8937    2.6587    0.8723 C   0  0  0  0  0  0  0  0  0  0  0  0
   -0.0860    3.4257   -1.8594 C   0  0  0  0  0  0  0  0  0  0  0  0
    0.3935    4.0961   -0.5600 C   0  0  0  0  0  0  0  0  0  0  0  0
   -2.6096    1.0313   -0.0969 C   0  0  0  0  0  0  0  0  0  0  0  0
    1.7477    1.0641    1.2321 C   0  0  0  0  0  0  0  0  0  0  0  0
   -2.4391   -0.3255   -0.2252 C   0  0  0  0  0  0  0  0  0  0  0  0
   -4.0391   -2.3388    0.2734 C   0  0  0  0  0  0  0  0  0  0  0  0
   -3.6616   -0.8760    0.2040 C   0  0  0  0  0  0  0  0  0  0  0  0
   -3.9914   -3.0261   -1.1029 C   0  0  0  0  0  0  0  0  0  0  0  0
   -3.1397   -3.1883    1.1953 C   0  0  0  0  0  0  0  0  0  0  0  0
   -3.5024   -4.4372   -0.8138 C   0  0  0  0  0  0  0  0  0  0  0  0
   -2.4838   -4.2267    0.2925 C   0  0  0  0  0  0  0  0  0  0  0  0
   -4.5238    2.4583    0.6873 C   0  0  0  0  0  0  0  0  0  0  0  0
    4.0143    0.1983    0.7129 C   0  0  0  0  0  0  0  0  0  0  0  0
    4.7897   -0.9496    0.1764 C   0  0  0  0  0  0  0  0  0  0  0  0
    6.1403   -1.1305   -0.0109 C   0  0  0  0  0  0  0  0  0  0  0  0
    6.2911   -2.4268   -0.5587 C   0  0  0  0  0  0  0  0  0  0  0  0
    5.0217   -2.9457   -0.6668 C   0  0  0  0  0  0  0  0  0  0  0  0
   -1.0754    1.5553   -2.4210 H   0  0  0  0  0  0  0  0  0  0  0  0
   -2.3114    3.0242   -0.7103 H   0  0  0  0  0  0  0  0  0  0  0  0
    2.2240    2.3806   -0.3590 H   0  0  0  0  0  0  0  0  0  0  0  0
    0.2317    0.2063   -0.6569 H   0  0  0  0  0  0  0  0  0  0  0  0
    1.2531    0.9869   -1.8485 H   0  0  0  0  0  0  0  0  0  0  0  0
   -0.8642    1.8768    1.6401 H   0  0  0  0  0  0  0  0  0  0  0  0
   -1.4400    3.4879    1.3408 H   0  0  0  0  0  0  0  0  0  0  0  0
   -0.8651    4.0377   -2.3286 H   0  0  0  0  0  0  0  0  0  0  0  0
    0.7419    3.3503   -2.5747 H   0  0  0  0  0  0  0  0  0  0  0  0
    1.3711    4.5666   -0.7224 H   0  0  0  0  0  0  0  0  0  0  0  0
   -0.2833    4.9140   -0.2818 H   0  0  0  0  0  0  0  0  0  0  0  0
    0.9008    0.5563    1.7043 H   0  0  0  0  0  0  0  0  0  0  0  0
    2.2573    1.6524    2.0041 H   0  0  0  0  0  0  0  0  0  0  0  0
   -1.5748   -0.8618   -0.5832 H   0  0  0  0  0  0  0  0  0  0  0  0
   -5.0667   -2.4101    0.6576 H   0  0  0  0  0  0  0  0  0  0  0  0
   -4.9723   -3.0286   -1.5898 H   0  0  0  0  0  0  0  0  0  0  0  0
   -3.2913   -2.5298   -1.7858 H   0  0  0  0  0  0  0  0  0  0  0  0
   -3.7659   -3.6984    1.9382 H   0  0  0  0  0  0  0  0  0  0  0  0
   -2.3937   -2.6059    1.7459 H   0  0  0  0  0  0  0  0  0  0  0  0
    2.2244   -0.8354    0.4469 H   0  0  0  0  0  0  0  0  0  0  0  0
   -4.3303   -5.0610   -0.4567 H   0  0  0  0  0  0  0  0  0  0  0  0
   -3.0672   -4.9149   -1.6961 H   0  0  0  0  0  0  0  0  0  0  0  0
   -1.5514   -3.8266   -0.1233 H   0  0  0  0  0  0  0  0  0  0  0  0
   -2.2497   -5.1519    0.8267 H   0  0  0  0  0  0  0  0  0  0  0  0
   -4.6710    3.0066   -0.2462 H   0  0  0  0  0  0  0  0  0  0  0  0
   -5.4923    2.2623    1.1557 H   0  0  0  0  0  0  0  0  0  0  0  0
   -3.8944    3.0228    1.3787 H   0  0  0  0  0  0  0  0  0  0  0  0
    6.9223   -0.4201    0.2167 H   0  0  0  0  0  0  0  0  0  0  0  0
    7.2098   -2.9211   -0.8395 H   0  0  0  0  0  0  0  0  0  0  0  0
    4.6262   -3.8861   -1.0219 H   0  0  0  0  0  0  0  0  0  0  0  0
  1 24  2  0  0  0  0
  2 25  1  0  0  0  0
  2 28  1  0  0  0  0
  3  9  1  0  0  0  0
  3 11  1  0  0  0  0
  3 13  1  0  0  0  0
  4  6  1  0  0  0  0
  4 14  1  0  0  0  0
  4 23  1  0  0  0  0
  5 15  1  0  0  0  0
  5 24  1  0  0  0  0
  5 48  1  0  0  0  0
  6 18  2  0  0  0  0
  7  8  1  0  0  0  0
  7 10  1  0  0  0  0
  7 12  1  0  0  0  0
  7 29  1  0  0  0  0
  8 11  1  0  0  0  0
  8 14  1  0  0  0  0
  8 30  1  0  0  0  0
  9 10  1  0  0  0  0
  9 15  1  0  0  0  0
  9 31  1  0  0  0  0
 10 32  1  0  0  0  0
 10 33  1  0  0  0  0
 11 34  1  0  0  0  0
 11 35  1  0  0  0  0
 12 13  1  0  0  0  0
 12 36  1  0  0  0  0
 12 37  1  0  0  0  0
 13 38  1  0  0  0  0
 13 39  1  0  0  0  0
 14 16  2  0  0  0  0
 15 40  1  0  0  0  0
 15 41  1  0  0  0  0
 16 18  1  0  0  0  0
 16 42  1  0  0  0  0
 17 18  1  0  0  0  0
 17 19  1  0  0  0  0
 17 20  1  0  0  0  0
 17 43  1  0  0  0  0
 19 21  1  0  0  0  0
 19 44  1  0  0  0  0
 19 45  1  0  0  0  0
 20 22  1  0  0  0  0
 20 46  1  0  0  0  0
 20 47  1  0  0  0  0
 21 22  1  0  0  0  0
 21 49  1  0  0  0  0
 21 50  1  0  0  0  0
 22 51  1  0  0  0  0
 22 52  1  0  0  0  0
 23 53  1  0  0  0  0
 23 54  1  0  0  0  0
 23 55  1  0  0  0  0
 24 25  1  0  0  0  0
 25 26  2  0  0  0  0
 26 27  1  0  0  0  0
 26 56  1  0  0  0  0
 27 28  2  0  0  0  0
 27 57  1  0  0  0  0
 28 58  1  0  0  0  0
M  END
> <PUBCHEM_COMPOUND_CID>
25389057

> <PUBCHEM_CONFORMER_RMSD>
1

> <PUBCHEM_CONFORMER_DIVERSEORDER>
1
43
4
34
23
15
27
41
8
36
30
17
5
19
9
37
35
25
42
6
40
22
29
44
7
26
32
38
31
3
21
39
33
13
12
16
28
18
14
2
11
10
24
20

> <PUBCHEM_MMFF94_PARTIAL_CHARGES>
26
1 -0.57
11 0.27
13 0.27
14 -0.33
15 0.3
16 -0.15
17 0.18
18 0.11
2 -0.28
23 0.26
24 0.71
25 0.05
26 -0.15
27 -0.15
28 -0.01
3 -0.81
4 0.31
42 0.15
48 0.37
5 -0.73
56 0.15
57 0.15
58 0.15
6 -0.71
8 0.18
9 0.27

> <PUBCHEM_EFFECTIVE_ROTOR_COUNT>
8.2

> <PUBCHEM_PHARMACOPHORE_FEATURES>
9
1 1 acceptor
1 2 acceptor
1 3 cation
1 5 donor
1 6 acceptor
5 17 19 20 21 22 rings
5 2 25 26 27 28 rings
5 4 6 14 16 18 rings
8 3 7 8 9 10 11 12 13 rings

> <PUBCHEM_HEAVY_ATOM_COUNT>
28

> <PUBCHEM_ATOM_DEF_STEREO_COUNT>
3

> <PUBCHEM_ATOM_UDEF_STEREO_COUNT>
0

> <PUBCHEM_BOND_DEF_STEREO_COUNT>
0

> <PUBCHEM_BOND_UDEF_STEREO_COUNT>
0

> <PUBCHEM_ISOTOPIC_ATOM_COUNT>
0

> <PUBCHEM_COMPONENT_COUNT>
1

> <PUBCHEM_CACTVS_TAUTO_COUNT>
2

> <PUBCHEM_CONFORMER_ID>
0183680100000001

> <PUBCHEM_MMFF94_ENERGY>
47.5651

> <PUBCHEM_FEATURE_SELFOVERLAP>
45.672

> <PUBCHEM_SHAPE_FINGERPRINT>
10042902 136 18409731789741973214
10928967 22 18187639185231799074
10940486 97 18335148583019956301
11014199 57 18264208191547973443
11069576 57 17617649303971582127
11135609 201 8790888510125713367
11186622 123 18334850568509291114
11285246 1 18042122227210161595
11315621 246 18265346014895862502
11455722 242 18335420189227326750
11756154 5 18199463269654362082
12969540 37 18194395825997666724
13402501 40 18270964518791889198
13561361 72 18411693271547824914
14020679 6 16191742787470914308
14114206 34 17022894645023487041
14251757 5 18263927644331859906
14444916 359 17692829085382270372
144659 178 18335990873577980894
14674994 50 18339651044401222561
14866123 147 18412547605157153203
14910302 57 18339914923239741162
14950920 106 17489871548476638370
15361156 5 18187941564352090420
17492 89 18121781892240606395
17909252 39 17831587839396713979
1813 80 17748828501286380124
18608769 82 18412543194462980306
19315092 285 16697517479371813571
20775530 9 18334852861372642651
21196832 93 18199200486665864614
21307412 95 18338789027501252591
23379529 103 18411704257962878466
23559900 14 18195797686606831665
325973 47 17905608057491115738
3383291 50 18411980244267213091
3886686 26 18343026566853029241
4017518 198 18197777709464611039
4280585 95 18261379079547060898
4435113 14 17988376853868606558
463206 1 18334581239156319610
56633871 153 18340775926781007075
6371380 46 18127403454427551561
8863177 126 18343580721098660418

> <PUBCHEM_SHAPE_MULTIPOLES>
544.56
12.6
6.28
1.23
16.67
2.6
0.24
13.5
-0.85
-4.48
1.4
-0.12
-0.45
0.31

> <PUBCHEM_SHAPE_SELFOVERLAP>
1172.554

> <PUBCHEM_SHAPE_VOLUME>
299.6

> <PUBCHEM_COORDINATE_TYPE>
2
5
10

$$$$
