11886270
  -OEChem-12032416123D

 62 67  0     1  0  0  0  0  0999 V2000
   -3.1719   -3.3470    1.2239 S   0  0  0  0  0  0  0  0  0  0  0  0
   -5.1103    0.8272    0.2015 O   0  0  0  0  0  0  0  0  0  0  0  0
   -2.5242    0.5162   -1.5847 O   0  0  0  0  0  0  0  0  0  0  0  0
   -0.5044    2.5641   -0.8890 O   0  0  0  0  0  0  0  0  0  0  0  0
   -4.0656   -4.1360    0.3977 O   0  0  0  0  0  0  0  0  0  0  0  0
   -2.9668   -3.6962    2.6166 O   0  0  0  0  0  0  0  0  0  0  0  0
    3.6729   -2.9492    0.4229 O   0  0  0  0  0  0  0  0  0  0  0  0
   -3.6126   -1.7102    1.1303 N   0  0  0  0  0  0  0  0  0  0  0  0
   -2.5663    3.4281   -0.0914 N   0  0  0  0  0  0  0  0  0  0  0  0
   -2.9722    4.4737    0.6423 N   0  0  0  0  0  0  0  0  0  0  0  0
   -0.7542    4.5046    0.4187 N   0  0  0  0  0  0  0  0  0  0  0  0
   -1.8596    5.1283    0.9519 N   0  0  0  0  0  0  0  0  0  0  0  0
    2.1868   -3.3283   -1.3676 N   0  0  0  0  0  0  0  0  0  0  0  0
    4.7234    1.2613    0.4873 N   0  0  0  0  0  0  0  0  0  0  0  0
    5.0844    1.0381    1.7601 N   0  0  0  0  0  0  0  0  0  0  0  0
    6.8554    0.8081    0.3307 N   0  0  0  0  0  0  0  0  0  0  0  0
   -2.8583    0.1840   -0.2280 C   0  0  1  0  0  0  0  0  0  0  0  0
   -3.7507    1.2859    0.3103 C   0  0  1  0  0  0  0  0  0  0  0  0
   -3.7252   -1.0516   -0.1934 C   0  0  2  0  0  0  0  0  0  0  0  0
   -3.5259    2.4584   -0.6258 C   0  0  2  0  0  0  0  0  0  0  0  0
   -5.1215   -0.4903   -0.3652 C   0  0  0  0  0  0  0  0  0  0  0  0
   -3.1038    1.7826   -1.9255 C   0  0  0  0  0  0  0  0  0  0  0  0
   -1.2144    3.4550   -0.2222 C   0  0  0  0  0  0  0  0  0  0  0  0
   -1.5805   -3.3414    0.4543 C   0  0  0  0  0  0  0  0  0  0  0  0
   -1.4708   -3.5400   -0.9220 C   0  0  0  0  0  0  0  0  0  0  0  0
   -0.4346   -3.1384    1.2234 C   0  0  0  0  0  0  0  0  0  0  0  0
    0.8006    2.2393   -0.5454 C   0  0  0  0  0  0  0  0  0  0  0  0
   -0.2150   -3.5356   -1.5293 C   0  0  0  0  0  0  0  0  0  0  0  0
    0.8211   -3.1340    0.6160 C   0  0  0  0  0  0  0  0  0  0  0  0
    0.9309   -3.3326   -0.7603 C   0  0  0  0  0  0  0  0  0  0  0  0
    1.7775    2.1361   -1.5358 C   0  0  0  0  0  0  0  0  0  0  0  0
    1.1352    2.0157    0.7902 C   0  0  0  0  0  0  0  0  0  0  0  0
    3.0888    1.8094   -1.1905 C   0  0  0  0  0  0  0  0  0  0  0  0
    2.4465    1.6890    1.1355 C   0  0  0  0  0  0  0  0  0  0  0  0
    3.4234    1.5859    0.1451 C   0  0  0  0  0  0  0  0  0  0  0  0
    3.4385   -3.1425   -0.7656 C   0  0  0  0  0  0  0  0  0  0  0  0
    4.5589   -3.2088   -1.7728 C   0  0  0  0  0  0  0  0  0  0  0  0
    5.7817    1.1229   -0.3558 C   0  0  0  0  0  0  0  0  0  0  0  0
    6.3830    0.7684    1.6113 C   0  0  0  0  0  0  0  0  0  0  0  0
   -1.9187    0.0880    0.3254 H   0  0  0  0  0  0  0  0  0  0  0  0
   -3.5656    1.5066    1.3665 H   0  0  0  0  0  0  0  0  0  0  0  0
   -3.5213   -1.7509   -1.0057 H   0  0  0  0  0  0  0  0  0  0  0  0
   -4.4437    3.0332   -0.8033 H   0  0  0  0  0  0  0  0  0  0  0  0
   -5.3759   -0.3865   -1.4258 H   0  0  0  0  0  0  0  0  0  0  0  0
   -5.9008   -1.0863    0.1197 H   0  0  0  0  0  0  0  0  0  0  0  0
   -3.9878    1.5660   -2.5367 H   0  0  0  0  0  0  0  0  0  0  0  0
   -2.4152    2.3597   -2.5488 H   0  0  0  0  0  0  0  0  0  0  0  0
   -3.5638   -1.1070    1.9601 H   0  0  0  0  0  0  0  0  0  0  0  0
   -2.3472   -3.7081   -1.5410 H   0  0  0  0  0  0  0  0  0  0  0  0
   -0.4986   -2.9736    2.2952 H   0  0  0  0  0  0  0  0  0  0  0  0
   -0.1441   -3.6931   -2.6025 H   0  0  0  0  0  0  0  0  0  0  0  0
    1.6611   -2.9673    1.2757 H   0  0  0  0  0  0  0  0  0  0  0  0
    1.5210    2.3088   -2.5775 H   0  0  0  0  0  0  0  0  0  0  0  0
    0.3855    2.0761    1.5747 H   0  0  0  0  0  0  0  0  0  0  0  0
    2.1828   -3.4794   -2.3743 H   0  0  0  0  0  0  0  0  0  0  0  0
    3.8062    1.7422   -2.0016 H   0  0  0  0  0  0  0  0  0  0  0  0
    2.6651    1.5187    2.1865 H   0  0  0  0  0  0  0  0  0  0  0  0
    5.5161   -3.0326   -1.2741 H   0  0  0  0  0  0  0  0  0  0  0  0
    4.5775   -4.1971   -2.2406 H   0  0  0  0  0  0  0  0  0  0  0  0
    4.4136   -2.4429   -2.5399 H   0  0  0  0  0  0  0  0  0  0  0  0
    5.7595    1.2479   -1.4291 H   0  0  0  0  0  0  0  0  0  0  0  0
    7.0045    0.5349    2.4627 H   0  0  0  0  0  0  0  0  0  0  0  0
  1  5  2  0  0  0  0
  1  6  2  0  0  0  0
  1  8  1  0  0  0  0
  1 24  1  0  0  0  0
  2 18  1  0  0  0  0
  2 21  1  0  0  0  0
  3 17  1  0  0  0  0
  3 22  1  0  0  0  0
  4 23  1  0  0  0  0
  4 27  1  0  0  0  0
  7 36  2  0  0  0  0
  8 19  1  0  0  0  0
  8 48  1  0  0  0  0
  9 10  1  0  0  0  0
  9 20  1  0  0  0  0
  9 23  1  0  0  0  0
 10 12  2  0  0  0  0
 11 12  1  0  0  0  0
 11 23  2  0  0  0  0
 13 30  1  0  0  0  0
 13 36  1  0  0  0  0
 13 55  1  0  0  0  0
 14 15  1  0  0  0  0
 14 35  1  0  0  0  0
 14 38  1  0  0  0  0
 15 39  2  0  0  0  0
 16 38  2  0  0  0  0
 16 39  1  0  0  0  0
 17 18  1  0  0  0  0
 17 19  1  0  0  0  0
 17 40  1  0  0  0  0
 18 20  1  0  0  0  0
 18 41  1  0  0  0  0
 19 21  1  0  0  0  0
 19 42  1  0  0  0  0
 20 22  1  0  0  0  0
 20 43  1  0  0  0  0
 21 44  1  0  0  0  0
 21 45  1  0  0  0  0
 22 46  1  0  0  0  0
 22 47  1  0  0  0  0
 24 25  2  0  0  0  0
 24 26  1  0  0  0  0
 25 28  1  0  0  0  0
 25 49  1  0  0  0  0
 26 29  2  0  0  0  0
 26 50  1  0  0  0  0
 27 31  2  0  0  0  0
 27 32  1  0  0  0  0
 28 30  2  0  0  0  0
 28 51  1  0  0  0  0
 29 30  1  0  0  0  0
 29 52  1  0  0  0  0
 31 33  1  0  0  0  0
 31 53  1  0  0  0  0
 32 34  2  0  0  0  0
 32 54  1  0  0  0  0
 33 35  2  0  0  0  0
 33 56  1  0  0  0  0
 34 35  1  0  0  0  0
 34 57  1  0  0  0  0
 36 37  1  0  0  0  0
 37 58  1  0  0  0  0
 37 59  1  0  0  0  0
 37 60  1  0  0  0  0
 38 61  1  0  0  0  0
 39 62  1  0  0  0  0
M  END
> <PUBCHEM_COMPOUND_CID>
11886270

> <PUBCHEM_CONFORMER_RMSD>
1.4

> <PUBCHEM_CONFORMER_DIVERSEORDER>
1
22
83
16
55
3
76
27
94
77
117
82
126
36
68
108
31
119
95
87
26
23
35
42
80
40
34
4
96
106
66
101
112
111
58
38
120
122
33
29
61
20
10
124
13
110
91
105
89
5
37
50
60
63
115
67
43
104
8
62
73
28
9
47
98
81
72
71
118
32
7
114
74
99
125
45
41
2
49
109
107
56
30
121
69
78
14
79
113
52
92
64
39
59
48
86
19
102
84
123
54
90
6
18
100
51
103
17
11
75
53
97
93
24
65
70
85
21
57
88
116
46
15
44
12
25

> <PUBCHEM_MMFF94_PARTIAL_CHARGES>
50
1 1.45
10 -0.42
11 -0.34
13 -0.55
14 0.59
15 -0.71
16 -0.57
17 0.28
18 0.28
19 0.36
2 -0.56
20 0.26
21 0.28
22 0.28
23 0.25
24 -0.01
25 -0.15
26 -0.15
27 0.08
28 -0.15
29 -0.15
3 -0.56
30 0.12
31 -0.15
32 -0.15
33 -0.15
34 -0.15
35 -0.02
36 0.57
37 0.06
38 0.04
39 0.37
4 -0.15
48 0.42
49 0.15
5 -0.65
50 0.15
51 0.15
52 0.15
53 0.15
54 0.15
55 0.37
56 0.15
57 0.15
6 -0.65
61 0.15
62 0.15
7 -0.57
8 -0.91
9 0.31

> <PUBCHEM_EFFECTIVE_ROTOR_COUNT>
10.2

> <PUBCHEM_PHARMACOPHORE_FEATURES>
16
1 13 donor
1 2 acceptor
1 3 acceptor
1 5 acceptor
1 6 acceptor
1 7 acceptor
1 8 donor
3 14 16 38 cation
3 15 16 39 cation
3 9 11 23 cation
5 14 15 16 38 39 rings
5 2 17 18 19 21 rings
5 3 17 18 20 22 rings
5 9 10 11 12 23 rings
6 24 25 26 28 29 30 rings
6 27 31 32 33 34 35 rings

> <PUBCHEM_HEAVY_ATOM_COUNT>
39

> <PUBCHEM_ATOM_DEF_STEREO_COUNT>
4

> <PUBCHEM_ATOM_UDEF_STEREO_COUNT>
0

> <PUBCHEM_BOND_DEF_STEREO_COUNT>
0

> <PUBCHEM_BOND_UDEF_STEREO_COUNT>
0

> <PUBCHEM_ISOTOPIC_ATOM_COUNT>
0

> <PUBCHEM_COMPONENT_COUNT>
1

> <PUBCHEM_CACTVS_TAUTO_COUNT>
2

> <PUBCHEM_CONFORMER_ID>
00B55EBE00000001

> <PUBCHEM_MMFF94_ENERGY>
89.9464

> <PUBCHEM_FEATURE_SELFOVERLAP>
84.655

> <PUBCHEM_SHAPE_FINGERPRINT>
10864689 126 17474954221304924614
10939801 23 17975130157115683776
11513181 2 18130217156338474942
12422481 6 18340749513159580258
12788726 201 18046359788553213020
14279260 333 17749937960796392586
144659 178 18409175389814794676
14647877 51 18268712714894194278
14725015 67 18047467009636982571
15320294 125 18041266708484660352
15320467 1 18411419531078609878
15406563 228 17971500450162073510
15968369 153 18272081725916890542
16112460 7 18128265475764303176
16664035 1 18268708502016761797
19319366 153 16526956923159564500
20642791 35 18122342385704186981
20764821 26 18263663894468765863
238918 7 18343582979961314534
354706 109 18122598601709432304
373842 8 18336539439854791274
437795 96 18412263926366743534
508706 21 18334297612316896414
5265222 85 18051139387290425516
5776283 40 18053114925763867302

> <PUBCHEM_SHAPE_MULTIPOLES>
726.41
11.77
7.8
1.67
13.89
0.39
-0.09
-0.88
-2.4
-4.34
-0.42
0.4
0.83
2.65

> <PUBCHEM_SHAPE_SELFOVERLAP>
1582.126

> <PUBCHEM_SHAPE_VOLUME>
397.6

> <PUBCHEM_COORDINATE_TYPE>
2
5
10

$$$$
