26743868
  -OEChem-12032416293D

 58 61  0     1  0  0  0  0  0999 V2000
    4.9293   -3.4830    0.5326 O   0  0  0  0  0  0  0  0  0  0  0  0
    0.5658   -0.7922   -2.4072 O   0  0  0  0  0  0  0  0  0  0  0  0
    1.4328    1.0789    2.0531 O   0  0  0  0  0  0  0  0  0  0  0  0
   -0.9150    2.5207    1.9477 O   0  0  0  0  0  0  0  0  0  0  0  0
   -1.6173    3.8436   -0.3818 O   0  0  0  0  0  0  0  0  0  0  0  0
    2.9722   -0.5188    0.1395 N   0  0  1  0  0  0  0  0  0  0  0  0
    0.0549   -1.5718   -0.3705 N   0  0  0  0  0  0  0  0  0  0  0  0
   -0.8329   -0.8255   -2.3424 N   0  0  0  0  0  0  0  0  0  0  0  0
    2.5105   -1.3088   -1.0199 C   0  0  1  0  0  0  0  0  0  0  0  0
    3.0197   -2.7371   -0.7511 C   0  0  0  0  0  0  0  0  0  0  0  0
    3.7938   -2.6401    0.5576 C   0  0  2  0  0  0  0  0  0  0  0  0
    4.1812   -1.1755    0.6329 C   0  0  0  0  0  0  0  0  0  0  0  0
    3.2008    0.8851   -0.1764 C   0  0  0  0  0  0  0  0  0  0  0  0
    1.0090   -1.2478   -1.2062 C   0  0  0  0  0  0  0  0  0  0  0  0
    1.9152    1.6680   -0.2132 C   0  0  0  0  0  0  0  0  0  0  0  0
    1.0854    1.7303    0.9064 C   0  0  0  0  0  0  0  0  0  0  0  0
    1.5574    2.3359   -1.3845 C   0  0  0  0  0  0  0  0  0  0  0  0
   -1.0569   -1.2957   -1.1118 C   0  0  0  0  0  0  0  0  0  0  0  0
   -0.1022    2.4603    0.8545 C   0  0  0  0  0  0  0  0  0  0  0  0
    0.3698    3.0656   -1.4364 C   0  0  0  0  0  0  0  0  0  0  0  0
   -0.4601    3.1278   -0.3168 C   0  0  0  0  0  0  0  0  0  0  0  0
   -2.3783   -1.5025   -0.5934 C   0  0  0  0  0  0  0  0  0  0  0  0
   -2.5516   -1.9962    0.6996 C   0  0  0  0  0  0  0  0  0  0  0  0
   -3.4904   -1.2083   -1.3826 C   0  0  0  0  0  0  0  0  0  0  0  0
    2.2158    1.8056    2.9973 C   0  0  0  0  0  0  0  0  0  0  0  0
   -3.8368   -2.1956    1.2037 C   0  0  0  0  0  0  0  0  0  0  0  0
   -4.7756   -1.4078   -0.8785 C   0  0  0  0  0  0  0  0  0  0  0  0
   -4.9489   -1.9012    0.4146 C   0  0  0  0  0  0  0  0  0  0  0  0
   -1.9176    1.5139    2.0644 C   0  0  0  0  0  0  0  0  0  0  0  0
   -1.9074    4.4955   -1.6169 C   0  0  0  0  0  0  0  0  0  0  0  0
   -4.0227   -2.7234    2.5861 C   0  0  0  0  0  0  0  0  0  0  0  0
    2.9941   -0.9615   -1.9439 H   0  0  0  0  0  0  0  0  0  0  0  0
    2.2172   -3.4785   -0.6637 H   0  0  0  0  0  0  0  0  0  0  0  0
    3.6747   -3.0657   -1.5678 H   0  0  0  0  0  0  0  0  0  0  0  0
    3.1573   -2.9183    1.4065 H   0  0  0  0  0  0  0  0  0  0  0  0
    4.4234   -0.8806    1.6594 H   0  0  0  0  0  0  0  0  0  0  0  0
    5.0583   -0.9703    0.0048 H   0  0  0  0  0  0  0  0  0  0  0  0
    3.7634    0.9970   -1.1130 H   0  0  0  0  0  0  0  0  0  0  0  0
    3.8346    1.3492    0.5904 H   0  0  0  0  0  0  0  0  0  0  0  0
    4.6139   -4.3943    0.4074 H   0  0  0  0  0  0  0  0  0  0  0  0
    2.1929    2.2947   -2.2651 H   0  0  0  0  0  0  0  0  0  0  0  0
    0.1562    3.5568   -2.3794 H   0  0  0  0  0  0  0  0  0  0  0  0
   -1.6970   -2.2322    1.3300 H   0  0  0  0  0  0  0  0  0  0  0  0
   -3.3947   -0.8216   -2.3941 H   0  0  0  0  0  0  0  0  0  0  0  0
    2.6493    1.0921    3.7033 H   0  0  0  0  0  0  0  0  0  0  0  0
    1.5763    2.5000    3.5510 H   0  0  0  0  0  0  0  0  0  0  0  0
    3.0277    2.3587    2.5154 H   0  0  0  0  0  0  0  0  0  0  0  0
   -5.6418   -1.1790   -1.4927 H   0  0  0  0  0  0  0  0  0  0  0  0
   -5.9557   -2.0535    0.7944 H   0  0  0  0  0  0  0  0  0  0  0  0
   -2.5333    1.7428    2.9385 H   0  0  0  0  0  0  0  0  0  0  0  0
   -1.4546    0.5335    2.2114 H   0  0  0  0  0  0  0  0  0  0  0  0
   -2.5605    1.4987    1.1785 H   0  0  0  0  0  0  0  0  0  0  0  0
   -2.8621    5.0164   -1.4895 H   0  0  0  0  0  0  0  0  0  0  0  0
   -2.0450    3.7752   -2.4306 H   0  0  0  0  0  0  0  0  0  0  0  0
   -1.1588    5.2584   -1.8565 H   0  0  0  0  0  0  0  0  0  0  0  0
   -3.9345   -3.8143    2.5869 H   0  0  0  0  0  0  0  0  0  0  0  0
   -3.2723   -2.3069    3.2667 H   0  0  0  0  0  0  0  0  0  0  0  0
   -5.0051   -2.4539    2.9886 H   0  0  0  0  0  0  0  0  0  0  0  0
  1 11  1  0  0  0  0
  1 40  1  0  0  0  0
  2  8  1  0  0  0  0
  2 14  1  0  0  0  0
  3 16  1  0  0  0  0
  3 25  1  0  0  0  0
  4 19  1  0  0  0  0
  4 29  1  0  0  0  0
  5 21  1  0  0  0  0
  5 30  1  0  0  0  0
  6  9  1  0  0  0  0
  6 12  1  0  0  0  0
  6 13  1  0  0  0  0
  7 14  2  0  0  0  0
  7 18  1  0  0  0  0
  8 18  2  0  0  0  0
  9 10  1  0  0  0  0
  9 14  1  0  0  0  0
  9 32  1  0  0  0  0
 10 11  1  0  0  0  0
 10 33  1  0  0  0  0
 10 34  1  0  0  0  0
 11 12  1  0  0  0  0
 11 35  1  0  0  0  0
 12 36  1  0  0  0  0
 12 37  1  0  0  0  0
 13 15  1  0  0  0  0
 13 38  1  0  0  0  0
 13 39  1  0  0  0  0
 15 16  2  0  0  0  0
 15 17  1  0  0  0  0
 16 19  1  0  0  0  0
 17 20  2  0  0  0  0
 17 41  1  0  0  0  0
 18 22  1  0  0  0  0
 19 21  2  0  0  0  0
 20 21  1  0  0  0  0
 20 42  1  0  0  0  0
 22 23  1  0  0  0  0
 22 24  2  0  0  0  0
 23 26  2  0  0  0  0
 23 43  1  0  0  0  0
 24 27  1  0  0  0  0
 24 44  1  0  0  0  0
 25 45  1  0  0  0  0
 25 46  1  0  0  0  0
 25 47  1  0  0  0  0
 26 28  1  0  0  0  0
 26 31  1  0  0  0  0
 27 28  2  0  0  0  0
 27 48  1  0  0  0  0
 28 49  1  0  0  0  0
 29 50  1  0  0  0  0
 29 51  1  0  0  0  0
 29 52  1  0  0  0  0
 30 53  1  0  0  0  0
 30 54  1  0  0  0  0
 30 55  1  0  0  0  0
 31 56  1  0  0  0  0
 31 57  1  0  0  0  0
 31 58  1  0  0  0  0
M  END
> <PUBCHEM_COMPOUND_CID>
26743868

> <PUBCHEM_CONFORMER_RMSD>
1

> <PUBCHEM_CONFORMER_DIVERSEORDER>
1
82
85
75
60
16
72
77
91
57
51
45
15
61
54
2
88
70
89
55
67
69
64
52
4
65
84
18
74
34
26
19
21
20
25
81
32
53
58
47
63
8
41
40
28
73
17
30
36
3
68
7
43
87
59
90
27
37
66
56
71
22
39
62
23
14
76
44
33
29
24
80
46
35
83
6
9
38
42
13
78
79
50
49
48
10
86
12
31
5
11

> <PUBCHEM_MMFF94_PARTIAL_CHARGES>
37
1 -0.68
11 0.28
12 0.27
13 0.41
14 0.3
15 -0.14
16 0.08
17 -0.15
18 0.46
19 0.08
2 -0.02
20 -0.15
21 0.08
22 0.05
23 -0.15
24 -0.15
25 0.28
26 -0.14
27 -0.15
28 -0.15
29 0.28
3 -0.36
30 0.28
31 0.14
4 -0.36
40 0.4
41 0.15
42 0.15
43 0.15
44 0.15
48 0.15
49 0.15
5 -0.36
6 -0.81
7 -0.57
8 -0.41
9 0.45

> <PUBCHEM_EFFECTIVE_ROTOR_COUNT>
8

> <PUBCHEM_PHARMACOPHORE_FEATURES>
11
1 1 acceptor
1 1 donor
1 3 acceptor
1 4 acceptor
1 5 acceptor
1 6 cation
3 7 8 18 cation
5 2 7 8 14 18 rings
5 6 9 10 11 12 rings
6 15 16 17 19 20 21 rings
6 22 23 24 26 27 28 rings

> <PUBCHEM_HEAVY_ATOM_COUNT>
31

> <PUBCHEM_ATOM_DEF_STEREO_COUNT>
2

> <PUBCHEM_ATOM_UDEF_STEREO_COUNT>
0

> <PUBCHEM_BOND_DEF_STEREO_COUNT>
0

> <PUBCHEM_BOND_UDEF_STEREO_COUNT>
0

> <PUBCHEM_ISOTOPIC_ATOM_COUNT>
0

> <PUBCHEM_COMPONENT_COUNT>
1

> <PUBCHEM_CACTVS_TAUTO_COUNT>
1

> <PUBCHEM_CONFORMER_ID>
0198143C00000001

> <PUBCHEM_MMFF94_ENERGY>
101.8438

> <PUBCHEM_FEATURE_SELFOVERLAP>
55.832

> <PUBCHEM_SHAPE_FINGERPRINT>
10119406 146 15898995527638978054
10382601 240 17986384718975874160
10688039 33 18408600361943143301
11244481 83 17244126439039895609
11421498 54 18043550501504615148
12156800 1 17618177808202607499
12160290 23 17838077917428348367
12422481 6 17844829009307246291
13583140 156 18046912859966387079
13965767 371 17560519628763692110
14866123 147 17396972462416420490
151778 21 17543363000001080693
15420108 30 16985726900372248182
20775530 9 18341342136012952779
23419403 2 17842807037330352584
23559900 14 17458343100090804871
24893989 43 14662565311716474312
24941158 1 17176632926627800659
35225 105 17615723659252223250
4015057 19 18191010400343312351
469060 322 18261959518860817818
484985 159 17608361346910530202
5895379 119 14906805425419563499

> <PUBCHEM_SHAPE_MULTIPOLES>
593.68
7.92
5.32
2.42
5.33
4.07
-1.08
-9.45
-2.04
-1.4
0.5
0.63
0.66
1.09

> <PUBCHEM_SHAPE_SELFOVERLAP>
1281.178

> <PUBCHEM_SHAPE_VOLUME>
330.3

> <PUBCHEM_COORDINATE_TYPE>
2
5
10

$$$$
