28961815
  -OEChem-12032416203D

 55 57  0     1  0  0  0  0  0999 V2000
   -5.7395   -1.1974    2.9281 Cl  0  0  0  0  0  0  0  0  0  0  0  0
   -2.2858   -0.5239   -2.2714 S   0  0  0  0  0  0  0  0  0  0  0  0
    0.8242    2.4525   -0.8828 O   0  0  0  0  0  0  0  0  0  0  0  0
    0.8440    1.7915    2.0379 O   0  0  0  0  0  0  0  0  0  0  0  0
    4.6035   -2.4638   -1.1490 O   0  0  0  0  0  0  0  0  0  0  0  0
    0.5629    5.2018   -0.3557 O   0  0  0  0  0  0  0  0  0  0  0  0
   -1.6276   -1.7887   -2.5378 O   0  0  0  0  0  0  0  0  0  0  0  0
   -3.1436    0.0774   -3.2745 O   0  0  0  0  0  0  0  0  0  0  0  0
    2.1857   -0.4642    0.8832 N   0  0  1  0  0  0  0  0  0  0  0  0
   -1.1273    0.6197   -1.7732 N   0  0  0  0  0  0  0  0  0  0  0  0
    2.1666    0.8348    0.2339 C   0  0  1  0  0  0  0  0  0  0  0  0
    1.1012    1.0348   -0.8517 C   0  0  1  0  0  0  0  0  0  0  0  0
    2.7687   -1.5576    0.0976 C   0  0  2  0  0  0  0  0  0  0  0  0
    1.9388    2.0196    1.1601 C   0  0  1  0  0  0  0  0  0  0  0  0
    2.8713   -0.4485    2.1740 C   0  0  0  0  0  0  0  0  0  0  0  0
    1.5909    3.1047    0.1479 C   0  0  2  0  0  0  0  0  0  0  0  0
    2.8716   -2.6520    1.1579 C   0  0  0  0  0  0  0  0  0  0  0  0
    3.1800   -1.9141    2.4565 C   0  0  0  0  0  0  0  0  0  0  0  0
   -0.2288    0.3188   -0.6444 C   0  0  0  0  0  0  0  0  0  0  0  0
    4.1290   -1.2724   -0.5472 C   0  0  0  0  0  0  0  0  0  0  0  0
    0.7984    4.2780    0.6946 C   0  0  0  0  0  0  0  0  0  0  0  0
    5.8691   -2.2718   -1.7704 C   0  0  0  0  0  0  0  0  0  0  0  0
   -3.2582   -0.7135   -0.8074 C   0  0  0  0  0  0  0  0  0  0  0  0
   -4.3671    0.1058   -0.5956 C   0  0  0  0  0  0  0  0  0  0  0  0
   -2.9168   -1.6826    0.1360 C   0  0  0  0  0  0  0  0  0  0  0  0
   -5.1344   -0.0437    0.5594 C   0  0  0  0  0  0  0  0  0  0  0  0
   -3.6841   -1.8323    1.2911 C   0  0  0  0  0  0  0  0  0  0  0  0
   -4.7928   -1.0128    1.5028 C   0  0  0  0  0  0  0  0  0  0  0  0
    3.1420    1.0467   -0.2238 H   0  0  0  0  0  0  0  0  0  0  0  0
    1.5104    0.7539   -1.8302 H   0  0  0  0  0  0  0  0  0  0  0  0
    2.0760   -1.8926   -0.6838 H   0  0  0  0  0  0  0  0  0  0  0  0
    2.8164    2.2859    1.7586 H   0  0  0  0  0  0  0  0  0  0  0  0
    2.2539   -0.0401    2.9793 H   0  0  0  0  0  0  0  0  0  0  0  0
    3.8128    0.1140    2.1381 H   0  0  0  0  0  0  0  0  0  0  0  0
    2.5013    3.4699   -0.3446 H   0  0  0  0  0  0  0  0  0  0  0  0
    3.6166   -3.4242    0.9450 H   0  0  0  0  0  0  0  0  0  0  0  0
    1.9022   -3.1580    1.2599 H   0  0  0  0  0  0  0  0  0  0  0  0
    2.5684   -2.3085    3.2752 H   0  0  0  0  0  0  0  0  0  0  0  0
    4.2333   -2.0372    2.7316 H   0  0  0  0  0  0  0  0  0  0  0  0
   -0.7207    0.6674    0.2692 H   0  0  0  0  0  0  0  0  0  0  0  0
   -0.0702   -0.7603   -0.5749 H   0  0  0  0  0  0  0  0  0  0  0  0
    4.8592   -0.9230    0.1922 H   0  0  0  0  0  0  0  0  0  0  0  0
    4.0302   -0.5128   -1.3302 H   0  0  0  0  0  0  0  0  0  0  0  0
    1.3466    4.7839    1.4951 H   0  0  0  0  0  0  0  0  0  0  0  0
   -0.1809    3.9597    1.0657 H   0  0  0  0  0  0  0  0  0  0  0  0
    0.8155    2.5291    2.6706 H   0  0  0  0  0  0  0  0  0  0  0  0
   -1.3247    1.6154   -1.9334 H   0  0  0  0  0  0  0  0  0  0  0  0
    0.0587    5.9425    0.0219 H   0  0  0  0  0  0  0  0  0  0  0  0
    6.1808   -3.2208   -2.2149 H   0  0  0  0  0  0  0  0  0  0  0  0
    6.6170   -1.9699   -1.0309 H   0  0  0  0  0  0  0  0  0  0  0  0
    5.7971   -1.5213   -2.5634 H   0  0  0  0  0  0  0  0  0  0  0  0
   -4.6468    0.8717   -1.3134 H   0  0  0  0  0  0  0  0  0  0  0  0
   -2.0560   -2.3295   -0.0070 H   0  0  0  0  0  0  0  0  0  0  0  0
   -5.9947    0.6028    0.7121 H   0  0  0  0  0  0  0  0  0  0  0  0
   -3.4058   -2.5909    2.0181 H   0  0  0  0  0  0  0  0  0  0  0  0
  1 28  1  0  0  0  0
  2  7  2  0  0  0  0
  2  8  2  0  0  0  0
  2 10  1  0  0  0  0
  2 23  1  0  0  0  0
  3 12  1  0  0  0  0
  3 16  1  0  0  0  0
  4 14  1  0  0  0  0
  4 46  1  0  0  0  0
  5 20  1  0  0  0  0
  5 22  1  0  0  0  0
  6 21  1  0  0  0  0
  6 48  1  0  0  0  0
  9 11  1  0  0  0  0
  9 13  1  0  0  0  0
  9 15  1  0  0  0  0
 10 19  1  0  0  0  0
 10 47  1  0  0  0  0
 11 12  1  0  0  0  0
 11 14  1  0  0  0  0
 11 29  1  0  0  0  0
 12 19  1  0  0  0  0
 12 30  1  0  0  0  0
 13 17  1  0  0  0  0
 13 20  1  0  0  0  0
 13 31  1  0  0  0  0
 14 16  1  0  0  0  0
 14 32  1  0  0  0  0
 15 18  1  0  0  0  0
 15 33  1  0  0  0  0
 15 34  1  0  0  0  0
 16 21  1  0  0  0  0
 16 35  1  0  0  0  0
 17 18  1  0  0  0  0
 17 36  1  0  0  0  0
 17 37  1  0  0  0  0
 18 38  1  0  0  0  0
 18 39  1  0  0  0  0
 19 40  1  0  0  0  0
 19 41  1  0  0  0  0
 20 42  1  0  0  0  0
 20 43  1  0  0  0  0
 21 44  1  0  0  0  0
 21 45  1  0  0  0  0
 22 49  1  0  0  0  0
 22 50  1  0  0  0  0
 22 51  1  0  0  0  0
 23 24  2  0  0  0  0
 23 25  1  0  0  0  0
 24 26  1  0  0  0  0
 24 52  1  0  0  0  0
 25 27  2  0  0  0  0
 25 53  1  0  0  0  0
 26 28  2  0  0  0  0
 26 54  1  0  0  0  0
 27 28  1  0  0  0  0
 27 55  1  0  0  0  0
M  END
> <PUBCHEM_COMPOUND_CID>
28961815

> <PUBCHEM_CONFORMER_RMSD>
1

> <PUBCHEM_CONFORMER_DIVERSEORDER>
1
19
73
65
55
72
71
12
68
37
66
46
43
25
48
11
14
64
10
35
45
31
9
47
30
32
54
57
44
28
40
18
5
21
62
56
70
7
2
24
38
59
4
67
63
39
26
60
29
8
36
16
53
69
61
27
51
49
41
6
33
42
52
15
3
22
58
50
20
17
34
13
23

> <PUBCHEM_MMFF94_PARTIAL_CHARGES>
33
1 -0.18
10 -0.91
11 0.27
12 0.28
13 0.27
14 0.28
15 0.27
16 0.28
19 0.36
2 1.45
20 0.28
21 0.28
22 0.28
23 -0.01
24 -0.15
25 -0.15
26 -0.15
27 -0.15
28 0.18
3 -0.56
4 -0.68
46 0.4
47 0.42
48 0.4
5 -0.56
52 0.15
53 0.15
54 0.15
55 0.15
6 -0.68
7 -0.65
8 -0.65
9 -0.81

> <PUBCHEM_EFFECTIVE_ROTOR_COUNT>
10

> <PUBCHEM_PHARMACOPHORE_FEATURES>
13
1 10 donor
1 3 acceptor
1 4 acceptor
1 4 donor
1 5 acceptor
1 6 acceptor
1 6 donor
1 7 acceptor
1 8 acceptor
1 9 cation
5 3 11 12 14 16 rings
5 9 13 15 17 18 rings
6 23 24 25 26 27 28 rings

> <PUBCHEM_HEAVY_ATOM_COUNT>
28

> <PUBCHEM_ATOM_DEF_STEREO_COUNT>
5

> <PUBCHEM_ATOM_UDEF_STEREO_COUNT>
0

> <PUBCHEM_BOND_DEF_STEREO_COUNT>
0

> <PUBCHEM_BOND_UDEF_STEREO_COUNT>
0

> <PUBCHEM_ISOTOPIC_ATOM_COUNT>
0

> <PUBCHEM_COMPONENT_COUNT>
1

> <PUBCHEM_CACTVS_TAUTO_COUNT>
1

> <PUBCHEM_CONFORMER_ID>
01B9EC1700000001

> <PUBCHEM_MMFF94_ENERGY>
56.7042

> <PUBCHEM_FEATURE_SELFOVERLAP>
65.997

> <PUBCHEM_SHAPE_FINGERPRINT>
10369192 42 17534910993841775420
10764073 3 14691739693054463588
10794284 68 17909026181870809072
10928967 22 17967806159101170091
12107183 9 15625664895157339998
12160290 23 17690819195728688540
12549972 3 17678990843121599053
12553582 1 18339909421133817046
12633257 1 18271255984305596571
12788726 201 18119808010922310182
13103583 49 16128369338233351566
13533116 47 18263361568264667619
13583140 156 18264203785417890933
13673619 4 17895489089024376943
13726171 33 17023751100035670556
14251757 5 18118685405007782444
14251764 30 18337117778159355134
14950920 106 18268168585877783515
16992787 43 18269289014123163812
1813 80 18271797995939593246
21033648 29 17273968056638685035
21591331 117 18341626875602846950
22849341 161 18131359591626267548
23559900 14 18409168852884385219
341906 21 15338828833035311987
513202 73 17842290159459896278
6287921 2 17682124609936731791
6823239 73 16950565540528095377
7097593 13 18199175355898890445
7615 1 17344614058266887853

> <PUBCHEM_SHAPE_MULTIPOLES>
536.77
11.01
4.3
2.85
6.44
6.62
0.51
-10.31
-2.07
-4.68
-0.89
1.75
-1.27
1.79

> <PUBCHEM_SHAPE_SELFOVERLAP>
1094.244

> <PUBCHEM_SHAPE_VOLUME>
313.6

> <PUBCHEM_COORDINATE_TYPE>
2
5
10

$$$$
