75536663
  -OEChem-12032416383D

 47 48  0     1  0  0  0  0  0999 V2000
    6.9303   -1.1675    0.0466 S   0  0  0  0  0  0  0  0  0  0  0  0
    3.1942    0.1725   -1.2572 O   0  0  0  0  0  0  0  0  0  0  0  0
    2.1948    2.0596    1.6317 O   0  0  0  0  0  0  0  0  0  0  0  0
    8.1762   -0.8538   -0.6251 O   0  0  0  0  0  0  0  0  0  0  0  0
    6.2288   -2.4060   -0.2317 O   0  0  0  0  0  0  0  0  0  0  0  0
   -6.6095   -2.4335   -0.0540 O   0  0  0  0  0  0  0  0  0  0  0  0
   -0.1639    0.7616    0.0107 N   0  0  0  0  0  0  0  0  0  0  0  0
    5.8329    0.1265   -0.1341 N   0  0  0  0  0  0  0  0  0  0  0  0
   -6.4635   -0.1369    0.4583 N   0  0  0  0  0  0  0  0  0  0  0  0
    1.1936    1.1053   -0.3800 C   0  0  1  0  0  0  0  0  0  0  0  0
    2.2054    0.9604    0.7416 C   0  0  1  0  0  0  0  0  0  0  0  0
    3.5064    0.8799   -0.0455 C   0  0  1  0  0  0  0  0  0  0  0  0
    1.7656    0.1612   -1.4248 C   0  0  0  0  0  0  0  0  0  0  0  0
    4.6150    0.1577    0.6993 C   0  0  0  0  0  0  0  0  0  0  0  0
   -1.1293    1.2313   -0.9758 C   0  0  0  0  0  0  0  0  0  0  0  0
   -2.5404    0.8695   -0.5958 C   0  0  0  0  0  0  0  0  0  0  0  0
   -2.9947   -0.4383   -0.7663 C   0  0  0  0  0  0  0  0  0  0  0  0
   -3.3937    1.8416   -0.0736 C   0  0  0  0  0  0  0  0  0  0  0  0
    7.2229   -1.1054    1.7994 C   0  0  0  0  0  0  0  0  0  0  0  0
   -4.3021   -0.7740   -0.4150 C   0  0  0  0  0  0  0  0  0  0  0  0
   -4.7012    1.5061    0.2776 C   0  0  0  0  0  0  0  0  0  0  0  0
   -5.1554    0.1983    0.1069 C   0  0  0  0  0  0  0  0  0  0  0  0
   -7.0928   -1.3849    0.3601 C   0  0  0  0  0  0  0  0  0  0  0  0
   -8.5195   -1.3312    0.8464 C   0  0  0  0  0  0  0  0  0  0  0  0
    1.2335    2.1428   -0.7412 H   0  0  0  0  0  0  0  0  0  0  0  0
    2.0309    0.0407    1.3139 H   0  0  0  0  0  0  0  0  0  0  0  0
    3.8517    1.8822   -0.3316 H   0  0  0  0  0  0  0  0  0  0  0  0
    1.4320   -0.8728   -1.2793 H   0  0  0  0  0  0  0  0  0  0  0  0
    1.5186    0.4625   -2.4472 H   0  0  0  0  0  0  0  0  0  0  0  0
    4.2974   -0.8684    0.9149 H   0  0  0  0  0  0  0  0  0  0  0  0
    4.8386    0.6686    1.6413 H   0  0  0  0  0  0  0  0  0  0  0  0
   -0.3721    1.1974    0.9096 H   0  0  0  0  0  0  0  0  0  0  0  0
   -0.9229    0.7960   -1.9620 H   0  0  0  0  0  0  0  0  0  0  0  0
   -1.0533    2.3198   -1.0974 H   0  0  0  0  0  0  0  0  0  0  0  0
    2.3481    2.8706    1.1180 H   0  0  0  0  0  0  0  0  0  0  0  0
    6.2469    1.0559   -0.2856 H   0  0  0  0  0  0  0  0  0  0  0  0
   -2.3382   -1.2034   -1.1728 H   0  0  0  0  0  0  0  0  0  0  0  0
   -3.0526    2.8638    0.0667 H   0  0  0  0  0  0  0  0  0  0  0  0
    7.9834   -1.8534    2.0361 H   0  0  0  0  0  0  0  0  0  0  0  0
    7.5929   -0.1127    2.0626 H   0  0  0  0  0  0  0  0  0  0  0  0
    6.3039   -1.3419    2.3374 H   0  0  0  0  0  0  0  0  0  0  0  0
   -4.5816   -1.8057   -0.5762 H   0  0  0  0  0  0  0  0  0  0  0  0
   -5.3551    2.2738    0.6836 H   0  0  0  0  0  0  0  0  0  0  0  0
   -7.0224    0.6279    0.8313 H   0  0  0  0  0  0  0  0  0  0  0  0
   -9.0828   -0.5963    0.2645 H   0  0  0  0  0  0  0  0  0  0  0  0
   -8.9887   -2.3118    0.7277 H   0  0  0  0  0  0  0  0  0  0  0  0
   -8.5389   -1.0532    1.9039 H   0  0  0  0  0  0  0  0  0  0  0  0
  1  4  2  0  0  0  0
  1  5  2  0  0  0  0
  1  8  1  0  0  0  0
  1 19  1  0  0  0  0
  2 12  1  0  0  0  0
  2 13  1  0  0  0  0
  3 11  1  0  0  0  0
  3 35  1  0  0  0  0
  6 23  2  0  0  0  0
  7 10  1  0  0  0  0
  7 15  1  0  0  0  0
  7 32  1  0  0  0  0
  8 14  1  0  0  0  0
  8 36  1  0  0  0  0
  9 22  1  0  0  0  0
  9 23  1  0  0  0  0
  9 44  1  0  0  0  0
 10 11  1  0  0  0  0
 10 13  1  0  0  0  0
 10 25  1  0  0  0  0
 11 12  1  0  0  0  0
 11 26  1  0  0  0  0
 12 14  1  0  0  0  0
 12 27  1  0  0  0  0
 13 28  1  0  0  0  0
 13 29  1  0  0  0  0
 14 30  1  0  0  0  0
 14 31  1  0  0  0  0
 15 16  1  0  0  0  0
 15 33  1  0  0  0  0
 15 34  1  0  0  0  0
 16 17  2  0  0  0  0
 16 18  1  0  0  0  0
 17 20  1  0  0  0  0
 17 37  1  0  0  0  0
 18 21  2  0  0  0  0
 18 38  1  0  0  0  0
 19 39  1  0  0  0  0
 19 40  1  0  0  0  0
 19 41  1  0  0  0  0
 20 22  2  0  0  0  0
 20 42  1  0  0  0  0
 21 22  1  0  0  0  0
 21 43  1  0  0  0  0
 23 24  1  0  0  0  0
 24 45  1  0  0  0  0
 24 46  1  0  0  0  0
 24 47  1  0  0  0  0
M  END
> <PUBCHEM_COMPOUND_CID>
75536663

> <PUBCHEM_CONFORMER_RMSD>
1

> <PUBCHEM_CONFORMER_DIVERSEORDER>
1
64
87
48
5
118
92
84
105
39
99
108
62
100
122
60
49
26
23
13
123
44
93
74
75
24
34
28
126
71
95
53
36
29
45
116
63
32
4
117
127
41
22
104
128
77
57
125
81
80
76
20
94
70
85
33
86
21
131
89
68
129
96
102
19
73
101
51
16
31
15
10
111
120
69
65
88
37
54
115
8
25
18
9
43
124
90
61
40
52
79
83
7
97
38
12
67
119
91
55
112
14
11
50
130
121
6
3
30
66
56
59
114
110
42
27
17
109
2
107
113
82
35
106
72
46
103
47
98
58
78

> <PUBCHEM_MMFF94_PARTIAL_CHARGES>
32
1 1.33
10 0.27
11 0.28
12 0.28
13 0.28
14 0.36
15 0.41
16 -0.14
17 -0.15
18 -0.15
19 0.11
2 -0.56
20 -0.15
21 -0.15
22 0.12
23 0.57
24 0.06
3 -0.68
32 0.36
35 0.4
36 0.42
37 0.15
38 0.15
4 -0.65
42 0.15
43 0.15
44 0.37
5 -0.65
6 -0.57
7 -0.9
8 -0.91
9 -0.55

> <PUBCHEM_EFFECTIVE_ROTOR_COUNT>
9

> <PUBCHEM_PHARMACOPHORE_FEATURES>
12
1 2 acceptor
1 3 acceptor
1 3 donor
1 4 acceptor
1 5 acceptor
1 6 acceptor
1 7 cation
1 7 donor
1 8 donor
1 9 donor
5 2 10 11 12 13 rings
6 16 17 18 20 21 22 rings

> <PUBCHEM_HEAVY_ATOM_COUNT>
24

> <PUBCHEM_ATOM_DEF_STEREO_COUNT>
3

> <PUBCHEM_ATOM_UDEF_STEREO_COUNT>
0

> <PUBCHEM_BOND_DEF_STEREO_COUNT>
0

> <PUBCHEM_BOND_UDEF_STEREO_COUNT>
0

> <PUBCHEM_ISOTOPIC_ATOM_COUNT>
0

> <PUBCHEM_COMPONENT_COUNT>
1

> <PUBCHEM_CACTVS_TAUTO_COUNT>
3

> <PUBCHEM_CONFORMER_ID>
0480991700000001

> <PUBCHEM_MMFF94_ENERGY>
51.3519

> <PUBCHEM_FEATURE_SELFOVERLAP>
60.916

> <PUBCHEM_SHAPE_FINGERPRINT>
10 15 17275103954981426872
10299344 5 18260269637923273764
10693767 8 16081635679263802648
11408170 132 10737547394494620250
11524674 6 17418091031421969479
11646440 116 16702302351826913248
12166972 35 18040155136378208220
125118 31 10879984775303413930
12616971 3 16988554740656808596
13073987 5 17203058369962117873
13540713 5 14491850686590959700
13668630 136 17167861989392613731
13673619 4 18407758140294882356
13685833 64 18410855464813538712
13968360 50 12685087073840817400
14251757 52 9655574098173405782
14251764 18 18202001049005076084
14341114 176 18201434817581200177
14344974 52 9511457807050363307
14556957 393 14779554422057597470
14729087 3 10663821871234219315
14931854 50 13912315772521244565
15183329 4 17313104129684491770
15198563 99 13551746276570376342
15348495 7 17274525629583039314
15352257 5 18408041805847299866
15475509 35 18336251376550859658
155225 1 10880001246898698027
15716309 27 18341332271090115965
1818759 1 17821736039745961699
18335252 114 11674878884389823378
18335252 98 18411418406957662736
2026 5 17532080610662834346
20281389 69 12103572969530570258
20526848 3 11600006561178390987
20554085 129 8430314589909850484
21150785 3 16370729227682720142
21267235 1 18260551138865161877
21298829 104 10735880586179925827
21315759 40 18041002833998929645
21424621 283 11815904457122227389
21521239 73 16298384631250945792
22224240 67 15841830049229065901
23035841 295 18113336392829042344
23522609 53 17970940823886760612
23569943 247 17606672518756796666
23576562 1 12974188318302890571
246663 6 18333734623660783203
300161 21 10663821879529164269
3004659 81 16515681182693674685
3178227 256 17561082523225267560
33532 11 18334293150167460154
4093350 32 13973693789181591620
465052 167 18201436953165746828
504579 68 14562530682721422399
5104073 3 16844461431233470547
5385378 56 14692299412971186292
5758199 1 13614519662493142204
5937810 71 11747203651126976455
59682541 35 18131344216445201298

> <PUBCHEM_SHAPE_MULTIPOLES>
453.47
25.33
1.98
1.17
2.66
0.51
-0.18
19.08
-5.3
-1.08
-0.24
1.29
-0.08
0.31

> <PUBCHEM_SHAPE_SELFOVERLAP>
916.608

> <PUBCHEM_SHAPE_VOLUME>
266.6

> <PUBCHEM_COORDINATE_TYPE>
2
5
10

$$$$
