45360575
  -OEChem-12032416193D

 55 58  0     1  0  0  0  0  0999 V2000
    7.2945    0.8069   -0.2123 F   0  0  0  0  0  0  0  0  0  0  0  0
    6.1628    0.7122   -2.0665 F   0  0  0  0  0  0  0  0  0  0  0  0
    5.7133    2.2476   -0.6022 F   0  0  0  0  0  0  0  0  0  0  0  0
   -3.3175   -0.8420   -1.8132 O   0  0  0  0  0  0  0  0  0  0  0  0
   -5.0600   -1.8531   -0.6633 O   0  0  0  0  0  0  0  0  0  0  0  0
   -3.5337   -2.1733    1.7593 O   0  0  0  0  0  0  0  0  0  0  0  0
    0.4896   -2.4720    1.1413 O   0  0  0  0  0  0  0  0  0  0  0  0
   -3.0469    1.1097    0.2738 N   0  0  0  0  0  0  0  0  0  0  0  0
   -0.7748   -1.3447   -0.4313 N   0  0  0  0  0  0  0  0  0  0  0  0
   -2.8340    3.9865    0.4690 N   0  0  0  0  0  0  0  0  0  0  0  0
    1.4579   -0.8562   -0.2594 N   0  0  0  0  0  0  0  0  0  0  0  0
   -3.7485   -0.1590    0.4591 C   0  0  2  0  0  0  0  0  0  0  0  0
   -2.7728   -1.2342    0.9884 C   0  0  2  0  0  0  0  0  0  0  0  0
   -2.0316   -1.9968   -0.1319 C   0  0  1  0  0  0  0  0  0  0  0  0
   -4.3755   -0.6071   -0.8739 C   0  0  1  0  0  0  0  0  0  0  0  0
   -2.8650   -2.1420   -1.4218 C   0  0  1  0  0  0  0  0  0  0  0  0
   -4.1929   -2.8492   -1.2263 C   0  0  0  0  0  0  0  0  0  0  0  0
   -2.8166    1.7716    1.5638 C   0  0  0  0  0  0  0  0  0  0  0  0
   -3.7957    1.9926   -0.6291 C   0  0  0  0  0  0  0  0  0  0  0  0
   -2.0837    3.1036    1.3704 C   0  0  0  0  0  0  0  0  0  0  0  0
   -3.0636    3.3252   -0.8213 C   0  0  0  0  0  0  0  0  0  0  0  0
    0.4136   -1.6383    0.2419 C   0  0  0  0  0  0  0  0  0  0  0  0
   -2.1342    5.2561    0.2845 C   0  0  0  0  0  0  0  0  0  0  0  0
    2.8117   -0.8502    0.1498 C   0  0  0  0  0  0  0  0  0  0  0  0
    3.7240    0.0055   -0.4676 C   0  0  0  0  0  0  0  0  0  0  0  0
    3.2344   -1.7007    1.1715 C   0  0  0  0  0  0  0  0  0  0  0  0
    5.0591    0.0108   -0.0634 C   0  0  0  0  0  0  0  0  0  0  0  0
    4.5696   -1.6952    1.5759 C   0  0  0  0  0  0  0  0  0  0  0  0
    5.4819   -0.8397    0.9583 C   0  0  0  0  0  0  0  0  0  0  0  0
    6.0345    0.9255   -0.7235 C   0  0  0  0  0  0  0  0  0  0  0  0
   -4.5746   -0.0431    1.1758 H   0  0  0  0  0  0  0  0  0  0  0  0
   -2.0511   -0.8232    1.7000 H   0  0  0  0  0  0  0  0  0  0  0  0
   -1.7930   -3.0088    0.2201 H   0  0  0  0  0  0  0  0  0  0  0  0
   -5.1256    0.0709   -1.2884 H   0  0  0  0  0  0  0  0  0  0  0  0
   -2.2732   -2.5929   -2.2250 H   0  0  0  0  0  0  0  0  0  0  0  0
   -4.6252   -3.1431   -2.1889 H   0  0  0  0  0  0  0  0  0  0  0  0
   -4.1407   -3.7273   -0.5772 H   0  0  0  0  0  0  0  0  0  0  0  0
   -3.7671    1.9540    2.0841 H   0  0  0  0  0  0  0  0  0  0  0  0
   -2.2004    1.1595    2.2292 H   0  0  0  0  0  0  0  0  0  0  0  0
   -3.8618    1.5970   -1.6469 H   0  0  0  0  0  0  0  0  0  0  0  0
   -4.8114    2.1816   -0.2558 H   0  0  0  0  0  0  0  0  0  0  0  0
   -0.7750   -0.5867   -1.1072 H   0  0  0  0  0  0  0  0  0  0  0  0
   -1.0725    2.9157    0.9841 H   0  0  0  0  0  0  0  0  0  0  0  0
   -1.9749    3.5829    2.3510 H   0  0  0  0  0  0  0  0  0  0  0  0
   -3.6788    3.9691   -1.4619 H   0  0  0  0  0  0  0  0  0  0  0  0
   -2.1138    3.1536   -1.3465 H   0  0  0  0  0  0  0  0  0  0  0  0
   -2.9102   -2.8152    2.1398 H   0  0  0  0  0  0  0  0  0  0  0  0
   -1.1460    5.1230   -0.1705 H   0  0  0  0  0  0  0  0  0  0  0  0
   -2.7193    5.9284   -0.3527 H   0  0  0  0  0  0  0  0  0  0  0  0
   -2.0052    5.7670    1.2451 H   0  0  0  0  0  0  0  0  0  0  0  0
    1.2250   -0.2105   -1.0097 H   0  0  0  0  0  0  0  0  0  0  0  0
    3.3981    0.6701   -1.2646 H   0  0  0  0  0  0  0  0  0  0  0  0
    2.5894   -2.3905    1.6969 H   0  0  0  0  0  0  0  0  0  0  0  0
    4.8999   -2.3569    2.3715 H   0  0  0  0  0  0  0  0  0  0  0  0
    6.5171   -0.8511    1.2880 H   0  0  0  0  0  0  0  0  0  0  0  0
  1 30  1  0  0  0  0
  2 30  1  0  0  0  0
  3 30  1  0  0  0  0
  4 15  1  0  0  0  0
  4 16  1  0  0  0  0
  5 15  1  0  0  0  0
  5 17  1  0  0  0  0
  6 13  1  0  0  0  0
  6 47  1  0  0  0  0
  7 22  2  0  0  0  0
  8 12  1  0  0  0  0
  8 18  1  0  0  0  0
  8 19  1  0  0  0  0
  9 14  1  0  0  0  0
  9 22  1  0  0  0  0
  9 42  1  0  0  0  0
 10 20  1  0  0  0  0
 10 21  1  0  0  0  0
 10 23  1  0  0  0  0
 11 22  1  0  0  0  0
 11 24  1  0  0  0  0
 11 51  1  0  0  0  0
 12 13  1  0  0  0  0
 12 15  1  0  0  0  0
 12 31  1  0  0  0  0
 13 14  1  0  0  0  0
 13 32  1  0  0  0  0
 14 16  1  0  0  0  0
 14 33  1  0  0  0  0
 15 34  1  0  0  0  0
 16 17  1  0  0  0  0
 16 35  1  0  0  0  0
 17 36  1  0  0  0  0
 17 37  1  0  0  0  0
 18 20  1  0  0  0  0
 18 38  1  0  0  0  0
 18 39  1  0  0  0  0
 19 21  1  0  0  0  0
 19 40  1  0  0  0  0
 19 41  1  0  0  0  0
 20 43  1  0  0  0  0
 20 44  1  0  0  0  0
 21 45  1  0  0  0  0
 21 46  1  0  0  0  0
 23 48  1  0  0  0  0
 23 49  1  0  0  0  0
 23 50  1  0  0  0  0
 24 25  1  0  0  0  0
 24 26  2  0  0  0  0
 25 27  2  0  0  0  0
 25 52  1  0  0  0  0
 26 28  1  0  0  0  0
 26 53  1  0  0  0  0
 27 29  1  0  0  0  0
 27 30  1  0  0  0  0
 28 29  2  0  0  0  0
 28 54  1  0  0  0  0
 29 55  1  0  0  0  0
M  END
> <PUBCHEM_COMPOUND_CID>
45360575

> <PUBCHEM_CONFORMER_RMSD>
1

> <PUBCHEM_CONFORMER_DIVERSEORDER>
1
46
26
42
37
52
23
10
9
44
30
7
25
31
21
33
11
29
41
19
43
50
4
17
18
6
35
32
45
40
15
53
36
12
27
13
49
16
20
39
28
14
47
51
5
2
22
34
8
48
38
3
24

> <PUBCHEM_MMFF94_PARTIAL_CHARGES>
37
1 -0.34
10 -0.81
11 -0.55
12 0.27
13 0.28
14 0.3
15 0.56
16 0.28
17 0.28
18 0.27
19 0.27
2 -0.34
20 0.27
21 0.27
22 0.69
23 0.27
24 0.12
25 -0.15
26 -0.15
27 -0.14
28 -0.15
29 -0.15
3 -0.34
30 1.16
4 -0.56
42 0.37
47 0.4
5 -0.56
51 0.37
52 0.15
53 0.15
54 0.15
55 0.15
6 -0.68
7 -0.57
8 -0.81
9 -0.73

> <PUBCHEM_EFFECTIVE_ROTOR_COUNT>
8.4

> <PUBCHEM_PHARMACOPHORE_FEATURES>
12
1 10 cation
1 11 donor
1 4 acceptor
1 5 acceptor
1 6 acceptor
1 6 donor
1 7 acceptor
1 8 cation
1 9 donor
6 24 25 26 27 28 29 rings
6 8 10 18 19 20 21 rings
8 4 5 12 13 14 15 16 17 rings

> <PUBCHEM_HEAVY_ATOM_COUNT>
30

> <PUBCHEM_ATOM_DEF_STEREO_COUNT>
5

> <PUBCHEM_ATOM_UDEF_STEREO_COUNT>
0

> <PUBCHEM_BOND_DEF_STEREO_COUNT>
0

> <PUBCHEM_BOND_UDEF_STEREO_COUNT>
0

> <PUBCHEM_ISOTOPIC_ATOM_COUNT>
0

> <PUBCHEM_COMPONENT_COUNT>
1

> <PUBCHEM_CACTVS_TAUTO_COUNT>
3

> <PUBCHEM_CONFORMER_ID>
02B425BF00000001

> <PUBCHEM_MMFF94_ENERGY>
81.6913

> <PUBCHEM_FEATURE_SELFOVERLAP>
61

> <PUBCHEM_SHAPE_FINGERPRINT>
10670039 82 18342181072723797732
10871710 139 18411419484403759857
10937287 8 17622441645824059193
11059845 2 17764283078292177570
11101153 10 18338797943600573060
11315621 246 17917148411334600062
11477941 20 18201144563754432428
12107183 9 17759511184700537066
12596602 18 17748825232678910194
12788726 201 18411414020688589667
13761468 95 17843427101674655952
14142880 1 18117272563458705101
14251764 75 17837218077935158737
14556957 393 18339631322101362229
14932702 115 18059001766811903208
15064981 113 17915445117710199638
15183329 4 18201445792198425326
15348495 7 12035449476096086638
15513586 35 18265629834170947152
15575132 122 18412262822438056263
16994733 274 15792554281360307103
17844677 252 18411421692075388118
21033650 10 18267888132781346862
21049683 271 18262792008530560615
22907989 373 18200018531420787473
22956985 138 16890347698336924971
23516275 100 17909818075114739600
255183 451 17554311898447869727
46194498 28 17417531445102835576
469060 322 18341347651521387243
5104073 3 17385999581658456634
531348 171 18201723895003576254
5364581 5 12036312626894069854
550186 7 18060138712978297046
6036956 94 18261399922734510541
6608658 132 18412823616138638126
7237137 82 18344144795584225832
7808743 9 18269553845156928065
9849439 229 17905901275119267237
9981440 41 18267017246631882403

> <PUBCHEM_SHAPE_MULTIPOLES>
552.16
15.02
4.83
1.54
28.06
6.64
0.03
2.16
-3.33
-7.38
0.33
-0.02
-0.32
-2.73

> <PUBCHEM_SHAPE_SELFOVERLAP>
1180.74

> <PUBCHEM_SHAPE_VOLUME>
305.3

> <PUBCHEM_COORDINATE_TYPE>
2
5
10

$$$$
