51137475
  -OEChem-12032416313D

 49 52  0     1  0  0  0  0  0999 V2000
   -7.7587    0.2349    1.8628 F   0  0  0  0  0  0  0  0  0  0  0  0
   -8.3168   -0.6414   -0.0473 F   0  0  0  0  0  0  0  0  0  0  0  0
   -8.2573    1.5194    0.1879 F   0  0  0  0  0  0  0  0  0  0  0  0
    2.7389   -0.3815   -0.1186 O   0  0  0  0  0  0  0  0  0  0  0  0
    6.7490   -0.7509    0.6465 O   0  0  0  0  0  0  0  0  0  0  0  0
   -1.2892   -0.6988   -0.4801 N   0  0  1  0  0  0  0  0  0  0  0  0
    3.1664   -2.5499   -0.4642 N   0  0  0  0  0  0  0  0  0  0  0  0
    4.3686   -1.8681   -0.4907 N   0  0  0  0  0  0  0  0  0  0  0  0
    0.7463   -1.8047   -0.1156 C   0  0  1  0  0  0  0  0  0  0  0  0
    0.1602   -1.3482    1.2317 C   0  0  0  0  0  0  0  0  0  0  0  0
   -0.0343   -1.0073   -1.1691 C   0  0  0  0  0  0  0  0  0  0  0  0
   -0.8905   -0.3059    0.8715 C   0  0  0  0  0  0  0  0  0  0  0  0
   -2.0532    0.3392   -1.1563 C   0  0  0  0  0  0  0  0  0  0  0  0
    2.2434   -1.6430   -0.2443 C   0  0  0  0  0  0  0  0  0  0  0  0
   -3.4947    0.3474   -0.7217 C   0  0  0  0  0  0  0  0  0  0  0  0
   -4.3742   -0.6215   -1.2046 C   0  0  0  0  0  0  0  0  0  0  0  0
   -3.9508    1.3243    0.1634 C   0  0  0  0  0  0  0  0  0  0  0  0
    4.0709   -0.6064   -0.2848 C   0  0  0  0  0  0  0  0  0  0  0  0
   -5.7098   -0.6137   -0.8025 C   0  0  0  0  0  0  0  0  0  0  0  0
   -5.2863    1.3322    0.5656 C   0  0  0  0  0  0  0  0  0  0  0  0
   -6.1658    0.3633    0.0827 C   0  0  0  0  0  0  0  0  0  0  0  0
    4.9166    0.5494   -0.2089 C   0  0  0  0  0  0  0  0  0  0  0  0
    6.2284    0.4469    0.2536 C   0  0  0  0  0  0  0  0  0  0  0  0
   -7.5934    0.3709    0.5138 C   0  0  0  0  0  0  0  0  0  0  0  0
    4.4110    1.7880   -0.6034 C   0  0  0  0  0  0  0  0  0  0  0  0
    7.0348    1.5831    0.3216 C   0  0  0  0  0  0  0  0  0  0  0  0
    5.2172    2.9242   -0.5353 C   0  0  0  0  0  0  0  0  0  0  0  0
    6.5292    2.8219   -0.0728 C   0  0  0  0  0  0  0  0  0  0  0  0
    6.5942   -1.1039    2.0190 C   0  0  0  0  0  0  0  0  0  0  0  0
    0.5196   -2.8730   -0.2375 H   0  0  0  0  0  0  0  0  0  0  0  0
    0.9093   -0.9396    1.9182 H   0  0  0  0  0  0  0  0  0  0  0  0
   -0.3145   -2.2035    1.7288 H   0  0  0  0  0  0  0  0  0  0  0  0
    0.4976   -0.0918   -1.4598 H   0  0  0  0  0  0  0  0  0  0  0  0
   -0.2045   -1.6045   -2.0716 H   0  0  0  0  0  0  0  0  0  0  0  0
   -1.7240   -0.3280    1.5805 H   0  0  0  0  0  0  0  0  0  0  0  0
   -0.4383    0.6941    0.8916 H   0  0  0  0  0  0  0  0  0  0  0  0
   -1.6001    1.3324   -1.0340 H   0  0  0  0  0  0  0  0  0  0  0  0
   -2.0514    0.1559   -2.2402 H   0  0  0  0  0  0  0  0  0  0  0  0
   -4.0308   -1.3878   -1.8947 H   0  0  0  0  0  0  0  0  0  0  0  0
   -3.2756    2.0839    0.5482 H   0  0  0  0  0  0  0  0  0  0  0  0
   -6.3785   -1.3773   -1.1900 H   0  0  0  0  0  0  0  0  0  0  0  0
   -5.6323    2.0968    1.2560 H   0  0  0  0  0  0  0  0  0  0  0  0
    3.3951    1.8981   -0.9757 H   0  0  0  0  0  0  0  0  0  0  0  0
    8.0582    1.5112    0.6801 H   0  0  0  0  0  0  0  0  0  0  0  0
    4.8244    3.8886   -0.8441 H   0  0  0  0  0  0  0  0  0  0  0  0
    7.1571    3.7065   -0.0203 H   0  0  0  0  0  0  0  0  0  0  0  0
    7.1448   -0.4045    2.6561 H   0  0  0  0  0  0  0  0  0  0  0  0
    5.5378   -1.1176    2.3051 H   0  0  0  0  0  0  0  0  0  0  0  0
    7.0072   -2.1060    2.1631 H   0  0  0  0  0  0  0  0  0  0  0  0
  1 24  1  0  0  0  0
  2 24  1  0  0  0  0
  3 24  1  0  0  0  0
  4 14  1  0  0  0  0
  4 18  1  0  0  0  0
  5 23  1  0  0  0  0
  5 29  1  0  0  0  0
  6 11  1  0  0  0  0
  6 12  1  0  0  0  0
  6 13  1  0  0  0  0
  7  8  1  0  0  0  0
  7 14  2  0  0  0  0
  8 18  2  0  0  0  0
  9 10  1  0  0  0  0
  9 11  1  0  0  0  0
  9 14  1  0  0  0  0
  9 30  1  0  0  0  0
 10 12  1  0  0  0  0
 10 31  1  0  0  0  0
 10 32  1  0  0  0  0
 11 33  1  0  0  0  0
 11 34  1  0  0  0  0
 12 35  1  0  0  0  0
 12 36  1  0  0  0  0
 13 15  1  0  0  0  0
 13 37  1  0  0  0  0
 13 38  1  0  0  0  0
 15 16  2  0  0  0  0
 15 17  1  0  0  0  0
 16 19  1  0  0  0  0
 16 39  1  0  0  0  0
 17 20  2  0  0  0  0
 17 40  1  0  0  0  0
 18 22  1  0  0  0  0
 19 21  2  0  0  0  0
 19 41  1  0  0  0  0
 20 21  1  0  0  0  0
 20 42  1  0  0  0  0
 21 24  1  0  0  0  0
 22 23  1  0  0  0  0
 22 25  2  0  0  0  0
 23 26  2  0  0  0  0
 25 27  1  0  0  0  0
 25 43  1  0  0  0  0
 26 28  1  0  0  0  0
 26 44  1  0  0  0  0
 27 28  2  0  0  0  0
 27 45  1  0  0  0  0
 28 46  1  0  0  0  0
 29 47  1  0  0  0  0
 29 48  1  0  0  0  0
 29 49  1  0  0  0  0
M  END
> <PUBCHEM_COMPOUND_CID>
51137475

> <PUBCHEM_CONFORMER_RMSD>
1

> <PUBCHEM_CONFORMER_DIVERSEORDER>
1
83
34
76
37
2
116
69
64
118
125
68
98
104
109
75
39
93
31
12
123
15
88
90
63
40
120
4
52
89
101
80
113
58
28
74
22
8
23
35
105
43
49
67
112
97
54
36
32
94
99
92
77
103
124
27
42
110
21
55
95
100
86
33
46
121
71
25
81
47
10
5
66
115
61
62
102
56
38
57
70
20
73
126
127
48
84
111
79
11
87
26
72
19
17
59
60
106
119
65
18
129
14
82
29
7
51
96
13
24
78
108
85
107
114
53
91
6
128
44
117
50
30
41
130
3
9
45
16
122

> <PUBCHEM_MMFF94_PARTIAL_CHARGES>
36
1 -0.34
11 0.27
12 0.27
13 0.41
14 0.3
15 -0.14
16 -0.15
17 -0.15
18 0.43
19 -0.15
2 -0.34
20 -0.15
21 -0.14
22 0.05
23 0.08
24 1.16
25 -0.15
26 -0.15
27 -0.15
28 -0.15
29 0.28
3 -0.34
39 0.15
4 -0.28
40 0.15
41 0.15
42 0.15
43 0.15
44 0.15
45 0.15
46 0.15
5 -0.36
6 -0.81
7 -0.34
8 -0.34
9 0.18

> <PUBCHEM_EFFECTIVE_ROTOR_COUNT>
7

> <PUBCHEM_PHARMACOPHORE_FEATURES>
6
1 5 acceptor
1 6 cation
5 4 7 8 14 18 rings
5 6 9 10 11 12 rings
6 15 16 17 19 20 21 rings
6 22 23 25 26 27 28 rings

> <PUBCHEM_HEAVY_ATOM_COUNT>
29

> <PUBCHEM_ATOM_DEF_STEREO_COUNT>
1

> <PUBCHEM_ATOM_UDEF_STEREO_COUNT>
0

> <PUBCHEM_BOND_DEF_STEREO_COUNT>
0

> <PUBCHEM_BOND_UDEF_STEREO_COUNT>
0

> <PUBCHEM_ISOTOPIC_ATOM_COUNT>
0

> <PUBCHEM_COMPONENT_COUNT>
1

> <PUBCHEM_CACTVS_TAUTO_COUNT>
1

> <PUBCHEM_CONFORMER_ID>
030C4BC300000001

> <PUBCHEM_MMFF94_ENERGY>
70.2911

> <PUBCHEM_FEATURE_SELFOVERLAP>
30.448

> <PUBCHEM_SHAPE_FINGERPRINT>
10 15 18113621196210066057
10299344 5 17989205945685746215
10319688 67 16732982071873804897
10411042 1 17978792308463116142
10595046 47 18343862208432616087
10673678 19 18202006546816448550
11315181 36 18131353000148927323
11456790 92 18333724702882766888
11638347 137 17023183799185614419
11646440 116 17675925399954705500
13533116 47 17458615671958597858
13692114 37 16298391283364387194
14216079 64 9511468813938712884
14461889 52 18041005067719872139
14565420 104 18187363225230505514
14849402 71 18341614871164408425
14856354 85 17275385430875769431
15183329 4 16702307866385781025
15188451 53 13190334673624781452
15419008 145 18189606152074566048
15475509 8 13542473059440210995
15685185 35 18196374951550100764
15728490 51 18339079402246851207
1577012 14 18343297106758549980
15840311 113 18412268303016864517
16989713 51 16844154852991067871
16992752 21 17702093880693004735
18393751 57 17967531311184312038
20105231 36 14333411173192700373
20157964 124 18411420601206221486
21033648 29 18265325300479726592
21298829 104 18341893060918327476
21521721 280 18410016529057729443
21641784 216 16271938073002897601
21781055 127 13407061580558086829
21792934 111 17603864473581143341
2215653 11 11455890269221983492
22224240 67 17967532380979406419
22956985 138 13841922753652564104
23522609 53 17632031775404335521
23576562 1 15122641736275929489
25269216 80 16199577134083742949
2747138 104 17749683925986050229
2838139 119 18335974320726094684
28498 318 9511466611031667395
34797466 226 18059582364553211223
3711267 37 17346606274642328801
397830 11 18041572441452548419
4073 2 18335704974642738203
4325135 7 18342457032609033607
4340502 62 17676487241917405330
445580 126 18342170081876185168
5104073 3 17387404649933282193
5372103 7 15481527881096072544
5758199 1 18410293622756185407
5911458 16 18060427919065419121
59682541 35 17894916256588194801
68570916 9 18339076094283289351

> <PUBCHEM_SHAPE_MULTIPOLES>
548.3
25.51
2.39
1.2
24.35
0.77
-0.34
11
-6.46
-4.81
0.19
0.27
-0.28
-1.37

> <PUBCHEM_SHAPE_SELFOVERLAP>
1194.636

> <PUBCHEM_SHAPE_VOLUME>
302.3

> <PUBCHEM_COORDINATE_TYPE>
2
5
10

$$$$
