40776919
  -OEChem-12032416183D

 56 60  0     1  0  0  0  0  0999 V2000
    8.1450    1.3185    2.0273 F   0  0  0  0  0  0  0  0  0  0  0  0
   -5.3140   -0.5005    2.0046 O   0  0  0  0  0  0  0  0  0  0  0  0
   -5.2905    2.2211   -0.2676 O   0  0  0  0  0  0  0  0  0  0  0  0
   -1.3659   -2.6035    1.0485 N   0  0  2  0  0  0  0  0  0  0  0  0
   -3.5274    0.4675    0.8837 N   0  0  0  0  0  0  0  0  0  0  0  0
    0.9823   -0.0666   -1.9301 N   0  0  0  0  0  0  0  0  0  0  0  0
    2.9995    1.1950   -1.5466 N   0  0  0  0  0  0  0  0  0  0  0  0
   -0.8681   -2.2088   -1.4772 C   0  0  2  0  0  0  0  0  0  0  0  0
    0.4324   -2.0695   -0.6384 C   0  0  2  0  0  0  0  0  0  0  0  0
   -2.3301   -1.6204    0.4880 C   0  0  2  0  0  0  0  0  0  0  0  0
   -1.9258   -1.2181   -0.9466 C   0  0  0  0  0  0  0  0  0  0  0  0
   -1.4113   -3.6314   -1.2234 C   0  0  0  0  0  0  0  0  0  0  0  0
    0.0236   -2.1161    0.8616 C   0  0  0  0  0  0  0  0  0  0  0  0
   -1.5175   -3.8701    0.2930 C   0  0  0  0  0  0  0  0  0  0  0  0
   -2.5104   -0.3998    1.3930 C   0  0  0  0  0  0  0  0  0  0  0  0
    1.3654   -0.9072   -0.9467 C   0  0  0  0  0  0  0  0  0  0  0  0
    2.5349   -0.7646   -0.2284 C   0  0  0  0  0  0  0  0  0  0  0  0
    3.3208    0.3156   -0.5751 C   0  0  0  0  0  0  0  0  0  0  0  0
    1.8340    0.9477   -2.1742 C   0  0  0  0  0  0  0  0  0  0  0  0
   -4.8710    0.3477    1.2346 C   0  0  0  0  0  0  0  0  0  0  0  0
    4.5701    0.5756    0.0995 C   0  0  0  0  0  0  0  0  0  0  0  0
    1.4457    1.8975   -3.2563 C   0  0  0  0  0  0  0  0  0  0  0  0
   -5.8071    1.3100    0.5984 C   0  0  0  0  0  0  0  0  0  0  0  0
    4.5860    0.8057    1.4752 C   0  0  0  0  0  0  0  0  0  0  0  0
    5.7618    0.5964   -0.6249 C   0  0  0  0  0  0  0  0  0  0  0  0
   -7.1681    1.4719    0.7153 C   0  0  0  0  0  0  0  0  0  0  0  0
    5.7936    1.0568    2.1264 C   0  0  0  0  0  0  0  0  0  0  0  0
    6.9696    0.8475    0.0263 C   0  0  0  0  0  0  0  0  0  0  0  0
   -7.5098    2.5517   -0.1334 C   0  0  0  0  0  0  0  0  0  0  0  0
   -6.3330    2.9728   -0.7084 C   0  0  0  0  0  0  0  0  0  0  0  0
    6.9854    1.0777    1.4018 C   0  0  0  0  0  0  0  0  0  0  0  0
   -0.6866   -2.0541   -2.5460 H   0  0  0  0  0  0  0  0  0  0  0  0
    1.0341   -2.9672   -0.8500 H   0  0  0  0  0  0  0  0  0  0  0  0
   -3.3128   -2.1125    0.4361 H   0  0  0  0  0  0  0  0  0  0  0  0
   -1.5306   -0.1970   -0.9855 H   0  0  0  0  0  0  0  0  0  0  0  0
   -2.8106   -1.2432   -1.5949 H   0  0  0  0  0  0  0  0  0  0  0  0
   -0.7484   -4.3802   -1.6725 H   0  0  0  0  0  0  0  0  0  0  0  0
   -2.3953   -3.7443   -1.6946 H   0  0  0  0  0  0  0  0  0  0  0  0
    0.7079   -2.7854    1.4003 H   0  0  0  0  0  0  0  0  0  0  0  0
    0.1441   -1.1413    1.3481 H   0  0  0  0  0  0  0  0  0  0  0  0
   -2.4823   -4.3350    0.5303 H   0  0  0  0  0  0  0  0  0  0  0  0
   -0.7564   -4.5906    0.6188 H   0  0  0  0  0  0  0  0  0  0  0  0
   -1.5957    0.1972    1.4633 H   0  0  0  0  0  0  0  0  0  0  0  0
   -2.7822   -0.7155    2.4070 H   0  0  0  0  0  0  0  0  0  0  0  0
   -3.2539    1.1958    0.2300 H   0  0  0  0  0  0  0  0  0  0  0  0
    2.8203   -1.4640    0.5487 H   0  0  0  0  0  0  0  0  0  0  0  0
    1.8828    1.5741   -4.2056 H   0  0  0  0  0  0  0  0  0  0  0  0
    0.3575    1.9382   -3.3671 H   0  0  0  0  0  0  0  0  0  0  0  0
    1.8016    2.9076   -3.0313 H   0  0  0  0  0  0  0  0  0  0  0  0
    3.6677    0.7992    2.0577 H   0  0  0  0  0  0  0  0  0  0  0  0
    5.7702    0.4156   -1.6972 H   0  0  0  0  0  0  0  0  0  0  0  0
   -7.8349    0.8873    1.3330 H   0  0  0  0  0  0  0  0  0  0  0  0
    5.8065    1.2372    3.1973 H   0  0  0  0  0  0  0  0  0  0  0  0
    7.8979    0.8630   -0.5371 H   0  0  0  0  0  0  0  0  0  0  0  0
   -8.4907    2.9707   -0.3049 H   0  0  0  0  0  0  0  0  0  0  0  0
   -6.0823    3.7518   -1.4134 H   0  0  0  0  0  0  0  0  0  0  0  0
  1 31  1  0  0  0  0
  2 20  2  0  0  0  0
  3 23  1  0  0  0  0
  3 30  1  0  0  0  0
  4 10  1  0  0  0  0
  4 13  1  0  0  0  0
  4 14  1  0  0  0  0
  5 15  1  0  0  0  0
  5 20  1  0  0  0  0
  5 45  1  0  0  0  0
  6 16  2  0  0  0  0
  6 19  1  0  0  0  0
  7 18  1  0  0  0  0
  7 19  2  0  0  0  0
  8  9  1  0  0  0  0
  8 11  1  0  0  0  0
  8 12  1  0  0  0  0
  8 32  1  0  0  0  0
  9 13  1  0  0  0  0
  9 16  1  0  0  0  0
  9 33  1  0  0  0  0
 10 11  1  0  0  0  0
 10 15  1  0  0  0  0
 10 34  1  0  0  0  0
 11 35  1  0  0  0  0
 11 36  1  0  0  0  0
 12 14  1  0  0  0  0
 12 37  1  0  0  0  0
 12 38  1  0  0  0  0
 13 39  1  0  0  0  0
 13 40  1  0  0  0  0
 14 41  1  0  0  0  0
 14 42  1  0  0  0  0
 15 43  1  0  0  0  0
 15 44  1  0  0  0  0
 16 17  1  0  0  0  0
 17 18  2  0  0  0  0
 17 46  1  0  0  0  0
 18 21  1  0  0  0  0
 19 22  1  0  0  0  0
 20 23  1  0  0  0  0
 21 24  2  0  0  0  0
 21 25  1  0  0  0  0
 22 47  1  0  0  0  0
 22 48  1  0  0  0  0
 22 49  1  0  0  0  0
 23 26  2  0  0  0  0
 24 27  1  0  0  0  0
 24 50  1  0  0  0  0
 25 28  2  0  0  0  0
 25 51  1  0  0  0  0
 26 29  1  0  0  0  0
 26 52  1  0  0  0  0
 27 31  2  0  0  0  0
 27 53  1  0  0  0  0
 28 31  1  0  0  0  0
 28 54  1  0  0  0  0
 29 30  2  0  0  0  0
 29 55  1  0  0  0  0
 30 56  1  0  0  0  0
M  END
> <PUBCHEM_COMPOUND_CID>
40776919

> <PUBCHEM_CONFORMER_RMSD>
1

> <PUBCHEM_CONFORMER_DIVERSEORDER>
1
11
54
46
43
50
4
25
38
48
2
56
57
24
35
55
40
34
15
51
21
45
9
32
49
20
58
18
59
14
28
41
7
31
44
13
53
42
16
47
12
33
26
52
36
27
30
3
29
37
10
22
39
23
17
5
19
8
6

> <PUBCHEM_MMFF94_PARTIAL_CHARGES>
36
1 -0.19
10 0.27
13 0.27
14 0.27
15 0.3
16 0.17
17 -0.15
18 0.31
19 0.48
2 -0.57
20 0.71
22 0.14
23 0.05
24 -0.15
25 -0.15
26 -0.15
27 -0.15
28 -0.15
29 -0.15
3 -0.28
30 -0.01
31 0.19
4 -0.81
45 0.37
46 0.15
5 -0.73
50 0.15
51 0.15
52 0.15
53 0.15
54 0.15
55 0.15
56 0.15
6 -0.62
7 -0.62
9 0.14

> <PUBCHEM_EFFECTIVE_ROTOR_COUNT>
7.2

> <PUBCHEM_PHARMACOPHORE_FEATURES>
10
1 2 acceptor
1 3 acceptor
1 4 cation
1 5 donor
1 6 acceptor
3 6 7 19 cation
5 3 23 26 29 30 rings
6 21 24 25 27 28 31 rings
6 6 7 16 17 18 19 rings
8 4 8 9 10 11 12 13 14 rings

> <PUBCHEM_HEAVY_ATOM_COUNT>
31

> <PUBCHEM_ATOM_DEF_STEREO_COUNT>
3

> <PUBCHEM_ATOM_UDEF_STEREO_COUNT>
0

> <PUBCHEM_BOND_DEF_STEREO_COUNT>
0

> <PUBCHEM_BOND_UDEF_STEREO_COUNT>
0

> <PUBCHEM_ISOTOPIC_ATOM_COUNT>
0

> <PUBCHEM_COMPONENT_COUNT>
1

> <PUBCHEM_CACTVS_TAUTO_COUNT>
2

> <PUBCHEM_CONFORMER_ID>
026E34D700000001

> <PUBCHEM_MMFF94_ENERGY>
74.3005

> <PUBCHEM_FEATURE_SELFOVERLAP>
50.747

> <PUBCHEM_SHAPE_FINGERPRINT>
10190108 129 16877939392205851032
10939801 23 17677062325343725804
11135609 127 17979629040995368885
11146851 88 18187090555327362461
11374522 165 18190169084405350533
11399510 152 16446473608441834857
117089 54 8141786310315664913
11961588 58 17060336318737191599
12107183 9 17531250586140112760
12403259 118 18041292044929217099
12422481 6 18040157284130114829
12633257 1 17095530646507572330
13103583 49 16877947178169331058
13150687 139 17846504686223290647
13540713 5 17679595707323051126
13583140 156 16987723566550000614
14040221 275 14636261604882425901
14123256 34 8430311338297392041
14251764 30 7925907076262490945
14294032 229 18268445675518947055
14765038 42 17241049928939694104
14767858 380 12967131618368417604
14904525 67 17913766387521619040
14950920 106 16806461377601705235
15238133 3 18262248806150827636
15350500 185 18342448223800414681
15669420 48 16128649778518166701
15684973 49 18195814192056368334
15705408 1 13899422912835110956
17492 54 15339114632891186743
19053607 189 18116728309235030589
19246450 95 17386274407709255281
19304144 158 18337108957308833301
20554085 129 18342454816390195345
20567600 254 18343585118670060641
20587220 17 17981879745387173077
21033648 29 18410013221383882374
21304303 282 18200584908611217823
21403212 168 17894907417382092467
21585481 104 15122964893620162873
21859007 373 18263366893211316166
23522609 53 17096670853488256638
2838139 119 18412545444313433677
3459 39 18413106169231371737
393628 179 18272923908484379865
393628 194 17846226570001456249
4330586 98 13398045657059215637
4366758 6 18335133164682650269
4938544 92 18199748206063002790
5104073 3 17824260634507438416
5372103 7 17418088810918836129
54728670 133 17169525473165979252
57527585 21 15265962019798244090
6009941 240 18201435926684524066
6058803 2 17317621116398220798
6086070 43 16559025026541132834
6204607 403 17900541487897171972
6695519 79 18124908736397362083
6697151 62 16843349817158437182
7918774 8 7853569115364966257
999808 66 13406787822534683264

> <PUBCHEM_SHAPE_MULTIPOLES>
599.03
19.78
3.58
2.25
0.42
2.84
0.83
-22.6
-10.73
-5.35
0.77
2.11
-0.85
1.17

> <PUBCHEM_SHAPE_SELFOVERLAP>
1313.044

> <PUBCHEM_SHAPE_VOLUME>
324

> <PUBCHEM_COORDINATE_TYPE>
2
5
10

$$$$
