75536693
  -OEChem-12032416313D

 47 49  0     1  0  0  0  0  0999 V2000
    4.6918   -1.3687    0.1539 S   0  0  0  0  0  0  0  0  0  0  0  0
   -4.6184    1.4700    1.6833 F   0  0  0  0  0  0  0  0  0  0  0  0
    0.3122   -1.1759    1.4385 O   0  0  0  0  0  0  0  0  0  0  0  0
   -0.4675   -1.3892   -2.0618 O   0  0  0  0  0  0  0  0  0  0  0  0
    4.7453   -2.0085   -1.1468 O   0  0  0  0  0  0  0  0  0  0  0  0
    5.5222   -1.8533    1.2397 O   0  0  0  0  0  0  0  0  0  0  0  0
   -2.8114   -0.3614   -0.2380 N   0  0  0  0  0  0  0  0  0  0  0  0
    3.0759   -1.2991    0.6816 N   0  0  0  0  0  0  0  0  0  0  0  0
   -1.6301   -1.1503    0.0716 C   0  0  1  0  0  0  0  0  0  0  0  0
   -0.4228   -0.7982   -0.7775 C   0  0  1  0  0  0  0  0  0  0  0  0
    0.7075   -1.3665    0.0698 C   0  0  1  0  0  0  0  0  0  0  0  0
   -1.0979   -0.8940    1.4720 C   0  0  0  0  0  0  0  0  0  0  0  0
    2.0431   -0.6881   -0.1779 C   0  0  0  0  0  0  0  0  0  0  0  0
   -4.0072   -0.9533    0.3498 C   0  0  0  0  0  0  0  0  0  0  0  0
   -5.2390   -0.1401    0.0532 C   0  0  0  0  0  0  0  0  0  0  0  0
    5.0751    0.3430   -0.0648 C   0  0  0  0  0  0  0  0  0  0  0  0
   -5.4794    1.0451    0.7481 C   0  0  0  0  0  0  0  0  0  0  0  0
   -6.1407   -0.5738   -0.9187 C   0  0  0  0  0  0  0  0  0  0  0  0
    5.6031    1.0801    0.9951 C   0  0  0  0  0  0  0  0  0  0  0  0
    4.8459    0.9574   -1.2958 C   0  0  0  0  0  0  0  0  0  0  0  0
   -6.6214    1.7967    0.4713 C   0  0  0  0  0  0  0  0  0  0  0  0
   -7.2828    0.1778   -1.1956 C   0  0  0  0  0  0  0  0  0  0  0  0
   -7.5231    1.3630   -0.5006 C   0  0  0  0  0  0  0  0  0  0  0  0
    5.9021    2.4319    0.8240 C   0  0  0  0  0  0  0  0  0  0  0  0
    5.1447    2.3090   -1.4671 C   0  0  0  0  0  0  0  0  0  0  0  0
    5.6728    3.0464   -0.4072 C   0  0  0  0  0  0  0  0  0  0  0  0
   -1.8414   -2.2203   -0.0659 H   0  0  0  0  0  0  0  0  0  0  0  0
   -0.3239    0.2885   -0.8917 H   0  0  0  0  0  0  0  0  0  0  0  0
    0.8127   -2.4473   -0.0931 H   0  0  0  0  0  0  0  0  0  0  0  0
   -1.2104    0.1533    1.7754 H   0  0  0  0  0  0  0  0  0  0  0  0
   -1.5754   -1.5250    2.2278 H   0  0  0  0  0  0  0  0  0  0  0  0
    1.9823    0.3752    0.0795 H   0  0  0  0  0  0  0  0  0  0  0  0
    2.3130   -0.7866   -1.2337 H   0  0  0  0  0  0  0  0  0  0  0  0
   -2.9277   -0.3196   -1.2510 H   0  0  0  0  0  0  0  0  0  0  0  0
   -3.9086   -1.0331    1.4399 H   0  0  0  0  0  0  0  0  0  0  0  0
   -4.1491   -1.9767   -0.0215 H   0  0  0  0  0  0  0  0  0  0  0  0
   -0.5561   -2.3511   -1.9528 H   0  0  0  0  0  0  0  0  0  0  0  0
    2.8925   -1.2652    1.6922 H   0  0  0  0  0  0  0  0  0  0  0  0
   -5.9655   -1.4940   -1.4696 H   0  0  0  0  0  0  0  0  0  0  0  0
    5.7822    0.6242    1.9646 H   0  0  0  0  0  0  0  0  0  0  0  0
    4.4327    0.4035   -2.1338 H   0  0  0  0  0  0  0  0  0  0  0  0
   -6.8081    2.7195    1.0124 H   0  0  0  0  0  0  0  0  0  0  0  0
   -7.9846   -0.1596   -1.9526 H   0  0  0  0  0  0  0  0  0  0  0  0
   -8.4122    1.9483   -0.7163 H   0  0  0  0  0  0  0  0  0  0  0  0
    6.3114    3.0066    1.6497 H   0  0  0  0  0  0  0  0  0  0  0  0
    4.9654    2.7878   -2.4253 H   0  0  0  0  0  0  0  0  0  0  0  0
    5.9049    4.0990   -0.5404 H   0  0  0  0  0  0  0  0  0  0  0  0
  1  5  2  0  0  0  0
  1  6  2  0  0  0  0
  1  8  1  0  0  0  0
  1 16  1  0  0  0  0
  2 17  1  0  0  0  0
  3 11  1  0  0  0  0
  3 12  1  0  0  0  0
  4 10  1  0  0  0  0
  4 37  1  0  0  0  0
  7  9  1  0  0  0  0
  7 14  1  0  0  0  0
  7 34  1  0  0  0  0
  8 13  1  0  0  0  0
  8 38  1  0  0  0  0
  9 10  1  0  0  0  0
  9 12  1  0  0  0  0
  9 27  1  0  0  0  0
 10 11  1  0  0  0  0
 10 28  1  0  0  0  0
 11 13  1  0  0  0  0
 11 29  1  0  0  0  0
 12 30  1  0  0  0  0
 12 31  1  0  0  0  0
 13 32  1  0  0  0  0
 13 33  1  0  0  0  0
 14 15  1  0  0  0  0
 14 35  1  0  0  0  0
 14 36  1  0  0  0  0
 15 17  1  0  0  0  0
 15 18  2  0  0  0  0
 16 19  2  0  0  0  0
 16 20  1  0  0  0  0
 17 21  2  0  0  0  0
 18 22  1  0  0  0  0
 18 39  1  0  0  0  0
 19 24  1  0  0  0  0
 19 40  1  0  0  0  0
 20 25  2  0  0  0  0
 20 41  1  0  0  0  0
 21 23  1  0  0  0  0
 21 42  1  0  0  0  0
 22 23  2  0  0  0  0
 22 43  1  0  0  0  0
 23 44  1  0  0  0  0
 24 26  2  0  0  0  0
 24 45  1  0  0  0  0
 25 26  1  0  0  0  0
 25 46  1  0  0  0  0
 26 47  1  0  0  0  0
M  END
> <PUBCHEM_COMPOUND_CID>
75536693

> <PUBCHEM_CONFORMER_RMSD>
1.4

> <PUBCHEM_CONFORMER_DIVERSEORDER>
1
36
59
52
53
21
62
11
41
71
80
78
74
72
57
50
25
5
23
28
58
26
34
22
10
44
60
49
46
79
54
19
30
81
64
35
51
2
67
56
83
13
7
77
45
69
32
4
24
66
3
73
29
75
14
37
16
15
42
18
20
17
6
43
27
68
39
82
38
55
76
40
12
31
70
9
65
48
47
33
8
63
61

> <PUBCHEM_MMFF94_PARTIAL_CHARGES>
38
1 1.45
10 0.28
11 0.28
12 0.28
13 0.36
14 0.41
15 -0.14
16 -0.01
17 0.19
18 -0.15
19 -0.15
2 -0.19
20 -0.15
21 -0.15
22 -0.15
23 -0.15
24 -0.15
25 -0.15
26 -0.15
3 -0.56
34 0.36
37 0.4
38 0.42
39 0.15
4 -0.68
40 0.15
41 0.15
42 0.15
43 0.15
44 0.15
45 0.15
46 0.15
47 0.15
5 -0.65
6 -0.65
7 -0.9
8 -0.91
9 0.27

> <PUBCHEM_EFFECTIVE_ROTOR_COUNT>
8

> <PUBCHEM_PHARMACOPHORE_FEATURES>
11
1 3 acceptor
1 4 acceptor
1 4 donor
1 5 acceptor
1 6 acceptor
1 7 cation
1 7 donor
1 8 donor
5 3 9 10 11 12 rings
6 15 17 18 21 22 23 rings
6 16 19 20 24 25 26 rings

> <PUBCHEM_HEAVY_ATOM_COUNT>
26

> <PUBCHEM_ATOM_DEF_STEREO_COUNT>
3

> <PUBCHEM_ATOM_UDEF_STEREO_COUNT>
0

> <PUBCHEM_BOND_DEF_STEREO_COUNT>
0

> <PUBCHEM_BOND_UDEF_STEREO_COUNT>
0

> <PUBCHEM_ISOTOPIC_ATOM_COUNT>
0

> <PUBCHEM_COMPONENT_COUNT>
1

> <PUBCHEM_CACTVS_TAUTO_COUNT>
1

> <PUBCHEM_CONFORMER_ID>
0480993500000001

> <PUBCHEM_MMFF94_ENERGY>
45.5301

> <PUBCHEM_FEATURE_SELFOVERLAP>
55.84

> <PUBCHEM_SHAPE_FINGERPRINT>
10 15 16008751324784073949
10319926 262 14273464691055346069
10554248 39 18059005090799630863
10638233 991 18409730638638074569
10906281 52 17916882248469907923
11386260 185 18271816701002501636
11408170 132 14548471159308003097
11991303 11 16486684866245807253
125118 31 18333449820374893421
13533116 47 17749385906806229202
13668630 136 12967120623964218437
13878862 14 18334005095543250388
14251757 52 18411133636844607641
14347332 77 10879726359309802762
15183329 4 17775569740733351225
15348495 7 15430330169250510733
155225 6 17752495519142904676
15840311 113 18261114045831779557
1979834 28 15068616076808387434
20157964 124 18410856560109580298
20281389 69 18260265227118552277
21150785 3 16774077401319863089
21298829 104 18337673130679477372
21344244 181 12103846773691001229
21521239 73 12391511979575328189
21641784 216 16630537197611500969
21792934 111 15792277229535291727
23081809 10 17632581517985369483
249057 25 17916873408841592290
2748736 6 18334855047621733289
2838139 119 18412544297446824545
328310 630 18342745109283093057
33382 64 9367349223510549806
3472631 163 18059295474018398412
394071 54 17603870035331741396
397830 11 17604443997491392035
44555599 121 18341054021412734097
465052 167 8214152850140633648
5104073 3 17676769868013832810
6328613 192 18411981373479263993
6898599 12 18199468955236261015

> <PUBCHEM_SHAPE_MULTIPOLES>
498.2
22.85
2.57
1.45
18.75
1.31
0.12
13.93
1.46
-4.35
-0.01
-0.22
0
-1.08

> <PUBCHEM_SHAPE_SELFOVERLAP>
1040.701

> <PUBCHEM_SHAPE_VOLUME>
284.3

> <PUBCHEM_COORDINATE_TYPE>
2
5
10

$$$$
