26744542
  -OEChem-12032416313D

 43 46  0     1  0  0  0  0  0999 V2000
    0.6638   -1.0704   -1.8808 O   0  0  0  0  0  0  0  0  0  0  0  0
    5.7971    0.2953    0.7084 O   0  0  0  0  0  0  0  0  0  0  0  0
   -4.5129    0.7652    1.3636 O   0  0  0  0  0  0  0  0  0  0  0  0
   -4.8759    1.1382   -0.8491 O   0  0  0  0  0  0  0  0  0  0  0  0
    2.3339    1.0921    0.3315 N   0  0  1  0  0  0  0  0  0  0  0  0
    0.8949   -1.7007    0.2560 N   0  0  0  0  0  0  0  0  0  0  0  0
   -0.3341   -2.0247   -1.6461 N   0  0  0  0  0  0  0  0  0  0  0  0
   -1.0027   -3.3814    0.3568 C   0  0  0  0  0  0  0  0  0  0  0  0
    2.4897    0.0480   -0.7016 C   0  0  1  0  0  0  0  0  0  0  0  0
   -2.4900   -3.1840    0.3765 C   0  0  0  0  0  0  0  0  0  0  0  0
   -1.6896   -2.9815    1.6296 C   0  0  0  0  0  0  0  0  0  0  0  0
    3.8438   -0.6159   -0.3893 C   0  0  0  0  0  0  0  0  0  0  0  0
    4.3934    0.1524    0.8061 C   0  0  2  0  0  0  0  0  0  0  0  0
    3.6841    1.4908    0.7242 C   0  0  0  0  0  0  0  0  0  0  0  0
   -0.1332   -2.3482   -0.3652 C   0  0  0  0  0  0  0  0  0  0  0  0
    1.3417   -0.9392   -0.7105 C   0  0  0  0  0  0  0  0  0  0  0  0
    1.5350    2.2263   -0.1141 C   0  0  0  0  0  0  0  0  0  0  0  0
    0.0598    1.9306   -0.0551 C   0  0  0  0  0  0  0  0  0  0  0  0
   -0.7144    2.0135   -1.2125 C   0  0  0  0  0  0  0  0  0  0  0  0
   -0.5326    1.5741    1.1564 C   0  0  0  0  0  0  0  0  0  0  0  0
   -2.0810    1.7397   -1.1582 C   0  0  0  0  0  0  0  0  0  0  0  0
   -1.8992    1.3003    1.2104 C   0  0  0  0  0  0  0  0  0  0  0  0
   -2.6734    1.3830    0.0532 C   0  0  0  0  0  0  0  0  0  0  0  0
   -4.0981    1.0964    0.1100 C   0  0  0  0  0  0  0  0  0  0  0  0
   -0.6412   -4.4018    0.2931 H   0  0  0  0  0  0  0  0  0  0  0  0
    2.5730    0.5000   -1.7002 H   0  0  0  0  0  0  0  0  0  0  0  0
   -3.1166   -4.0657    0.3160 H   0  0  0  0  0  0  0  0  0  0  0  0
   -2.9140   -2.3043   -0.0926 H   0  0  0  0  0  0  0  0  0  0  0  0
   -1.5753   -1.9677    1.9935 H   0  0  0  0  0  0  0  0  0  0  0  0
   -1.7790   -3.7271    2.4104 H   0  0  0  0  0  0  0  0  0  0  0  0
    3.7636   -1.6827   -0.1511 H   0  0  0  0  0  0  0  0  0  0  0  0
    4.5165   -0.5279   -1.2518 H   0  0  0  0  0  0  0  0  0  0  0  0
    4.1481   -0.3613    1.7436 H   0  0  0  0  0  0  0  0  0  0  0  0
    3.6999    2.0084    1.6890 H   0  0  0  0  0  0  0  0  0  0  0  0
    4.1636    2.1423   -0.0185 H   0  0  0  0  0  0  0  0  0  0  0  0
    1.8378    2.5699   -1.1120 H   0  0  0  0  0  0  0  0  0  0  0  0
    1.6991    3.0834    0.5541 H   0  0  0  0  0  0  0  0  0  0  0  0
    6.1810   -0.5980    0.6905 H   0  0  0  0  0  0  0  0  0  0  0  0
   -0.2658    2.2879   -2.1634 H   0  0  0  0  0  0  0  0  0  0  0  0
    0.0571    1.5097    2.0670 H   0  0  0  0  0  0  0  0  0  0  0  0
   -2.6666    1.8085   -2.0712 H   0  0  0  0  0  0  0  0  0  0  0  0
   -2.3192    1.0259    2.1739 H   0  0  0  0  0  0  0  0  0  0  0  0
   -5.4746    0.5732    1.3910 H   0  0  0  0  0  0  0  0  0  0  0  0
  1  7  1  0  0  0  0
  1 16  1  0  0  0  0
  2 13  1  0  0  0  0
  2 38  1  0  0  0  0
  3 24  1  0  0  0  0
  3 43  1  0  0  0  0
  4 24  2  0  0  0  0
  5  9  1  0  0  0  0
  5 14  1  0  0  0  0
  5 17  1  0  0  0  0
  6 15  1  0  0  0  0
  6 16  2  0  0  0  0
  7 15  2  0  0  0  0
  8 10  1  0  0  0  0
  8 11  1  0  0  0  0
  8 15  1  0  0  0  0
  8 25  1  0  0  0  0
  9 12  1  0  0  0  0
  9 16  1  0  0  0  0
  9 26  1  0  0  0  0
 10 11  1  0  0  0  0
 10 27  1  0  0  0  0
 10 28  1  0  0  0  0
 11 29  1  0  0  0  0
 11 30  1  0  0  0  0
 12 13  1  0  0  0  0
 12 31  1  0  0  0  0
 12 32  1  0  0  0  0
 13 14  1  0  0  0  0
 13 33  1  0  0  0  0
 14 34  1  0  0  0  0
 14 35  1  0  0  0  0
 17 18  1  0  0  0  0
 17 36  1  0  0  0  0
 17 37  1  0  0  0  0
 18 19  2  0  0  0  0
 18 20  1  0  0  0  0
 19 21  1  0  0  0  0
 19 39  1  0  0  0  0
 20 22  2  0  0  0  0
 20 40  1  0  0  0  0
 21 23  2  0  0  0  0
 21 41  1  0  0  0  0
 22 23  1  0  0  0  0
 22 42  1  0  0  0  0
 23 24  1  0  0  0  0
M  END
> <PUBCHEM_COMPOUND_CID>
26744542

> <PUBCHEM_CONFORMER_RMSD>
0.8

> <PUBCHEM_CONFORMER_DIVERSEORDER>
1
16
39
49
44
64
31
55
62
58
22
54
51
24
5
12
42
63
61
60
34
52
36
45
27
7
66
38
35
41
40
3
18
33
32
69
15
48
56
13
47
30
19
17
65
46
29
2
68
20
26
43
59
21
23
6
8
57
25
50
14
37
9
67
11
10
4
53
28

> <PUBCHEM_MMFF94_PARTIAL_CHARGES>
34
1 -0.02
10 -0.2
11 -0.2
13 0.28
14 0.27
15 0.43
16 0.3
17 0.41
18 -0.14
19 -0.15
2 -0.68
20 -0.15
21 -0.15
22 -0.15
23 0.09
24 0.63
25 0.1
27 0.1
28 0.1
29 0.1
3 -0.65
30 0.1
38 0.4
39 0.15
4 -0.57
40 0.15
41 0.15
42 0.15
43 0.5
5 -0.81
6 -0.57
7 -0.41
8 -0.01
9 0.45

> <PUBCHEM_EFFECTIVE_ROTOR_COUNT>
6.6

> <PUBCHEM_PHARMACOPHORE_FEATURES>
10
1 2 acceptor
1 2 donor
1 3 acceptor
1 4 acceptor
1 5 cation
3 3 4 24 anion
3 6 7 15 cation
5 1 6 7 15 16 rings
5 5 9 12 13 14 rings
6 18 19 20 21 22 23 rings

> <PUBCHEM_HEAVY_ATOM_COUNT>
24

> <PUBCHEM_ATOM_DEF_STEREO_COUNT>
2

> <PUBCHEM_ATOM_UDEF_STEREO_COUNT>
0

> <PUBCHEM_BOND_DEF_STEREO_COUNT>
0

> <PUBCHEM_BOND_UDEF_STEREO_COUNT>
0

> <PUBCHEM_ISOTOPIC_ATOM_COUNT>
0

> <PUBCHEM_COMPONENT_COUNT>
1

> <PUBCHEM_CACTVS_TAUTO_COUNT>
1

> <PUBCHEM_CONFORMER_ID>
019816DE00000001

> <PUBCHEM_MMFF94_ENERGY>
49.6959

> <PUBCHEM_FEATURE_SELFOVERLAP>
50.803

> <PUBCHEM_SHAPE_FINGERPRINT>
104564 63 17836095837091629197
10688039 33 17756145940569698947
108634 29 18341057392788014039
1100329 8 18410854403782907160
11370993 70 18411699851115650753
12011746 2 18338521841801691908
12035758 1 18409740577208183521
12422481 6 18122938522865234835
12633257 1 18410302431728822081
13052359 8 18334575771652480075
13140716 1 18339919437335167784
14178342 30 17838619959597413512
14787075 74 17989479723648773025
14866123 147 18262224548445266930
15295992 7 17489293231641889264
16728300 4 17026818664637015922
17357779 13 18054779848013289039
17492 54 18336809932557499551
20567600 347 18042405738433431883
21041028 32 17833830847407322351
21197605 99 18198350748554841767
21304304 249 18335139752313454818
21421861 104 17690287014910471921
22182313 1 17916327046468709686
229495 10 16517065364505818978
23419403 2 17128217959270753886
24893992 56 17897993880568488847
3052486 1 18188219804501184390
4340502 62 18343028761829341225
5283268 108 17831597722385792411
6438718 38 18201714110819785894

> <PUBCHEM_SHAPE_MULTIPOLES>
455.49
7.89
3.8
1.4
4.03
3.36
0.14
-2.75
-2.06
-2.97
-0.32
-0.4
0.17
0.85

> <PUBCHEM_SHAPE_SELFOVERLAP>
979.81

> <PUBCHEM_SHAPE_VOLUME>
251.1

> <PUBCHEM_COORDINATE_TYPE>
2
5
10

$$$$
