75537036
  -OEChem-12032416313D

 38 40  0     1  0  0  0  0  0999 V2000
    5.5676    0.0750    0.0054 O   0  0  0  0  0  0  0  0  0  0  0  0
   -4.3463    1.6726   -0.6565 O   0  0  0  0  0  0  0  0  0  0  0  0
    3.2356   -0.1449    0.2300 N   0  0  0  0  0  0  0  0  0  0  0  0
    0.6217   -1.0617   -0.2532 N   0  0  2  0  0  0  0  0  0  0  0  0
    4.1283    1.9163    0.2187 N   0  0  0  0  0  0  0  0  0  0  0  0
    2.1207    0.7372    0.5037 C   0  0  2  0  0  0  0  0  0  0  0  0
    0.9288    0.3773   -0.3824 C   0  0  0  0  0  0  0  0  0  0  0  0
    3.0145   -1.5752    0.1853 C   0  0  0  0  0  0  0  0  0  0  0  0
    2.6994    2.1300    0.2685 C   0  0  0  0  0  0  0  0  0  0  0  0
    1.7774   -1.8863   -0.6611 C   0  0  0  0  0  0  0  0  0  0  0  0
    4.4472    0.5475    0.1385 C   0  0  0  0  0  0  0  0  0  0  0  0
   -0.5553   -1.4048   -1.0512 C   0  0  0  0  0  0  0  0  0  0  0  0
   -1.8323   -0.9710   -0.3820 C   0  0  0  0  0  0  0  0  0  0  0  0
   -2.5065    0.1630   -0.8350 C   0  0  0  0  0  0  0  0  0  0  0  0
   -2.3408   -1.7025    0.6915 C   0  0  0  0  0  0  0  0  0  0  0  0
   -3.6894    0.5654   -0.2147 C   0  0  0  0  0  0  0  0  0  0  0  0
   -3.5235   -1.2999    1.3119 C   0  0  0  0  0  0  0  0  0  0  0  0
   -4.1980   -0.1661    0.8587 C   0  0  0  0  0  0  0  0  0  0  0  0
   -5.5491    2.0283    0.0239 C   0  0  0  0  0  0  0  0  0  0  0  0
    1.8634    0.6105    1.5636 H   0  0  0  0  0  0  0  0  0  0  0  0
    0.0822    0.9956   -0.0653 H   0  0  0  0  0  0  0  0  0  0  0  0
    1.1450    0.6252   -1.4306 H   0  0  0  0  0  0  0  0  0  0  0  0
    2.8704   -1.9145    1.2175 H   0  0  0  0  0  0  0  0  0  0  0  0
    3.9044   -2.0716   -0.2142 H   0  0  0  0  0  0  0  0  0  0  0  0
    2.4623    2.8260    1.0777 H   0  0  0  0  0  0  0  0  0  0  0  0
    2.3932    2.5672   -0.6868 H   0  0  0  0  0  0  0  0  0  0  0  0
    2.0081   -1.7125   -1.7207 H   0  0  0  0  0  0  0  0  0  0  0  0
    1.5436   -2.9513   -0.5451 H   0  0  0  0  0  0  0  0  0  0  0  0
    4.8166    2.6601    0.1619 H   0  0  0  0  0  0  0  0  0  0  0  0
   -0.4878   -1.0021   -2.0711 H   0  0  0  0  0  0  0  0  0  0  0  0
   -0.6255   -2.4945   -1.1778 H   0  0  0  0  0  0  0  0  0  0  0  0
   -2.1163    0.7385   -1.6708 H   0  0  0  0  0  0  0  0  0  0  0  0
   -1.8245   -2.5876    1.0539 H   0  0  0  0  0  0  0  0  0  0  0  0
   -3.9184   -1.8701    2.1478 H   0  0  0  0  0  0  0  0  0  0  0  0
   -5.1105    0.0901    1.3859 H   0  0  0  0  0  0  0  0  0  0  0  0
   -5.9380    2.9313   -0.4580 H   0  0  0  0  0  0  0  0  0  0  0  0
   -5.3584    2.2822    1.0721 H   0  0  0  0  0  0  0  0  0  0  0  0
   -6.3159    1.2535   -0.0828 H   0  0  0  0  0  0  0  0  0  0  0  0
  1 11  2  0  0  0  0
  2 16  1  0  0  0  0
  2 19  1  0  0  0  0
  3  6  1  0  0  0  0
  3  8  1  0  0  0  0
  3 11  1  0  0  0  0
  4  7  1  0  0  0  0
  4 10  1  0  0  0  0
  4 12  1  0  0  0  0
  5  9  1  0  0  0  0
  5 11  1  0  0  0  0
  5 29  1  0  0  0  0
  6  7  1  0  0  0  0
  6  9  1  0  0  0  0
  6 20  1  0  0  0  0
  7 21  1  0  0  0  0
  7 22  1  0  0  0  0
  8 10  1  0  0  0  0
  8 23  1  0  0  0  0
  8 24  1  0  0  0  0
  9 25  1  0  0  0  0
  9 26  1  0  0  0  0
 10 27  1  0  0  0  0
 10 28  1  0  0  0  0
 12 13  1  0  0  0  0
 12 30  1  0  0  0  0
 12 31  1  0  0  0  0
 13 14  2  0  0  0  0
 13 15  1  0  0  0  0
 14 16  1  0  0  0  0
 14 32  1  0  0  0  0
 15 17  2  0  0  0  0
 15 33  1  0  0  0  0
 16 18  2  0  0  0  0
 17 18  1  0  0  0  0
 17 34  1  0  0  0  0
 18 35  1  0  0  0  0
 19 36  1  0  0  0  0
 19 37  1  0  0  0  0
 19 38  1  0  0  0  0
M  END
> <PUBCHEM_COMPOUND_CID>
75537036

> <PUBCHEM_CONFORMER_RMSD>
0.6

> <PUBCHEM_CONFORMER_DIVERSEORDER>
1
62
4
47
12
57
61
32
63
14
11
45
42
49
23
53
51
65
19
48
34
43
33
59
22
17
36
20
18
44
52
58
31
29
50
56
24
54
15
27
40
60
25
64
26
7
16
37
39
46
55
10
35
5
2
38
3
21
28
13
9
41
6
30
8

> <PUBCHEM_MMFF94_PARTIAL_CHARGES>
24
1 -0.57
10 0.27
11 0.69
12 0.41
13 -0.14
14 -0.15
15 -0.15
16 0.08
17 -0.15
18 -0.15
19 0.28
2 -0.36
29 0.37
3 -0.66
32 0.15
33 0.15
34 0.15
35 0.15
4 -0.81
5 -0.73
6 0.3
7 0.27
8 0.3
9 0.3

> <PUBCHEM_EFFECTIVE_ROTOR_COUNT>
4.2

> <PUBCHEM_PHARMACOPHORE_FEATURES>
7
1 1 acceptor
1 2 acceptor
1 4 cation
1 5 donor
5 3 5 6 9 11 rings
6 13 14 15 16 17 18 rings
6 3 4 6 7 8 10 rings

> <PUBCHEM_HEAVY_ATOM_COUNT>
19

> <PUBCHEM_ATOM_DEF_STEREO_COUNT>
1

> <PUBCHEM_ATOM_UDEF_STEREO_COUNT>
0

> <PUBCHEM_BOND_DEF_STEREO_COUNT>
0

> <PUBCHEM_BOND_UDEF_STEREO_COUNT>
0

> <PUBCHEM_ISOTOPIC_ATOM_COUNT>
0

> <PUBCHEM_COMPONENT_COUNT>
1

> <PUBCHEM_CACTVS_TAUTO_COUNT>
2

> <PUBCHEM_CONFORMER_ID>
04809A8C00000001

> <PUBCHEM_MMFF94_ENERGY>
55.1198

> <PUBCHEM_FEATURE_SELFOVERLAP>
35.617

> <PUBCHEM_SHAPE_FINGERPRINT>
10608611 8 18409448085608644447
11089746 13 17346872356345096632
11370993 144 18187363194896468219
11552529 35 17315640857011909130
122479 349 18410291402621869407
12403259 118 18337381759775687736
12507560 40 18408047307853178831
12596602 18 15140976049318585613
12633257 1 18041543780898151960
13402501 40 18337668625285151133
13583140 156 18409732884927374867
13675066 3 18341332305307377514
14123255 352 18412544310368493709
14178342 30 17458634440596721379
14251764 38 18199470957218697273
14252887 29 13840258174689314522
14341114 176 18260554406797126112
14790565 3 18047476913858356700
15196674 1 18411980277719109141
15219456 202 18409169908977192335
15375358 24 18409729547610886327
1601671 61 18410575089675640076
17834072 32 18413669114979463701
18186145 218 17845661489906693856
193927 3 12252169741590192384
19784866 170 18333452031981883366
19784866 9 18411416211638771466
20157964 124 18270678663401593807
20645477 56 18260268525848529949
20645477 70 18130505228136928142
20871999 31 12103847835291214267
21033648 29 18343012324235106281
21065198 57 18334859419840424971
21065199 12 18261116291883787115
21421861 104 17605261896914617586
21503847 285 18114742732958065916
22646028 28 11530473437168793859
231179 274 18272655657827166590
23402539 116 14764355937525177610
23402655 69 18060413586737894709
23559900 14 18339360747588546266
27216 239 18336828692964007619
2838139 119 18342449310527419461
335352 9 18341328921179168734
351380 180 18339357475192205597
3545911 37 18410858758942620017
4214541 1 18335701658790146985
4259306 186 8790593793944202465
474 4 18271805666882974591
5104073 3 18260545619288796939
602551 16 16588029064717428730
633830 44 18335695096459985478
8272917 22 18200876171411609614
90127 26 18337396036336552936

> <PUBCHEM_SHAPE_MULTIPOLES>
364.33
11.39
2.24
0.95
0.42
0.44
-0.05
5.84
-1.46
0.27
-0.01
0.69
-0.25
0.99

> <PUBCHEM_SHAPE_SELFOVERLAP>
771.529

> <PUBCHEM_SHAPE_VOLUME>
205.2

> <PUBCHEM_COORDINATE_TYPE>
2
5
10

$$$$
