25389266
  -OEChem-12032416283D

 64 68  0     1  0  0  0  0  0999 V2000
    4.4877    1.3244   -0.3985 S   0  0  0  0  0  0  0  0  0  0  0  0
    4.7942    1.4433   -1.8113 O   0  0  0  0  0  0  0  0  0  0  0  0
    5.4629    1.7291    0.5959 O   0  0  0  0  0  0  0  0  0  0  0  0
    1.6125   -2.9981   -1.2266 N   0  0  2  0  0  0  0  0  0  0  0  0
   -2.0584   -1.1970    0.4317 N   0  0  1  0  0  0  0  0  0  0  0  0
    3.9659   -0.2745   -0.0754 N   0  0  0  0  0  0  0  0  0  0  0  0
    1.0260   -3.3374    1.2848 C   0  0  2  0  0  0  0  0  0  0  0  0
   -0.1947   -2.8048    0.5002 C   0  0  2  0  0  0  0  0  0  0  0  0
    2.6119   -2.3023   -0.3716 C   0  0  2  0  0  0  0  0  0  0  0  0
    2.2050   -2.3612    1.1176 C   0  0  0  0  0  0  0  0  0  0  0  0
    0.2494   -2.4865   -0.9452 C   0  0  0  0  0  0  0  0  0  0  0  0
    1.4373   -4.6670    0.6240 C   0  0  0  0  0  0  0  0  0  0  0  0
    1.6444   -4.4409   -0.8842 C   0  0  0  0  0  0  0  0  0  0  0  0
   -0.8584   -1.6002    1.1636 C   0  0  0  0  0  0  0  0  0  0  0  0
    2.8755   -0.8668   -0.8324 C   0  0  0  0  0  0  0  0  0  0  0  0
   -3.1736   -2.1081    0.7168 C   0  0  0  0  0  0  0  0  0  0  0  0
   -2.4300    0.1865    0.7778 C   0  0  0  0  0  0  0  0  0  0  0  0
   -4.3512   -1.7963   -0.2125 C   0  0  0  0  0  0  0  0  0  0  0  0
   -3.7407    0.6248    0.1654 C   0  0  0  0  0  0  0  0  0  0  0  0
   -4.6795   -0.3270   -0.2680 C   0  0  0  0  0  0  0  0  0  0  0  0
   -4.0528    1.9887    0.0855 C   0  0  0  0  0  0  0  0  0  0  0  0
   -5.8995    0.0991   -0.8088 C   0  0  0  0  0  0  0  0  0  0  0  0
    3.0137    2.2470   -0.0813 C   0  0  0  0  0  0  0  0  0  0  0  0
   -5.2741    2.4029   -0.4455 C   0  0  0  0  0  0  0  0  0  0  0  0
   -6.1953    1.4593   -0.8942 C   0  0  0  0  0  0  0  0  0  0  0  0
    2.7604    2.7373    1.1998 C   0  0  0  0  0  0  0  0  0  0  0  0
    2.1025    2.4822   -1.1110 C   0  0  0  0  0  0  0  0  0  0  0  0
    1.5961    3.4629    1.4511 C   0  0  0  0  0  0  0  0  0  0  0  0
    0.9381    3.2078   -0.8595 C   0  0  0  0  0  0  0  0  0  0  0  0
    0.6849    3.6983    0.4215 C   0  0  0  0  0  0  0  0  0  0  0  0
   -0.5601    4.4743    0.6903 C   0  0  0  0  0  0  0  0  0  0  0  0
    0.7895   -3.4895    2.3432 H   0  0  0  0  0  0  0  0  0  0  0  0
   -0.9099   -3.6355    0.4596 H   0  0  0  0  0  0  0  0  0  0  0  0
    3.5681   -2.8357   -0.4803 H   0  0  0  0  0  0  0  0  0  0  0  0
    1.9366   -1.3762    1.5134 H   0  0  0  0  0  0  0  0  0  0  0  0
    3.0567   -2.7160    1.7119 H   0  0  0  0  0  0  0  0  0  0  0  0
   -0.4557   -2.9501   -1.6481 H   0  0  0  0  0  0  0  0  0  0  0  0
    0.1988   -1.4156   -1.1703 H   0  0  0  0  0  0  0  0  0  0  0  0
    0.6654   -5.4289    0.7839 H   0  0  0  0  0  0  0  0  0  0  0  0
    2.3620   -5.0411    1.0798 H   0  0  0  0  0  0  0  0  0  0  0  0
    2.5996   -4.8790   -1.1994 H   0  0  0  0  0  0  0  0  0  0  0  0
    0.8749   -4.9750   -1.4559 H   0  0  0  0  0  0  0  0  0  0  0  0
   -0.1446   -0.7673    1.1690 H   0  0  0  0  0  0  0  0  0  0  0  0
   -1.0882   -1.8155    2.2154 H   0  0  0  0  0  0  0  0  0  0  0  0
    1.9737   -0.2671   -0.6878 H   0  0  0  0  0  0  0  0  0  0  0  0
    3.1286   -0.8555   -1.8984 H   0  0  0  0  0  0  0  0  0  0  0  0
   -3.4895   -2.0171    1.7653 H   0  0  0  0  0  0  0  0  0  0  0  0
   -2.9104   -3.1576    0.5553 H   0  0  0  0  0  0  0  0  0  0  0  0
   -1.6412    0.8589    0.4174 H   0  0  0  0  0  0  0  0  0  0  0  0
   -2.5088    0.3068    1.8667 H   0  0  0  0  0  0  0  0  0  0  0  0
    4.0917   -0.6076    0.8882 H   0  0  0  0  0  0  0  0  0  0  0  0
   -5.2283   -2.3595    0.1280 H   0  0  0  0  0  0  0  0  0  0  0  0
   -4.1121   -2.1307   -1.2302 H   0  0  0  0  0  0  0  0  0  0  0  0
   -3.3454    2.7350    0.4375 H   0  0  0  0  0  0  0  0  0  0  0  0
   -6.6249   -0.6273   -1.1663 H   0  0  0  0  0  0  0  0  0  0  0  0
   -5.5071    3.4619   -0.5084 H   0  0  0  0  0  0  0  0  0  0  0  0
   -7.1447    1.7828   -1.3110 H   0  0  0  0  0  0  0  0  0  0  0  0
    3.4522    2.5589    2.0181 H   0  0  0  0  0  0  0  0  0  0  0  0
    2.2775    2.1049   -2.1145 H   0  0  0  0  0  0  0  0  0  0  0  0
    1.4070    3.8396    2.4529 H   0  0  0  0  0  0  0  0  0  0  0  0
    0.2368    3.3820   -1.6712 H   0  0  0  0  0  0  0  0  0  0  0  0
   -0.3147    5.5200    0.9021 H   0  0  0  0  0  0  0  0  0  0  0  0
   -1.2450    4.4542   -0.1640 H   0  0  0  0  0  0  0  0  0  0  0  0
   -1.0950    4.0521    1.5477 H   0  0  0  0  0  0  0  0  0  0  0  0
  1  2  2  0  0  0  0
  1  3  2  0  0  0  0
  1  6  1  0  0  0  0
  1 23  1  0  0  0  0
  4  9  1  0  0  0  0
  4 11  1  0  0  0  0
  4 13  1  0  0  0  0
  5 14  1  0  0  0  0
  5 16  1  0  0  0  0
  5 17  1  0  0  0  0
  6 15  1  0  0  0  0
  6 51  1  0  0  0  0
  7  8  1  0  0  0  0
  7 10  1  0  0  0  0
  7 12  1  0  0  0  0
  7 32  1  0  0  0  0
  8 11  1  0  0  0  0
  8 14  1  0  0  0  0
  8 33  1  0  0  0  0
  9 10  1  0  0  0  0
  9 15  1  0  0  0  0
  9 34  1  0  0  0  0
 10 35  1  0  0  0  0
 10 36  1  0  0  0  0
 11 37  1  0  0  0  0
 11 38  1  0  0  0  0
 12 13  1  0  0  0  0
 12 39  1  0  0  0  0
 12 40  1  0  0  0  0
 13 41  1  0  0  0  0
 13 42  1  0  0  0  0
 14 43  1  0  0  0  0
 14 44  1  0  0  0  0
 15 45  1  0  0  0  0
 15 46  1  0  0  0  0
 16 18  1  0  0  0  0
 16 47  1  0  0  0  0
 16 48  1  0  0  0  0
 17 19  1  0  0  0  0
 17 49  1  0  0  0  0
 17 50  1  0  0  0  0
 18 20  1  0  0  0  0
 18 52  1  0  0  0  0
 18 53  1  0  0  0  0
 19 20  1  0  0  0  0
 19 21  2  0  0  0  0
 20 22  2  0  0  0  0
 21 24  1  0  0  0  0
 21 54  1  0  0  0  0
 22 25  1  0  0  0  0
 22 55  1  0  0  0  0
 23 26  2  0  0  0  0
 23 27  1  0  0  0  0
 24 25  2  0  0  0  0
 24 56  1  0  0  0  0
 25 57  1  0  0  0  0
 26 28  1  0  0  0  0
 26 58  1  0  0  0  0
 27 29  2  0  0  0  0
 27 59  1  0  0  0  0
 28 30  2  0  0  0  0
 28 60  1  0  0  0  0
 29 30  1  0  0  0  0
 29 61  1  0  0  0  0
 30 31  1  0  0  0  0
 31 62  1  0  0  0  0
 31 63  1  0  0  0  0
 31 64  1  0  0  0  0
M  END
> <PUBCHEM_COMPOUND_CID>
25389266

> <PUBCHEM_CONFORMER_RMSD>
1

> <PUBCHEM_CONFORMER_DIVERSEORDER>
1
21
91
101
139
154
109
98
96
129
130
148
163
51
132
118
93
124
74
167
39
117
121
184
61
137
115
71
13
152
166
162
103
141
97
82
183
174
3
64
17
175
69
144
165
50
187
46
160
12
106
180
43
59
150
176
158
52
119
22
45
89
73
140
169
90
193
181
104
5
92
182
138
151
41
164
72
149
142
80
32
18
120
147
29
156
79
159
131
67
107
86
38
172
24
68
194
191
85
116
15
34
75
145
7
113
195
108
170
196
62
65
37
63
60
36
33
83
125
112
4
161
135
185
128
16
88
8
19
192
105
188
133
66
189
20
100
95
40
186
146
49
76
54
35
23
2
99
78
114
56
77
178
87
42
47
94
81
55
11
123
58
27
168
44
9
6
157
102
126
179
28
14
173
48
110
31
30
84
122
177
53
155
10
111
70
57
153
190
134
26
171
136
143
127
25

> <PUBCHEM_MMFF94_PARTIAL_CHARGES>
36
1 1.45
11 0.27
13 0.27
14 0.27
15 0.36
16 0.27
17 0.41
18 0.14
19 -0.14
2 -0.65
20 -0.14
21 -0.15
22 -0.15
23 -0.01
24 -0.15
25 -0.15
26 -0.15
27 -0.15
28 -0.15
29 -0.15
3 -0.65
30 -0.14
31 0.14
4 -0.81
5 -0.81
51 0.42
54 0.15
55 0.15
56 0.15
57 0.15
58 0.15
59 0.15
6 -0.91
60 0.15
61 0.15
9 0.27

> <PUBCHEM_EFFECTIVE_ROTOR_COUNT>
8

> <PUBCHEM_PHARMACOPHORE_FEATURES>
9
1 2 acceptor
1 3 acceptor
1 4 cation
1 5 cation
1 6 donor
6 19 20 21 22 24 25 rings
6 23 26 27 28 29 30 rings
6 5 16 17 18 19 20 rings
8 4 7 8 9 10 11 12 13 rings

> <PUBCHEM_HEAVY_ATOM_COUNT>
31

> <PUBCHEM_ATOM_DEF_STEREO_COUNT>
3

> <PUBCHEM_ATOM_UDEF_STEREO_COUNT>
0

> <PUBCHEM_BOND_DEF_STEREO_COUNT>
0

> <PUBCHEM_BOND_UDEF_STEREO_COUNT>
0

> <PUBCHEM_ISOTOPIC_ATOM_COUNT>
0

> <PUBCHEM_COMPONENT_COUNT>
1

> <PUBCHEM_CACTVS_TAUTO_COUNT>
1

> <PUBCHEM_CONFORMER_ID>
018368D200000001

> <PUBCHEM_MMFF94_ENERGY>
68.8767

> <PUBCHEM_FEATURE_SELFOVERLAP>
45.711

> <PUBCHEM_SHAPE_FINGERPRINT>
10439779 11 18337942506584836416
10675989 125 18410016502913859752
1100329 8 17330557549119649825
11513181 2 17768819666961831565
12769317 202 18408882923472960503
12788726 201 17617669756484610047
12925494 130 18410291420287334265
13122387 1 18194690271690942640
13402501 40 18408885156871986636
14150022 121 17398927411961689930
14466204 15 18410009978905379784
14705955 166 16953671763692340058
14725015 67 17904761424926058506
15082195 135 18269253743651145647
15320467 1 18410855434612143745
15328829 1 17417550059649112529
15351339 4 18265888069739125233
17093844 170 18409729552212309080
17627616 140 18265054639560916545
18681886 176 18198334061810987515
20567600 299 18413666907292342529
20764821 26 18337396036067995309
21133410 38 18058460798453382929
21304303 172 17472695828406113002
21860390 5 18340486660243056711
21968339 14 18338219484578145111
23559900 14 18197214742099763479
25265897 201 17844277123194997711
3298306 158 18339079401571162957
45266715 3 17912331490033756909
508706 21 18261958573624952389
5265222 85 18117011067937483780
532947 4 18411138026480317769
550186 83 17604692474071681264
59755656 215 18408880750784290629
9981440 41 18261395606455421331

> <PUBCHEM_SHAPE_MULTIPOLES>
615.13
11.27
6.94
1.29
13.12
1.14
-0.02
-5.8
-3.2
-5.04
1.01
-0.74
-0.04
0.53

> <PUBCHEM_SHAPE_SELFOVERLAP>
1306.666

> <PUBCHEM_SHAPE_VOLUME>
344.8

> <PUBCHEM_COORDINATE_TYPE>
2
5
10

$$$$
