11913373
  -OEChem-12032416383D

 52 55  0     1  0  0  0  0  0999 V2000
   -5.3440   -1.9830    0.9000 S   0  0  0  0  0  0  0  0  0  0  0  0
    3.8201   -1.0425    3.7268 F   0  0  0  0  0  0  0  0  0  0  0  0
   -0.4851    2.3025    1.2566 O   0  0  0  0  0  0  0  0  0  0  0  0
   -2.0138    3.0263   -1.3656 O   0  0  0  0  0  0  0  0  0  0  0  0
   -5.4639    1.1286    0.5022 O   0  0  0  0  0  0  0  0  0  0  0  0
   -2.6320   -4.4035   -0.4755 O   0  0  0  0  0  0  0  0  0  0  0  0
   -4.6428   -3.7806   -1.3321 O   0  0  0  0  0  0  0  0  0  0  0  0
   -3.3334    1.0704    1.4301 N   0  0  0  0  0  0  0  0  0  0  0  0
    0.4769    1.3588   -2.1365 N   0  0  0  0  0  0  0  0  0  0  0  0
    2.2800    0.4107   -1.0219 N   0  0  0  0  0  0  0  0  0  0  0  0
    1.6050   -0.3704   -3.1994 N   0  0  0  0  0  0  0  0  0  0  0  0
   -2.0606    1.8962   -0.4788 C   0  0  1  0  0  0  0  0  0  0  0  0
   -0.6438    1.6344   -0.0064 C   0  0  1  0  0  0  0  0  0  0  0  0
   -2.8103    2.2504    0.7851 C   0  0  2  0  0  0  0  0  0  0  0  0
    0.2227    2.2876   -1.0571 C   0  0  2  0  0  0  0  0  0  0  0  0
   -1.7324    2.9071    1.6290 C   0  0  0  0  0  0  0  0  0  0  0  0
   -0.6484    3.4315   -1.5430 C   0  0  0  0  0  0  0  0  0  0  0  0
   -4.6250    0.6050    1.2335 C   0  0  0  0  0  0  0  0  0  0  0  0
    1.4983    0.4256   -2.1184 C   0  0  0  0  0  0  0  0  0  0  0  0
   -4.9351   -0.6365    2.0363 C   0  0  0  0  0  0  0  0  0  0  0  0
    3.2654   -0.5108   -1.0379 C   0  0  0  0  0  0  0  0  0  0  0  0
    2.6111   -1.2680   -3.1485 C   0  0  0  0  0  0  0  0  0  0  0  0
    3.4807   -1.3851   -2.0836 C   0  0  0  0  0  0  0  0  0  0  0  0
    4.1048   -0.5307    0.1360 C   0  0  0  0  0  0  0  0  0  0  0  0
   -3.6638   -2.4568    0.4282 C   0  0  0  0  0  0  0  0  0  0  0  0
    3.5456   -0.7818    1.3890 C   0  0  0  0  0  0  0  0  0  0  0  0
    5.4752   -0.2988    0.0176 C   0  0  0  0  0  0  0  0  0  0  0  0
   -3.7218   -3.5980   -0.5461 C   0  0  0  0  0  0  0  0  0  0  0  0
    4.3569   -0.8013    2.5235 C   0  0  0  0  0  0  0  0  0  0  0  0
    6.2864   -0.3182    1.1521 C   0  0  0  0  0  0  0  0  0  0  0  0
    5.7272   -0.5694    2.4050 C   0  0  0  0  0  0  0  0  0  0  0  0
   -2.4876    1.0574   -1.0381 H   0  0  0  0  0  0  0  0  0  0  0  0
   -0.4433    0.5714    0.1620 H   0  0  0  0  0  0  0  0  0  0  0  0
   -3.6367    2.9467    0.6061 H   0  0  0  0  0  0  0  0  0  0  0  0
    1.1617    2.6951   -0.6649 H   0  0  0  0  0  0  0  0  0  0  0  0
   -1.8835    2.7933    2.7068 H   0  0  0  0  0  0  0  0  0  0  0  0
   -1.6552    3.9762    1.4026 H   0  0  0  0  0  0  0  0  0  0  0  0
   -0.4843    3.7020   -2.5907 H   0  0  0  0  0  0  0  0  0  0  0  0
   -0.4950    4.3267   -0.9302 H   0  0  0  0  0  0  0  0  0  0  0  0
   -2.6990    0.5309    2.0122 H   0  0  0  0  0  0  0  0  0  0  0  0
   -0.1471    1.3402   -2.9352 H   0  0  0  0  0  0  0  0  0  0  0  0
   -4.1170   -0.9262    2.7017 H   0  0  0  0  0  0  0  0  0  0  0  0
   -5.8073   -0.4199    2.6616 H   0  0  0  0  0  0  0  0  0  0  0  0
    2.7009   -1.9131   -4.0160 H   0  0  0  0  0  0  0  0  0  0  0  0
    4.2715   -2.1250   -2.0856 H   0  0  0  0  0  0  0  0  0  0  0  0
   -3.1383   -1.6242   -0.0473 H   0  0  0  0  0  0  0  0  0  0  0  0
   -3.1247   -2.7774    1.3246 H   0  0  0  0  0  0  0  0  0  0  0  0
    2.4800   -0.9674    1.5013 H   0  0  0  0  0  0  0  0  0  0  0  0
    5.9305   -0.0955   -0.9488 H   0  0  0  0  0  0  0  0  0  0  0  0
    7.3532   -0.1362    1.0604 H   0  0  0  0  0  0  0  0  0  0  0  0
    6.3585   -0.5842    3.2885 H   0  0  0  0  0  0  0  0  0  0  0  0
   -2.6790   -5.1403   -1.1215 H   0  0  0  0  0  0  0  0  0  0  0  0
  1 20  1  0  0  0  0
  1 25  1  0  0  0  0
  2 29  1  0  0  0  0
  3 13  1  0  0  0  0
  3 16  1  0  0  0  0
  4 12  1  0  0  0  0
  4 17  1  0  0  0  0
  5 18  2  0  0  0  0
  6 28  1  0  0  0  0
  6 52  1  0  0  0  0
  7 28  2  0  0  0  0
  8 14  1  0  0  0  0
  8 18  1  0  0  0  0
  8 40  1  0  0  0  0
  9 15  1  0  0  0  0
  9 19  1  0  0  0  0
  9 41  1  0  0  0  0
 10 19  1  0  0  0  0
 10 21  2  0  0  0  0
 11 19  2  0  0  0  0
 11 22  1  0  0  0  0
 12 13  1  0  0  0  0
 12 14  1  0  0  0  0
 12 32  1  0  0  0  0
 13 15  1  0  0  0  0
 13 33  1  0  0  0  0
 14 16  1  0  0  0  0
 14 34  1  0  0  0  0
 15 17  1  0  0  0  0
 15 35  1  0  0  0  0
 16 36  1  0  0  0  0
 16 37  1  0  0  0  0
 17 38  1  0  0  0  0
 17 39  1  0  0  0  0
 18 20  1  0  0  0  0
 20 42  1  0  0  0  0
 20 43  1  0  0  0  0
 21 23  1  0  0  0  0
 21 24  1  0  0  0  0
 22 23  2  0  0  0  0
 22 44  1  0  0  0  0
 23 45  1  0  0  0  0
 24 26  2  0  0  0  0
 24 27  1  0  0  0  0
 25 28  1  0  0  0  0
 25 46  1  0  0  0  0
 25 47  1  0  0  0  0
 26 29  1  0  0  0  0
 26 48  1  0  0  0  0
 27 30  2  0  0  0  0
 27 49  1  0  0  0  0
 29 31  2  0  0  0  0
 30 31  1  0  0  0  0
 30 50  1  0  0  0  0
 31 51  1  0  0  0  0
M  END
> <PUBCHEM_COMPOUND_CID>
11913373

> <PUBCHEM_CONFORMER_RMSD>
1

> <PUBCHEM_CONFORMER_DIVERSEORDER>
5
176
198
218
172
165
69
197
209
157
207
180
226
161
65
170
53
189
97
243
67
178
200
231
52
153
203
144
138
123
137
142
100
159
118
223
63
233
216
108
167
195
182
164
244
70
120
215
229
154
149
156
38
168
212
91
192
89
81
175
201
119
140
191
139
236
219
177
220
240
25
133
190
166
194
20
61
234
124
110
214
127
22
163
50
134
238
205
158
242
148
169
77
99
75
211
237
143
46
132
62
147
107
73
199
186
74
225
112
79
96
160
230
131
71
183
113
86
104
173
204
30
187
115
101
228
57
227
116
88
9
221
26
87
19
232
171
196
179
117
58
84
103
78
208
98
193
95
47
59
206
150
49
181
121
28
48
224
37
241
33
185
32
213
222
51
129
125
135
72
76
210
128
42
92
174
90
44
146
151
56
130
80
217
29
188
17
102
85
82
106
36
27
114
4
41
54
202
64
93
31
18
122
13
24
145
83
66
68
10
34
162
184
55
16
15
43
141
11
94
235
6
136
40
39
152
109
155
12
2
239
23
111
3
126
8
45
105
1
60
21
14
7
35

> <PUBCHEM_MMFF94_PARTIAL_CHARGES>
39
1 -0.46
10 -0.62
11 -0.62
12 0.28
13 0.28
14 0.3
15 0.37
16 0.28
17 0.28
18 0.57
19 0.72
2 -0.19
20 0.29
21 0.31
22 0.16
23 -0.15
25 0.29
26 -0.15
27 -0.15
28 0.66
29 0.19
3 -0.56
30 -0.15
31 -0.15
4 -0.56
40 0.37
41 0.4
44 0.15
45 0.15
48 0.15
49 0.15
5 -0.57
50 0.15
51 0.15
52 0.5
6 -0.65
7 -0.57
8 -0.73
9 -0.87

> <PUBCHEM_EFFECTIVE_ROTOR_COUNT>
10.2

> <PUBCHEM_PHARMACOPHORE_FEATURES>
14
1 10 acceptor
1 3 acceptor
1 4 acceptor
1 5 acceptor
1 6 acceptor
1 7 acceptor
1 8 donor
1 9 donor
3 6 7 28 anion
4 9 10 11 19 cation
5 3 12 13 14 16 rings
5 4 12 13 15 17 rings
6 10 11 19 21 22 23 rings
6 24 26 27 29 30 31 rings

> <PUBCHEM_HEAVY_ATOM_COUNT>
31

> <PUBCHEM_ATOM_DEF_STEREO_COUNT>
4

> <PUBCHEM_ATOM_UDEF_STEREO_COUNT>
0

> <PUBCHEM_BOND_DEF_STEREO_COUNT>
0

> <PUBCHEM_BOND_UDEF_STEREO_COUNT>
0

> <PUBCHEM_ISOTOPIC_ATOM_COUNT>
0

> <PUBCHEM_COMPONENT_COUNT>
1

> <PUBCHEM_CACTVS_TAUTO_COUNT>
6

> <PUBCHEM_CONFORMER_ID>
00B5C89D00000005

> <PUBCHEM_MMFF94_ENERGY>
81.7763

> <PUBCHEM_FEATURE_SELFOVERLAP>
71.812

> <PUBCHEM_SHAPE_FINGERPRINT>
10319688 77 17895185645110794797
10462674 125 15911054335563776759
10794284 68 17696477656733521196
11069576 57 16516264958943546898
11135609 149 16153701063860754268
11135926 11 14781276309628513516
12655364 74 16835693144516048720
12712778 12 18411983572629035643
12717326 68 17197401640520397175
13828863 39 14979953692005388769
14508693 111 18264216987382967890
1454969 45 15719692965966037470
14705955 166 16843063917800616721
15163728 17 10015593817453774833
15320294 125 18113620067183008123
19315092 285 17967257490330524416
20775530 9 17908725147913089527
208703 8 17968107438029280963
21458453 9 17559945683609363704
23398203 216 15191871493285444266
23536364 44 13479121394022870495
3383291 50 18272099305861890667
3459 110 16702014318324527295
3882209 13 17628339778615169431
463206 1 17458642128250194617
4756261 7 17196273558484779946
5085150 59 18337390419236812917

> <PUBCHEM_SHAPE_MULTIPOLES>
585.27
13.75
4.31
3.26
3.24
1.51
0.13
9.45
-8.81
-8.08
1.47
4.28
0.67
-1.5

> <PUBCHEM_SHAPE_SELFOVERLAP>
1246.804

> <PUBCHEM_SHAPE_VOLUME>
327.9

> <PUBCHEM_COORDINATE_TYPE>
2
5
10

$$$$
