75536658
  -OEChem-12032416333D

 39 40  0     1  0  0  0  0  0999 V2000
    5.6281    0.6409   -0.2176 S   0  0  0  0  0  0  0  0  0  0  0  0
    1.6905    0.4619    1.1669 O   0  0  0  0  0  0  0  0  0  0  0  0
    0.5643   -2.4502   -0.6099 O   0  0  0  0  0  0  0  0  0  0  0  0
    6.7889    0.5552    0.6467 O   0  0  0  0  0  0  0  0  0  0  0  0
    5.0933    1.9287   -0.6160 O   0  0  0  0  0  0  0  0  0  0  0  0
   -1.6595   -0.3087   -0.0226 N   0  0  0  0  0  0  0  0  0  0  0  0
    4.3558   -0.2959    0.4265 N   0  0  0  0  0  0  0  0  0  0  0  0
   -4.9275   -0.9035    0.2594 N   0  0  0  0  0  0  0  0  0  0  0  0
   -0.3805   -0.5644    0.6195 C   0  0  1  0  0  0  0  0  0  0  0  0
    0.6886   -1.0689   -0.3320 C   0  0  1  0  0  0  0  0  0  0  0  0
    1.9534   -0.7603    0.4578 C   0  0  1  0  0  0  0  0  0  0  0  0
    0.2714    0.6966    1.1629 C   0  0  0  0  0  0  0  0  0  0  0  0
    3.1820   -0.5915   -0.4182 C   0  0  0  0  0  0  0  0  0  0  0  0
   -2.7218   -0.1572    0.9646 C   0  0  0  0  0  0  0  0  0  0  0  0
   -4.0519    0.1249    0.3180 C   0  0  0  0  0  0  0  0  0  0  0  0
    5.9839   -0.2689   -1.7034 C   0  0  0  0  0  0  0  0  0  0  0  0
   -4.3116    1.3938   -0.1741 C   0  0  0  0  0  0  0  0  0  0  0  0
   -5.5496    1.6221   -0.7642 C   0  0  0  0  0  0  0  0  0  0  0  0
   -6.1205   -0.6439   -0.3213 C   0  0  0  0  0  0  0  0  0  0  0  0
   -6.4771    0.5891   -0.8430 C   0  0  0  0  0  0  0  0  0  0  0  0
   -0.5000   -1.3073    1.4209 H   0  0  0  0  0  0  0  0  0  0  0  0
    0.6674   -0.5147   -1.2786 H   0  0  0  0  0  0  0  0  0  0  0  0
    2.1444   -1.5391    1.2080 H   0  0  0  0  0  0  0  0  0  0  0  0
    0.0904    1.5681    0.5231 H   0  0  0  0  0  0  0  0  0  0  0  0
   -0.0583    0.9394    2.1775 H   0  0  0  0  0  0  0  0  0  0  0  0
    3.0187    0.2385   -1.1145 H   0  0  0  0  0  0  0  0  0  0  0  0
    3.3728   -1.5056   -0.9895 H   0  0  0  0  0  0  0  0  0  0  0  0
   -1.8877   -1.0920   -0.6355 H   0  0  0  0  0  0  0  0  0  0  0  0
   -2.4993    0.6598    1.6622 H   0  0  0  0  0  0  0  0  0  0  0  0
   -2.8129   -1.0711    1.5658 H   0  0  0  0  0  0  0  0  0  0  0  0
    0.5821   -2.9345    0.2329 H   0  0  0  0  0  0  0  0  0  0  0  0
    4.6305   -1.0812    1.0315 H   0  0  0  0  0  0  0  0  0  0  0  0
    5.1303   -0.2213   -2.3807 H   0  0  0  0  0  0  0  0  0  0  0  0
    6.2242   -1.3005   -1.4391 H   0  0  0  0  0  0  0  0  0  0  0  0
    6.8500    0.1974   -2.1792 H   0  0  0  0  0  0  0  0  0  0  0  0
   -3.5816    2.1935   -0.1070 H   0  0  0  0  0  0  0  0  0  0  0  0
   -5.7916    2.6032   -1.1617 H   0  0  0  0  0  0  0  0  0  0  0  0
   -6.8081   -1.4824   -0.3580 H   0  0  0  0  0  0  0  0  0  0  0  0
   -7.4483    0.7442   -1.2987 H   0  0  0  0  0  0  0  0  0  0  0  0
  1  4  2  0  0  0  0
  1  5  2  0  0  0  0
  1  7  1  0  0  0  0
  1 16  1  0  0  0  0
  2 11  1  0  0  0  0
  2 12  1  0  0  0  0
  3 10  1  0  0  0  0
  3 31  1  0  0  0  0
  6  9  1  0  0  0  0
  6 14  1  0  0  0  0
  6 28  1  0  0  0  0
  7 13  1  0  0  0  0
  7 32  1  0  0  0  0
  8 15  1  0  0  0  0
  8 19  2  0  0  0  0
  9 10  1  0  0  0  0
  9 12  1  0  0  0  0
  9 21  1  0  0  0  0
 10 11  1  0  0  0  0
 10 22  1  0  0  0  0
 11 13  1  0  0  0  0
 11 23  1  0  0  0  0
 12 24  1  0  0  0  0
 12 25  1  0  0  0  0
 13 26  1  0  0  0  0
 13 27  1  0  0  0  0
 14 15  1  0  0  0  0
 14 29  1  0  0  0  0
 14 30  1  0  0  0  0
 15 17  2  0  0  0  0
 16 33  1  0  0  0  0
 16 34  1  0  0  0  0
 16 35  1  0  0  0  0
 17 18  1  0  0  0  0
 17 36  1  0  0  0  0
 18 20  2  0  0  0  0
 18 37  1  0  0  0  0
 19 20  1  0  0  0  0
 19 38  1  0  0  0  0
 20 39  1  0  0  0  0
M  END
> <PUBCHEM_COMPOUND_CID>
75536658

> <PUBCHEM_CONFORMER_RMSD>
1

> <PUBCHEM_CONFORMER_DIVERSEORDER>
1
38
58
42
69
49
93
64
97
87
29
118
27
124
117
94
15
115
66
123
77
136
108
102
99
80
130
8
128
36
135
101
127
126
59
103
121
75
12
63
55
9
25
31
47
110
79
133
7
106
16
30
109
20
41
72
113
90
71
3
107
45
39
10
83
4
37
73
61
43
116
17
11
54
111
33
57
137
125
22
119
24
81
68
52
18
96
14
65
51
19
32
34
70
131
122
21
35
60
85
74
120
100
48
44
104
88
50
98
5
95
91
84
76
78
67
53
23
92
112
134
6
89
28
82
86
105
2
26
132
56
129
13
40
114
62
46

> <PUBCHEM_MMFF94_PARTIAL_CHARGES>
27
1 1.33
10 0.28
11 0.28
12 0.28
13 0.36
14 0.41
15 0.17
16 0.11
17 -0.15
18 -0.15
19 0.16
2 -0.56
20 -0.15
28 0.36
3 -0.68
31 0.4
32 0.42
36 0.15
37 0.15
38 0.15
39 0.15
4 -0.65
5 -0.65
6 -0.9
7 -0.91
8 -0.62
9 0.27

> <PUBCHEM_EFFECTIVE_ROTOR_COUNT>
7

> <PUBCHEM_PHARMACOPHORE_FEATURES>
11
1 2 acceptor
1 3 acceptor
1 3 donor
1 4 acceptor
1 5 acceptor
1 6 cation
1 6 donor
1 7 donor
1 8 acceptor
5 2 9 10 11 12 rings
6 8 15 17 18 19 20 rings

> <PUBCHEM_HEAVY_ATOM_COUNT>
20

> <PUBCHEM_ATOM_DEF_STEREO_COUNT>
3

> <PUBCHEM_ATOM_UDEF_STEREO_COUNT>
0

> <PUBCHEM_BOND_DEF_STEREO_COUNT>
0

> <PUBCHEM_BOND_UDEF_STEREO_COUNT>
0

> <PUBCHEM_ISOTOPIC_ATOM_COUNT>
0

> <PUBCHEM_COMPONENT_COUNT>
1

> <PUBCHEM_CACTVS_TAUTO_COUNT>
1

> <PUBCHEM_CONFORMER_ID>
0480991200000001

> <PUBCHEM_MMFF94_ENERGY>
36.7454

> <PUBCHEM_FEATURE_SELFOVERLAP>
55.84

> <PUBCHEM_SHAPE_FINGERPRINT>
10 15 13045951204616815421
10087517 78 17386001733410802117
10299344 5 12967130522951316420
10591671 39 18410016563353975743
11089746 13 16660363701262292871
117890 112 17530686506842284200
12236239 1 16225765220561334779
12516196 113 12751518479294396210
12596602 18 13768218211160308060
12670543 26 17988929929221929028
12714333 28 18334012787196473265
13288520 33 13110959830263114721
13533116 47 16588295052490313680
13668630 136 16128646467203863965
13862211 1 15267346193347364006
13968360 50 18271805688242624422
14123256 10 17847061081908697152
1420 363 15697999643407731647
14251718 22 18410292515044733763
14251752 14 18343581820077323990
14251764 18 12901557857194624899
14528608 73 18411419513962089756
15048467 5 17385724698955020832
15183329 4 18408327670412403728
15348495 7 11530781321936422309
15716309 27 12463569582276991241
15961568 22 18113337483714313173
17834072 8 17346313816937855720
200 152 17131826544043857171
20281389 69 17530961375895874476
21150785 3 15267340751914086800
21267235 1 17060338548537127947
21521239 73 16988846055788320422
21637258 2 13758071853354943012
21641784 216 18130521746629114952
22224240 67 13406796644376631081
23035841 295 13830131685244866671
23402539 116 17676487263286441187
23402655 69 18201997690868190595
23522609 53 13541636425312093098
23536379 177 18040150704118995554
23559900 14 16773220903316024267
26918003 58 10881404219007664855
2767999 5 17312821580333051429
2838139 119 18040149630166577829
2916195 48 17821447967303806073
300161 21 16950558866396921915
33382 64 12319464272763203020
34797466 226 18271536363284600381
351380 3 14549016563760876565
3759504 43 18335422408612433026
465052 167 8790887389408345200
5207 217 18201719569664910610

> <PUBCHEM_SHAPE_MULTIPOLES>
377.02
18.55
1.51
1.11
2.4
0.01
0.1
-6.17
5.46
-0.18
0.32
0.74
-0.06
0.56

> <PUBCHEM_SHAPE_SELFOVERLAP>
758.583

> <PUBCHEM_SHAPE_VOLUME>
223.4

> <PUBCHEM_COORDINATE_TYPE>
2
5
10

$$$$
