51137076
  -OEChem-12032416243D

 39 42  0     1  0  0  0  0  0999 V2000
    3.7711   -1.8281    0.4980 S   0  0  0  0  0  0  0  0  0  0  0  0
   -6.0415    2.0854    0.6681 F   0  0  0  0  0  0  0  0  0  0  0  0
   -7.3543   -0.3022    0.4392 F   0  0  0  0  0  0  0  0  0  0  0  0
   -1.0639   -0.4814   -0.1760 N   0  0  1  0  0  0  0  0  0  0  0  0
    2.9781    0.5781    0.0148 N   0  0  0  0  0  0  0  0  0  0  0  0
    1.1144   -1.0106    0.5128 C   0  0  1  0  0  0  0  0  0  0  0  0
    0.3908   -0.2469    1.6355 C   0  0  0  0  0  0  0  0  0  0  0  0
    0.2583   -0.7667   -0.7372 C   0  0  0  0  0  0  0  0  0  0  0  0
   -0.8083    0.4050    0.9593 C   0  0  0  0  0  0  0  0  0  0  0  0
   -1.9648    0.1138   -1.1520 C   0  0  0  0  0  0  0  0  0  0  0  0
    2.5638   -0.6300    0.3178 C   0  0  0  0  0  0  0  0  0  0  0  0
   -3.4048    0.0023   -0.7268 C   0  0  0  0  0  0  0  0  0  0  0  0
    4.9791   -0.6502    0.1425 C   0  0  0  0  0  0  0  0  0  0  0  0
    4.3614    0.5825   -0.0892 C   0  0  0  0  0  0  0  0  0  0  0  0
   -4.0692    1.1174   -0.2160 C   0  0  0  0  0  0  0  0  0  0  0  0
   -4.0746   -1.2156   -0.8440 C   0  0  0  0  0  0  0  0  0  0  0  0
    6.3730   -0.8059    0.0735 C   0  0  0  0  0  0  0  0  0  0  0  0
    5.1697    1.6973   -0.4007 C   0  0  0  0  0  0  0  0  0  0  0  0
   -5.4035    1.0146    0.1777 C   0  0  0  0  0  0  0  0  0  0  0  0
   -5.4088   -1.3184   -0.4501 C   0  0  0  0  0  0  0  0  0  0  0  0
    7.1496    0.3132   -0.2367 C   0  0  0  0  0  0  0  0  0  0  0  0
    6.5579    1.5495   -0.4711 C   0  0  0  0  0  0  0  0  0  0  0  0
   -6.0733   -0.2033    0.0606 C   0  0  0  0  0  0  0  0  0  0  0  0
    1.0492   -2.0801    0.7616 H   0  0  0  0  0  0  0  0  0  0  0  0
    0.0523   -0.9574    2.4001 H   0  0  0  0  0  0  0  0  0  0  0  0
    1.0215    0.4981    2.1321 H   0  0  0  0  0  0  0  0  0  0  0  0
    0.6354    0.0824   -1.3228 H   0  0  0  0  0  0  0  0  0  0  0  0
    0.2421   -1.6493   -1.3861 H   0  0  0  0  0  0  0  0  0  0  0  0
   -0.5416    1.4196    0.6361 H   0  0  0  0  0  0  0  0  0  0  0  0
   -1.6588    0.4679    1.6453 H   0  0  0  0  0  0  0  0  0  0  0  0
   -1.7008    1.1561   -1.3770 H   0  0  0  0  0  0  0  0  0  0  0  0
   -1.8770   -0.4165   -2.1109 H   0  0  0  0  0  0  0  0  0  0  0  0
   -3.5589    2.0718   -0.1180 H   0  0  0  0  0  0  0  0  0  0  0  0
   -3.5681   -2.0916   -1.2405 H   0  0  0  0  0  0  0  0  0  0  0  0
    6.8418   -1.7681    0.2553 H   0  0  0  0  0  0  0  0  0  0  0  0
    4.7179    2.6677   -0.5857 H   0  0  0  0  0  0  0  0  0  0  0  0
   -5.9306   -2.2665   -0.5409 H   0  0  0  0  0  0  0  0  0  0  0  0
    8.2304    0.2144   -0.2951 H   0  0  0  0  0  0  0  0  0  0  0  0
    7.1781    2.4088   -0.7111 H   0  0  0  0  0  0  0  0  0  0  0  0
  1 11  1  0  0  0  0
  1 13  1  0  0  0  0
  2 19  1  0  0  0  0
  3 23  1  0  0  0  0
  4  8  1  0  0  0  0
  4  9  1  0  0  0  0
  4 10  1  0  0  0  0
  5 11  2  0  0  0  0
  5 14  1  0  0  0  0
  6  7  1  0  0  0  0
  6  8  1  0  0  0  0
  6 11  1  0  0  0  0
  6 24  1  0  0  0  0
  7  9  1  0  0  0  0
  7 25  1  0  0  0  0
  7 26  1  0  0  0  0
  8 27  1  0  0  0  0
  8 28  1  0  0  0  0
  9 29  1  0  0  0  0
  9 30  1  0  0  0  0
 10 12  1  0  0  0  0
 10 31  1  0  0  0  0
 10 32  1  0  0  0  0
 12 15  2  0  0  0  0
 12 16  1  0  0  0  0
 13 14  1  0  0  0  0
 13 17  2  0  0  0  0
 14 18  2  0  0  0  0
 15 19  1  0  0  0  0
 15 33  1  0  0  0  0
 16 20  2  0  0  0  0
 16 34  1  0  0  0  0
 17 21  1  0  0  0  0
 17 35  1  0  0  0  0
 18 22  1  0  0  0  0
 18 36  1  0  0  0  0
 19 23  2  0  0  0  0
 20 23  1  0  0  0  0
 20 37  1  0  0  0  0
 21 22  2  0  0  0  0
 21 38  1  0  0  0  0
 22 39  1  0  0  0  0
M  END
> <PUBCHEM_COMPOUND_CID>
51137076

> <PUBCHEM_CONFORMER_RMSD>
0.8

> <PUBCHEM_CONFORMER_DIVERSEORDER>
1
67
71
57
76
83
40
56
47
62
66
68
64
59
20
87
55
30
25
53
69
24
75
50
49
51
12
54
61
9
44
72
52
15
85
26
13
2
63
81
11
77
46
10
78
37
80
3
16
58
65
29
70
73
38
35
60
5
34
45
82
41
79
86
8
33
28
39
19
14
42
23
84
6
43
27
22
36
7
48
4
31
18
17
21
74
32
88

> <PUBCHEM_MMFF94_PARTIAL_CHARGES>
29
1 -0.08
10 0.41
11 0.2
12 -0.14
13 0.04
14 0.23
15 -0.15
16 -0.15
17 -0.15
18 -0.15
19 0.19
2 -0.19
20 -0.15
21 -0.15
22 -0.15
23 0.19
3 -0.19
33 0.15
34 0.15
35 0.15
36 0.15
37 0.15
38 0.15
39 0.15
4 -0.81
5 -0.57
6 0.18
8 0.27
9 0.27

> <PUBCHEM_EFFECTIVE_ROTOR_COUNT>
4

> <PUBCHEM_PHARMACOPHORE_FEATURES>
6
1 4 cation
1 5 acceptor
5 1 5 11 13 14 rings
5 4 6 7 8 9 rings
6 12 15 16 19 20 23 rings
6 13 14 17 18 21 22 rings

> <PUBCHEM_HEAVY_ATOM_COUNT>
23

> <PUBCHEM_ATOM_DEF_STEREO_COUNT>
1

> <PUBCHEM_ATOM_UDEF_STEREO_COUNT>
0

> <PUBCHEM_BOND_DEF_STEREO_COUNT>
0

> <PUBCHEM_BOND_UDEF_STEREO_COUNT>
0

> <PUBCHEM_ISOTOPIC_ATOM_COUNT>
0

> <PUBCHEM_COMPONENT_COUNT>
1

> <PUBCHEM_CACTVS_TAUTO_COUNT>
1

> <PUBCHEM_CONFORMER_ID>
030C4A3400000001

> <PUBCHEM_MMFF94_ENERGY>
46.6146

> <PUBCHEM_FEATURE_SELFOVERLAP>
30.519

> <PUBCHEM_SHAPE_FINGERPRINT>
10 15 14345798275327948860
10299344 5 18343020004095631903
10411042 1 17901943047167575258
10595046 47 18409727348366078203
10638233 991 18341047501262001188
106641 1 13262403284733884420
11315181 36 18335138701085411653
11646440 116 16732704943662583884
11796584 16 14620787228603979694
12166972 35 18186522107668037852
12236239 1 18343018887366925814
12516196 113 16443062802780131295
12643181 29 14261349168002092684
12730499 353 17821728317463484554
12788726 201 17418097568182611826
12916748 109 16732979808895316868
13167372 99 18410855421974953872
13533116 47 17023455353642348938
14123256 10 17530682117359405363
14251732 16 18260831526851227755
14251752 14 17847061073429480384
14251764 18 18409728469336568943
14849402 71 18188216523310409196
14856354 85 18059576923367691207
14933364 13 18411700988933577644
15048467 5 18412825776675992669
15183329 4 18201718444336123161
15537594 2 16415757522537017902
17834072 8 15195565710462249783
17844677 252 18262520286332367445
18006028 8 12031791366144574738
18335252 98 18334019414859058187
19489759 90 7997971284734372351
20157964 124 18334295371208552746
20281389 69 18342736325357593280
21792961 116 17418098684789634159
220451 1 17917708002560265983
2215653 11 13470688148538435260
22224240 67 16515685554411024811
23035841 295 18202844361734077799
23081809 10 18271515446767722327
23198884 109 18408604768716797467
23536379 177 18412824677085237042
23569943 247 17097480995678748114
23622692 88 13984664763316434314
2747138 104 16878235207419336885
29717793 49 17989492905715300726
314173 85 14692571026507715026
34797466 226 18342463646895670990
3545911 37 17967531281467622566
397830 11 15575577888372882212
4073 2 18113623425504503658
4325135 7 18335420179608074959
4340502 62 16660360373074426938
445580 37 17846506910905696705
5104073 3 15647881609806616193
5265222 85 17988077923495724150
5283156 175 17418097594817519774
542803 24 18413384341425645806
559249 180 9151174251496597701
5758199 1 18040155119234618938
59682541 35 16515691077992473529
59755656 215 14620802582858835444
59755656 520 17822005436916381450
6328613 192 18341612582168086905
9996256 80 18334009488946433118

> <PUBCHEM_SHAPE_MULTIPOLES>
452.67
20.6
1.6
0.99
2.89
0.23
-0.12
4.48
1.03
-0.53
-0.03
0.41
-0.04
-1.21

> <PUBCHEM_SHAPE_SELFOVERLAP>
980.801

> <PUBCHEM_SHAPE_VOLUME>
251.8

> <PUBCHEM_COORDINATE_TYPE>
2
5
10

$$$$
