75537104
  -OEChem-12032416343D

 36 38  0     1  0  0  0  0  0999 V2000
    4.6193    0.9658   -0.1104 O   0  0  0  0  0  0  0  0  0  0  0  0
    2.3027    0.6148   -0.2803 N   0  0  0  0  0  0  0  0  0  0  0  0
   -0.4472    0.9664    0.1944 N   0  0  2  0  0  0  0  0  0  0  0  0
    3.6408   -1.1805   -0.1065 N   0  0  0  0  0  0  0  0  0  0  0  0
   -3.1449   -0.8164    1.0191 N   0  0  0  0  0  0  0  0  0  0  0  0
    1.4132   -0.5173   -0.4341 C   0  0  2  0  0  0  0  0  0  0  0  0
    0.1780   -0.3472    0.4498 C   0  0  0  0  0  0  0  0  0  0  0  0
    2.2911   -1.7178   -0.0861 C   0  0  0  0  0  0  0  0  0  0  0  0
    1.7635    1.9562   -0.3638 C   0  0  0  0  0  0  0  0  0  0  0  0
    0.4960    2.0645    0.4876 C   0  0  0  0  0  0  0  0  0  0  0  0
    3.6444    0.2278   -0.1636 C   0  0  0  0  0  0  0  0  0  0  0  0
   -1.6647    1.1143    0.9914 C   0  0  0  0  0  0  0  0  0  0  0  0
    4.8037   -2.0224    0.0678 C   0  0  0  0  0  0  0  0  0  0  0  0
   -2.8162    0.3419    0.4046 C   0  0  0  0  0  0  0  0  0  0  0  0
   -3.4705    0.8416   -0.7099 C   0  0  0  0  0  0  0  0  0  0  0  0
   -4.5305    0.1050   -1.2267 C   0  0  0  0  0  0  0  0  0  0  0  0
   -4.1803   -1.5050    0.4885 C   0  0  0  0  0  0  0  0  0  0  0  0
   -4.8985   -1.0918   -0.6218 C   0  0  0  0  0  0  0  0  0  0  0  0
    1.1248   -0.5570   -1.4928 H   0  0  0  0  0  0  0  0  0  0  0  0
   -0.5137   -1.1658    0.2217 H   0  0  0  0  0  0  0  0  0  0  0  0
    0.4542   -0.4345    1.5095 H   0  0  0  0  0  0  0  0  0  0  0  0
    2.1975   -2.5228   -0.8211 H   0  0  0  0  0  0  0  0  0  0  0  0
    2.0952   -2.1120    0.9164 H   0  0  0  0  0  0  0  0  0  0  0  0
    1.5370    2.1505   -1.4185 H   0  0  0  0  0  0  0  0  0  0  0  0
    2.5212    2.6772   -0.0411 H   0  0  0  0  0  0  0  0  0  0  0  0
    0.7694    2.0518    1.5513 H   0  0  0  0  0  0  0  0  0  0  0  0
    0.0269    3.0335    0.2796 H   0  0  0  0  0  0  0  0  0  0  0  0
   -1.9761    2.1675    1.0277 H   0  0  0  0  0  0  0  0  0  0  0  0
   -1.5020    0.8197    2.0369 H   0  0  0  0  0  0  0  0  0  0  0  0
    4.7460   -2.5022    1.0484 H   0  0  0  0  0  0  0  0  0  0  0  0
    5.7165   -1.4243    0.0095 H   0  0  0  0  0  0  0  0  0  0  0  0
    4.8103   -2.7831   -0.7169 H   0  0  0  0  0  0  0  0  0  0  0  0
   -3.1762    1.7765   -1.1749 H   0  0  0  0  0  0  0  0  0  0  0  0
   -5.0688    0.4627   -2.0992 H   0  0  0  0  0  0  0  0  0  0  0  0
   -4.4273   -2.4313    0.9967 H   0  0  0  0  0  0  0  0  0  0  0  0
   -5.7215   -1.6824   -1.0076 H   0  0  0  0  0  0  0  0  0  0  0  0
  1 11  2  0  0  0  0
  2  6  1  0  0  0  0
  2  9  1  0  0  0  0
  2 11  1  0  0  0  0
  3  7  1  0  0  0  0
  3 10  1  0  0  0  0
  3 12  1  0  0  0  0
  4  8  1  0  0  0  0
  4 11  1  0  0  0  0
  4 13  1  0  0  0  0
  5 14  1  0  0  0  0
  5 17  2  0  0  0  0
  6  7  1  0  0  0  0
  6  8  1  0  0  0  0
  6 19  1  0  0  0  0
  7 20  1  0  0  0  0
  7 21  1  0  0  0  0
  8 22  1  0  0  0  0
  8 23  1  0  0  0  0
  9 10  1  0  0  0  0
  9 24  1  0  0  0  0
  9 25  1  0  0  0  0
 10 26  1  0  0  0  0
 10 27  1  0  0  0  0
 12 14  1  0  0  0  0
 12 28  1  0  0  0  0
 12 29  1  0  0  0  0
 13 30  1  0  0  0  0
 13 31  1  0  0  0  0
 13 32  1  0  0  0  0
 14 15  2  0  0  0  0
 15 16  1  0  0  0  0
 15 33  1  0  0  0  0
 16 18  2  0  0  0  0
 16 34  1  0  0  0  0
 17 18  1  0  0  0  0
 17 35  1  0  0  0  0
 18 36  1  0  0  0  0
M  END
> <PUBCHEM_COMPOUND_CID>
75537104

> <PUBCHEM_CONFORMER_RMSD>
0.6

> <PUBCHEM_CONFORMER_DIVERSEORDER>
1
26
2
14
16
24
19
30
28
20
21
4
22
15
9
8
11
6
25
17
5
29
12
23
10
3
18
27
13
7

> <PUBCHEM_MMFF94_PARTIAL_CHARGES>
22
1 -0.57
10 0.27
11 0.69
12 0.41
13 0.3
14 0.17
15 -0.15
16 -0.15
17 0.16
18 -0.15
2 -0.66
3 -0.81
33 0.15
34 0.15
35 0.15
36 0.15
4 -0.66
5 -0.62
6 0.3
7 0.27
8 0.3
9 0.3

> <PUBCHEM_EFFECTIVE_ROTOR_COUNT>
3.2

> <PUBCHEM_PHARMACOPHORE_FEATURES>
6
1 1 acceptor
1 3 cation
1 5 acceptor
5 2 4 6 8 11 rings
6 2 3 6 7 9 10 rings
6 5 14 15 16 17 18 rings

> <PUBCHEM_HEAVY_ATOM_COUNT>
18

> <PUBCHEM_ATOM_DEF_STEREO_COUNT>
1

> <PUBCHEM_ATOM_UDEF_STEREO_COUNT>
0

> <PUBCHEM_BOND_DEF_STEREO_COUNT>
0

> <PUBCHEM_BOND_UDEF_STEREO_COUNT>
0

> <PUBCHEM_ISOTOPIC_ATOM_COUNT>
0

> <PUBCHEM_COMPONENT_COUNT>
1

> <PUBCHEM_CACTVS_TAUTO_COUNT>
1

> <PUBCHEM_CONFORMER_ID>
04809AD000000001

> <PUBCHEM_MMFF94_ENERGY>
42.0086

> <PUBCHEM_FEATURE_SELFOVERLAP>
30.542

> <PUBCHEM_SHAPE_FINGERPRINT>
10447042 23 18341606023325348894
11089746 13 13623525809443829494
11806522 49 18413389847463001368
13544653 18 18343586230697481041
13862211 1 18411699847211138398
14289901 80 15841559543672629728
14576447 43 18271523190614485742
15188451 53 15338538528122669693
15196674 1 18411139121280188394
15239154 128 8934994871727432810
15352361 1 18411418388691383039
17834072 14 18334856104135897112
1798214 20 18412823586126503807
18186145 218 17603304851910747785
18222031 100 18059855047937445428
193927 3 18130236960311129558
19433438 38 18114177553784333493
19784866 170 10807937076279071435
200 152 18273213110417491289
20261772 1 17703787037339621694
20281475 54 18411989039489686617
20645477 70 18335701671416475475
20671657 53 18412829096796761577
21250096 35 18343863312043928193
21267235 1 18341341015438153014
212847 35 11458423539928635974
221357 26 18335131004240442333
221490 88 18263369259838711115
22393880 68 17968086513143494291
22646028 1 18131069329188628207
22646028 28 18131071545655386685
23402539 116 18341329977197862554
23403322 49 18410855460708598899
23559900 14 18335696148115062712
27216 239 10015863189644629327
2871803 45 18334293149803183882
3004659 81 18187362091248206666
314194 84 18273214218118542791
46194498 28 17604429725357350013
4921388 177 16877670097529642443
5104073 3 18343022159862935432
5281201 14 17895196636163817213
5283173 99 18115297865654459381
633830 44 8646768880958844392
76465 3 18341610395364646626
9709674 26 18188494704363013011

> <PUBCHEM_SHAPE_MULTIPOLES>
344.64
10.65
2.04
0.92
1.42
0.07
0.01
-4.87
1.82
-1.33
-0.13
0.87
0.05
0.05

> <PUBCHEM_SHAPE_SELFOVERLAP>
727.468

> <PUBCHEM_SHAPE_VOLUME>
194.6

> <PUBCHEM_COORDINATE_TYPE>
2
5
10

$$$$
