38030976
  -OEChem-12032416333D

 70 73  0     1  0  0  0  0  0999 V2000
   -6.4175   -1.3971    0.9641 F   0  0  0  0  0  0  0  0  0  0  0  0
   -2.4404   -0.1861    0.8532 O   0  0  0  0  0  0  0  0  0  0  0  0
    7.7926   -2.8283    0.8844 O   0  0  0  0  0  0  0  0  0  0  0  0
    2.7337    1.0179   -0.4739 N   0  0  0  0  0  0  0  0  0  0  0  0
    5.3777   -1.5565    0.0769 N   0  0  0  0  0  0  0  0  0  0  0  0
   -3.5555    1.2922    2.1084 N   0  0  0  0  0  0  0  0  0  0  0  0
   -4.4549    0.3365    1.6738 N   0  0  0  0  0  0  0  0  0  0  0  0
   -0.0335    1.8537   -1.2971 C   0  0  1  0  0  0  0  0  0  0  0  0
    1.2047    2.7829   -1.2357 C   0  0  1  0  0  0  0  0  0  0  0  0
   -1.2384    2.5203   -0.6160 C   0  0  0  0  0  0  0  0  0  0  0  0
   -0.9577    2.8626    0.8594 C   0  0  2  0  0  0  0  0  0  0  0  0
   -0.3935    1.4806   -2.7387 C   0  0  0  0  0  0  0  0  0  0  0  0
    0.3824    3.5478    1.0334 C   0  0  0  0  0  0  0  0  0  0  0  0
    1.3312    3.5128    0.0810 C   0  0  0  0  0  0  0  0  0  0  0  0
    2.4953    2.0039   -1.5137 C   0  0  0  0  0  0  0  0  0  0  0  0
   -1.0550    1.6147    1.7441 C   0  0  0  0  0  0  0  0  0  0  0  0
   -1.2009    2.5979   -3.3915 C   0  0  0  0  0  0  0  0  0  0  0  0
   -1.1653    0.1654   -2.7708 C   0  0  0  0  0  0  0  0  0  0  0  0
    0.5905    4.3139    2.3102 C   0  0  0  0  0  0  0  0  0  0  0  0
   -2.3932    0.9470    1.6059 C   0  0  0  0  0  0  0  0  0  0  0  0
    3.9542    0.2645   -0.7350 C   0  0  0  0  0  0  0  0  0  0  0  0
    4.1637   -0.7894    0.3481 C   0  0  0  0  0  0  0  0  0  0  0  0
    5.3674   -2.8276    0.8141 C   0  0  0  0  0  0  0  0  0  0  0  0
    6.5749   -0.7802    0.4285 C   0  0  0  0  0  0  0  0  0  0  0  0
    6.6488   -3.6044    0.5256 C   0  0  0  0  0  0  0  0  0  0  0  0
    7.8275   -1.6054    0.1478 C   0  0  0  0  0  0  0  0  0  0  0  0
   -3.7603   -0.5056    0.9448 C   0  0  0  0  0  0  0  0  0  0  0  0
   -4.1698   -1.6879    0.2439 C   0  0  0  0  0  0  0  0  0  0  0  0
   -5.5024   -2.0984    0.2791 C   0  0  0  0  0  0  0  0  0  0  0  0
   -3.2306   -2.4283   -0.4737 C   0  0  0  0  0  0  0  0  0  0  0  0
   -5.8957   -3.2495   -0.4034 C   0  0  0  0  0  0  0  0  0  0  0  0
   -3.6239   -3.5796   -1.1562 C   0  0  0  0  0  0  0  0  0  0  0  0
   -4.9564   -3.9902   -1.1211 C   0  0  0  0  0  0  0  0  0  0  0  0
    0.1886    0.9289   -0.7503 H   0  0  0  0  0  0  0  0  0  0  0  0
    1.1196    3.5595   -2.0065 H   0  0  0  0  0  0  0  0  0  0  0  0
   -2.1494    1.9260   -0.7255 H   0  0  0  0  0  0  0  0  0  0  0  0
   -1.4553    3.4841   -1.0969 H   0  0  0  0  0  0  0  0  0  0  0  0
   -1.7428    3.5675    1.1694 H   0  0  0  0  0  0  0  0  0  0  0  0
    0.5128    1.3273   -3.3331 H   0  0  0  0  0  0  0  0  0  0  0  0
    2.2563    4.0636    0.2406 H   0  0  0  0  0  0  0  0  0  0  0  0
    3.3368    2.7086   -1.5578 H   0  0  0  0  0  0  0  0  0  0  0  0
    2.4476    1.5189   -2.4940 H   0  0  0  0  0  0  0  0  0  0  0  0
   -0.9295    1.8840    2.7998 H   0  0  0  0  0  0  0  0  0  0  0  0
   -0.2594    0.8964    1.5124 H   0  0  0  0  0  0  0  0  0  0  0  0
   -2.2278    2.6635   -3.0168 H   0  0  0  0  0  0  0  0  0  0  0  0
   -1.2892    2.3964   -4.4664 H   0  0  0  0  0  0  0  0  0  0  0  0
   -0.7197    3.5761   -3.2999 H   0  0  0  0  0  0  0  0  0  0  0  0
   -2.1190    0.2305   -2.2383 H   0  0  0  0  0  0  0  0  0  0  0  0
   -0.5799   -0.6444   -2.3222 H   0  0  0  0  0  0  0  0  0  0  0  0
   -1.3863   -0.1230   -3.8044 H   0  0  0  0  0  0  0  0  0  0  0  0
   -0.2028    5.0570    2.4410 H   0  0  0  0  0  0  0  0  0  0  0  0
    1.5463    4.8486    2.3190 H   0  0  0  0  0  0  0  0  0  0  0  0
    0.5833    3.6402    3.1721 H   0  0  0  0  0  0  0  0  0  0  0  0
    2.8042    1.4668    0.4382 H   0  0  0  0  0  0  0  0  0  0  0  0
    4.7964    0.9631   -0.7731 H   0  0  0  0  0  0  0  0  0  0  0  0
    3.8850   -0.2308   -1.7119 H   0  0  0  0  0  0  0  0  0  0  0  0
    3.2922   -1.4583    0.3302 H   0  0  0  0  0  0  0  0  0  0  0  0
    4.1893   -0.3351    1.3477 H   0  0  0  0  0  0  0  0  0  0  0  0
    4.5097   -3.4390    0.5109 H   0  0  0  0  0  0  0  0  0  0  0  0
    5.2879   -2.6397    1.8929 H   0  0  0  0  0  0  0  0  0  0  0  0
    6.5535   -0.5067    1.4916 H   0  0  0  0  0  0  0  0  0  0  0  0
    6.6469    0.1414   -0.1563 H   0  0  0  0  0  0  0  0  0  0  0  0
    6.6699   -4.5228    1.1210 H   0  0  0  0  0  0  0  0  0  0  0  0
    6.7185   -3.8924   -0.5305 H   0  0  0  0  0  0  0  0  0  0  0  0
    7.9372   -1.8246   -0.9214 H   0  0  0  0  0  0  0  0  0  0  0  0
    8.7173   -1.0522    0.4652 H   0  0  0  0  0  0  0  0  0  0  0  0
   -2.1833   -2.1417   -0.5247 H   0  0  0  0  0  0  0  0  0  0  0  0
   -6.9332   -3.5690   -0.3760 H   0  0  0  0  0  0  0  0  0  0  0  0
   -2.8928   -4.1564   -1.7151 H   0  0  0  0  0  0  0  0  0  0  0  0
   -5.2628   -4.8865   -1.6525 H   0  0  0  0  0  0  0  0  0  0  0  0
  1 29  1  0  0  0  0
  2 20  1  0  0  0  0
  2 27  1  0  0  0  0
  3 25  1  0  0  0  0
  3 26  1  0  0  0  0
  4 15  1  0  0  0  0
  4 21  1  0  0  0  0
  4 54  1  0  0  0  0
  5 22  1  0  0  0  0
  5 23  1  0  0  0  0
  5 24  1  0  0  0  0
  6  7  1  0  0  0  0
  6 20  2  0  0  0  0
  7 27  2  0  0  0  0
  8  9  1  0  0  0  0
  8 10  1  0  0  0  0
  8 12  1  0  0  0  0
  8 34  1  0  0  0  0
  9 14  1  0  0  0  0
  9 15  1  0  0  0  0
  9 35  1  0  0  0  0
 10 11  1  0  0  0  0
 10 36  1  0  0  0  0
 10 37  1  0  0  0  0
 11 13  1  0  0  0  0
 11 16  1  0  0  0  0
 11 38  1  0  0  0  0
 12 17  1  0  0  0  0
 12 18  1  0  0  0  0
 12 39  1  0  0  0  0
 13 14  2  0  0  0  0
 13 19  1  0  0  0  0
 14 40  1  0  0  0  0
 15 41  1  0  0  0  0
 15 42  1  0  0  0  0
 16 20  1  0  0  0  0
 16 43  1  0  0  0  0
 16 44  1  0  0  0  0
 17 45  1  0  0  0  0
 17 46  1  0  0  0  0
 17 47  1  0  0  0  0
 18 48  1  0  0  0  0
 18 49  1  0  0  0  0
 18 50  1  0  0  0  0
 19 51  1  0  0  0  0
 19 52  1  0  0  0  0
 19 53  1  0  0  0  0
 21 22  1  0  0  0  0
 21 55  1  0  0  0  0
 21 56  1  0  0  0  0
 22 57  1  0  0  0  0
 22 58  1  0  0  0  0
 23 25  1  0  0  0  0
 23 59  1  0  0  0  0
 23 60  1  0  0  0  0
 24 26  1  0  0  0  0
 24 61  1  0  0  0  0
 24 62  1  0  0  0  0
 25 63  1  0  0  0  0
 25 64  1  0  0  0  0
 26 65  1  0  0  0  0
 26 66  1  0  0  0  0
 27 28  1  0  0  0  0
 28 29  1  0  0  0  0
 28 30  2  0  0  0  0
 29 31  2  0  0  0  0
 30 32  1  0  0  0  0
 30 67  1  0  0  0  0
 31 33  1  0  0  0  0
 31 68  1  0  0  0  0
 32 33  2  0  0  0  0
 32 69  1  0  0  0  0
 33 70  1  0  0  0  0
M  END
> <PUBCHEM_COMPOUND_CID>
38030976

> <PUBCHEM_CONFORMER_RMSD>
1

> <PUBCHEM_CONFORMER_DIVERSEORDER>
1
92
180
77
153
25
192
220
218
56
201
185
65
197
129
164
94
114
148
222
130
167
134
139
166
105
223
86
193
212
22
50
210
109
63
93
118
215
177
169
71
182
96
199
104
181
188
172
15
200
195
142
59
184
60
47
21
221
204
35
216
126
198
81
135
174
34
112
165
128
154
213
70
30
178
186
12
98
68
208
110
131
10
225
159
97
157
205
189
57
124
39
194
53
119
54
73
191
156
219
158
175
196
69
162
123
143
52
49
28
122
84
190
144
136
20
168
32
76
146
106
37
55
99
209
101
150
79
155
9
176
43
127
206
66
138
116
187
90
202
51
173
224
147
80
100
217
23
133
207
211
117
19
121
214
161
44
36
42
87
48
103
61
120
89
4
75
179
107
140
102
78
67
160
14
132
11
29
108
6
17
113
183
38
62
74
16
115
111
152
137
45
18
31
125
41
95
85
203
24
58
145
151
170
163
46
91
2
171
64
72
149
141
8
3
27
40
82
5
88
26
33
83
7
13

> <PUBCHEM_MMFF94_PARTIAL_CHARGES>
34
1 -0.19
11 0.14
13 -0.28
14 -0.29
15 0.27
16 0.18
19 0.14
2 -0.28
20 0.3
21 0.27
22 0.27
23 0.27
24 0.27
25 0.28
26 0.28
27 0.43
28 0.05
29 0.19
3 -0.56
30 -0.15
31 -0.15
32 -0.15
33 -0.15
4 -0.9
40 0.15
5 -0.81
54 0.36
6 -0.34
67 0.15
68 0.15
69 0.15
7 -0.34
70 0.15
9 0.14

> <PUBCHEM_EFFECTIVE_ROTOR_COUNT>
11

> <PUBCHEM_PHARMACOPHORE_FEATURES>
9
1 3 acceptor
1 4 cation
1 4 donor
1 5 cation
3 12 17 18 hydrophobe
5 2 6 7 20 27 rings
6 28 29 30 31 32 33 rings
6 3 5 23 24 25 26 rings
6 8 9 10 11 13 14 rings

> <PUBCHEM_HEAVY_ATOM_COUNT>
33

> <PUBCHEM_ATOM_DEF_STEREO_COUNT>
3

> <PUBCHEM_ATOM_UDEF_STEREO_COUNT>
0

> <PUBCHEM_BOND_DEF_STEREO_COUNT>
0

> <PUBCHEM_BOND_UDEF_STEREO_COUNT>
0

> <PUBCHEM_ISOTOPIC_ATOM_COUNT>
0

> <PUBCHEM_COMPONENT_COUNT>
1

> <PUBCHEM_CACTVS_TAUTO_COUNT>
1

> <PUBCHEM_CONFORMER_ID>
02444E8000000001

> <PUBCHEM_MMFF94_ENERGY>
55.5997

> <PUBCHEM_FEATURE_SELFOVERLAP>
45.671

> <PUBCHEM_SHAPE_FINGERPRINT>
10577160 103 15936701449699345452
10622 236 18409733984111675650
11112241 14 12175356807413409999
11135926 11 17316226875894021180
11478447 58 17692522730099020222
12977781 61 18196060404834620033
131258 38 17982163723880494870
13947947 140 18339085981509456103
14068700 675 18411424999173650648
14340393 91 17749095695432937735
14674994 50 18116429237196611085
14950920 106 17988922237394750464
16728300 4 18343301500557975975
16989713 51 18190182283514513166
18681886 176 15694938727707138825
19304671 126 15430596289581742455
19315092 285 18336272327063842468
19438510 23 10592043561855706476
20775530 9 18040433257391045056
21033648 29 15625678136451251465
21401589 2 12967123891722278228
25222932 49 16620680385697231023
32027 91 18270954756610442897
437795 70 17023447721348294599
484985 159 18192987132558705700
513202 73 17967251983728075807
57527585 21 11561713332800212348
5776283 40 11170205279711459118
6201460 15 18053097608129838942
96874 4 18411980295073824666

> <PUBCHEM_SHAPE_MULTIPOLES>
640.19
16.8
6.2
2.47
24.31
0.39
1.5
29.81
-4.99
0.17
-0.49
-1.82
-2.58
-2.64

> <PUBCHEM_SHAPE_SELFOVERLAP>
1341.231

> <PUBCHEM_SHAPE_VOLUME>
364.3

> <PUBCHEM_COORDINATE_TYPE>
2
5
10

$$$$
