40777672
  -OEChem-12032416183D

 54 57  0     1  0  0  0  0  0999 V2000
    5.5713   -0.5681   -1.2733 S   0  0  0  0  0  0  0  0  0  0  0  0
   -8.1884    1.4630    0.8266 F   0  0  0  0  0  0  0  0  0  0  0  0
   -7.1790    3.0399   -0.2791 F   0  0  0  0  0  0  0  0  0  0  0  0
   -8.0852    1.3819   -1.3438 F   0  0  0  0  0  0  0  0  0  0  0  0
    5.1493   -0.0997   -2.5796 O   0  0  0  0  0  0  0  0  0  0  0  0
    6.6707   -1.5066   -1.1551 O   0  0  0  0  0  0  0  0  0  0  0  0
    4.2276   -1.1846   -0.4336 N   0  0  0  0  0  0  0  0  0  0  0  0
   -2.5005   -1.2296    0.1645 N   0  0  0  0  0  0  0  0  0  0  0  0
   -2.5342   -2.5721    0.2188 N   0  0  0  0  0  0  0  0  0  0  0  0
    1.1171   -1.7641    0.3841 C   0  0  2  0  0  0  0  0  0  0  0  0
    1.7844   -1.0656   -0.8191 C   0  0  0  0  0  0  0  0  0  0  0  0
    3.0189   -0.3512   -0.2592 C   0  0  1  0  0  0  0  0  0  0  0  0
   -0.3921   -1.7833    0.3033 C   0  0  0  0  0  0  0  0  0  0  0  0
    1.6719   -1.0007    1.5513 C   0  0  0  0  0  0  0  0  0  0  0  0
    2.7108   -0.2375    1.1967 C   0  0  0  0  0  0  0  0  0  0  0  0
   -1.2413   -0.7076    0.2115 C   0  0  0  0  0  0  0  0  0  0  0  0
   -1.2433   -2.9045    0.3035 C   0  0  0  0  0  0  0  0  0  0  0  0
   -0.9622    0.7422    0.1646 C   0  0  0  0  0  0  0  0  0  0  0  0
   -0.8652   -4.3266    0.3825 C   0  0  0  0  0  0  0  0  0  0  0  0
   -3.6925   -0.5107    0.0694 C   0  0  0  0  0  0  0  0  0  0  0  0
    5.9916    0.8447   -0.2976 C   0  0  0  0  0  0  0  0  0  0  0  0
   -4.6581   -0.6243    1.0698 C   0  0  0  0  0  0  0  0  0  0  0  0
   -3.9200    0.3188   -1.0286 C   0  0  0  0  0  0  0  0  0  0  0  0
    6.8917    0.7189    0.7606 C   0  0  0  0  0  0  0  0  0  0  0  0
    5.4228    2.0853   -0.5854 C   0  0  0  0  0  0  0  0  0  0  0  0
   -5.8511    0.0918    0.9718 C   0  0  0  0  0  0  0  0  0  0  0  0
   -5.1129    1.0347   -1.1265 C   0  0  0  0  0  0  0  0  0  0  0  0
   -6.0786    0.9214   -0.1262 C   0  0  0  0  0  0  0  0  0  0  0  0
    7.2229    1.8337    1.5310 C   0  0  0  0  0  0  0  0  0  0  0  0
    5.7540    3.2001    0.1847 C   0  0  0  0  0  0  0  0  0  0  0  0
    6.6540    3.0742    1.2431 C   0  0  0  0  0  0  0  0  0  0  0  0
   -7.3546    1.6862   -0.2307 C   0  0  0  0  0  0  0  0  0  0  0  0
    1.4885   -2.7948    0.4538 H   0  0  0  0  0  0  0  0  0  0  0  0
    2.0357   -1.7911   -1.6027 H   0  0  0  0  0  0  0  0  0  0  0  0
    1.1216   -0.3286   -1.2879 H   0  0  0  0  0  0  0  0  0  0  0  0
    3.1124    0.6267   -0.7333 H   0  0  0  0  0  0  0  0  0  0  0  0
    1.3018   -1.0848    2.5636 H   0  0  0  0  0  0  0  0  0  0  0  0
    3.2727    0.3780    1.8849 H   0  0  0  0  0  0  0  0  0  0  0  0
    4.3163   -2.0295    0.1440 H   0  0  0  0  0  0  0  0  0  0  0  0
    0.0179    0.9885    0.5790 H   0  0  0  0  0  0  0  0  0  0  0  0
   -1.6909    1.3147    0.7481 H   0  0  0  0  0  0  0  0  0  0  0  0
   -0.9818    1.1059   -0.8677 H   0  0  0  0  0  0  0  0  0  0  0  0
   -0.2193   -4.5997   -0.4583 H   0  0  0  0  0  0  0  0  0  0  0  0
   -1.7407   -4.9841    0.3574 H   0  0  0  0  0  0  0  0  0  0  0  0
   -0.3231   -4.5287    1.3121 H   0  0  0  0  0  0  0  0  0  0  0  0
   -4.4956   -1.2635    1.9343 H   0  0  0  0  0  0  0  0  0  0  0  0
   -3.1879    0.4097   -1.8272 H   0  0  0  0  0  0  0  0  0  0  0  0
    7.3408   -0.2388    1.0075 H   0  0  0  0  0  0  0  0  0  0  0  0
    4.7251    2.2103   -1.4084 H   0  0  0  0  0  0  0  0  0  0  0  0
   -6.5898   -0.0100    1.7619 H   0  0  0  0  0  0  0  0  0  0  0  0
   -5.2829    1.6758   -1.9875 H   0  0  0  0  0  0  0  0  0  0  0  0
    7.9223    1.7355    2.3562 H   0  0  0  0  0  0  0  0  0  0  0  0
    5.3123    4.1665   -0.0402 H   0  0  0  0  0  0  0  0  0  0  0  0
    6.9117    3.9422    1.8429 H   0  0  0  0  0  0  0  0  0  0  0  0
  1  5  2  0  0  0  0
  1  6  2  0  0  0  0
  1  7  1  0  0  0  0
  1 21  1  0  0  0  0
  2 32  1  0  0  0  0
  3 32  1  0  0  0  0
  4 32  1  0  0  0  0
  7 12  1  0  0  0  0
  7 39  1  0  0  0  0
  8  9  1  0  0  0  0
  8 16  1  0  0  0  0
  8 20  1  0  0  0  0
  9 17  2  0  0  0  0
 10 11  1  0  0  0  0
 10 13  1  0  0  0  0
 10 14  1  0  0  0  0
 10 33  1  0  0  0  0
 11 12  1  0  0  0  0
 11 34  1  0  0  0  0
 11 35  1  0  0  0  0
 12 15  1  0  0  0  0
 12 36  1  0  0  0  0
 13 16  2  0  0  0  0
 13 17  1  0  0  0  0
 14 15  2  0  0  0  0
 14 37  1  0  0  0  0
 15 38  1  0  0  0  0
 16 18  1  0  0  0  0
 17 19  1  0  0  0  0
 18 40  1  0  0  0  0
 18 41  1  0  0  0  0
 18 42  1  0  0  0  0
 19 43  1  0  0  0  0
 19 44  1  0  0  0  0
 19 45  1  0  0  0  0
 20 22  2  0  0  0  0
 20 23  1  0  0  0  0
 21 24  2  0  0  0  0
 21 25  1  0  0  0  0
 22 26  1  0  0  0  0
 22 46  1  0  0  0  0
 23 27  2  0  0  0  0
 23 47  1  0  0  0  0
 24 29  1  0  0  0  0
 24 48  1  0  0  0  0
 25 30  2  0  0  0  0
 25 49  1  0  0  0  0
 26 28  2  0  0  0  0
 26 50  1  0  0  0  0
 27 28  1  0  0  0  0
 27 51  1  0  0  0  0
 28 32  1  0  0  0  0
 29 31  2  0  0  0  0
 29 52  1  0  0  0  0
 30 31  1  0  0  0  0
 30 53  1  0  0  0  0
 31 54  1  0  0  0  0
M  END
> <PUBCHEM_COMPOUND_CID>
40777672

> <PUBCHEM_CONFORMER_RMSD>
0.8

> <PUBCHEM_CONFORMER_DIVERSEORDER>
1
15
50
24
12
31
47
49
53
25
32
56
26
4
13
10
33
21
34
62
16
19
36
6
11
30
28
66
5
23
65
42
54
59
40
20
27
44
37
58
57
46
7
45
43
18
39
22
51
17
35
38
41
64
61
55
3
9
60
63
2
48
14
52
8
29

> <PUBCHEM_MMFF94_PARTIAL_CHARGES>
43
1 1.45
10 0.32
12 0.49
13 -0.18
14 -0.29
15 -0.29
16 -0.33
17 0.11
18 0.18
19 0.18
2 -0.34
20 -0.02
21 -0.01
22 -0.15
23 -0.15
24 -0.15
25 -0.15
26 -0.15
27 -0.15
28 -0.14
29 -0.15
3 -0.34
30 -0.15
31 -0.15
32 1.16
37 0.15
38 0.15
39 0.42
4 -0.34
46 0.15
47 0.15
48 0.15
49 0.15
5 -0.65
50 0.15
51 0.15
52 0.15
53 0.15
54 0.15
6 -0.65
7 -0.91
8 0.59
9 -0.71

> <PUBCHEM_EFFECTIVE_ROTOR_COUNT>
6.6

> <PUBCHEM_PHARMACOPHORE_FEATURES>
8
1 5 acceptor
1 6 acceptor
1 7 donor
1 9 acceptor
5 10 11 12 14 15 rings
5 8 9 13 16 17 rings
6 20 22 23 26 27 28 rings
6 21 24 25 29 30 31 rings

> <PUBCHEM_HEAVY_ATOM_COUNT>
32

> <PUBCHEM_ATOM_DEF_STEREO_COUNT>
2

> <PUBCHEM_ATOM_UDEF_STEREO_COUNT>
0

> <PUBCHEM_BOND_DEF_STEREO_COUNT>
0

> <PUBCHEM_BOND_UDEF_STEREO_COUNT>
0

> <PUBCHEM_ISOTOPIC_ATOM_COUNT>
0

> <PUBCHEM_COMPONENT_COUNT>
1

> <PUBCHEM_CACTVS_TAUTO_COUNT>
1

> <PUBCHEM_CONFORMER_ID>
026E37C800000001

> <PUBCHEM_MMFF94_ENERGY>
68.6359

> <PUBCHEM_FEATURE_SELFOVERLAP>
40.616

> <PUBCHEM_SHAPE_FINGERPRINT>
10066227 112 18413109463471358969
10280341 67 18187915137482479629
10554248 39 17346610646934599886
10675989 125 18268433443114647066
10835480 77 18202284740823156426
11007060 377 18336269041540793067
11135609 127 18060131073102038112
11386260 185 17988935457620812740
11475781 23 18272091625984871012
12539765 74 18059863826882500911
12616971 3 16226320538890978102
12895836 83 18409445908160835739
13540713 5 18263902441390804203
1361 87 13398335945661570861
13617811 41 11527946773092676778
13668630 136 11095880463122194161
14251757 52 18408319977761765785
14556957 393 16558765502324712288
15183329 4 15482673472151346025
15510800 12 11167934810175805653
16126227 98 18410574011691375355
18222031 100 13038916534192901530
19302320 297 17749392602639384988
20691028 202 18408323297977376085
20715895 44 18340486764155376920
21033648 29 18261394468003704931
21859007 373 18187074023829026188
23559900 14 17917144004613323090
24771293 8 18189331432865011036
249057 3 18411423895852657430
255183 451 10159694720442206346
3918712 181 18338791205298519921
397638 26 18186517717725644792
4093350 32 17917994966921672284
4403749 210 18260547853832742667
504843 32 17774439511378857207
5104073 3 15792581923342340922
563151 248 13840267013252417321
563151 74 16805317769365399265
5937810 71 17845940628849367193
59682541 52 16988846064551983444
6698420 124 18272104768469318011
6898599 12 18057885938465939926
9980921 177 18263064571376006898

> <PUBCHEM_SHAPE_MULTIPOLES>
613.89
24.13
3.56
1.4
10.29
0.95
-0.3
-24.01
-1.16
-0.09
0.54
-1.56
-0.13
2.72

> <PUBCHEM_SHAPE_SELFOVERLAP>
1324.487

> <PUBCHEM_SHAPE_VOLUME>
342.4

> <PUBCHEM_COORDINATE_TYPE>
2
5
10

$$$$
