40781693
  -OEChem-12032416283D

 50 52  0     1  0  0  0  0  0999 V2000
    7.1560    2.0837   -0.4029 Cl  0  0  0  0  0  0  0  0  0  0  0  0
    0.6176   -0.2509   -2.5754 O   0  0  0  0  0  0  0  0  0  0  0  0
    1.8882   -0.4060    2.5895 O   0  0  0  0  0  0  0  0  0  0  0  0
   -3.5634   -1.8381    0.3914 O   0  0  0  0  0  0  0  0  0  0  0  0
   -6.7060    1.8673    0.8425 O   0  0  0  0  0  0  0  0  0  0  0  0
   -6.1914   -0.3423    0.8868 O   0  0  0  0  0  0  0  0  0  0  0  0
    1.2090   -1.2387    0.5573 N   0  0  0  0  0  0  0  0  0  0  0  0
   -1.6247   -1.2634   -0.7485 N   0  0  0  0  0  0  0  0  0  0  0  0
    2.4492    0.5146   -1.4672 N   0  0  0  0  0  0  0  0  0  0  0  0
   -0.7789   -2.2865   -0.1847 C   0  0  1  0  0  0  0  0  0  0  0  0
    1.4715   -1.6477   -0.8074 C   0  0  1  0  0  0  0  0  0  0  0  0
    0.3690   -2.6648   -1.1243 C   0  0  0  0  0  0  0  0  0  0  0  0
   -0.0473   -1.7883    1.0541 C   0  0  0  0  0  0  0  0  0  0  0  0
    1.4346   -0.3973   -1.6641 C   0  0  0  0  0  0  0  0  0  0  0  0
   -3.6510    1.3683   -0.3495 C   0  0  0  0  0  0  0  0  0  0  0  0
    2.0938   -0.5861    1.3889 C   0  0  0  0  0  0  0  0  0  0  0  0
   -3.6463    0.0274   -1.1269 C   0  0  0  0  0  0  0  0  0  0  0  0
   -2.9616   -1.1244   -0.4083 C   0  0  0  0  0  0  0  0  0  0  0  0
    3.3511   -0.0544    0.8028 C   0  0  0  0  0  0  0  0  0  0  0  0
   -4.3937    1.2755    1.0049 C   0  0  0  0  0  0  0  0  0  0  0  0
    3.4514    0.5223   -0.4737 C   0  0  0  0  0  0  0  0  0  0  0  0
   -2.2064    1.8335   -0.0696 C   0  0  0  0  0  0  0  0  0  0  0  0
   -4.3139    2.4352   -1.2467 C   0  0  0  0  0  0  0  0  0  0  0  0
    4.4519    0.0091    1.6776 C   0  0  0  0  0  0  0  0  0  0  0  0
    4.6312    1.2074   -0.8165 C   0  0  0  0  0  0  0  0  0  0  0  0
   -5.8360    0.8289    0.9094 C   0  0  0  0  0  0  0  0  0  0  0  0
    5.6303    0.6523    1.3020 C   0  0  0  0  0  0  0  0  0  0  0  0
    5.7156    1.2634    0.0585 C   0  0  0  0  0  0  0  0  0  0  0  0
   -1.4029   -3.1551    0.0518 H   0  0  0  0  0  0  0  0  0  0  0  0
    2.4614   -2.1105   -0.8926 H   0  0  0  0  0  0  0  0  0  0  0  0
    0.0775   -2.6906   -2.1788 H   0  0  0  0  0  0  0  0  0  0  0  0
    0.7279   -3.6663   -0.8531 H   0  0  0  0  0  0  0  0  0  0  0  0
   -0.5908   -1.0336    1.6316 H   0  0  0  0  0  0  0  0  0  0  0  0
    0.2082   -2.6200    1.7210 H   0  0  0  0  0  0  0  0  0  0  0  0
   -1.2089   -0.5913   -1.3858 H   0  0  0  0  0  0  0  0  0  0  0  0
   -3.1584    0.1672   -2.1013 H   0  0  0  0  0  0  0  0  0  0  0  0
   -4.6690   -0.2940   -1.3592 H   0  0  0  0  0  0  0  0  0  0  0  0
    2.5396    1.2227   -2.1921 H   0  0  0  0  0  0  0  0  0  0  0  0
   -4.3748    2.2454    1.5199 H   0  0  0  0  0  0  0  0  0  0  0  0
   -3.8855    0.5823    1.6869 H   0  0  0  0  0  0  0  0  0  0  0  0
   -1.6144    1.8703   -0.9910 H   0  0  0  0  0  0  0  0  0  0  0  0
   -1.6951    1.1699    0.6353 H   0  0  0  0  0  0  0  0  0  0  0  0
   -2.1954    2.8381    0.3694 H   0  0  0  0  0  0  0  0  0  0  0  0
   -5.3253    2.1390   -1.5449 H   0  0  0  0  0  0  0  0  0  0  0  0
   -4.3845    3.3995   -0.7309 H   0  0  0  0  0  0  0  0  0  0  0  0
   -3.7366    2.5924   -2.1651 H   0  0  0  0  0  0  0  0  0  0  0  0
    4.4012   -0.4281    2.6727 H   0  0  0  0  0  0  0  0  0  0  0  0
    4.7134    1.6818   -1.7940 H   0  0  0  0  0  0  0  0  0  0  0  0
    6.4629    0.6851    1.9997 H   0  0  0  0  0  0  0  0  0  0  0  0
   -7.6358    1.5620    0.7756 H   0  0  0  0  0  0  0  0  0  0  0  0
  1 28  1  0  0  0  0
  2 14  2  0  0  0  0
  3 16  2  0  0  0  0
  4 18  2  0  0  0  0
  5 26  1  0  0  0  0
  5 50  1  0  0  0  0
  6 26  2  0  0  0  0
  7 11  1  0  0  0  0
  7 13  1  0  0  0  0
  7 16  1  0  0  0  0
  8 10  1  0  0  0  0
  8 18  1  0  0  0  0
  8 35  1  0  0  0  0
  9 14  1  0  0  0  0
  9 21  1  0  0  0  0
  9 38  1  0  0  0  0
 10 12  1  0  0  0  0
 10 13  1  0  0  0  0
 10 29  1  0  0  0  0
 11 12  1  0  0  0  0
 11 14  1  0  0  0  0
 11 30  1  0  0  0  0
 12 31  1  0  0  0  0
 12 32  1  0  0  0  0
 13 33  1  0  0  0  0
 13 34  1  0  0  0  0
 15 17  1  0  0  0  0
 15 20  1  0  0  0  0
 15 22  1  0  0  0  0
 15 23  1  0  0  0  0
 16 19  1  0  0  0  0
 17 18  1  0  0  0  0
 17 36  1  0  0  0  0
 17 37  1  0  0  0  0
 19 21  2  0  0  0  0
 19 24  1  0  0  0  0
 20 26  1  0  0  0  0
 20 39  1  0  0  0  0
 20 40  1  0  0  0  0
 21 25  1  0  0  0  0
 22 41  1  0  0  0  0
 22 42  1  0  0  0  0
 22 43  1  0  0  0  0
 23 44  1  0  0  0  0
 23 45  1  0  0  0  0
 23 46  1  0  0  0  0
 24 27  2  0  0  0  0
 24 47  1  0  0  0  0
 25 28  2  0  0  0  0
 25 48  1  0  0  0  0
 27 28  1  0  0  0  0
 27 49  1  0  0  0  0
M  END
> <PUBCHEM_COMPOUND_CID>
40781693

> <PUBCHEM_CONFORMER_RMSD>
0.8

> <PUBCHEM_CONFORMER_DIVERSEORDER>
1
53
113
60
117
118
82
79
11
74
86
126
25
54
110
44
73
116
134
38
36
19
83
58
8
45
67
69
56
64
111
98
103
63
47
3
40
30
120
34
114
17
104
135
123
108
93
75
22
109
124
128
85
102
31
51
72
96
84
129
66
62
13
105
33
59
76
68
57
89
65
97
122
5
23
12
32
20
88
70
81
115
140
136
6
35
15
112
121
39
21
133
4
127
50
107
37
29
130
80
87
106
24
10
46
48
55
100
41
119
16
27
139
28
132
9
131
14
99
42
94
43
92
26
7
101
49
18
125
91
2
90
61
137
77
138
52
78
71
141
95

> <PUBCHEM_MMFF94_PARTIAL_CHARGES>
30
1 -0.18
10 0.3
11 0.36
13 0.3
14 0.57
16 0.54
17 0.06
18 0.57
19 0.09
2 -0.57
20 0.06
21 0.12
24 -0.15
25 -0.15
26 0.66
27 -0.15
28 0.18
3 -0.57
35 0.37
38 0.37
4 -0.57
47 0.15
48 0.15
49 0.15
5 -0.65
50 0.5
6 -0.57
7 -0.66
8 -0.73
9 -0.55

> <PUBCHEM_EFFECTIVE_ROTOR_COUNT>
6.8

> <PUBCHEM_PHARMACOPHORE_FEATURES>
12
1 2 acceptor
1 3 acceptor
1 4 acceptor
1 5 acceptor
1 6 acceptor
1 8 donor
1 9 donor
3 15 22 23 hydrophobe
3 5 6 26 anion
5 7 10 11 12 13 rings
6 19 21 24 25 27 28 rings
7 7 9 11 14 16 19 21 rings

> <PUBCHEM_HEAVY_ATOM_COUNT>
28

> <PUBCHEM_ATOM_DEF_STEREO_COUNT>
2

> <PUBCHEM_ATOM_UDEF_STEREO_COUNT>
0

> <PUBCHEM_BOND_DEF_STEREO_COUNT>
0

> <PUBCHEM_BOND_UDEF_STEREO_COUNT>
0

> <PUBCHEM_ISOTOPIC_ATOM_COUNT>
0

> <PUBCHEM_COMPONENT_COUNT>
1

> <PUBCHEM_CACTVS_TAUTO_COUNT>
18

> <PUBCHEM_CONFORMER_ID>
026E477D00000001

> <PUBCHEM_MMFF94_ENERGY>
85.9579

> <PUBCHEM_FEATURE_SELFOVERLAP>
61.011

> <PUBCHEM_SHAPE_FINGERPRINT>
10 15 18186805785672456881
10165383 225 17846226587344256891
105312 117 17775000232507352246
11578080 2 18201450189828218318
11796584 16 9655313552456043482
12236239 1 18040988588336174882
12422481 6 17750778983748408582
12596602 18 17530960272105084481
12633257 1 18408884061671215541
12788726 201 17537736760036698806
12892183 10 16443616900769135806
12969540 114 16486974037930544334
13690498 29 13038603190580272269
13965767 371 17605268472092673191
14294032 229 18272367620605021831
14341114 328 18113337526753123715
14347329 18 18201716275936678456
15163728 17 18272657835386252174
15183329 4 13830134970852896985
15188451 53 14201403798487634521
15475509 8 17968107404697534814
15510800 12 11314307204886113360
17980427 23 18187927325939347543
20403669 9 11097859579572497105
20775438 99 9651572962196342557
21033648 29 17774994752524338008
21302155 148 18335700512261024513
21304304 249 12468362366358237297
21637258 2 8358263635489947330
21756936 100 18261390108928501802
22149856 69 18194428640607611993
22393880 68 15338824391690962023
24771293 8 18341616993653452697
2838139 119 17560790014182382352
392239 28 16660365913123010329
4098825 35 17489596648894482102
44062 13 10087341323944052097
465052 167 12684811126122544898
469060 322 18266192784730685387
5718773 13 11242261779133814433
7808743 9 18413106182195342515

> <PUBCHEM_SHAPE_MULTIPOLES>
533.81
15.42
2.51
1.82
1
0.36
0.04
-12.86
3.87
1.35
-0.51
-0.78
0.15
-0.51

> <PUBCHEM_SHAPE_SELFOVERLAP>
1128.941

> <PUBCHEM_SHAPE_VOLUME>
298.4

> <PUBCHEM_COORDINATE_TYPE>
2
5
10

$$$$
