26744652
  -OEChem-12032416403D

 59 61  0     1  0  0  0  0  0999 V2000
    4.0771    1.9771    1.7152 Cl  0  0  0  0  0  0  0  0  0  0  0  0
   -2.5270   -0.3085   -0.4633 O   0  0  0  0  0  0  0  0  0  0  0  0
   -5.9843   -0.9268    0.2878 O   0  0  0  0  0  0  0  0  0  0  0  0
   -5.0493   -0.0456   -2.1448 O   0  0  0  0  0  0  0  0  0  0  0  0
   -1.8443   -3.7385    1.0889 O   0  0  0  0  0  0  0  0  0  0  0  0
    5.1497   -2.8740   -1.2272 O   0  0  0  0  0  0  0  0  0  0  0  0
   -1.1963    2.2422   -0.4104 N   0  0  0  0  0  0  0  0  0  0  0  0
   -0.6928   -1.7459    1.4129 N   0  0  0  0  0  0  0  0  0  0  0  0
    2.4997   -2.8117   -0.1905 N   0  0  0  0  0  0  0  0  0  0  0  0
   -4.7721   -0.2044    0.2488 C   0  0  2  0  0  0  0  0  0  0  0  0
   -4.6330    0.6684   -0.9813 C   0  0  1  0  0  0  0  0  0  0  0  0
   -3.5672   -1.1194    0.1108 C   0  0  2  0  0  0  0  0  0  0  0  0
   -3.1232    0.8652   -1.0617 C   0  0  1  0  0  0  0  0  0  0  0  0
   -3.0946   -1.6968    1.4329 C   0  0  0  0  0  0  0  0  0  0  0  0
   -2.6383    2.0815   -0.2848 C   0  0  0  0  0  0  0  0  0  0  0  0
   -1.8326   -2.5268    1.2888 C   0  0  0  0  0  0  0  0  0  0  0  0
    1.1500   -2.2561   -0.1164 C   0  0  0  0  0  0  0  0  0  0  0  0
    0.6455   -2.2825    1.3189 C   0  0  0  0  0  0  0  0  0  0  0  0
   -0.7362    3.4124    0.3251 C   0  0  0  0  0  0  0  0  0  0  0  0
    3.4996   -1.8063    0.1955 C   0  0  0  0  0  0  0  0  0  0  0  0
    2.7845   -3.3119   -1.5424 C   0  0  0  0  0  0  0  0  0  0  0  0
    4.9001   -2.4045    0.0983 C   0  0  0  0  0  0  0  0  0  0  0  0
    4.2016   -3.8755   -1.5978 C   0  0  0  0  0  0  0  0  0  0  0  0
    0.7519    3.6041    0.1997 C   0  0  0  0  0  0  0  0  0  0  0  0
    1.6234    2.7958    0.9296 C   0  0  0  0  0  0  0  0  0  0  0  0
    1.2591    4.5897   -0.6472 C   0  0  0  0  0  0  0  0  0  0  0  0
    3.0021    2.9730    0.8128 C   0  0  0  0  0  0  0  0  0  0  0  0
    2.6376    4.7671   -0.7639 C   0  0  0  0  0  0  0  0  0  0  0  0
    3.5092    3.9586   -0.0342 C   0  0  0  0  0  0  0  0  0  0  0  0
   -4.6957    0.4070    1.1558 H   0  0  0  0  0  0  0  0  0  0  0  0
   -5.2159    1.5923   -0.9276 H   0  0  0  0  0  0  0  0  0  0  0  0
   -3.7700   -1.9403   -0.5893 H   0  0  0  0  0  0  0  0  0  0  0  0
   -2.7783    0.9165   -2.1014 H   0  0  0  0  0  0  0  0  0  0  0  0
   -3.8703   -2.3343    1.8728 H   0  0  0  0  0  0  0  0  0  0  0  0
   -2.9000   -0.8923    2.1538 H   0  0  0  0  0  0  0  0  0  0  0  0
   -2.8949    1.9741    0.7762 H   0  0  0  0  0  0  0  0  0  0  0  0
   -3.1458    2.9744   -0.6690 H   0  0  0  0  0  0  0  0  0  0  0  0
   -6.7099   -0.2802    0.2570 H   0  0  0  0  0  0  0  0  0  0  0  0
   -4.9102    0.5389   -2.9096 H   0  0  0  0  0  0  0  0  0  0  0  0
   -0.7339    1.4048   -0.0560 H   0  0  0  0  0  0  0  0  0  0  0  0
    1.0965   -1.2433   -0.5377 H   0  0  0  0  0  0  0  0  0  0  0  0
    0.4597   -2.8666   -0.7147 H   0  0  0  0  0  0  0  0  0  0  0  0
   -0.7872   -0.7442    1.5537 H   0  0  0  0  0  0  0  0  0  0  0  0
    0.6448   -3.3066    1.7100 H   0  0  0  0  0  0  0  0  0  0  0  0
    1.2662   -1.6686    1.9787 H   0  0  0  0  0  0  0  0  0  0  0  0
   -0.9864    3.3244    1.3907 H   0  0  0  0  0  0  0  0  0  0  0  0
   -1.2488    4.3120   -0.0388 H   0  0  0  0  0  0  0  0  0  0  0  0
    3.3437   -1.4659    1.2241 H   0  0  0  0  0  0  0  0  0  0  0  0
    3.4351   -0.9310   -0.4643 H   0  0  0  0  0  0  0  0  0  0  0  0
    2.6832   -2.5012   -2.2758 H   0  0  0  0  0  0  0  0  0  0  0  0
    2.0800   -4.1066   -1.8131 H   0  0  0  0  0  0  0  0  0  0  0  0
    5.6487   -1.6389    0.3261 H   0  0  0  0  0  0  0  0  0  0  0  0
    5.0394   -3.2269    0.8106 H   0  0  0  0  0  0  0  0  0  0  0  0
    4.3162   -4.7483   -0.9434 H   0  0  0  0  0  0  0  0  0  0  0  0
    4.4363   -4.1940   -2.6186 H   0  0  0  0  0  0  0  0  0  0  0  0
    1.2259    2.0277    1.5895 H   0  0  0  0  0  0  0  0  0  0  0  0
    0.5923    5.2255   -1.2236 H   0  0  0  0  0  0  0  0  0  0  0  0
    3.0325    5.5342   -1.4235 H   0  0  0  0  0  0  0  0  0  0  0  0
    4.5811    4.1082   -0.1352 H   0  0  0  0  0  0  0  0  0  0  0  0
  1 27  1  0  0  0  0
  2 12  1  0  0  0  0
  2 13  1  0  0  0  0
  3 10  1  0  0  0  0
  3 38  1  0  0  0  0
  4 11  1  0  0  0  0
  4 39  1  0  0  0  0
  5 16  2  0  0  0  0
  6 22  1  0  0  0  0
  6 23  1  0  0  0  0
  7 15  1  0  0  0  0
  7 19  1  0  0  0  0
  7 40  1  0  0  0  0
  8 16  1  0  0  0  0
  8 18  1  0  0  0  0
  8 43  1  0  0  0  0
  9 17  1  0  0  0  0
  9 20  1  0  0  0  0
  9 21  1  0  0  0  0
 10 11  1  0  0  0  0
 10 12  1  0  0  0  0
 10 30  1  0  0  0  0
 11 13  1  0  0  0  0
 11 31  1  0  0  0  0
 12 14  1  0  0  0  0
 12 32  1  0  0  0  0
 13 15  1  0  0  0  0
 13 33  1  0  0  0  0
 14 16  1  0  0  0  0
 14 34  1  0  0  0  0
 14 35  1  0  0  0  0
 15 36  1  0  0  0  0
 15 37  1  0  0  0  0
 17 18  1  0  0  0  0
 17 41  1  0  0  0  0
 17 42  1  0  0  0  0
 18 44  1  0  0  0  0
 18 45  1  0  0  0  0
 19 24  1  0  0  0  0
 19 46  1  0  0  0  0
 19 47  1  0  0  0  0
 20 22  1  0  0  0  0
 20 48  1  0  0  0  0
 20 49  1  0  0  0  0
 21 23  1  0  0  0  0
 21 50  1  0  0  0  0
 21 51  1  0  0  0  0
 22 52  1  0  0  0  0
 22 53  1  0  0  0  0
 23 54  1  0  0  0  0
 23 55  1  0  0  0  0
 24 25  2  0  0  0  0
 24 26  1  0  0  0  0
 25 27  1  0  0  0  0
 25 56  1  0  0  0  0
 26 28  2  0  0  0  0
 26 57  1  0  0  0  0
 27 29  2  0  0  0  0
 28 29  1  0  0  0  0
 28 58  1  0  0  0  0
 29 59  1  0  0  0  0
M  END
> <PUBCHEM_COMPOUND_CID>
26744652

> <PUBCHEM_CONFORMER_RMSD>
1.2

> <PUBCHEM_CONFORMER_DIVERSEORDER>
1
124
81
96
57
83
18
120
37
138
119
144
87
67
39
114
116
4
71
190
97
182
91
44
178
32
167
27
95
47
115
10
89
142
137
24
177
192
136
160
6
154
53
201
110
64
165
179
205
189
183
128
34
127
106
135
42
2
49
45
130
58
181
157
164
143
75
162
69
82
78
155
74
72
101
125
15
56
175
195
122
20
166
28
30
196
48
76
198
112
117
140
55
184
43
159
171
61
70
5
197
163
108
85
134
204
107
129
68
80
54
109
149
99
59
51
191
12
148
19
29
153
199
65
173
3
203
170
202
169
50
41
79
150
60
73
86
93
66
22
62
113
104
31
123
147
174
194
88
38
156
176
161
188
92
158
133
172
141
193
25
11
132
40
46
13
105
146
187
63
8
185
103
16
94
26
23
111
36
84
186
180
100
21
139
200
118
152
33
35
126
121
102
168
145
14
52
77
90
17
9
7
151
98
131

> <PUBCHEM_MMFF94_PARTIAL_CHARGES>
37
1 -0.18
10 0.28
11 0.28
12 0.28
13 0.28
14 0.06
15 0.27
16 0.57
17 0.27
18 0.3
19 0.41
2 -0.56
20 0.27
21 0.27
22 0.28
23 0.28
24 -0.14
25 -0.15
26 -0.15
27 0.18
28 -0.15
29 -0.15
3 -0.68
38 0.4
39 0.4
4 -0.68
40 0.36
43 0.37
5 -0.57
56 0.15
57 0.15
58 0.15
59 0.15
6 -0.56
7 -0.9
8 -0.73
9 -0.81

> <PUBCHEM_EFFECTIVE_ROTOR_COUNT>
12.2

> <PUBCHEM_PHARMACOPHORE_FEATURES>
14
1 2 acceptor
1 3 acceptor
1 3 donor
1 4 acceptor
1 4 donor
1 5 acceptor
1 6 acceptor
1 7 cation
1 7 donor
1 8 donor
1 9 cation
5 2 10 11 12 13 rings
6 24 25 26 27 28 29 rings
6 6 9 20 21 22 23 rings

> <PUBCHEM_HEAVY_ATOM_COUNT>
29

> <PUBCHEM_ATOM_DEF_STEREO_COUNT>
4

> <PUBCHEM_ATOM_UDEF_STEREO_COUNT>
0

> <PUBCHEM_BOND_DEF_STEREO_COUNT>
0

> <PUBCHEM_BOND_UDEF_STEREO_COUNT>
0

> <PUBCHEM_ISOTOPIC_ATOM_COUNT>
0

> <PUBCHEM_COMPONENT_COUNT>
1

> <PUBCHEM_CACTVS_TAUTO_COUNT>
2

> <PUBCHEM_CONFORMER_ID>
0198174C00000001

> <PUBCHEM_MMFF94_ENERGY>
56.4737

> <PUBCHEM_FEATURE_SELFOVERLAP>
71.059

> <PUBCHEM_SHAPE_FINGERPRINT>
10556698 54 17032417399864184237
11513181 2 18196931282583814262
11763389 116 18269002063147267332
12788726 201 17903640679127754522
13402501 40 18335692871281901784
13642711 20 17973692871362249111
13761468 95 16903013526363307314
14647877 51 18410573994242682336
15264996 44 18270129023267181494
15419009 47 16683173834644162214
15968369 26 18336812144445162164
16067689 134 17762332519069830469
20642791 239 17974559205458900361
20642791 35 18193543481754385489
20764821 26 18122628520451778460
21344244 246 18196074755121618623
23559900 14 18407758148763101516
238918 7 18268975661455577152
3027735 51 17621030297984902951
3298306 158 18193277622550594092
354706 132 17828779344114580582
3610482 184 17254033790858861214
373842 8 18408879643083167848
5081480 168 18199490825415063978
532947 4 18335968844911862717
9980921 221 17616282199140032318

> <PUBCHEM_SHAPE_MULTIPOLES>
554.39
10.89
7.82
1.54
6.42
3.68
0.09
-4.7
2.36
-11.51
1.29
-0.04
-0.84
3.4

> <PUBCHEM_SHAPE_SELFOVERLAP>
1132.308

> <PUBCHEM_SHAPE_VOLUME>
321.1

> <PUBCHEM_COORDINATE_TYPE>
2
5
10

$$$$
