7673828
  -OEChem-12032416113D

 52 55  0     1  0  0  0  0  0999 V2000
    0.8886    1.6120    1.7575 O   0  0  0  0  0  0  0  0  0  0  0  0
   -2.8833   -1.9112    1.8018 O   0  0  0  0  0  0  0  0  0  0  0  0
   -3.4624   -0.2883    0.2508 N   0  0  0  0  0  0  0  0  0  0  0  0
   -0.9493    1.6250    0.3219 N   0  0  0  0  0  0  0  0  0  0  0  0
   -2.5337   -2.3585   -0.4195 N   0  0  0  0  0  0  0  0  0  0  0  0
    5.4651   -2.9847    0.7012 N   0  0  0  0  0  0  0  0  0  0  0  0
   -3.3393    2.0317    1.1489 C   0  0  1  0  0  0  0  0  0  0  0  0
   -2.9243    1.6195   -1.2421 C   0  0  2  0  0  0  0  0  0  0  0  0
   -3.5786    2.5831   -0.2524 C   0  0  0  0  0  0  0  0  0  0  0  0
   -3.9500    0.6240    1.2888 C   0  0  0  0  0  0  0  0  0  0  0  0
   -1.8305    2.0356    1.4252 C   0  0  0  0  0  0  0  0  0  0  0  0
   -3.5910    0.2348   -1.1202 C   0  0  0  0  0  0  0  0  0  0  0  0
   -1.4348    1.4973   -0.9822 C   0  0  0  0  0  0  0  0  0  0  0  0
   -0.5909    1.2340   -1.9925 C   0  0  0  0  0  0  0  0  0  0  0  0
    0.4173    1.4720    0.6276 C   0  0  0  0  0  0  0  0  0  0  0  0
   -2.9586   -1.5453    0.6239 C   0  0  0  0  0  0  0  0  0  0  0  0
    1.3327    1.1388   -0.5199 C   0  0  0  0  0  0  0  0  0  0  0  0
    0.8117    1.0474   -1.7526 C   0  0  0  0  0  0  0  0  0  0  0  0
    2.7715    0.9054   -0.3054 C   0  0  0  0  0  0  0  0  0  0  0  0
   -1.9807   -3.6750   -0.1919 C   0  0  0  0  0  0  0  0  0  0  0  0
    3.2375   -0.3795   -0.0249 C   0  0  0  0  0  0  0  0  0  0  0  0
    3.6699    1.9703   -0.3828 C   0  0  0  0  0  0  0  0  0  0  0  0
   -2.3178   -4.6042   -1.3514 C   0  0  0  0  0  0  0  0  0  0  0  0
   -0.4757   -3.5867    0.0251 C   0  0  0  0  0  0  0  0  0  0  0  0
    4.6000   -0.5992    0.1779 C   0  0  0  0  0  0  0  0  0  0  0  0
    5.0322    1.7506   -0.1798 C   0  0  0  0  0  0  0  0  0  0  0  0
    5.4973    0.4658    0.1006 C   0  0  0  0  0  0  0  0  0  0  0  0
    5.0771   -1.9149    0.4665 C   0  0  0  0  0  0  0  0  0  0  0  0
   -3.8271    2.6798    1.8873 H   0  0  0  0  0  0  0  0  0  0  0  0
   -3.0968    2.0018   -2.2566 H   0  0  0  0  0  0  0  0  0  0  0  0
   -3.1539    3.5901   -0.3502 H   0  0  0  0  0  0  0  0  0  0  0  0
   -4.6537    2.6670   -0.4522 H   0  0  0  0  0  0  0  0  0  0  0  0
   -3.7489    0.2261    2.2887 H   0  0  0  0  0  0  0  0  0  0  0  0
   -5.0401    0.6775    1.1784 H   0  0  0  0  0  0  0  0  0  0  0  0
   -1.5232    3.0583    1.6833 H   0  0  0  0  0  0  0  0  0  0  0  0
   -1.6002    1.4206    2.3043 H   0  0  0  0  0  0  0  0  0  0  0  0
   -4.6658    0.3167   -1.3263 H   0  0  0  0  0  0  0  0  0  0  0  0
   -3.1852   -0.4349   -1.8774 H   0  0  0  0  0  0  0  0  0  0  0  0
   -0.9437    1.1184   -3.0121 H   0  0  0  0  0  0  0  0  0  0  0  0
    1.4277    0.8075   -2.6144 H   0  0  0  0  0  0  0  0  0  0  0  0
   -2.4887   -2.0150   -1.3679 H   0  0  0  0  0  0  0  0  0  0  0  0
   -2.4345   -4.0882    0.7170 H   0  0  0  0  0  0  0  0  0  0  0  0
    2.5367   -1.2107    0.0368 H   0  0  0  0  0  0  0  0  0  0  0  0
   -1.8901   -4.2389   -2.2917 H   0  0  0  0  0  0  0  0  0  0  0  0
   -1.9320   -5.6127   -1.1703 H   0  0  0  0  0  0  0  0  0  0  0  0
   -3.4024   -4.6752   -1.4885 H   0  0  0  0  0  0  0  0  0  0  0  0
    0.0271   -3.1614   -0.8509 H   0  0  0  0  0  0  0  0  0  0  0  0
   -0.2388   -2.9453    0.8812 H   0  0  0  0  0  0  0  0  0  0  0  0
   -0.0485   -4.5763    0.2170 H   0  0  0  0  0  0  0  0  0  0  0  0
    3.3227    2.9778   -0.5995 H   0  0  0  0  0  0  0  0  0  0  0  0
    5.7309    2.5800   -0.2398 H   0  0  0  0  0  0  0  0  0  0  0  0
    6.5622    0.3106    0.2566 H   0  0  0  0  0  0  0  0  0  0  0  0
  1 15  2  0  0  0  0
  2 16  2  0  0  0  0
  3 10  1  0  0  0  0
  3 12  1  0  0  0  0
  3 16  1  0  0  0  0
  4 11  1  0  0  0  0
  4 13  1  0  0  0  0
  4 15  1  0  0  0  0
  5 16  1  0  0  0  0
  5 20  1  0  0  0  0
  5 41  1  0  0  0  0
  6 28  3  0  0  0  0
  7  9  1  0  0  0  0
  7 10  1  0  0  0  0
  7 11  1  0  0  0  0
  7 29  1  0  0  0  0
  8  9  1  0  0  0  0
  8 12  1  0  0  0  0
  8 13  1  0  0  0  0
  8 30  1  0  0  0  0
  9 31  1  0  0  0  0
  9 32  1  0  0  0  0
 10 33  1  0  0  0  0
 10 34  1  0  0  0  0
 11 35  1  0  0  0  0
 11 36  1  0  0  0  0
 12 37  1  0  0  0  0
 12 38  1  0  0  0  0
 13 14  2  0  0  0  0
 14 18  1  0  0  0  0
 14 39  1  0  0  0  0
 15 17  1  0  0  0  0
 17 18  2  0  0  0  0
 17 19  1  0  0  0  0
 18 40  1  0  0  0  0
 19 21  1  0  0  0  0
 19 22  2  0  0  0  0
 20 23  1  0  0  0  0
 20 24  1  0  0  0  0
 20 42  1  0  0  0  0
 21 25  2  0  0  0  0
 21 43  1  0  0  0  0
 22 26  1  0  0  0  0
 22 50  1  0  0  0  0
 23 44  1  0  0  0  0
 23 45  1  0  0  0  0
 23 46  1  0  0  0  0
 24 47  1  0  0  0  0
 24 48  1  0  0  0  0
 24 49  1  0  0  0  0
 25 27  1  0  0  0  0
 25 28  1  0  0  0  0
 26 27  2  0  0  0  0
 26 51  1  0  0  0  0
 27 52  1  0  0  0  0
M  END
> <PUBCHEM_COMPOUND_CID>
7673828

> <PUBCHEM_CONFORMER_RMSD>
0.8

> <PUBCHEM_CONFORMER_DIVERSEORDER>
1
12
7
14
6
4
11
10
5
13
2
3
8
9

> <PUBCHEM_MMFF94_PARTIAL_CHARGES>
31
1 -0.57
10 0.3
11 0.3
12 0.3
13 -0.03
14 -0.15
15 0.62
16 0.69
17 -0.01
18 -0.15
19 0.03
2 -0.57
20 0.3
21 -0.15
22 -0.15
25 0.07
26 -0.15
27 -0.15
28 0.48
3 -0.66
39 0.15
4 -0.47
40 0.15
41 0.37
43 0.15
5 -0.73
50 0.15
51 0.15
52 0.15
6 -0.56
8 0.14

> <PUBCHEM_EFFECTIVE_ROTOR_COUNT>
5

> <PUBCHEM_PHARMACOPHORE_FEATURES>
9
1 1 acceptor
1 2 acceptor
1 5 donor
1 6 acceptor
3 20 23 24 hydrophobe
6 19 21 22 25 26 27 rings
6 3 7 8 9 10 12 rings
6 4 13 14 15 17 18 rings
6 4 7 8 9 11 13 rings

> <PUBCHEM_HEAVY_ATOM_COUNT>
28

> <PUBCHEM_ATOM_DEF_STEREO_COUNT>
2

> <PUBCHEM_ATOM_UDEF_STEREO_COUNT>
0

> <PUBCHEM_BOND_DEF_STEREO_COUNT>
0

> <PUBCHEM_BOND_UDEF_STEREO_COUNT>
0

> <PUBCHEM_ISOTOPIC_ATOM_COUNT>
0

> <PUBCHEM_COMPONENT_COUNT>
1

> <PUBCHEM_CACTVS_TAUTO_COUNT>
2

> <PUBCHEM_CONFORMER_ID>
007517E400000001

> <PUBCHEM_MMFF94_ENERGY>
66.3725

> <PUBCHEM_FEATURE_SELFOVERLAP>
47.261

> <PUBCHEM_SHAPE_FINGERPRINT>
11014199 57 17687190102945876842
11370993 70 18338518534450124413
11513181 2 18058730174085708479
11524674 6 18268985380428646895
11552529 35 18270400628029120252
12236239 1 17989200414100671964
12422481 6 18044968755830031723
12633257 1 17702123536766416971
13583140 156 18201151156951555832
13631057 29 18124033700685989292
14020679 6 17560255656053228225
14028597 1 17631179581062988233
14100547 121 18412546521965791831
14251751 93 18040712558681631024
15250474 111 18337949095355104246
16994733 274 15912218486908176313
20775530 9 17834670874438921967
21344244 246 18049709738695685479
23559900 14 18337105679863768640
338550 245 18187368718931487646
3633792 109 18193263110489571773
463206 1 17617379918874784467
5104073 3 18342737391137328160
6700243 42 12180704719652559984
9981440 41 17058932143910372133

> <PUBCHEM_SHAPE_MULTIPOLES>
544.56
10.63
4.6
1.52
14.86
6.83
0.1
1.33
-1.82
-2.89
0.49
-1.19
-0.36
-1.14

> <PUBCHEM_SHAPE_SELFOVERLAP>
1176.797

> <PUBCHEM_SHAPE_VOLUME>
292.3

> <PUBCHEM_COORDINATE_TYPE>
2
5
10

$$$$
