51136904
  -OEChem-12032416223D

 56 60  0     1  0  0  0  0  0999 V2000
   -1.3437    2.6175   -1.7252 O   0  0  0  0  0  0  0  0  0  0  0  0
   -4.0724   -4.8279    0.5565 O   0  0  0  0  0  0  0  0  0  0  0  0
   -3.6658    1.3024    0.8015 N   0  0  1  0  0  0  0  0  0  0  0  0
   -4.0467   -2.7233   -0.4272 N   0  0  0  0  0  0  0  0  0  0  0  0
   -0.7638    1.5112    0.1340 N   0  0  0  0  0  0  0  0  0  0  0  0
    0.0111    2.2934   -1.8714 N   0  0  0  0  0  0  0  0  0  0  0  0
    3.8765    0.7775   -1.1118 N   0  0  0  0  0  0  0  0  0  0  0  0
    6.9181   -1.9793    1.2249 N   0  0  0  0  0  0  0  0  0  0  0  0
    7.7880   -0.1693   -0.1069 N   0  0  0  0  0  0  0  0  0  0  0  0
   -4.1722    0.1185    0.1115 C   0  0  0  0  0  0  0  0  0  0  0  0
   -3.1651    2.3429   -0.1188 C   0  0  1  0  0  0  0  0  0  0  0  0
   -4.6922    1.9397    1.6267 C   0  0  0  0  0  0  0  0  0  0  0  0
   -3.3760    3.6678    0.6369 C   0  0  0  0  0  0  0  0  0  0  0  0
   -3.0752   -0.4831   -0.7764 C   0  0  0  0  0  0  0  0  0  0  0  0
   -4.6631   -0.9161    1.1324 C   0  0  0  0  0  0  0  0  0  0  0  0
   -4.0547    3.2777    1.9421 C   0  0  0  0  0  0  0  0  0  0  0  0
   -3.5515   -1.7775   -1.4352 C   0  0  0  0  0  0  0  0  0  0  0  0
   -5.1083   -2.2007    0.4356 C   0  0  0  0  0  0  0  0  0  0  0  0
   -1.7213    2.1209   -0.5180 C   0  0  0  0  0  0  0  0  0  0  0  0
   -3.6148   -4.0406   -0.2758 C   0  0  0  0  0  0  0  0  0  0  0  0
   -2.5165   -4.5020   -1.2003 C   0  0  0  0  0  0  0  0  0  0  0  0
    0.2795    1.6425   -0.7356 C   0  0  0  0  0  0  0  0  0  0  0  0
    1.5790    1.1128   -0.4384 C   0  0  0  0  0  0  0  0  0  0  0  0
    1.8231    0.4419    0.7549 C   0  0  0  0  0  0  0  0  0  0  0  0
    2.6298    1.2528   -1.3304 C   0  0  0  0  0  0  0  0  0  0  0  0
    3.0929   -0.0612    1.0158 C   0  0  0  0  0  0  0  0  0  0  0  0
    4.0761    0.1313    0.0588 C   0  0  0  0  0  0  0  0  0  0  0  0
    5.4173   -0.3628    0.2617 C   0  0  0  0  0  0  0  0  0  0  0  0
    5.6785   -1.4910    1.0121 C   0  0  0  0  0  0  0  0  0  0  0  0
    6.5217    0.2635   -0.2789 C   0  0  0  0  0  0  0  0  0  0  0  0
    7.9118   -1.2797    0.6448 C   0  0  0  0  0  0  0  0  0  0  0  0
   -5.0201    0.3941   -0.5324 H   0  0  0  0  0  0  0  0  0  0  0  0
   -3.7792    2.3824   -1.0299 H   0  0  0  0  0  0  0  0  0  0  0  0
   -5.6314    2.0873    1.0787 H   0  0  0  0  0  0  0  0  0  0  0  0
   -4.8960    1.3972    2.5546 H   0  0  0  0  0  0  0  0  0  0  0  0
   -4.0413    4.3204    0.0584 H   0  0  0  0  0  0  0  0  0  0  0  0
   -2.4495    4.2194    0.8300 H   0  0  0  0  0  0  0  0  0  0  0  0
   -2.1804   -0.7088   -0.1829 H   0  0  0  0  0  0  0  0  0  0  0  0
   -2.8009    0.1806   -1.6004 H   0  0  0  0  0  0  0  0  0  0  0  0
   -5.5147   -0.5428    1.7112 H   0  0  0  0  0  0  0  0  0  0  0  0
   -3.8601   -1.1529    1.8431 H   0  0  0  0  0  0  0  0  0  0  0  0
   -4.7849    4.0244    2.2677 H   0  0  0  0  0  0  0  0  0  0  0  0
   -3.3034    3.1674    2.7340 H   0  0  0  0  0  0  0  0  0  0  0  0
   -4.3826   -1.5738   -2.1212 H   0  0  0  0  0  0  0  0  0  0  0  0
   -2.7404   -2.2010   -2.0302 H   0  0  0  0  0  0  0  0  0  0  0  0
   -5.4028   -2.9429    1.1842 H   0  0  0  0  0  0  0  0  0  0  0  0
   -5.9821   -2.0110   -0.1990 H   0  0  0  0  0  0  0  0  0  0  0  0
   -1.6191   -3.8951   -1.0535 H   0  0  0  0  0  0  0  0  0  0  0  0
   -2.8504   -4.4499   -2.2399 H   0  0  0  0  0  0  0  0  0  0  0  0
   -2.2645   -5.5428   -0.9748 H   0  0  0  0  0  0  0  0  0  0  0  0
    1.0447    0.3004    1.5002 H   0  0  0  0  0  0  0  0  0  0  0  0
    2.5225    1.7627   -2.2832 H   0  0  0  0  0  0  0  0  0  0  0  0
    3.2731   -0.5647    1.9596 H   0  0  0  0  0  0  0  0  0  0  0  0
    4.8960   -2.0851    1.4734 H   0  0  0  0  0  0  0  0  0  0  0  0
    6.4428    1.1647   -0.8796 H   0  0  0  0  0  0  0  0  0  0  0  0
    8.9179   -1.6496    0.7993 H   0  0  0  0  0  0  0  0  0  0  0  0
  1  6  1  0  0  0  0
  1 19  1  0  0  0  0
  2 20  2  0  0  0  0
  3 10  1  0  0  0  0
  3 11  1  0  0  0  0
  3 12  1  0  0  0  0
  4 17  1  0  0  0  0
  4 18  1  0  0  0  0
  4 20  1  0  0  0  0
  5 19  2  0  0  0  0
  5 22  1  0  0  0  0
  6 22  2  0  0  0  0
  7 25  1  0  0  0  0
  7 27  2  0  0  0  0
  8 29  2  0  0  0  0
  8 31  1  0  0  0  0
  9 30  1  0  0  0  0
  9 31  2  0  0  0  0
 10 14  1  0  0  0  0
 10 15  1  0  0  0  0
 10 32  1  0  0  0  0
 11 13  1  0  0  0  0
 11 19  1  0  0  0  0
 11 33  1  0  0  0  0
 12 16  1  0  0  0  0
 12 34  1  0  0  0  0
 12 35  1  0  0  0  0
 13 16  1  0  0  0  0
 13 36  1  0  0  0  0
 13 37  1  0  0  0  0
 14 17  1  0  0  0  0
 14 38  1  0  0  0  0
 14 39  1  0  0  0  0
 15 18  1  0  0  0  0
 15 40  1  0  0  0  0
 15 41  1  0  0  0  0
 16 42  1  0  0  0  0
 16 43  1  0  0  0  0
 17 44  1  0  0  0  0
 17 45  1  0  0  0  0
 18 46  1  0  0  0  0
 18 47  1  0  0  0  0
 20 21  1  0  0  0  0
 21 48  1  0  0  0  0
 21 49  1  0  0  0  0
 21 50  1  0  0  0  0
 22 23  1  0  0  0  0
 23 24  1  0  0  0  0
 23 25  2  0  0  0  0
 24 26  2  0  0  0  0
 24 51  1  0  0  0  0
 25 52  1  0  0  0  0
 26 27  1  0  0  0  0
 26 53  1  0  0  0  0
 27 28  1  0  0  0  0
 28 29  1  0  0  0  0
 28 30  2  0  0  0  0
 29 54  1  0  0  0  0
 30 55  1  0  0  0  0
 31 56  1  0  0  0  0
M  END
> <PUBCHEM_COMPOUND_CID>
51136904

> <PUBCHEM_CONFORMER_RMSD>
1

> <PUBCHEM_CONFORMER_DIVERSEORDER>
1
41
39
27
10
40
12
42
32
38
15
29
18
34
20
3
5
33
11
17
22
16
28
30
2
14
6
19
43
24
36
23
13
21
31
4
35
37
9
25
7
26
8

> <PUBCHEM_MMFF94_PARTIAL_CHARGES>
32
1 -0.02
10 0.27
11 0.45
12 0.27
17 0.3
18 0.3
19 0.3
2 -0.57
20 0.57
21 0.06
22 0.46
23 0.05
24 -0.15
25 0.16
26 -0.15
27 0.31
29 0.16
3 -0.81
30 0.16
31 0.47
4 -0.66
5 -0.57
51 0.15
52 0.15
53 0.15
54 0.15
55 0.15
56 0.15
6 -0.41
7 -0.62
8 -0.62
9 -0.62

> <PUBCHEM_EFFECTIVE_ROTOR_COUNT>
7.2

> <PUBCHEM_PHARMACOPHORE_FEATURES>
11
1 2 acceptor
1 3 cation
1 7 acceptor
1 8 acceptor
3 5 6 22 cation
3 8 9 31 cation
5 1 5 6 19 22 rings
5 3 11 12 13 16 rings
6 4 10 14 15 17 18 rings
6 7 23 24 25 26 27 rings
6 8 9 28 29 30 31 rings

> <PUBCHEM_HEAVY_ATOM_COUNT>
31

> <PUBCHEM_ATOM_DEF_STEREO_COUNT>
1

> <PUBCHEM_ATOM_UDEF_STEREO_COUNT>
0

> <PUBCHEM_BOND_DEF_STEREO_COUNT>
0

> <PUBCHEM_BOND_UDEF_STEREO_COUNT>
0

> <PUBCHEM_ISOTOPIC_ATOM_COUNT>
0

> <PUBCHEM_COMPONENT_COUNT>
1

> <PUBCHEM_CACTVS_TAUTO_COUNT>
1

> <PUBCHEM_CONFORMER_ID>
030C498800000001

> <PUBCHEM_MMFF94_ENERGY>
67.2503

> <PUBCHEM_FEATURE_SELFOVERLAP>
55.824

> <PUBCHEM_SHAPE_FINGERPRINT>
10305334 12 18408043988086558851
10319688 45 18408601452707308517
10391435 84 18263628697696727136
10622 236 18190741036572716615
11227150 75 16481879051356339679
11524674 6 17704064066966983526
117089 54 17900266595701826787
11963148 33 18115300061337984562
12174731 88 18334852822802605611
12422481 6 18271810056276780782
12522641 33 18047176459811594749
12522641 68 17101409494916746612
12988421 55 17840597994222912353
13009979 54 18265900340212029037
1361 4 18409164399431385602
13782708 43 18334850590294571248
14150023 24 18053103922337723545
14705955 166 17059792031091769417
14844126 61 18412267242413136793
14856354 85 18272932696208597492
14950920 106 18273213114349105224
15021287 119 17603874377485752548
15183329 4 17531246137292674474
15250474 111 18335424581965462078
15289351 153 9870876089561227642
15320294 125 18334583430080114447
15326921 28 17907011781483942056
15348495 7 18059849554927936504
15439362 3 17617660952429887869
15467298 65 18187635874440599554
15728490 83 18116720797184313875
15799311 1 18338244769525272474
16110190 28 18265895757149829314
17324776 126 17627489855425928894
17780758 139 18342457023940399937
17913733 40 16056882412362864174
19246450 95 18339942428827464361
208703 8 18114743862381705363
21033648 29 16486704567055791841
229767 44 18411705361653799287
23516275 137 17977125469481777962
23522609 53 18044968751805206716
23523787 8 17684603781509346279
2838139 119 9799687117506996406
3383291 50 18343025497944463275
397830 11 18129931374089555088
4015057 19 17095819797118783916
4017518 198 18268143163702510079
4073 2 18130509635395333030
4435113 14 18130517327640582550
484985 159 18335975420485629383
4938544 92 18271525290943950297
5080951 261 18263627524711907972
5104073 3 18272646862114401128
5364581 5 17917418878521433128
563151 74 15841563941750932807
6058803 2 18118987990166069205
636775 72 9727335941338967558
6431902 208 18040435494937299626
6691757 9 18272656693484413209
68570916 9 18409730682279175264
7970288 3 18190739923991875635
9896288 288 18341342081059190681
9953998 17 18343299236999363000

> <PUBCHEM_SHAPE_MULTIPOLES>
591.36
18.17
5.15
1.5
38.92
5.07
0.09
9.05
-6.22
-11.62
0.1
-0.65
-0.61
-2.91

> <PUBCHEM_SHAPE_SELFOVERLAP>
1286.957

> <PUBCHEM_SHAPE_VOLUME>
319.6

> <PUBCHEM_COORDINATE_TYPE>
2
5
10

$$$$
