28962290
  -OEChem-12032416343D

 65 67  0     1  0  0  0  0  0999 V2000
   -2.9000   -2.8557   -0.7114 O   0  0  0  0  0  0  0  0  0  0  0  0
   -4.9503   -1.8690    1.2357 O   0  0  0  0  0  0  0  0  0  0  0  0
   -4.3695   -5.1987   -1.2168 O   0  0  0  0  0  0  0  0  0  0  0  0
    0.6002   -0.0087    0.5376 O   0  0  0  0  0  0  0  0  0  0  0  0
    4.9284    1.7231   -0.1805 O   0  0  0  0  0  0  0  0  0  0  0  0
    6.6097   -2.7445   -0.1592 O   0  0  0  0  0  0  0  0  0  0  0  0
   -3.6605    0.5559    0.4124 N   0  0  1  0  0  0  0  0  0  0  0  0
   -0.3839   -2.0852    0.8031 N   0  0  0  0  0  0  0  0  0  0  0  0
    1.8949   -1.9656    0.4697 N   0  0  0  0  0  0  0  0  0  0  0  0
   -2.2244    4.8070   -0.2275 N   0  0  0  0  0  0  0  0  0  0  0  0
   -3.6862   -0.6265   -0.4307 C   0  0  1  0  0  0  0  0  0  0  0  0
   -2.4449   -1.5262   -0.3748 C   0  0  1  0  0  0  0  0  0  0  0  0
   -4.8250   -1.5960   -0.1539 C   0  0  1  0  0  0  0  0  0  0  0  0
   -4.3287   -2.8316   -0.8953 C   0  0  2  0  0  0  0  0  0  0  0  0
   -1.7284   -1.6201    0.9677 C   0  0  0  0  0  0  0  0  0  0  0  0
   -4.9156   -4.1519   -0.4306 C   0  0  0  0  0  0  0  0  0  0  0  0
   -2.8164    1.5996   -0.1779 C   0  0  0  0  0  0  0  0  0  0  0  0
   -5.0159    1.0706    0.6314 C   0  0  0  0  0  0  0  0  0  0  0  0
   -2.4213    2.6417    0.8689 C   0  0  0  0  0  0  0  0  0  0  0  0
   -1.5707    3.7333    0.2697 C   0  0  0  0  0  0  0  0  0  0  0  0
    0.7125   -1.2309    0.5949 C   0  0  0  0  0  0  0  0  0  0  0  0
   -0.1926    3.5898    0.2574 C   0  0  0  0  0  0  0  0  0  0  0  0
    0.5632    4.6146   -0.3009 C   0  0  0  0  0  0  0  0  0  0  0  0
    3.2033   -1.4743    0.2529 C   0  0  0  0  0  0  0  0  0  0  0  0
   -1.4565    5.7829   -0.7622 C   0  0  0  0  0  0  0  0  0  0  0  0
   -0.0731    5.7355   -0.8226 C   0  0  0  0  0  0  0  0  0  0  0  0
    4.2742   -2.3624    0.1517 C   0  0  0  0  0  0  0  0  0  0  0  0
    3.4232   -0.1012    0.1409 C   0  0  0  0  0  0  0  0  0  0  0  0
    4.7137    0.3834   -0.0721 C   0  0  0  0  0  0  0  0  0  0  0  0
    5.5648   -1.8779   -0.0610 C   0  0  0  0  0  0  0  0  0  0  0  0
    5.7846   -0.5048   -0.1730 C   0  0  0  0  0  0  0  0  0  0  0  0
    3.7889    2.5743   -0.0665 C   0  0  0  0  0  0  0  0  0  0  0  0
    7.9023   -2.1806   -0.3769 C   0  0  0  0  0  0  0  0  0  0  0  0
   -3.8154   -0.3178   -1.4810 H   0  0  0  0  0  0  0  0  0  0  0  0
   -1.7379   -1.2125   -1.1532 H   0  0  0  0  0  0  0  0  0  0  0  0
   -5.7947   -1.2583   -0.5352 H   0  0  0  0  0  0  0  0  0  0  0  0
   -4.4874   -2.7149   -1.9751 H   0  0  0  0  0  0  0  0  0  0  0  0
   -2.2273   -2.3288    1.6371 H   0  0  0  0  0  0  0  0  0  0  0  0
   -1.6756   -0.6513    1.4717 H   0  0  0  0  0  0  0  0  0  0  0  0
   -6.0044   -4.1582   -0.5394 H   0  0  0  0  0  0  0  0  0  0  0  0
   -4.6504   -4.3623    0.6103 H   0  0  0  0  0  0  0  0  0  0  0  0
   -1.8894    1.1604   -0.5691 H   0  0  0  0  0  0  0  0  0  0  0  0
   -3.3122    2.0745   -1.0358 H   0  0  0  0  0  0  0  0  0  0  0  0
   -5.0145    1.9998    1.2083 H   0  0  0  0  0  0  0  0  0  0  0  0
   -5.6343    0.3981    1.2315 H   0  0  0  0  0  0  0  0  0  0  0  0
   -5.5349    1.2750   -0.3129 H   0  0  0  0  0  0  0  0  0  0  0  0
   -5.7527   -2.4040    1.3592 H   0  0  0  0  0  0  0  0  0  0  0  0
   -1.8816    2.1652    1.6977 H   0  0  0  0  0  0  0  0  0  0  0  0
   -3.2951    3.1262    1.3165 H   0  0  0  0  0  0  0  0  0  0  0  0
   -0.2175   -3.0866    0.8262 H   0  0  0  0  0  0  0  0  0  0  0  0
   -4.7643   -6.0296   -0.9016 H   0  0  0  0  0  0  0  0  0  0  0  0
    0.2960    2.7145    0.6699 H   0  0  0  0  0  0  0  0  0  0  0  0
    1.8131   -2.9767    0.5414 H   0  0  0  0  0  0  0  0  0  0  0  0
    1.6455    4.5461   -0.3273 H   0  0  0  0  0  0  0  0  0  0  0  0
   -2.0007    6.6353   -1.1551 H   0  0  0  0  0  0  0  0  0  0  0  0
    0.4960    6.5468   -1.2617 H   0  0  0  0  0  0  0  0  0  0  0  0
    4.1104   -3.4341    0.2380 H   0  0  0  0  0  0  0  0  0  0  0  0
    2.6025    0.5881    0.2180 H   0  0  0  0  0  0  0  0  0  0  0  0
    6.7634   -0.0666   -0.3385 H   0  0  0  0  0  0  0  0  0  0  0  0
    4.1461    3.6036   -0.1770 H   0  0  0  0  0  0  0  0  0  0  0  0
    3.3283    2.5043    0.9248 H   0  0  0  0  0  0  0  0  0  0  0  0
    3.0733    2.3991   -0.8770 H   0  0  0  0  0  0  0  0  0  0  0  0
    8.6127   -3.0121   -0.4293 H   0  0  0  0  0  0  0  0  0  0  0  0
    8.2122   -1.5485    0.4622 H   0  0  0  0  0  0  0  0  0  0  0  0
    7.9555   -1.6541   -1.3359 H   0  0  0  0  0  0  0  0  0  0  0  0
  1 12  1  0  0  0  0
  1 14  1  0  0  0  0
  2 13  1  0  0  0  0
  2 47  1  0  0  0  0
  3 16  1  0  0  0  0
  3 51  1  0  0  0  0
  4 21  2  0  0  0  0
  5 29  1  0  0  0  0
  5 32  1  0  0  0  0
  6 30  1  0  0  0  0
  6 33  1  0  0  0  0
  7 11  1  0  0  0  0
  7 17  1  0  0  0  0
  7 18  1  0  0  0  0
  8 15  1  0  0  0  0
  8 21  1  0  0  0  0
  8 50  1  0  0  0  0
  9 21  1  0  0  0  0
  9 24  1  0  0  0  0
  9 53  1  0  0  0  0
 10 20  1  0  0  0  0
 10 25  2  0  0  0  0
 11 12  1  0  0  0  0
 11 13  1  0  0  0  0
 11 34  1  0  0  0  0
 12 15  1  0  0  0  0
 12 35  1  0  0  0  0
 13 14  1  0  0  0  0
 13 36  1  0  0  0  0
 14 16  1  0  0  0  0
 14 37  1  0  0  0  0
 15 38  1  0  0  0  0
 15 39  1  0  0  0  0
 16 40  1  0  0  0  0
 16 41  1  0  0  0  0
 17 19  1  0  0  0  0
 17 42  1  0  0  0  0
 17 43  1  0  0  0  0
 18 44  1  0  0  0  0
 18 45  1  0  0  0  0
 18 46  1  0  0  0  0
 19 20  1  0  0  0  0
 19 48  1  0  0  0  0
 19 49  1  0  0  0  0
 20 22  2  0  0  0  0
 22 23  1  0  0  0  0
 22 52  1  0  0  0  0
 23 26  2  0  0  0  0
 23 54  1  0  0  0  0
 24 27  2  0  0  0  0
 24 28  1  0  0  0  0
 25 26  1  0  0  0  0
 25 55  1  0  0  0  0
 26 56  1  0  0  0  0
 27 30  1  0  0  0  0
 27 57  1  0  0  0  0
 28 29  2  0  0  0  0
 28 58  1  0  0  0  0
 29 31  1  0  0  0  0
 30 31  2  0  0  0  0
 31 59  1  0  0  0  0
 32 60  1  0  0  0  0
 32 61  1  0  0  0  0
 32 62  1  0  0  0  0
 33 63  1  0  0  0  0
 33 64  1  0  0  0  0
 33 65  1  0  0  0  0
M  END
> <PUBCHEM_COMPOUND_CID>
28962290

> <PUBCHEM_CONFORMER_RMSD>
1.2

> <PUBCHEM_CONFORMER_DIVERSEORDER>
1
41
34
27
5
30
23
19
33
24
25
20
22
4
11
28
12
15
18
16
42
40
35
39
2
37
43
17
21
31
3
44
26
32
13
9
46
7
6
38
47
14
29
36
8
45
10

> <PUBCHEM_MMFF94_PARTIAL_CHARGES>
44
1 -0.56
10 -0.62
11 0.27
12 0.28
13 0.28
14 0.28
15 0.3
16 0.28
17 0.27
18 0.27
19 0.14
2 -0.68
20 0.17
21 0.69
22 -0.15
23 -0.15
24 0.12
25 0.16
26 -0.15
27 -0.15
28 -0.15
29 0.08
3 -0.68
30 0.08
31 -0.15
32 0.28
33 0.28
4 -0.57
47 0.4
5 -0.36
50 0.37
51 0.4
52 0.15
53 0.37
54 0.15
55 0.15
56 0.15
57 0.15
58 0.15
59 0.15
6 -0.36
7 -0.81
8 -0.73
9 -0.55

> <PUBCHEM_EFFECTIVE_ROTOR_COUNT>
13

> <PUBCHEM_PHARMACOPHORE_FEATURES>
15
1 1 acceptor
1 10 acceptor
1 2 acceptor
1 2 donor
1 3 acceptor
1 3 donor
1 4 acceptor
1 5 acceptor
1 6 acceptor
1 7 cation
1 8 donor
1 9 donor
5 1 11 12 13 14 rings
6 10 20 22 23 25 26 rings
6 24 27 28 29 30 31 rings

> <PUBCHEM_HEAVY_ATOM_COUNT>
33

> <PUBCHEM_ATOM_DEF_STEREO_COUNT>
4

> <PUBCHEM_ATOM_UDEF_STEREO_COUNT>
0

> <PUBCHEM_BOND_DEF_STEREO_COUNT>
0

> <PUBCHEM_BOND_UDEF_STEREO_COUNT>
0

> <PUBCHEM_ISOTOPIC_ATOM_COUNT>
0

> <PUBCHEM_COMPONENT_COUNT>
1

> <PUBCHEM_CACTVS_TAUTO_COUNT>
6

> <PUBCHEM_CONFORMER_ID>
01B9EDF200000001

> <PUBCHEM_MMFF94_ENERGY>
108.3753

> <PUBCHEM_FEATURE_SELFOVERLAP>
76.181

> <PUBCHEM_SHAPE_FINGERPRINT>
100830 39 18265616473228496334
10290309 65 17402055495954768993
11014199 57 18410290320074118828
11093857 51 17188393410267809633
11763715 3 18263946447598266982
12107183 9 17396974661782295202
12645989 146 18413394241694885566
12788726 201 18189330178206468296
13347071 3 18337110047439340020
1361 2 17834111231620881360
13761468 95 18044369427155739191
138480 1 15312093735301974721
14394314 77 18337684095493964369
15320467 1 18193838145953221896
15400415 2 17401202271481166444
15419008 42 17483676698677915718
15773216 30 17473540734683591199
15876981 60 18335707139126388383
15968369 26 17544455905795004217
17844677 252 18411987961796078866
19301676 85 18337945702420546671
19611394 137 18187944897542469539
21133410 171 17612821111721908970
23559900 14 18126553751588767187
24771750 20 17252025437853432997
3504750 166 18268699542113907562
4015057 19 18117559741324426986
4046055 25 18340203093495466223
6608658 132 18338249244659558468
6700243 42 17914648057626485270

> <PUBCHEM_SHAPE_MULTIPOLES>
623.98
15.09
8.56
0.89
23.15
11.02
0.01
-17.43
-1.45
-8.81
-2.75
-0.7
-0.2
-1.16

> <PUBCHEM_SHAPE_SELFOVERLAP>
1304.481

> <PUBCHEM_SHAPE_VOLUME>
352.5

> <PUBCHEM_COORDINATE_TYPE>
2
5
10

$$$$
