7135498
  -OEChem-12032416363D

 52 57  0     1  0  0  0  0  0999 V2000
   -7.2209    0.7014    1.0249 S   0  0  0  0  0  0  0  0  0  0  0  0
   -2.8860    2.3471    0.1348 O   0  0  0  0  0  0  0  0  0  0  0  0
    0.1127   -1.8811    1.1718 O   0  0  0  0  0  0  0  0  0  0  0  0
   -5.8433    0.7283   -2.1331 O   0  0  0  0  0  0  0  0  0  0  0  0
    8.0758    0.6527    0.7657 O   0  0  0  0  0  0  0  0  0  0  0  0
    8.4231   -1.4125   -0.4270 O   0  0  0  0  0  0  0  0  0  0  0  0
   -1.5143   -0.6485    0.0836 N   0  0  0  0  0  0  0  0  0  0  0  0
   -4.2765   -0.1844   -0.6952 N   0  0  0  0  0  0  0  0  0  0  0  0
   -0.6307    2.1582    0.3822 N   0  0  0  0  0  0  0  0  0  0  0  0
   -1.8456    0.4095   -0.8602 C   0  0  1  0  0  0  0  0  0  0  0  0
   -3.1690    0.1570   -1.5926 C   0  0  0  0  0  0  0  0  0  0  0  0
   -2.5753   -1.5947    0.4308 C   0  0  0  0  0  0  0  0  0  0  0  0
   -3.9297   -0.9088    0.5343 C   0  0  0  0  0  0  0  0  0  0  0  0
   -1.8552    1.6977   -0.0527 C   0  0  0  0  0  0  0  0  0  0  0  0
   -0.2173   -0.8831    0.5290 C   0  0  0  0  0  0  0  0  0  0  0  0
    0.8338    0.1318    0.2497 C   0  0  0  0  0  0  0  0  0  0  0  0
    0.6241    1.5200    0.2914 C   0  0  0  0  0  0  0  0  0  0  0  0
   -5.5946    0.1173   -1.0918 C   0  0  0  0  0  0  0  0  0  0  0  0
    2.1441   -0.3636    0.1163 C   0  0  0  0  0  0  0  0  0  0  0  0
    1.7386    2.3770    0.2695 C   0  0  0  0  0  0  0  0  0  0  0  0
    3.2340    0.5031    0.0467 C   0  0  0  0  0  0  0  0  0  0  0  0
   -6.6773   -0.3336   -0.2213 C   0  0  0  0  0  0  0  0  0  0  0  0
    3.0324    1.8740    0.1374 C   0  0  0  0  0  0  0  0  0  0  0  0
    4.5734   -0.0249   -0.0949 C   0  0  0  0  0  0  0  0  0  0  0  0
   -7.3613   -1.5237   -0.2517 C   0  0  0  0  0  0  0  0  0  0  0  0
    5.6538    0.6658    0.4601 C   0  0  0  0  0  0  0  0  0  0  0  0
    4.7768   -1.2300   -0.7908 C   0  0  0  0  0  0  0  0  0  0  0  0
    6.9122    0.1234    0.2987 C   0  0  0  0  0  0  0  0  0  0  0  0
    7.1106   -1.0558   -0.3825 C   0  0  0  0  0  0  0  0  0  0  0  0
    6.0616   -1.7576   -0.9398 C   0  0  0  0  0  0  0  0  0  0  0  0
   -8.3538   -1.5900    0.7685 C   0  0  0  0  0  0  0  0  0  0  0  0
   -8.3848   -0.4462    1.5354 C   0  0  0  0  0  0  0  0  0  0  0  0
    9.0288   -0.3260    0.3028 C   0  0  0  0  0  0  0  0  0  0  0  0
   -1.0539    0.4845   -1.6160 H   0  0  0  0  0  0  0  0  0  0  0  0
   -3.4401    1.0241   -2.2055 H   0  0  0  0  0  0  0  0  0  0  0  0
   -3.0571   -0.6953   -2.2747 H   0  0  0  0  0  0  0  0  0  0  0  0
   -2.3338   -2.0950    1.3748 H   0  0  0  0  0  0  0  0  0  0  0  0
   -2.5889   -2.3622   -0.3528 H   0  0  0  0  0  0  0  0  0  0  0  0
   -4.6961   -1.6529    0.7664 H   0  0  0  0  0  0  0  0  0  0  0  0
   -3.9234   -0.1713    1.3453 H   0  0  0  0  0  0  0  0  0  0  0  0
   -0.6199    3.1172    0.7214 H   0  0  0  0  0  0  0  0  0  0  0  0
    2.2939   -1.4413    0.1154 H   0  0  0  0  0  0  0  0  0  0  0  0
    1.6043    3.4562    0.3193 H   0  0  0  0  0  0  0  0  0  0  0  0
    3.8444    2.5931    0.0751 H   0  0  0  0  0  0  0  0  0  0  0  0
   -7.1657   -2.3130   -0.9664 H   0  0  0  0  0  0  0  0  0  0  0  0
    5.5471    1.5832    1.0288 H   0  0  0  0  0  0  0  0  0  0  0  0
    3.9600   -1.7721   -1.2607 H   0  0  0  0  0  0  0  0  0  0  0  0
    6.2235   -2.6823   -1.4818 H   0  0  0  0  0  0  0  0  0  0  0  0
   -9.0113   -2.4340    0.9317 H   0  0  0  0  0  0  0  0  0  0  0  0
   -9.0351   -0.2295    2.3711 H   0  0  0  0  0  0  0  0  0  0  0  0
    9.5583   -0.7375    1.1697 H   0  0  0  0  0  0  0  0  0  0  0  0
    9.7553    0.1727   -0.3491 H   0  0  0  0  0  0  0  0  0  0  0  0
  1 22  1  0  0  0  0
  1 32  1  0  0  0  0
  2 14  2  0  0  0  0
  3 15  2  0  0  0  0
  4 18  2  0  0  0  0
  5 28  1  0  0  0  0
  5 33  1  0  0  0  0
  6 29  1  0  0  0  0
  6 33  1  0  0  0  0
  7 10  1  0  0  0  0
  7 12  1  0  0  0  0
  7 15  1  0  0  0  0
  8 11  1  0  0  0  0
  8 13  1  0  0  0  0
  8 18  1  0  0  0  0
  9 14  1  0  0  0  0
  9 17  1  0  0  0  0
  9 41  1  0  0  0  0
 10 11  1  0  0  0  0
 10 14  1  0  0  0  0
 10 34  1  0  0  0  0
 11 35  1  0  0  0  0
 11 36  1  0  0  0  0
 12 13  1  0  0  0  0
 12 37  1  0  0  0  0
 12 38  1  0  0  0  0
 13 39  1  0  0  0  0
 13 40  1  0  0  0  0
 15 16  1  0  0  0  0
 16 17  2  0  0  0  0
 16 19  1  0  0  0  0
 17 20  1  0  0  0  0
 18 22  1  0  0  0  0
 19 21  2  0  0  0  0
 19 42  1  0  0  0  0
 20 23  2  0  0  0  0
 20 43  1  0  0  0  0
 21 23  1  0  0  0  0
 21 24  1  0  0  0  0
 22 25  2  0  0  0  0
 23 44  1  0  0  0  0
 24 26  2  0  0  0  0
 24 27  1  0  0  0  0
 25 31  1  0  0  0  0
 25 45  1  0  0  0  0
 26 28  1  0  0  0  0
 26 46  1  0  0  0  0
 27 30  2  0  0  0  0
 27 47  1  0  0  0  0
 28 29  2  0  0  0  0
 29 30  1  0  0  0  0
 30 48  1  0  0  0  0
 31 32  2  0  0  0  0
 31 49  1  0  0  0  0
 32 50  1  0  0  0  0
 33 51  1  0  0  0  0
 33 52  1  0  0  0  0
M  END
> <PUBCHEM_COMPOUND_CID>
7135498

> <PUBCHEM_CONFORMER_RMSD>
0.8

> <PUBCHEM_CONFORMER_DIVERSEORDER>
1
21
31
26
23
10
12
15
5
18
13
2
27
30
11
9
28
16
32
3
29
20
17
22
8
4
24
19
7
25
6
14

> <PUBCHEM_MMFF94_PARTIAL_CHARGES>
41
1 -0.08
10 0.36
11 0.3
12 0.3
13 0.3
14 0.57
15 0.54
16 0.09
17 0.12
18 0.71
19 -0.15
2 -0.57
20 -0.15
22 -0.05
23 -0.15
25 -0.15
26 -0.15
27 -0.15
28 0.08
29 0.08
3 -0.57
30 -0.15
31 -0.15
32 -0.11
33 0.56
4 -0.57
41 0.37
42 0.15
43 0.15
44 0.15
45 0.15
46 0.15
47 0.15
48 0.15
49 0.15
5 -0.36
50 0.15
6 -0.36
7 -0.66
8 -0.66
9 -0.55

> <PUBCHEM_EFFECTIVE_ROTOR_COUNT>
4.6

> <PUBCHEM_PHARMACOPHORE_FEATURES>
12
1 2 acceptor
1 3 acceptor
1 4 acceptor
1 5 acceptor
1 6 acceptor
1 9 donor
5 1 22 25 31 32 rings
5 5 6 28 29 33 rings
6 16 17 19 20 21 23 rings
6 24 26 27 28 29 30 rings
6 7 8 10 11 12 13 rings
7 7 9 10 14 15 16 17 rings

> <PUBCHEM_HEAVY_ATOM_COUNT>
33

> <PUBCHEM_ATOM_DEF_STEREO_COUNT>
1

> <PUBCHEM_ATOM_UDEF_STEREO_COUNT>
0

> <PUBCHEM_BOND_DEF_STEREO_COUNT>
0

> <PUBCHEM_BOND_UDEF_STEREO_COUNT>
0

> <PUBCHEM_ISOTOPIC_ATOM_COUNT>
0

> <PUBCHEM_COMPONENT_COUNT>
1

> <PUBCHEM_CACTVS_TAUTO_COUNT>
3

> <PUBCHEM_CONFORMER_ID>
006CE10A00000001

> <PUBCHEM_MMFF94_ENERGY>
115.6252

> <PUBCHEM_FEATURE_SELFOVERLAP>
61.085

> <PUBCHEM_SHAPE_FINGERPRINT>
10050765 1 18123190095588305891
10076449 9 18186242835892874933
10299344 5 17132112446535841910
10670039 82 17022894636787058957
11135926 11 18273207587179772423
11181472 205 16128108783925879688
11408170 108 17346328042893713406
11456790 92 17203334433343495995
12089408 11 15626219131096000830
12104220 1 18343587331158694593
12166972 35 17749392589722496965
12236239 1 17704074032251036497
13673619 4 18113335327988798949
13685833 64 18341894091250841044
13811026 1 18411135848488696084
14040222 275 18265073434052909092
14251764 18 17703792526281256736
14251764 46 13767925724061010379
14294032 229 17314501522373934221
14444916 359 18260833696095146891
14856354 85 15864356874436522883
15064986 266 18340216210879865656
15131766 46 15264777880324954208
15183329 4 18335414647415923450
15247644 1 17749111110736182227
15461852 350 16008751290477258342
1754911 235 11602816913199881459
18608769 82 18186802504438918019
19611394 137 16371304323993864233
20105231 36 18408888433916520939
21150785 3 16008749108575680622
21267235 1 18410575088990032525
21781051 124 17749965452207125715
21792961 116 17822010891286944370
22149856 69 17489592230243221392
22224240 67 8934999270058644132
23559900 14 18338791338357707296
246663 6 18113901572044485587
249057 3 16298391292064908206
3004659 81 18186235143881053276
3178227 256 18341615927314295783
335352 9 18408886269226064910
3383291 50 18409166632065176843
4339292 15 17531245111043702571
44389302 135 15482390847469197326
444769 64 18273493477619810959
54039377 194 18411983563369168861
59755656 215 18187363216355792490
6523845 18 16732696181544145138
6691757 9 12901554507743334113
9962374 69 18272079556361962861
999808 66 18411138035333892823

> <PUBCHEM_SHAPE_MULTIPOLES>
638.68
27.51
2
1.15
7.58
0.62
-0.27
-10.6
3.08
0.18
0.15
-1.81
-0.06
1.3

> <PUBCHEM_SHAPE_SELFOVERLAP>
1424.456

> <PUBCHEM_SHAPE_VOLUME>
340.8

> <PUBCHEM_COORDINATE_TYPE>
2
5
10

$$$$
