11882007
  -OEChem-12032416113D

 53 53  0     1  0  0  0  0  0999 V2000
    6.0545    1.1810    0.2502 S   0  0  0  0  0  0  0  0  0  0  0  0
   -2.3463    1.1181    1.9497 O   0  0  0  0  0  0  0  0  0  0  0  0
   -1.2080    3.2365   -0.8071 O   0  0  0  0  0  0  0  0  0  0  0  0
    0.6029   -1.4283   -1.9270 O   0  0  0  0  0  0  0  0  0  0  0  0
   -5.6034    1.1376   -0.8043 O   0  0  0  0  0  0  0  0  0  0  0  0
    5.8329    1.4819    1.6544 O   0  0  0  0  0  0  0  0  0  0  0  0
    7.1789    0.3576   -0.1611 O   0  0  0  0  0  0  0  0  0  0  0  0
    2.1151   -3.0046    1.4121 O   0  0  0  0  0  0  0  0  0  0  0  0
   -3.8572   -0.1570    0.0144 N   0  0  0  0  0  0  0  0  0  0  0  0
    1.8315   -0.7084   -0.0813 N   0  0  0  0  0  0  0  0  0  0  0  0
    3.2864   -3.9251   -0.3360 N   0  0  0  0  0  0  0  0  0  0  0  0
   -7.4945   -0.5293    0.0927 N   0  0  0  0  0  0  0  0  0  0  0  0
   -2.4316    1.7488    0.6699 C   0  0  2  0  0  0  0  0  0  0  0  0
   -2.7722    0.6969   -0.4031 C   0  0  1  0  0  0  0  0  0  0  0  0
   -1.0969    2.4433    0.3729 C   0  0  1  0  0  0  0  0  0  0  0  0
    0.0586    1.4383    0.2261 C   0  0  0  0  0  0  0  0  0  0  0  0
   -0.3345    0.1787   -0.4921 C   0  0  0  0  0  0  0  0  0  0  0  0
   -1.5979   -0.1618   -0.7880 C   0  0  0  0  0  0  0  0  0  0  0  0
    0.7303   -0.7336   -0.9193 C   0  0  0  0  0  0  0  0  0  0  0  0
    3.0056   -1.5234   -0.2956 C   0  0  1  0  0  0  0  0  0  0  0  0
    4.2693   -0.8690    0.2673 C   0  0  0  0  0  0  0  0  0  0  0  0
    4.5782    0.4646   -0.4008 C   0  0  0  0  0  0  0  0  0  0  0  0
   -5.1942    0.1355   -0.2223 C   0  0  0  0  0  0  0  0  0  0  0  0
    2.7572   -2.8678    0.3736 C   0  0  0  0  0  0  0  0  0  0  0  0
   -6.1164   -0.9198    0.3532 C   0  0  0  0  0  0  0  0  0  0  0  0
    6.1772    2.7284   -0.6172 C   0  0  0  0  0  0  0  0  0  0  0  0
   -8.4255   -1.5189    0.6186 C   0  0  0  0  0  0  0  0  0  0  0  0
   -3.2373    2.4912    0.7203 H   0  0  0  0  0  0  0  0  0  0  0  0
   -3.0948    1.2195   -1.3129 H   0  0  0  0  0  0  0  0  0  0  0  0
   -0.8505    3.1300    1.1911 H   0  0  0  0  0  0  0  0  0  0  0  0
    0.8926    1.9220   -0.2970 H   0  0  0  0  0  0  0  0  0  0  0  0
    0.3906    1.1785    1.2387 H   0  0  0  0  0  0  0  0  0  0  0  0
   -1.8148   -1.0762   -1.3357 H   0  0  0  0  0  0  0  0  0  0  0  0
   -3.6307   -0.9952    0.5435 H   0  0  0  0  0  0  0  0  0  0  0  0
    3.1193   -1.6756   -1.3762 H   0  0  0  0  0  0  0  0  0  0  0  0
    5.1196   -1.5514    0.1413 H   0  0  0  0  0  0  0  0  0  0  0  0
    4.1605   -0.7223    1.3501 H   0  0  0  0  0  0  0  0  0  0  0  0
    1.8099   -0.1753    0.7808 H   0  0  0  0  0  0  0  0  0  0  0  0
   -3.2014    0.6869    2.1182 H   0  0  0  0  0  0  0  0  0  0  0  0
   -1.2856    2.6415   -1.5714 H   0  0  0  0  0  0  0  0  0  0  0  0
    3.7722    1.1858   -0.2333 H   0  0  0  0  0  0  0  0  0  0  0  0
    4.7218    0.3357   -1.4782 H   0  0  0  0  0  0  0  0  0  0  0  0
   -5.8839   -1.8763   -0.1286 H   0  0  0  0  0  0  0  0  0  0  0  0
   -5.9256   -1.0019    1.4295 H   0  0  0  0  0  0  0  0  0  0  0  0
    7.0767    3.2418   -0.2715 H   0  0  0  0  0  0  0  0  0  0  0  0
    6.2487    2.5271   -1.6875 H   0  0  0  0  0  0  0  0  0  0  0  0
    5.2936    3.3288   -0.3931 H   0  0  0  0  0  0  0  0  0  0  0  0
    3.1781   -4.8787   -0.0067 H   0  0  0  0  0  0  0  0  0  0  0  0
    3.8113   -3.7981   -1.1953 H   0  0  0  0  0  0  0  0  0  0  0  0
   -7.6829    0.3703    0.5351 H   0  0  0  0  0  0  0  0  0  0  0  0
   -9.4515   -1.2041    0.4042 H   0  0  0  0  0  0  0  0  0  0  0  0
   -8.3259   -1.6271    1.7035 H   0  0  0  0  0  0  0  0  0  0  0  0
   -8.2749   -2.4947    0.1455 H   0  0  0  0  0  0  0  0  0  0  0  0
  1  6  2  0  0  0  0
  1  7  2  0  0  0  0
  1 22  1  0  0  0  0
  1 26  1  0  0  0  0
  2 13  1  0  0  0  0
  2 39  1  0  0  0  0
  3 15  1  0  0  0  0
  3 40  1  0  0  0  0
  4 19  2  0  0  0  0
  5 23  2  0  0  0  0
  8 24  2  0  0  0  0
  9 14  1  0  0  0  0
  9 23  1  0  0  0  0
  9 34  1  0  0  0  0
 10 19  1  0  0  0  0
 10 20  1  0  0  0  0
 10 38  1  0  0  0  0
 11 24  1  0  0  0  0
 11 48  1  0  0  0  0
 11 49  1  0  0  0  0
 12 25  1  0  0  0  0
 12 27  1  0  0  0  0
 12 50  1  0  0  0  0
 13 14  1  0  0  0  0
 13 15  1  0  0  0  0
 13 28  1  0  0  0  0
 14 18  1  0  0  0  0
 14 29  1  0  0  0  0
 15 16  1  0  0  0  0
 15 30  1  0  0  0  0
 16 17  1  0  0  0  0
 16 31  1  0  0  0  0
 16 32  1  0  0  0  0
 17 18  2  0  0  0  0
 17 19  1  0  0  0  0
 18 33  1  0  0  0  0
 20 21  1  0  0  0  0
 20 24  1  0  0  0  0
 20 35  1  0  0  0  0
 21 22  1  0  0  0  0
 21 36  1  0  0  0  0
 21 37  1  0  0  0  0
 22 41  1  0  0  0  0
 22 42  1  0  0  0  0
 23 25  1  0  0  0  0
 25 43  1  0  0  0  0
 25 44  1  0  0  0  0
 26 45  1  0  0  0  0
 26 46  1  0  0  0  0
 26 47  1  0  0  0  0
 27 51  1  0  0  0  0
 27 52  1  0  0  0  0
 27 53  1  0  0  0  0
M  END
> <PUBCHEM_COMPOUND_CID>
11882007

> <PUBCHEM_CONFORMER_RMSD>
1

> <PUBCHEM_CONFORMER_DIVERSEORDER>
2
72
16
169
208
206
30
212
182
243
219
156
232
51
82
281
132
276
261
137
84
24
186
280
213
287
124
6
185
107
121
288
7
204
196
242
225
53
113
195
198
180
260
285
191
109
168
28
270
78
157
271
33
31
228
174
277
95
45
194
14
170
160
130
120
230
244
266
179
68
209
278
262
184
60
151
126
263
123
32
111
284
255
231
102
252
118
250
80
215
289
211
272
43
76
233
38
267
153
75
8
269
199
159
245
187
234
42
150
129
246
83
197
176
46
104
119
26
229
236
108
92
71
27
249
161
79
257
205
58
200
146
164
35
155
148
87
144
189
282
256
21
264
128
103
100
183
98
254
65
90
218
258
106
166
203
116
210
239
162
214
63
70
133
240
268
265
222
37
273
66
175
207
17
145
163
101
125
224
88
110
44
115
237
131
201
67
64
173
286
89
13
140
154
134
147
275
25
290
59
61
81
96
143
238
36
15
54
77
274
248
86
251
171
139
18
181
167
29
34
41
142
11
1
283
122
10
259
217
91
172
47
136
20
117
188
158
50
177
62
235
97
22
94
165
193
221
52
192
178
135
216
73
114
23
93
105
56
279
74
226
247
55
141
291
69
40
9
99
138
39
127
253
220
149
112
57
85
3
48
152
202
190
227
241
19
49
223
12
4
5

> <PUBCHEM_MMFF94_PARTIAL_CHARGES>
34
1 1.09
10 -0.73
11 -0.8
12 -0.9
13 0.28
14 0.44
15 0.28
16 0.14
17 -0.12
18 -0.29
19 0.62
2 -0.68
20 0.36
22 0.11
23 0.57
24 0.57
25 0.33
26 0.11
27 0.27
3 -0.68
33 0.15
34 0.37
38 0.37
39 0.4
4 -0.57
40 0.4
48 0.37
49 0.37
5 -0.57
50 0.36
6 -0.65
7 -0.65
8 -0.57
9 -0.73

> <PUBCHEM_EFFECTIVE_ROTOR_COUNT>
11.8

> <PUBCHEM_PHARMACOPHORE_FEATURES>
15
1 10 donor
1 11 donor
1 12 cation
1 12 donor
1 2 acceptor
1 2 donor
1 3 acceptor
1 3 donor
1 4 acceptor
1 5 acceptor
1 6 acceptor
1 7 acceptor
1 8 acceptor
1 9 donor
6 13 14 15 16 17 18 rings

> <PUBCHEM_HEAVY_ATOM_COUNT>
27

> <PUBCHEM_ATOM_DEF_STEREO_COUNT>
4

> <PUBCHEM_ATOM_UDEF_STEREO_COUNT>
0

> <PUBCHEM_BOND_DEF_STEREO_COUNT>
0

> <PUBCHEM_BOND_UDEF_STEREO_COUNT>
0

> <PUBCHEM_ISOTOPIC_ATOM_COUNT>
0

> <PUBCHEM_COMPONENT_COUNT>
1

> <PUBCHEM_CACTVS_TAUTO_COUNT>
8

> <PUBCHEM_CONFORMER_ID>
00B54E1700000002

> <PUBCHEM_MMFF94_ENERGY>
44.5971

> <PUBCHEM_FEATURE_SELFOVERLAP>
76.152

> <PUBCHEM_SHAPE_FINGERPRINT>
10050765 1 18193556666518000788
10165383 225 16200436879467914390
10258939 38 18187078430296887177
10763959 59 11455889165811546915
10835480 77 18262228924948018941
11578080 2 17679288685886379028
12596602 18 18342178817697455027
13073987 5 18337675222612587965
13533116 47 18263365797879240786
13692114 37 18408321103851169778
13899415 154 17489588978125069817
14114211 68 18341343275202471364
14461889 52 18260550047437391867
1454969 45 18342176699798224709
14840074 17 17917987287393488053
15183329 4 7925634435685069170
15728490 51 18342175622210449919
17492 89 18122624950854342534
20567600 234 17821729472535192356
20567600 70 18336832000221064779
21049683 271 18340490075211996753
22224240 67 18113897195536322402
23559900 14 17838331878855155702
249057 3 9439401332959688706
340366 18 10159685915779594752
34797466 226 17060626615903854060
4340502 62 18186800283867044242
474 4 18408322186366433604
5104073 3 18127973014355902521
5486654 2 18335707173660179782
59682541 35 18338515347695161008

> <PUBCHEM_SHAPE_MULTIPOLES>
498.49
19.06
3.35
1.15
15.81
1.46
0.16
-0.16
2.68
-3.85
0.2
-0.24
0
0.23

> <PUBCHEM_SHAPE_SELFOVERLAP>
989.261

> <PUBCHEM_SHAPE_VOLUME>
296.1

> <PUBCHEM_COORDINATE_TYPE>
2
5
10

$$$$
