56775759
  -OEChem-12032416323D

 53 56  0     0  0  0  0  0  0999 V2000
    2.4952   -3.8567    0.7300 O   0  0  0  0  0  0  0  0  0  0  0  0
   -1.1132    1.0040   -0.2491 O   0  0  0  0  0  0  0  0  0  0  0  0
   -7.3590    0.4651    0.3078 O   0  0  0  0  0  0  0  0  0  0  0  0
    2.6499   -0.8418    1.0220 N   0  0  0  0  0  0  0  0  0  0  0  0
    5.5308    2.1655    0.1733 N   0  0  0  0  0  0  0  0  0  0  0  0
    0.2260    0.7121   -0.4785 N   0  0  0  0  0  0  0  0  0  0  0  0
    2.1725   -1.8517    0.0726 C   0  0  0  0  0  0  0  0  0  0  0  0
    3.3588    0.2081    0.2940 C   0  0  0  0  0  0  0  0  0  0  0  0
    1.3997   -2.9194    0.8388 C   0  0  0  0  0  0  0  0  0  0  0  0
    3.2440   -2.9248   -0.0833 C   0  0  0  0  0  0  0  0  0  0  0  0
    1.5586   -1.2536   -1.1560 C   0  0  0  0  0  0  0  0  0  0  0  0
    4.8149   -0.2012    0.0583 C   0  0  0  0  0  0  0  0  0  0  0  0
    3.3062    1.5352    1.0566 C   0  0  0  0  0  0  0  0  0  0  0  0
    5.5999    0.9275   -0.6155 C   0  0  0  0  0  0  0  0  0  0  0  0
    4.1405    2.6071    0.3504 C   0  0  0  0  0  0  0  0  0  0  0  0
    0.2439   -0.5777   -0.8264 C   0  0  0  0  0  0  0  0  0  0  0  0
    6.3260    3.2190   -0.4569 C   0  0  0  0  0  0  0  0  0  0  0  0
   -1.0414   -1.1464   -0.8338 C   0  0  0  0  0  0  0  0  0  0  0  0
   -1.8579   -0.1106   -0.4638 C   0  0  0  0  0  0  0  0  0  0  0  0
   -3.2707    0.0374   -0.2669 C   0  0  0  0  0  0  0  0  0  0  0  0
   -4.1205   -1.0507   -0.4657 C   0  0  0  0  0  0  0  0  0  0  0  0
   -3.7950    1.2694    0.1243 C   0  0  0  0  0  0  0  0  0  0  0  0
   -5.4945   -0.9068   -0.2736 C   0  0  0  0  0  0  0  0  0  0  0  0
   -5.1690    1.4134    0.3165 C   0  0  0  0  0  0  0  0  0  0  0  0
   -6.0187    0.3254    0.1175 C   0  0  0  0  0  0  0  0  0  0  0  0
   -7.8272    1.7525    0.7073 C   0  0  0  0  0  0  0  0  0  0  0  0
    2.9395    0.4999   -0.6638 H   0  0  0  0  0  0  0  0  0  0  0  0
    3.2093   -1.1875    1.8006 H   0  0  0  0  0  0  0  0  0  0  0  0
    0.5125   -3.3283    0.3454 H   0  0  0  0  0  0  0  0  0  0  0  0
    1.1522   -2.7110    1.8852 H   0  0  0  0  0  0  0  0  0  0  0  0
    4.2290   -2.7779    0.3658 H   0  0  0  0  0  0  0  0  0  0  0  0
    3.3752   -3.3179   -1.0972 H   0  0  0  0  0  0  0  0  0  0  0  0
    1.2854   -2.0884   -1.8226 H   0  0  0  0  0  0  0  0  0  0  0  0
    2.1947   -0.6643   -1.8205 H   0  0  0  0  0  0  0  0  0  0  0  0
    4.8846   -1.0573   -0.6174 H   0  0  0  0  0  0  0  0  0  0  0  0
    5.3041   -0.4736    1.0026 H   0  0  0  0  0  0  0  0  0  0  0  0
    3.6875    1.3982    2.0778 H   0  0  0  0  0  0  0  0  0  0  0  0
    2.2714    1.8849    1.1518 H   0  0  0  0  0  0  0  0  0  0  0  0
    6.6447    0.6070   -0.7106 H   0  0  0  0  0  0  0  0  0  0  0  0
    5.2160    1.0899   -1.6316 H   0  0  0  0  0  0  0  0  0  0  0  0
    3.6819    2.8567   -0.6156 H   0  0  0  0  0  0  0  0  0  0  0  0
    4.1167    3.5154    0.9649 H   0  0  0  0  0  0  0  0  0  0  0  0
    6.3167    4.1270    0.1562 H   0  0  0  0  0  0  0  0  0  0  0  0
    5.9576    3.4740   -1.4571 H   0  0  0  0  0  0  0  0  0  0  0  0
    7.3739    2.9106   -0.5435 H   0  0  0  0  0  0  0  0  0  0  0  0
   -1.3231   -2.1606   -1.0765 H   0  0  0  0  0  0  0  0  0  0  0  0
   -3.7418   -2.0230   -0.7701 H   0  0  0  0  0  0  0  0  0  0  0  0
   -3.1646    2.1397    0.2893 H   0  0  0  0  0  0  0  0  0  0  0  0
   -6.1518   -1.7579   -0.4293 H   0  0  0  0  0  0  0  0  0  0  0  0
   -5.5092    2.3975    0.6206 H   0  0  0  0  0  0  0  0  0  0  0  0
   -8.9149    1.6828    0.8111 H   0  0  0  0  0  0  0  0  0  0  0  0
   -7.6271    2.5092   -0.0589 H   0  0  0  0  0  0  0  0  0  0  0  0
   -7.4303    2.0387    1.6873 H   0  0  0  0  0  0  0  0  0  0  0  0
  1  9  1  0  0  0  0
  1 10  1  0  0  0  0
  2  6  1  0  0  0  0
  2 19  1  0  0  0  0
  3 25  1  0  0  0  0
  3 26  1  0  0  0  0
  4  7  1  0  0  0  0
  4  8  1  0  0  0  0
  4 28  1  0  0  0  0
  5 14  1  0  0  0  0
  5 15  1  0  0  0  0
  5 17  1  0  0  0  0
  6 16  2  0  0  0  0
  7  9  1  0  0  0  0
  7 10  1  0  0  0  0
  7 11  1  0  0  0  0
  8 12  1  0  0  0  0
  8 13  1  0  0  0  0
  8 27  1  0  0  0  0
  9 29  1  0  0  0  0
  9 30  1  0  0  0  0
 10 31  1  0  0  0  0
 10 32  1  0  0  0  0
 11 16  1  0  0  0  0
 11 33  1  0  0  0  0
 11 34  1  0  0  0  0
 12 14  1  0  0  0  0
 12 35  1  0  0  0  0
 12 36  1  0  0  0  0
 13 15  1  0  0  0  0
 13 37  1  0  0  0  0
 13 38  1  0  0  0  0
 14 39  1  0  0  0  0
 14 40  1  0  0  0  0
 15 41  1  0  0  0  0
 15 42  1  0  0  0  0
 16 18  1  0  0  0  0
 17 43  1  0  0  0  0
 17 44  1  0  0  0  0
 17 45  1  0  0  0  0
 18 19  2  0  0  0  0
 18 46  1  0  0  0  0
 19 20  1  0  0  0  0
 20 21  2  0  0  0  0
 20 22  1  0  0  0  0
 21 23  1  0  0  0  0
 21 47  1  0  0  0  0
 22 24  2  0  0  0  0
 22 48  1  0  0  0  0
 23 25  2  0  0  0  0
 23 49  1  0  0  0  0
 24 25  1  0  0  0  0
 24 50  1  0  0  0  0
 26 51  1  0  0  0  0
 26 52  1  0  0  0  0
 26 53  1  0  0  0  0
M  END
> <PUBCHEM_COMPOUND_CID>
56775759

> <PUBCHEM_CONFORMER_RMSD>
0.8

> <PUBCHEM_CONFORMER_DIVERSEORDER>
27
92
20
60
129
125
36
120
72
35
95
49
26
55
21
117
112
97
134
62
51
70
39
114
107
79
46
17
87
83
40
81
118
31
54
130
89
128
127
100
43
30
96
58
84
10
119
74
126
93
116
37
42
98
104
61
90
45
106
133
34
121
75
65
131
86
123
59
76
67
38
105
99
4
16
124
108
122
44
19
8
48
109
64
12
22
103
57
23
101
29
2
113
85
3
68
5
102
82
28
47
15
115
94
13
132
18
41
56
73
63
77
80
24
110
52
6
53
25
88
9
91
33
111
78
66
1
14
32
71
50
69
11
7

> <PUBCHEM_MMFF94_PARTIAL_CHARGES>
30
1 -0.52
10 0.26
11 0.18
14 0.27
15 0.27
16 0.11
17 0.27
18 -0.15
19 0.09
2 -0.02
20 0.05
21 -0.15
22 -0.15
23 -0.15
24 -0.15
25 0.08
26 0.28
28 0.36
3 -0.36
4 -0.84
46 0.15
47 0.15
48 0.15
49 0.15
5 -0.81
50 0.15
6 -0.41
7 0.21
8 0.27
9 0.26

> <PUBCHEM_EFFECTIVE_ROTOR_COUNT>
8

> <PUBCHEM_PHARMACOPHORE_FEATURES>
10
1 1 acceptor
1 3 acceptor
1 4 cation
1 4 donor
1 5 cation
1 6 acceptor
4 1 7 9 10 rings
5 2 6 16 18 19 rings
6 20 21 22 23 24 25 rings
6 5 8 12 13 14 15 rings

> <PUBCHEM_HEAVY_ATOM_COUNT>
26

> <PUBCHEM_ATOM_DEF_STEREO_COUNT>
0

> <PUBCHEM_ATOM_UDEF_STEREO_COUNT>
0

> <PUBCHEM_BOND_DEF_STEREO_COUNT>
0

> <PUBCHEM_BOND_UDEF_STEREO_COUNT>
0

> <PUBCHEM_ISOTOPIC_ATOM_COUNT>
0

> <PUBCHEM_COMPONENT_COUNT>
1

> <PUBCHEM_CACTVS_TAUTO_COUNT>
1

> <PUBCHEM_CONFORMER_ID>
0362544F0000001B

> <PUBCHEM_MMFF94_ENERGY>
69.7524

> <PUBCHEM_FEATURE_SELFOVERLAP>
50.747

> <PUBCHEM_SHAPE_FINGERPRINT>
10 15 18409172117434336561
10165383 225 18187090564243662886
10411042 1 17906453226299792338
10554248 39 17987225630986950373
10595046 47 18413668011647479323
10670039 82 15769507451672574321
10730089 47 7853568007527238657
10835480 77 18262511503973995621
10906281 52 18041008383122926533
12107183 9 17693097362388412465
12596602 18 18412266113011084091
12730499 353 18407764737701999570
12788726 201 17346041069762011361
13073987 5 18335988559017395185
13533116 47 18336828576910505803
13785724 45 17624420770453346775
13878862 14 18122318238944985933
13955234 65 18261669264876476586
14114211 68 18336562577022449852
14347424 109 18263360288110855331
14461889 52 18041007279886369011
14528608 73 18343016726639666948
14565420 104 18334009523701797690
146900 427 18409725170901918874
14790565 3 18337673147774781668
14849402 71 18335419042080272258
15142526 21 18266170815592670738
15183329 4 9439403553499978771
15475509 35 16516518885968613850
16120349 18 18411132520775550965
16126227 98 18121218946803932396
16758388 162 17467066350879038297
16992610 120 18116728486061685572
17844677 252 18267870484665651873
17980427 23 16951691487627285942
1813 80 16877951477879968231
20465049 17 18342463634464417070
20642791 178 17971199372084860724
21033648 29 18195521713562965960
21049683 271 18043538214368390526
21130935 74 18263088739310468395
21344244 78 18055334865547211130
21859007 373 17460583742117220381
22224240 67 18186799222756570330
23559900 14 18195238923656303767
23845131 108 18261673770138979570
239999 70 18272091543969783070
255183 451 17771351872860161926
3411729 13 18413108359785953310
34797466 226 17988932145620220109
4073 2 18334581274012001651
4169191 19 18411980244341273813
4340502 62 18040718064845898835
474 4 18336825385675594396
504579 68 18059561512877152125
5104073 3 18339654343795857939
5758199 1 18409731802358063820
621550 34 18041271089398658534
633830 44 18342450496048728094
6438161 24 9151176424312388141
6697151 62 17467037797298358727
8272917 22 18411980243829083518
9999458 23 18410009945104661574

> <PUBCHEM_SHAPE_MULTIPOLES>
502.52
18.09
3.42
0.92
22.25
1.29
0.01
-14.19
1.77
-6.02
0.65
-0.32
0.15
-1.17

> <PUBCHEM_SHAPE_SELFOVERLAP>
1072.954

> <PUBCHEM_SHAPE_VOLUME>
282

> <PUBCHEM_COORDINATE_TYPE>
2
5
10

$$$$
