11912415
  -OEChem-12032416363D

 63 64  0     1  0  0  0  0  0999 V2000
   -8.3221   -2.5490   -0.3109 S   0  0  0  0  0  0  0  0  0  0  0  0
    1.2323    3.2045    0.3683 O   0  0  0  0  0  0  0  0  0  0  0  0
   -5.4444    1.1032    1.0017 O   0  0  0  0  0  0  0  0  0  0  0  0
    5.9891   -1.8976    0.4580 O   0  0  0  0  0  0  0  0  0  0  0  0
    7.3698   -1.1472   -1.2241 O   0  0  0  0  0  0  0  0  0  0  0  0
   -0.1628    1.5297    1.1374 N   0  0  0  0  0  0  0  0  0  0  0  0
   -6.1912   -0.2196   -0.7572 N   0  0  0  0  0  0  0  0  0  0  0  0
    2.1267    1.1014    0.7661 N   0  0  0  0  0  0  0  0  0  0  0  0
   -2.7679    0.3649    0.6558 C   0  0  1  0  0  0  0  0  0  0  0  0
   -1.4962   -0.5209    0.7336 C   0  0  2  0  0  0  0  0  0  0  0  0
   -2.4344    1.8095    0.2407 C   0  0  0  0  0  0  0  0  0  0  0  0
   -0.4433    0.1683    1.6177 C   0  0  0  0  0  0  0  0  0  0  0  0
   -1.3352    2.4056    1.1190 C   0  0  0  0  0  0  0  0  0  0  0  0
   -0.8990   -0.8780   -0.6324 C   0  0  0  0  0  0  0  0  0  0  0  0
   -3.8517   -0.2195   -0.2497 C   0  0  0  0  0  0  0  0  0  0  0  0
    0.2793   -1.8177   -0.4854 C   0  0  0  0  0  0  0  0  0  0  0  0
    1.0921    2.0357    0.7368 C   0  0  0  0  0  0  0  0  0  0  0  0
   -5.2283    0.3100    0.0895 C   0  0  0  0  0  0  0  0  0  0  0  0
   -7.5950    0.1097   -0.6606 C   0  0  0  0  0  0  0  0  0  0  0  0
    3.2756    1.0648   -0.0626 C   0  0  0  0  0  0  0  0  0  0  0  0
   -8.3634   -0.8243    0.2644 C   0  0  0  0  0  0  0  0  0  0  0  0
    4.2217    0.0529    0.1003 C   0  0  0  0  0  0  0  0  0  0  0  0
    3.4603    2.0413   -1.0412 C   0  0  0  0  0  0  0  0  0  0  0  0
    5.3526    0.0178   -0.7154 C   0  0  0  0  0  0  0  0  0  0  0  0
    4.5912    2.0062   -1.8570 C   0  0  0  0  0  0  0  0  0  0  0  0
    5.5373    0.9944   -1.6941 C   0  0  0  0  0  0  0  0  0  0  0  0
    6.3392   -1.0372   -0.5466 C   0  0  0  0  0  0  0  0  0  0  0  0
   -9.5467   -2.4109   -1.6325 C   0  0  0  0  0  0  0  0  0  0  0  0
    6.8851   -2.9824    0.7224 C   0  0  0  0  0  0  0  0  0  0  0  0
    6.3293   -3.8156    1.8576 C   0  0  0  0  0  0  0  0  0  0  0  0
   -3.1621    0.4098    1.6818 H   0  0  0  0  0  0  0  0  0  0  0  0
   -1.7814   -1.4599    1.2286 H   0  0  0  0  0  0  0  0  0  0  0  0
   -2.1062    1.8285   -0.8061 H   0  0  0  0  0  0  0  0  0  0  0  0
   -3.3215    2.4491    0.3033 H   0  0  0  0  0  0  0  0  0  0  0  0
   -0.8447    0.2801    2.6339 H   0  0  0  0  0  0  0  0  0  0  0  0
    0.4455   -0.4473    1.7350 H   0  0  0  0  0  0  0  0  0  0  0  0
   -1.6845    2.5143    2.1526 H   0  0  0  0  0  0  0  0  0  0  0  0
   -1.0774    3.4051    0.7558 H   0  0  0  0  0  0  0  0  0  0  0  0
   -0.5868    0.0149   -1.1847 H   0  0  0  0  0  0  0  0  0  0  0  0
   -1.6536   -1.3813   -1.2469 H   0  0  0  0  0  0  0  0  0  0  0  0
   -3.8927   -1.3090   -0.1241 H   0  0  0  0  0  0  0  0  0  0  0  0
   -3.6425   -0.0104   -1.3055 H   0  0  0  0  0  0  0  0  0  0  0  0
    1.1681   -1.3262   -0.0881 H   0  0  0  0  0  0  0  0  0  0  0  0
    0.5573   -2.2126   -1.4691 H   0  0  0  0  0  0  0  0  0  0  0  0
    0.0360   -2.6725    0.1538 H   0  0  0  0  0  0  0  0  0  0  0  0
   -5.9114   -0.8800   -1.4767 H   0  0  0  0  0  0  0  0  0  0  0  0
    2.0749    0.3450    1.4382 H   0  0  0  0  0  0  0  0  0  0  0  0
   -7.6842    1.1352   -0.2839 H   0  0  0  0  0  0  0  0  0  0  0  0
   -8.0048    0.1038   -1.6755 H   0  0  0  0  0  0  0  0  0  0  0  0
   -7.9161   -0.8056    1.2642 H   0  0  0  0  0  0  0  0  0  0  0  0
   -9.4027   -0.4966    0.3690 H   0  0  0  0  0  0  0  0  0  0  0  0
    4.0480   -0.6937    0.8713 H   0  0  0  0  0  0  0  0  0  0  0  0
    2.7514    2.8356   -1.2374 H   0  0  0  0  0  0  0  0  0  0  0  0
    4.7325    2.7626   -2.6236 H   0  0  0  0  0  0  0  0  0  0  0  0
    6.4104    0.9846   -2.3412 H   0  0  0  0  0  0  0  0  0  0  0  0
   -9.7224   -3.4026   -2.0583 H   0  0  0  0  0  0  0  0  0  0  0  0
   -9.1883   -1.7576   -2.4313 H   0  0  0  0  0  0  0  0  0  0  0  0
  -10.4953   -2.0332   -1.2420 H   0  0  0  0  0  0  0  0  0  0  0  0
    7.8669   -2.5835    1.0002 H   0  0  0  0  0  0  0  0  0  0  0  0
    6.9845   -3.5994   -0.1774 H   0  0  0  0  0  0  0  0  0  0  0  0
    6.9907   -4.6558    2.0866 H   0  0  0  0  0  0  0  0  0  0  0  0
    5.3386   -4.2048    1.6005 H   0  0  0  0  0  0  0  0  0  0  0  0
    6.2068   -3.2058    2.7588 H   0  0  0  0  0  0  0  0  0  0  0  0
  1 21  1  0  0  0  0
  1 28  1  0  0  0  0
  2 17  2  0  0  0  0
  3 18  2  0  0  0  0
  4 27  1  0  0  0  0
  4 29  1  0  0  0  0
  5 27  2  0  0  0  0
  6 12  1  0  0  0  0
  6 13  1  0  0  0  0
  6 17  1  0  0  0  0
  7 18  1  0  0  0  0
  7 19  1  0  0  0  0
  7 46  1  0  0  0  0
  8 17  1  0  0  0  0
  8 20  1  0  0  0  0
  8 47  1  0  0  0  0
  9 10  1  0  0  0  0
  9 11  1  0  0  0  0
  9 15  1  0  0  0  0
  9 31  1  0  0  0  0
 10 12  1  0  0  0  0
 10 14  1  0  0  0  0
 10 32  1  0  0  0  0
 11 13  1  0  0  0  0
 11 33  1  0  0  0  0
 11 34  1  0  0  0  0
 12 35  1  0  0  0  0
 12 36  1  0  0  0  0
 13 37  1  0  0  0  0
 13 38  1  0  0  0  0
 14 16  1  0  0  0  0
 14 39  1  0  0  0  0
 14 40  1  0  0  0  0
 15 18  1  0  0  0  0
 15 41  1  0  0  0  0
 15 42  1  0  0  0  0
 16 43  1  0  0  0  0
 16 44  1  0  0  0  0
 16 45  1  0  0  0  0
 19 21  1  0  0  0  0
 19 48  1  0  0  0  0
 19 49  1  0  0  0  0
 20 22  1  0  0  0  0
 20 23  2  0  0  0  0
 21 50  1  0  0  0  0
 21 51  1  0  0  0  0
 22 24  2  0  0  0  0
 22 52  1  0  0  0  0
 23 25  1  0  0  0  0
 23 53  1  0  0  0  0
 24 26  1  0  0  0  0
 24 27  1  0  0  0  0
 25 26  2  0  0  0  0
 25 54  1  0  0  0  0
 26 55  1  0  0  0  0
 28 56  1  0  0  0  0
 28 57  1  0  0  0  0
 28 58  1  0  0  0  0
 29 30  1  0  0  0  0
 29 59  1  0  0  0  0
 29 60  1  0  0  0  0
 30 61  1  0  0  0  0
 30 62  1  0  0  0  0
 30 63  1  0  0  0  0
M  END
> <PUBCHEM_COMPOUND_CID>
11912415

> <PUBCHEM_CONFORMER_RMSD>
1.2

> <PUBCHEM_CONFORMER_DIVERSEORDER>
2
21
48
33
51
76
15
4
72
68
13
59
74
69
73
64
44
37
20
60
10
62
49
30
35
46
54
63
29
75
58
50
41
31
36
26
42
70
47
6
25
55
17
65
22
56
16
66
28
19
27
71
52
11
53
45
5
23
38
40
12
67
18
57
3
61
39
9
34
7
24
8
43
32
1
14

> <PUBCHEM_MMFF94_PARTIAL_CHARGES>
30
1 -0.46
12 0.3
13 0.3
15 0.06
17 0.69
18 0.57
19 0.3
2 -0.57
20 0.12
21 0.23
22 -0.15
23 -0.15
24 0.09
25 -0.15
26 -0.15
27 0.63
28 0.23
29 0.28
3 -0.57
4 -0.43
46 0.37
47 0.37
5 -0.57
52 0.15
53 0.15
54 0.15
55 0.15
6 -0.66
7 -0.73
8 -0.55

> <PUBCHEM_EFFECTIVE_ROTOR_COUNT>
14.2

> <PUBCHEM_PHARMACOPHORE_FEATURES>
9
1 16 hydrophobe
1 2 acceptor
1 28 hydrophobe
1 3 acceptor
1 5 acceptor
1 7 donor
1 8 donor
6 20 22 23 24 25 26 rings
6 6 9 10 11 12 13 rings

> <PUBCHEM_HEAVY_ATOM_COUNT>
30

> <PUBCHEM_ATOM_DEF_STEREO_COUNT>
2

> <PUBCHEM_ATOM_UDEF_STEREO_COUNT>
0

> <PUBCHEM_BOND_DEF_STEREO_COUNT>
0

> <PUBCHEM_BOND_UDEF_STEREO_COUNT>
0

> <PUBCHEM_ISOTOPIC_ATOM_COUNT>
0

> <PUBCHEM_COMPONENT_COUNT>
1

> <PUBCHEM_CACTVS_TAUTO_COUNT>
4

> <PUBCHEM_CONFORMER_ID>
00B5C4DF00000002

> <PUBCHEM_MMFF94_ENERGY>
69.1216

> <PUBCHEM_FEATURE_SELFOVERLAP>
45.671

> <PUBCHEM_SHAPE_FINGERPRINT>
10 15 9079119956056629333
10693767 8 18333728005411482138
11386260 185 17240768423123260140
12539765 74 11602813580484907297
12838863 1 18339358570583634534
13862211 1 18202005421424526385
14026016 60 17967803929817691691
14068700 675 17988929959066012128
14347332 77 18339362955275595944
14537116 161 13190341262405930390
15183329 4 18342466940750828565
15198563 99 17022897913979469053
16728300 4 18194673770785690518
2026 5 18131353016786342175
21267235 1 18202568415087048537
21315759 40 18411986862468495793
21344244 78 15697999639366388912
21585483 132 18115863014942593962
21781051 124 18340772641067864915
23522609 53 18125193538987705057
23569943 247 18337954468153671987
23576562 1 16734114638556295439
3004659 81 18409174290619190372
4169191 19 8430321243083203319
444735 82 8286212660197394395
59682541 52 17676493835155843740
6438161 24 18410288108202573042

> <PUBCHEM_SHAPE_MULTIPOLES>
582.82
26.4
3.47
1.5
37.13
1.8
-0.12
24.38
-9.12
-4.49
0.92
-1.06
0.08
-4.52

> <PUBCHEM_SHAPE_SELFOVERLAP>
1169.095

> <PUBCHEM_SHAPE_VOLUME>
344.2

> <PUBCHEM_COORDINATE_TYPE>
2
5
10

$$$$
