45361600
  -OEChem-12032416313D

 77 80  0     1  0  0  0  0  0999 V2000
    0.0540   -1.4232    1.9340 O   0  0  0  0  0  0  0  0  0  0  0  0
   -4.3145   -2.4432   -0.8723 O   0  0  0  0  0  0  0  0  0  0  0  0
    5.3500    2.5599    0.1387 O   0  0  0  0  0  0  0  0  0  0  0  0
   -9.4035    2.8306    0.2932 O   0  0  0  0  0  0  0  0  0  0  0  0
    4.7840    0.3193   -0.0491 N   0  0  0  0  0  0  0  0  0  0  0  0
   -4.4677   -1.2987    1.1393 N   0  0  0  0  0  0  0  0  0  0  0  0
    7.3515   -0.3285    0.3188 N   0  0  0  0  0  0  0  0  0  0  0  0
   -7.3261    0.8887    0.1697 N   0  0  0  0  0  0  0  0  0  0  0  0
    0.8352   -0.3271   -1.6387 C   0  0  1  0  0  0  0  0  0  0  0  0
    1.0044   -0.4454   -0.0873 C   0  0  2  0  0  0  0  0  0  0  0  0
    2.5153   -0.6364    0.2973 C   0  0  1  0  0  0  0  0  0  0  0  0
    0.0249   -1.4975    0.5078 C   0  0  2  0  0  0  0  0  0  0  0  0
   -0.6446   -0.0271   -1.9750 C   0  0  0  0  0  0  0  0  0  0  0  0
    1.6839    0.8604   -2.1492 C   0  0  0  0  0  0  0  0  0  0  0  0
   -1.4416   -1.2523    0.0823 C   0  0  1  0  0  0  0  0  0  0  0  0
    3.3703    0.5239   -0.2853 C   0  0  2  0  0  0  0  0  0  0  0  0
   -1.6031   -1.0764   -1.4275 C   0  0  0  0  0  0  0  0  0  0  0  0
    3.1564    0.7438   -1.7825 C   0  0  0  0  0  0  0  0  0  0  0  0
    1.2633   -1.6172   -2.3829 C   0  0  0  0  0  0  0  0  0  0  0  0
   -2.3703   -2.3713    0.5699 C   0  0  2  0  0  0  0  0  0  0  0  0
    2.7576   -0.7315    1.8132 C   0  0  0  0  0  0  0  0  0  0  0  0
   -1.9203   -3.7122    0.0006 C   0  0  0  0  0  0  0  0  0  0  0  0
   -3.8115   -2.0573    0.1808 C   0  0  0  0  0  0  0  0  0  0  0  0
    5.6620    1.3720    0.1450 C   0  0  0  0  0  0  0  0  0  0  0  0
    7.0849    0.9964    0.3485 C   0  0  0  0  0  0  0  0  0  0  0  0
   -5.8410   -0.8749    0.9946 C   0  0  0  0  0  0  0  0  0  0  0  0
   -5.9304    0.4743    0.2968 C   0  0  0  0  0  0  0  0  0  0  0  0
    8.0434    1.9763    0.5514 C   0  0  0  0  0  0  0  0  0  0  0  0
    9.3603    1.5700    0.7352 C   0  0  0  0  0  0  0  0  0  0  0  0
   -7.4706    1.9260   -0.8612 C   0  0  0  0  0  0  0  0  0  0  0  0
   -7.8436    1.3800    1.4543 C   0  0  0  0  0  0  0  0  0  0  0  0
    8.6426   -0.6854    0.5013 C   0  0  0  0  0  0  0  0  0  0  0  0
    9.6741    0.2156    0.7110 C   0  0  0  0  0  0  0  0  0  0  0  0
   -8.9324    2.3513   -0.9668 C   0  0  0  0  0  0  0  0  0  0  0  0
   -9.2968    1.8171    1.2937 C   0  0  0  0  0  0  0  0  0  0  0  0
    0.7118    0.5227    0.3504 H   0  0  0  0  0  0  0  0  0  0  0  0
    2.8727   -1.5825   -0.1287 H   0  0  0  0  0  0  0  0  0  0  0  0
    0.3852   -2.4886    0.2261 H   0  0  0  0  0  0  0  0  0  0  0  0
   -0.9257    0.9513   -1.5622 H   0  0  0  0  0  0  0  0  0  0  0  0
   -0.7795    0.0502   -3.0616 H   0  0  0  0  0  0  0  0  0  0  0  0
    1.5927    0.9520   -3.2390 H   0  0  0  0  0  0  0  0  0  0  0  0
    1.2960    1.7983   -1.7293 H   0  0  0  0  0  0  0  0  0  0  0  0
   -1.7766   -0.3183    0.5579 H   0  0  0  0  0  0  0  0  0  0  0  0
    3.0777    1.4487    0.2312 H   0  0  0  0  0  0  0  0  0  0  0  0
   -1.4526   -2.0026   -1.9852 H   0  0  0  0  0  0  0  0  0  0  0  0
   -2.6152   -0.7332   -1.6700 H   0  0  0  0  0  0  0  0  0  0  0  0
    3.6729    1.6584   -2.1014 H   0  0  0  0  0  0  0  0  0  0  0  0
    3.6239   -0.0671   -2.3543 H   0  0  0  0  0  0  0  0  0  0  0  0
    2.3232   -1.8504   -2.2532 H   0  0  0  0  0  0  0  0  0  0  0  0
    1.0892   -1.5157   -3.4606 H   0  0  0  0  0  0  0  0  0  0  0  0
    0.7093   -2.4980   -2.0465 H   0  0  0  0  0  0  0  0  0  0  0  0
   -2.3233   -2.4441    1.6642 H   0  0  0  0  0  0  0  0  0  0  0  0
    2.3819   -1.6769    2.2145 H   0  0  0  0  0  0  0  0  0  0  0  0
    3.8243   -0.7143    2.0590 H   0  0  0  0  0  0  0  0  0  0  0  0
    2.2820    0.0992    2.3447 H   0  0  0  0  0  0  0  0  0  0  0  0
    5.1469   -0.6292   -0.0849 H   0  0  0  0  0  0  0  0  0  0  0  0
   -0.2162   -0.5265    2.1954 H   0  0  0  0  0  0  0  0  0  0  0  0
   -0.9521   -4.0360    0.3901 H   0  0  0  0  0  0  0  0  0  0  0  0
   -2.6354   -4.4864    0.3082 H   0  0  0  0  0  0  0  0  0  0  0  0
   -1.8975   -3.7580   -1.0901 H   0  0  0  0  0  0  0  0  0  0  0  0
   -3.9676   -1.0056    1.9734 H   0  0  0  0  0  0  0  0  0  0  0  0
   -6.3923   -1.6381    0.4331 H   0  0  0  0  0  0  0  0  0  0  0  0
   -6.2486   -0.8425    2.0089 H   0  0  0  0  0  0  0  0  0  0  0  0
   -5.3253    1.2287    0.8171 H   0  0  0  0  0  0  0  0  0  0  0  0
   -5.4827    0.3603   -0.6999 H   0  0  0  0  0  0  0  0  0  0  0  0
    7.7997    3.0330    0.5704 H   0  0  0  0  0  0  0  0  0  0  0  0
   10.1410    2.3072    0.8969 H   0  0  0  0  0  0  0  0  0  0  0  0
   -7.1437    1.5453   -1.8356 H   0  0  0  0  0  0  0  0  0  0  0  0
   -6.8524    2.7980   -0.6108 H   0  0  0  0  0  0  0  0  0  0  0  0
   -7.2466    2.2321    1.8052 H   0  0  0  0  0  0  0  0  0  0  0  0
   -7.8120    0.6045    2.2254 H   0  0  0  0  0  0  0  0  0  0  0  0
    8.8346   -1.7529    0.4738 H   0  0  0  0  0  0  0  0  0  0  0  0
   10.6938   -0.1240    0.8520 H   0  0  0  0  0  0  0  0  0  0  0  0
   -9.0320    3.1663   -1.6909 H   0  0  0  0  0  0  0  0  0  0  0  0
   -9.5704    1.5262   -1.3064 H   0  0  0  0  0  0  0  0  0  0  0  0
   -9.9470    0.9735    1.0315 H   0  0  0  0  0  0  0  0  0  0  0  0
   -9.6653    2.2392    2.2342 H   0  0  0  0  0  0  0  0  0  0  0  0
  1 12  1  0  0  0  0
  1 57  1  0  0  0  0
  2 23  2  0  0  0  0
  3 24  2  0  0  0  0
  4 34  1  0  0  0  0
  4 35  1  0  0  0  0
  5 16  1  0  0  0  0
  5 24  1  0  0  0  0
  5 56  1  0  0  0  0
  6 23  1  0  0  0  0
  6 26  1  0  0  0  0
  6 61  1  0  0  0  0
  7 25  1  0  0  0  0
  7 32  2  0  0  0  0
  8 27  1  0  0  0  0
  8 30  1  0  0  0  0
  8 31  1  0  0  0  0
  9 10  1  0  0  0  0
  9 13  1  0  0  0  0
  9 14  1  0  0  0  0
  9 19  1  0  0  0  0
 10 11  1  0  0  0  0
 10 12  1  0  0  0  0
 10 36  1  0  0  0  0
 11 16  1  0  0  0  0
 11 21  1  0  0  0  0
 11 37  1  0  0  0  0
 12 15  1  0  0  0  0
 12 38  1  0  0  0  0
 13 17  1  0  0  0  0
 13 39  1  0  0  0  0
 13 40  1  0  0  0  0
 14 18  1  0  0  0  0
 14 41  1  0  0  0  0
 14 42  1  0  0  0  0
 15 17  1  0  0  0  0
 15 20  1  0  0  0  0
 15 43  1  0  0  0  0
 16 18  1  0  0  0  0
 16 44  1  0  0  0  0
 17 45  1  0  0  0  0
 17 46  1  0  0  0  0
 18 47  1  0  0  0  0
 18 48  1  0  0  0  0
 19 49  1  0  0  0  0
 19 50  1  0  0  0  0
 19 51  1  0  0  0  0
 20 22  1  0  0  0  0
 20 23  1  0  0  0  0
 20 52  1  0  0  0  0
 21 53  1  0  0  0  0
 21 54  1  0  0  0  0
 21 55  1  0  0  0  0
 22 58  1  0  0  0  0
 22 59  1  0  0  0  0
 22 60  1  0  0  0  0
 24 25  1  0  0  0  0
 25 28  2  0  0  0  0
 26 27  1  0  0  0  0
 26 62  1  0  0  0  0
 26 63  1  0  0  0  0
 27 64  1  0  0  0  0
 27 65  1  0  0  0  0
 28 29  1  0  0  0  0
 28 66  1  0  0  0  0
 29 33  2  0  0  0  0
 29 67  1  0  0  0  0
 30 34  1  0  0  0  0
 30 68  1  0  0  0  0
 30 69  1  0  0  0  0
 31 35  1  0  0  0  0
 31 70  1  0  0  0  0
 31 71  1  0  0  0  0
 32 33  1  0  0  0  0
 32 72  1  0  0  0  0
 33 73  1  0  0  0  0
 34 74  1  0  0  0  0
 34 75  1  0  0  0  0
 35 76  1  0  0  0  0
 35 77  1  0  0  0  0
M  END
> <PUBCHEM_COMPOUND_CID>
45361600

> <PUBCHEM_CONFORMER_RMSD>
1.2

> <PUBCHEM_CONFORMER_DIVERSEORDER>
1
97
87
107
129
138
85
99
126
45
115
53
71
114
56
83
125
69
94
61
112
132
95
141
40
93
143
59
62
98
32
103
144
50
48
130
100
34
117
36
91
84
137
73
86
127
116
102
30
65
47
89
139
110
134
3
81
23
43
142
42
133
104
76
88
72
113
31
6
46
119
124
122
80
136
148
120
2
52
54
5
67
75
145
140
90
108
82
109
128
21
135
123
68
13
44
118
63
18
131
64
111
20
19
105
26
29
27
11
55
41
78
106
28
96
49
51
24
22
10
9
74
8
146
101
35
25
33
14
92
17
38
4
121
39
77
66
16
37
57
7
15
147
58
60
70
79
12

> <PUBCHEM_MMFF94_PARTIAL_CHARGES>
31
1 -0.68
12 0.28
16 0.3
2 -0.57
20 0.06
23 0.57
24 0.54
25 0.4
26 0.3
27 0.27
28 -0.15
29 -0.15
3 -0.57
30 0.27
31 0.27
32 0.16
33 -0.15
34 0.28
35 0.28
4 -0.56
5 -0.73
56 0.37
57 0.4
6 -0.73
61 0.37
66 0.15
67 0.15
7 -0.62
72 0.15
73 0.15
8 -0.81

> <PUBCHEM_EFFECTIVE_ROTOR_COUNT>
11.8

> <PUBCHEM_PHARMACOPHORE_FEATURES>
14
1 1 acceptor
1 1 donor
1 2 acceptor
1 22 hydrophobe
1 3 acceptor
1 4 acceptor
1 5 donor
1 6 donor
1 7 acceptor
1 8 cation
6 4 8 30 31 34 35 rings
6 7 25 28 29 32 33 rings
6 9 10 11 14 16 18 rings
6 9 10 12 13 15 17 rings

> <PUBCHEM_HEAVY_ATOM_COUNT>
35

> <PUBCHEM_ATOM_DEF_STEREO_COUNT>
6

> <PUBCHEM_ATOM_UDEF_STEREO_COUNT>
1

> <PUBCHEM_BOND_DEF_STEREO_COUNT>
0

> <PUBCHEM_BOND_UDEF_STEREO_COUNT>
0

> <PUBCHEM_ISOTOPIC_ATOM_COUNT>
0

> <PUBCHEM_COMPONENT_COUNT>
1

> <PUBCHEM_CACTVS_TAUTO_COUNT>
4

> <PUBCHEM_CONFORMER_ID>
02B429C000000001

> <PUBCHEM_MMFF94_ENERGY>
89.9858

> <PUBCHEM_FEATURE_SELFOVERLAP>
71.062

> <PUBCHEM_SHAPE_FINGERPRINT>
10076449 9 11314030166726053069
10162869 55 12463568492130602858
10190108 129 16587739828935130672
10533779 1 17896875462563170597
11181472 205 18342185475371666556
11443803 9 14620507905511418510
11456790 92 16877670071454376749
11478447 183 11600008735249527441
11578821 258 18198058282451521928
12539745 222 12901541335373575919
12539747 363 16370443375744569572
12838862 33 15697997440785945170
13383668 40 18338238155677109702
13530399 1 18115314505139044932
13782708 43 11025782228595336589
14150023 24 17917991689893761398
14671636 106 8934999274073971777
14931854 50 13470688119127954557
150020 25 11815889050847838711
15131766 46 17410767382856045880
15350500 55 18131072636276451645
15419008 145 16877662336677245845
15439362 3 18339364067783466959
18335252 98 11097850788149229112
19315958 150 18410859828379615826
20105231 36 15357694189557903882
20721686 146 18413671305223017397
21150785 3 9583529715755365522
21267235 1 16443058444221957198
21781055 127 17894925009837182262
21792938 703 11023809705162472517
21792965 68 18273221876372195433
21927370 108 13407071487929332911
22149856 69 18186800301954222836
23522609 53 16879373287689745870
23569917 315 11458962271617517488
23576562 1 16056021584494088689
25269216 80 17274527807985904015
3178227 256 15791731919159994658
3552219 110 15068342307145599902
3918712 181 18341895139856682913
54039377 194 9295283946409340273
54728670 133 16081632397993373327
58083652 198 15502653871172858463
58260988 521 13262395566113288019
6004065 56 10952050066091567530
6058803 2 17027707400481405631
6204607 403 17826802731689604612
636775 8 9367344842987143737

> <PUBCHEM_SHAPE_MULTIPOLES>
676.88
32.12
2.95
1.78
2.95
0.71
-0.73
-30.77
12.11
5.02
0.14
0.48
0.17
0.27

> <PUBCHEM_SHAPE_SELFOVERLAP>
1408.526

> <PUBCHEM_SHAPE_VOLUME>
379.4

> <PUBCHEM_COORDINATE_TYPE>
2
5
10

$$$$
