11883311
  -OEChem-12032416153D

 38 40  0     1  0  0  0  0  0999 V2000
   -1.7754   -1.7677    0.4225 S   0  0  0  0  0  0  0  0  0  0  0  0
    2.9376   -1.1957    0.5179 O   0  0  0  0  0  0  0  0  0  0  0  0
    1.6654    1.5707    0.8816 O   0  0  0  0  0  0  0  0  0  0  0  0
    4.9116    0.5890   -0.2723 O   0  0  0  0  0  0  0  0  0  0  0  0
   -1.8933   -2.2010    1.8018 O   0  0  0  0  0  0  0  0  0  0  0  0
   -2.3814   -2.5455   -0.6411 O   0  0  0  0  0  0  0  0  0  0  0  0
   -0.1387   -1.5110    0.0489 N   0  0  0  0  0  0  0  0  0  0  0  0
   -1.8350   -0.6115   -3.1370 N   0  0  0  0  0  0  0  0  0  0  0  0
    1.3033    0.4551    0.0413 C   0  0  1  0  0  0  0  0  0  0  0  0
    2.5970   -0.1745   -0.4346 C   0  0  1  0  0  0  0  0  0  0  0  0
    0.6555   -0.6298    0.8697 C   0  0  2  0  0  0  0  0  0  0  0  0
    3.5630    0.9847   -0.3816 C   0  0  1  0  0  0  0  0  0  0  0  0
    1.8584   -1.3517    1.4522 C   0  0  0  0  0  0  0  0  0  0  0  0
    3.0901    1.7384    0.8410 C   0  0  0  0  0  0  0  0  0  0  0  0
   -2.4368   -0.1325    0.3064 C   0  0  0  0  0  0  0  0  0  0  0  0
    5.3542   -0.1211   -1.4263 C   0  0  0  0  0  0  0  0  0  0  0  0
   -2.5590    0.5104   -0.9167 C   0  0  0  0  0  0  0  0  0  0  0  0
   -2.8301    0.4879    1.4841 C   0  0  0  0  0  0  0  0  0  0  0  0
   -3.0858    1.8012   -0.9638 C   0  0  0  0  0  0  0  0  0  0  0  0
   -3.3569    1.7786    1.4367 C   0  0  0  0  0  0  0  0  0  0  0  0
   -3.4847    2.4352    0.2129 C   0  0  0  0  0  0  0  0  0  0  0  0
   -2.1589   -0.1095   -2.1436 C   0  0  0  0  0  0  0  0  0  0  0  0
    0.6848    0.8415   -0.7745 H   0  0  0  0  0  0  0  0  0  0  0  0
    2.5163   -0.6462   -1.4184 H   0  0  0  0  0  0  0  0  0  0  0  0
    0.0633   -0.2203    1.6938 H   0  0  0  0  0  0  0  0  0  0  0  0
    3.4248    1.6269   -1.2619 H   0  0  0  0  0  0  0  0  0  0  0  0
    2.1762   -0.8910    2.3940 H   0  0  0  0  0  0  0  0  0  0  0  0
    1.6872   -2.4176    1.6311 H   0  0  0  0  0  0  0  0  0  0  0  0
    3.5200    1.3412    1.7675 H   0  0  0  0  0  0  0  0  0  0  0  0
    3.3328    2.8042    0.7920 H   0  0  0  0  0  0  0  0  0  0  0  0
    0.2316   -1.7897   -0.8675 H   0  0  0  0  0  0  0  0  0  0  0  0
    5.1641    0.4558   -2.3367 H   0  0  0  0  0  0  0  0  0  0  0  0
    4.8798   -1.1042   -1.4908 H   0  0  0  0  0  0  0  0  0  0  0  0
    6.4332   -0.2734   -1.3340 H   0  0  0  0  0  0  0  0  0  0  0  0
   -2.7405    0.0066    2.4527 H   0  0  0  0  0  0  0  0  0  0  0  0
   -3.1921    2.3281   -1.9092 H   0  0  0  0  0  0  0  0  0  0  0  0
   -3.6665    2.2731    2.3528 H   0  0  0  0  0  0  0  0  0  0  0  0
   -3.8944    3.4404    0.1764 H   0  0  0  0  0  0  0  0  0  0  0  0
  1  5  2  0  0  0  0
  1  6  2  0  0  0  0
  1  7  1  0  0  0  0
  1 15  1  0  0  0  0
  2 10  1  0  0  0  0
  2 13  1  0  0  0  0
  3  9  1  0  0  0  0
  3 14  1  0  0  0  0
  4 12  1  0  0  0  0
  4 16  1  0  0  0  0
  7 11  1  0  0  0  0
  7 31  1  0  0  0  0
  8 22  3  0  0  0  0
  9 10  1  0  0  0  0
  9 11  1  0  0  0  0
  9 23  1  0  0  0  0
 10 12  1  0  0  0  0
 10 24  1  0  0  0  0
 11 13  1  0  0  0  0
 11 25  1  0  0  0  0
 12 14  1  0  0  0  0
 12 26  1  0  0  0  0
 13 27  1  0  0  0  0
 13 28  1  0  0  0  0
 14 29  1  0  0  0  0
 14 30  1  0  0  0  0
 15 17  1  0  0  0  0
 15 18  2  0  0  0  0
 16 32  1  0  0  0  0
 16 33  1  0  0  0  0
 16 34  1  0  0  0  0
 17 19  2  0  0  0  0
 17 22  1  0  0  0  0
 18 20  1  0  0  0  0
 18 35  1  0  0  0  0
 19 21  1  0  0  0  0
 19 36  1  0  0  0  0
 20 21  2  0  0  0  0
 20 37  1  0  0  0  0
 21 38  1  0  0  0  0
M  END
> <PUBCHEM_COMPOUND_CID>
11883311

> <PUBCHEM_CONFORMER_RMSD>
0.8

> <PUBCHEM_CONFORMER_DIVERSEORDER>
1
31
27
32
30
5
35
20
22
10
24
36
17
18
12
14
19
29
8
23
26
6
28
21
11
2
7
15
33
3
16
34
9
13
25
4

> <PUBCHEM_MMFF94_PARTIAL_CHARGES>
27
1 1.45
10 0.28
11 0.36
12 0.28
13 0.28
14 0.28
15 -0.01
16 0.28
17 0.07
18 -0.15
19 -0.15
2 -0.56
20 -0.15
21 -0.15
22 0.48
3 -0.56
31 0.42
35 0.15
36 0.15
37 0.15
38 0.15
4 -0.56
5 -0.65
6 -0.65
7 -0.91
8 -0.56
9 0.28

> <PUBCHEM_EFFECTIVE_ROTOR_COUNT>
5.2

> <PUBCHEM_PHARMACOPHORE_FEATURES>
10
1 2 acceptor
1 3 acceptor
1 4 acceptor
1 5 acceptor
1 6 acceptor
1 7 donor
1 8 acceptor
5 2 9 10 11 13 rings
5 3 9 10 12 14 rings
6 15 17 18 19 20 21 rings

> <PUBCHEM_HEAVY_ATOM_COUNT>
22

> <PUBCHEM_ATOM_DEF_STEREO_COUNT>
4

> <PUBCHEM_ATOM_UDEF_STEREO_COUNT>
0

> <PUBCHEM_BOND_DEF_STEREO_COUNT>
0

> <PUBCHEM_BOND_UDEF_STEREO_COUNT>
0

> <PUBCHEM_ISOTOPIC_ATOM_COUNT>
0

> <PUBCHEM_COMPONENT_COUNT>
1

> <PUBCHEM_CACTVS_TAUTO_COUNT>
1

> <PUBCHEM_CONFORMER_ID>
00B5532F00000001

> <PUBCHEM_MMFF94_ENERGY>
50.1826

> <PUBCHEM_FEATURE_SELFOVERLAP>
51.488

> <PUBCHEM_SHAPE_FINGERPRINT>
10165383 225 18041575636776301929
11640471 11 17984962839972035441
12173636 292 18411132546059889007
12363563 72 12103555394524492520
12403814 3 16805045120673107525
128993 33 18260266317739721105
13224815 77 17676481757201560872
14142880 1 18113893867137017773
14251751 93 17917714629752572806
14289901 80 14201391703511939324
14341114 328 14057586534411782140
14386348 128 18113620066570435185
14787075 74 12904413284576256743
15183329 4 16877944958742247646
15788980 27 16988850479852281644
18186145 218 18408606993884468024
18219364 16 17678447576770744763
18981168 100 18041546005633156385
21069387 34 13542455436872643572
21475661 188 16814031180373917237
21524375 3 18264203617766402003
21756936 100 18341335513210422608
21864079 5 18412256233710765664
2306618 200 17459455818589404539
23402539 116 18272373066744456364
23557571 272 18052524762386078755
27216 239 17603589603979342025
4921388 177 16271922740159632101
59027123 10 17775279495570714892
6287921 2 17315098742171362516
633830 44 18410576214962573652
70251023 43 17486194906184329951
7226269 152 18410572865125557504
74978 22 18341604910722980451
81228 2 17531533216806242779

> <PUBCHEM_SHAPE_MULTIPOLES>
417.29
8.46
2.37
1.96
9.26
0.33
1.2
-3.56
1.45
-1.86
-0.65
-1.3
0.35
-0.25

> <PUBCHEM_SHAPE_SELFOVERLAP>
881.861

> <PUBCHEM_SHAPE_VOLUME>
234.9

> <PUBCHEM_COORDINATE_TYPE>
2
5
10

$$$$
