11912252
  -OEChem-12032416133D

 67 70  0     1  0  0  0  0  0999 V2000
    0.9208   -2.6737   -1.1072 S   0  0  0  0  0  0  0  0  0  0  0  0
   -3.8295   -3.0396    2.3604 F   0  0  0  0  0  0  0  0  0  0  0  0
   -1.3084    3.2738   -0.1617 O   0  0  0  0  0  0  0  0  0  0  0  0
    2.0926   -2.6832   -0.2637 O   0  0  0  0  0  0  0  0  0  0  0  0
    0.7625   -3.6164   -2.1893 O   0  0  0  0  0  0  0  0  0  0  0  0
    3.1239   -0.0728   -2.1657 O   0  0  0  0  0  0  0  0  0  0  0  0
    4.6493   -0.6810    2.0988 O   0  0  0  0  0  0  0  0  0  0  0  0
    0.7050   -1.0926   -1.7267 N   0  0  2  0  0  0  0  0  0  0  0  0
   -1.0145    1.1859   -1.1347 N   0  0  0  0  0  0  0  0  0  0  0  0
   -3.1609    1.9653   -0.5510 N   0  0  0  0  0  0  0  0  0  0  0  0
    3.2824    0.5436    0.0735 N   0  0  0  0  0  0  0  0  0  0  0  0
    6.3172    0.8763    1.9949 N   0  0  0  0  0  0  0  0  0  0  0  0
   -4.1123    2.9138   -0.0158 C   0  0  0  0  0  0  0  0  0  0  0  0
    1.1401    0.0356   -0.8535 C   0  0  2  0  0  0  0  0  0  0  0  0
    0.4384    1.3386   -1.2182 C   0  0  0  0  0  0  0  0  0  0  0  0
   -4.2946    2.7194    1.4932 C   0  0  0  0  0  0  0  0  0  0  0  0
   -5.4525    2.8252   -0.7532 C   0  0  0  0  0  0  0  0  0  0  0  0
   -0.5498   -0.8437   -2.4926 C   0  0  0  0  0  0  0  0  0  0  0  0
   -1.5589   -0.0775   -1.6477 C   0  0  0  0  0  0  0  0  0  0  0  0
   -5.0679    1.4443    1.8295 C   0  0  0  0  0  0  0  0  0  0  0  0
   -6.2240    1.5501   -0.4133 C   0  0  0  0  0  0  0  0  0  0  0  0
   -6.4025    1.3845    1.0929 C   0  0  0  0  0  0  0  0  0  0  0  0
   -1.7929    2.2205   -0.5860 C   0  0  0  0  0  0  0  0  0  0  0  0
    2.6101    0.1630   -1.0752 C   0  0  0  0  0  0  0  0  0  0  0  0
    4.7111    0.7143    0.1301 C   0  0  1  0  0  0  0  0  0  0  0  0
    5.1010    2.1424   -0.2254 C   0  0  0  0  0  0  0  0  0  0  0  0
    6.5895    2.3388    0.0126 C   0  0  0  0  0  0  0  0  0  0  0  0
   -0.5008   -2.7831   -0.0694 C   0  0  0  0  0  0  0  0  0  0  0  0
    5.1844    0.2578    1.5058 C   0  0  0  0  0  0  0  0  0  0  0  0
    6.8919    2.1057    1.4809 C   0  0  0  0  0  0  0  0  0  0  0  0
   -1.7017   -3.2748   -0.5812 C   0  0  0  0  0  0  0  0  0  0  0  0
   -0.4245   -2.3780    1.2631 C   0  0  0  0  0  0  0  0  0  0  0  0
   -2.8261   -3.3614    0.2396 C   0  0  0  0  0  0  0  0  0  0  0  0
   -1.5489   -2.4645    2.0839 C   0  0  0  0  0  0  0  0  0  0  0  0
   -2.7497   -2.9564    1.5722 C   0  0  0  0  0  0  0  0  0  0  0  0
    0.9194   -0.1963    0.1926 H   0  0  0  0  0  0  0  0  0  0  0  0
   -3.7030    3.9181   -0.1815 H   0  0  0  0  0  0  0  0  0  0  0  0
    0.6728    1.6503   -2.2441 H   0  0  0  0  0  0  0  0  0  0  0  0
    0.7759    2.1493   -0.5627 H   0  0  0  0  0  0  0  0  0  0  0  0
   -4.8427    3.5796    1.8987 H   0  0  0  0  0  0  0  0  0  0  0  0
   -3.3223    2.6974    1.9997 H   0  0  0  0  0  0  0  0  0  0  0  0
   -5.2946    2.8759   -1.8373 H   0  0  0  0  0  0  0  0  0  0  0  0
   -6.0677    3.6922   -0.4803 H   0  0  0  0  0  0  0  0  0  0  0  0
   -0.9837   -1.7701   -2.8779 H   0  0  0  0  0  0  0  0  0  0  0  0
   -0.2783   -0.2598   -3.3815 H   0  0  0  0  0  0  0  0  0  0  0  0
   -1.9174   -0.6315   -0.7811 H   0  0  0  0  0  0  0  0  0  0  0  0
   -2.4300    0.1476   -2.2729 H   0  0  0  0  0  0  0  0  0  0  0  0
   -4.4653    0.5659    1.5678 H   0  0  0  0  0  0  0  0  0  0  0  0
   -5.2430    1.3965    2.9103 H   0  0  0  0  0  0  0  0  0  0  0  0
   -7.2078    1.5806   -0.8958 H   0  0  0  0  0  0  0  0  0  0  0  0
   -5.7037    0.6749   -0.8199 H   0  0  0  0  0  0  0  0  0  0  0  0
   -6.8974    0.4296    1.3029 H   0  0  0  0  0  0  0  0  0  0  0  0
   -7.0623    2.1754    1.4703 H   0  0  0  0  0  0  0  0  0  0  0  0
   -3.5048    1.0420   -0.7848 H   0  0  0  0  0  0  0  0  0  0  0  0
    5.1714    0.0304   -0.5952 H   0  0  0  0  0  0  0  0  0  0  0  0
    2.7484    0.7418    0.9152 H   0  0  0  0  0  0  0  0  0  0  0  0
    4.8596    2.3509   -1.2745 H   0  0  0  0  0  0  0  0  0  0  0  0
    4.5299    2.8599    0.3782 H   0  0  0  0  0  0  0  0  0  0  0  0
    6.8943    3.3500   -0.2774 H   0  0  0  0  0  0  0  0  0  0  0  0
    7.1601    1.6351   -0.6056 H   0  0  0  0  0  0  0  0  0  0  0  0
    6.4841    2.9210    2.0890 H   0  0  0  0  0  0  0  0  0  0  0  0
    7.9719    2.0669    1.6540 H   0  0  0  0  0  0  0  0  0  0  0  0
    6.6751    0.5405    2.8838 H   0  0  0  0  0  0  0  0  0  0  0  0
   -1.7858   -3.6041   -1.6126 H   0  0  0  0  0  0  0  0  0  0  0  0
    0.5000   -1.9963    1.6865 H   0  0  0  0  0  0  0  0  0  0  0  0
   -3.7609   -3.7452   -0.1579 H   0  0  0  0  0  0  0  0  0  0  0  0
   -1.4899   -2.1497    3.1215 H   0  0  0  0  0  0  0  0  0  0  0  0
  1  4  2  0  0  0  0
  1  5  2  0  0  0  0
  1  8  1  0  0  0  0
  1 28  1  0  0  0  0
  2 35  1  0  0  0  0
  3 23  2  0  0  0  0
  6 24  2  0  0  0  0
  7 29  2  0  0  0  0
  8 14  1  0  0  0  0
  8 18  1  0  0  0  0
  9 15  1  0  0  0  0
  9 19  1  0  0  0  0
  9 23  1  0  0  0  0
 10 13  1  0  0  0  0
 10 23  1  0  0  0  0
 10 54  1  0  0  0  0
 11 24  1  0  0  0  0
 11 25  1  0  0  0  0
 11 56  1  0  0  0  0
 12 29  1  0  0  0  0
 12 30  1  0  0  0  0
 12 63  1  0  0  0  0
 13 16  1  0  0  0  0
 13 17  1  0  0  0  0
 13 37  1  0  0  0  0
 14 15  1  0  0  0  0
 14 24  1  0  0  0  0
 14 36  1  0  0  0  0
 15 38  1  0  0  0  0
 15 39  1  0  0  0  0
 16 20  1  0  0  0  0
 16 40  1  0  0  0  0
 16 41  1  0  0  0  0
 17 21  1  0  0  0  0
 17 42  1  0  0  0  0
 17 43  1  0  0  0  0
 18 19  1  0  0  0  0
 18 44  1  0  0  0  0
 18 45  1  0  0  0  0
 19 46  1  0  0  0  0
 19 47  1  0  0  0  0
 20 22  1  0  0  0  0
 20 48  1  0  0  0  0
 20 49  1  0  0  0  0
 21 22  1  0  0  0  0
 21 50  1  0  0  0  0
 21 51  1  0  0  0  0
 22 52  1  0  0  0  0
 22 53  1  0  0  0  0
 25 26  1  0  0  0  0
 25 29  1  0  0  0  0
 25 55  1  0  0  0  0
 26 27  1  0  0  0  0
 26 57  1  0  0  0  0
 26 58  1  0  0  0  0
 27 30  1  0  0  0  0
 27 59  1  0  0  0  0
 27 60  1  0  0  0  0
 28 31  2  0  0  0  0
 28 32  1  0  0  0  0
 30 61  1  0  0  0  0
 30 62  1  0  0  0  0
 31 33  1  0  0  0  0
 31 64  1  0  0  0  0
 32 34  2  0  0  0  0
 32 65  1  0  0  0  0
 33 35  2  0  0  0  0
 33 66  1  0  0  0  0
 34 35  1  0  0  0  0
 34 67  1  0  0  0  0
M  END
> <PUBCHEM_COMPOUND_CID>
11912252

> <PUBCHEM_CONFORMER_RMSD>
1.2

> <PUBCHEM_CONFORMER_DIVERSEORDER>
1
2
30
107
58
51
91
105
27
95
39
81
87
113
84
32
75
23
100
111
120
69
90
110
102
20
62
61
106
77
64
80
72
37
19
46
65
116
66
121
59
79
26
71
33
98
85
78
109
49
50
16
18
29
89
54
57
83
14
97
122
67
13
96
99
104
68
47
76
21
103
115
70
53
15
112
12
56
9
6
17
82
44
114
5
11
31
45
86
123
40
4
88
73
24
92
34
94
7
28
41
55
117
42
35
48
118
63
101
3
22
25
93
10
119
8
74
43
38
36
60
52
108

> <PUBCHEM_MMFF94_PARTIAL_CHARGES>
35
1 1.45
10 -0.73
11 -0.73
12 -0.73
13 0.3
14 0.42
15 0.3
18 0.36
19 0.3
2 -0.19
23 0.69
24 0.57
25 0.36
28 -0.01
29 0.57
3 -0.57
30 0.3
31 -0.15
32 -0.15
33 -0.15
34 -0.15
35 0.19
4 -0.65
5 -0.65
54 0.37
56 0.37
6 -0.57
63 0.37
64 0.15
65 0.15
66 0.15
67 0.15
7 -0.57
8 -0.85
9 -0.66

> <PUBCHEM_EFFECTIVE_ROTOR_COUNT>
11.4

> <PUBCHEM_PHARMACOPHORE_FEATURES>
12
1 10 donor
1 11 donor
1 12 donor
1 3 acceptor
1 4 acceptor
1 5 acceptor
1 6 acceptor
1 7 acceptor
6 12 25 26 27 29 30 rings
6 13 16 17 20 21 22 rings
6 28 31 32 33 34 35 rings
6 8 9 14 15 18 19 rings

> <PUBCHEM_HEAVY_ATOM_COUNT>
35

> <PUBCHEM_ATOM_DEF_STEREO_COUNT>
2

> <PUBCHEM_ATOM_UDEF_STEREO_COUNT>
0

> <PUBCHEM_BOND_DEF_STEREO_COUNT>
0

> <PUBCHEM_BOND_UDEF_STEREO_COUNT>
0

> <PUBCHEM_ISOTOPIC_ATOM_COUNT>
0

> <PUBCHEM_COMPONENT_COUNT>
1

> <PUBCHEM_CACTVS_TAUTO_COUNT>
8

> <PUBCHEM_CONFORMER_ID>
00B5C43C00000001

> <PUBCHEM_MMFF94_ENERGY>
59.5983

> <PUBCHEM_FEATURE_SELFOVERLAP>
60.917

> <PUBCHEM_SHAPE_FINGERPRINT>
10074138 170 18261383503067996409
10319688 67 18408597080556831521
11112241 14 18269843025975140665
11456790 92 17606411106105634075
11578080 2 18060145331597304666
12422481 6 17968100802167379018
12597179 24 18342176643926719963
12788726 201 17973741447573826358
13692114 37 18411697647797818031
14020679 6 18343294894523858192
14028597 1 17677322939658771083
14068700 686 18194402186918611797
14289278 72 18335141930690438874
144659 39 18187363207670535992
14675020 138 17751363876932656809
14955137 171 17475513880744133366
15338160 23 18264771137459907788
15347590 135 18270405988972194185
16114785 44 18058155314572174254
21987440 362 12615532930482300479
23536364 44 8358270210963629697
23559900 14 17682699319753768597
255183 451 9798246748812055217
4173938 306 16952803962125985029
4340502 62 18336548201192052925
563151 248 17676483930597509712
9981440 41 18271230677957264726

> <PUBCHEM_SHAPE_MULTIPOLES>
662.61
14.77
5.12
2.3
11.44
2.91
-0.26
-17.03
-8.63
-4.77
-0.52
0.25
1.09
1.73

> <PUBCHEM_SHAPE_SELFOVERLAP>
1379.39

> <PUBCHEM_SHAPE_VOLUME>
376.2

> <PUBCHEM_COORDINATE_TYPE>
2
5
10

$$$$
