25313359
  -OEChem-12032416403D

 70 72  0     1  0  0  0  0  0999 V2000
   -8.7991   -0.3473    0.9283 F   0  0  0  0  0  0  0  0  0  0  0  0
    3.0512    3.2003    1.2725 O   0  0  0  0  0  0  0  0  0  0  0  0
    5.3144   -4.7626    0.9449 O   0  0  0  0  0  0  0  0  0  0  0  0
    6.5786   -2.9139    0.5392 O   0  0  0  0  0  0  0  0  0  0  0  0
    3.5529    1.4169   -0.1294 N   0  0  0  0  0  0  0  0  0  0  0  0
   -0.6528   -1.3553   -0.7438 N   0  0  0  0  0  0  0  0  0  0  0  0
   -3.4441   -0.9224   -0.3195 N   0  0  0  0  0  0  0  0  0  0  0  0
    3.1112   -0.8677   -1.0003 C   0  0  2  0  0  0  0  0  0  0  0  0
    4.3032   -1.3810   -0.1527 C   0  0  1  0  0  0  0  0  0  0  0  0
    3.3134    0.6203   -1.3395 C   0  0  0  0  0  0  0  0  0  0  0  0
    4.5496   -0.4887    1.0756 C   0  0  0  0  0  0  0  0  0  0  0  0
    1.7416   -1.0830   -0.3440 C   0  0  0  0  0  0  0  0  0  0  0  0
    4.6921    0.9777    0.6761 C   0  0  0  0  0  0  0  0  0  0  0  0
    4.1576   -2.8442    0.2645 C   0  0  0  0  0  0  0  0  0  0  0  0
    0.6436   -1.1676   -1.3944 C   0  0  0  0  0  0  0  0  0  0  0  0
    2.8129    2.5316    0.2635 C   0  0  0  0  0  0  0  0  0  0  0  0
   -1.6389   -1.8725   -1.7002 C   0  0  0  0  0  0  0  0  0  0  0  0
   -1.1290   -0.0904   -0.1704 C   0  0  0  0  0  0  0  0  0  0  0  0
    1.6529    2.9181   -0.6189 C   0  0  0  0  0  0  0  0  0  0  0  0
    0.9307    4.1884   -0.1349 C   0  0  0  0  0  0  0  0  0  0  0  0
   -2.9857   -2.1268   -1.0187 C   0  0  0  0  0  0  0  0  0  0  0  0
   -2.4580   -0.2859    0.5627 C   0  0  0  0  0  0  0  0  0  0  0  0
    5.4892   -3.4650    0.5851 C   0  0  0  0  0  0  0  0  0  0  0  0
    0.3725    4.0025    1.2864 C   0  0  0  0  0  0  0  0  0  0  0  0
   -0.2142    4.5735   -1.0873 C   0  0  0  0  0  0  0  0  0  0  0  0
    1.9578    5.3359   -0.1126 C   0  0  0  0  0  0  0  0  0  0  0  0
   -4.7996   -0.7765   -0.0040 C   0  0  0  0  0  0  0  0  0  0  0  0
   -5.5826   -1.9040    0.2444 C   0  0  0  0  0  0  0  0  0  0  0  0
   -5.3677    0.4956    0.0631 C   0  0  0  0  0  0  0  0  0  0  0  0
   -6.9335   -1.7593    0.5596 C   0  0  0  0  0  0  0  0  0  0  0  0
   -6.7188    0.6404    0.3782 C   0  0  0  0  0  0  0  0  0  0  0  0
   -7.5016   -0.4871    0.6264 C   0  0  0  0  0  0  0  0  0  0  0  0
    3.1319   -1.4285   -1.9452 H   0  0  0  0  0  0  0  0  0  0  0  0
    5.1905   -1.2924   -0.7971 H   0  0  0  0  0  0  0  0  0  0  0  0
    4.2042    0.7363   -1.9700 H   0  0  0  0  0  0  0  0  0  0  0  0
    2.4757    0.9997   -1.9249 H   0  0  0  0  0  0  0  0  0  0  0  0
    5.4522   -0.7989    1.6127 H   0  0  0  0  0  0  0  0  0  0  0  0
    3.7123   -0.5882    1.7783 H   0  0  0  0  0  0  0  0  0  0  0  0
    1.5572   -0.2954    0.3918 H   0  0  0  0  0  0  0  0  0  0  0  0
    1.7241   -2.0235    0.2170 H   0  0  0  0  0  0  0  0  0  0  0  0
    4.7964    1.5951    1.5739 H   0  0  0  0  0  0  0  0  0  0  0  0
    5.5958    1.1242    0.0728 H   0  0  0  0  0  0  0  0  0  0  0  0
    3.5163   -2.9431    1.1471 H   0  0  0  0  0  0  0  0  0  0  0  0
    3.7249   -3.4234   -0.5599 H   0  0  0  0  0  0  0  0  0  0  0  0
    0.8643   -2.0341   -2.0320 H   0  0  0  0  0  0  0  0  0  0  0  0
    0.6329   -0.2901   -2.0516 H   0  0  0  0  0  0  0  0  0  0  0  0
   -1.2914   -2.8216   -2.1264 H   0  0  0  0  0  0  0  0  0  0  0  0
   -1.7745   -1.1698   -2.5336 H   0  0  0  0  0  0  0  0  0  0  0  0
   -1.2562    0.6681   -0.9550 H   0  0  0  0  0  0  0  0  0  0  0  0
   -0.4220    0.3146    0.5596 H   0  0  0  0  0  0  0  0  0  0  0  0
    0.9440    2.0840   -0.6485 H   0  0  0  0  0  0  0  0  0  0  0  0
    2.0281    3.0853   -1.6360 H   0  0  0  0  0  0  0  0  0  0  0  0
   -3.7056   -2.4253   -1.7911 H   0  0  0  0  0  0  0  0  0  0  0  0
   -2.8860   -2.9567   -0.3072 H   0  0  0  0  0  0  0  0  0  0  0  0
   -2.3107   -0.9140    1.4509 H   0  0  0  0  0  0  0  0  0  0  0  0
   -2.7998    0.6945    0.9142 H   0  0  0  0  0  0  0  0  0  0  0  0
    1.1216    3.9867    2.0802 H   0  0  0  0  0  0  0  0  0  0  0  0
   -0.2131    3.0785    1.3554 H   0  0  0  0  0  0  0  0  0  0  0  0
   -0.3039    4.8288    1.5385 H   0  0  0  0  0  0  0  0  0  0  0  0
    0.1589    4.7411   -2.1038 H   0  0  0  0  0  0  0  0  0  0  0  0
   -0.9647    3.7764   -1.1346 H   0  0  0  0  0  0  0  0  0  0  0  0
   -0.7195    5.4895   -0.7615 H   0  0  0  0  0  0  0  0  0  0  0  0
    2.5333    5.3749   -1.0448 H   0  0  0  0  0  0  0  0  0  0  0  0
    2.6617    5.3160    0.7216 H   0  0  0  0  0  0  0  0  0  0  0  0
    1.4398    6.2997   -0.0237 H   0  0  0  0  0  0  0  0  0  0  0  0
    6.1655   -5.1997    1.1619 H   0  0  0  0  0  0  0  0  0  0  0  0
   -5.1708   -2.9088    0.2153 H   0  0  0  0  0  0  0  0  0  0  0  0
   -4.7781    1.3857   -0.1409 H   0  0  0  0  0  0  0  0  0  0  0  0
   -7.5431   -2.6364    0.7560 H   0  0  0  0  0  0  0  0  0  0  0  0
   -7.1623    1.6305    0.4273 H   0  0  0  0  0  0  0  0  0  0  0  0
  1 32  1  0  0  0  0
  2 16  2  0  0  0  0
  3 23  1  0  0  0  0
  3 66  1  0  0  0  0
  4 23  2  0  0  0  0
  5 10  1  0  0  0  0
  5 13  1  0  0  0  0
  5 16  1  0  0  0  0
  6 15  1  0  0  0  0
  6 17  1  0  0  0  0
  6 18  1  0  0  0  0
  7 21  1  0  0  0  0
  7 22  1  0  0  0  0
  7 27  1  0  0  0  0
  8  9  1  0  0  0  0
  8 10  1  0  0  0  0
  8 12  1  0  0  0  0
  8 33  1  0  0  0  0
  9 11  1  0  0  0  0
  9 14  1  0  0  0  0
  9 34  1  0  0  0  0
 10 35  1  0  0  0  0
 10 36  1  0  0  0  0
 11 13  1  0  0  0  0
 11 37  1  0  0  0  0
 11 38  1  0  0  0  0
 12 15  1  0  0  0  0
 12 39  1  0  0  0  0
 12 40  1  0  0  0  0
 13 41  1  0  0  0  0
 13 42  1  0  0  0  0
 14 23  1  0  0  0  0
 14 43  1  0  0  0  0
 14 44  1  0  0  0  0
 15 45  1  0  0  0  0
 15 46  1  0  0  0  0
 16 19  1  0  0  0  0
 17 21  1  0  0  0  0
 17 47  1  0  0  0  0
 17 48  1  0  0  0  0
 18 22  1  0  0  0  0
 18 49  1  0  0  0  0
 18 50  1  0  0  0  0
 19 20  1  0  0  0  0
 19 51  1  0  0  0  0
 19 52  1  0  0  0  0
 20 24  1  0  0  0  0
 20 25  1  0  0  0  0
 20 26  1  0  0  0  0
 21 53  1  0  0  0  0
 21 54  1  0  0  0  0
 22 55  1  0  0  0  0
 22 56  1  0  0  0  0
 24 57  1  0  0  0  0
 24 58  1  0  0  0  0
 24 59  1  0  0  0  0
 25 60  1  0  0  0  0
 25 61  1  0  0  0  0
 25 62  1  0  0  0  0
 26 63  1  0  0  0  0
 26 64  1  0  0  0  0
 26 65  1  0  0  0  0
 27 28  2  0  0  0  0
 27 29  1  0  0  0  0
 28 30  1  0  0  0  0
 28 67  1  0  0  0  0
 29 31  2  0  0  0  0
 29 68  1  0  0  0  0
 30 32  2  0  0  0  0
 30 69  1  0  0  0  0
 31 32  1  0  0  0  0
 31 70  1  0  0  0  0
M  END
> <PUBCHEM_COMPOUND_CID>
25313359

> <PUBCHEM_CONFORMER_RMSD>
1.2

> <PUBCHEM_CONFORMER_DIVERSEORDER>
1
48
161
62
180
115
73
85
145
116
8
140
46
182
49
110
186
171
134
156
141
38
80
148
170
91
125
106
47
165
188
25
142
160
64
191
72
138
31
84
166
159
152
33
13
27
42
82
107
57
114
89
154
117
100
69
168
7
93
24
87
119
136
150
14
126
56
176
63
67
39
22
15
23
28
187
181
139
11
101
162
99
59
52
61
113
70
189
131
88
34
174
76
71
92
179
167
79
192
74
95
124
153
112
133
108
172
45
184
19
86
155
175
96
143
97
6
10
50
18
5
26
173
120
103
185
178
130
20
78
151
164
169
177
135
127
158
12
105
128
17
129
81
55
118
53
44
163
98
32
149
37
183
90
104
147
43
4
94
29
102
51
123
132
66
109
16
146
83
2
36
75
40
68
21
30
121
137
58
144
9
54
190
65
60
35
111
41
157
77
122
3

> <PUBCHEM_MMFF94_PARTIAL_CHARGES>
29
1 -0.19
10 0.3
13 0.3
14 0.06
15 0.27
16 0.57
17 0.27
18 0.27
19 0.06
2 -0.57
21 0.37
22 0.37
23 0.66
27 0.1
28 -0.15
29 -0.15
3 -0.65
30 -0.15
31 -0.15
32 0.19
4 -0.57
5 -0.66
6 -0.81
66 0.5
67 0.15
68 0.15
69 0.15
7 -0.84
70 0.15

> <PUBCHEM_EFFECTIVE_ROTOR_COUNT>
11.4

> <PUBCHEM_PHARMACOPHORE_FEATURES>
10
1 2 acceptor
1 3 acceptor
1 4 acceptor
1 6 cation
1 7 cation
3 3 4 23 anion
4 20 24 25 26 hydrophobe
6 27 28 29 30 31 32 rings
6 5 8 9 10 11 13 rings
6 6 7 17 18 21 22 rings

> <PUBCHEM_HEAVY_ATOM_COUNT>
32

> <PUBCHEM_ATOM_DEF_STEREO_COUNT>
2

> <PUBCHEM_ATOM_UDEF_STEREO_COUNT>
0

> <PUBCHEM_BOND_DEF_STEREO_COUNT>
0

> <PUBCHEM_BOND_UDEF_STEREO_COUNT>
0

> <PUBCHEM_ISOTOPIC_ATOM_COUNT>
0

> <PUBCHEM_COMPONENT_COUNT>
1

> <PUBCHEM_CACTVS_TAUTO_COUNT>
1

> <PUBCHEM_CONFORMER_ID>
0182404F00000001

> <PUBCHEM_MMFF94_ENERGY>
89.9838

> <PUBCHEM_FEATURE_SELFOVERLAP>
50.805

> <PUBCHEM_SHAPE_FINGERPRINT>
10074138 170 16388712521654936571
10411042 1 18337954468327458474
10688039 33 18333731282551221780
11456790 92 18337684031696046937
11756154 67 18267589013825497102
12107183 9 18343019991210684479
12166972 35 18113344084914938381
12539745 222 17751071407008596950
13165054 54 17682682818225550339
13533116 47 18333733515654790002
13692115 27 18118688704476738726
13782708 43 17676489458484715347
13785724 45 18341338799139888086
14114211 80 17395862423955541724
15348495 7 18189341332949179411
15400415 2 17545599415227289181
15419008 47 17967244274504593765
15420108 30 17557971017325571172
15475509 84 18266737987709972964
16760501 71 18269840972906400309
19301679 30 18122624947271921462
19302320 297 18269851856633636265
21304303 94 10881403110943116760
21315764 268 18408602583169339661
21344244 78 18339632370363603722
21987483 16 18121787394817023171
22033318 11 18199490795793476961
345986 75 17897428516024971202
3680242 22 18342182171808183731
3886686 26 17041478311352647466
397830 11 17972047092209470011
4073 2 18117001185359848211
4144715 1 18334020497443693011
5104073 3 18341622550892864539
5109719 28 18200330930320622747
513532 50 17702401708739938148
59520757 100 17829606154519570868
60111433 81 16843875584947435721
6058803 2 17842544425634177367
68570916 9 18200032988634699055

> <PUBCHEM_SHAPE_MULTIPOLES>
618.72
18.11
6.39
1.21
33.47
7.03
0.2
-15.47
-6.9
-11.06
-0.65
-0.35
-0.01
-1.1

> <PUBCHEM_SHAPE_SELFOVERLAP>
1276.159

> <PUBCHEM_SHAPE_VOLUME>
356

> <PUBCHEM_COORDINATE_TYPE>
2
5
10

$$$$
