51138104
  -OEChem-12032416233D

 66 70  0     1  0  0  0  0  0999 V2000
    2.7232    2.5606    1.0157 O   0  0  0  0  0  0  0  0  0  0  0  0
   -6.1748    2.0901    1.2044 O   0  0  0  0  0  0  0  0  0  0  0  0
    2.0351   -0.3927    0.4950 N   0  0  0  0  0  0  0  0  0  0  0  0
    4.0266    1.6349   -0.6669 N   0  0  0  0  0  0  0  0  0  0  0  0
   -2.8007   -0.0189   -0.9117 N   0  0  0  0  0  0  0  0  0  0  0  0
   -6.1429    0.8840    1.8939 N   0  0  0  0  0  0  0  0  0  0  0  0
    5.2195    2.4707   -0.4412 C   0  0  0  0  0  0  0  0  0  0  0  0
    1.7201   -1.6554   -0.1866 C   0  0  2  0  0  0  0  0  0  0  0  0
    6.4756    2.0045   -1.2063 C   0  0  0  0  0  0  0  0  0  0  0  0
    5.9850    2.1472    0.8589 C   0  0  0  0  0  0  0  0  0  0  0  0
    1.7928    0.8036   -0.2986 C   0  0  1  0  0  0  0  0  0  0  0  0
    7.2850    2.3651    0.0568 C   0  0  0  0  0  0  0  0  0  0  0  0
    0.4349    1.4247    0.0233 C   0  0  0  0  0  0  0  0  0  0  0  0
    0.2479   -1.8691   -0.5526 C   0  0  0  0  0  0  0  0  0  0  0  0
   -0.7429   -0.8461   -0.5991 C   0  0  0  0  0  0  0  0  0  0  0  0
   -0.7270    0.5727   -0.3650 C   0  0  0  0  0  0  0  0  0  0  0  0
    2.2596   -2.7495    0.7521 C   0  0  0  0  0  0  0  0  0  0  0  0
    2.8759    1.7615    0.0939 C   0  0  0  0  0  0  0  0  0  0  0  0
   -2.0544   -1.1724   -0.9631 C   0  0  0  0  0  0  0  0  0  0  0  0
    3.7826   -2.8991    0.6836 C   0  0  0  0  0  0  0  0  0  0  0  0
   -2.0124    1.0364   -0.5593 C   0  0  0  0  0  0  0  0  0  0  0  0
   -0.1703   -3.1632   -0.9549 C   0  0  0  0  0  0  0  0  0  0  0  0
   -2.4571   -2.4628   -1.3110 C   0  0  0  0  0  0  0  0  0  0  0  0
   -4.2141    0.0840   -1.2056 C   0  0  0  0  0  0  0  0  0  0  0  0
   -1.4851   -3.4548   -1.3133 C   0  0  0  0  0  0  0  0  0  0  0  0
    4.2194   -4.0418    1.6033 C   0  0  0  0  0  0  0  0  0  0  0  0
    4.5187   -1.6153    1.0692 C   0  0  0  0  0  0  0  0  0  0  0  0
   -5.0179    0.6777   -0.0755 C   0  0  0  0  0  0  0  0  0  0  0  0
   -5.5016    1.9546    0.0332 C   0  0  0  0  0  0  0  0  0  0  0  0
   -5.4466    0.0560    1.1100 C   0  0  0  0  0  0  0  0  0  0  0  0
   -5.4385    3.1456   -0.8242 C   0  0  0  0  0  0  0  0  0  0  0  0
   -5.2156   -1.3327    1.5417 C   0  0  0  0  0  0  0  0  0  0  0  0
    5.0035    3.5382   -0.5739 H   0  0  0  0  0  0  0  0  0  0  0  0
    2.2794   -1.7003   -1.1312 H   0  0  0  0  0  0  0  0  0  0  0  0
    6.4980    0.9352   -1.4488 H   0  0  0  0  0  0  0  0  0  0  0  0
    6.7251    2.5770   -2.1035 H   0  0  0  0  0  0  0  0  0  0  0  0
    5.8247    2.8404    1.6889 H   0  0  0  0  0  0  0  0  0  0  0  0
    5.8652    1.1214    1.2255 H   0  0  0  0  0  0  0  0  0  0  0  0
    1.8722    0.6057   -1.3759 H   0  0  0  0  0  0  0  0  0  0  0  0
    8.1129    1.6947    0.2998 H   0  0  0  0  0  0  0  0  0  0  0  0
    7.6445    3.4004    0.0707 H   0  0  0  0  0  0  0  0  0  0  0  0
    0.3474    1.6472    1.0961 H   0  0  0  0  0  0  0  0  0  0  0  0
    0.3532    2.3913   -0.4929 H   0  0  0  0  0  0  0  0  0  0  0  0
    1.5635   -0.3384    1.3970 H   0  0  0  0  0  0  0  0  0  0  0  0
    1.8432   -3.7331    0.5166 H   0  0  0  0  0  0  0  0  0  0  0  0
    1.9392   -2.5602    1.7874 H   0  0  0  0  0  0  0  0  0  0  0  0
    4.0393    0.9339   -1.4040 H   0  0  0  0  0  0  0  0  0  0  0  0
    4.0722   -3.1685   -0.3402 H   0  0  0  0  0  0  0  0  0  0  0  0
   -2.4102    2.0394   -0.4816 H   0  0  0  0  0  0  0  0  0  0  0  0
    0.5462   -3.9779   -1.0289 H   0  0  0  0  0  0  0  0  0  0  0  0
   -3.4753   -2.7031   -1.5942 H   0  0  0  0  0  0  0  0  0  0  0  0
   -4.6226   -0.8981   -1.4553 H   0  0  0  0  0  0  0  0  0  0  0  0
   -4.3019    0.7011   -2.1079 H   0  0  0  0  0  0  0  0  0  0  0  0
   -1.7502   -4.4668   -1.6079 H   0  0  0  0  0  0  0  0  0  0  0  0
    5.3007   -4.2031    1.5378 H   0  0  0  0  0  0  0  0  0  0  0  0
    3.9723   -3.8280    2.6489 H   0  0  0  0  0  0  0  0  0  0  0  0
    3.7286   -4.9800    1.3230 H   0  0  0  0  0  0  0  0  0  0  0  0
    5.5829   -1.8227    1.2335 H   0  0  0  0  0  0  0  0  0  0  0  0
    4.4867   -0.8824    0.2617 H   0  0  0  0  0  0  0  0  0  0  0  0
    4.1312   -1.1770    1.9944 H   0  0  0  0  0  0  0  0  0  0  0  0
   -6.3384    3.2164   -1.4427 H   0  0  0  0  0  0  0  0  0  0  0  0
   -5.3646    4.0572   -0.2227 H   0  0  0  0  0  0  0  0  0  0  0  0
   -4.5700    3.1152   -1.4887 H   0  0  0  0  0  0  0  0  0  0  0  0
   -4.1582   -1.4882    1.7791 H   0  0  0  0  0  0  0  0  0  0  0  0
   -5.8002   -1.5853    2.4327 H   0  0  0  0  0  0  0  0  0  0  0  0
   -5.4961   -2.0366    0.7514 H   0  0  0  0  0  0  0  0  0  0  0  0
  1 18  2  0  0  0  0
  2  6  1  0  0  0  0
  2 29  1  0  0  0  0
  3  8  1  0  0  0  0
  3 11  1  0  0  0  0
  3 44  1  0  0  0  0
  4  7  1  0  0  0  0
  4 18  1  0  0  0  0
  4 47  1  0  0  0  0
  5 19  1  0  0  0  0
  5 21  1  0  0  0  0
  5 24  1  0  0  0  0
  6 30  2  0  0  0  0
  7  9  1  0  0  0  0
  7 10  1  0  0  0  0
  7 33  1  0  0  0  0
  8 14  1  0  0  0  0
  8 17  1  0  0  0  0
  8 34  1  0  0  0  0
  9 12  1  0  0  0  0
  9 35  1  0  0  0  0
  9 36  1  0  0  0  0
 10 12  1  0  0  0  0
 10 37  1  0  0  0  0
 10 38  1  0  0  0  0
 11 13  1  0  0  0  0
 11 18  1  0  0  0  0
 11 39  1  0  0  0  0
 12 40  1  0  0  0  0
 12 41  1  0  0  0  0
 13 16  1  0  0  0  0
 13 42  1  0  0  0  0
 13 43  1  0  0  0  0
 14 15  2  0  0  0  0
 14 22  1  0  0  0  0
 15 16  1  0  0  0  0
 15 19  1  0  0  0  0
 16 21  2  0  0  0  0
 17 20  1  0  0  0  0
 17 45  1  0  0  0  0
 17 46  1  0  0  0  0
 19 23  2  0  0  0  0
 20 26  1  0  0  0  0
 20 27  1  0  0  0  0
 20 48  1  0  0  0  0
 21 49  1  0  0  0  0
 22 25  2  0  0  0  0
 22 50  1  0  0  0  0
 23 25  1  0  0  0  0
 23 51  1  0  0  0  0
 24 28  1  0  0  0  0
 24 52  1  0  0  0  0
 24 53  1  0  0  0  0
 25 54  1  0  0  0  0
 26 55  1  0  0  0  0
 26 56  1  0  0  0  0
 26 57  1  0  0  0  0
 27 58  1  0  0  0  0
 27 59  1  0  0  0  0
 27 60  1  0  0  0  0
 28 29  2  0  0  0  0
 28 30  1  0  0  0  0
 29 31  1  0  0  0  0
 30 32  1  0  0  0  0
 31 61  1  0  0  0  0
 31 62  1  0  0  0  0
 31 63  1  0  0  0  0
 32 64  1  0  0  0  0
 32 65  1  0  0  0  0
 32 66  1  0  0  0  0
M  END
> <PUBCHEM_COMPOUND_CID>
51138104

> <PUBCHEM_CONFORMER_RMSD>
1

> <PUBCHEM_CONFORMER_DIVERSEORDER>
1
160
92
125
74
68
167
110
119
94
36
24
171
108
65
12
172
170
71
116
66
131
163
81
133
88
126
154
84
146
69
135
2
56
80
49
91
109
104
20
123
121
164
132
75
156
143
95
148
58
155
73
55
62
33
111
52
114
67
115
45
100
23
85
90
38
48
37
34
112
29
107
54
127
16
169
134
122
152
27
149
14
42
140
120
21
51
159
70
102
9
53
129
25
10
117
113
158
30
103
150
59
11
32
87
142
141
86
144
4
128
98
63
3
139
22
18
28
168
93
72
136
8
145
118
40
153
77
7
39
162
106
46
99
97
166
41
79
15
151
19
161
137
5
26
44
165
82
130
78
57
43
138
147
13
17
64
76
47
89
105
60
6
157
124
31
50
96
61
35
101
83

> <PUBCHEM_MMFF94_PARTIAL_CHARGES>
30
1 -0.57
11 0.33
13 0.18
14 -0.14
16 -0.18
18 0.57
19 -0.15
2 -0.02
21 -0.3
22 -0.15
23 -0.15
24 0.44
25 -0.15
28 -0.18
29 -0.04
3 -0.9
30 0.11
31 0.18
32 0.18
4 -0.65
44 0.36
47 0.37
49 0.15
5 0.05
50 0.15
51 0.15
54 0.15
6 -0.41
7 0.22
8 0.41

> <PUBCHEM_EFFECTIVE_ROTOR_COUNT>
8.6

> <PUBCHEM_PHARMACOPHORE_FEATURES>
12
1 1 acceptor
1 3 cation
1 3 donor
1 4 donor
1 5 cation
1 6 acceptor
3 20 26 27 hydrophobe
4 7 9 10 12 rings
5 2 6 28 29 30 rings
5 5 15 16 19 21 rings
6 14 15 19 22 23 25 rings
7 3 8 11 13 14 15 16 rings

> <PUBCHEM_HEAVY_ATOM_COUNT>
32

> <PUBCHEM_ATOM_DEF_STEREO_COUNT>
2

> <PUBCHEM_ATOM_UDEF_STEREO_COUNT>
0

> <PUBCHEM_BOND_DEF_STEREO_COUNT>
0

> <PUBCHEM_BOND_UDEF_STEREO_COUNT>
0

> <PUBCHEM_ISOTOPIC_ATOM_COUNT>
0

> <PUBCHEM_COMPONENT_COUNT>
1

> <PUBCHEM_CACTVS_TAUTO_COUNT>
2

> <PUBCHEM_CONFORMER_ID>
030C4E3800000001

> <PUBCHEM_MMFF94_ENERGY>
67.1097

> <PUBCHEM_FEATURE_SELFOVERLAP>
61.028

> <PUBCHEM_SHAPE_FINGERPRINT>
10190108 129 17974578197308697395
10674148 151 18272375321966686312
10816530 90 18341055108492900454
10906281 52 18131354089731229950
1100329 8 18340475682280462343
11135926 11 18335127718553427196
12390115 104 18201443627022808727
12422481 6 18336538305634791051
12788726 201 17560527222081561184
13140716 1 18411695474670856047
13540713 5 18269535247817232991
13782708 43 13190601868115691064
14394314 77 18338225090354985344
14400156 188 17182216362623498299
14790565 3 18413669106183651589
14856354 85 17168430488101039617
14955137 171 18195529177583318038
15183329 4 16917076559255787564
15238133 3 17346595236254162811
15927050 60 18339079397408805198
16110190 28 18409725149337833794
20642791 35 18411984629407632398
20739085 24 18336555910816708845
21033648 144 18334286562040588879
21421861 104 18261097549189547122
21756936 100 18131071588663212149
21781055 127 16844739611891416995
21927370 108 17829599571194569050
23559900 14 17241335659791619479
25147074 1 18270948133175196191
283562 15 17691673911120899583
3411729 13 18408889520853703630
350125 39 18338513015485850932
3680242 22 18340200770124393786
397830 11 17676490549094516115
4093350 32 17632301160216847806
444735 79 18044390541853581691
5104073 3 18335709308638481139
5252454 2 18339352067353886340
5265222 85 18047199824254024604
5385378 56 18408039611698792648
563151 40 18263370351008635786
59755656 520 18271811266956242205
6058803 2 18196346269679630462
6086070 43 17489293222746239593
7226269 152 17632585976003420689
9896288 288 18194686101552764742

> <PUBCHEM_SHAPE_MULTIPOLES>
626.88
16.69
4.71
1.42
1.8
2.71
-0.27
-15.08
-4.72
4.45
-0.13
-1.01
0.54
-2.19

> <PUBCHEM_SHAPE_SELFOVERLAP>
1348.151

> <PUBCHEM_SHAPE_VOLUME>
349.7

> <PUBCHEM_COORDINATE_TYPE>
2
5
10

$$$$
