25389946
  -OEChem-12032416163D

 58 62  0     1  0  0  0  0  0999 V2000
   -5.0531   -4.1443   -1.7224 F   0  0  0  0  0  0  0  0  0  0  0  0
    0.9756   -3.0446    1.8994 O   0  0  0  0  0  0  0  0  0  0  0  0
    0.0582   -1.0237    2.5405 O   0  0  0  0  0  0  0  0  0  0  0  0
   -0.2681   -0.2228   -0.0551 N   0  0  2  0  0  0  0  0  0  0  0  0
    2.9888    1.6418    0.0997 N   0  0  0  0  0  0  0  0  0  0  0  0
   -1.9531    3.7102   -0.0874 N   0  0  0  0  0  0  0  0  0  0  0  0
    0.5640    0.9057    0.4650 C   0  0  2  0  0  0  0  0  0  0  0  0
   -1.6912   -0.0955    0.3494 C   0  0  1  0  0  0  0  0  0  0  0  0
    0.0188    2.2551   -0.0283 C   0  0  0  0  0  0  0  0  0  0  0  0
   -1.4326    2.4394    0.4138 C   0  0  2  0  0  0  0  0  0  0  0  0
    0.3379   -1.5573    0.2057 C   0  0  1  0  0  0  0  0  0  0  0  0
   -2.2747    1.2688   -0.0913 C   0  0  0  0  0  0  0  0  0  0  0  0
    1.9939    0.7052    0.0605 C   0  0  0  0  0  0  0  0  0  0  0  0
    1.7228   -1.7236   -0.4705 C   0  0  0  0  0  0  0  0  0  0  0  0
    2.5451   -0.4888   -0.3506 C   0  0  0  0  0  0  0  0  0  0  0  0
   -2.5986   -1.1884   -0.2100 C   0  0  0  0  0  0  0  0  0  0  0  0
    3.9250   -0.2649   -0.6072 C   0  0  0  0  0  0  0  0  0  0  0  0
    4.1768    1.0799   -0.3177 C   0  0  0  0  0  0  0  0  0  0  0  0
    0.4280   -1.8148    1.6834 C   0  0  0  0  0  0  0  0  0  0  0  0
   -3.6807   -1.6481    0.5406 C   0  0  0  0  0  0  0  0  0  0  0  0
   -2.3458   -1.7275   -1.4715 C   0  0  0  0  0  0  0  0  0  0  0  0
   -3.1029    4.1400    0.6933 C   0  0  0  0  0  0  0  0  0  0  0  0
    4.9902   -1.0728   -1.0533 C   0  0  0  0  0  0  0  0  0  0  0  0
    5.4451    1.6556   -0.4548 C   0  0  0  0  0  0  0  0  0  0  0  0
    6.2628   -0.5086   -1.1963 C   0  0  0  0  0  0  0  0  0  0  0  0
   -4.5098   -2.6467    0.0301 C   0  0  0  0  0  0  0  0  0  0  0  0
   -3.1748   -2.7261   -1.9822 C   0  0  0  0  0  0  0  0  0  0  0  0
    6.4846    0.8348   -0.9013 C   0  0  0  0  0  0  0  0  0  0  0  0
   -4.2568   -3.1857   -1.2314 C   0  0  0  0  0  0  0  0  0  0  0  0
   -3.6300    5.4131    0.1920 C   0  0  0  0  0  0  0  0  0  0  0  0
    1.1203   -3.4208    3.2726 C   0  0  0  0  0  0  0  0  0  0  0  0
   -4.0660    6.4553   -0.2147 C   0  0  0  0  0  0  0  0  0  0  0  0
    0.5432    0.9450    1.5597 H   0  0  0  0  0  0  0  0  0  0  0  0
   -1.7678   -0.1305    1.4422 H   0  0  0  0  0  0  0  0  0  0  0  0
    0.6266    3.0768    0.3733 H   0  0  0  0  0  0  0  0  0  0  0  0
    0.0977    2.3160   -1.1233 H   0  0  0  0  0  0  0  0  0  0  0  0
   -1.4380    2.4420    1.5128 H   0  0  0  0  0  0  0  0  0  0  0  0
   -0.2851   -2.3634   -0.1915 H   0  0  0  0  0  0  0  0  0  0  0  0
   -2.3386    1.3077   -1.1888 H   0  0  0  0  0  0  0  0  0  0  0  0
   -3.3046    1.3487    0.2777 H   0  0  0  0  0  0  0  0  0  0  0  0
    1.5663   -1.9156   -1.5404 H   0  0  0  0  0  0  0  0  0  0  0  0
    2.2799   -2.5784   -0.0723 H   0  0  0  0  0  0  0  0  0  0  0  0
    2.8785    2.6043    0.3875 H   0  0  0  0  0  0  0  0  0  0  0  0
   -1.2260    4.4230   -0.0178 H   0  0  0  0  0  0  0  0  0  0  0  0
   -3.8896   -1.2356    1.5241 H   0  0  0  0  0  0  0  0  0  0  0  0
   -1.5270   -1.3710   -2.0904 H   0  0  0  0  0  0  0  0  0  0  0  0
   -3.9108    3.4023    0.6506 H   0  0  0  0  0  0  0  0  0  0  0  0
   -2.8261    4.2645    1.7472 H   0  0  0  0  0  0  0  0  0  0  0  0
    4.8329   -2.1220   -1.2862 H   0  0  0  0  0  0  0  0  0  0  0  0
    5.6197    2.7012   -0.2238 H   0  0  0  0  0  0  0  0  0  0  0  0
    7.0871   -1.1273   -1.5411 H   0  0  0  0  0  0  0  0  0  0  0  0
   -5.3526   -3.0046    0.6140 H   0  0  0  0  0  0  0  0  0  0  0  0
   -2.9818   -3.1421   -2.9666 H   0  0  0  0  0  0  0  0  0  0  0  0
    7.4814    1.2523   -1.0187 H   0  0  0  0  0  0  0  0  0  0  0  0
    1.5663   -4.4183    3.3066 H   0  0  0  0  0  0  0  0  0  0  0  0
    0.1415   -3.4564    3.7604 H   0  0  0  0  0  0  0  0  0  0  0  0
    1.7847   -2.7209    3.7884 H   0  0  0  0  0  0  0  0  0  0  0  0
   -4.4525    7.3797   -0.5755 H   0  0  0  0  0  0  0  0  0  0  0  0
  1 29  1  0  0  0  0
  2 19  1  0  0  0  0
  2 31  1  0  0  0  0
  3 19  2  0  0  0  0
  4  7  1  0  0  0  0
  4  8  1  0  0  0  0
  4 11  1  0  0  0  0
  5 13  1  0  0  0  0
  5 18  1  0  0  0  0
  5 43  1  0  0  0  0
  6 10  1  0  0  0  0
  6 22  1  0  0  0  0
  6 44  1  0  0  0  0
  7  9  1  0  0  0  0
  7 13  1  0  0  0  0
  7 33  1  0  0  0  0
  8 12  1  0  0  0  0
  8 16  1  0  0  0  0
  8 34  1  0  0  0  0
  9 10  1  0  0  0  0
  9 35  1  0  0  0  0
  9 36  1  0  0  0  0
 10 12  1  0  0  0  0
 10 37  1  0  0  0  0
 11 14  1  0  0  0  0
 11 19  1  0  0  0  0
 11 38  1  0  0  0  0
 12 39  1  0  0  0  0
 12 40  1  0  0  0  0
 13 15  2  0  0  0  0
 14 15  1  0  0  0  0
 14 41  1  0  0  0  0
 14 42  1  0  0  0  0
 15 17  1  0  0  0  0
 16 20  2  0  0  0  0
 16 21  1  0  0  0  0
 17 18  1  0  0  0  0
 17 23  2  0  0  0  0
 18 24  2  0  0  0  0
 20 26  1  0  0  0  0
 20 45  1  0  0  0  0
 21 27  2  0  0  0  0
 21 46  1  0  0  0  0
 22 30  1  0  0  0  0
 22 47  1  0  0  0  0
 22 48  1  0  0  0  0
 23 25  1  0  0  0  0
 23 49  1  0  0  0  0
 24 28  1  0  0  0  0
 24 50  1  0  0  0  0
 25 28  2  0  0  0  0
 25 51  1  0  0  0  0
 26 29  2  0  0  0  0
 26 52  1  0  0  0  0
 27 29  1  0  0  0  0
 27 53  1  0  0  0  0
 28 54  1  0  0  0  0
 30 32  3  0  0  0  0
 31 55  1  0  0  0  0
 31 56  1  0  0  0  0
 31 57  1  0  0  0  0
 32 58  1  0  0  0  0
M  END
> <PUBCHEM_COMPOUND_CID>
25389946

> <PUBCHEM_CONFORMER_RMSD>
0.8

> <PUBCHEM_CONFORMER_DIVERSEORDER>
1
21
16
3
18
7
23
5
15
13
9
6
22
25
2
14
20
10
12
19
11
8
4
17
24

> <PUBCHEM_MMFF94_PARTIAL_CHARGES>
40
1 -0.19
10 0.27
11 0.33
13 -0.33
14 0.18
15 -0.18
16 -0.14
18 -0.15
19 0.66
2 -0.43
20 -0.15
21 -0.15
22 0.47
23 -0.15
24 -0.15
25 -0.15
26 -0.15
27 -0.15
28 -0.15
29 0.19
3 -0.57
30 -0.2
31 0.28
32 -0.18
4 -0.81
43 0.27
44 0.36
45 0.15
46 0.15
49 0.15
5 0.03
50 0.15
51 0.15
52 0.15
53 0.15
54 0.15
58 0.18
6 -0.9
7 0.45
8 0.41

> <PUBCHEM_EFFECTIVE_ROTOR_COUNT>
6.2

> <PUBCHEM_PHARMACOPHORE_FEATURES>
12
1 3 acceptor
1 32 hydrophobe
1 4 cation
1 5 cation
1 5 donor
1 6 cation
1 6 donor
5 5 13 15 17 18 rings
6 16 20 21 26 27 29 rings
6 17 18 23 24 25 28 rings
6 4 7 11 13 14 15 rings
6 4 7 8 9 10 12 rings

> <PUBCHEM_HEAVY_ATOM_COUNT>
32

> <PUBCHEM_ATOM_DEF_STEREO_COUNT>
4

> <PUBCHEM_ATOM_UDEF_STEREO_COUNT>
0

> <PUBCHEM_BOND_DEF_STEREO_COUNT>
0

> <PUBCHEM_BOND_UDEF_STEREO_COUNT>
0

> <PUBCHEM_ISOTOPIC_ATOM_COUNT>
0

> <PUBCHEM_COMPONENT_COUNT>
1

> <PUBCHEM_CACTVS_TAUTO_COUNT>
1

> <PUBCHEM_CONFORMER_ID>
01836B7A00000001

> <PUBCHEM_MMFF94_ENERGY>
70.9176

> <PUBCHEM_FEATURE_SELFOVERLAP>
61.09

> <PUBCHEM_SHAPE_FINGERPRINT>
10006869 2 18190463754037663297
10190206 1 18409727327176650621
10411042 1 18197217164470971799
11386260 185 17838309120836071151
12293681 160 18042675285822179691
12788726 201 18335979878408397032
13149001 5 17465379012029279395
133893 2 16589413203822739954
13540713 5 18115861911240993346
13590594 115 18268435814210355377
13911987 19 17823418390883109918
13944108 23 16897089336487025044
140371 6 18045793539938664876
14347332 77 18341894112915802726
14400156 266 17827890994290979906
14400156 350 17182212522584586557
14790565 3 17907300953463552613
14955137 171 18050859002940105931
15198563 99 18342454876889425477
15361156 5 18265639700264206916
15420108 30 18120366562860868912
15484559 13 17404588771045339197
15629462 23 18335428992644369411
15927050 60 18193279598108826240
16087824 20 18412829063492226949
16090146 7 17241341273445711546
17349148 13 18187649154409814854
18681886 176 17984693687331168639
19301676 85 17191809086137194662
21033650 10 18193588656135691220
23558518 356 18334304145236083156
23559900 14 17972041611688606020
23929065 36 18269537451594151456
24771750 20 16604349377886584621
283562 15 18333730255700194297
3633792 109 17314206965775658090
38695281 34 17907303156391249005
497634 4 16987743301760584288
5252454 2 18117274744812234412
57527295 17 18042944624097323111
6898599 12 18339369565183078172

> <PUBCHEM_SHAPE_MULTIPOLES>
624.59
11.63
6.9
1.79
13.58
9.37
1.26
2.96
-6
-15.98
0.19
-0.03
-2.76
-3

> <PUBCHEM_SHAPE_SELFOVERLAP>
1366.776

> <PUBCHEM_SHAPE_VOLUME>
338.2

> <PUBCHEM_COORDINATE_TYPE>
2
5
10

$$$$
