45784427
  -OEChem-12032416313D

 70 72  0     1  0  0  0  0  0999 V2000
   -6.8449   -1.7325    1.8477 F   0  0  0  0  0  0  0  0  0  0  0  0
   -4.1165   -3.8323   -1.4035 F   0  0  0  0  0  0  0  0  0  0  0  0
    0.8818    2.4771   -1.4315 O   0  0  0  0  0  0  0  0  0  0  0  0
   -4.0925    2.6906    0.5132 O   0  0  0  0  0  0  0  0  0  0  0  0
    6.0457   -2.0151   -0.7269 O   0  0  0  0  0  0  0  0  0  0  0  0
    5.2960   -0.1037    0.3564 N   0  0  0  0  0  0  0  0  0  0  0  0
   -3.5287    1.5107   -1.4025 N   0  0  0  0  0  0  0  0  0  0  0  0
    7.5507   -0.4790    0.1443 N   0  0  0  0  0  0  0  0  0  0  0  0
    1.1000   -0.1613    1.3195 C   0  0  1  0  0  0  0  0  0  0  0  0
    1.5268    0.6541    0.0536 C   0  0  2  0  0  0  0  0  0  0  0  0
    3.0670    0.9620    0.0802 C   0  0  1  0  0  0  0  0  0  0  0  0
    0.6023    1.8867   -0.1612 C   0  0  2  0  0  0  0  0  0  0  0  0
   -0.3945   -0.5443    1.2065 C   0  0  0  0  0  0  0  0  0  0  0  0
    1.9188   -1.4716    1.3750 C   0  0  0  0  0  0  0  0  0  0  0  0
   -0.8978    1.5108   -0.1690 C   0  0  1  0  0  0  0  0  0  0  0  0
    3.8779   -0.3578    0.2119 C   0  0  2  0  0  0  0  0  0  0  0  0
   -1.3064    0.6634    1.0358 C   0  0  0  0  0  0  0  0  0  0  0  0
    3.4226   -1.2371    1.3762 C   0  0  0  0  0  0  0  0  0  0  0  0
    1.3132    0.6297    2.6350 C   0  0  0  0  0  0  0  0  0  0  0  0
   -1.7950    2.7520   -0.2504 C   0  0  2  0  0  0  0  0  0  0  0  0
    3.5612    1.7384   -1.1521 C   0  0  0  0  0  0  0  0  0  0  0  0
   -1.5331    3.6679    0.9401 C   0  0  0  0  0  0  0  0  0  0  0  0
   -3.2599    2.3312   -0.3166 C   0  0  0  0  0  0  0  0  0  0  0  0
    6.2744   -0.9636   -0.1305 C   0  0  0  0  0  0  0  0  0  0  0  0
   -4.8450    0.9824   -1.6757 C   0  0  0  0  0  0  0  0  0  0  0  0
    8.7533   -1.1745   -0.2494 C   0  0  0  0  0  0  0  0  0  0  0  0
   -5.0682   -0.3433   -1.0070 C   0  0  0  0  0  0  0  0  0  0  0  0
    9.0801   -0.9347   -1.7088 C   0  0  0  0  0  0  0  0  0  0  0  0
   -4.4760   -1.4947   -1.5258 C   0  0  0  0  0  0  0  0  0  0  0  0
   -5.8685   -0.4235    0.1326 C   0  0  0  0  0  0  0  0  0  0  0  0
   -6.0765   -1.6552    0.7535 C   0  0  0  0  0  0  0  0  0  0  0  0
   -4.6841   -2.7263   -0.9050 C   0  0  0  0  0  0  0  0  0  0  0  0
   -5.4844   -2.8065    0.2346 C   0  0  0  0  0  0  0  0  0  0  0  0
    1.3744    0.0042   -0.8232 H   0  0  0  0  0  0  0  0  0  0  0  0
    3.2869    1.5959    0.9486 H   0  0  0  0  0  0  0  0  0  0  0  0
    0.8496    2.6259    0.6026 H   0  0  0  0  0  0  0  0  0  0  0  0
   -0.5406   -1.2153    0.3491 H   0  0  0  0  0  0  0  0  0  0  0  0
   -0.7101   -1.1094    2.0931 H   0  0  0  0  0  0  0  0  0  0  0  0
    1.6466   -2.0526    2.2654 H   0  0  0  0  0  0  0  0  0  0  0  0
    1.6674   -2.1004    0.5102 H   0  0  0  0  0  0  0  0  0  0  0  0
   -1.0574    0.8967   -1.0654 H   0  0  0  0  0  0  0  0  0  0  0  0
    3.7385   -0.9336   -0.7135 H   0  0  0  0  0  0  0  0  0  0  0  0
   -1.3026    1.2285    1.9701 H   0  0  0  0  0  0  0  0  0  0  0  0
   -2.3282    0.2848    0.9177 H   0  0  0  0  0  0  0  0  0  0  0  0
    3.9316   -2.2086    1.3289 H   0  0  0  0  0  0  0  0  0  0  0  0
    3.7339   -0.7932    2.3298 H   0  0  0  0  0  0  0  0  0  0  0  0
    2.3635    0.8675    2.8218 H   0  0  0  0  0  0  0  0  0  0  0  0
    0.9606    0.0484    3.4951 H   0  0  0  0  0  0  0  0  0  0  0  0
    0.7746    1.5813    2.6438 H   0  0  0  0  0  0  0  0  0  0  0  0
   -1.5838    3.3107   -1.1712 H   0  0  0  0  0  0  0  0  0  0  0  0
    3.2363    1.2584   -2.0810 H   0  0  0  0  0  0  0  0  0  0  0  0
    4.6533    1.8089   -1.1804 H   0  0  0  0  0  0  0  0  0  0  0  0
    3.2032    2.7716   -1.1375 H   0  0  0  0  0  0  0  0  0  0  0  0
    5.5892    0.6985    0.9058 H   0  0  0  0  0  0  0  0  0  0  0  0
    0.7190    1.8082   -2.1183 H   0  0  0  0  0  0  0  0  0  0  0  0
   -0.5223    4.0815    0.9502 H   0  0  0  0  0  0  0  0  0  0  0  0
   -2.2006    4.5375    0.8762 H   0  0  0  0  0  0  0  0  0  0  0  0
   -1.7426    3.2131    1.9109 H   0  0  0  0  0  0  0  0  0  0  0  0
   -2.7963    1.3019   -2.0733 H   0  0  0  0  0  0  0  0  0  0  0  0
    7.6425    0.4070    0.6315 H   0  0  0  0  0  0  0  0  0  0  0  0
   -5.5998    1.7122   -1.3603 H   0  0  0  0  0  0  0  0  0  0  0  0
   -4.9407    0.8738   -2.7621 H   0  0  0  0  0  0  0  0  0  0  0  0
    8.6195   -2.2456   -0.0646 H   0  0  0  0  0  0  0  0  0  0  0  0
    9.5661   -0.8124    0.3877 H   0  0  0  0  0  0  0  0  0  0  0  0
   10.0070   -1.4484   -1.9815 H   0  0  0  0  0  0  0  0  0  0  0  0
    9.2084    0.1341   -1.9105 H   0  0  0  0  0  0  0  0  0  0  0  0
    8.2821   -1.3022   -2.3622 H   0  0  0  0  0  0  0  0  0  0  0  0
   -3.8502   -1.4446   -2.4128 H   0  0  0  0  0  0  0  0  0  0  0  0
   -6.3349    0.4653    0.5488 H   0  0  0  0  0  0  0  0  0  0  0  0
   -5.6464   -3.7654    0.7178 H   0  0  0  0  0  0  0  0  0  0  0  0
  1 31  1  0  0  0  0
  2 32  1  0  0  0  0
  3 12  1  0  0  0  0
  3 55  1  0  0  0  0
  4 23  2  0  0  0  0
  5 24  2  0  0  0  0
  6 16  1  0  0  0  0
  6 24  1  0  0  0  0
  6 54  1  0  0  0  0
  7 23  1  0  0  0  0
  7 25  1  0  0  0  0
  7 59  1  0  0  0  0
  8 24  1  0  0  0  0
  8 26  1  0  0  0  0
  8 60  1  0  0  0  0
  9 10  1  0  0  0  0
  9 13  1  0  0  0  0
  9 14  1  0  0  0  0
  9 19  1  0  0  0  0
 10 11  1  0  0  0  0
 10 12  1  0  0  0  0
 10 34  1  0  0  0  0
 11 16  1  0  0  0  0
 11 21  1  0  0  0  0
 11 35  1  0  0  0  0
 12 15  1  0  0  0  0
 12 36  1  0  0  0  0
 13 17  1  0  0  0  0
 13 37  1  0  0  0  0
 13 38  1  0  0  0  0
 14 18  1  0  0  0  0
 14 39  1  0  0  0  0
 14 40  1  0  0  0  0
 15 17  1  0  0  0  0
 15 20  1  0  0  0  0
 15 41  1  0  0  0  0
 16 18  1  0  0  0  0
 16 42  1  0  0  0  0
 17 43  1  0  0  0  0
 17 44  1  0  0  0  0
 18 45  1  0  0  0  0
 18 46  1  0  0  0  0
 19 47  1  0  0  0  0
 19 48  1  0  0  0  0
 19 49  1  0  0  0  0
 20 22  1  0  0  0  0
 20 23  1  0  0  0  0
 20 50  1  0  0  0  0
 21 51  1  0  0  0  0
 21 52  1  0  0  0  0
 21 53  1  0  0  0  0
 22 56  1  0  0  0  0
 22 57  1  0  0  0  0
 22 58  1  0  0  0  0
 25 27  1  0  0  0  0
 25 61  1  0  0  0  0
 25 62  1  0  0  0  0
 26 28  1  0  0  0  0
 26 63  1  0  0  0  0
 26 64  1  0  0  0  0
 27 29  2  0  0  0  0
 27 30  1  0  0  0  0
 28 65  1  0  0  0  0
 28 66  1  0  0  0  0
 28 67  1  0  0  0  0
 29 32  1  0  0  0  0
 29 68  1  0  0  0  0
 30 31  2  0  0  0  0
 30 69  1  0  0  0  0
 31 33  1  0  0  0  0
 32 33  2  0  0  0  0
 33 70  1  0  0  0  0
M  END
> <PUBCHEM_COMPOUND_CID>
45784427

> <PUBCHEM_CONFORMER_RMSD>
1

> <PUBCHEM_CONFORMER_DIVERSEORDER>
1
206
78
132
167
123
316
169
300
61
85
249
315
224
277
166
138
285
76
124
306
231
210
203
143
265
113
21
260
148
45
311
136
117
276
188
253
108
152
39
51
93
209
308
150
288
141
244
87
293
256
48
313
99
159
295
302
199
228
201
268
245
275
165
137
191
297
207
103
2
67
55
312
127
304
307
68
145
281
69
25
49
239
291
142
283
266
4
112
194
292
215
225
303
264
33
160
218
314
192
208
284
213
28
146
37
217
278
223
247
184
197
72
162
267
105
242
44
151
34
153
104
36
82
298
270
282
168
171
174
121
161
178
134
261
14
111
116
234
263
310
262
163
107
144
227
31
273
173
74
41
147
133
232
57
272
86
66
250
164
106
54
258
22
248
52
118
101
202
26
318
32
23
214
109
189
235
296
317
139
89
40
287
222
305
212
35
233
73
211
251
91
58
290
19
7
70
269
47
149
200
240
299
176
289
115
181
129
53
309
62
279
77
81
64
9
274
65
88
238
196
56
96
236
43
301
63
110
20
246
3
271
102
24
186
120
170
220
12
11
46
158
177
294
155
205
38
42
219
50
183
286
190
90
114
198
6
252
257
230
83
226
280
185
10
140
95
259
60
122
243
216
98
131
195
130
29
126
8
100
237
255
182
30
94
80
13
71
135
180
18
254
128
79
187
241
15
193
97
172
125
75
5
27
154
17
204
175
179
157
156
84
221
119
16
229
92
59

> <PUBCHEM_MMFF94_PARTIAL_CHARGES>
28
1 -0.19
12 0.28
16 0.3
2 -0.19
20 0.06
23 0.57
24 0.69
25 0.44
26 0.3
27 -0.14
29 -0.15
3 -0.68
30 -0.15
31 0.19
32 0.19
33 -0.15
4 -0.57
5 -0.57
54 0.37
55 0.4
59 0.37
6 -0.73
60 0.37
68 0.15
69 0.15
7 -0.73
70 0.15
8 -0.73

> <PUBCHEM_EFFECTIVE_ROTOR_COUNT>
10.6

> <PUBCHEM_PHARMACOPHORE_FEATURES>
11
1 22 hydrophobe
1 3 acceptor
1 3 donor
1 4 acceptor
1 5 acceptor
1 6 donor
1 7 donor
1 8 donor
6 27 29 30 31 32 33 rings
6 9 10 11 14 16 18 rings
6 9 10 12 13 15 17 rings

> <PUBCHEM_HEAVY_ATOM_COUNT>
33

> <PUBCHEM_ATOM_DEF_STEREO_COUNT>
6

> <PUBCHEM_ATOM_UDEF_STEREO_COUNT>
1

> <PUBCHEM_BOND_DEF_STEREO_COUNT>
0

> <PUBCHEM_BOND_UDEF_STEREO_COUNT>
0

> <PUBCHEM_ISOTOPIC_ATOM_COUNT>
0

> <PUBCHEM_COMPONENT_COUNT>
1

> <PUBCHEM_CACTVS_TAUTO_COUNT>
6

> <PUBCHEM_CONFORMER_ID>
02BA9D6B00000001

> <PUBCHEM_MMFF94_ENERGY>
76.9865

> <PUBCHEM_FEATURE_SELFOVERLAP>
55.888

> <PUBCHEM_SHAPE_FINGERPRINT>
10554248 39 16153709761818900930
10928967 22 18265320893622026819
11135609 12 18343030973505039391
11315621 136 18187365458207083484
11315621 246 18409442562022310821
11477941 20 16877937222366659149
117089 54 18191028013725033707
12166972 35 17530966916408890013
13257819 101 12829487021899104632
13690498 29 18040989649182567549
13782708 43 18059849559080218842
14251757 5 18260823856520042595
14279260 333 18259979353837634706
14950920 106 16271636923419507835
15082195 135 17751090304743679380
15183329 4 18260257560344050722
15289351 153 8430326719171176990
15461852 350 18410017611948287054
15669420 48 13334743449154977369
17686467 74 18341887494904488640
17909252 39 18338230578604901121
20775530 9 18114728439612463645
21344244 246 17677904602584344924
21795232 338 18273495667684068401
21867018 265 18341337760396320766
21927370 108 16773804663092792416
22288116 15 18187650197839071238
22393880 68 17749655338636521893
2838139 119 14562531747857488278
354706 132 16588020196063863503
437795 160 18337938027820547194
445580 160 18341609313154460983
484989 97 17968385648861852034
54039377 194 18334299794777253075
6086070 43 14418139547423888012
999808 66 17846497019859394462

> <PUBCHEM_SHAPE_MULTIPOLES>
632.03
20.84
3.59
1.74
32.35
0.5
0.33
-17
-6.93
-5.7
-0.54
-0.28
-0.2
0.11

> <PUBCHEM_SHAPE_SELFOVERLAP>
1312.768

> <PUBCHEM_SHAPE_VOLUME>
358.7

> <PUBCHEM_COORDINATE_TYPE>
2
5
10

$$$$
