40777337
  -OEChem-12032416173D

 65 68  0     1  0  0  0  0  0999 V2000
    4.8455    0.2430   -1.9744 O   0  0  0  0  0  0  0  0  0  0  0  0
    8.0887    0.0243    1.7532 O   0  0  0  0  0  0  0  0  0  0  0  0
   -2.3542   -2.8676   -1.2572 O   0  0  0  0  0  0  0  0  0  0  0  0
    0.3654    2.3779   -0.0903 N   0  0  0  0  0  0  0  0  0  0  0  0
    5.8334   -0.2025    0.0791 N   0  0  0  0  0  0  0  0  0  0  0  0
   -1.0307   -2.5176   -1.4957 N   0  0  0  0  0  0  0  0  0  0  0  0
   -4.8344   -1.5798    0.8060 N   0  0  1  0  0  0  0  0  0  0  0  0
    2.3193    0.4377   -1.1508 C   0  0  1  0  0  0  0  0  0  0  0  0
    0.8878    0.0344   -0.7239 C   0  0  2  0  0  0  0  0  0  0  0  0
    2.3317    1.9313   -1.5172 C   0  0  0  0  0  0  0  0  0  0  0  0
    0.3267    0.9827    0.3492 C   0  0  0  0  0  0  0  0  0  0  0  0
    3.3943    0.1241   -0.1033 C   0  0  0  0  0  0  0  0  0  0  0  0
    1.7228    2.8057   -0.4219 C   0  0  0  0  0  0  0  0  0  0  0  0
    0.7877   -1.4197   -0.2611 C   0  0  0  0  0  0  0  0  0  0  0  0
    4.7513    0.0605   -0.7580 C   0  0  0  0  0  0  0  0  0  0  0  0
   -0.6194   -1.9321   -0.3675 C   0  0  0  0  0  0  0  0  0  0  0  0
    7.1857   -0.2765   -0.4737 C   0  0  0  0  0  0  0  0  0  0  0  0
    5.7444   -0.5486    1.5018 C   0  0  0  0  0  0  0  0  0  0  0  0
   -1.6300   -1.8844    0.6083 C   0  0  0  0  0  0  0  0  0  0  0  0
    8.1606    0.4947    0.4046 C   0  0  0  0  0  0  0  0  0  0  0  0
    6.7831    0.2298    2.2996 C   0  0  0  0  0  0  0  0  0  0  0  0
   -2.6995   -2.4854   -0.0013 C   0  0  0  0  0  0  0  0  0  0  0  0
   -4.0746   -2.7808    0.4189 C   0  0  0  0  0  0  0  0  0  0  0  0
   -5.2728   -0.8593   -0.3844 C   0  0  0  0  0  0  0  0  0  0  0  0
   -5.9742   -1.9545    1.6358 C   0  0  0  0  0  0  0  0  0  0  0  0
   -5.5670    0.5872   -0.0876 C   0  0  0  0  0  0  0  0  0  0  0  0
   -6.8502    0.9723    0.3000 C   0  0  0  0  0  0  0  0  0  0  0  0
   -4.5564    1.5419   -0.2003 C   0  0  0  0  0  0  0  0  0  0  0  0
   -7.1232    2.3123    0.5750 C   0  0  0  0  0  0  0  0  0  0  0  0
   -4.8292    2.8819    0.0747 C   0  0  0  0  0  0  0  0  0  0  0  0
   -6.1126    3.2671    0.4623 C   0  0  0  0  0  0  0  0  0  0  0  0
    2.5314   -0.1334   -2.0654 H   0  0  0  0  0  0  0  0  0  0  0  0
    0.2577    0.1529   -1.6195 H   0  0  0  0  0  0  0  0  0  0  0  0
    1.7541    2.0703   -2.4412 H   0  0  0  0  0  0  0  0  0  0  0  0
    3.3446    2.2845   -1.7379 H   0  0  0  0  0  0  0  0  0  0  0  0
   -0.7195    0.7438    0.5614 H   0  0  0  0  0  0  0  0  0  0  0  0
    0.8755    0.8734    1.2928 H   0  0  0  0  0  0  0  0  0  0  0  0
    3.2229   -0.8599    0.3425 H   0  0  0  0  0  0  0  0  0  0  0  0
    3.4066    0.8678    0.6980 H   0  0  0  0  0  0  0  0  0  0  0  0
    2.3500    2.8124    0.4763 H   0  0  0  0  0  0  0  0  0  0  0  0
    1.6823    3.8405   -0.7801 H   0  0  0  0  0  0  0  0  0  0  0  0
    1.1293   -1.5325    0.7751 H   0  0  0  0  0  0  0  0  0  0  0  0
    1.4335   -2.0577   -0.8788 H   0  0  0  0  0  0  0  0  0  0  0  0
   -0.0056    2.9749    0.6483 H   0  0  0  0  0  0  0  0  0  0  0  0
    7.2140    0.1024   -1.4997 H   0  0  0  0  0  0  0  0  0  0  0  0
    7.4548   -1.3390   -0.4957 H   0  0  0  0  0  0  0  0  0  0  0  0
    5.9487   -1.6238    1.5682 H   0  0  0  0  0  0  0  0  0  0  0  0
    4.7505   -0.3717    1.9148 H   0  0  0  0  0  0  0  0  0  0  0  0
   -1.5890   -1.4773    1.6079 H   0  0  0  0  0  0  0  0  0  0  0  0
    9.1853    0.3455    0.0504 H   0  0  0  0  0  0  0  0  0  0  0  0
    7.9515    1.5709    0.3855 H   0  0  0  0  0  0  0  0  0  0  0  0
    6.5590    1.3032    2.3055 H   0  0  0  0  0  0  0  0  0  0  0  0
    6.7954   -0.1156    3.3380 H   0  0  0  0  0  0  0  0  0  0  0  0
   -3.9881   -3.4531    1.2838 H   0  0  0  0  0  0  0  0  0  0  0  0
   -4.6124   -3.3525   -0.3494 H   0  0  0  0  0  0  0  0  0  0  0  0
   -6.1431   -1.3362   -0.8570 H   0  0  0  0  0  0  0  0  0  0  0  0
   -4.4985   -0.8671   -1.1638 H   0  0  0  0  0  0  0  0  0  0  0  0
   -5.6415   -2.5269    2.5101 H   0  0  0  0  0  0  0  0  0  0  0  0
   -6.7048   -2.5660    1.0935 H   0  0  0  0  0  0  0  0  0  0  0  0
   -6.4845   -1.0788    2.0466 H   0  0  0  0  0  0  0  0  0  0  0  0
   -7.6518    0.2428    0.3803 H   0  0  0  0  0  0  0  0  0  0  0  0
   -3.5513    1.2549   -0.4984 H   0  0  0  0  0  0  0  0  0  0  0  0
   -8.1231    2.6127    0.8741 H   0  0  0  0  0  0  0  0  0  0  0  0
   -4.0420    3.6251   -0.0123 H   0  0  0  0  0  0  0  0  0  0  0  0
   -6.3250    4.3106    0.6760 H   0  0  0  0  0  0  0  0  0  0  0  0
  1 15  2  0  0  0  0
  2 20  1  0  0  0  0
  2 21  1  0  0  0  0
  3  6  1  0  0  0  0
  3 22  1  0  0  0  0
  4 11  1  0  0  0  0
  4 13  1  0  0  0  0
  4 44  1  0  0  0  0
  5 15  1  0  0  0  0
  5 17  1  0  0  0  0
  5 18  1  0  0  0  0
  6 16  2  0  0  0  0
  7 23  1  0  0  0  0
  7 24  1  0  0  0  0
  7 25  1  0  0  0  0
  8  9  1  0  0  0  0
  8 10  1  0  0  0  0
  8 12  1  0  0  0  0
  8 32  1  0  0  0  0
  9 11  1  0  0  0  0
  9 14  1  0  0  0  0
  9 33  1  0  0  0  0
 10 13  1  0  0  0  0
 10 34  1  0  0  0  0
 10 35  1  0  0  0  0
 11 36  1  0  0  0  0
 11 37  1  0  0  0  0
 12 15  1  0  0  0  0
 12 38  1  0  0  0  0
 12 39  1  0  0  0  0
 13 40  1  0  0  0  0
 13 41  1  0  0  0  0
 14 16  1  0  0  0  0
 14 42  1  0  0  0  0
 14 43  1  0  0  0  0
 16 19  1  0  0  0  0
 17 20  1  0  0  0  0
 17 45  1  0  0  0  0
 17 46  1  0  0  0  0
 18 21  1  0  0  0  0
 18 47  1  0  0  0  0
 18 48  1  0  0  0  0
 19 22  2  0  0  0  0
 19 49  1  0  0  0  0
 20 50  1  0  0  0  0
 20 51  1  0  0  0  0
 21 52  1  0  0  0  0
 21 53  1  0  0  0  0
 22 23  1  0  0  0  0
 23 54  1  0  0  0  0
 23 55  1  0  0  0  0
 24 26  1  0  0  0  0
 24 56  1  0  0  0  0
 24 57  1  0  0  0  0
 25 58  1  0  0  0  0
 25 59  1  0  0  0  0
 25 60  1  0  0  0  0
 26 27  2  0  0  0  0
 26 28  1  0  0  0  0
 27 29  1  0  0  0  0
 27 61  1  0  0  0  0
 28 30  2  0  0  0  0
 28 62  1  0  0  0  0
 29 31  2  0  0  0  0
 29 63  1  0  0  0  0
 30 31  1  0  0  0  0
 30 64  1  0  0  0  0
 31 65  1  0  0  0  0
M  END
> <PUBCHEM_COMPOUND_CID>
40777337

> <PUBCHEM_CONFORMER_RMSD>
1.6

> <PUBCHEM_CONFORMER_DIVERSEORDER>
1
63
3
16
83
54
43
21
68
77
58
51
7
69
42
18
41
78
32
5
2
49
64
33
55
8
62
66
23
24
56
36
34
82
52
72
74
53
79
20
12
73
61
57
28
50
71
27
19
25
60
35
13
29
44
75
76
14
11
46
85
22
9
30
86
47
37
45
80
70
6
81
48
65
59
4
38
15
10
67
84
17
87
26
31
40
39

> <PUBCHEM_MMFF94_PARTIAL_CHARGES>
35
1 -0.57
11 0.27
12 0.06
13 0.27
14 0.18
15 0.57
16 0.11
17 0.3
18 0.3
19 -0.15
2 -0.56
20 0.28
21 0.28
22 -0.04
23 0.45
24 0.41
25 0.27
26 -0.14
27 -0.15
28 -0.15
29 -0.15
3 -0.02
30 -0.15
31 -0.15
4 -0.9
44 0.36
49 0.15
5 -0.66
6 -0.41
61 0.15
62 0.15
63 0.15
64 0.15
65 0.15
7 -0.81

> <PUBCHEM_EFFECTIVE_ROTOR_COUNT>
11.4

> <PUBCHEM_PHARMACOPHORE_FEATURES>
10
1 1 acceptor
1 2 acceptor
1 4 cation
1 4 donor
1 6 acceptor
1 7 cation
5 3 6 16 19 22 rings
6 2 5 17 18 20 21 rings
6 26 27 28 29 30 31 rings
6 4 8 9 10 11 13 rings

> <PUBCHEM_HEAVY_ATOM_COUNT>
31

> <PUBCHEM_ATOM_DEF_STEREO_COUNT>
2

> <PUBCHEM_ATOM_UDEF_STEREO_COUNT>
0

> <PUBCHEM_BOND_DEF_STEREO_COUNT>
0

> <PUBCHEM_BOND_UDEF_STEREO_COUNT>
0

> <PUBCHEM_ISOTOPIC_ATOM_COUNT>
0

> <PUBCHEM_COMPONENT_COUNT>
1

> <PUBCHEM_CACTVS_TAUTO_COUNT>
1

> <PUBCHEM_CONFORMER_ID>
026E367900000001

> <PUBCHEM_MMFF94_ENERGY>
60.9907

> <PUBCHEM_FEATURE_SELFOVERLAP>
50.747

> <PUBCHEM_SHAPE_FINGERPRINT>
10533779 1 18266173921609568649
10653451 467 18059849550337946792
10670039 82 18410289221210908693
10951579 204 18196955304541844124
11475781 23 18131075896351944852
12107183 9 18260546731727549734
12144603 126 18041002869535100428
12838862 33 18338506440682568757
13782708 43 13551458255793499496
14223995 32 18341046307678110297
14294032 229 18115593621888247916
14394314 77 18334007307551589224
14466204 15 18410295817458060819
14767858 380 11887951060133116124
15021287 119 17095243622406625109
15183329 4 17894627076029088190
15328829 1 17749385932422824744
15419008 145 18259981570029637881
15444296 121 18187368765384739946
15781502 237 18338804399537870802
21033648 29 17845637240547916306
21756936 100 18343297059920117679
21859007 373 18273210898166604992
23522609 53 17459493167677681230
2838139 119 18341333370823387423
397638 26 18343302561303523987
5047190 69 18272365364998287241
5085150 59 18343584010600081661
5104073 3 18115020926532192180
513202 73 16226319331355971223
58083652 198 16732978777459731190
7226269 152 17988925565429739569
999808 66 13695584442684858698

> <PUBCHEM_SHAPE_MULTIPOLES>
600.43
23.18
3.55
1.47
19.37
0.28
0.28
7.04
9.82
-7.88
-0.19
2.34
-0.26
-0.53

> <PUBCHEM_SHAPE_SELFOVERLAP>
1255.197

> <PUBCHEM_SHAPE_VOLUME>
338

> <PUBCHEM_COORDINATE_TYPE>
2
5
10

$$$$
