11913213
  -OEChem-12032416153D

 60 64  0     1  0  0  0  0  0999 V2000
   -3.9594   -0.8956    0.2254 S   0  0  0  0  0  0  0  0  0  0  0  0
    0.1352    0.1503    1.7693 O   0  0  0  0  0  0  0  0  0  0  0  0
   -0.8424    2.9934    0.9170 O   0  0  0  0  0  0  0  0  0  0  0  0
   -4.3574   -0.8450    1.6186 O   0  0  0  0  0  0  0  0  0  0  0  0
   -4.0038   -2.1425   -0.5140 O   0  0  0  0  0  0  0  0  0  0  0  0
    3.9141   -2.2987   -1.3327 O   0  0  0  0  0  0  0  0  0  0  0  0
   -2.4075   -0.2205    0.0382 N   0  0  0  0  0  0  0  0  0  0  0  0
    1.9925    2.5667   -0.2395 N   0  0  0  0  0  0  0  0  0  0  0  0
    3.6421    0.8995   -0.1634 N   0  0  0  0  0  0  0  0  0  0  0  0
    3.6231    2.5419   -1.9268 N   0  0  0  0  0  0  0  0  0  0  0  0
   -0.9129    1.6985    0.2974 C   0  0  1  0  0  0  0  0  0  0  0  0
    0.3801    0.9740    0.6173 C   0  0  1  0  0  0  0  0  0  0  0  0
   -1.9795    0.8604    0.9595 C   0  0  2  0  0  0  0  0  0  0  0  0
    1.3491    2.0805    0.9615 C   0  0  2  0  0  0  0  0  0  0  0  0
   -1.2463    0.2590    2.1426 C   0  0  0  0  0  0  0  0  0  0  0  0
    0.4409    3.1497    1.5401 C   0  0  0  0  0  0  0  0  0  0  0  0
    3.1193    1.9853   -0.7931 C   0  0  0  0  0  0  0  0  0  0  0  0
   -4.9426    0.2864   -0.6678 C   0  0  0  0  0  0  0  0  0  0  0  0
   -6.3692   -0.1646   -0.6023 C   0  0  0  0  0  0  0  0  0  0  0  0
    4.7402    0.3582   -0.7300 C   0  0  0  0  0  0  0  0  0  0  0  0
   -7.1827    0.2647    0.4424 C   0  0  0  0  0  0  0  0  0  0  0  0
   -6.8730   -1.0101   -1.5866 C   0  0  0  0  0  0  0  0  0  0  0  0
    4.7220    1.9500   -2.4394 C   0  0  0  0  0  0  0  0  0  0  0  0
    5.3296    0.8452   -1.8788 C   0  0  0  0  0  0  0  0  0  0  0  0
    5.2780   -0.7937   -0.0464 C   0  0  0  0  0  0  0  0  0  0  0  0
   -8.5115   -0.1552    0.5034 C   0  0  0  0  0  0  0  0  0  0  0  0
   -8.2019   -1.4298   -1.5255 C   0  0  0  0  0  0  0  0  0  0  0  0
   -9.0210   -1.0023   -0.4804 C   0  0  0  0  0  0  0  0  0  0  0  0
    4.8518   -2.0862   -0.3656 C   0  0  0  0  0  0  0  0  0  0  0  0
    6.2409   -0.6109    0.9501 C   0  0  0  0  0  0  0  0  0  0  0  0
    5.3843   -3.1865    0.3064 C   0  0  0  0  0  0  0  0  0  0  0  0
    6.7732   -1.7113    1.6221 C   0  0  0  0  0  0  0  0  0  0  0  0
    6.3448   -2.9990    1.3004 C   0  0  0  0  0  0  0  0  0  0  0  0
    2.5499   -2.3117   -0.9192 C   0  0  0  0  0  0  0  0  0  0  0  0
   -1.0611    1.8583   -0.7754 H   0  0  0  0  0  0  0  0  0  0  0  0
    0.7037    0.3131   -0.1927 H   0  0  0  0  0  0  0  0  0  0  0  0
   -2.8431    1.4514    1.2790 H   0  0  0  0  0  0  0  0  0  0  0  0
    2.0945    1.7967    1.7133 H   0  0  0  0  0  0  0  0  0  0  0  0
   -1.2963    0.9247    3.0111 H   0  0  0  0  0  0  0  0  0  0  0  0
   -1.6133   -0.7264    2.4443 H   0  0  0  0  0  0  0  0  0  0  0  0
    0.2980    3.0004    2.6161 H   0  0  0  0  0  0  0  0  0  0  0  0
    0.7987    4.1716    1.3809 H   0  0  0  0  0  0  0  0  0  0  0  0
   -1.9475   -0.2674   -0.8792 H   0  0  0  0  0  0  0  0  0  0  0  0
    1.5812    3.3427   -0.7457 H   0  0  0  0  0  0  0  0  0  0  0  0
   -4.5821    0.3308   -1.7003 H   0  0  0  0  0  0  0  0  0  0  0  0
   -4.8169    1.2710   -0.2076 H   0  0  0  0  0  0  0  0  0  0  0  0
   -6.7977    0.9254    1.2144 H   0  0  0  0  0  0  0  0  0  0  0  0
   -6.2453   -1.3492   -2.4061 H   0  0  0  0  0  0  0  0  0  0  0  0
    5.1133    2.4035   -3.3437 H   0  0  0  0  0  0  0  0  0  0  0  0
    6.2110    0.4006   -2.3239 H   0  0  0  0  0  0  0  0  0  0  0  0
   -9.1494    0.1776    1.3170 H   0  0  0  0  0  0  0  0  0  0  0  0
   -8.5989   -2.0894   -2.2916 H   0  0  0  0  0  0  0  0  0  0  0  0
  -10.0556   -1.3292   -0.4329 H   0  0  0  0  0  0  0  0  0  0  0  0
    6.5866    0.3858    1.2152 H   0  0  0  0  0  0  0  0  0  0  0  0
    5.0562   -4.1930    0.0608 H   0  0  0  0  0  0  0  0  0  0  0  0
    7.5210   -1.5655    2.3961 H   0  0  0  0  0  0  0  0  0  0  0  0
    6.7593   -3.8558    1.8235 H   0  0  0  0  0  0  0  0  0  0  0  0
    1.9277   -2.0338   -1.7743 H   0  0  0  0  0  0  0  0  0  0  0  0
    2.2782   -3.3224   -0.6004 H   0  0  0  0  0  0  0  0  0  0  0  0
    2.3595   -1.6092   -0.1019 H   0  0  0  0  0  0  0  0  0  0  0  0
  1  4  2  0  0  0  0
  1  5  2  0  0  0  0
  1  7  1  0  0  0  0
  1 18  1  0  0  0  0
  2 12  1  0  0  0  0
  2 15  1  0  0  0  0
  3 11  1  0  0  0  0
  3 16  1  0  0  0  0
  6 29  1  0  0  0  0
  6 34  1  0  0  0  0
  7 13  1  0  0  0  0
  7 43  1  0  0  0  0
  8 14  1  0  0  0  0
  8 17  1  0  0  0  0
  8 44  1  0  0  0  0
  9 17  1  0  0  0  0
  9 20  2  0  0  0  0
 10 17  2  0  0  0  0
 10 23  1  0  0  0  0
 11 12  1  0  0  0  0
 11 13  1  0  0  0  0
 11 35  1  0  0  0  0
 12 14  1  0  0  0  0
 12 36  1  0  0  0  0
 13 15  1  0  0  0  0
 13 37  1  0  0  0  0
 14 16  1  0  0  0  0
 14 38  1  0  0  0  0
 15 39  1  0  0  0  0
 15 40  1  0  0  0  0
 16 41  1  0  0  0  0
 16 42  1  0  0  0  0
 18 19  1  0  0  0  0
 18 45  1  0  0  0  0
 18 46  1  0  0  0  0
 19 21  2  0  0  0  0
 19 22  1  0  0  0  0
 20 24  1  0  0  0  0
 20 25  1  0  0  0  0
 21 26  1  0  0  0  0
 21 47  1  0  0  0  0
 22 27  2  0  0  0  0
 22 48  1  0  0  0  0
 23 24  2  0  0  0  0
 23 49  1  0  0  0  0
 24 50  1  0  0  0  0
 25 29  1  0  0  0  0
 25 30  2  0  0  0  0
 26 28  2  0  0  0  0
 26 51  1  0  0  0  0
 27 28  1  0  0  0  0
 27 52  1  0  0  0  0
 28 53  1  0  0  0  0
 29 31  2  0  0  0  0
 30 32  1  0  0  0  0
 30 54  1  0  0  0  0
 31 33  1  0  0  0  0
 31 55  1  0  0  0  0
 32 33  2  0  0  0  0
 32 56  1  0  0  0  0
 33 57  1  0  0  0  0
 34 58  1  0  0  0  0
 34 59  1  0  0  0  0
 34 60  1  0  0  0  0
M  END
> <PUBCHEM_COMPOUND_CID>
11913213

> <PUBCHEM_CONFORMER_RMSD>
1.4

> <PUBCHEM_CONFORMER_DIVERSEORDER>
1
172
30
170
37
66
224
118
133
82
234
27
74
112
69
157
204
67
149
142
146
22
214
202
129
194
132
55
232
12
34
40
205
101
188
226
215
167
144
102
81
176
77
42
100
180
107
124
210
162
128
84
53
7
154
195
163
222
126
32
207
212
211
217
155
99
104
96
94
13
200
227
230
58
10
127
192
92
75
185
93
91
111
116
221
201
179
57
183
108
105
198
138
59
61
136
231
166
229
193
45
39
121
169
141
125
98
49
29
233
70
152
65
153
216
119
109
181
186
78
184
11
137
38
18
80
73
26
117
225
106
173
28
145
35
220
122
197
131
71
48
208
196
50
148
90
228
168
9
115
4
139
95
76
135
140
182
85
120
5
63
56
6
24
171
88
178
191
103
72
151
175
41
206
51
209
110
8
54
143
189
52
223
20
36
159
87
60
16
79
203
33
123
190
150
89
47
14
174
2
160
134
21
43
187
46
113
114
130
219
64
218
86
147
25
68
17
97
213
15
165
161
44
164
199
158
23
31
62
19
83
3
177
156

> <PUBCHEM_MMFF94_PARTIAL_CHARGES>
46
1 1.33
10 -0.62
11 0.28
12 0.28
13 0.36
14 0.37
15 0.28
16 0.28
17 0.72
18 0.25
19 -0.14
2 -0.56
20 0.31
21 -0.15
22 -0.15
23 0.16
24 -0.15
26 -0.15
27 -0.15
28 -0.15
29 0.08
3 -0.56
30 -0.15
31 -0.15
32 -0.15
33 -0.15
34 0.28
4 -0.65
43 0.42
44 0.4
47 0.15
48 0.15
49 0.15
5 -0.65
50 0.15
51 0.15
52 0.15
53 0.15
54 0.15
55 0.15
56 0.15
57 0.15
6 -0.36
7 -0.91
8 -0.87
9 -0.62

> <PUBCHEM_EFFECTIVE_ROTOR_COUNT>
9.2

> <PUBCHEM_PHARMACOPHORE_FEATURES>
14
1 2 acceptor
1 3 acceptor
1 4 acceptor
1 5 acceptor
1 6 acceptor
1 7 donor
1 8 donor
1 9 acceptor
4 8 9 10 17 cation
5 2 11 12 13 15 rings
5 3 11 12 14 16 rings
6 19 21 22 26 27 28 rings
6 25 29 30 31 32 33 rings
6 9 10 17 20 23 24 rings

> <PUBCHEM_HEAVY_ATOM_COUNT>
34

> <PUBCHEM_ATOM_DEF_STEREO_COUNT>
4

> <PUBCHEM_ATOM_UDEF_STEREO_COUNT>
0

> <PUBCHEM_BOND_DEF_STEREO_COUNT>
0

> <PUBCHEM_BOND_UDEF_STEREO_COUNT>
0

> <PUBCHEM_ISOTOPIC_ATOM_COUNT>
0

> <PUBCHEM_COMPONENT_COUNT>
1

> <PUBCHEM_CACTVS_TAUTO_COUNT>
3

> <PUBCHEM_CONFORMER_ID>
00B5C7FD00000001

> <PUBCHEM_MMFF94_ENERGY>
106.274

> <PUBCHEM_FEATURE_SELFOVERLAP>
71.771

> <PUBCHEM_SHAPE_FINGERPRINT>
10622 236 18190182291824645426
10693767 8 18409722972074069627
11146851 88 18410290307353188910
11720765 8 18335700593544338420
11828532 37 16298680459296235101
12355185 293 18338786828594593201
12838863 1 18189326889064197890
13782708 43 18339919416091985213
13947947 73 17822285760598835342
14251764 75 9294703395521924346
14347332 77 18272090470512801841
14537116 161 12684812199664357086
14910700 183 11095893661520545021
15119646 104 18342742905405408379
15183329 4 18271816743683012173
15320295 40 18115293472609693642
15350500 16 17749659690013276354
15392192 104 14692280815456780108
15419008 91 15195005999452429233
18393751 57 10303818687932348533
21133410 58 18040149634789060690
21344244 78 15913329117088131560
21895439 516 17821731667643802043
23569943 247 18412259507430835403
27425 322 16009882804006589956
397830 11 13973969783489953025
3986486 107 13046230403878817618
4066623 53 17240478079397746724
439807 62 18408040706561953887
463206 1 18342459291799118258
5085150 59 16845576435562911455
5223283 242 16805042904412155620
57035037 87 13912614888326391502
5951187 136 13623825963850846638
59682541 52 17967254217179803644
6438161 24 18412536622313568203
6697151 62 17845929745243703945
86090 222 14978862963697296556
9689198 14 16008746940318952701

> <PUBCHEM_SHAPE_MULTIPOLES>
654.28
24.84
3.42
1.9
42.27
0.3
0.25
-17.08
5.3
-6.17
-0.09
-1.4
0.52
-3.56

> <PUBCHEM_SHAPE_SELFOVERLAP>
1411.829

> <PUBCHEM_SHAPE_VOLUME>
360.7

> <PUBCHEM_COORDINATE_TYPE>
2
5
10

$$$$
