7135085
  -OEChem-12032416123D

 78 81  0     1  0  0  0  0  0999 V2000
   -0.0960    3.5376    0.2502 S   0  0  0  0  0  0  0  0  0  0  0  0
   -6.6505   -0.6701   -0.7295 O   0  0  0  0  0  0  0  0  0  0  0  0
   -6.8036    1.1167    0.8605 O   0  0  0  0  0  0  0  0  0  0  0  0
    1.2129   -1.1867   -1.5395 O   0  0  0  0  0  0  0  0  0  0  0  0
    3.9817    1.3649   -0.1877 O   0  0  0  0  0  0  0  0  0  0  0  0
    1.0457    1.2374   -0.0639 N   0  0  0  0  0  0  0  0  0  0  0  0
    2.0493   -2.7088    0.0036 N   0  0  0  0  0  0  0  0  0  0  0  0
    2.4935    3.1586    0.0878 N   0  0  0  0  0  0  0  0  0  0  0  0
   -2.4274   -0.3934    0.3178 C   0  0  2  0  0  0  0  0  0  0  0  0
   -3.1733    0.8614   -0.3185 C   0  0  1  0  0  0  0  0  0  0  0  0
   -4.7504    0.8283   -0.3261 C   0  0  1  0  0  0  0  0  0  0  0  0
   -0.9048   -0.3590   -0.1659 C   0  0  1  0  0  0  0  0  0  0  0  0
   -3.0773   -1.7001   -0.2064 C   0  0  0  0  0  0  0  0  0  0  0  0
   -5.2312   -0.5612   -0.8324 C   0  0  1  0  0  0  0  0  0  0  0  0
   -2.5768    2.2016    0.2017 C   0  0  0  0  0  0  0  0  0  0  0  0
   -4.5942   -1.7267   -0.0841 C   0  0  0  0  0  0  0  0  0  0  0  0
   -2.4759   -0.4004    1.8656 C   0  0  0  0  0  0  0  0  0  0  0  0
   -0.3190    1.0214   -0.0143 C   0  0  0  0  0  0  0  0  0  0  0  0
   -5.4051    1.1776    1.0287 C   0  0  0  0  0  0  0  0  0  0  0  0
   -5.2748    1.8933   -1.3305 C   0  0  0  0  0  0  0  0  0  0  0  0
   -1.0878    2.1582    0.1311 C   0  0  0  0  0  0  0  0  0  0  0  0
   -0.0067   -1.4241    0.4777 C   0  0  0  0  0  0  0  0  0  0  0  0
    1.1365   -1.7561   -0.4477 C   0  0  0  0  0  0  0  0  0  0  0  0
    1.2795    2.5248    0.0725 C   0  0  0  0  0  0  0  0  0  0  0  0
    3.2078   -3.0565   -0.8207 C   0  0  0  0  0  0  0  0  0  0  0  0
    1.9850   -3.4023    1.2954 C   0  0  0  0  0  0  0  0  0  0  0  0
    3.2727   -4.5629   -1.0616 C   0  0  0  0  0  0  0  0  0  0  0  0
    2.0263   -4.9169    1.0996 C   0  0  0  0  0  0  0  0  0  0  0  0
    3.2442   -5.3390    0.2639 C   0  0  0  0  0  0  0  0  0  0  0  0
    3.7650    2.5660   -0.0400 C   0  0  0  0  0  0  0  0  0  0  0  0
    3.2349   -6.8447    0.0119 C   0  0  0  0  0  0  0  0  0  0  0  0
    4.9361    3.5794    0.0226 C   0  0  0  0  0  0  0  0  0  0  0  0
    4.9071    4.3134    1.3768 C   0  0  0  0  0  0  0  0  0  0  0  0
    4.7958    4.6227   -1.0970 C   0  0  0  0  0  0  0  0  0  0  0  0
    6.2806    2.8454   -0.1015 C   0  0  0  0  0  0  0  0  0  0  0  0
   -2.9009    0.8174   -1.3874 H   0  0  0  0  0  0  0  0  0  0  0  0
   -0.9554   -0.5310   -1.2513 H   0  0  0  0  0  0  0  0  0  0  0  0
   -2.8184   -1.8413   -1.2641 H   0  0  0  0  0  0  0  0  0  0  0  0
   -2.6801   -2.5730    0.3239 H   0  0  0  0  0  0  0  0  0  0  0  0
   -4.9849   -0.6564   -1.8983 H   0  0  0  0  0  0  0  0  0  0  0  0
   -2.9415    3.0369   -0.4055 H   0  0  0  0  0  0  0  0  0  0  0  0
   -2.8800    2.3896    1.2370 H   0  0  0  0  0  0  0  0  0  0  0  0
   -4.9095   -1.7330    0.9651 H   0  0  0  0  0  0  0  0  0  0  0  0
   -4.9711   -2.6711   -0.4977 H   0  0  0  0  0  0  0  0  0  0  0  0
   -1.9282   -1.2564    2.2750 H   0  0  0  0  0  0  0  0  0  0  0  0
   -3.4857   -0.4953    2.2593 H   0  0  0  0  0  0  0  0  0  0  0  0
   -2.0309    0.4971    2.3040 H   0  0  0  0  0  0  0  0  0  0  0  0
   -5.1434    2.1875    1.3589 H   0  0  0  0  0  0  0  0  0  0  0  0
   -5.1467    0.4780    1.8195 H   0  0  0  0  0  0  0  0  0  0  0  0
   -4.7852    1.7873   -2.3056 H   0  0  0  0  0  0  0  0  0  0  0  0
   -5.0908    2.9131   -0.9764 H   0  0  0  0  0  0  0  0  0  0  0  0
   -6.3525    1.8051   -1.5083 H   0  0  0  0  0  0  0  0  0  0  0  0
   -0.5599   -2.3537    0.6362 H   0  0  0  0  0  0  0  0  0  0  0  0
    0.3901   -1.0747    1.4378 H   0  0  0  0  0  0  0  0  0  0  0  0
   -6.9076   -1.5320   -1.0989 H   0  0  0  0  0  0  0  0  0  0  0  0
   -7.2085    1.3471    1.7139 H   0  0  0  0  0  0  0  0  0  0  0  0
    3.1764   -2.5304   -1.7800 H   0  0  0  0  0  0  0  0  0  0  0  0
    4.1031   -2.7135   -0.2888 H   0  0  0  0  0  0  0  0  0  0  0  0
    2.8494   -3.0705    1.8830 H   0  0  0  0  0  0  0  0  0  0  0  0
    1.0913   -3.1382    1.8629 H   0  0  0  0  0  0  0  0  0  0  0  0
    2.4364    4.1657    0.2057 H   0  0  0  0  0  0  0  0  0  0  0  0
    4.1836   -4.8051   -1.6213 H   0  0  0  0  0  0  0  0  0  0  0  0
    2.4205   -4.8652   -1.6841 H   0  0  0  0  0  0  0  0  0  0  0  0
    2.0512   -5.4113    2.0776 H   0  0  0  0  0  0  0  0  0  0  0  0
    1.1049   -5.2396    0.5975 H   0  0  0  0  0  0  0  0  0  0  0  0
    4.1540   -5.0950    0.8286 H   0  0  0  0  0  0  0  0  0  0  0  0
    2.3461   -7.1497   -0.5507 H   0  0  0  0  0  0  0  0  0  0  0  0
    4.1181   -7.1476   -0.5603 H   0  0  0  0  0  0  0  0  0  0  0  0
    3.2426   -7.3963    0.9578 H   0  0  0  0  0  0  0  0  0  0  0  0
    4.9181    3.5987    2.2080 H   0  0  0  0  0  0  0  0  0  0  0  0
    4.0123    4.9336    1.4949 H   0  0  0  0  0  0  0  0  0  0  0  0
    5.7761    4.9720    1.4881 H   0  0  0  0  0  0  0  0  0  0  0  0
    4.7311    4.1337   -2.0758 H   0  0  0  0  0  0  0  0  0  0  0  0
    3.8990    5.2407   -0.9830 H   0  0  0  0  0  0  0  0  0  0  0  0
    5.6580    5.2988   -1.1162 H   0  0  0  0  0  0  0  0  0  0  0  0
    6.4071    2.1069    0.6987 H   0  0  0  0  0  0  0  0  0  0  0  0
    6.3509    2.3113   -1.0561 H   0  0  0  0  0  0  0  0  0  0  0  0
    7.1230    3.5441   -0.0484 H   0  0  0  0  0  0  0  0  0  0  0  0
  1 21  1  0  0  0  0
  1 24  1  0  0  0  0
  2 14  1  0  0  0  0
  2 55  1  0  0  0  0
  3 19  1  0  0  0  0
  3 56  1  0  0  0  0
  4 23  2  0  0  0  0
  5 30  2  0  0  0  0
  6 18  1  0  0  0  0
  6 24  2  0  0  0  0
  7 23  1  0  0  0  0
  7 25  1  0  0  0  0
  7 26  1  0  0  0  0
  8 24  1  0  0  0  0
  8 30  1  0  0  0  0
  8 61  1  0  0  0  0
  9 10  1  0  0  0  0
  9 12  1  0  0  0  0
  9 13  1  0  0  0  0
  9 17  1  0  0  0  0
 10 11  1  0  0  0  0
 10 15  1  0  0  0  0
 10 36  1  0  0  0  0
 11 14  1  0  0  0  0
 11 19  1  0  0  0  0
 11 20  1  0  0  0  0
 12 18  1  0  0  0  0
 12 22  1  0  0  0  0
 12 37  1  0  0  0  0
 13 16  1  0  0  0  0
 13 38  1  0  0  0  0
 13 39  1  0  0  0  0
 14 16  1  0  0  0  0
 14 40  1  0  0  0  0
 15 21  1  0  0  0  0
 15 41  1  0  0  0  0
 15 42  1  0  0  0  0
 16 43  1  0  0  0  0
 16 44  1  0  0  0  0
 17 45  1  0  0  0  0
 17 46  1  0  0  0  0
 17 47  1  0  0  0  0
 18 21  2  0  0  0  0
 19 48  1  0  0  0  0
 19 49  1  0  0  0  0
 20 50  1  0  0  0  0
 20 51  1  0  0  0  0
 20 52  1  0  0  0  0
 22 23  1  0  0  0  0
 22 53  1  0  0  0  0
 22 54  1  0  0  0  0
 25 27  1  0  0  0  0
 25 57  1  0  0  0  0
 25 58  1  0  0  0  0
 26 28  1  0  0  0  0
 26 59  1  0  0  0  0
 26 60  1  0  0  0  0
 27 29  1  0  0  0  0
 27 62  1  0  0  0  0
 27 63  1  0  0  0  0
 28 29  1  0  0  0  0
 28 64  1  0  0  0  0
 28 65  1  0  0  0  0
 29 31  1  0  0  0  0
 29 66  1  0  0  0  0
 30 32  1  0  0  0  0
 31 67  1  0  0  0  0
 31 68  1  0  0  0  0
 31 69  1  0  0  0  0
 32 33  1  0  0  0  0
 32 34  1  0  0  0  0
 32 35  1  0  0  0  0
 33 70  1  0  0  0  0
 33 71  1  0  0  0  0
 33 72  1  0  0  0  0
 34 73  1  0  0  0  0
 34 74  1  0  0  0  0
 34 75  1  0  0  0  0
 35 76  1  0  0  0  0
 35 77  1  0  0  0  0
 35 78  1  0  0  0  0
M  END
> <PUBCHEM_COMPOUND_CID>
7135085

> <PUBCHEM_CONFORMER_RMSD>
1

> <PUBCHEM_CONFORMER_DIVERSEORDER>
1
11
10
9
5
15
13
2
12
14
8
7
4
6
3

> <PUBCHEM_MMFF94_PARTIAL_CHARGES>
24
1 -0.08
12 0.18
14 0.28
15 0.18
18 0.05
19 0.28
2 -0.68
21 -0.14
22 0.06
23 0.57
24 0.44
25 0.3
26 0.3
3 -0.68
30 0.57
32 0.06
4 -0.57
5 -0.57
55 0.4
56 0.4
6 -0.57
61 0.37
7 -0.66
8 -0.49

> <PUBCHEM_EFFECTIVE_ROTOR_COUNT>
9.4

> <PUBCHEM_PHARMACOPHORE_FEATURES>
12
1 2 acceptor
1 2 donor
1 3 acceptor
1 3 donor
1 4 acceptor
1 5 acceptor
1 8 donor
4 32 33 34 35 hydrophobe
5 1 6 18 21 24 rings
6 7 25 26 27 28 29 rings
6 9 10 11 13 14 16 rings
6 9 10 12 15 18 21 rings

> <PUBCHEM_HEAVY_ATOM_COUNT>
35

> <PUBCHEM_ATOM_DEF_STEREO_COUNT>
5

> <PUBCHEM_ATOM_UDEF_STEREO_COUNT>
0

> <PUBCHEM_BOND_DEF_STEREO_COUNT>
0

> <PUBCHEM_BOND_UDEF_STEREO_COUNT>
0

> <PUBCHEM_ISOTOPIC_ATOM_COUNT>
0

> <PUBCHEM_COMPONENT_COUNT>
1

> <PUBCHEM_CACTVS_TAUTO_COUNT>
3

> <PUBCHEM_CONFORMER_ID>
006CDF6D00000001

> <PUBCHEM_MMFF94_ENERGY>
105.8964

> <PUBCHEM_FEATURE_SELFOVERLAP>
61.042

> <PUBCHEM_SHAPE_FINGERPRINT>
10050765 1 18338796698856830613
10074138 170 17693635423359937152
102385 1 18194681471145529004
10319688 45 17329144672688315426
10411042 1 17906172849816117210
10622 236 17986927766653136303
10906281 52 18263093261141040345
1100329 8 17762903165071421937
11135926 11 18411695513235852085
11578080 2 17532347821978756101
11719270 70 18338790225829315152
11763715 3 17689455792852342878
11991303 11 17683800283021903070
12107183 9 17911248217851037113
12788726 201 16892303170986695986
13540713 4 18114463358679370461
13540713 5 18130507436620367561
13757389 114 17613729532123239180
14028597 1 17773619254782834113
14150023 79 18338231682116337007
14394314 77 17762058735693004371
14725015 67 18413107256818349020
14790565 3 18266178524796177492
14937079 2 17906733592447089905
15200665 1 17619345850386515762
15320294 125 18044069450478360104
15347591 1 18410572852620079893
15400415 2 18194401319451216620
15439362 3 18409164394629639365
15815584 197 18267044901250509183
15927050 60 18341050834452204175
16090146 7 18124058950757524784
16719943 64 18122060073013967048
20642791 35 18341060626665740031
21033648 29 17983851465313253480
21133665 82 18267869557670530764
21796203 349 17547051483201804603
22311459 1 18410293567501969594
23559900 14 18266169527129212635
244849 19 17968962828548308019
249999 5 18411418388728332472
3383291 50 17978788235920678336
3418910 222 17977384924957908498
38695281 34 18265612272333775688
4017518 198 18267307711296331748
4058900 60 18337117885759663168
5085150 59 18193826257752701040
5171179 24 18120930612146992229
5265222 85 18048605007976633372
5385378 56 18411426119975797313
563151 97 18340204219341640405
6058803 2 18201439130524502057
6669772 16 18410012164859006839
6673363 416 17836094369548606438
6679774 75 18264186159035931738
6898599 12 17541670851612170276
9961470 85 18198054993053971752
9981440 41 18190744330479966267

> <PUBCHEM_SHAPE_MULTIPOLES>
685.71
13.57
8.9
1.16
11.12
11.47
0.15
-8.64
-1.08
-21.35
0.44
0.16
0.13
0.12

> <PUBCHEM_SHAPE_SELFOVERLAP>
1422.592

> <PUBCHEM_SHAPE_VOLUME>
395.8

> <PUBCHEM_COORDINATE_TYPE>
2
5
10

$$$$
