11884511
  -OEChem-12032416233D

 54 57  0     1  0  0  0  0  0999 V2000
   -5.5621    3.2788    1.2565 Cl  0  0  0  0  0  0  0  0  0  0  0  0
   -4.5258    5.1261   -0.8178 F   0  0  0  0  0  0  0  0  0  0  0  0
    0.7058    1.9963   -0.3013 O   0  0  0  0  0  0  0  0  0  0  0  0
   -3.0801   -0.6580    0.4942 O   0  0  0  0  0  0  0  0  0  0  0  0
    3.1805    0.6344   -1.6086 O   0  0  0  0  0  0  0  0  0  0  0  0
    7.9945    1.5627   -1.0553 O   0  0  0  0  0  0  0  0  0  0  0  0
    7.3136    0.8937    1.0070 O   0  0  0  0  0  0  0  0  0  0  0  0
    2.3075   -0.0542    0.4206 N   0  0  0  0  0  0  0  0  0  0  0  0
   -0.9875   -1.4881    0.9628 N   0  0  0  0  0  0  0  0  0  0  0  0
   -1.2346    0.7333    0.1083 N   0  0  0  0  0  0  0  0  0  0  0  0
    0.4501   -1.3455    0.9715 C   0  0  1  0  0  0  0  0  0  0  0  0
    0.9655   -0.3738   -0.0693 C   0  0  1  0  0  0  0  0  0  0  0  0
    1.0363   -0.7983    2.2752 C   0  0  0  0  0  0  0  0  0  0  0  0
    2.4336   -0.3658    1.8454 C   0  0  0  0  0  0  0  0  0  0  0  0
    0.1548    0.9121   -0.0972 C   0  0  0  0  0  0  0  0  0  0  0  0
   -1.8573   -0.4780    0.5355 C   0  0  0  0  0  0  0  0  0  0  0  0
   -1.5155   -2.7462    1.4786 C   0  0  0  0  0  0  0  0  0  0  0  0
    3.3261    0.3820   -0.4116 C   0  0  0  0  0  0  0  0  0  0  0  0
    4.6733    0.5484    0.2448 C   0  0  0  0  0  0  0  0  0  0  0  0
   -2.0944    1.8768   -0.1287 C   0  0  0  0  0  0  0  0  0  0  0  0
   -1.6837   -3.7191    0.3517 C   0  0  0  0  0  0  0  0  0  0  0  0
    5.6869    1.0274   -0.7750 C   0  0  0  0  0  0  0  0  0  0  0  0
   -3.2719    2.0084    0.5941 C   0  0  0  0  0  0  0  0  0  0  0  0
   -1.7277    2.8222   -1.0764 C   0  0  0  0  0  0  0  0  0  0  0  0
   -2.8873   -3.7673   -0.3452 C   0  0  0  0  0  0  0  0  0  0  0  0
   -0.6353   -4.5676    0.0093 C   0  0  0  0  0  0  0  0  0  0  0  0
   -4.0994    3.1076    0.3646 C   0  0  0  0  0  0  0  0  0  0  0  0
   -2.5551    3.9213   -1.3059 C   0  0  0  0  0  0  0  0  0  0  0  0
    7.0628    1.1382   -0.1661 C   0  0  0  0  0  0  0  0  0  0  0  0
   -3.0440   -4.6729   -1.3945 C   0  0  0  0  0  0  0  0  0  0  0  0
   -0.7921   -5.4732   -1.0401 C   0  0  0  0  0  0  0  0  0  0  0  0
   -3.7409    4.0641   -0.5853 C   0  0  0  0  0  0  0  0  0  0  0  0
   -1.9965   -5.5257   -1.7419 C   0  0  0  0  0  0  0  0  0  0  0  0
    0.9065   -2.3231    0.7739 H   0  0  0  0  0  0  0  0  0  0  0  0
    0.9980   -0.7901   -1.0815 H   0  0  0  0  0  0  0  0  0  0  0  0
    0.4620    0.0642    2.6354 H   0  0  0  0  0  0  0  0  0  0  0  0
    1.0584   -1.5402    3.0790 H   0  0  0  0  0  0  0  0  0  0  0  0
    3.1535   -1.1836    1.9556 H   0  0  0  0  0  0  0  0  0  0  0  0
    2.7922    0.5065    2.3989 H   0  0  0  0  0  0  0  0  0  0  0  0
   -2.4821   -2.5661    1.9649 H   0  0  0  0  0  0  0  0  0  0  0  0
   -0.8495   -3.1402    2.2556 H   0  0  0  0  0  0  0  0  0  0  0  0
    4.5897    1.2730    1.0625 H   0  0  0  0  0  0  0  0  0  0  0  0
    4.9854   -0.4140    0.6657 H   0  0  0  0  0  0  0  0  0  0  0  0
    5.4050    2.0139   -1.1607 H   0  0  0  0  0  0  0  0  0  0  0  0
    5.7503    0.3245   -1.6140 H   0  0  0  0  0  0  0  0  0  0  0  0
   -3.5451    1.3341    1.3997 H   0  0  0  0  0  0  0  0  0  0  0  0
   -0.8644    2.7209   -1.7249 H   0  0  0  0  0  0  0  0  0  0  0  0
   -3.7183   -3.1205   -0.0809 H   0  0  0  0  0  0  0  0  0  0  0  0
    0.3044   -4.5486    0.5536 H   0  0  0  0  0  0  0  0  0  0  0  0
   -2.2863    4.6569   -2.0584 H   0  0  0  0  0  0  0  0  0  0  0  0
   -3.9827   -4.7161   -1.9390 H   0  0  0  0  0  0  0  0  0  0  0  0
    0.0224   -6.1395   -1.3089 H   0  0  0  0  0  0  0  0  0  0  0  0
   -2.1190   -6.2317   -2.5580 H   0  0  0  0  0  0  0  0  0  0  0  0
    8.8825    1.6411   -0.6459 H   0  0  0  0  0  0  0  0  0  0  0  0
  1 27  1  0  0  0  0
  2 32  1  0  0  0  0
  3 15  2  0  0  0  0
  4 16  2  0  0  0  0
  5 18  2  0  0  0  0
  6 29  1  0  0  0  0
  6 54  1  0  0  0  0
  7 29  2  0  0  0  0
  8 12  1  0  0  0  0
  8 14  1  0  0  0  0
  8 18  1  0  0  0  0
  9 11  1  0  0  0  0
  9 16  1  0  0  0  0
  9 17  1  0  0  0  0
 10 15  1  0  0  0  0
 10 16  1  0  0  0  0
 10 20  1  0  0  0  0
 11 12  1  0  0  0  0
 11 13  1  0  0  0  0
 11 34  1  0  0  0  0
 12 15  1  0  0  0  0
 12 35  1  0  0  0  0
 13 14  1  0  0  0  0
 13 36  1  0  0  0  0
 13 37  1  0  0  0  0
 14 38  1  0  0  0  0
 14 39  1  0  0  0  0
 17 21  1  0  0  0  0
 17 40  1  0  0  0  0
 17 41  1  0  0  0  0
 18 19  1  0  0  0  0
 19 22  1  0  0  0  0
 19 42  1  0  0  0  0
 19 43  1  0  0  0  0
 20 23  2  0  0  0  0
 20 24  1  0  0  0  0
 21 25  2  0  0  0  0
 21 26  1  0  0  0  0
 22 29  1  0  0  0  0
 22 44  1  0  0  0  0
 22 45  1  0  0  0  0
 23 27  1  0  0  0  0
 23 46  1  0  0  0  0
 24 28  2  0  0  0  0
 24 47  1  0  0  0  0
 25 30  1  0  0  0  0
 25 48  1  0  0  0  0
 26 31  2  0  0  0  0
 26 49  1  0  0  0  0
 27 32  2  0  0  0  0
 28 32  1  0  0  0  0
 28 50  1  0  0  0  0
 30 33  2  0  0  0  0
 30 51  1  0  0  0  0
 31 33  1  0  0  0  0
 31 52  1  0  0  0  0
 33 53  1  0  0  0  0
M  END
> <PUBCHEM_COMPOUND_CID>
11884511

> <PUBCHEM_CONFORMER_RMSD>
1

> <PUBCHEM_CONFORMER_DIVERSEORDER>
1
14
112
73
45
31
103
69
46
124
42
35
92
49
44
99
59
98
86
77
33
53
88
30
3
119
83
32
15
43
52
11
16
62
100
116
113
21
51
110
81
108
41
78
54
104
90
58
27
76
118
105
95
96
55
17
71
93
47
75
107
66
114
80
89
101
60
19
111
50
117
74
79
48
40
72
6
36
109
18
24
56
87
102
91
94
7
106
68
123
39
25
120
34
57
26
12
63
10
8
61
22
122
23
115
67
82
29
64
9
70
37
28
65
2
38
97
85
13
20
121
4
84
5

> <PUBCHEM_MMFF94_PARTIAL_CHARGES>
41
1 -0.18
10 -0.24
11 0.3
12 0.36
14 0.3
15 0.57
16 0.69
17 0.44
18 0.57
19 0.06
2 -0.19
20 0.12
21 -0.14
22 0.06
23 -0.15
24 -0.15
25 -0.15
26 -0.15
27 0.18
28 -0.15
29 0.66
3 -0.57
30 -0.15
31 -0.15
32 0.19
33 -0.15
4 -0.57
46 0.15
47 0.15
48 0.15
49 0.15
5 -0.57
50 0.15
51 0.15
52 0.15
53 0.15
54 0.5
6 -0.65
7 -0.57
8 -0.66
9 -0.66

> <PUBCHEM_EFFECTIVE_ROTOR_COUNT>
8

> <PUBCHEM_PHARMACOPHORE_FEATURES>
10
1 3 acceptor
1 4 acceptor
1 5 acceptor
1 6 acceptor
1 7 acceptor
3 6 7 29 anion
5 8 11 12 13 14 rings
6 20 23 24 27 28 32 rings
6 21 25 26 30 31 33 rings
6 9 10 11 12 15 16 rings

> <PUBCHEM_HEAVY_ATOM_COUNT>
33

> <PUBCHEM_ATOM_DEF_STEREO_COUNT>
2

> <PUBCHEM_ATOM_UDEF_STEREO_COUNT>
0

> <PUBCHEM_BOND_DEF_STEREO_COUNT>
0

> <PUBCHEM_BOND_UDEF_STEREO_COUNT>
0

> <PUBCHEM_ISOTOPIC_ATOM_COUNT>
0

> <PUBCHEM_COMPONENT_COUNT>
1

> <PUBCHEM_CACTVS_TAUTO_COUNT>
1

> <PUBCHEM_CONFORMER_ID>
00B557DF00000001

> <PUBCHEM_MMFF94_ENERGY>
99.9538

> <PUBCHEM_FEATURE_SELFOVERLAP>
50.997

> <PUBCHEM_SHAPE_FINGERPRINT>
10290309 65 18193559960773929453
10319688 45 18124595550980459958
10411042 1 17903083574371713275
10940486 97 18334583490030913108
11297750 10 17842831402727036514
11331351 85 17838618108613929003
11477941 20 17978238480434000476
11720765 8 17405419392135490151
12160290 23 18188470476510414771
12522641 68 18339357462117543228
12788726 201 18263349438654759211
12977781 61 17987816146093556550
13008946 119 18200589194487068648
13008946 170 17334461958076164865
13008946 267 17190378600366306776
13540713 5 17969202517962652458
13757389 114 18339646736807616831
13761468 95 18187350035227788287
13782708 43 17701546345287484770
14294032 229 18410858767464022313
14508225 48 18050280676338899567
14556957 393 17898299556951313254
14659021 117 18267015249160560426
15081414 286 17186441240283663619
15198563 99 18267298931481332839
15420108 30 18189043218894383452
15439362 3 18122906435116741990
15876981 60 18117845623327265748
15927050 60 18338233765650761726
16087824 20 18336545006728343203
16988056 13 16750425471497862597
16989713 51 18056767744442264830
16992828 155 17894906304849232508
18470217 77 18124855001539009120
21756936 100 18336260172216892452
23559900 14 17189808477501586975
23929065 36 18195507398288924592
24771750 20 18049737221258067255
25019877 29 18337962186162280677
255183 313 18269295567715250019
3610482 184 17750254615860812732
4280585 95 17980193416197768846
4353968 344 18050016786172187620
5171179 24 18053947526712993288
5219985 13 18263364694104079788
5969126 39 18194962079249937134
6669772 16 18125726681814318367
6698420 124 18059306348760002544
6700243 42 17695107587555827118
7808743 9 18261392222189925296

> <PUBCHEM_SHAPE_MULTIPOLES>
629.43
12.39
8.4
1.55
30.94
9.36
-0.29
-15.75
1.33
-15.94
4.36
0.02
0.54
-1.31

> <PUBCHEM_SHAPE_SELFOVERLAP>
1359.482

> <PUBCHEM_SHAPE_VOLUME>
345.4

> <PUBCHEM_COORDINATE_TYPE>
2
5
10

$$$$
