75367001
  -OEChem-12032416393D

 59 62  0     1  0  0  0  0  0999 V2000
   -4.7999    2.2939    0.5758 F   0  0  0  0  0  0  0  0  0  0  0  0
    3.3661   -1.0753    0.1948 O   0  0  0  0  0  0  0  0  0  0  0  0
    5.7633   -2.2704    1.4249 O   0  0  0  0  0  0  0  0  0  0  0  0
   -0.1731    0.3264   -2.3352 O   0  0  0  0  0  0  0  0  0  0  0  0
    1.8158    2.4490    0.4566 O   0  0  0  0  0  0  0  0  0  0  0  0
   -1.9694   -1.5868   -0.1838 O   0  0  0  0  0  0  0  0  0  0  0  0
    1.9498    0.6625    1.9201 N   0  0  0  0  0  0  0  0  0  0  0  0
    1.1907    0.5199   -2.5175 N   0  0  0  0  0  0  0  0  0  0  0  0
   -0.1306    1.4329    1.2869 N   0  0  0  0  0  0  0  0  0  0  0  0
    3.9198   -0.3062   -0.8756 C   0  0  1  0  0  0  0  0  0  0  0  0
    3.8802   -0.7667    1.4970 C   0  0  1  0  0  0  0  0  0  0  0  0
    5.4089   -0.8894    1.5372 C   0  0  2  0  0  0  0  0  0  0  0  0
    5.4345   -0.4930   -0.9460 C   0  0  0  0  0  0  0  0  0  0  0  0
    6.0826   -0.1412    0.3900 C   0  0  0  0  0  0  0  0  0  0  0  0
    3.2553   -0.7713   -2.1657 C   0  0  0  0  0  0  0  0  0  0  0  0
    3.3782    0.5928    1.9789 C   0  0  0  0  0  0  0  0  0  0  0  0
    1.7590   -0.6181   -2.1088 C   0  0  0  0  0  0  0  0  0  0  0  0
    0.8127   -1.5568   -1.6624 C   0  0  0  0  0  0  0  0  0  0  0  0
    1.2494    1.6052    1.1472 C   0  0  0  0  0  0  0  0  0  0  0  0
   -0.3857   -0.9137   -1.8256 C   0  0  0  0  0  0  0  0  0  0  0  0
   -1.7821   -1.2866   -1.5696 C   0  0  0  0  0  0  0  0  0  0  0  0
   -1.1649    2.1786    0.6749 C   0  0  0  0  0  0  0  0  0  0  0  0
   -2.4989    1.8627    0.9329 C   0  0  0  0  0  0  0  0  0  0  0  0
   -0.8511    3.2294   -0.1871 C   0  0  0  0  0  0  0  0  0  0  0  0
   -3.2145   -2.0137    0.1839 C   0  0  0  0  0  0  0  0  0  0  0  0
   -3.5191    2.5977    0.3290 C   0  0  0  0  0  0  0  0  0  0  0  0
   -1.8712    3.9643   -0.7911 C   0  0  0  0  0  0  0  0  0  0  0  0
   -4.2208   -2.1361   -0.7744 C   0  0  0  0  0  0  0  0  0  0  0  0
   -3.4795   -2.3256    1.5174 C   0  0  0  0  0  0  0  0  0  0  0  0
   -3.2052    3.6487   -0.5330 C   0  0  0  0  0  0  0  0  0  0  0  0
   -5.4922   -2.5704   -0.3991 C   0  0  0  0  0  0  0  0  0  0  0  0
   -4.7509   -2.7600    1.8927 C   0  0  0  0  0  0  0  0  0  0  0  0
   -5.7572   -2.8826    0.9344 C   0  0  0  0  0  0  0  0  0  0  0  0
    3.6840    0.7527   -0.7213 H   0  0  0  0  0  0  0  0  0  0  0  0
    3.4571   -1.5374    2.1543 H   0  0  0  0  0  0  0  0  0  0  0  0
    5.7938   -0.5383    2.5011 H   0  0  0  0  0  0  0  0  0  0  0  0
    5.8618    0.1270   -1.7422 H   0  0  0  0  0  0  0  0  0  0  0  0
    5.6696   -1.5379   -1.1855 H   0  0  0  0  0  0  0  0  0  0  0  0
    7.1498   -0.3876    0.3434 H   0  0  0  0  0  0  0  0  0  0  0  0
    6.0056    0.9396    0.5560 H   0  0  0  0  0  0  0  0  0  0  0  0
    3.4784   -1.8319   -2.3421 H   0  0  0  0  0  0  0  0  0  0  0  0
    3.6521   -0.2131   -3.0225 H   0  0  0  0  0  0  0  0  0  0  0  0
    3.8119    1.4147    1.4025 H   0  0  0  0  0  0  0  0  0  0  0  0
    3.6642    0.7454    3.0254 H   0  0  0  0  0  0  0  0  0  0  0  0
    6.7309   -2.3325    1.5003 H   0  0  0  0  0  0  0  0  0  0  0  0
    1.4148    0.0252    2.5021 H   0  0  0  0  0  0  0  0  0  0  0  0
    0.9755   -2.5530   -1.2784 H   0  0  0  0  0  0  0  0  0  0  0  0
   -2.4352   -0.4547   -1.8628 H   0  0  0  0  0  0  0  0  0  0  0  0
   -1.9956   -2.1704   -2.1844 H   0  0  0  0  0  0  0  0  0  0  0  0
   -0.4365    0.6810    1.8994 H   0  0  0  0  0  0  0  0  0  0  0  0
   -2.7573    1.0472    1.6032 H   0  0  0  0  0  0  0  0  0  0  0  0
    0.1557    3.5324   -0.4373 H   0  0  0  0  0  0  0  0  0  0  0  0
   -1.6282    4.7823   -1.4632 H   0  0  0  0  0  0  0  0  0  0  0  0
   -4.0923   -1.9075   -1.8265 H   0  0  0  0  0  0  0  0  0  0  0  0
   -2.6997   -2.2308    2.2681 H   0  0  0  0  0  0  0  0  0  0  0  0
   -3.9997    4.2204   -1.0034 H   0  0  0  0  0  0  0  0  0  0  0  0
   -6.2770   -2.6648   -1.1440 H   0  0  0  0  0  0  0  0  0  0  0  0
   -4.9574   -3.0023    2.9311 H   0  0  0  0  0  0  0  0  0  0  0  0
   -6.7471   -3.2204    1.2267 H   0  0  0  0  0  0  0  0  0  0  0  0
  1 26  1  0  0  0  0
  2 10  1  0  0  0  0
  2 11  1  0  0  0  0
  3 12  1  0  0  0  0
  3 45  1  0  0  0  0
  4  8  1  0  0  0  0
  4 20  1  0  0  0  0
  5 19  2  0  0  0  0
  6 21  1  0  0  0  0
  6 25  1  0  0  0  0
  7 16  1  0  0  0  0
  7 19  1  0  0  0  0
  7 46  1  0  0  0  0
  8 17  2  0  0  0  0
  9 19  1  0  0  0  0
  9 22  1  0  0  0  0
  9 50  1  0  0  0  0
 10 13  1  0  0  0  0
 10 15  1  0  0  0  0
 10 34  1  0  0  0  0
 11 12  1  0  0  0  0
 11 16  1  0  0  0  0
 11 35  1  0  0  0  0
 12 14  1  0  0  0  0
 12 36  1  0  0  0  0
 13 14  1  0  0  0  0
 13 37  1  0  0  0  0
 13 38  1  0  0  0  0
 14 39  1  0  0  0  0
 14 40  1  0  0  0  0
 15 17  1  0  0  0  0
 15 41  1  0  0  0  0
 15 42  1  0  0  0  0
 16 43  1  0  0  0  0
 16 44  1  0  0  0  0
 17 18  1  0  0  0  0
 18 20  2  0  0  0  0
 18 47  1  0  0  0  0
 20 21  1  0  0  0  0
 21 48  1  0  0  0  0
 21 49  1  0  0  0  0
 22 23  2  0  0  0  0
 22 24  1  0  0  0  0
 23 26  1  0  0  0  0
 23 51  1  0  0  0  0
 24 27  2  0  0  0  0
 24 52  1  0  0  0  0
 25 28  2  0  0  0  0
 25 29  1  0  0  0  0
 26 30  2  0  0  0  0
 27 30  1  0  0  0  0
 27 53  1  0  0  0  0
 28 31  1  0  0  0  0
 28 54  1  0  0  0  0
 29 32  2  0  0  0  0
 29 55  1  0  0  0  0
 30 56  1  0  0  0  0
 31 33  2  0  0  0  0
 31 57  1  0  0  0  0
 32 33  1  0  0  0  0
 32 58  1  0  0  0  0
 33 59  1  0  0  0  0
M  END
> <PUBCHEM_COMPOUND_CID>
75367001

> <PUBCHEM_CONFORMER_RMSD>
1.6

> <PUBCHEM_CONFORMER_DIVERSEORDER>
1
35
19
78
46
16
9
88
68
33
22
45
29
5
21
85
40
83
81
59
90
65
82
23
8
3
42
73
39
76
72
79
20
55
4
87
89
41
51
34
17
30
86
43
31
38
66
14
26
56
53
18
6
50
28
62
58
60
64
47
2
75
91
69
84
49
70
24
52
48
25
71
44
80
13
67
37
32
15
54
63
36
12
10
61
57
11
27
77
74
7

> <PUBCHEM_MMFF94_PARTIAL_CHARGES>
44
1 -0.19
10 0.28
11 0.28
12 0.28
15 0.18
16 0.3
17 0.11
18 -0.15
19 0.69
2 -0.56
20 -0.04
21 0.46
22 0.12
23 -0.15
24 -0.15
25 0.08
26 0.19
27 -0.15
28 -0.15
29 -0.15
3 -0.68
30 -0.15
31 -0.15
32 -0.15
33 -0.15
4 -0.02
45 0.4
46 0.37
47 0.15
5 -0.57
50 0.37
51 0.15
52 0.15
53 0.15
54 0.15
55 0.15
56 0.15
57 0.15
58 0.15
59 0.15
6 -0.36
7 -0.73
8 -0.41
9 -0.55

> <PUBCHEM_EFFECTIVE_ROTOR_COUNT>
11.2

> <PUBCHEM_PHARMACOPHORE_FEATURES>
12
1 2 acceptor
1 3 acceptor
1 3 donor
1 5 acceptor
1 6 acceptor
1 7 donor
1 8 acceptor
1 9 donor
5 4 8 17 18 20 rings
6 2 10 11 12 13 14 rings
6 22 23 24 26 27 30 rings
6 25 28 29 31 32 33 rings

> <PUBCHEM_HEAVY_ATOM_COUNT>
33

> <PUBCHEM_ATOM_DEF_STEREO_COUNT>
3

> <PUBCHEM_ATOM_UDEF_STEREO_COUNT>
0

> <PUBCHEM_BOND_DEF_STEREO_COUNT>
0

> <PUBCHEM_BOND_UDEF_STEREO_COUNT>
0

> <PUBCHEM_ISOTOPIC_ATOM_COUNT>
0

> <PUBCHEM_COMPONENT_COUNT>
1

> <PUBCHEM_CACTVS_TAUTO_COUNT>
3

> <PUBCHEM_CONFORMER_ID>
047E025900000001

> <PUBCHEM_MMFF94_ENERGY>
73.2092

> <PUBCHEM_FEATURE_SELFOVERLAP>
60.95

> <PUBCHEM_SHAPE_FINGERPRINT>
10688039 33 18339364166181482333
11991303 11 18043802092431273925
12035758 1 18200330827125110329
12128747 34 18053946152101743646
12422481 6 17775573073865200011
12788726 201 18189917441927898294
13135754 10 18410562977271915841
13402501 40 17846212198713152949
13726171 33 18128558075192263000
13965767 371 17272563103984629184
14840074 17 17768804608896733984
15721738 202 17458626769389075834
16067689 68 17752463401577314922
18603816 31 17607234369367590042
20764821 26 18269850838615350909
21304303 282 18045488734989227133
2132832 1 18114473347913159749
22182313 1 17560808680183792278
3052486 1 18410302397189455935
3187 122 18413103983288203133
3886686 26 17759522175110780026
469060 322 18267606700501134179
508706 21 18271805666709317405
513202 73 18341324548211839003
56638632 10 15482094089922349338
57828716 16 17894920637750222835
58260988 393 18336262431801973056
5951187 136 13033621157213035203
59520757 100 18261391093372804653

> <PUBCHEM_SHAPE_MULTIPOLES>
627.56
12.84
4.45
2.36
4.94
3.85
-0.6
-10.51
4.96
-7.89
0.53
1.57
-0.8
0.86

> <PUBCHEM_SHAPE_SELFOVERLAP>
1340.089

> <PUBCHEM_SHAPE_VOLUME>
346.8

> <PUBCHEM_COORDINATE_TYPE>
2
5
10

$$$$
