40781547
  -OEChem-12032416173D

 56 58  0     1  0  0  0  0  0999 V2000
   -1.3233    1.2518    0.0636 S   0  0  0  0  0  0  0  0  0  0  0  0
    0.1128   -2.4400   -1.1007 O   0  0  0  0  0  0  0  0  0  0  0  0
   -2.3996   -4.1101    0.8484 O   0  0  0  0  0  0  0  0  0  0  0  0
   -0.2940   -5.3709   -0.3946 O   0  0  0  0  0  0  0  0  0  0  0  0
    2.6164   -1.4245   -1.4197 O   0  0  0  0  0  0  0  0  0  0  0  0
   -0.8280    1.5589   -1.2647 O   0  0  0  0  0  0  0  0  0  0  0  0
   -0.7406    1.8944    1.2260 O   0  0  0  0  0  0  0  0  0  0  0  0
   -1.3064   -0.4343    0.2949 N   0  0  0  0  0  0  0  0  0  0  0  0
    3.4924   -0.6418    0.5802 N   0  0  0  0  0  0  0  0  0  0  0  0
   -1.2181   -3.3768    0.6055 C   0  0  1  0  0  0  0  0  0  0  0  0
    0.0071   -4.2513    0.4374 C   0  0  2  0  0  0  0  0  0  0  0  0
   -1.2607   -2.6524   -0.7296 C   0  0  1  0  0  0  0  0  0  0  0  0
    0.9506   -3.3317   -0.3301 C   0  0  2  0  0  0  0  0  0  0  0  0
   -1.9858   -1.3199   -0.6687 C   0  0  0  0  0  0  0  0  0  0  0  0
    1.8242   -2.4796    0.5804 C   0  0  0  0  0  0  0  0  0  0  0  0
    2.6725   -1.4750   -0.1881 C   0  0  0  0  0  0  0  0  0  0  0  0
    4.3612    0.3696   -0.0174 C   0  0  0  0  0  0  0  0  0  0  0  0
   -3.0555    1.6031    0.0937 C   0  0  0  0  0  0  0  0  0  0  0  0
    3.5419   -0.7199    2.0350 C   0  0  0  0  0  0  0  0  0  0  0  0
    3.6824    1.7050   -0.1178 C   0  0  0  0  0  0  0  0  0  0  0  0
   -3.6848    1.9063    1.3011 C   0  0  0  0  0  0  0  0  0  0  0  0
   -3.7932    1.5764   -1.0897 C   0  0  0  0  0  0  0  0  0  0  0  0
    2.9534    2.0333   -1.2607 C   0  0  0  0  0  0  0  0  0  0  0  0
    3.7810    2.6177    0.9324 C   0  0  0  0  0  0  0  0  0  0  0  0
   -5.0518    2.1828    1.3250 C   0  0  0  0  0  0  0  0  0  0  0  0
   -5.1601    1.8532   -1.0660 C   0  0  0  0  0  0  0  0  0  0  0  0
   -5.7894    2.1563    0.1415 C   0  0  0  0  0  0  0  0  0  0  0  0
    2.3229    3.2742   -1.3536 C   0  0  0  0  0  0  0  0  0  0  0  0
    3.1506    3.8585    0.8397 C   0  0  0  0  0  0  0  0  0  0  0  0
    2.4216    4.1867   -0.3035 C   0  0  0  0  0  0  0  0  0  0  0  0
   -1.0544   -2.7075    1.4536 H   0  0  0  0  0  0  0  0  0  0  0  0
    0.4046   -4.6324    1.3825 H   0  0  0  0  0  0  0  0  0  0  0  0
   -1.7295   -3.2760   -1.5010 H   0  0  0  0  0  0  0  0  0  0  0  0
    1.5740   -3.8852   -1.0419 H   0  0  0  0  0  0  0  0  0  0  0  0
   -3.0273   -1.4606   -0.3638 H   0  0  0  0  0  0  0  0  0  0  0  0
   -1.9615   -0.8632   -1.6635 H   0  0  0  0  0  0  0  0  0  0  0  0
    2.4860   -3.1449    1.1453 H   0  0  0  0  0  0  0  0  0  0  0  0
    1.1955   -1.9108    1.2750 H   0  0  0  0  0  0  0  0  0  0  0  0
   -2.2497   -4.6512    1.6423 H   0  0  0  0  0  0  0  0  0  0  0  0
    0.5271   -5.8804   -0.5044 H   0  0  0  0  0  0  0  0  0  0  0  0
   -1.3046   -0.7520    1.2709 H   0  0  0  0  0  0  0  0  0  0  0  0
    4.6491    0.0353   -1.0220 H   0  0  0  0  0  0  0  0  0  0  0  0
    5.2943    0.4414    0.5542 H   0  0  0  0  0  0  0  0  0  0  0  0
    4.5880   -0.7388    2.3568 H   0  0  0  0  0  0  0  0  0  0  0  0
    3.0556   -1.5991    2.4549 H   0  0  0  0  0  0  0  0  0  0  0  0
    3.0540    0.1672    2.4488 H   0  0  0  0  0  0  0  0  0  0  0  0
   -3.1315    1.9253    2.2356 H   0  0  0  0  0  0  0  0  0  0  0  0
   -3.3244    1.3400   -2.0407 H   0  0  0  0  0  0  0  0  0  0  0  0
    2.8680    1.3333   -2.0874 H   0  0  0  0  0  0  0  0  0  0  0  0
    4.3480    2.3758    1.8274 H   0  0  0  0  0  0  0  0  0  0  0  0
   -5.5423    2.4170    2.2653 H   0  0  0  0  0  0  0  0  0  0  0  0
   -5.7349    1.8317   -1.9873 H   0  0  0  0  0  0  0  0  0  0  0  0
   -6.8538    2.3709    0.1602 H   0  0  0  0  0  0  0  0  0  0  0  0
    1.7545    3.5294   -2.2431 H   0  0  0  0  0  0  0  0  0  0  0  0
    3.2273    4.5693    1.6573 H   0  0  0  0  0  0  0  0  0  0  0  0
    1.9302    5.1524   -0.3755 H   0  0  0  0  0  0  0  0  0  0  0  0
  1  6  2  0  0  0  0
  1  7  2  0  0  0  0
  1  8  1  0  0  0  0
  1 18  1  0  0  0  0
  2 12  1  0  0  0  0
  2 13  1  0  0  0  0
  3 10  1  0  0  0  0
  3 39  1  0  0  0  0
  4 11  1  0  0  0  0
  4 40  1  0  0  0  0
  5 16  2  0  0  0  0
  8 14  1  0  0  0  0
  8 41  1  0  0  0  0
  9 16  1  0  0  0  0
  9 17  1  0  0  0  0
  9 19  1  0  0  0  0
 10 11  1  0  0  0  0
 10 12  1  0  0  0  0
 10 31  1  0  0  0  0
 11 13  1  0  0  0  0
 11 32  1  0  0  0  0
 12 14  1  0  0  0  0
 12 33  1  0  0  0  0
 13 15  1  0  0  0  0
 13 34  1  0  0  0  0
 14 35  1  0  0  0  0
 14 36  1  0  0  0  0
 15 16  1  0  0  0  0
 15 37  1  0  0  0  0
 15 38  1  0  0  0  0
 17 20  1  0  0  0  0
 17 42  1  0  0  0  0
 17 43  1  0  0  0  0
 18 21  2  0  0  0  0
 18 22  1  0  0  0  0
 19 44  1  0  0  0  0
 19 45  1  0  0  0  0
 19 46  1  0  0  0  0
 20 23  2  0  0  0  0
 20 24  1  0  0  0  0
 21 25  1  0  0  0  0
 21 47  1  0  0  0  0
 22 26  2  0  0  0  0
 22 48  1  0  0  0  0
 23 28  1  0  0  0  0
 23 49  1  0  0  0  0
 24 29  2  0  0  0  0
 24 50  1  0  0  0  0
 25 27  2  0  0  0  0
 25 51  1  0  0  0  0
 26 27  1  0  0  0  0
 26 52  1  0  0  0  0
 27 53  1  0  0  0  0
 28 30  2  0  0  0  0
 28 54  1  0  0  0  0
 29 30  1  0  0  0  0
 29 55  1  0  0  0  0
 30 56  1  0  0  0  0
M  END
> <PUBCHEM_COMPOUND_CID>
40781547

> <PUBCHEM_CONFORMER_RMSD>
1.4

> <PUBCHEM_CONFORMER_DIVERSEORDER>
6
151
89
30
13
54
17
84
8
10
117
45
29
11
109
111
61
68
81
153
87
4
86
74
42
48
102
33
59
113
107
23
130
80
88
120
128
155
16
55
3
40
114
136
35
138
141
105
31
15
38
94
56
121
142
27
7
146
49
123
119
90
137
25
83
72
70
21
100
122
97
129
71
127
104
148
156
133
69
158
143
159
96
149
110
50
2
12
41
9
147
152
53
135
51
145
39
66
47
126
144
131
78
20
62
91
76
124
82
60
116
132
103
139
115
34
92
150
19
36
26
46
57
77
73
95
14
58
67
43
22
134
112
106
154
93
52
75
24
28
85
157
18
79
63
32
65
44
108
37
5
118
125
99
140
98
101
64
1

> <PUBCHEM_MMFF94_PARTIAL_CHARGES>
43
1 1.45
10 0.28
11 0.28
12 0.28
13 0.28
14 0.36
15 0.06
16 0.57
17 0.44
18 -0.01
19 0.3
2 -0.56
20 -0.14
21 -0.15
22 -0.15
23 -0.15
24 -0.15
25 -0.15
26 -0.15
27 -0.15
28 -0.15
29 -0.15
3 -0.68
30 -0.15
39 0.4
4 -0.68
40 0.4
41 0.42
47 0.15
48 0.15
49 0.15
5 -0.57
50 0.15
51 0.15
52 0.15
53 0.15
54 0.15
55 0.15
56 0.15
6 -0.65
7 -0.65
8 -0.91
9 -0.66

> <PUBCHEM_EFFECTIVE_ROTOR_COUNT>
10

> <PUBCHEM_PHARMACOPHORE_FEATURES>
12
1 2 acceptor
1 3 acceptor
1 3 donor
1 4 acceptor
1 4 donor
1 5 acceptor
1 6 acceptor
1 7 acceptor
1 8 donor
5 2 10 11 12 13 rings
6 18 21 22 25 26 27 rings
6 20 23 24 28 29 30 rings

> <PUBCHEM_HEAVY_ATOM_COUNT>
30

> <PUBCHEM_ATOM_DEF_STEREO_COUNT>
4

> <PUBCHEM_ATOM_UDEF_STEREO_COUNT>
0

> <PUBCHEM_BOND_DEF_STEREO_COUNT>
0

> <PUBCHEM_BOND_UDEF_STEREO_COUNT>
0

> <PUBCHEM_ISOTOPIC_ATOM_COUNT>
0

> <PUBCHEM_COMPONENT_COUNT>
1

> <PUBCHEM_CACTVS_TAUTO_COUNT>
1

> <PUBCHEM_CONFORMER_ID>
026E46EB00000006

> <PUBCHEM_MMFF94_ENERGY>
67.027

> <PUBCHEM_FEATURE_SELFOVERLAP>
60.934

> <PUBCHEM_SHAPE_FINGERPRINT>
10090160 65 18268706117697567113
10675989 125 18200307719542467321
1100329 8 18411419488566812770
11014199 57 17042890088487371819
11059048 146 18266469869670745892
12633257 1 18335967697944630492
12788726 201 17981872348909617399
13140716 1 18411139130033770201
13590594 115 17330833517916781375
1361 2 18337954480901273657
14117953 113 18266168432012616828
14790565 3 18411982498908317075
15790856 291 15576923613965185365
161222 619 18265636332957002035
19930381 70 18048876295142587901
21716022 299 14619122408405437183
340366 18 18334574638113423336
4015057 19 17470993797776059965
474 4 18340484444229393799
5309563 4 17833830469407658021
5312544 6 18341329981719644185
6036956 94 17615401902120511813
653340 110 17907295803654891784
79837 15 18338241586843989729
9777508 108 18266181806071128436

> <PUBCHEM_SHAPE_MULTIPOLES>
576.06
9.64
7.08
1.4
8.58
6.26
0.15
-10.72
1.35
-1.71
0.03
-0.13
-0.46
-0.42

> <PUBCHEM_SHAPE_SELFOVERLAP>
1200.766

> <PUBCHEM_SHAPE_VOLUME>
327.4

> <PUBCHEM_COORDINATE_TYPE>
2
5
10

$$$$
