7144188
  -OEChem-12032416233D

 52 56  0     1  0  0  0  0  0999 V2000
   -6.7068   -1.0529    1.0465 F   0  0  0  0  0  0  0  0  0  0  0  0
   -4.9731    0.0744    1.7529 F   0  0  0  0  0  0  0  0  0  0  0  0
   -6.5214    1.0604    0.5223 F   0  0  0  0  0  0  0  0  0  0  0  0
    3.9723    2.5619   -1.8097 O   0  0  0  0  0  0  0  0  0  0  0  0
    4.3078   -1.6048    1.0670 O   0  0  0  0  0  0  0  0  0  0  0  0
   -5.1338   -0.4676   -0.4632 O   0  0  0  0  0  0  0  0  0  0  0  0
    2.3153    1.9254   -0.2816 N   0  0  0  0  0  0  0  0  0  0  0  0
    2.3865   -0.4733    1.7707 N   0  0  0  0  0  0  0  0  0  0  0  0
    2.1582   -1.9168   -1.1017 N   0  0  0  0  0  0  0  0  0  0  0  0
    1.1314   -4.3572   -0.1763 N   0  0  0  0  0  0  0  0  0  0  0  0
    2.7479    1.9353    2.2475 C   0  0  2  0  0  0  0  0  0  0  0  0
    0.5752    1.1822    1.3726 C   0  0  2  0  0  0  0  0  0  0  0  0
    1.2444    2.1416    2.3560 C   0  0  0  0  0  0  0  0  0  0  0  0
    3.1893    2.3187    0.8337 C   0  0  0  0  0  0  0  0  0  0  0  0
    3.1219    0.4843    2.5943 C   0  0  0  0  0  0  0  0  0  0  0  0
    0.9301   -0.2729    1.7486 C   0  0  0  0  0  0  0  0  0  0  0  0
    0.9994    1.4676   -0.0702 C   0  0  0  0  0  0  0  0  0  0  0  0
    0.1742    1.2646   -1.1303 C   0  0  0  0  0  0  0  0  0  0  0  0
    2.8371    2.1509   -1.5677 C   0  0  0  0  0  0  0  0  0  0  0  0
    3.0889   -1.4396    1.0465 C   0  0  0  0  0  0  0  0  0  0  0  0
    0.6794    1.4826   -2.4723 C   0  0  0  0  0  0  0  0  0  0  0  0
    1.9289    1.8832   -2.7060 C   0  0  0  0  0  0  0  0  0  0  0  0
   -1.2223    0.8086   -0.9542 C   0  0  0  0  0  0  0  0  0  0  0  0
    2.3301   -2.3342    0.1644 C   0  0  0  0  0  0  0  0  0  0  0  0
   -1.5051   -0.5533   -0.9195 C   0  0  0  0  0  0  0  0  0  0  0  0
   -2.2432    1.7453   -0.8251 C   0  0  0  0  0  0  0  0  0  0  0  0
    1.8300   -3.5277    0.6239 C   0  0  0  0  0  0  0  0  0  0  0  0
   -2.8220   -0.9828   -0.7542 C   0  0  0  0  0  0  0  0  0  0  0  0
   -3.5599    1.3157   -0.6596 C   0  0  0  0  0  0  0  0  0  0  0  0
   -3.8494   -0.0483   -0.6242 C   0  0  0  0  0  0  0  0  0  0  0  0
    1.4597   -2.7464   -1.9020 C   0  0  0  0  0  0  0  0  0  0  0  0
    0.9553   -3.9449   -1.4474 C   0  0  0  0  0  0  0  0  0  0  0  0
   -5.8264   -0.0801    0.7184 C   0  0  0  0  0  0  0  0  0  0  0  0
    3.2621    2.5901    2.9617 H   0  0  0  0  0  0  0  0  0  0  0  0
   -0.5062    1.3118    1.4917 H   0  0  0  0  0  0  0  0  0  0  0  0
    0.9770    3.1811    2.1280 H   0  0  0  0  0  0  0  0  0  0  0  0
    0.9041    1.9397    3.3791 H   0  0  0  0  0  0  0  0  0  0  0  0
    4.2010    1.9423    0.6359 H   0  0  0  0  0  0  0  0  0  0  0  0
    3.2613    3.4138    0.7766 H   0  0  0  0  0  0  0  0  0  0  0  0
    4.2021    0.3367    2.4915 H   0  0  0  0  0  0  0  0  0  0  0  0
    2.8650    0.2707    3.6390 H   0  0  0  0  0  0  0  0  0  0  0  0
    0.5665   -0.4948    2.7598 H   0  0  0  0  0  0  0  0  0  0  0  0
    0.4433   -0.9830    1.0800 H   0  0  0  0  0  0  0  0  0  0  0  0
    0.0127    1.2964   -3.3091 H   0  0  0  0  0  0  0  0  0  0  0  0
    2.2998    2.0372   -3.7123 H   0  0  0  0  0  0  0  0  0  0  0  0
   -0.7222   -1.2942   -1.0221 H   0  0  0  0  0  0  0  0  0  0  0  0
   -2.0325    2.8114   -0.8520 H   0  0  0  0  0  0  0  0  0  0  0  0
    1.9672   -3.8642    1.6446 H   0  0  0  0  0  0  0  0  0  0  0  0
   -3.0411   -2.0467   -0.7276 H   0  0  0  0  0  0  0  0  0  0  0  0
   -4.3512    2.0543   -0.5664 H   0  0  0  0  0  0  0  0  0  0  0  0
    1.3162   -2.4144   -2.9228 H   0  0  0  0  0  0  0  0  0  0  0  0
    0.3927   -4.6101   -2.0907 H   0  0  0  0  0  0  0  0  0  0  0  0
  1 33  1  0  0  0  0
  2 33  1  0  0  0  0
  3 33  1  0  0  0  0
  4 19  2  0  0  0  0
  5 20  2  0  0  0  0
  6 30  1  0  0  0  0
  6 33  1  0  0  0  0
  7 14  1  0  0  0  0
  7 17  1  0  0  0  0
  7 19  1  0  0  0  0
  8 15  1  0  0  0  0
  8 16  1  0  0  0  0
  8 20  1  0  0  0  0
  9 24  2  0  0  0  0
  9 31  1  0  0  0  0
 10 27  2  0  0  0  0
 10 32  1  0  0  0  0
 11 13  1  0  0  0  0
 11 14  1  0  0  0  0
 11 15  1  0  0  0  0
 11 34  1  0  0  0  0
 12 13  1  0  0  0  0
 12 16  1  0  0  0  0
 12 17  1  0  0  0  0
 12 35  1  0  0  0  0
 13 36  1  0  0  0  0
 13 37  1  0  0  0  0
 14 38  1  0  0  0  0
 14 39  1  0  0  0  0
 15 40  1  0  0  0  0
 15 41  1  0  0  0  0
 16 42  1  0  0  0  0
 16 43  1  0  0  0  0
 17 18  2  0  0  0  0
 18 21  1  0  0  0  0
 18 23  1  0  0  0  0
 19 22  1  0  0  0  0
 20 24  1  0  0  0  0
 21 22  2  0  0  0  0
 21 44  1  0  0  0  0
 22 45  1  0  0  0  0
 23 25  2  0  0  0  0
 23 26  1  0  0  0  0
 24 27  1  0  0  0  0
 25 28  1  0  0  0  0
 25 46  1  0  0  0  0
 26 29  2  0  0  0  0
 26 47  1  0  0  0  0
 27 48  1  0  0  0  0
 28 30  2  0  0  0  0
 28 49  1  0  0  0  0
 29 30  1  0  0  0  0
 29 50  1  0  0  0  0
 31 32  2  0  0  0  0
 31 51  1  0  0  0  0
 32 52  1  0  0  0  0
M  END
> <PUBCHEM_COMPOUND_CID>
7144188

> <PUBCHEM_CONFORMER_RMSD>
0.8

> <PUBCHEM_CONFORMER_DIVERSEORDER>
1
7
19
18
13
16
14
12
17
9
15
3
11
5
4
10
8
2
6

> <PUBCHEM_MMFF94_PARTIAL_CHARGES>
40
1 -0.34
10 -0.62
12 0.14
14 0.3
15 0.3
16 0.3
17 -0.03
18 -0.03
19 0.62
2 -0.34
20 0.54
21 -0.15
22 -0.14
23 0.03
24 0.4
25 -0.15
26 -0.15
27 0.16
28 -0.15
29 -0.15
3 -0.34
30 0.08
31 0.16
32 0.16
33 1.3
4 -0.57
44 0.15
45 0.15
46 0.15
47 0.15
48 0.15
49 0.15
5 -0.57
50 0.15
51 0.15
52 0.15
6 -0.36
7 -0.47
8 -0.66
9 -0.62

> <PUBCHEM_EFFECTIVE_ROTOR_COUNT>
6

> <PUBCHEM_PHARMACOPHORE_FEATURES>
10
1 10 acceptor
1 4 acceptor
1 5 acceptor
1 6 acceptor
1 9 acceptor
6 23 25 26 28 29 30 rings
6 7 11 12 13 14 17 rings
6 7 17 18 19 21 22 rings
6 8 11 12 13 15 16 rings
6 9 10 24 27 31 32 rings

> <PUBCHEM_HEAVY_ATOM_COUNT>
33

> <PUBCHEM_ATOM_DEF_STEREO_COUNT>
2

> <PUBCHEM_ATOM_UDEF_STEREO_COUNT>
0

> <PUBCHEM_BOND_DEF_STEREO_COUNT>
0

> <PUBCHEM_BOND_UDEF_STEREO_COUNT>
0

> <PUBCHEM_ISOTOPIC_ATOM_COUNT>
0

> <PUBCHEM_COMPONENT_COUNT>
1

> <PUBCHEM_CACTVS_TAUTO_COUNT>
1

> <PUBCHEM_CONFORMER_ID>
006D02FC00000001

> <PUBCHEM_MMFF94_ENERGY>
105.9101

> <PUBCHEM_FEATURE_SELFOVERLAP>
52.338

> <PUBCHEM_SHAPE_FINGERPRINT>
10064457 181 18054200367141903160
11421498 54 18270417021898898280
11578080 2 16617332364021590728
12128747 34 17982997961259834013
12156800 1 15795430791929291726
12422481 6 17973407076075576856
12633257 1 17917130750539594675
13533116 47 18272375257346666931
13583140 156 17916281897604058949
14114207 22 12998902633739499207
14863182 85 18336541702822209320
15324884 4 17612542871746556416
15392192 104 18189351216122212035
17492 54 17749689415244353462
17974551 9 17054399874891011184
1813 80 17823133419676049477
19301679 30 18187372039378628585
1979834 28 18408316709750348913
20600515 1 17476927852580713932
20764821 26 18114749364393352443
20775530 9 17979909411005448630
21421861 104 18202290164892233921
23559900 14 18188776037906243175
3052486 1 17689701387429319014
3117164 225 17913777116122246041
35225 105 17196825483410204414
44317340 157 8286191774419871363
460360 51 18057892334057358649
513532 50 16630811010324343775
563151 248 17898556830099312824
57527452 28 18409738335894793686
57527585 103 16757179771944443486
6287921 2 18337098016882379318
6823239 73 17676207944515175593

> <PUBCHEM_SHAPE_MULTIPOLES>
619.77
9.61
4.16
2.61
22.34
4.82
-0.1
-0.9
4.14
-4.71
-1.16
-2.14
-1.34
-0.11

> <PUBCHEM_SHAPE_SELFOVERLAP>
1373.27

> <PUBCHEM_SHAPE_VOLUME>
330

> <PUBCHEM_COORDINATE_TYPE>
2
5
10

$$$$
