26745437
  -OEChem-12032416183D

 49 52  0     1  0  0  0  0  0999 V2000
    5.5902   -2.4412   -2.0478 Cl  0  0  0  0  0  0  0  0  0  0  0  0
    1.0866    2.1872   -0.2911 O   0  0  0  0  0  0  0  0  0  0  0  0
   -1.1558   -1.9671    0.5514 O   0  0  0  0  0  0  0  0  0  0  0  0
    2.1176    3.5675    2.1705 O   0  0  0  0  0  0  0  0  0  0  0  0
   -1.7731    0.5566   -0.8619 N   0  0  2  0  0  0  0  0  0  0  0  0
   -4.8570   -1.5158   -1.1840 N   0  0  0  0  0  0  0  0  0  0  0  0
   -5.2017   -0.9484    0.9516 N   0  0  0  0  0  0  0  0  0  0  0  0
    0.3339   -0.5330    1.6207 N   0  0  0  0  0  0  0  0  0  0  0  0
   -1.6407    0.3736    0.6056 C   0  0  1  0  0  0  0  0  0  0  0  0
   -3.0127    0.2812    1.3342 C   0  0  0  0  0  0  0  0  0  0  0  0
   -2.5304   -0.5108   -1.5558 C   0  0  0  0  0  0  0  0  0  0  0  0
   -3.7524   -0.8278   -0.7838 C   0  0  0  0  0  0  0  0  0  0  0  0
   -3.9847   -0.4952    0.5280 C   0  0  0  0  0  0  0  0  0  0  0  0
   -0.5027    0.8273   -1.5282 C   0  0  0  0  0  0  0  0  0  0  0  0
   -0.8098   -0.8429    0.9048 C   0  0  0  0  0  0  0  0  0  0  0  0
    0.0460    2.1767   -1.1649 C   0  0  0  0  0  0  0  0  0  0  0  0
   -5.7028   -1.5612   -0.1032 C   0  0  0  0  0  0  0  0  0  0  0  0
    1.2898   -1.5271    2.0527 C   0  0  0  0  0  0  0  0  0  0  0  0
   -0.2860    3.4589   -1.5365 C   0  0  0  0  0  0  0  0  0  0  0  0
    1.4227    3.4904   -0.1028 C   0  0  0  0  0  0  0  0  0  0  0  0
    0.6082    4.3121   -0.8468 C   0  0  0  0  0  0  0  0  0  0  0  0
    2.3643   -1.7554    1.0294 C   0  0  0  0  0  0  0  0  0  0  0  0
    2.5402    3.7474    0.8167 C   0  0  0  0  0  0  0  0  0  0  0  0
    2.1931   -2.7276    0.0437 C   0  0  0  0  0  0  0  0  0  0  0  0
    3.5337   -0.9958    1.0638 C   0  0  0  0  0  0  0  0  0  0  0  0
    3.1911   -2.9403   -0.9070 C   0  0  0  0  0  0  0  0  0  0  0  0
    4.5319   -1.2084    0.1130 C   0  0  0  0  0  0  0  0  0  0  0  0
    4.3605   -2.1807   -0.8724 C   0  0  0  0  0  0  0  0  0  0  0  0
   -1.1574    1.2609    1.0324 H   0  0  0  0  0  0  0  0  0  0  0  0
   -3.4160    1.2919    1.4732 H   0  0  0  0  0  0  0  0  0  0  0  0
   -2.8992   -0.1742    2.3246 H   0  0  0  0  0  0  0  0  0  0  0  0
   -1.9274   -1.4137   -1.7034 H   0  0  0  0  0  0  0  0  0  0  0  0
   -2.8225   -0.1495   -2.5495 H   0  0  0  0  0  0  0  0  0  0  0  0
   -0.6550    0.8441   -2.6162 H   0  0  0  0  0  0  0  0  0  0  0  0
    0.2429    0.0447   -1.3434 H   0  0  0  0  0  0  0  0  0  0  0  0
   -5.0257   -1.9189   -2.0963 H   0  0  0  0  0  0  0  0  0  0  0  0
   -6.6631   -2.0546   -0.1534 H   0  0  0  0  0  0  0  0  0  0  0  0
    0.5410    0.4353    1.8466 H   0  0  0  0  0  0  0  0  0  0  0  0
    0.7655   -2.4650    2.2711 H   0  0  0  0  0  0  0  0  0  0  0  0
    1.7246   -1.1782    2.9963 H   0  0  0  0  0  0  0  0  0  0  0  0
   -1.0737    3.7450   -2.2188 H   0  0  0  0  0  0  0  0  0  0  0  0
    0.6512    5.3910   -0.8886 H   0  0  0  0  0  0  0  0  0  0  0  0
    3.3682    3.0585    0.6204 H   0  0  0  0  0  0  0  0  0  0  0  0
    2.9088    4.7723    0.7072 H   0  0  0  0  0  0  0  0  0  0  0  0
    1.2882   -3.3281    0.0058 H   0  0  0  0  0  0  0  0  0  0  0  0
    3.6773   -0.2330    1.8246 H   0  0  0  0  0  0  0  0  0  0  0  0
    3.0438   -3.7011   -1.6692 H   0  0  0  0  0  0  0  0  0  0  0  0
    5.4371   -0.6080    0.1513 H   0  0  0  0  0  0  0  0  0  0  0  0
    2.8906    3.7430    2.7340 H   0  0  0  0  0  0  0  0  0  0  0  0
  1 28  1  0  0  0  0
  2 16  1  0  0  0  0
  2 20  1  0  0  0  0
  3 15  2  0  0  0  0
  4 23  1  0  0  0  0
  4 49  1  0  0  0  0
  5  9  1  0  0  0  0
  5 11  1  0  0  0  0
  5 14  1  0  0  0  0
  6 12  1  0  0  0  0
  6 17  1  0  0  0  0
  6 36  1  0  0  0  0
  7 13  1  0  0  0  0
  7 17  2  0  0  0  0
  8 15  1  0  0  0  0
  8 18  1  0  0  0  0
  8 38  1  0  0  0  0
  9 10  1  0  0  0  0
  9 15  1  0  0  0  0
  9 29  1  0  0  0  0
 10 13  1  0  0  0  0
 10 30  1  0  0  0  0
 10 31  1  0  0  0  0
 11 12  1  0  0  0  0
 11 32  1  0  0  0  0
 11 33  1  0  0  0  0
 12 13  2  0  0  0  0
 14 16  1  0  0  0  0
 14 34  1  0  0  0  0
 14 35  1  0  0  0  0
 16 19  2  0  0  0  0
 17 37  1  0  0  0  0
 18 22  1  0  0  0  0
 18 39  1  0  0  0  0
 18 40  1  0  0  0  0
 19 21  1  0  0  0  0
 19 41  1  0  0  0  0
 20 21  2  0  0  0  0
 20 23  1  0  0  0  0
 21 42  1  0  0  0  0
 22 24  2  0  0  0  0
 22 25  1  0  0  0  0
 23 43  1  0  0  0  0
 23 44  1  0  0  0  0
 24 26  1  0  0  0  0
 24 45  1  0  0  0  0
 25 27  2  0  0  0  0
 25 46  1  0  0  0  0
 26 28  2  0  0  0  0
 26 47  1  0  0  0  0
 27 28  1  0  0  0  0
 27 48  1  0  0  0  0
M  END
> <PUBCHEM_COMPOUND_CID>
26745437

> <PUBCHEM_CONFORMER_RMSD>
1.2

> <PUBCHEM_CONFORMER_DIVERSEORDER>
1
38
59
74
58
21
93
48
64
22
66
40
39
49
87
83
70
84
47
81
10
78
32
45
11
76
90
42
94
13
75
77
65
63
89
46
85
37
67
41
92
15
43
34
80
25
71
69
57
18
61
62
52
35
33
60
55
72
17
86
24
82
23
68
28
2
19
16
7
79
44
14
31
26
30
20
36
27
54
56
50
6
9
4
51
29
91
53
3
73
5
12
88
8

> <PUBCHEM_MMFF94_PARTIAL_CHARGES>
38
1 -0.18
10 0.18
11 0.45
12 -0.33
13 0.05
14 0.45
15 0.57
16 -0.04
17 0.04
18 0.44
19 -0.15
2 -0.28
20 -0.04
21 -0.15
22 -0.14
23 0.46
24 -0.15
25 -0.15
26 -0.15
27 -0.15
28 0.18
3 -0.57
36 0.27
37 0.15
38 0.37
4 -0.68
41 0.15
42 0.15
45 0.15
46 0.15
47 0.15
48 0.15
49 0.4
5 -0.81
6 0.03
7 -0.57
8 -0.73
9 0.33

> <PUBCHEM_EFFECTIVE_ROTOR_COUNT>
7.8

> <PUBCHEM_PHARMACOPHORE_FEATURES>
12
1 2 acceptor
1 3 acceptor
1 4 acceptor
1 4 donor
1 5 cation
1 6 donor
1 8 donor
3 6 7 17 cation
5 2 16 19 20 21 rings
5 6 7 12 13 17 rings
6 22 24 25 26 27 28 rings
6 5 9 10 11 12 13 rings

> <PUBCHEM_HEAVY_ATOM_COUNT>
28

> <PUBCHEM_ATOM_DEF_STEREO_COUNT>
1

> <PUBCHEM_ATOM_UDEF_STEREO_COUNT>
0

> <PUBCHEM_BOND_DEF_STEREO_COUNT>
0

> <PUBCHEM_BOND_UDEF_STEREO_COUNT>
0

> <PUBCHEM_ISOTOPIC_ATOM_COUNT>
0

> <PUBCHEM_COMPONENT_COUNT>
1

> <PUBCHEM_CACTVS_TAUTO_COUNT>
4

> <PUBCHEM_CONFORMER_ID>
01981A5D00000001

> <PUBCHEM_MMFF94_ENERGY>
48.4677

> <PUBCHEM_FEATURE_SELFOVERLAP>
60.998

> <PUBCHEM_SHAPE_FINGERPRINT>
11045515 52 18338519620971205962
11607047 141 18199487592170204147
12156800 1 16831277088853383472
12788726 201 17828481366818703849
13149001 5 17895768407642844371
13402501 40 18187919642860390272
13533116 47 18269558398296729385
13911987 19 17604450530047659882
14347332 77 18047755897627493290
14713325 29 17623857821042711662
14790565 3 17325757090059006373
14955137 171 18120118120820393819
1813 80 18411413986571626135
20028762 73 17326895583099578167
21344244 246 18194403518130905486
22182313 1 17605247723522423541
23352939 185 18411142415488449792
23559900 14 18262236737519617995
3298306 158 17826246373681579372
35225 105 16826444120947502744
4017518 198 17764874985226967908
469060 322 16302088825489698344
5081480 168 18335696140021052309
5265222 85 10951187026672922522
532947 4 18189332536201736793
6287921 2 18200017577336576890
7399639 24 18198889350090651458
84936 31 18268418217096282449

> <PUBCHEM_SHAPE_MULTIPOLES>
540.56
9.92
5.15
1.9
2.73
7.75
-0.15
-11.51
2.52
-4.27
0.52
-0.85
0.12
1.56

> <PUBCHEM_SHAPE_SELFOVERLAP>
1163.836

> <PUBCHEM_SHAPE_VOLUME>
299.2

> <PUBCHEM_COORDINATE_TYPE>
2
5
10

$$$$
