11885926
  -OEChem-12032416223D

 56 59  0     1  0  0  0  0  0999 V2000
    3.1015   -4.8823    0.4070 F   0  0  0  0  0  0  0  0  0  0  0  0
   -0.3479    2.5281    2.1344 O   0  0  0  0  0  0  0  0  0  0  0  0
   -2.6338   -2.1396    1.6016 O   0  0  0  0  0  0  0  0  0  0  0  0
    3.1295    1.5148   -1.0796 O   0  0  0  0  0  0  0  0  0  0  0  0
    5.6256    0.8541    0.1577 O   0  0  0  0  0  0  0  0  0  0  0  0
   -3.4198   -0.7550   -0.0773 N   0  0  0  0  0  0  0  0  0  0  0  0
   -1.7906    1.9481    0.3902 N   0  0  0  0  0  0  0  0  0  0  0  0
   -1.7344   -2.3447   -0.5254 N   0  0  0  0  0  0  0  0  0  0  0  0
    1.8401    2.6701    0.4784 N   0  0  0  0  0  0  0  0  0  0  0  0
   -4.2725    1.4422    0.7557 C   0  0  1  0  0  0  0  0  0  0  0  0
   -3.3164    1.2845   -1.5026 C   0  0  2  0  0  0  0  0  0  0  0  0
   -4.4394    1.9143   -0.6831 C   0  0  0  0  0  0  0  0  0  0  0  0
   -4.3613   -0.0914    0.8293 C   0  0  0  0  0  0  0  0  0  0  0  0
   -2.9414    1.9703    1.3026 C   0  0  0  0  0  0  0  0  0  0  0  0
   -3.4386   -0.2536   -1.4636 C   0  0  0  0  0  0  0  0  0  0  0  0
   -1.9551    1.7016   -0.9765 C   0  0  0  0  0  0  0  0  0  0  0  0
   -0.9073    1.8007   -1.8119 C   0  0  0  0  0  0  0  0  0  0  0  0
   -0.5384    2.2869    0.9416 C   0  0  0  0  0  0  0  0  0  0  0  0
   -2.5854   -1.7789    0.4228 C   0  0  0  0  0  0  0  0  0  0  0  0
    0.6083    2.3610   -0.0184 C   0  0  0  0  0  0  0  0  0  0  0  0
    0.3992    2.1358   -1.3198 C   0  0  0  0  0  0  0  0  0  0  0  0
   -0.4971   -2.9923   -0.2873 C   0  0  0  0  0  0  0  0  0  0  0  0
    3.0314    2.2265   -0.0831 C   0  0  0  0  0  0  0  0  0  0  0  0
    4.2344    2.7374    0.6956 C   0  0  0  0  0  0  0  0  0  0  0  0
    0.1855   -3.5901   -1.3430 C   0  0  0  0  0  0  0  0  0  0  0  0
    0.0281   -3.0288    1.0016 C   0  0  0  0  0  0  0  0  0  0  0  0
    5.5603    2.2737    0.1124 C   0  0  0  0  0  0  0  0  0  0  0  0
    1.4029   -4.2292   -1.1082 C   0  0  0  0  0  0  0  0  0  0  0  0
    1.2455   -3.6679    1.2363 C   0  0  0  0  0  0  0  0  0  0  0  0
    1.9329   -4.2682    0.1815 C   0  0  0  0  0  0  0  0  0  0  0  0
    6.8541    0.3718   -0.3692 C   0  0  0  0  0  0  0  0  0  0  0  0
   -5.0832    1.8503    1.3720 H   0  0  0  0  0  0  0  0  0  0  0  0
   -3.4274    1.6137   -2.5440 H   0  0  0  0  0  0  0  0  0  0  0  0
   -5.4177    1.6108   -1.0755 H   0  0  0  0  0  0  0  0  0  0  0  0
   -4.3960    3.0092   -0.7385 H   0  0  0  0  0  0  0  0  0  0  0  0
   -5.3649   -0.4181    0.5299 H   0  0  0  0  0  0  0  0  0  0  0  0
   -4.2141   -0.4250    1.8616 H   0  0  0  0  0  0  0  0  0  0  0  0
   -2.6676    1.4418    2.2245 H   0  0  0  0  0  0  0  0  0  0  0  0
   -3.0720    3.0235    1.5867 H   0  0  0  0  0  0  0  0  0  0  0  0
   -2.6490   -0.6877   -2.0785 H   0  0  0  0  0  0  0  0  0  0  0  0
   -4.3952   -0.5668   -1.8994 H   0  0  0  0  0  0  0  0  0  0  0  0
   -1.0079    1.6056   -2.8744 H   0  0  0  0  0  0  0  0  0  0  0  0
    1.1654    2.2250   -2.0805 H   0  0  0  0  0  0  0  0  0  0  0  0
   -2.0251   -2.3386   -1.4968 H   0  0  0  0  0  0  0  0  0  0  0  0
    1.8711    3.0557    1.4191 H   0  0  0  0  0  0  0  0  0  0  0  0
    4.1988    3.8324    0.7120 H   0  0  0  0  0  0  0  0  0  0  0  0
    4.1391    2.3708    1.7249 H   0  0  0  0  0  0  0  0  0  0  0  0
   -0.2169   -3.5667   -2.3524 H   0  0  0  0  0  0  0  0  0  0  0  0
   -0.4382   -2.5515    1.8543 H   0  0  0  0  0  0  0  0  0  0  0  0
    5.6557    2.6116   -0.9264 H   0  0  0  0  0  0  0  0  0  0  0  0
    6.3840    2.6974    0.6983 H   0  0  0  0  0  0  0  0  0  0  0  0
    1.9385   -4.6968   -1.9292 H   0  0  0  0  0  0  0  0  0  0  0  0
    1.6632   -3.6920    2.2386 H   0  0  0  0  0  0  0  0  0  0  0  0
    7.6977    0.7499    0.2163 H   0  0  0  0  0  0  0  0  0  0  0  0
    6.8492   -0.7198   -0.3091 H   0  0  0  0  0  0  0  0  0  0  0  0
    6.9620    0.6631   -1.4185 H   0  0  0  0  0  0  0  0  0  0  0  0
  1 30  1  0  0  0  0
  2 18  2  0  0  0  0
  3 19  2  0  0  0  0
  4 23  2  0  0  0  0
  5 27  1  0  0  0  0
  5 31  1  0  0  0  0
  6 13  1  0  0  0  0
  6 15  1  0  0  0  0
  6 19  1  0  0  0  0
  7 14  1  0  0  0  0
  7 16  1  0  0  0  0
  7 18  1  0  0  0  0
  8 19  1  0  0  0  0
  8 22  1  0  0  0  0
  8 44  1  0  0  0  0
  9 20  1  0  0  0  0
  9 23  1  0  0  0  0
  9 45  1  0  0  0  0
 10 12  1  0  0  0  0
 10 13  1  0  0  0  0
 10 14  1  0  0  0  0
 10 32  1  0  0  0  0
 11 12  1  0  0  0  0
 11 15  1  0  0  0  0
 11 16  1  0  0  0  0
 11 33  1  0  0  0  0
 12 34  1  0  0  0  0
 12 35  1  0  0  0  0
 13 36  1  0  0  0  0
 13 37  1  0  0  0  0
 14 38  1  0  0  0  0
 14 39  1  0  0  0  0
 15 40  1  0  0  0  0
 15 41  1  0  0  0  0
 16 17  2  0  0  0  0
 17 21  1  0  0  0  0
 17 42  1  0  0  0  0
 18 20  1  0  0  0  0
 20 21  2  0  0  0  0
 21 43  1  0  0  0  0
 22 25  2  0  0  0  0
 22 26  1  0  0  0  0
 23 24  1  0  0  0  0
 24 27  1  0  0  0  0
 24 46  1  0  0  0  0
 24 47  1  0  0  0  0
 25 28  1  0  0  0  0
 25 48  1  0  0  0  0
 26 29  2  0  0  0  0
 26 49  1  0  0  0  0
 27 50  1  0  0  0  0
 27 51  1  0  0  0  0
 28 30  2  0  0  0  0
 28 52  1  0  0  0  0
 29 30  1  0  0  0  0
 29 53  1  0  0  0  0
 31 54  1  0  0  0  0
 31 55  1  0  0  0  0
 31 56  1  0  0  0  0
M  END
> <PUBCHEM_COMPOUND_CID>
11885926

> <PUBCHEM_CONFORMER_RMSD>
1

> <PUBCHEM_CONFORMER_DIVERSEORDER>
1
46
53
29
34
24
49
59
57
43
61
36
40
41
25
63
20
39
55
33
45
26
10
56
23
35
22
42
19
44
30
52
8
60
21
15
62
9
50
28
31
48
13
17
32
27
54
58
18
6
47
51
37
38
16
2
12
5
3
7
14
11
4

> <PUBCHEM_MMFF94_PARTIAL_CHARGES>
37
1 -0.19
11 0.14
13 0.3
14 0.3
15 0.3
16 -0.03
17 -0.15
18 0.62
19 0.69
2 -0.57
20 0.12
21 -0.15
22 0.12
23 0.57
24 0.06
25 -0.15
26 -0.15
27 0.28
28 -0.15
29 -0.15
3 -0.57
30 0.19
31 0.28
4 -0.57
42 0.15
43 0.15
44 0.37
45 0.37
48 0.15
49 0.15
5 -0.56
52 0.15
53 0.15
6 -0.66
7 -0.47
8 -0.55
9 -0.54

> <PUBCHEM_EFFECTIVE_ROTOR_COUNT>
9

> <PUBCHEM_PHARMACOPHORE_FEATURES>
10
1 2 acceptor
1 3 acceptor
1 4 acceptor
1 5 acceptor
1 8 donor
1 9 donor
6 22 25 26 28 29 30 rings
6 6 10 11 12 13 15 rings
6 7 10 11 12 14 16 rings
6 7 16 17 18 20 21 rings

> <PUBCHEM_HEAVY_ATOM_COUNT>
31

> <PUBCHEM_ATOM_DEF_STEREO_COUNT>
2

> <PUBCHEM_ATOM_UDEF_STEREO_COUNT>
0

> <PUBCHEM_BOND_DEF_STEREO_COUNT>
0

> <PUBCHEM_BOND_UDEF_STEREO_COUNT>
0

> <PUBCHEM_ISOTOPIC_ATOM_COUNT>
0

> <PUBCHEM_COMPONENT_COUNT>
1

> <PUBCHEM_CACTVS_TAUTO_COUNT>
4

> <PUBCHEM_CONFORMER_ID>
00B55D6600000001

> <PUBCHEM_MMFF94_ENERGY>
86.6024

> <PUBCHEM_FEATURE_SELFOVERLAP>
52.318

> <PUBCHEM_SHAPE_FINGERPRINT>
11200772 71 17755038715539460284
11524674 6 18342734148030610100
12156800 1 15648780027091867425
14020679 6 17702123541051497897
14028597 1 17774179958721424337
14251757 5 17831875907728439956
14659021 117 17547836912666918936
14725015 67 17980760755386032139
14747281 78 16882989311325749997
15322534 239 18412261774862032238
15927050 60 18412820292477659079
16719943 64 18337953510586687906
17627616 140 18409441466995976138
19611394 137 17697592548877516264
20764821 26 18411979157476683862
20771845 165 17825097117780297253
20775530 9 16753535513314780022
21344244 246 18337656552532320591
21796203 349 17331724186985935538
229767 44 18263925617391788394
23516275 137 18190202117435642256
3027735 51 18267298918981643023
3298306 158 18408881815307893468
373842 8 18192986033780983138
4112364 45 17268384655616741033
5080951 261 17682644619224645368
5265222 85 18263370359319314236
6287921 2 17769642118834450202

> <PUBCHEM_SHAPE_MULTIPOLES>
587.29
10.05
6.64
1.56
13.74
9.3
0.04
-6.98
-0.12
5.25
-0.47
-0.96
-0.2
0.31

> <PUBCHEM_SHAPE_SELFOVERLAP>
1261.645

> <PUBCHEM_SHAPE_VOLUME>
320.6

> <PUBCHEM_COORDINATE_TYPE>
2
5
10

$$$$
