45361609
  -OEChem-12032416343D

 68 71  0     1  0  0  0  0  0999 V2000
    0.7745    1.6570    1.7420 O   0  0  0  0  0  0  0  0  0  0  0  0
    5.3109    1.6826   -0.9818 O   0  0  0  0  0  0  0  0  0  0  0  0
   -4.7641   -2.2410    0.6168 O   0  0  0  0  0  0  0  0  0  0  0  0
    6.2006   -1.2470   -0.3788 O   0  0  0  0  0  0  0  0  0  0  0  0
   -4.0086   -0.1514   -0.0453 N   0  0  0  0  0  0  0  0  0  0  0  0
    5.2962    1.0265    1.2428 N   0  0  0  0  0  0  0  0  0  0  0  0
   -6.5254    0.7473    0.0256 N   0  0  0  0  0  0  0  0  0  0  0  0
    0.0349   -0.1766   -1.5240 C   0  0  1  0  0  0  0  0  0  0  0  0
   -0.1797    0.3092   -0.0519 C   0  0  2  0  0  0  0  0  0  0  0  0
   -1.6827    0.6925    0.1967 C   0  0  1  0  0  0  0  0  0  0  0  0
    0.8612    1.3971    0.3402 C   0  0  2  0  0  0  0  0  0  0  0  0
    1.4962   -0.6521   -1.7026 C   0  0  0  0  0  0  0  0  0  0  0  0
   -0.8898   -1.3856   -1.7959 C   0  0  0  0  0  0  0  0  0  0  0  0
    2.3168    0.9550    0.0619 C   0  0  1  0  0  0  0  0  0  0  0  0
   -2.6090   -0.5064   -0.1517 C   0  0  2  0  0  0  0  0  0  0  0  0
    2.5176    0.4235   -1.3572 C   0  0  0  0  0  0  0  0  0  0  0  0
   -2.3600   -1.0815   -1.5459 C   0  0  0  0  0  0  0  0  0  0  0  0
   -0.2578    0.9339   -2.5646 C   0  0  0  0  0  0  0  0  0  0  0  0
    3.3164    2.0865    0.3313 C   0  0  2  0  0  0  0  0  0  0  0  0
   -1.9710    1.1527    1.6357 C   0  0  0  0  0  0  0  0  0  0  0  0
    2.9996    3.2882   -0.5519 C   0  0  0  0  0  0  0  0  0  0  0  0
    4.7400    1.5880    0.1026 C   0  0  0  0  0  0  0  0  0  0  0  0
   -4.9770   -1.0645    0.3354 C   0  0  0  0  0  0  0  0  0  0  0  0
   -6.3704   -0.5505    0.3708 C   0  0  0  0  0  0  0  0  0  0  0  0
    6.6341    0.4827    1.2731 C   0  0  0  0  0  0  0  0  0  0  0  0
   -7.4132   -1.3852    0.7392 C   0  0  0  0  0  0  0  0  0  0  0  0
    6.6625   -0.9625    0.8672 C   0  0  0  0  0  0  0  0  0  0  0  0
   -8.6979   -0.8536    0.7539 C   0  0  0  0  0  0  0  0  0  0  0  0
   -7.7883    1.2289    0.0518 C   0  0  0  0  0  0  0  0  0  0  0  0
    7.0707   -2.1108    1.5052 C   0  0  0  0  0  0  0  0  0  0  0  0
   -8.8976    0.4775    0.4050 C   0  0  0  0  0  0  0  0  0  0  0  0
    6.8453   -3.1687    0.5925 C   0  0  0  0  0  0  0  0  0  0  0  0
    6.3151   -2.5915   -0.5380 C   0  0  0  0  0  0  0  0  0  0  0  0
    0.0159   -0.5499    0.6100 H   0  0  0  0  0  0  0  0  0  0  0  0
   -1.9451    1.5376   -0.4523 H   0  0  0  0  0  0  0  0  0  0  0  0
    0.5944    2.3194   -0.1789 H   0  0  0  0  0  0  0  0  0  0  0  0
    1.6634   -0.9881   -2.7341 H   0  0  0  0  0  0  0  0  0  0  0  0
    1.6805   -1.5261   -1.0632 H   0  0  0  0  0  0  0  0  0  0  0  0
   -0.7672   -1.7331   -2.8297 H   0  0  0  0  0  0  0  0  0  0  0  0
   -0.5962   -2.2264   -1.1531 H   0  0  0  0  0  0  0  0  0  0  0  0
    2.5561    0.1346    0.7549 H   0  0  0  0  0  0  0  0  0  0  0  0
   -2.4126   -1.3053    0.5769 H   0  0  0  0  0  0  0  0  0  0  0  0
    3.5059   -0.0386   -1.4603 H   0  0  0  0  0  0  0  0  0  0  0  0
    2.4644    1.2040   -2.1185 H   0  0  0  0  0  0  0  0  0  0  0  0
   -2.7380   -0.3932   -2.3118 H   0  0  0  0  0  0  0  0  0  0  0  0
   -2.9385   -2.0054   -1.6755 H   0  0  0  0  0  0  0  0  0  0  0  0
   -1.2988    1.2665   -2.5491 H   0  0  0  0  0  0  0  0  0  0  0  0
   -0.0537    0.5735   -3.5798 H   0  0  0  0  0  0  0  0  0  0  0  0
    0.3545    1.8262   -2.4081 H   0  0  0  0  0  0  0  0  0  0  0  0
    3.2362    2.4136    1.3761 H   0  0  0  0  0  0  0  0  0  0  0  0
   -1.5331    2.1356    1.8310 H   0  0  0  0  0  0  0  0  0  0  0  0
   -3.0437    1.2699    1.8207 H   0  0  0  0  0  0  0  0  0  0  0  0
   -1.5852    0.4354    2.3673 H   0  0  0  0  0  0  0  0  0  0  0  0
   -4.2903    0.7868   -0.3158 H   0  0  0  0  0  0  0  0  0  0  0  0
    0.9600    0.8279    2.2150 H   0  0  0  0  0  0  0  0  0  0  0  0
    2.0481    3.7623   -0.2996 H   0  0  0  0  0  0  0  0  0  0  0  0
    3.7647    4.0590   -0.3905 H   0  0  0  0  0  0  0  0  0  0  0  0
    3.0202    3.0820   -1.6241 H   0  0  0  0  0  0  0  0  0  0  0  0
    4.7405    0.9632    2.0908 H   0  0  0  0  0  0  0  0  0  0  0  0
    7.0091    0.5956    2.2954 H   0  0  0  0  0  0  0  0  0  0  0  0
    7.2790    1.0628    0.6043 H   0  0  0  0  0  0  0  0  0  0  0  0
   -7.2585   -2.4236    1.0116 H   0  0  0  0  0  0  0  0  0  0  0  0
   -9.5421   -1.4752    1.0368 H   0  0  0  0  0  0  0  0  0  0  0  0
   -7.8903    2.2721   -0.2285 H   0  0  0  0  0  0  0  0  0  0  0  0
    7.4799   -2.1792    2.5030 H   0  0  0  0  0  0  0  0  0  0  0  0
   -9.8902    0.9131    0.4094 H   0  0  0  0  0  0  0  0  0  0  0  0
    7.0440   -4.2204    0.7402 H   0  0  0  0  0  0  0  0  0  0  0  0
    5.9840   -2.9790   -1.4904 H   0  0  0  0  0  0  0  0  0  0  0  0
  1 11  1  0  0  0  0
  1 55  1  0  0  0  0
  2 22  2  0  0  0  0
  3 23  2  0  0  0  0
  4 27  1  0  0  0  0
  4 33  1  0  0  0  0
  5 15  1  0  0  0  0
  5 23  1  0  0  0  0
  5 54  1  0  0  0  0
  6 22  1  0  0  0  0
  6 25  1  0  0  0  0
  6 59  1  0  0  0  0
  7 24  1  0  0  0  0
  7 29  2  0  0  0  0
  8  9  1  0  0  0  0
  8 12  1  0  0  0  0
  8 13  1  0  0  0  0
  8 18  1  0  0  0  0
  9 10  1  0  0  0  0
  9 11  1  0  0  0  0
  9 34  1  0  0  0  0
 10 15  1  0  0  0  0
 10 20  1  0  0  0  0
 10 35  1  0  0  0  0
 11 14  1  0  0  0  0
 11 36  1  0  0  0  0
 12 16  1  0  0  0  0
 12 37  1  0  0  0  0
 12 38  1  0  0  0  0
 13 17  1  0  0  0  0
 13 39  1  0  0  0  0
 13 40  1  0  0  0  0
 14 16  1  0  0  0  0
 14 19  1  0  0  0  0
 14 41  1  0  0  0  0
 15 17  1  0  0  0  0
 15 42  1  0  0  0  0
 16 43  1  0  0  0  0
 16 44  1  0  0  0  0
 17 45  1  0  0  0  0
 17 46  1  0  0  0  0
 18 47  1  0  0  0  0
 18 48  1  0  0  0  0
 18 49  1  0  0  0  0
 19 21  1  0  0  0  0
 19 22  1  0  0  0  0
 19 50  1  0  0  0  0
 20 51  1  0  0  0  0
 20 52  1  0  0  0  0
 20 53  1  0  0  0  0
 21 56  1  0  0  0  0
 21 57  1  0  0  0  0
 21 58  1  0  0  0  0
 23 24  1  0  0  0  0
 24 26  2  0  0  0  0
 25 27  1  0  0  0  0
 25 60  1  0  0  0  0
 25 61  1  0  0  0  0
 26 28  1  0  0  0  0
 26 62  1  0  0  0  0
 27 30  2  0  0  0  0
 28 31  2  0  0  0  0
 28 63  1  0  0  0  0
 29 31  1  0  0  0  0
 29 64  1  0  0  0  0
 30 32  1  0  0  0  0
 30 65  1  0  0  0  0
 31 66  1  0  0  0  0
 32 33  2  0  0  0  0
 32 67  1  0  0  0  0
 33 68  1  0  0  0  0
M  END
> <PUBCHEM_COMPOUND_CID>
45361609

> <PUBCHEM_CONFORMER_RMSD>
1

> <PUBCHEM_CONFORMER_DIVERSEORDER>
1
141
147
125
234
38
220
116
136
126
135
60
107
84
174
205
51
235
114
217
161
8
103
111
109
208
171
54
91
124
207
77
133
157
160
57
233
62
206
172
70
194
182
244
173
239
203
225
131
115
210
123
184
83
145
242
42
191
223
181
192
101
175
241
198
82
120
33
25
119
212
36
240
149
229
99
22
90
12
53
134
46
23
52
158
197
74
68
237
108
231
110
59
37
185
95
85
227
238
71
3
143
142
166
102
129
195
169
167
228
45
222
199
121
47
151
226
186
87
40
163
128
104
177
196
79
43
66
67
201
31
180
155
179
89
100
178
130
218
176
202
137
156
224
76
29
232
78
75
243
148
96
144
92
34
4
113
152
138
162
106
41
63
140
214
165
32
204
86
81
183
13
20
146
187
39
56
55
221
7
98
73
61
190
15
21
64
153
213
94
50
189
88
112
193
245
80
49
150
230
2
122
9
188
164
14
6
236
132
26
72
97
105
215
18
10
219
24
17
211
30
19
11
58
28
159
154
44
118
127
69
139
170
65
216
27
5
16
168
117
35
48
93
209
200

> <PUBCHEM_MMFF94_PARTIAL_CHARGES>
32
1 -0.68
11 0.28
15 0.3
19 0.06
2 -0.57
22 0.57
23 0.54
24 0.4
25 0.48
26 -0.15
27 -0.04
28 -0.15
29 0.16
3 -0.57
30 -0.15
31 -0.15
32 -0.15
33 -0.01
4 -0.28
5 -0.73
54 0.37
55 0.4
59 0.37
6 -0.73
62 0.15
63 0.15
64 0.15
65 0.15
66 0.15
67 0.15
68 0.15
7 -0.62

> <PUBCHEM_EFFECTIVE_ROTOR_COUNT>
9.6

> <PUBCHEM_PHARMACOPHORE_FEATURES>
13
1 1 acceptor
1 1 donor
1 2 acceptor
1 21 hydrophobe
1 3 acceptor
1 4 acceptor
1 5 donor
1 6 donor
1 7 acceptor
5 4 27 30 32 33 rings
6 7 24 26 28 29 31 rings
6 8 9 10 13 15 17 rings
6 8 9 11 12 14 16 rings

> <PUBCHEM_HEAVY_ATOM_COUNT>
33

> <PUBCHEM_ATOM_DEF_STEREO_COUNT>
6

> <PUBCHEM_ATOM_UDEF_STEREO_COUNT>
1

> <PUBCHEM_BOND_DEF_STEREO_COUNT>
0

> <PUBCHEM_BOND_UDEF_STEREO_COUNT>
0

> <PUBCHEM_ISOTOPIC_ATOM_COUNT>
0

> <PUBCHEM_COMPONENT_COUNT>
1

> <PUBCHEM_CACTVS_TAUTO_COUNT>
4

> <PUBCHEM_CONFORMER_ID>
02B429C900000001

> <PUBCHEM_MMFF94_ENERGY>
82.1586

> <PUBCHEM_FEATURE_SELFOVERLAP>
65.988

> <PUBCHEM_SHAPE_FINGERPRINT>
10 15 17704071828384402016
10076449 9 14779262012120114637
10319688 67 16200425870960637415
10533779 47 18335995190273379867
11181472 205 18260557722649841044
11331351 85 17894630366095480525
11408170 132 11242237576835255159
11456790 92 17704353260216073113
11638347 137 18260552242993634051
117089 54 17981894043497220726
11719270 70 17989492921888004271
12373685 5 17775279478860656679
12422481 6 17632014127552261076
12664476 115 13326858834203102984
12838862 33 16988555802146363177
13008946 113 17842830294668783336
13533116 47 18408602595964473064
13782708 43 17968093148778289362
13811026 1 18272652308016406773
13914758 101 18334577919489445705
14347424 109 18413386566567111680
14444916 359 17022903441692016851
15131766 46 17904766931069617380
15301273 46 17821726135240030095
1577012 14 17988358286033278492
15840311 113 17895194463385534973
16728300 4 18199180686217217678
19301679 30 18337950087735246832
19841028 212 18335980888201160634
20105231 36 14779267506069128145
20554085 129 14979954765895243838
21057603 238 17825385176482462622
21150785 3 9367349236674994019
21344244 181 17312822680361794202
21591340 7 17632569466723706103
21781055 127 16298674859524012189
21792934 111 17632580405398545681
21814621 53 18114185297795394505
22224240 67 14764348232538432509
23576562 1 11963973528046644771
24771293 8 13973964311680662107
25269216 80 16950279560695272150
34797466 226 16153709856154720212
4093350 32 17458918153546481020
4258327 124 9222938301071621755
445580 167 10015579489658601427
5776283 40 9078819789292550013
58260988 647 17968375655095407458
6081469 158 18186800271319544925
9831232 110 17967810523035355246

> <PUBCHEM_SHAPE_MULTIPOLES>
640.7
25.27
2.7
1.68
26.55
0.28
-0.64
11.53
10.77
-5.29
0.25
-0.94
-0.01
-0.45

> <PUBCHEM_SHAPE_SELFOVERLAP>
1357.765

> <PUBCHEM_SHAPE_VOLUME>
353.9

> <PUBCHEM_COORDINATE_TYPE>
2
5
10

$$$$
