11911721
  -OEChem-12032416123D

 52 56  0     1  0  0  0  0  0999 V2000
    0.4330   -2.8670    1.2353 O   0  0  0  0  0  0  0  0  0  0  0  0
   -0.2765   -2.0063   -1.7053 O   0  0  0  0  0  0  0  0  0  0  0  0
   -4.5169   -2.3418    0.4347 O   0  0  0  0  0  0  0  0  0  0  0  0
   -7.0207    3.4092   -0.1161 O   0  0  0  0  0  0  0  0  0  0  0  0
    2.7977   -0.9758   -0.0241 N   0  0  0  0  0  0  0  0  0  0  0  0
   -2.5776   -1.1016    0.1533 N   0  0  0  0  0  0  0  0  0  0  0  0
    2.6219   -0.3382    1.1406 N   0  0  0  0  0  0  0  0  0  0  0  0
    3.6571    0.4798    1.2960 N   0  0  0  0  0  0  0  0  0  0  0  0
    0.4223   -1.3698   -0.6199 C   0  0  1  0  0  0  0  0  0  0  0  0
   -0.2860   -1.7640    0.6614 C   0  0  1  0  0  0  0  0  0  0  0  0
    1.8143   -1.9581   -0.4875 C   0  0  2  0  0  0  0  0  0  0  0  0
   -1.6574   -2.2116    0.2079 C   0  0  2  0  0  0  0  0  0  0  0  0
    1.5975   -3.1444    0.4456 C   0  0  0  0  0  0  0  0  0  0  0  0
   -1.3764   -2.7612   -1.1782 C   0  0  0  0  0  0  0  0  0  0  0  0
    3.9394   -0.5929   -0.6489 C   0  0  0  0  0  0  0  0  0  0  0  0
   -3.9504   -1.2640    0.2733 C   0  0  0  0  0  0  0  0  0  0  0  0
    4.4734    0.3358    0.2087 C   0  0  0  0  0  0  0  0  0  0  0  0
   -4.7634   -0.0250    0.1693 C   0  0  0  0  0  0  0  0  0  0  0  0
    5.6932    1.0498    0.0078 C   0  0  0  0  0  0  0  0  0  0  0  0
   -6.0647   -0.1186   -0.2790 C   0  0  0  0  0  0  0  0  0  0  0  0
   -4.1921    1.1794    0.5247 C   0  0  0  0  0  0  0  0  0  0  0  0
    6.4588    0.8301   -1.1426 C   0  0  0  0  0  0  0  0  0  0  0  0
    6.1343    1.9759    0.9594 C   0  0  0  0  0  0  0  0  0  0  0  0
   -6.8288    1.0444   -0.3763 C   0  0  0  0  0  0  0  0  0  0  0  0
   -4.9564    2.3422    0.4275 C   0  0  0  0  0  0  0  0  0  0  0  0
   -6.2747    2.2747   -0.0230 C   0  0  0  0  0  0  0  0  0  0  0  0
    7.6506    1.5278   -1.3390 C   0  0  0  0  0  0  0  0  0  0  0  0
    7.3260    2.6737    0.7630 C   0  0  0  0  0  0  0  0  0  0  0  0
    8.0841    2.4495   -0.3862 C   0  0  0  0  0  0  0  0  0  0  0  0
   -8.3618    3.2680   -0.5823 C   0  0  0  0  0  0  0  0  0  0  0  0
    0.3993   -0.2917   -0.8093 H   0  0  0  0  0  0  0  0  0  0  0  0
   -0.3030   -0.9618    1.4063 H   0  0  0  0  0  0  0  0  0  0  0  0
    2.1957   -2.3213   -1.4500 H   0  0  0  0  0  0  0  0  0  0  0  0
   -2.0841   -2.9918    0.8475 H   0  0  0  0  0  0  0  0  0  0  0  0
    1.3887   -4.0542   -0.1278 H   0  0  0  0  0  0  0  0  0  0  0  0
    2.4454   -3.3433    1.1081 H   0  0  0  0  0  0  0  0  0  0  0  0
   -1.0583   -3.8085   -1.1279 H   0  0  0  0  0  0  0  0  0  0  0  0
   -2.2254   -2.6916   -1.8650 H   0  0  0  0  0  0  0  0  0  0  0  0
   -2.1900   -0.1968   -0.0932 H   0  0  0  0  0  0  0  0  0  0  0  0
    4.2425   -1.0041   -1.6017 H   0  0  0  0  0  0  0  0  0  0  0  0
   -6.5085   -1.0683   -0.5626 H   0  0  0  0  0  0  0  0  0  0  0  0
   -3.1825    1.2698    0.9117 H   0  0  0  0  0  0  0  0  0  0  0  0
    6.1632    0.1233   -1.9126 H   0  0  0  0  0  0  0  0  0  0  0  0
    5.5640    2.1709    1.8646 H   0  0  0  0  0  0  0  0  0  0  0  0
   -7.8450    0.9205   -0.7347 H   0  0  0  0  0  0  0  0  0  0  0  0
   -4.5222    3.2971    0.7115 H   0  0  0  0  0  0  0  0  0  0  0  0
    8.2414    1.3539   -2.2336 H   0  0  0  0  0  0  0  0  0  0  0  0
    7.6641    3.3915    1.5047 H   0  0  0  0  0  0  0  0  0  0  0  0
    9.0120    2.9928   -0.5391 H   0  0  0  0  0  0  0  0  0  0  0  0
   -8.3929    2.8934   -1.6110 H   0  0  0  0  0  0  0  0  0  0  0  0
   -8.8074    4.2682   -0.5928 H   0  0  0  0  0  0  0  0  0  0  0  0
   -8.9630    2.6576    0.1001 H   0  0  0  0  0  0  0  0  0  0  0  0
  1 10  1  0  0  0  0
  1 13  1  0  0  0  0
  2  9  1  0  0  0  0
  2 14  1  0  0  0  0
  3 16  2  0  0  0  0
  4 26  1  0  0  0  0
  4 30  1  0  0  0  0
  5  7  1  0  0  0  0
  5 11  1  0  0  0  0
  5 15  1  0  0  0  0
  6 12  1  0  0  0  0
  6 16  1  0  0  0  0
  6 39  1  0  0  0  0
  7  8  2  0  0  0  0
  8 17  1  0  0  0  0
  9 10  1  0  0  0  0
  9 11  1  0  0  0  0
  9 31  1  0  0  0  0
 10 12  1  0  0  0  0
 10 32  1  0  0  0  0
 11 13  1  0  0  0  0
 11 33  1  0  0  0  0
 12 14  1  0  0  0  0
 12 34  1  0  0  0  0
 13 35  1  0  0  0  0
 13 36  1  0  0  0  0
 14 37  1  0  0  0  0
 14 38  1  0  0  0  0
 15 17  2  0  0  0  0
 15 40  1  0  0  0  0
 16 18  1  0  0  0  0
 17 19  1  0  0  0  0
 18 20  2  0  0  0  0
 18 21  1  0  0  0  0
 19 22  2  0  0  0  0
 19 23  1  0  0  0  0
 20 24  1  0  0  0  0
 20 41  1  0  0  0  0
 21 25  2  0  0  0  0
 21 42  1  0  0  0  0
 22 27  1  0  0  0  0
 22 43  1  0  0  0  0
 23 28  2  0  0  0  0
 23 44  1  0  0  0  0
 24 26  2  0  0  0  0
 24 45  1  0  0  0  0
 25 26  1  0  0  0  0
 25 46  1  0  0  0  0
 27 29  2  0  0  0  0
 27 47  1  0  0  0  0
 28 29  1  0  0  0  0
 28 48  1  0  0  0  0
 29 49  1  0  0  0  0
 30 50  1  0  0  0  0
 30 51  1  0  0  0  0
 30 52  1  0  0  0  0
M  END
> <PUBCHEM_COMPOUND_CID>
11911721

> <PUBCHEM_CONFORMER_RMSD>
1

> <PUBCHEM_CONFORMER_DIVERSEORDER>
1
15
22
6
11
20
7
18
8
17
12
16
14
4
10
3
5
2
21
9
19
13

> <PUBCHEM_MMFF94_PARTIAL_CHARGES>
41
1 -0.56
10 0.28
11 0.26
12 0.3
13 0.28
14 0.28
15 -0.3
16 0.54
17 0.17
18 0.09
19 0.05
2 -0.56
20 -0.15
21 -0.15
22 -0.15
23 -0.15
24 -0.15
25 -0.15
26 0.08
27 -0.15
28 -0.15
29 -0.15
3 -0.57
30 0.28
39 0.37
4 -0.36
40 0.15
41 0.15
42 0.15
43 0.15
44 0.15
45 0.15
46 0.15
47 0.15
48 0.15
49 0.15
5 0.31
6 -0.73
7 -0.42
8 -0.23
9 0.28

> <PUBCHEM_EFFECTIVE_ROTOR_COUNT>
7.2

> <PUBCHEM_PHARMACOPHORE_FEATURES>
10
1 1 acceptor
1 2 acceptor
1 3 acceptor
1 4 acceptor
1 6 donor
5 1 9 10 11 13 rings
5 2 9 10 12 14 rings
5 5 7 8 15 17 rings
6 18 20 21 24 25 26 rings
6 19 22 23 27 28 29 rings

> <PUBCHEM_HEAVY_ATOM_COUNT>
30

> <PUBCHEM_ATOM_DEF_STEREO_COUNT>
4

> <PUBCHEM_ATOM_UDEF_STEREO_COUNT>
0

> <PUBCHEM_BOND_DEF_STEREO_COUNT>
0

> <PUBCHEM_BOND_UDEF_STEREO_COUNT>
0

> <PUBCHEM_ISOTOPIC_ATOM_COUNT>
0

> <PUBCHEM_COMPONENT_COUNT>
1

> <PUBCHEM_CACTVS_TAUTO_COUNT>
2

> <PUBCHEM_CONFORMER_ID>
00B5C22900000001

> <PUBCHEM_MMFF94_ENERGY>
86.4442

> <PUBCHEM_FEATURE_SELFOVERLAP>
51.441

> <PUBCHEM_SHAPE_FINGERPRINT>
10 15 18259989284170567051
10006869 2 18338509725698800318
10055352 69 18273496785151090417
10190206 1 17775016682437948024
10209105 3 9871459912807456141
10280341 67 18340753901819876960
10533779 1 18337380574465908621
10740516 88 8502378879316917696
10864689 126 18272931609655887184
11135609 99 8502655896707535496
11181472 205 18260830450138886540
11387372 6 10519402127719474957
11409948 8 18262532446951767865
11421887 103 18335127662393396589
11421887 45 18340190968862416144
11991303 11 16630239307196042671
12166972 35 11743838079849993890
12522641 68 18272088322407065151
12895837 130 18412262865783355231
12988421 55 17531516659354174267
13248334 5 18121216476618027770
13782708 43 9655582894261244046
13911987 19 17346599660608859143
14178184 131 11386372568715169241
14359421 15 12319456563366310781
14617042 71 18269278968348016089
14739800 52 18337381660986432019
14904525 67 18121224444615558428
14919807 6 18341066151101628284
14931854 50 17775287148870140368
14951699 99 18260830375857768023
15152005 77 10881399846716219097
15183329 4 16486986106778258734
15198563 99 17841698910489506975
15347591 1 18410575072085301491
15350500 55 18261106349287789069
15803439 3 16773794805246316047
15961568 22 18409731738218631725
16994733 274 18260264165929561720
1768 4 18341060644985495289
19053607 189 18270106916933768233
19303781 99 9367054520167001993
19438510 23 18187365432431979474
1979834 28 14057287437300151523
2026 5 9799696987110507181
20691028 202 18263644125320124460
20982279 24 12678592315134094357
21033648 29 17967827015725564123
21298829 104 18408325458646833773
21344244 181 11959143334805721493
21424621 283 18335422400380882850
21585482 111 18334293119886853397
21756936 100 18337950220288817802
21781055 127 17894911876666383048
22122407 14 17896893238413949144
23522609 53 17024605597624110030
23569914 152 17556882238916137398
23569943 247 9006760009650012485
24771293 8 18260829298296055661
255183 313 14056999459806433792
270888 7 18410011026676855459
2748736 6 18410004438139111529
2838139 119 18272646883182665494
3525247 18 17827346688427478077
3862424 121 13253929400127223765
3918712 181 18411975845303226417
392239 28 15140961807085355274
393628 194 18334295417794512349
406291 66 9943804482498742861
4073 2 18259708899899856515
437795 171 17900536770788412733
44249763 50 17631153342242749242
44802255 64 17846224422385562494
5104073 3 13913417479467827814
54039377 194 9583516533773071769
54583773 228 18411692164306047637
563151 97 18342731953345397271
5718773 13 9439400229105776709
5937810 71 17988652878452593233
59682541 52 16845298207422928334
6327066 14 18413669102131303405
636775 72 18195525025025091840
636775 8 7997704125390393144
6712543 237 15140683570567020137
9689198 14 18411143540769854956
9980921 7 18040148523204336429

> <PUBCHEM_SHAPE_MULTIPOLES>
573.98
25.15
4.22
1.12
3.86
0.35
-0.12
34.58
-3.31
-3.62
-0.01
1.17
-0.17
0.6

> <PUBCHEM_SHAPE_SELFOVERLAP>
1264.517

> <PUBCHEM_SHAPE_VOLUME>
310

> <PUBCHEM_COORDINATE_TYPE>
2
5
10

$$$$
