26763051
  -OEChem-12032416183D

 60 62  0     1  0  0  0  0  0999 V2000
    0.1106   -4.5163    0.8090 O   0  0  0  0  0  0  0  0  0  0  0  0
    4.2125   -0.5487   -1.6365 O   0  0  0  0  0  0  0  0  0  0  0  0
   -4.1261    2.5430    0.2157 O   0  0  0  0  0  0  0  0  0  0  0  0
   -0.6892   -1.2360   -0.2428 N   0  0  2  0  0  0  0  0  0  0  0  0
   -1.8491   -3.3456    1.0538 N   0  0  0  0  0  0  0  0  0  0  0  0
    2.2911   -0.1427   -0.4163 N   0  0  0  0  0  0  0  0  0  0  0  0
   -6.2536    1.6305    0.0734 N   0  0  0  0  0  0  0  0  0  0  0  0
    4.2684    0.7861    0.2937 N   0  0  0  0  0  0  0  0  0  0  0  0
   -0.2070   -2.5790   -0.5770 C   0  0  1  0  0  0  0  0  0  0  0  0
   -2.1530   -1.2131   -0.2422 C   0  0  1  0  0  0  0  0  0  0  0  0
    1.3981   -0.9117   -1.2472 C   0  0  1  0  0  0  0  0  0  0  0  0
    1.2879   -2.3583   -0.7509 C   0  0  0  0  0  0  0  0  0  0  0  0
   -0.0306   -0.3604   -1.2117 C   0  0  0  0  0  0  0  0  0  0  0  0
   -2.6101   -2.1130    0.9145 C   0  0  0  0  0  0  0  0  0  0  0  0
   -2.7308    0.1918   -0.0572 C   0  0  0  0  0  0  0  0  0  0  0  0
   -0.5945   -3.5528    0.5118 C   0  0  0  0  0  0  0  0  0  0  0  0
   -4.2555    0.1676   -0.0808 C   0  0  0  0  0  0  0  0  0  0  0  0
    3.6607   -0.0148   -0.6771 C   0  0  0  0  0  0  0  0  0  0  0  0
   -4.8565    1.5575    0.0833 C   0  0  0  0  0  0  0  0  0  0  0  0
   -7.1583    0.4936   -0.0802 C   0  0  0  0  0  0  0  0  0  0  0  0
   -6.9060    2.9239    0.2354 C   0  0  0  0  0  0  0  0  0  0  0  0
    5.6308    1.1546    0.3866 C   0  0  0  0  0  0  0  0  0  0  0  0
   -7.5206   -0.1117    1.2602 C   0  0  0  0  0  0  0  0  0  0  0  0
   -7.1346    3.6008   -1.1002 C   0  0  0  0  0  0  0  0  0  0  0  0
    6.0636    1.9676    1.4342 C   0  0  0  0  0  0  0  0  0  0  0  0
    6.5417    0.7052   -0.5693 C   0  0  0  0  0  0  0  0  0  0  0  0
    7.4071    2.3313    1.5258 C   0  0  0  0  0  0  0  0  0  0  0  0
    7.8852    1.0687   -0.4778 C   0  0  0  0  0  0  0  0  0  0  0  0
    8.3179    1.8818    0.5698 C   0  0  0  0  0  0  0  0  0  0  0  0
   -0.6375   -2.9398   -1.5222 H   0  0  0  0  0  0  0  0  0  0  0  0
   -2.5285   -1.6251   -1.1897 H   0  0  0  0  0  0  0  0  0  0  0  0
    1.7782   -0.8930   -2.2753 H   0  0  0  0  0  0  0  0  0  0  0  0
    1.8358   -2.5106    0.1875 H   0  0  0  0  0  0  0  0  0  0  0  0
    1.7011   -3.0570   -1.4871 H   0  0  0  0  0  0  0  0  0  0  0  0
   -0.0620    0.6925   -0.9130 H   0  0  0  0  0  0  0  0  0  0  0  0
   -0.4900   -0.4597   -2.2036 H   0  0  0  0  0  0  0  0  0  0  0  0
   -2.5196   -1.5972    1.8781 H   0  0  0  0  0  0  0  0  0  0  0  0
   -3.6540   -2.4184    0.7911 H   0  0  0  0  0  0  0  0  0  0  0  0
   -2.3757    0.6329    0.8836 H   0  0  0  0  0  0  0  0  0  0  0  0
   -2.3854    0.8531   -0.8614 H   0  0  0  0  0  0  0  0  0  0  0  0
   -2.1800   -4.0209    1.7361 H   0  0  0  0  0  0  0  0  0  0  0  0
    1.9234    0.2656    0.4377 H   0  0  0  0  0  0  0  0  0  0  0  0
   -4.6419   -0.4523    0.7311 H   0  0  0  0  0  0  0  0  0  0  0  0
   -4.5879   -0.2455   -1.0391 H   0  0  0  0  0  0  0  0  0  0  0  0
    3.6652    1.1532    1.0255 H   0  0  0  0  0  0  0  0  0  0  0  0
   -8.0620    0.8211   -0.6065 H   0  0  0  0  0  0  0  0  0  0  0  0
   -6.6952   -0.2725   -0.7069 H   0  0  0  0  0  0  0  0  0  0  0  0
   -7.8530    2.7934    0.7703 H   0  0  0  0  0  0  0  0  0  0  0  0
   -6.2736    3.5688    0.8561 H   0  0  0  0  0  0  0  0  0  0  0  0
   -6.6365   -0.4504    1.8079 H   0  0  0  0  0  0  0  0  0  0  0  0
   -8.0401    0.6143    1.8940 H   0  0  0  0  0  0  0  0  0  0  0  0
   -8.1833   -0.9716    1.1209 H   0  0  0  0  0  0  0  0  0  0  0  0
   -6.1895    3.7600   -1.6298 H   0  0  0  0  0  0  0  0  0  0  0  0
   -7.7797    2.9973   -1.7469 H   0  0  0  0  0  0  0  0  0  0  0  0
   -7.6127    4.5747   -0.9568 H   0  0  0  0  0  0  0  0  0  0  0  0
    5.3641    2.3247    2.1858 H   0  0  0  0  0  0  0  0  0  0  0  0
    6.2836    0.0744   -1.4080 H   0  0  0  0  0  0  0  0  0  0  0  0
    7.7442    2.9644    2.3414 H   0  0  0  0  0  0  0  0  0  0  0  0
    8.5956    0.7194   -1.2216 H   0  0  0  0  0  0  0  0  0  0  0  0
    9.3640    2.1649    0.6410 H   0  0  0  0  0  0  0  0  0  0  0  0
  1 16  2  0  0  0  0
  2 18  2  0  0  0  0
  3 19  2  0  0  0  0
  4  9  1  0  0  0  0
  4 10  1  0  0  0  0
  4 13  1  0  0  0  0
  5 14  1  0  0  0  0
  5 16  1  0  0  0  0
  5 41  1  0  0  0  0
  6 11  1  0  0  0  0
  6 18  1  0  0  0  0
  6 42  1  0  0  0  0
  7 19  1  0  0  0  0
  7 20  1  0  0  0  0
  7 21  1  0  0  0  0
  8 18  1  0  0  0  0
  8 22  1  0  0  0  0
  8 45  1  0  0  0  0
  9 12  1  0  0  0  0
  9 16  1  0  0  0  0
  9 30  1  0  0  0  0
 10 14  1  0  0  0  0
 10 15  1  0  0  0  0
 10 31  1  0  0  0  0
 11 12  1  0  0  0  0
 11 13  1  0  0  0  0
 11 32  1  0  0  0  0
 12 33  1  0  0  0  0
 12 34  1  0  0  0  0
 13 35  1  0  0  0  0
 13 36  1  0  0  0  0
 14 37  1  0  0  0  0
 14 38  1  0  0  0  0
 15 17  1  0  0  0  0
 15 39  1  0  0  0  0
 15 40  1  0  0  0  0
 17 19  1  0  0  0  0
 17 43  1  0  0  0  0
 17 44  1  0  0  0  0
 20 23  1  0  0  0  0
 20 46  1  0  0  0  0
 20 47  1  0  0  0  0
 21 24  1  0  0  0  0
 21 48  1  0  0  0  0
 21 49  1  0  0  0  0
 22 25  2  0  0  0  0
 22 26  1  0  0  0  0
 23 50  1  0  0  0  0
 23 51  1  0  0  0  0
 23 52  1  0  0  0  0
 24 53  1  0  0  0  0
 24 54  1  0  0  0  0
 24 55  1  0  0  0  0
 25 27  1  0  0  0  0
 25 56  1  0  0  0  0
 26 28  2  0  0  0  0
 26 57  1  0  0  0  0
 27 29  2  0  0  0  0
 27 58  1  0  0  0  0
 28 29  1  0  0  0  0
 28 59  1  0  0  0  0
 29 60  1  0  0  0  0
M  END
> <PUBCHEM_COMPOUND_CID>
26763051

> <PUBCHEM_CONFORMER_RMSD>
1

> <PUBCHEM_CONFORMER_DIVERSEORDER>
1
34
86
167
134
46
127
62
105
74
72
130
49
107
64
85
82
23
93
3
91
116
170
98
103
51
129
158
76
11
147
57
119
128
78
142
118
149
77
176
123
143
97
4
87
7
83
161
45
90
39
153
102
35
154
56
168
104
152
109
63
2
24
126
145
55
133
53
71
166
27
169
141
159
25
164
22
37
151
120
163
50
54
117
13
162
80
69
89
59
172
114
115
32
88
96
146
121
60
171
94
70
17
43
131
101
99
113
110
174
38
112
75
5
66
48
31
9
108
125
155
20
95
58
135
6
36
12
124
160
8
30
139
67
136
148
33
140
173
132
15
100
21
175
40
14
122
68
44
165
47
137
157
41
29
144
42
52
65
61
28
73
138
26
81
156
18
84
10
111
19
106
150
79
92
16

> <PUBCHEM_MMFF94_PARTIAL_CHARGES>
33
1 -0.57
10 0.27
11 0.3
13 0.27
14 0.3
16 0.57
17 0.06
18 0.69
19 0.57
2 -0.57
20 0.3
21 0.3
22 0.12
25 -0.15
26 -0.15
27 -0.15
28 -0.15
29 -0.15
3 -0.57
4 -0.81
41 0.37
42 0.37
45 0.37
5 -0.73
56 0.15
57 0.15
58 0.15
59 0.15
6 -0.73
60 0.15
7 -0.66
8 -0.55
9 0.33

> <PUBCHEM_EFFECTIVE_ROTOR_COUNT>
11.2

> <PUBCHEM_PHARMACOPHORE_FEATURES>
10
1 1 acceptor
1 2 acceptor
1 3 acceptor
1 4 cation
1 5 donor
1 6 donor
1 8 donor
5 4 9 11 12 13 rings
6 22 25 26 27 28 29 rings
6 4 5 9 10 14 16 rings

> <PUBCHEM_HEAVY_ATOM_COUNT>
29

> <PUBCHEM_ATOM_DEF_STEREO_COUNT>
3

> <PUBCHEM_ATOM_UDEF_STEREO_COUNT>
0

> <PUBCHEM_BOND_DEF_STEREO_COUNT>
0

> <PUBCHEM_BOND_UDEF_STEREO_COUNT>
0

> <PUBCHEM_ISOTOPIC_ATOM_COUNT>
0

> <PUBCHEM_COMPONENT_COUNT>
1

> <PUBCHEM_CACTVS_TAUTO_COUNT>
9

> <PUBCHEM_CONFORMER_ID>
01985F2B00000001

> <PUBCHEM_MMFF94_ENERGY>
65.7155

> <PUBCHEM_FEATURE_SELFOVERLAP>
50.889

> <PUBCHEM_SHAPE_FINGERPRINT>
10 15 18408324393156814529
10190206 1 18271230734282736375
10319688 67 18333730247236867035
11135609 127 17975966567731728829
11136131 41 18042401327333707779
11408170 108 13190335773711935889
12107183 9 18114180882474191668
12925494 130 18411416233314295354
12988421 55 18041548187603552791
13540713 4 18268450012877299454
13540713 5 17243874646898991398
13673619 4 11314024682274427318
14190465 44 18263930002274199804
15152005 77 11746939789521211113
15289351 153 18200592484943245296
18643901 69 9007067871928810387
19053607 189 17823713966506648373
19438510 23 18411419496740191906
20501277 279 18341342150074014681
20554085 129 18201706337129420890
20567600 254 18411135818909410173
21033648 29 18335993025076793782
21307412 95 9295286106894064817
21365058 113 11311758589084017619
21424621 283 18411136922219977062
21585481 104 15122969308403405289
22224240 67 18409729560569531133
23522609 53 17241622791830752676
24771293 8 18409449172599939397
2851757 15 18413390925526224878
3627633 1 17764583618001954462
3918712 181 18341045212298166537
393628 179 18201707462311255720
4144715 1 18120096350047843000
5470011 282 12103845683528839200
6058803 2 17027424822235923454
6327066 14 18342454837485191117
6695519 79 18194431951700967091
9896288 288 18042409204103840578
9981440 41 18334583447075835443
999808 66 11674873403119900089

> <PUBCHEM_SHAPE_MULTIPOLES>
554.29
24.99
4.43
1.23
12.93
2.66
-0.04
-31.95
-4.65
-4.57
-0.97
0.79
-0.01
3.16

> <PUBCHEM_SHAPE_SELFOVERLAP>
1147.508

> <PUBCHEM_SHAPE_VOLUME>
314.9

> <PUBCHEM_COORDINATE_TYPE>
2
5
10

$$$$
