40777169
  -OEChem-12032416183D

 56 59  0     1  0  0  0  0  0999 V2000
   -4.7553    3.1144   -0.1637 S   0  0  0  0  0  0  0  0  0  0  0  0
    6.7696    1.6070    1.9372 F   0  0  0  0  0  0  0  0  0  0  0  0
    7.4893   -0.3302    1.2613 F   0  0  0  0  0  0  0  0  0  0  0  0
    7.5212    1.3667   -0.0890 F   0  0  0  0  0  0  0  0  0  0  0  0
   -5.9511    3.6674   -0.7686 O   0  0  0  0  0  0  0  0  0  0  0  0
   -3.4943    3.1120   -0.8803 O   0  0  0  0  0  0  0  0  0  0  0  0
   -3.4147   -1.4176    2.0379 N   0  0  2  0  0  0  0  0  0  0  0  0
   -5.1026    1.5220    0.4130 N   0  0  0  0  0  0  0  0  0  0  0  0
   -1.0267   -1.0979   -1.8373 N   0  0  0  0  0  0  0  0  0  0  0  0
    1.1833   -0.1907   -2.1540 N   0  0  0  0  0  0  0  0  0  0  0  0
   -3.1195   -2.3865   -0.3615 C   0  0  2  0  0  0  0  0  0  0  0  0
   -1.7353   -2.0943    0.2811 C   0  0  2  0  0  0  0  0  0  0  0  0
   -4.2738   -0.6730    1.0798 C   0  0  2  0  0  0  0  0  0  0  0  0
   -3.9601   -1.0923   -0.3725 C   0  0  0  0  0  0  0  0  0  0  0  0
   -3.8394   -3.3871    0.5678 C   0  0  0  0  0  0  0  0  0  0  0  0
   -1.9941   -1.3376    1.6152 C   0  0  0  0  0  0  0  0  0  0  0  0
   -3.8273   -2.8413    2.0064 C   0  0  0  0  0  0  0  0  0  0  0  0
   -4.1796    0.8425    1.2688 C   0  0  0  0  0  0  0  0  0  0  0  0
   -0.6760   -1.4126   -0.5731 C   0  0  0  0  0  0  0  0  0  0  0  0
    0.5678   -1.1524   -0.0351 C   0  0  0  0  0  0  0  0  0  0  0  0
    1.4664   -0.5335   -0.8802 C   0  0  0  0  0  0  0  0  0  0  0  0
   -0.0629   -0.4977   -2.5616 C   0  0  0  0  0  0  0  0  0  0  0  0
   -4.4861    3.9523    1.3815 C   0  0  0  0  0  0  0  0  0  0  0  0
    2.8016   -0.2078   -0.4392 C   0  0  0  0  0  0  0  0  0  0  0  0
   -0.4126   -0.1360   -3.9654 C   0  0  0  0  0  0  0  0  0  0  0  0
    2.9884    0.6504    0.6444 C   0  0  0  0  0  0  0  0  0  0  0  0
    3.9053   -0.7519   -1.0963 C   0  0  0  0  0  0  0  0  0  0  0  0
    4.2787    0.9649    1.0707 C   0  0  0  0  0  0  0  0  0  0  0  0
    5.1956   -0.4374   -0.6700 C   0  0  0  0  0  0  0  0  0  0  0  0
    5.3823    0.4209    0.4135 C   0  0  0  0  0  0  0  0  0  0  0  0
    6.7618    0.7573    0.8690 C   0  0  0  0  0  0  0  0  0  0  0  0
   -3.0251   -2.8018   -1.3704 H   0  0  0  0  0  0  0  0  0  0  0  0
   -1.2975   -3.0735    0.5303 H   0  0  0  0  0  0  0  0  0  0  0  0
   -5.3198   -0.9418    1.2910 H   0  0  0  0  0  0  0  0  0  0  0  0
   -3.4246   -0.3048   -0.9145 H   0  0  0  0  0  0  0  0  0  0  0  0
   -4.8992   -1.2691   -0.9115 H   0  0  0  0  0  0  0  0  0  0  0  0
   -3.3432   -4.3641    0.5363 H   0  0  0  0  0  0  0  0  0  0  0  0
   -4.8715   -3.5358    0.2276 H   0  0  0  0  0  0  0  0  0  0  0  0
   -1.3674   -1.7764    2.4035 H   0  0  0  0  0  0  0  0  0  0  0  0
   -1.6778   -0.2900    1.5591 H   0  0  0  0  0  0  0  0  0  0  0  0
   -4.8218   -2.9533    2.4558 H   0  0  0  0  0  0  0  0  0  0  0  0
   -3.1529   -3.4378    2.6339 H   0  0  0  0  0  0  0  0  0  0  0  0
   -3.1617    1.1883    1.0631 H   0  0  0  0  0  0  0  0  0  0  0  0
   -4.4093    1.0949    2.3107 H   0  0  0  0  0  0  0  0  0  0  0  0
   -6.0923    1.3351    0.6210 H   0  0  0  0  0  0  0  0  0  0  0  0
    0.8227   -1.4282    0.9814 H   0  0  0  0  0  0  0  0  0  0  0  0
   -4.3283    5.0111    1.1633 H   0  0  0  0  0  0  0  0  0  0  0  0
   -5.3726    3.8360    2.0078 H   0  0  0  0  0  0  0  0  0  0  0  0
   -3.5995    3.5462    1.8704 H   0  0  0  0  0  0  0  0  0  0  0  0
   -0.2111   -0.9842   -4.6262 H   0  0  0  0  0  0  0  0  0  0  0  0
   -1.4720    0.1274   -4.0446 H   0  0  0  0  0  0  0  0  0  0  0  0
    0.1764    0.7215   -4.3056 H   0  0  0  0  0  0  0  0  0  0  0  0
    2.1417    1.0894    1.1672 H   0  0  0  0  0  0  0  0  0  0  0  0
    3.7797   -1.4257   -1.9406 H   0  0  0  0  0  0  0  0  0  0  0  0
    4.4027    1.6364    1.9159 H   0  0  0  0  0  0  0  0  0  0  0  0
    6.0493   -0.8665   -1.1878 H   0  0  0  0  0  0  0  0  0  0  0  0
  1  5  2  0  0  0  0
  1  6  2  0  0  0  0
  1  8  1  0  0  0  0
  1 23  1  0  0  0  0
  2 31  1  0  0  0  0
  3 31  1  0  0  0  0
  4 31  1  0  0  0  0
  7 13  1  0  0  0  0
  7 16  1  0  0  0  0
  7 17  1  0  0  0  0
  8 18  1  0  0  0  0
  8 45  1  0  0  0  0
  9 19  2  0  0  0  0
  9 22  1  0  0  0  0
 10 21  1  0  0  0  0
 10 22  2  0  0  0  0
 11 12  1  0  0  0  0
 11 14  1  0  0  0  0
 11 15  1  0  0  0  0
 11 32  1  0  0  0  0
 12 16  1  0  0  0  0
 12 19  1  0  0  0  0
 12 33  1  0  0  0  0
 13 14  1  0  0  0  0
 13 18  1  0  0  0  0
 13 34  1  0  0  0  0
 14 35  1  0  0  0  0
 14 36  1  0  0  0  0
 15 17  1  0  0  0  0
 15 37  1  0  0  0  0
 15 38  1  0  0  0  0
 16 39  1  0  0  0  0
 16 40  1  0  0  0  0
 17 41  1  0  0  0  0
 17 42  1  0  0  0  0
 18 43  1  0  0  0  0
 18 44  1  0  0  0  0
 19 20  1  0  0  0  0
 20 21  2  0  0  0  0
 20 46  1  0  0  0  0
 21 24  1  0  0  0  0
 22 25  1  0  0  0  0
 23 47  1  0  0  0  0
 23 48  1  0  0  0  0
 23 49  1  0  0  0  0
 24 26  2  0  0  0  0
 24 27  1  0  0  0  0
 25 50  1  0  0  0  0
 25 51  1  0  0  0  0
 25 52  1  0  0  0  0
 26 28  1  0  0  0  0
 26 53  1  0  0  0  0
 27 29  2  0  0  0  0
 27 54  1  0  0  0  0
 28 30  2  0  0  0  0
 28 55  1  0  0  0  0
 29 30  1  0  0  0  0
 29 56  1  0  0  0  0
 30 31  1  0  0  0  0
M  END
> <PUBCHEM_COMPOUND_CID>
40777169

> <PUBCHEM_CONFORMER_RMSD>
1

> <PUBCHEM_CONFORMER_DIVERSEORDER>
1
39
2
4
26
16
11
19
14
5
40
42
7
6
27
30
41
43
21
29
15
9
28
36
38
31
23
35
24
33
3
18
20
37
8
13
17
22
12
34
32
10
25

> <PUBCHEM_MMFF94_PARTIAL_CHARGES>
33
1 1.33
10 -0.62
12 0.14
13 0.27
16 0.27
17 0.27
18 0.36
19 0.17
2 -0.34
20 -0.15
21 0.31
22 0.48
23 0.11
25 0.14
26 -0.15
27 -0.15
28 -0.15
29 -0.15
3 -0.34
30 -0.14
31 1.16
4 -0.34
45 0.42
46 0.15
5 -0.65
53 0.15
54 0.15
55 0.15
56 0.15
6 -0.65
7 -0.81
8 -0.91
9 -0.62

> <PUBCHEM_EFFECTIVE_ROTOR_COUNT>
7.2

> <PUBCHEM_PHARMACOPHORE_FEATURES>
9
1 5 acceptor
1 6 acceptor
1 7 cation
1 8 donor
1 9 acceptor
3 9 10 22 cation
6 24 26 27 28 29 30 rings
6 9 10 19 20 21 22 rings
8 7 11 12 13 14 15 16 17 rings

> <PUBCHEM_HEAVY_ATOM_COUNT>
31

> <PUBCHEM_ATOM_DEF_STEREO_COUNT>
3

> <PUBCHEM_ATOM_UDEF_STEREO_COUNT>
0

> <PUBCHEM_BOND_DEF_STEREO_COUNT>
0

> <PUBCHEM_BOND_UDEF_STEREO_COUNT>
0

> <PUBCHEM_ISOTOPIC_ATOM_COUNT>
0

> <PUBCHEM_COMPONENT_COUNT>
1

> <PUBCHEM_CACTVS_TAUTO_COUNT>
1

> <PUBCHEM_CONFORMER_ID>
026E35D100000001

> <PUBCHEM_MMFF94_ENERGY>
76.1583

> <PUBCHEM_FEATURE_SELFOVERLAP>
45.689

> <PUBCHEM_SHAPE_FINGERPRINT>
10291535 26 18413108364618847859
10554248 39 15626232304098632748
10675989 125 17333097421301891321
11135609 201 18126858106114948249
11374522 101 18113059342122944908
12128747 34 18339647720202380602
12422481 6 17241611619576530951
12760667 363 15719662260316930042
13009979 54 17532953798856687935
13103583 49 16009328551530611817
13257819 101 17917714573880814941
13583140 156 18059860592345287263
13631057 29 10015577298903877521
13782708 43 17531511171382703522
13911987 19 16056883528869886803
14068700 675 17751642293803442979
14904525 67 18339640170309991500
14950920 106 17822857622572225024
15338160 23 18260830431719347148
15484559 13 14536144370480899835
15876981 60 18188494700115343093
15950262 2 17415283819766104273
17780758 139 17749671891166024627
19304671 126 17483401820818710037
19309040 13 15481010916809142257
19438510 23 18127977412845992793
20501277 180 17400070882875873277
20505436 4 12606589640125080463
20587220 17 17323218335808200549
21033648 144 17632587032501584423
21033648 29 18263375711100934193
21304303 282 18334570219320218911
2132832 1 17751371788209577807
21401589 2 18267032670091271577
21796203 349 15141547765099479716
21859007 373 18342178804812299628
22288116 15 10663818607386258832
22956985 138 17043730682977095739
23522609 53 17169010970622589028
23569914 2 17412980488750141136
244849 19 18057624086883549279
2838139 119 17916585306851863893
3004659 81 13912868904791558210
4366758 6 17823127944616270205
445580 182 17967251987754114677
484985 159 12179841680893614749
4938544 92 18408603677494417193
5951187 136 16978436743391801269
6677587 24 17123365608706014005
9981440 41 18262810575484491771
999808 66 12468637210016056608

> <PUBCHEM_SHAPE_MULTIPOLES>
588.33
16.9
3.78
2.46
28.55
3.01
-2.11
11.2
8.59
-10.1
1.06
-0.2
-0.39
2.32

> <PUBCHEM_SHAPE_SELFOVERLAP>
1253.61

> <PUBCHEM_SHAPE_VOLUME>
333.7

> <PUBCHEM_COORDINATE_TYPE>
2
5
10

$$$$
