38030601
  -OEChem-12032416363D

 71 74  0     1  0  0  0  0  0999 V2000
    3.4743   -0.6772    0.8393 O   0  0  0  0  0  0  0  0  0  0  0  0
   -7.8613    2.8123    1.0894 O   0  0  0  0  0  0  0  0  0  0  0  0
   -3.9484   -0.1716    0.2530 N   0  0  0  0  0  0  0  0  0  0  0  0
   -6.2402    1.5327    0.0265 N   0  0  0  0  0  0  0  0  0  0  0  0
    2.2259    0.4788    2.2916 N   0  0  0  0  0  0  0  0  0  0  0  0
    3.3094    1.2626    1.9412 N   0  0  0  0  0  0  0  0  0  0  0  0
   -1.2750   -0.6731   -0.8400 C   0  0  1  0  0  0  0  0  0  0  0  0
   -2.2608   -1.8093   -0.4808 C   0  0  2  0  0  0  0  0  0  0  0  0
   -0.1380   -0.6022    0.1889 C   0  0  0  0  0  0  0  0  0  0  0  0
    0.6382   -1.9286    0.3350 C   0  0  2  0  0  0  0  0  0  0  0  0
   -0.7257   -0.8383   -2.2635 C   0  0  0  0  0  0  0  0  0  0  0  0
   -3.2295   -1.3882    0.6290 C   0  0  0  0  0  0  0  0  0  0  0  0
   -1.5576   -3.0777   -0.0700 C   0  0  0  0  0  0  0  0  0  0  0  0
   -0.2619   -3.1540    0.2857 C   0  0  0  0  0  0  0  0  0  0  0  0
    1.4855   -1.8619    1.6118 C   0  0  0  0  0  0  0  0  0  0  0  0
   -1.7855   -0.4533   -3.2909 C   0  0  0  0  0  0  0  0  0  0  0  0
    0.5356   -0.0006   -2.4475 C   0  0  0  0  0  0  0  0  0  0  0  0
   -4.5107    0.4843    1.4425 C   0  0  0  0  0  0  0  0  0  0  0  0
   -5.0111   -0.4783   -0.7157 C   0  0  0  0  0  0  0  0  0  0  0  0
    0.3620   -4.4872    0.5946 C   0  0  0  0  0  0  0  0  0  0  0  0
   -5.2332    1.7750    1.0584 C   0  0  0  0  0  0  0  0  0  0  0  0
   -5.7495    0.7926   -1.1399 C   0  0  0  0  0  0  0  0  0  0  0  0
    2.3634   -0.6434    1.6248 C   0  0  0  0  0  0  0  0  0  0  0  0
   -7.5087    2.0982    0.1473 C   0  0  0  0  0  0  0  0  0  0  0  0
    4.0105    0.5479    1.0924 C   0  0  0  0  0  0  0  0  0  0  0  0
   -8.4899    1.7953   -0.9569 C   0  0  0  0  0  0  0  0  0  0  0  0
    5.2307    0.8533    0.4035 C   0  0  0  0  0  0  0  0  0  0  0  0
    5.8529    2.0861    0.6003 C   0  0  0  0  0  0  0  0  0  0  0  0
    5.7960   -0.0828   -0.4625 C   0  0  0  0  0  0  0  0  0  0  0  0
    7.0401    2.3830   -0.0691 C   0  0  0  0  0  0  0  0  0  0  0  0
    6.9831    0.2140   -1.1320 C   0  0  0  0  0  0  0  0  0  0  0  0
    7.6052    1.4469   -0.9352 C   0  0  0  0  0  0  0  0  0  0  0  0
    8.8743    1.7647   -1.6512 C   0  0  0  0  0  0  0  0  0  0  0  0
   -1.7807    0.3001   -0.8081 H   0  0  0  0  0  0  0  0  0  0  0  0
   -2.8447   -2.0805   -1.3654 H   0  0  0  0  0  0  0  0  0  0  0  0
   -0.5912   -0.3546    1.1599 H   0  0  0  0  0  0  0  0  0  0  0  0
    0.5289    0.2429   -0.0078 H   0  0  0  0  0  0  0  0  0  0  0  0
    1.3266   -2.0270   -0.5141 H   0  0  0  0  0  0  0  0  0  0  0  0
   -0.4499   -1.8835   -2.4514 H   0  0  0  0  0  0  0  0  0  0  0  0
   -3.9279   -2.2021    0.8698 H   0  0  0  0  0  0  0  0  0  0  0  0
   -2.6540   -1.2120    1.5477 H   0  0  0  0  0  0  0  0  0  0  0  0
   -2.1598   -3.9836   -0.0901 H   0  0  0  0  0  0  0  0  0  0  0  0
    2.1324   -2.7427    1.7001 H   0  0  0  0  0  0  0  0  0  0  0  0
    0.8439   -1.8476    2.5018 H   0  0  0  0  0  0  0  0  0  0  0  0
   -2.1272    0.5776   -3.1465 H   0  0  0  0  0  0  0  0  0  0  0  0
   -2.6595   -1.1083   -3.2527 H   0  0  0  0  0  0  0  0  0  0  0  0
   -1.3803   -0.5265   -4.3064 H   0  0  0  0  0  0  0  0  0  0  0  0
    0.3736    1.0448   -2.1612 H   0  0  0  0  0  0  0  0  0  0  0  0
    0.8266    0.0055   -3.5052 H   0  0  0  0  0  0  0  0  0  0  0  0
    1.4050   -0.3880   -1.9122 H   0  0  0  0  0  0  0  0  0  0  0  0
   -3.7102    0.7384    2.1476 H   0  0  0  0  0  0  0  0  0  0  0  0
   -5.2076   -0.1884    1.9599 H   0  0  0  0  0  0  0  0  0  0  0  0
   -4.6060   -0.9338   -1.6240 H   0  0  0  0  0  0  0  0  0  0  0  0
   -5.7315   -1.1873   -0.2860 H   0  0  0  0  0  0  0  0  0  0  0  0
   -0.3084   -5.3209    0.3591 H   0  0  0  0  0  0  0  0  0  0  0  0
    1.2736   -4.6261    0.0041 H   0  0  0  0  0  0  0  0  0  0  0  0
    0.6145   -4.5600    1.6569 H   0  0  0  0  0  0  0  0  0  0  0  0
   -5.6903    2.2211    1.9476 H   0  0  0  0  0  0  0  0  0  0  0  0
   -4.5240    2.5073    0.6529 H   0  0  0  0  0  0  0  0  0  0  0  0
   -5.0733    1.4642   -1.6835 H   0  0  0  0  0  0  0  0  0  0  0  0
   -6.5593    0.5286   -1.8229 H   0  0  0  0  0  0  0  0  0  0  0  0
   -8.6599    0.7176   -1.0261 H   0  0  0  0  0  0  0  0  0  0  0  0
   -8.1215    2.1877   -1.9084 H   0  0  0  0  0  0  0  0  0  0  0  0
   -9.4470    2.2779   -0.7360 H   0  0  0  0  0  0  0  0  0  0  0  0
    5.4306    2.8305    1.2710 H   0  0  0  0  0  0  0  0  0  0  0  0
    5.3411   -1.0538   -0.6413 H   0  0  0  0  0  0  0  0  0  0  0  0
    7.5163    3.3462    0.0937 H   0  0  0  0  0  0  0  0  0  0  0  0
    7.4149   -0.5240   -1.8030 H   0  0  0  0  0  0  0  0  0  0  0  0
    8.9584    2.8388   -1.8486 H   0  0  0  0  0  0  0  0  0  0  0  0
    8.9190    1.2568   -2.6206 H   0  0  0  0  0  0  0  0  0  0  0  0
    9.7334    1.4501   -1.0504 H   0  0  0  0  0  0  0  0  0  0  0  0
  1 23  1  0  0  0  0
  1 25  1  0  0  0  0
  2 24  2  0  0  0  0
  3 12  1  0  0  0  0
  3 18  1  0  0  0  0
  3 19  1  0  0  0  0
  4 21  1  0  0  0  0
  4 22  1  0  0  0  0
  4 24  1  0  0  0  0
  5  6  1  0  0  0  0
  5 23  2  0  0  0  0
  6 25  2  0  0  0  0
  7  8  1  0  0  0  0
  7  9  1  0  0  0  0
  7 11  1  0  0  0  0
  7 34  1  0  0  0  0
  8 12  1  0  0  0  0
  8 13  1  0  0  0  0
  8 35  1  0  0  0  0
  9 10  1  0  0  0  0
  9 36  1  0  0  0  0
  9 37  1  0  0  0  0
 10 14  1  0  0  0  0
 10 15  1  0  0  0  0
 10 38  1  0  0  0  0
 11 16  1  0  0  0  0
 11 17  1  0  0  0  0
 11 39  1  0  0  0  0
 12 40  1  0  0  0  0
 12 41  1  0  0  0  0
 13 14  2  0  0  0  0
 13 42  1  0  0  0  0
 14 20  1  0  0  0  0
 15 23  1  0  0  0  0
 15 43  1  0  0  0  0
 15 44  1  0  0  0  0
 16 45  1  0  0  0  0
 16 46  1  0  0  0  0
 16 47  1  0  0  0  0
 17 48  1  0  0  0  0
 17 49  1  0  0  0  0
 17 50  1  0  0  0  0
 18 21  1  0  0  0  0
 18 51  1  0  0  0  0
 18 52  1  0  0  0  0
 19 22  1  0  0  0  0
 19 53  1  0  0  0  0
 19 54  1  0  0  0  0
 20 55  1  0  0  0  0
 20 56  1  0  0  0  0
 20 57  1  0  0  0  0
 21 58  1  0  0  0  0
 21 59  1  0  0  0  0
 22 60  1  0  0  0  0
 22 61  1  0  0  0  0
 24 26  1  0  0  0  0
 25 27  1  0  0  0  0
 26 62  1  0  0  0  0
 26 63  1  0  0  0  0
 26 64  1  0  0  0  0
 27 28  2  0  0  0  0
 27 29  1  0  0  0  0
 28 30  1  0  0  0  0
 28 65  1  0  0  0  0
 29 31  2  0  0  0  0
 29 66  1  0  0  0  0
 30 32  2  0  0  0  0
 30 67  1  0  0  0  0
 31 32  1  0  0  0  0
 31 68  1  0  0  0  0
 32 33  1  0  0  0  0
 33 69  1  0  0  0  0
 33 70  1  0  0  0  0
 33 71  1  0  0  0  0
M  END
> <PUBCHEM_COMPOUND_CID>
38030601

> <PUBCHEM_CONFORMER_RMSD>
1

> <PUBCHEM_CONFORMER_DIVERSEORDER>
4
107
138
152
319
199
310
134
260
137
223
215
193
119
191
176
85
314
131
78
297
111
209
181
91
35
170
87
266
53
15
130
212
106
140
200
308
185
240
258
317
95
280
41
216
315
171
96
271
156
14
81
166
109
92
304
291
249
160
98
62
149
102
148
63
117
309
231
180
84
112
159
316
263
157
67
221
12
206
43
311
147
203
282
88
295
97
293
210
296
64
126
5
116
252
31
195
158
125
101
226
244
113
287
23
175
227
201
255
192
198
194
127
73
284
115
146
93
68
235
211
305
164
21
75
320
123
7
47
89
161
30
59
289
281
110
139
257
278
104
60
306
234
218
172
28
267
105
259
19
90
264
225
135
3
39
239
273
290
247
16
177
80
72
202
301
132
254
77
188
40
99
50
70
207
165
178
179
294
270
145
2
143
66
228
65
189
250
100
298
268
243
142
56
128
61
26
183
217
288
303
122
74
129
54
283
187
246
233
236
167
69
262
184
103
154
299
33
94
279
82
173
277
269
232
155
276
318
220
141
219
241
86
196
22
153
51
242
186
238
205
9
197
144
150
25
133
18
57
182
253
121
17
285
190
8
307
49
168
44
42
292
124
6
36
229
214
248
71
79
114
286
222
83
13
174
120
204
76
313
37
52
300
29
108
261
34
213
11
151
38
302
32
46
208
245
20
48
265
136
55
272
27
237
163
58
251
10
169
274
24
312
118
275
162
45
1
224
256
230

> <PUBCHEM_MMFF94_PARTIAL_CHARGES>
33
1 -0.28
10 0.14
12 0.27
13 -0.29
14 -0.28
15 0.18
18 0.27
19 0.27
2 -0.57
20 0.14
21 0.3
22 0.3
23 0.3
24 0.57
25 0.43
26 0.06
27 0.05
28 -0.15
29 -0.15
3 -0.81
30 -0.15
31 -0.15
32 -0.14
33 0.14
4 -0.66
42 0.15
5 -0.34
6 -0.34
65 0.15
66 0.15
67 0.15
68 0.15
8 0.14

> <PUBCHEM_EFFECTIVE_ROTOR_COUNT>
9

> <PUBCHEM_PHARMACOPHORE_FEATURES>
7
1 2 acceptor
1 3 cation
3 11 16 17 hydrophobe
5 1 5 6 23 25 rings
6 27 28 29 30 31 32 rings
6 3 4 18 19 21 22 rings
6 7 8 9 10 13 14 rings

> <PUBCHEM_HEAVY_ATOM_COUNT>
33

> <PUBCHEM_ATOM_DEF_STEREO_COUNT>
3

> <PUBCHEM_ATOM_UDEF_STEREO_COUNT>
0

> <PUBCHEM_BOND_DEF_STEREO_COUNT>
0

> <PUBCHEM_BOND_UDEF_STEREO_COUNT>
0

> <PUBCHEM_ISOTOPIC_ATOM_COUNT>
0

> <PUBCHEM_COMPONENT_COUNT>
1

> <PUBCHEM_CACTVS_TAUTO_COUNT>
1

> <PUBCHEM_CONFORMER_ID>
02444D0900000004

> <PUBCHEM_MMFF94_ENERGY>
67.9316

> <PUBCHEM_FEATURE_SELFOVERLAP>
35.522

> <PUBCHEM_SHAPE_FINGERPRINT>
10165383 225 18335137562334022426
10190206 1 17917441903893620744
10483366 6 16128660725640802433
10670039 82 16702306720067350377
10674148 151 18272649061475039072
11088757 655 9511463307980433226
11297750 10 17100579354821148791
11513181 2 11094238883751716140
11991303 11 16845280696661986543
1200032 147 18187363221019700722
12047536 79 17024018252008754189
12124843 1 17560793364405170665
12166972 35 13038905560134657778
12218070 45 13985239863215561209
12390115 104 18337105764945671027
12422481 6 17167858655865340663
12758862 65 11242262831036863444
12838863 1 12463577257895759596
13150687 139 16702297954149927349
13165053 103 12390974344148951445
13782708 43 12822997777666294189
14068700 675 16301779029335680475
14664723 55 18412272739244002688
14840074 17 17385717032560041982
14931854 50 17632294566824980841
15183329 4 16845578612731203240
15198563 99 17698425952662941495
15320295 40 12895076189431980008
15347590 135 13334731336799446524
15350500 16 10592043544417757492
16992610 120 18261685839523751188
16993427 108 10591768645104289204
17852330 162 14619644887520246768
19958102 18 15051734213618957478
2026 5 11671788152202900685
20721686 146 18187928339984548805
21344244 181 12103262946708486965
21344244 246 14476690671516479612
23559900 14 13829844781931336074
23576562 1 17346025809248069592
24771293 8 17168144550948668591
38570 142 18201717340798495011
392239 28 14996283656134090690
3986486 107 17632582634539898064
4058900 60 18409733919782599643
406291 66 10880000150975266132
439807 62 10447921789906475641
484989 97 14404607883590159901
50009960 94 11314899919849184793
5104073 3 14274273871288752784
5718773 13 10087640398804710976
57527293 21 17531792594060482867
58260988 393 14562802219143570294
59682541 52 16845574201873604310
6009941 240 18272097149497488374
6703917 75 18263088862683189530
9689198 14 18187372034171135832

> <PUBCHEM_SHAPE_MULTIPOLES>
647.46
23.44
3.5
2.19
5.33
2.93
1.1
-29.69
3.41
-1.97
-0.8
0.31
-0.2
-1.48

> <PUBCHEM_SHAPE_SELFOVERLAP>
1360.99

> <PUBCHEM_SHAPE_VOLUME>
364.4

> <PUBCHEM_COORDINATE_TYPE>
2
5
10

$$$$
