45783372
  -OEChem-12032416263D

 56 59  0     1  0  0  0  0  0999 V2000
   -0.7800    0.0811    2.6773 O   0  0  0  0  0  0  0  0  0  0  0  0
    2.4528    3.3593   -1.7411 O   0  0  0  0  0  0  0  0  0  0  0  0
    2.2998    4.6298    0.1375 O   0  0  0  0  0  0  0  0  0  0  0  0
   -0.7939   -2.3113   -2.8348 O   0  0  0  0  0  0  0  0  0  0  0  0
   -3.2040   -0.1749    0.1461 N   0  0  1  0  0  0  0  0  0  0  0  0
   -0.3645   -1.2642    0.9353 N   0  0  0  0  0  0  0  0  0  0  0  0
    0.6111   -0.0745    2.6286 N   0  0  0  0  0  0  0  0  0  0  0  0
    1.3233   -1.4675   -1.1494 N   0  0  0  0  0  0  0  0  0  0  0  0
    3.5621   -2.0288   -0.6282 N   0  0  0  0  0  0  0  0  0  0  0  0
   -2.7821   -0.6477    1.4799 C   0  0  1  0  0  0  0  0  0  0  0  0
   -3.3984   -2.0527    1.6099 C   0  0  0  0  0  0  0  0  0  0  0  0
   -4.1970   -2.2567    0.3302 C   0  0  0  0  0  0  0  0  0  0  0  0
   -4.4707   -0.8452   -0.1483 C   0  0  0  0  0  0  0  0  0  0  0  0
   -3.3184    1.2753    0.0604 C   0  0  0  0  0  0  0  0  0  0  0  0
   -1.2770   -0.6518    1.6467 C   0  0  0  0  0  0  0  0  0  0  0  0
   -1.9764    1.9339   -0.1189 C   0  0  0  0  0  0  0  0  0  0  0  0
   -1.5298    2.8712    0.8129 C   0  0  0  0  0  0  0  0  0  0  0  0
   -1.1796    1.6071   -1.2163 C   0  0  0  0  0  0  0  0  0  0  0  0
    0.7778   -0.8802    1.5755 C   0  0  0  0  0  0  0  0  0  0  0  0
   -0.2867    3.4814    0.6471 C   0  0  0  0  0  0  0  0  0  0  0  0
    0.0635    2.2176   -1.3819 C   0  0  0  0  0  0  0  0  0  0  0  0
    2.0709   -1.3210    1.1382 C   0  0  0  0  0  0  0  0  0  0  0  0
    0.5101    3.1546   -0.4502 C   0  0  0  0  0  0  0  0  0  0  0  0
    2.3543   -1.6118   -0.1866 C   0  0  0  0  0  0  0  0  0  0  0  0
    3.0927   -1.4675    2.0697 C   0  0  0  0  0  0  0  0  0  0  0  0
    1.8067    3.7901   -0.6230 C   0  0  0  0  0  0  0  0  0  0  0  0
    4.3490   -1.8943    1.6538 C   0  0  0  0  0  0  0  0  0  0  0  0
    1.5205   -1.7430   -2.5346 C   0  0  0  0  0  0  0  0  0  0  0  0
    4.5306   -2.1595    0.3061 C   0  0  0  0  0  0  0  0  0  0  0  0
    0.2434   -1.4611   -3.3076 C   0  0  0  0  0  0  0  0  0  0  0  0
   -2.0102   -2.0878   -3.5344 C   0  0  0  0  0  0  0  0  0  0  0  0
   -3.2221   -0.0241    2.2710 H   0  0  0  0  0  0  0  0  0  0  0  0
   -2.6614   -2.8524    1.7403 H   0  0  0  0  0  0  0  0  0  0  0  0
   -4.0765   -2.0788    2.4717 H   0  0  0  0  0  0  0  0  0  0  0  0
   -5.1144   -2.8276    0.5011 H   0  0  0  0  0  0  0  0  0  0  0  0
   -3.5895   -2.7989   -0.4053 H   0  0  0  0  0  0  0  0  0  0  0  0
   -5.3042   -0.4071    0.4152 H   0  0  0  0  0  0  0  0  0  0  0  0
   -4.7104   -0.8225   -1.2159 H   0  0  0  0  0  0  0  0  0  0  0  0
   -3.8605    1.6919    0.9195 H   0  0  0  0  0  0  0  0  0  0  0  0
   -3.9114    1.5508   -0.8231 H   0  0  0  0  0  0  0  0  0  0  0  0
   -2.1390    3.1336    1.6736 H   0  0  0  0  0  0  0  0  0  0  0  0
   -1.5248    0.8888   -1.9532 H   0  0  0  0  0  0  0  0  0  0  0  0
    0.0437    4.2080    1.3848 H   0  0  0  0  0  0  0  0  0  0  0  0
    0.6507    1.9357   -2.2512 H   0  0  0  0  0  0  0  0  0  0  0  0
    2.9395   -1.2645    3.1268 H   0  0  0  0  0  0  0  0  0  0  0  0
    0.5683   -0.8357   -0.9047 H   0  0  0  0  0  0  0  0  0  0  0  0
    5.1602   -2.0174    2.3623 H   0  0  0  0  0  0  0  0  0  0  0  0
    2.3288   -1.1244   -2.9407 H   0  0  0  0  0  0  0  0  0  0  0  0
    1.7933   -2.7971   -2.6638 H   0  0  0  0  0  0  0  0  0  0  0  0
    5.4915   -2.4955   -0.0694 H   0  0  0  0  0  0  0  0  0  0  0  0
   -0.0520   -0.4136   -3.1968 H   0  0  0  0  0  0  0  0  0  0  0  0
    0.4159   -1.6594   -4.3719 H   0  0  0  0  0  0  0  0  0  0  0  0
    3.3261    3.7933   -1.8481 H   0  0  0  0  0  0  0  0  0  0  0  0
   -2.7679   -2.7652   -3.1314 H   0  0  0  0  0  0  0  0  0  0  0  0
   -1.8844   -2.2989   -4.6007 H   0  0  0  0  0  0  0  0  0  0  0  0
   -2.3531   -1.0587   -3.3912 H   0  0  0  0  0  0  0  0  0  0  0  0
  1  7  1  0  0  0  0
  1 15  1  0  0  0  0
  2 26  1  0  0  0  0
  2 53  1  0  0  0  0
  3 26  2  0  0  0  0
  4 30  1  0  0  0  0
  4 31  1  0  0  0  0
  5 10  1  0  0  0  0
  5 13  1  0  0  0  0
  5 14  1  0  0  0  0
  6 15  2  0  0  0  0
  6 19  1  0  0  0  0
  7 19  2  0  0  0  0
  8 24  1  0  0  0  0
  8 28  1  0  0  0  0
  8 46  1  0  0  0  0
  9 24  1  0  0  0  0
  9 29  2  0  0  0  0
 10 11  1  0  0  0  0
 10 15  1  0  0  0  0
 10 32  1  0  0  0  0
 11 12  1  0  0  0  0
 11 33  1  0  0  0  0
 11 34  1  0  0  0  0
 12 13  1  0  0  0  0
 12 35  1  0  0  0  0
 12 36  1  0  0  0  0
 13 37  1  0  0  0  0
 13 38  1  0  0  0  0
 14 16  1  0  0  0  0
 14 39  1  0  0  0  0
 14 40  1  0  0  0  0
 16 17  2  0  0  0  0
 16 18  1  0  0  0  0
 17 20  1  0  0  0  0
 17 41  1  0  0  0  0
 18 21  2  0  0  0  0
 18 42  1  0  0  0  0
 19 22  1  0  0  0  0
 20 23  2  0  0  0  0
 20 43  1  0  0  0  0
 21 23  1  0  0  0  0
 21 44  1  0  0  0  0
 22 24  2  0  0  0  0
 22 25  1  0  0  0  0
 23 26  1  0  0  0  0
 25 27  2  0  0  0  0
 25 45  1  0  0  0  0
 27 29  1  0  0  0  0
 27 47  1  0  0  0  0
 28 30  1  0  0  0  0
 28 48  1  0  0  0  0
 28 49  1  0  0  0  0
 29 50  1  0  0  0  0
 30 51  1  0  0  0  0
 30 52  1  0  0  0  0
 31 54  1  0  0  0  0
 31 55  1  0  0  0  0
 31 56  1  0  0  0  0
M  END
> <PUBCHEM_COMPOUND_CID>
45783372

> <PUBCHEM_CONFORMER_RMSD>
1

> <PUBCHEM_CONFORMER_DIVERSEORDER>
1
56
74
18
75
6
58
68
45
50
55
52
48
36
25
19
3
10
35
62
31
72
66
59
77
46
71
60
24
76
53
22
73
16
32
70
23
26
29
65
64
8
12
37
30
49
61
40
51
42
39
67
38
44
27
47
20
28
2
43
63
7
17
54
34
11
14
57
41
21
33
5
4
15
13
9
69

> <PUBCHEM_MMFF94_PARTIAL_CHARGES>
38
1 -0.02
10 0.45
13 0.27
14 0.41
15 0.3
16 -0.14
17 -0.15
18 -0.15
19 0.46
2 -0.65
20 -0.15
21 -0.15
22 0.05
23 0.09
24 0.41
25 -0.15
26 0.63
27 -0.15
28 0.37
29 0.16
3 -0.57
30 0.28
31 0.28
4 -0.56
41 0.15
42 0.15
43 0.15
44 0.15
45 0.15
46 0.4
47 0.15
5 -0.81
50 0.15
53 0.5
6 -0.57
7 -0.41
8 -0.87
9 -0.62

> <PUBCHEM_EFFECTIVE_ROTOR_COUNT>
10

> <PUBCHEM_PHARMACOPHORE_FEATURES>
13
1 2 acceptor
1 3 acceptor
1 4 acceptor
1 5 cation
1 8 cation
1 8 donor
1 9 acceptor
3 2 3 26 anion
3 6 7 19 cation
5 1 6 7 15 19 rings
5 5 10 11 12 13 rings
6 16 17 18 20 21 23 rings
6 9 22 24 25 27 29 rings

> <PUBCHEM_HEAVY_ATOM_COUNT>
31

> <PUBCHEM_ATOM_DEF_STEREO_COUNT>
1

> <PUBCHEM_ATOM_UDEF_STEREO_COUNT>
0

> <PUBCHEM_BOND_DEF_STEREO_COUNT>
0

> <PUBCHEM_BOND_UDEF_STEREO_COUNT>
0

> <PUBCHEM_ISOTOPIC_ATOM_COUNT>
0

> <PUBCHEM_COMPONENT_COUNT>
1

> <PUBCHEM_CACTVS_TAUTO_COUNT>
8

> <PUBCHEM_CONFORMER_ID>
02BA994C00000001

> <PUBCHEM_MMFF94_ENERGY>
78.0395

> <PUBCHEM_FEATURE_SELFOVERLAP>
66.03

> <PUBCHEM_SHAPE_FINGERPRINT>
1100329 8 18189620454099384001
11421498 54 16975888607397324742
11578080 2 16879043374171817959
133893 2 18119558623472403225
13583140 156 17982143670868971314
13615921 28 18114461167412087028
13761468 95 16595921058803127462
15876981 60 18042984077286524758
17818456 19 17320685081732498282
20028762 73 16607470882892295787
20600515 1 17972885756908080093
20905425 154 18191038978506618429
23419403 2 17460288144396333822
23557571 272 18195813968137163659
3298306 158 18046631384382806773
35225 105 17613681883449887671
469060 322 18055036996358889614
550186 7 17761770672727000390
59755656 215 17756430727208515227

> <PUBCHEM_SHAPE_MULTIPOLES>
589.58
6.7
5
3.16
1.71
7.34
-2.32
-5.7
2.27
1.28
-1.45
0.12
-2.53
-0.78

> <PUBCHEM_SHAPE_SELFOVERLAP>
1267.696

> <PUBCHEM_SHAPE_VOLUME>
326

> <PUBCHEM_COORDINATE_TYPE>
2
5
10

$$$$
