7134558
  -OEChem-12032416133D

 61 65  0     1  0  0  0  0  0999 V2000
    8.4653   -4.0813   -0.5880 Cl  0  0  0  0  0  0  0  0  0  0  0  0
   -5.8247   -4.7250    0.2439 F   0  0  0  0  0  0  0  0  0  0  0  0
   -3.7746   -4.1073   -0.1017 F   0  0  0  0  0  0  0  0  0  0  0  0
   -4.6886   -3.7918    1.8461 F   0  0  0  0  0  0  0  0  0  0  0  0
    2.3288   -1.1093   -0.9147 O   0  0  0  0  0  0  0  0  0  0  0  0
    5.3388    1.6813    1.2563 O   0  0  0  0  0  0  0  0  0  0  0  0
   -1.6151    3.3234   -1.6943 O   0  0  0  0  0  0  0  0  0  0  0  0
    3.0778    1.8192    0.7531 N   0  0  0  0  0  0  0  0  0  0  0  0
   -0.1239    3.2551    0.0742 N   0  0  0  0  0  0  0  0  0  0  0  0
    4.1587   -0.0472    0.1476 N   0  0  0  0  0  0  0  0  0  0  0  0
   -4.1963    0.9860    0.1383 N   0  0  0  0  0  0  0  0  0  0  0  0
   -4.5823   -1.3358    0.3093 N   0  0  0  0  0  0  0  0  0  0  0  0
   -6.2326    0.1163   -0.6780 N   0  0  0  0  0  0  0  0  0  0  0  0
    1.0843    3.2496   -0.7182 C   0  0  2  0  0  0  0  0  0  0  0  0
    2.0601    1.0518    0.0887 C   0  0  1  0  0  0  0  0  0  0  0  0
    1.4919    1.8165   -1.1028 C   0  0  0  0  0  0  0  0  0  0  0  0
    2.2234    3.9816    0.0129 C   0  0  0  0  0  0  0  0  0  0  0  0
    2.7771    3.1719    1.1868 C   0  0  0  0  0  0  0  0  0  0  0  0
   -2.4908    3.2999    0.5471 C   0  0  0  0  0  0  0  0  0  0  0  0
    2.8527   -0.1793   -0.3137 C   0  0  0  0  0  0  0  0  0  0  0  0
    4.3208    1.1845    0.7898 C   0  0  0  0  0  0  0  0  0  0  0  0
   -3.8572    3.4103   -0.1266 C   0  0  0  0  0  0  0  0  0  0  0  0
   -2.4166    2.0726    1.4530 C   0  0  0  0  0  0  0  0  0  0  0  0
   -1.3958    3.2920   -0.4790 C   0  0  0  0  0  0  0  0  0  0  0  0
   -4.2933    2.1099   -0.8011 C   0  0  0  0  0  0  0  0  0  0  0  0
   -2.8919    0.7855    0.7756 C   0  0  0  0  0  0  0  0  0  0  0  0
    5.1950   -1.0185   -0.0292 C   0  0  0  0  0  0  0  0  0  0  0  0
   -5.0319   -0.1148   -0.0843 C   0  0  0  0  0  0  0  0  0  0  0  0
    5.1924   -1.8517   -1.1508 C   0  0  0  0  0  0  0  0  0  0  0  0
    6.2146   -1.1380    0.9186 C   0  0  0  0  0  0  0  0  0  0  0  0
    6.2026   -2.7980   -1.3234 C   0  0  0  0  0  0  0  0  0  0  0  0
    7.2247   -2.0842    0.7460 C   0  0  0  0  0  0  0  0  0  0  0  0
    7.2188   -2.9143   -0.3750 C   0  0  0  0  0  0  0  0  0  0  0  0
   -5.4128   -2.3741    0.0800 C   0  0  0  0  0  0  0  0  0  0  0  0
   -7.0125   -0.9667   -0.8770 C   0  0  0  0  0  0  0  0  0  0  0  0
   -6.6515   -2.2482   -0.5150 C   0  0  0  0  0  0  0  0  0  0  0  0
   -4.9355   -3.7219    0.5057 C   0  0  0  0  0  0  0  0  0  0  0  0
    0.8676    3.7991   -1.6428 H   0  0  0  0  0  0  0  0  0  0  0  0
    1.2916    0.7780    0.8191 H   0  0  0  0  0  0  0  0  0  0  0  0
    0.6432    1.2664   -1.5270 H   0  0  0  0  0  0  0  0  0  0  0  0
    2.2499    1.8732   -1.8962 H   0  0  0  0  0  0  0  0  0  0  0  0
    3.0364    4.1571   -0.7038 H   0  0  0  0  0  0  0  0  0  0  0  0
    1.8889    4.9635    0.3675 H   0  0  0  0  0  0  0  0  0  0  0  0
    3.6814    3.6436    1.5840 H   0  0  0  0  0  0  0  0  0  0  0  0
    2.0462    3.1044    1.9995 H   0  0  0  0  0  0  0  0  0  0  0  0
   -2.3354    4.1989    1.1585 H   0  0  0  0  0  0  0  0  0  0  0  0
   -0.0249    3.2378    1.0840 H   0  0  0  0  0  0  0  0  0  0  0  0
   -4.5989    3.6670    0.6418 H   0  0  0  0  0  0  0  0  0  0  0  0
   -3.8744    4.2279   -0.8575 H   0  0  0  0  0  0  0  0  0  0  0  0
   -1.4158    1.9083    1.8650 H   0  0  0  0  0  0  0  0  0  0  0  0
   -3.0686    2.2578    2.3180 H   0  0  0  0  0  0  0  0  0  0  0  0
   -3.6888    1.8943   -1.6891 H   0  0  0  0  0  0  0  0  0  0  0  0
   -5.3205    2.2670   -1.1508 H   0  0  0  0  0  0  0  0  0  0  0  0
   -2.9406    0.0112    1.5509 H   0  0  0  0  0  0  0  0  0  0  0  0
   -2.1619    0.4567    0.0258 H   0  0  0  0  0  0  0  0  0  0  0  0
    4.4372   -1.7692   -1.9262 H   0  0  0  0  0  0  0  0  0  0  0  0
    6.2347   -0.5306    1.8183 H   0  0  0  0  0  0  0  0  0  0  0  0
    6.1894   -3.4334   -2.2053 H   0  0  0  0  0  0  0  0  0  0  0  0
    8.0067   -2.1685    1.4964 H   0  0  0  0  0  0  0  0  0  0  0  0
   -7.9677   -0.7687   -1.3515 H   0  0  0  0  0  0  0  0  0  0  0  0
   -7.3115   -3.0867   -0.6952 H   0  0  0  0  0  0  0  0  0  0  0  0
  1 33  1  0  0  0  0
  2 37  1  0  0  0  0
  3 37  1  0  0  0  0
  4 37  1  0  0  0  0
  5 20  2  0  0  0  0
  6 21  2  0  0  0  0
  7 24  2  0  0  0  0
  8 15  1  0  0  0  0
  8 18  1  0  0  0  0
  8 21  1  0  0  0  0
  9 14  1  0  0  0  0
  9 24  1  0  0  0  0
  9 47  1  0  0  0  0
 10 20  1  0  0  0  0
 10 21  1  0  0  0  0
 10 27  1  0  0  0  0
 11 25  1  0  0  0  0
 11 26  1  0  0  0  0
 11 28  1  0  0  0  0
 12 28  1  0  0  0  0
 12 34  2  0  0  0  0
 13 28  2  0  0  0  0
 13 35  1  0  0  0  0
 14 16  1  0  0  0  0
 14 17  1  0  0  0  0
 14 38  1  0  0  0  0
 15 16  1  0  0  0  0
 15 20  1  0  0  0  0
 15 39  1  0  0  0  0
 16 40  1  0  0  0  0
 16 41  1  0  0  0  0
 17 18  1  0  0  0  0
 17 42  1  0  0  0  0
 17 43  1  0  0  0  0
 18 44  1  0  0  0  0
 18 45  1  0  0  0  0
 19 22  1  0  0  0  0
 19 23  1  0  0  0  0
 19 24  1  0  0  0  0
 19 46  1  0  0  0  0
 22 25  1  0  0  0  0
 22 48  1  0  0  0  0
 22 49  1  0  0  0  0
 23 26  1  0  0  0  0
 23 50  1  0  0  0  0
 23 51  1  0  0  0  0
 25 52  1  0  0  0  0
 25 53  1  0  0  0  0
 26 54  1  0  0  0  0
 26 55  1  0  0  0  0
 27 29  2  0  0  0  0
 27 30  1  0  0  0  0
 29 31  1  0  0  0  0
 29 56  1  0  0  0  0
 30 32  2  0  0  0  0
 30 57  1  0  0  0  0
 31 33  2  0  0  0  0
 31 58  1  0  0  0  0
 32 33  1  0  0  0  0
 32 59  1  0  0  0  0
 34 36  1  0  0  0  0
 34 37  1  0  0  0  0
 35 36  2  0  0  0  0
 35 60  1  0  0  0  0
 36 61  1  0  0  0  0
M  END
> <PUBCHEM_COMPOUND_CID>
7134558

> <PUBCHEM_CONFORMER_RMSD>
1

> <PUBCHEM_CONFORMER_DIVERSEORDER>
1
90
102
201
239
156
192
109
44
108
227
47
42
271
186
238
229
114
222
154
89
247
15
199
65
188
68
33
218
172
81
130
162
256
91
87
155
214
32
260
187
14
170
52
185
252
217
38
124
153
6
259
117
163
132
3
165
267
173
180
157
232
243
123
146
206
121
240
219
125
168
93
174
209
101
202
175
254
98
226
160
20
278
94
129
233
41
43
135
235
176
216
143
131
203
253
25
138
75
213
73
19
152
161
64
200
2
111
126
57
115
106
133
60
82
225
71
147
137
223
66
273
276
118
166
74
193
113
69
40
100
275
279
55
35
189
270
230
274
262
50
178
37
242
105
237
22
208
127
228
263
134
139
145
167
122
116
4
119
234
23
205
212
244
49
190
53
179
140
78
63
272
62
151
141
10
16
210
183
70
182
197
231
196
120
24
268
181
28
12
277
59
149
76
9
5
31
257
136
18
198
169
221
11
112
56
158
164
250
150
8
144
54
177
269
103
241
184
51
142
80
30
249
79
211
48
29
245
67
220
258
58
95
45
77
34
265
26
21
107
128
17
171
194
83
97
88
266
246
204
92
13
7
255
224
72
251
264
99
46
215
36
195
148
207
84
261
248
27
104
110
96
236
191
85
86
159
61
39

> <PUBCHEM_MMFF94_PARTIAL_CHARGES>
40
1 -0.18
10 -0.24
11 -0.84
12 -0.62
13 -0.62
14 0.3
15 0.36
18 0.3
19 0.06
2 -0.34
20 0.57
21 0.69
24 0.57
25 0.37
26 0.37
27 0.12
28 0.72
29 -0.15
3 -0.34
30 -0.15
31 -0.15
32 -0.15
33 0.18
34 0.17
35 0.16
36 -0.15
37 1.16
4 -0.34
47 0.37
5 -0.57
56 0.15
57 0.15
58 0.15
59 0.15
6 -0.57
60 0.15
61 0.15
7 -0.57
8 -0.66
9 -0.73

> <PUBCHEM_EFFECTIVE_ROTOR_COUNT>
8.2

> <PUBCHEM_PHARMACOPHORE_FEATURES>
11
1 12 acceptor
1 5 acceptor
1 6 acceptor
1 7 acceptor
1 9 donor
4 11 12 13 28 cation
5 8 10 15 20 21 rings
6 11 19 22 23 25 26 rings
6 12 13 28 34 35 36 rings
6 27 29 30 31 32 33 rings
6 8 14 15 16 17 18 rings

> <PUBCHEM_HEAVY_ATOM_COUNT>
37

> <PUBCHEM_ATOM_DEF_STEREO_COUNT>
2

> <PUBCHEM_ATOM_UDEF_STEREO_COUNT>
0

> <PUBCHEM_BOND_DEF_STEREO_COUNT>
0

> <PUBCHEM_BOND_UDEF_STEREO_COUNT>
0

> <PUBCHEM_ISOTOPIC_ATOM_COUNT>
0

> <PUBCHEM_COMPONENT_COUNT>
1

> <PUBCHEM_CACTVS_TAUTO_COUNT>
2

> <PUBCHEM_CONFORMER_ID>
006CDD5E00000001

> <PUBCHEM_MMFF94_ENERGY>
91.7816

> <PUBCHEM_FEATURE_SELFOVERLAP>
55.936

> <PUBCHEM_SHAPE_FINGERPRINT>
10169797 241 18059303166257346484
10864689 126 18334287644351624671
11399510 152 17703216416712221784
117089 54 18411984663034036958
11756154 67 18410295778929878126
11963148 33 18051126192211615926
12522641 126 18260840306825145876
12645989 146 18410860923833165994
12841400 136 18410854378176861095
13553639 21 17758403250468437579
1361 4 18339079392759942232
13782708 43 18343865489919388568
13947947 140 18271531905304037555
15001296 14 18189043347716808177
15264996 154 17757564318563424694
15274700 232 18196379109263339414
15510800 12 18341321219580328205
15705408 1 17385734603598935196
15803439 3 17029066028093012725
17138139 8 17895757292968543896
17492 89 18339080500988157049
18608769 82 18195246612681309766
19301676 85 18265889336981479919
19303781 99 18339069475738731855
19611394 137 18270399387374506430
208703 8 18410848871843813943
21307412 95 18264199223852049317
21792965 11 18042395847298355471
229767 8 18337678610603942995
23569914 152 18125974262238854255
23572383 38 18265048218837600817
24983565 74 17828757340755822698
25025965 108 17630582584450748255
32027 91 18268424806452061065
3525247 154 17410806586552672726
354706 109 18199163154150023265
373842 8 18341050834573296119
4017518 198 17902791856605188885
45377200 153 18267028254971022434
4616759 239 17627497247691366112
484989 97 18341895131355691214
54583773 228 18409737249684467972
5718773 13 18412822469282305276
57676310 51 17974007254268592818
6636798 310 17132111373305947987
8863177 126 18412261706031798492

> <PUBCHEM_SHAPE_MULTIPOLES>
694
22.51
6.87
1.21
15.13
2.54
-0.05
31.34
1.27
-4.43
-0.29
0.25
-0.1
2.78

> <PUBCHEM_SHAPE_SELFOVERLAP>
1497.592

> <PUBCHEM_SHAPE_VOLUME>
382.5

> <PUBCHEM_COORDINATE_TYPE>
2
5
10

$$$$
