28962378
  -OEChem-12032416143D

 54 55  0     1  0  0  0  0  0999 V2000
    0.5012    2.1177    0.4756 O   0  0  0  0  0  0  0  0  0  0  0  0
   -1.8484    2.0560   -1.3802 O   0  0  0  0  0  0  0  0  0  0  0  0
    0.7485    4.9069    0.2223 O   0  0  0  0  0  0  0  0  0  0  0  0
    2.3785   -1.9292    0.4269 O   0  0  0  0  0  0  0  0  0  0  0  0
   -2.2068   -0.3405    0.1529 N   0  0  0  0  0  0  0  0  0  0  0  0
    2.0342    0.0618   -0.7200 N   0  0  0  0  0  0  0  0  0  0  0  0
    4.1852   -0.6683   -0.3009 N   0  0  0  0  0  0  0  0  0  0  0  0
   -1.4723    0.8010    0.6697 C   0  0  1  0  0  0  0  0  0  0  0  0
    0.0544    0.7446    0.5298 C   0  0  1  0  0  0  0  0  0  0  0  0
   -1.8252    2.1392    0.0388 C   0  0  1  0  0  0  0  0  0  0  0  0
   -0.6468    2.9876    0.5019 C   0  0  2  0  0  0  0  0  0  0  0  0
   -3.6105    0.0185   -0.0893 C   0  0  0  0  0  0  0  0  0  0  0  0
   -2.1023   -1.4795    1.0747 C   0  0  0  0  0  0  0  0  0  0  0  0
   -4.2952   -2.3972    0.2126 C   0  0  0  0  0  0  0  0  0  0  0  0
   -4.3865   -1.1582   -0.6846 C   0  0  0  0  0  0  0  0  0  0  0  0
   -2.8261   -2.7076    0.5189 C   0  0  0  0  0  0  0  0  0  0  0  0
    0.6021    0.0419   -0.7073 C   0  0  0  0  0  0  0  0  0  0  0  0
   -0.3602    4.2203   -0.3360 C   0  0  0  0  0  0  0  0  0  0  0  0
   -4.9858   -3.5948   -0.4338 C   0  0  0  0  0  0  0  0  0  0  0  0
    2.8277   -0.9368   -0.1449 C   0  0  0  0  0  0  0  0  0  0  0  0
    5.2185   -1.5425    0.2022 C   0  0  0  0  0  0  0  0  0  0  0  0
    6.4467   -0.7352    0.6020 C   0  0  0  0  0  0  0  0  0  0  0  0
    5.5692   -2.6058   -0.8311 C   0  0  0  0  0  0  0  0  0  0  0  0
   -1.6936    0.9204    1.7427 H   0  0  0  0  0  0  0  0  0  0  0  0
    0.4929    0.2911    1.4274 H   0  0  0  0  0  0  0  0  0  0  0  0
   -2.7777    2.5547    0.3851 H   0  0  0  0  0  0  0  0  0  0  0  0
   -0.7771    3.2760    1.5529 H   0  0  0  0  0  0  0  0  0  0  0  0
   -3.7305    0.8247   -0.8166 H   0  0  0  0  0  0  0  0  0  0  0  0
   -4.0966    0.3418    0.8412 H   0  0  0  0  0  0  0  0  0  0  0  0
   -2.5199   -1.2287    2.0591 H   0  0  0  0  0  0  0  0  0  0  0  0
   -1.0516   -1.7508    1.2302 H   0  0  0  0  0  0  0  0  0  0  0  0
   -4.8084   -2.1791    1.1588 H   0  0  0  0  0  0  0  0  0  0  0  0
   -5.4369   -0.8720   -0.8172 H   0  0  0  0  0  0  0  0  0  0  0  0
   -3.9911   -1.3877   -1.6831 H   0  0  0  0  0  0  0  0  0  0  0  0
   -2.3161   -3.0483   -0.3919 H   0  0  0  0  0  0  0  0  0  0  0  0
   -2.7610   -3.5271    1.2445 H   0  0  0  0  0  0  0  0  0  0  0  0
    0.2842    0.5492   -1.6236 H   0  0  0  0  0  0  0  0  0  0  0  0
    0.2681   -0.9991   -0.7548 H   0  0  0  0  0  0  0  0  0  0  0  0
   -1.2224    4.8939   -0.3522 H   0  0  0  0  0  0  0  0  0  0  0  0
   -0.0863    3.9512   -1.3610 H   0  0  0  0  0  0  0  0  0  0  0  0
   -4.5152   -3.8608   -1.3864 H   0  0  0  0  0  0  0  0  0  0  0  0
   -6.0412   -3.3759   -0.6273 H   0  0  0  0  0  0  0  0  0  0  0  0
   -4.9393   -4.4699    0.2227 H   0  0  0  0  0  0  0  0  0  0  0  0
   -2.1802    2.9045   -1.7193 H   0  0  0  0  0  0  0  0  0  0  0  0
    2.4988    0.8517   -1.1576 H   0  0  0  0  0  0  0  0  0  0  0  0
    0.9071    5.6915   -0.3298 H   0  0  0  0  0  0  0  0  0  0  0  0
    4.4569    0.1386   -0.8546 H   0  0  0  0  0  0  0  0  0  0  0  0
    4.8324   -2.0474    1.0960 H   0  0  0  0  0  0  0  0  0  0  0  0
    6.8707   -0.2030   -0.2569 H   0  0  0  0  0  0  0  0  0  0  0  0
    6.1893    0.0137    1.3590 H   0  0  0  0  0  0  0  0  0  0  0  0
    7.2238   -1.3845    1.0184 H   0  0  0  0  0  0  0  0  0  0  0  0
    5.9427   -2.1522   -1.7560 H   0  0  0  0  0  0  0  0  0  0  0  0
    4.6897   -3.2050   -1.0911 H   0  0  0  0  0  0  0  0  0  0  0  0
    6.3385   -3.2847   -0.4488 H   0  0  0  0  0  0  0  0  0  0  0  0
  1  9  1  0  0  0  0
  1 11  1  0  0  0  0
  2 10  1  0  0  0  0
  2 44  1  0  0  0  0
  3 18  1  0  0  0  0
  3 46  1  0  0  0  0
  4 20  2  0  0  0  0
  5  8  1  0  0  0  0
  5 12  1  0  0  0  0
  5 13  1  0  0  0  0
  6 17  1  0  0  0  0
  6 20  1  0  0  0  0
  6 45  1  0  0  0  0
  7 20  1  0  0  0  0
  7 21  1  0  0  0  0
  7 47  1  0  0  0  0
  8  9  1  0  0  0  0
  8 10  1  0  0  0  0
  8 24  1  0  0  0  0
  9 17  1  0  0  0  0
  9 25  1  0  0  0  0
 10 11  1  0  0  0  0
 10 26  1  0  0  0  0
 11 18  1  0  0  0  0
 11 27  1  0  0  0  0
 12 15  1  0  0  0  0
 12 28  1  0  0  0  0
 12 29  1  0  0  0  0
 13 16  1  0  0  0  0
 13 30  1  0  0  0  0
 13 31  1  0  0  0  0
 14 15  1  0  0  0  0
 14 16  1  0  0  0  0
 14 19  1  0  0  0  0
 14 32  1  0  0  0  0
 15 33  1  0  0  0  0
 15 34  1  0  0  0  0
 16 35  1  0  0  0  0
 16 36  1  0  0  0  0
 17 37  1  0  0  0  0
 17 38  1  0  0  0  0
 18 39  1  0  0  0  0
 18 40  1  0  0  0  0
 19 41  1  0  0  0  0
 19 42  1  0  0  0  0
 19 43  1  0  0  0  0
 21 22  1  0  0  0  0
 21 23  1  0  0  0  0
 21 48  1  0  0  0  0
 22 49  1  0  0  0  0
 22 50  1  0  0  0  0
 22 51  1  0  0  0  0
 23 52  1  0  0  0  0
 23 53  1  0  0  0  0
 23 54  1  0  0  0  0
M  END
> <PUBCHEM_COMPOUND_CID>
28962378

> <PUBCHEM_CONFORMER_RMSD>
1

> <PUBCHEM_CONFORMER_DIVERSEORDER>
1
43
57
29
10
72
54
81
79
32
15
20
63
16
76
39
31
47
65
34
60
71
9
7
64
56
27
62
77
55
3
35
22
66
50
14
69
6
19
8
23
12
17
48
80
61
26
52
30
28
75
4
11
13
68
51
78
41
2
59
36
45
58
67
5
25
21
70
53
40
42
49
24
73
33
44
18
38
46
37
74

> <PUBCHEM_MMFF94_PARTIAL_CHARGES>
21
1 -0.56
10 0.28
11 0.28
12 0.27
13 0.27
17 0.3
18 0.28
2 -0.68
20 0.69
21 0.3
3 -0.68
4 -0.57
44 0.4
45 0.37
46 0.4
47 0.37
5 -0.81
6 -0.73
7 -0.73
8 0.27
9 0.28

> <PUBCHEM_EFFECTIVE_ROTOR_COUNT>
9.2

> <PUBCHEM_PHARMACOPHORE_FEATURES>
12
1 1 acceptor
1 2 acceptor
1 2 donor
1 3 acceptor
1 3 donor
1 4 acceptor
1 5 cation
1 6 donor
1 7 donor
3 21 22 23 hydrophobe
5 1 8 9 10 11 rings
6 5 12 13 14 15 16 rings

> <PUBCHEM_HEAVY_ATOM_COUNT>
23

> <PUBCHEM_ATOM_DEF_STEREO_COUNT>
4

> <PUBCHEM_ATOM_UDEF_STEREO_COUNT>
0

> <PUBCHEM_BOND_DEF_STEREO_COUNT>
0

> <PUBCHEM_BOND_UDEF_STEREO_COUNT>
0

> <PUBCHEM_ISOTOPIC_ATOM_COUNT>
0

> <PUBCHEM_COMPONENT_COUNT>
1

> <PUBCHEM_CACTVS_TAUTO_COUNT>
3

> <PUBCHEM_CONFORMER_ID>
01B9EE4A00000001

> <PUBCHEM_MMFF94_ENERGY>
37.9013

> <PUBCHEM_FEATURE_SELFOVERLAP>
60.949

> <PUBCHEM_SHAPE_FINGERPRINT>
10411042 1 18411139177215399283
11045515 52 18259985963633735757
11056379 131 18195255416789130342
11265709 11 18410016545862766331
12107183 9 18270698536516394971
12363563 72 18339935899454267799
12553582 1 18266764478709889643
12788726 201 18116709621404161107
13533116 47 17839185457226083451
13631057 29 18409165502810440034
138480 1 15167702561011377529
13955234 65 17693945498281109809
13968360 50 17475226281381064765
14251740 79 18040715827268274787
14508225 48 18411130346973492621
14844126 61 18263367992612213339
14866123 147 18340774733075108219
15042514 8 18339651027210783729
15099037 37 18342177717958889230
15250474 111 18044935667645673778
15352361 1 18411702114199730531
16087824 20 18193840345947538553
17492 89 18051410970894545763
17539 30 18337950087107583773
20600515 1 18129960991556442493
20645477 70 17831570247933368587
21304303 282 17758376501253251805
21728266 224 18188482493924114330
23402539 116 18412543176423157783
23419403 2 17916848219027387969
23557571 272 18200314303900410996
23559900 14 18410282631781861760
255183 313 17982188733502128737
3178227 256 18264788567139088377
3421961 26 18196372748067490275
4280585 95 18337099146527168218
4409770 3 18190174582231930445
463206 1 18263086659544568211
474 4 8934183411093154471
5486654 36 18337402621028034755
5924683 9 18338797802156607866
633830 44 7853311803552399451
77188 2 18339644546042330677
7970288 3 18340768242563028551
9709674 26 17975692007288432691
9981440 41 17471575421635465032

> <PUBCHEM_SHAPE_MULTIPOLES>
434.91
11.44
5.27
0.92
15.38
5.8
-0.06
-15.61
-0.71
-2.56
-0.21
-0.08
-0.05
0.41

> <PUBCHEM_SHAPE_SELFOVERLAP>
871.15

> <PUBCHEM_SHAPE_VOLUME>
256.7

> <PUBCHEM_COORDINATE_TYPE>
2
5
10

$$$$
