9419192
  -OEChem-12032416163D

 47 50  0     1  0  0  0  0  0999 V2000
   -8.7750    1.0536    0.6238 F   0  0  0  0  0  0  0  0  0  0  0  0
   -6.8286    2.0397    0.5020 F   0  0  0  0  0  0  0  0  0  0  0  0
   -7.8519    1.3562   -1.3337 F   0  0  0  0  0  0  0  0  0  0  0  0
   -0.8274    1.4230   -1.1792 O   0  0  0  0  0  0  0  0  0  0  0  0
   -1.0421   -2.4176    1.4217 O   0  0  0  0  0  0  0  0  0  0  0  0
    5.7922   -1.3531   -1.4753 O   0  0  0  0  0  0  0  0  0  0  0  0
   -6.9787   -0.2051    0.0913 O   0  0  0  0  0  0  0  0  0  0  0  0
    0.6939   -1.1295    0.5782 N   0  0  0  0  0  0  0  0  0  0  0  0
   -1.3978   -0.4524    0.1486 N   0  0  0  0  0  0  0  0  0  0  0  0
    3.9570   -0.2502   -0.5852 N   0  0  0  0  0  0  0  0  0  0  0  0
    5.6188    1.4096    0.6615 N   0  0  0  0  0  0  0  0  0  0  0  0
    8.4055    1.2044    0.4190 N   0  0  0  0  0  0  0  0  0  0  0  0
    0.8884    0.0411   -0.2328 C   0  0  1  0  0  0  0  0  0  0  0  0
    1.6700   -0.2967   -1.4984 C   0  0  0  0  0  0  0  0  0  0  0  0
    2.9479   -1.0940   -1.1834 C   0  0  2  0  0  0  0  0  0  0  0  0
    2.6468   -2.3086   -0.2879 C   0  0  0  0  0  0  0  0  0  0  0  0
    1.8449   -1.9290    0.9584 C   0  0  0  0  0  0  0  0  0  0  0  0
   -0.5518    0.4369   -0.5069 C   0  0  0  0  0  0  0  0  0  0  0  0
   -0.6495   -1.4341    0.8059 C   0  0  0  0  0  0  0  0  0  0  0  0
   -2.8275   -0.3886    0.1342 C   0  0  0  0  0  0  0  0  0  0  0  0
    5.3127   -0.4565   -0.7864 C   0  0  0  0  0  0  0  0  0  0  0  0
   -3.4954    0.1403   -0.9731 C   0  0  0  0  0  0  0  0  0  0  0  0
   -3.5623   -0.8550    1.2274 C   0  0  0  0  0  0  0  0  0  0  0  0
    6.2226    0.4818   -0.0802 C   0  0  0  0  0  0  0  0  0  0  0  0
   -4.8889    0.2024   -0.9873 C   0  0  0  0  0  0  0  0  0  0  0  0
   -4.9557   -0.7930    1.2131 C   0  0  0  0  0  0  0  0  0  0  0  0
   -5.6191   -0.2643    0.1058 C   0  0  0  0  0  0  0  0  0  0  0  0
    7.5699    0.3590   -0.2161 C   0  0  0  0  0  0  0  0  0  0  0  0
    6.4545    2.2549    1.2967 C   0  0  0  0  0  0  0  0  0  0  0  0
    7.8231    2.1543    1.1776 C   0  0  0  0  0  0  0  0  0  0  0  0
   -7.5964    1.0704   -0.0394 C   0  0  0  0  0  0  0  0  0  0  0  0
    1.3740    0.8130    0.3732 H   0  0  0  0  0  0  0  0  0  0  0  0
    1.9102    0.6234   -2.0450 H   0  0  0  0  0  0  0  0  0  0  0  0
    1.0408   -0.8993   -2.1677 H   0  0  0  0  0  0  0  0  0  0  0  0
    3.3554   -1.4657   -2.1319 H   0  0  0  0  0  0  0  0  0  0  0  0
    3.5717   -2.8156    0.0104 H   0  0  0  0  0  0  0  0  0  0  0  0
    2.0601   -3.0294   -0.8723 H   0  0  0  0  0  0  0  0  0  0  0  0
    2.4529   -1.3284    1.6437 H   0  0  0  0  0  0  0  0  0  0  0  0
    1.5153   -2.8261    1.4917 H   0  0  0  0  0  0  0  0  0  0  0  0
    3.6608    0.4888    0.0459 H   0  0  0  0  0  0  0  0  0  0  0  0
   -2.9637    0.4819   -1.8557 H   0  0  0  0  0  0  0  0  0  0  0  0
   -3.0794   -1.2442    2.1186 H   0  0  0  0  0  0  0  0  0  0  0  0
   -5.3937    0.6035   -1.8619 H   0  0  0  0  0  0  0  0  0  0  0  0
   -5.5193   -1.1517    2.0701 H   0  0  0  0  0  0  0  0  0  0  0  0
    8.0516   -0.3981   -0.8218 H   0  0  0  0  0  0  0  0  0  0  0  0
    5.9873    3.0184    1.9064 H   0  0  0  0  0  0  0  0  0  0  0  0
    8.4938    2.8341    1.6882 H   0  0  0  0  0  0  0  0  0  0  0  0
  1 31  1  0  0  0  0
  2 31  1  0  0  0  0
  3 31  1  0  0  0  0
  4 18  2  0  0  0  0
  5 19  2  0  0  0  0
  6 21  2  0  0  0  0
  7 27  1  0  0  0  0
  7 31  1  0  0  0  0
  8 13  1  0  0  0  0
  8 17  1  0  0  0  0
  8 19  1  0  0  0  0
  9 18  1  0  0  0  0
  9 19  1  0  0  0  0
  9 20  1  0  0  0  0
 10 15  1  0  0  0  0
 10 21  1  0  0  0  0
 10 40  1  0  0  0  0
 11 24  2  0  0  0  0
 11 29  1  0  0  0  0
 12 28  2  0  0  0  0
 12 30  1  0  0  0  0
 13 14  1  0  0  0  0
 13 18  1  0  0  0  0
 13 32  1  0  0  0  0
 14 15  1  0  0  0  0
 14 33  1  0  0  0  0
 14 34  1  0  0  0  0
 15 16  1  0  0  0  0
 15 35  1  0  0  0  0
 16 17  1  0  0  0  0
 16 36  1  0  0  0  0
 16 37  1  0  0  0  0
 17 38  1  0  0  0  0
 17 39  1  0  0  0  0
 20 22  2  0  0  0  0
 20 23  1  0  0  0  0
 21 24  1  0  0  0  0
 22 25  1  0  0  0  0
 22 41  1  0  0  0  0
 23 26  2  0  0  0  0
 23 42  1  0  0  0  0
 24 28  1  0  0  0  0
 25 27  2  0  0  0  0
 25 43  1  0  0  0  0
 26 27  1  0  0  0  0
 26 44  1  0  0  0  0
 28 45  1  0  0  0  0
 29 30  2  0  0  0  0
 29 46  1  0  0  0  0
 30 47  1  0  0  0  0
M  END
> <PUBCHEM_COMPOUND_CID>
9419192

> <PUBCHEM_CONFORMER_RMSD>
1

> <PUBCHEM_CONFORMER_DIVERSEORDER>
1
19
10
5
8
20
7
18
14
6
13
2
11
17
3
9
12
15
16
4

> <PUBCHEM_MMFF94_PARTIAL_CHARGES>
37
1 -0.34
10 -0.73
11 -0.62
12 -0.62
13 0.36
15 0.3
17 0.3
18 0.57
19 0.69
2 -0.34
20 0.12
21 0.54
22 -0.15
23 -0.15
24 0.4
25 -0.15
26 -0.15
27 0.08
28 0.16
29 0.16
3 -0.34
30 0.16
31 1.3
4 -0.57
40 0.37
41 0.15
42 0.15
43 0.15
44 0.15
45 0.15
46 0.15
47 0.15
5 -0.57
6 -0.57
7 -0.36
8 -0.66
9 -0.24

> <PUBCHEM_EFFECTIVE_ROTOR_COUNT>
7

> <PUBCHEM_PHARMACOPHORE_FEATURES>
11
1 10 donor
1 11 acceptor
1 12 acceptor
1 4 acceptor
1 5 acceptor
1 6 acceptor
1 7 acceptor
5 8 9 13 18 19 rings
6 11 12 24 28 29 30 rings
6 20 22 23 25 26 27 rings
6 8 13 14 15 16 17 rings

> <PUBCHEM_HEAVY_ATOM_COUNT>
31

> <PUBCHEM_ATOM_DEF_STEREO_COUNT>
2

> <PUBCHEM_ATOM_UDEF_STEREO_COUNT>
0

> <PUBCHEM_BOND_DEF_STEREO_COUNT>
0

> <PUBCHEM_BOND_UDEF_STEREO_COUNT>
0

> <PUBCHEM_ISOTOPIC_ATOM_COUNT>
0

> <PUBCHEM_COMPONENT_COUNT>
1

> <PUBCHEM_CACTVS_TAUTO_COUNT>
2

> <PUBCHEM_CONFORMER_ID>
008FB9B800000001

> <PUBCHEM_MMFF94_ENERGY>
87.0102

> <PUBCHEM_FEATURE_SELFOVERLAP>
55.941

> <PUBCHEM_SHAPE_FINGERPRINT>
10835480 77 18343866619031673931
11135926 11 17167853167419667755
11181472 205 17416417455061047329
11211813 74 18272931596533335281
11315181 36 17132119048596972819
11409948 35 18188771631988092210
11409948 41 15984278327440639156
12166972 35 9511452321634074863
12236239 1 15769783455525483542
12522641 24 18336540522561077314
12838862 33 17821718439143815511
13383668 254 17917164866171489035
13533116 47 18260543378271215178
13673619 4 9511466619585269734
13782708 43 8430327814008191136
14028597 1 15574704768682018489
14040221 8 15841274753951968593
14251764 18 14851604401845982590
14344974 52 18343298189960648805
14429380 56 17704349987878656952
14675020 138 16950563260069845218
15131766 46 17559379457287706120
15276724 80 18059861597620699233
15352257 5 8646769993234424680
15439362 3 17128438020843058568
17093844 174 18334297578895518083
1754911 235 17346882256049859756
18335252 114 17275106146285296576
19301679 30 14491015097003946136
20157964 124 17917716808213582278
2026 5 9006798483529173800
20554085 129 18113334219892238706
20771845 171 15769786727926839940
21033648 29 18114184150601275906
21150785 3 16128657448712611217
21365058 113 10303815402113809466
21521721 280 18343584031690328998
21792934 111 17822283540316825594
22224240 67 18408320016922990174
23522609 53 15338021739813802706
23576562 1 14476378500629939553
246663 6 9439405730895455988
24771293 8 18334573576855503373
34797466 226 17846783988252354958
4093350 32 18060139821533585166
4325135 7 17132116844893537348
4340502 62 18040715857628438598
444735 82 18341617044586736612
4625314 4 17989489628138575318
4760202 170 18201993322776707345
504579 68 15554445206130380625
5104073 3 17750510680924757160
5265222 85 17918270974621676295
5385378 56 17676485008397359226
5758199 1 18260830388879995371
58902169 19 16845568760456625716
5937810 71 17845942823598709089
59682541 35 18187086174117127609
636775 72 18335421249504233925
6475588 51 18270121180906065977

> <PUBCHEM_SHAPE_MULTIPOLES>
567.76
25.64
2.06
1.33
4.23
0.05
0.04
17.94
-2.25
-1.89
-0.63
-0.16
-0.13
2.58

> <PUBCHEM_SHAPE_SELFOVERLAP>
1241.394

> <PUBCHEM_SHAPE_VOLUME>
307.3

> <PUBCHEM_COORDINATE_TYPE>
2
5
10

$$$$
