26743040
  -OEChem-12032416193D

 61 63  0     1  0  0  0  0  0999 V2000
    1.4986   -2.8995   -0.5329 O   0  0  0  0  0  0  0  0  0  0  0  0
   -6.3563   -0.6263   -1.2901 O   0  0  0  0  0  0  0  0  0  0  0  0
   -8.0000    1.7441   -0.4399 O   0  0  0  0  0  0  0  0  0  0  0  0
    5.1295    2.4490    0.7641 O   0  0  0  0  0  0  0  0  0  0  0  0
    6.6085    1.6592   -1.4528 O   0  0  0  0  0  0  0  0  0  0  0  0
   -1.2448    1.9368    0.6008 N   0  0  0  0  0  0  0  0  0  0  0  0
    2.1138   -1.7774    1.4070 N   0  0  0  0  0  0  0  0  0  0  0  0
   -5.0662   -1.1384   -1.3562 N   0  0  0  0  0  0  0  0  0  0  0  0
   -0.7017   -0.7826   -0.4077 C   0  0  1  0  0  0  0  0  0  0  0  0
   -2.1347   -0.2492   -0.1709 C   0  0  2  0  0  0  0  0  0  0  0  0
    0.2442    0.4072   -0.6423 C   0  0  0  0  0  0  0  0  0  0  0  0
   -2.1631    0.8412    0.9134 C   0  0  0  0  0  0  0  0  0  0  0  0
    0.1311    1.4670    0.4526 C   0  0  0  0  0  0  0  0  0  0  0  0
   -3.1398   -1.3553    0.1532 C   0  0  0  0  0  0  0  0  0  0  0  0
   -0.1772   -1.6828    0.7174 C   0  0  0  0  0  0  0  0  0  0  0  0
   -4.5457   -0.9215   -0.1450 C   0  0  0  0  0  0  0  0  0  0  0  0
    1.2177   -2.1986    0.4355 C   0  0  0  0  0  0  0  0  0  0  0  0
   -5.4520   -0.2820    0.7186 C   0  0  0  0  0  0  0  0  0  0  0  0
   -6.5742   -0.1191   -0.0499 C   0  0  0  0  0  0  0  0  0  0  0  0
    3.5164   -2.1242    1.3904 C   0  0  0  0  0  0  0  0  0  0  0  0
   -7.8975    0.4667    0.1953 C   0  0  0  0  0  0  0  0  0  0  0  0
    4.3354   -1.1167    0.6364 C   0  0  0  0  0  0  0  0  0  0  0  0
    4.3549    0.2154    1.0494 C   0  0  0  0  0  0  0  0  0  0  0  0
    5.0779   -1.5131   -0.4760 C   0  0  0  0  0  0  0  0  0  0  0  0
    5.1170    1.1512    0.3501 C   0  0  0  0  0  0  0  0  0  0  0  0
    5.8400   -0.5774   -1.1753 C   0  0  0  0  0  0  0  0  0  0  0  0
    5.8596    0.7550   -0.7621 C   0  0  0  0  0  0  0  0  0  0  0  0
   -9.2725    2.3278   -0.2151 C   0  0  0  0  0  0  0  0  0  0  0  0
    4.3430    2.7712    1.9096 C   0  0  0  0  0  0  0  0  0  0  0  0
    7.3380    1.1721   -2.5777 C   0  0  0  0  0  0  0  0  0  0  0  0
   -0.7103   -1.3797   -1.3303 H   0  0  0  0  0  0  0  0  0  0  0  0
   -2.4418    0.2263   -1.1157 H   0  0  0  0  0  0  0  0  0  0  0  0
   -0.0174    0.8715   -1.6034 H   0  0  0  0  0  0  0  0  0  0  0  0
    1.2870    0.0899   -0.7459 H   0  0  0  0  0  0  0  0  0  0  0  0
   -3.1636    1.2774    0.9873 H   0  0  0  0  0  0  0  0  0  0  0  0
   -1.9280    0.4252    1.9004 H   0  0  0  0  0  0  0  0  0  0  0  0
    0.5076    1.0832    1.4077 H   0  0  0  0  0  0  0  0  0  0  0  0
    0.7646    2.3203    0.1859 H   0  0  0  0  0  0  0  0  0  0  0  0
   -2.9225   -2.2474   -0.4488 H   0  0  0  0  0  0  0  0  0  0  0  0
   -3.0666   -1.6614    1.2042 H   0  0  0  0  0  0  0  0  0  0  0  0
   -0.8100   -2.5725    0.8197 H   0  0  0  0  0  0  0  0  0  0  0  0
   -0.2195   -1.1706    1.6841 H   0  0  0  0  0  0  0  0  0  0  0  0
   -1.2850    2.6333    1.3443 H   0  0  0  0  0  0  0  0  0  0  0  0
   -5.3139    0.0148    1.7478 H   0  0  0  0  0  0  0  0  0  0  0  0
    1.7931   -1.1812    2.1640 H   0  0  0  0  0  0  0  0  0  0  0  0
    3.6263   -3.1259    0.9596 H   0  0  0  0  0  0  0  0  0  0  0  0
    3.8604   -2.1740    2.4296 H   0  0  0  0  0  0  0  0  0  0  0  0
   -8.6764   -0.1979   -0.1971 H   0  0  0  0  0  0  0  0  0  0  0  0
   -8.0602    0.5861    1.2731 H   0  0  0  0  0  0  0  0  0  0  0  0
    3.7633    0.4649    1.9238 H   0  0  0  0  0  0  0  0  0  0  0  0
    5.0711   -2.5477   -0.8088 H   0  0  0  0  0  0  0  0  0  0  0  0
    6.3909   -0.9567   -2.0289 H   0  0  0  0  0  0  0  0  0  0  0  0
   -9.4399    2.4871    0.8546 H   0  0  0  0  0  0  0  0  0  0  0  0
   -9.3009    3.2978   -0.7190 H   0  0  0  0  0  0  0  0  0  0  0  0
  -10.0646    1.6973   -0.6304 H   0  0  0  0  0  0  0  0  0  0  0  0
    4.4682    3.8433    2.0946 H   0  0  0  0  0  0  0  0  0  0  0  0
    4.7010    2.2510    2.8045 H   0  0  0  0  0  0  0  0  0  0  0  0
    3.2759    2.6035    1.7272 H   0  0  0  0  0  0  0  0  0  0  0  0
    7.8754    2.0243   -3.0067 H   0  0  0  0  0  0  0  0  0  0  0  0
    6.6699    0.7922   -3.3582 H   0  0  0  0  0  0  0  0  0  0  0  0
    8.0935    0.4367   -2.2810 H   0  0  0  0  0  0  0  0  0  0  0  0
  1 17  2  0  0  0  0
  2  8  1  0  0  0  0
  2 19  1  0  0  0  0
  3 21  1  0  0  0  0
  3 28  1  0  0  0  0
  4 25  1  0  0  0  0
  4 29  1  0  0  0  0
  5 27  1  0  0  0  0
  5 30  1  0  0  0  0
  6 12  1  0  0  0  0
  6 13  1  0  0  0  0
  6 43  1  0  0  0  0
  7 17  1  0  0  0  0
  7 20  1  0  0  0  0
  7 45  1  0  0  0  0
  8 16  2  0  0  0  0
  9 10  1  0  0  0  0
  9 11  1  0  0  0  0
  9 15  1  0  0  0  0
  9 31  1  0  0  0  0
 10 12  1  0  0  0  0
 10 14  1  0  0  0  0
 10 32  1  0  0  0  0
 11 13  1  0  0  0  0
 11 33  1  0  0  0  0
 11 34  1  0  0  0  0
 12 35  1  0  0  0  0
 12 36  1  0  0  0  0
 13 37  1  0  0  0  0
 13 38  1  0  0  0  0
 14 16  1  0  0  0  0
 14 39  1  0  0  0  0
 14 40  1  0  0  0  0
 15 17  1  0  0  0  0
 15 41  1  0  0  0  0
 15 42  1  0  0  0  0
 16 18  1  0  0  0  0
 18 19  2  0  0  0  0
 18 44  1  0  0  0  0
 19 21  1  0  0  0  0
 20 22  1  0  0  0  0
 20 46  1  0  0  0  0
 20 47  1  0  0  0  0
 21 48  1  0  0  0  0
 21 49  1  0  0  0  0
 22 23  2  0  0  0  0
 22 24  1  0  0  0  0
 23 25  1  0  0  0  0
 23 50  1  0  0  0  0
 24 26  2  0  0  0  0
 24 51  1  0  0  0  0
 25 27  2  0  0  0  0
 26 27  1  0  0  0  0
 26 52  1  0  0  0  0
 28 53  1  0  0  0  0
 28 54  1  0  0  0  0
 28 55  1  0  0  0  0
 29 56  1  0  0  0  0
 29 57  1  0  0  0  0
 29 58  1  0  0  0  0
 30 59  1  0  0  0  0
 30 60  1  0  0  0  0
 30 61  1  0  0  0  0
M  END
> <PUBCHEM_COMPOUND_CID>
26743040

> <PUBCHEM_CONFORMER_RMSD>
1.2

> <PUBCHEM_CONFORMER_DIVERSEORDER>
3
39
15
60
8
108
80
106
9
70
45
117
119
50
16
99
28
12
38
110
78
21
56
88
2
13
40
46
68
42
67
61
22
14
53
114
109
31
41
44
49
82
77
92
111
105
1
29
95
96
57
20
63
103
26
118
10
37
71
66
81
85
47
73
18
115
33
69
84
5
58
43
91
34
27
11
54
104
30
19
74
35
75
93
17
51
62
120
36
97
121
52
59
116
113
107
87
79
94
55
48
100
23
89
98
90
65
86
76
7
24
25
32
83
101
6
112
102
72
4
64

> <PUBCHEM_MMFF94_PARTIAL_CHARGES>
33
1 -0.57
12 0.27
13 0.27
14 0.18
15 0.06
16 0.11
17 0.57
18 -0.15
19 -0.04
2 -0.02
20 0.44
21 0.46
22 -0.14
23 -0.15
24 -0.15
25 0.08
26 -0.15
27 0.08
28 0.28
29 0.28
3 -0.56
30 0.28
4 -0.36
43 0.36
44 0.15
45 0.37
5 -0.36
50 0.15
51 0.15
52 0.15
6 -0.9
7 -0.73
8 -0.41

> <PUBCHEM_EFFECTIVE_ROTOR_COUNT>
12.2

> <PUBCHEM_PHARMACOPHORE_FEATURES>
11
1 1 acceptor
1 3 acceptor
1 4 acceptor
1 5 acceptor
1 6 cation
1 6 donor
1 7 donor
1 8 acceptor
5 2 8 16 18 19 rings
6 22 23 24 25 26 27 rings
6 6 9 10 11 12 13 rings

> <PUBCHEM_HEAVY_ATOM_COUNT>
30

> <PUBCHEM_ATOM_DEF_STEREO_COUNT>
2

> <PUBCHEM_ATOM_UDEF_STEREO_COUNT>
0

> <PUBCHEM_BOND_DEF_STEREO_COUNT>
0

> <PUBCHEM_BOND_UDEF_STEREO_COUNT>
0

> <PUBCHEM_ISOTOPIC_ATOM_COUNT>
0

> <PUBCHEM_COMPONENT_COUNT>
1

> <PUBCHEM_CACTVS_TAUTO_COUNT>
2

> <PUBCHEM_CONFORMER_ID>
0198110000000003

> <PUBCHEM_MMFF94_ENERGY>
70.7314

> <PUBCHEM_FEATURE_SELFOVERLAP>
55.827

> <PUBCHEM_SHAPE_FINGERPRINT>
10165383 225 18114184155887818694
10906281 52 18410863131631427323
11181472 205 17986960644542610953
11211813 74 18410849946181996689
12717326 120 13181868482016776237
13533116 47 18410290298884131842
13617811 41 18187644747410048012
13782708 43 13110959859969261183
13899415 154 18272652363407915915
14114211 68 18113911468261377026
14528608 73 18413385458180751610
14537116 161 18201721747667335276
14840074 17 18410572903009986919
14849402 71 18186805799132482293
14931854 50 18339936978334863804
15064981 113 16558463086227188821
15183329 4 17703796924443708643
15276724 80 18265892467885401541
15461852 350 17489577971489843191
15575132 122 18409446960147852159
15840311 113 18411135827631220269
1768 124 8286202755638663904
1979834 28 11314299552139965448
2026 5 12463301267101617213
21521721 280 17603868880027834131
21792934 111 18337657621003205282
221357 26 18202571679230473504
23569917 315 8862943909425809681
24771293 8 18266445693568861728
255183 451 17771069289845432630
4073 2 17821733840833898483
4340502 62 16008744701881733122
444735 82 18113339678674430397
504579 68 18131072623381052077
53794403 172 18045504377092034700
552612 73 18262786377354142949
6328613 192 18272084990381893689
6438161 24 12031788037397110406

> <PUBCHEM_SHAPE_MULTIPOLES>
573.1
24.17
2.75
1.51
34.49
0.36
0.34
13.98
8.47
-1.88
-0.71
-2.93
0.44
-0.56

> <PUBCHEM_SHAPE_SELFOVERLAP>
1190.664

> <PUBCHEM_SHAPE_VOLUME>
326.3

> <PUBCHEM_COORDINATE_TYPE>
2
5
10

$$$$
