11911871
  -OEChem-12032416253D

 63 67  0     1  0  0  0  0  0999 V2000
   -0.4186    0.5516    2.3437 O   0  0  0  0  0  0  0  0  0  0  0  0
   -1.8817    3.2401    1.7370 O   0  0  0  0  0  0  0  0  0  0  0  0
   -5.3682    0.8092    0.9365 O   0  0  0  0  0  0  0  0  0  0  0  0
   -3.4694   -0.9017   -3.1184 O   0  0  0  0  0  0  0  0  0  0  0  0
   -4.2184    0.7954   -1.8049 O   0  0  0  0  0  0  0  0  0  0  0  0
   -3.2764   -0.1160    1.3200 N   0  0  0  0  0  0  0  0  0  0  0  0
    0.6179    3.0768   -0.0807 N   0  0  0  0  0  0  0  0  0  0  0  0
    2.4115    1.5970   -0.3963 N   0  0  0  0  0  0  0  0  0  0  0  0
    1.7831    3.1640   -2.1157 N   0  0  0  0  0  0  0  0  0  0  0  0
    6.5682   -3.0089    0.9048 N   0  0  0  0  0  0  0  0  0  0  0  0
   -1.9550    1.9269    1.1575 C   0  0  1  0  0  0  0  0  0  0  0  0
   -0.5511    1.3542    1.1584 C   0  0  1  0  0  0  0  0  0  0  0  0
   -2.7324    0.9965    2.0604 C   0  0  2  0  0  0  0  0  0  0  0  0
    0.3432    2.5684    1.2454 C   0  0  2  0  0  0  0  0  0  0  0  0
   -1.6712    0.5367    3.0443 C   0  0  0  0  0  0  0  0  0  0  0  0
   -0.5104    3.5558    2.0198 C   0  0  0  0  0  0  0  0  0  0  0  0
   -4.5681   -0.1146    0.8134 C   0  0  0  0  0  0  0  0  0  0  0  0
    1.6343    2.5983   -0.8884 C   0  0  0  0  0  0  0  0  0  0  0  0
   -4.9871   -1.3469    0.0971 C   0  0  0  0  0  0  0  0  0  0  0  0
   -4.7803   -1.4660   -1.2624 C   0  0  0  0  0  0  0  0  0  0  0  0
    3.3927    1.1548   -1.2098 C   0  0  0  0  0  0  0  0  0  0  0  0
   -5.5807   -2.3495    0.8390 C   0  0  0  0  0  0  0  0  0  0  0  0
    2.7837    2.6737   -2.8765 C   0  0  0  0  0  0  0  0  0  0  0  0
    3.6280    1.6600   -2.4722 C   0  0  0  0  0  0  0  0  0  0  0  0
    4.2049    0.0914   -0.6686 C   0  0  0  0  0  0  0  0  0  0  0  0
   -5.1834   -2.6353   -1.9074 C   0  0  0  0  0  0  0  0  0  0  0  0
   -5.9838   -3.5187    0.1939 C   0  0  0  0  0  0  0  0  0  0  0  0
   -4.1548   -0.4121   -2.0505 C   0  0  0  0  0  0  0  0  0  0  0  0
   -5.7852   -3.6617   -1.1792 C   0  0  0  0  0  0  0  0  0  0  0  0
    5.5417   -0.0350   -1.0526 C   0  0  0  0  0  0  0  0  0  0  0  0
    3.6560   -0.8164    0.2400 C   0  0  0  0  0  0  0  0  0  0  0  0
    6.3257   -1.0639   -0.5308 C   0  0  0  0  0  0  0  0  0  0  0  0
    4.4402   -1.8452    0.7619 C   0  0  0  0  0  0  0  0  0  0  0  0
    5.7750   -1.9690    0.3765 C   0  0  0  0  0  0  0  0  0  0  0  0
    6.3153   -3.5199    2.2373 C   0  0  0  0  0  0  0  0  0  0  0  0
    7.6550   -3.5701    0.1276 C   0  0  0  0  0  0  0  0  0  0  0  0
   -2.3723    2.0357    0.1515 H   0  0  0  0  0  0  0  0  0  0  0  0
   -0.3595    0.7005    0.3014 H   0  0  0  0  0  0  0  0  0  0  0  0
   -3.5491    1.5021    2.5869 H   0  0  0  0  0  0  0  0  0  0  0  0
    1.2755    2.3918    1.7941 H   0  0  0  0  0  0  0  0  0  0  0  0
   -1.5831    1.2381    3.8812 H   0  0  0  0  0  0  0  0  0  0  0  0
   -1.8481   -0.4638    3.4506 H   0  0  0  0  0  0  0  0  0  0  0  0
   -0.3668    3.4336    3.0990 H   0  0  0  0  0  0  0  0  0  0  0  0
   -0.3204    4.6033    1.7659 H   0  0  0  0  0  0  0  0  0  0  0  0
   -2.6756   -0.9147    1.1349 H   0  0  0  0  0  0  0  0  0  0  0  0
    0.0123    3.7863   -0.4776 H   0  0  0  0  0  0  0  0  0  0  0  0
   -5.7385   -2.2452    1.9085 H   0  0  0  0  0  0  0  0  0  0  0  0
    2.8873    3.1298   -3.8552 H   0  0  0  0  0  0  0  0  0  0  0  0
    4.3962    1.2981   -3.1434 H   0  0  0  0  0  0  0  0  0  0  0  0
   -5.0554   -2.7726   -2.9780 H   0  0  0  0  0  0  0  0  0  0  0  0
   -6.4530   -4.3176    0.7608 H   0  0  0  0  0  0  0  0  0  0  0  0
   -6.1021   -4.5710   -1.6817 H   0  0  0  0  0  0  0  0  0  0  0  0
    6.0184    0.6639   -1.7349 H   0  0  0  0  0  0  0  0  0  0  0  0
    2.6156   -0.7563    0.5509 H   0  0  0  0  0  0  0  0  0  0  0  0
    7.3662   -1.1221   -0.8377 H   0  0  0  0  0  0  0  0  0  0  0  0
    3.9774   -2.5417    1.4553 H   0  0  0  0  0  0  0  0  0  0  0  0
   -3.0509   -0.1860   -3.6429 H   0  0  0  0  0  0  0  0  0  0  0  0
    7.1863   -4.0597    2.6256 H   0  0  0  0  0  0  0  0  0  0  0  0
    6.1061   -2.7095    2.9448 H   0  0  0  0  0  0  0  0  0  0  0  0
    5.4716   -4.2178    2.2316 H   0  0  0  0  0  0  0  0  0  0  0  0
    8.5395   -2.9262    0.1756 H   0  0  0  0  0  0  0  0  0  0  0  0
    7.9443   -4.5562    0.5081 H   0  0  0  0  0  0  0  0  0  0  0  0
    7.3687   -3.7095   -0.9211 H   0  0  0  0  0  0  0  0  0  0  0  0
  1 12  1  0  0  0  0
  1 15  1  0  0  0  0
  2 11  1  0  0  0  0
  2 16  1  0  0  0  0
  3 17  2  0  0  0  0
  4 28  1  0  0  0  0
  4 57  1  0  0  0  0
  5 28  2  0  0  0  0
  6 13  1  0  0  0  0
  6 17  1  0  0  0  0
  6 45  1  0  0  0  0
  7 14  1  0  0  0  0
  7 18  1  0  0  0  0
  7 46  1  0  0  0  0
  8 18  1  0  0  0  0
  8 21  2  0  0  0  0
  9 18  2  0  0  0  0
  9 23  1  0  0  0  0
 10 34  1  0  0  0  0
 10 35  1  0  0  0  0
 10 36  1  0  0  0  0
 11 12  1  0  0  0  0
 11 13  1  0  0  0  0
 11 37  1  0  0  0  0
 12 14  1  0  0  0  0
 12 38  1  0  0  0  0
 13 15  1  0  0  0  0
 13 39  1  0  0  0  0
 14 16  1  0  0  0  0
 14 40  1  0  0  0  0
 15 41  1  0  0  0  0
 15 42  1  0  0  0  0
 16 43  1  0  0  0  0
 16 44  1  0  0  0  0
 17 19  1  0  0  0  0
 19 20  1  0  0  0  0
 19 22  2  0  0  0  0
 20 26  2  0  0  0  0
 20 28  1  0  0  0  0
 21 24  1  0  0  0  0
 21 25  1  0  0  0  0
 22 27  1  0  0  0  0
 22 47  1  0  0  0  0
 23 24  2  0  0  0  0
 23 48  1  0  0  0  0
 24 49  1  0  0  0  0
 25 30  2  0  0  0  0
 25 31  1  0  0  0  0
 26 29  1  0  0  0  0
 26 50  1  0  0  0  0
 27 29  2  0  0  0  0
 27 51  1  0  0  0  0
 29 52  1  0  0  0  0
 30 32  1  0  0  0  0
 30 53  1  0  0  0  0
 31 33  2  0  0  0  0
 31 54  1  0  0  0  0
 32 34  2  0  0  0  0
 32 55  1  0  0  0  0
 33 34  1  0  0  0  0
 33 56  1  0  0  0  0
 35 58  1  0  0  0  0
 35 59  1  0  0  0  0
 35 60  1  0  0  0  0
 36 61  1  0  0  0  0
 36 62  1  0  0  0  0
 36 63  1  0  0  0  0
M  END
> <PUBCHEM_COMPOUND_CID>
11911871

> <PUBCHEM_CONFORMER_RMSD>
1

> <PUBCHEM_CONFORMER_DIVERSEORDER>
1
40
70
43
76
65
27
18
61
86
60
38
63
52
49
15
92
78
34
96
87
36
89
31
12
84
21
81
51
22
17
66
72
24
73
32
85
97
46
41
58
83
54
90
99
26
16
10
3
53
14
69
50
45
20
19
59
28
37
11
93
77
98
71
7
4
30
39
29
74
67
68
95
5
80
56
79
25
55
35
48
88
64
75
91
13
94
42
100
47
2
82
44
33
62
23
6
57
8
9

> <PUBCHEM_MMFF94_PARTIAL_CHARGES>
48
1 -0.56
10 -0.84
11 0.28
12 0.28
13 0.3
14 0.37
15 0.28
16 0.28
17 0.54
18 0.72
19 0.09
2 -0.56
20 0.09
21 0.31
22 -0.15
23 0.16
24 -0.15
26 -0.15
27 -0.15
28 0.63
29 -0.15
3 -0.57
30 -0.15
31 -0.15
32 -0.15
33 -0.15
34 0.1
35 0.37
36 0.37
4 -0.65
45 0.37
46 0.4
47 0.15
48 0.15
49 0.15
5 -0.57
50 0.15
51 0.15
52 0.15
53 0.15
54 0.15
55 0.15
56 0.15
57 0.5
6 -0.73
7 -0.87
8 -0.62
9 -0.62

> <PUBCHEM_EFFECTIVE_ROTOR_COUNT>
9.2

> <PUBCHEM_PHARMACOPHORE_FEATURES>
16
1 1 acceptor
1 10 cation
1 2 acceptor
1 3 acceptor
1 4 acceptor
1 5 acceptor
1 6 donor
1 7 donor
1 8 acceptor
3 4 5 28 anion
4 7 8 9 18 cation
5 1 11 12 13 15 rings
5 2 11 12 14 16 rings
6 19 20 22 26 27 29 rings
6 25 30 31 32 33 34 rings
6 8 9 18 21 23 24 rings

> <PUBCHEM_HEAVY_ATOM_COUNT>
36

> <PUBCHEM_ATOM_DEF_STEREO_COUNT>
4

> <PUBCHEM_ATOM_UDEF_STEREO_COUNT>
0

> <PUBCHEM_BOND_DEF_STEREO_COUNT>
0

> <PUBCHEM_BOND_UDEF_STEREO_COUNT>
0

> <PUBCHEM_ISOTOPIC_ATOM_COUNT>
0

> <PUBCHEM_COMPONENT_COUNT>
1

> <PUBCHEM_CACTVS_TAUTO_COUNT>
6

> <PUBCHEM_CONFORMER_ID>
00B5C2BF00000001

> <PUBCHEM_MMFF94_ENERGY>
132.7917

> <PUBCHEM_FEATURE_SELFOVERLAP>
81.964

> <PUBCHEM_SHAPE_FINGERPRINT>
10556698 54 15864887929329808399
10622 236 18408045091591824122
10908659 184 17844824757327287255
10928967 22 17986390203770697383
11135609 149 18261382390788336212
11227150 75 18337941364187456010
11478447 58 17980754154143546582
11497681 19 18339647746900463054
11607047 403 18127118900729183000
11621639 183 15696883510720686888
11828042 74 17389389212787570534
12166972 35 18335137626462964214
12422481 6 16056883550038937421
13636023 20 17821993316634002152
14068700 675 18411420575262325360
14340393 91 17823119190860887887
14480069 147 18337680835913765539
15320294 125 18271815575441105229
15419009 47 17969774181866926445
18603816 31 18192147088558843856
19303781 99 18333735706235772194
19304152 47 13326566312054068762
19304671 126 16153703292964917325
19315092 285 18338240478162127388
20775438 99 17973437995134067346
208703 8 18201449102795018022
21033650 10 13335031563423932696
21458453 9 15123497147304616848
25019877 29 15085163451786487264
25025965 108 17534616016258357682
392239 28 14405189447489099669
4015057 19 17822303425741281569
4017518 198 17184758991730202172
4112364 45 9582982176171476211
42767 28 17168408433734294383
437795 139 18343014506072950952
437795 70 15719392836669903286
4394409 98 18059568058676375581
439807 62 18338523066411053723
44880168 125 17762907563719215898
46194498 28 15865505910820654908
4756261 7 14473540734101126502
50009960 94 17916566731055018202
57527295 17 18196112133742506425
6058803 2 18194994935413362648
613672 6 16988574493749524869
6636735 143 14476693996485699939
66674814 147 18334296461529372738
6677587 24 16812626485085350405
6691757 9 17843410570456745665
6700243 42 16011295745373384467
96874 4 18412262843808066634

> <PUBCHEM_SHAPE_MULTIPOLES>
686.61
18.84
5.18
2.98
9.88
1.11
0.51
27.21
2.37
2.16
-0.63
-1.1
-1.39
-6.25

> <PUBCHEM_SHAPE_SELFOVERLAP>
1506.308

> <PUBCHEM_SHAPE_VOLUME>
370.2

> <PUBCHEM_COORDINATE_TYPE>
2
5
10

$$$$
