11885121
  -OEChem-12032416113D

 53 57  0     1  0  0  0  0  0999 V2000
   -1.1634   -1.9990    1.4332 O   0  0  0  0  0  0  0  0  0  0  0  0
    2.9237    0.8729    2.4865 O   0  0  0  0  0  0  0  0  0  0  0  0
   -6.7947    0.5436    0.4087 O   0  0  0  0  0  0  0  0  0  0  0  0
    3.4435   -0.3500    0.5609 N   0  0  0  0  0  0  0  0  0  0  0  0
    0.7161   -1.8610    0.0591 N   0  0  0  0  0  0  0  0  0  0  0  0
    1.8297    4.1996   -0.9763 N   0  0  0  0  0  0  0  0  0  0  0  0
    3.0015   -2.7891    0.7535 C   0  0  1  0  0  0  0  0  0  0  0  0
    2.7427   -1.6677   -1.4231 C   0  0  2  0  0  0  0  0  0  0  0  0
    3.2367   -2.9447   -0.7451 C   0  0  0  0  0  0  0  0  0  0  0  0
    3.7739   -1.5717    1.2941 C   0  0  0  0  0  0  0  0  0  0  0  0
    1.4926   -2.6748    1.0063 C   0  0  0  0  0  0  0  0  0  0  0  0
    3.5502   -0.4606   -0.9033 C   0  0  0  0  0  0  0  0  0  0  0  0
    1.2669   -1.4429   -1.1549 C   0  0  0  0  0  0  0  0  0  0  0  0
    0.5042   -0.8074   -2.0587 C   0  0  0  0  0  0  0  0  0  0  0  0
   -0.6315   -1.6179    0.3890 C   0  0  0  0  0  0  0  0  0  0  0  0
    3.0136    0.7784    1.2634 C   0  0  0  0  0  0  0  0  0  0  0  0
   -1.4482   -0.8618   -0.6238 C   0  0  0  0  0  0  0  0  0  0  0  0
   -0.8723   -0.5097   -1.7829 C   0  0  0  0  0  0  0  0  0  0  0  0
    2.6057    1.9571    0.4915 C   0  0  0  0  0  0  0  0  0  0  0  0
   -2.8480   -0.4943   -0.3530 C   0  0  0  0  0  0  0  0  0  0  0  0
    1.2834    2.1028    0.0959 C   0  0  0  0  0  0  0  0  0  0  0  0
    3.5427    2.9254    0.1581 C   0  0  0  0  0  0  0  0  0  0  0  0
   -3.8806   -1.3568   -0.7225 C   0  0  0  0  0  0  0  0  0  0  0  0
   -3.1430    0.7175    0.2728 C   0  0  0  0  0  0  0  0  0  0  0  0
    0.9488    3.2341   -0.6310 C   0  0  0  0  0  0  0  0  0  0  0  0
    3.1071    4.0197   -0.5717 C   0  0  0  0  0  0  0  0  0  0  0  0
   -5.2066   -1.0079   -0.4664 C   0  0  0  0  0  0  0  0  0  0  0  0
   -4.4691    1.0661    0.5289 C   0  0  0  0  0  0  0  0  0  0  0  0
   -5.5009    0.2035    0.1593 C   0  0  0  0  0  0  0  0  0  0  0  0
   -7.0247    1.7967    1.0515 C   0  0  0  0  0  0  0  0  0  0  0  0
    3.3733   -3.6777    1.2784 H   0  0  0  0  0  0  0  0  0  0  0  0
    2.9155   -1.7630   -2.5029 H   0  0  0  0  0  0  0  0  0  0  0  0
    2.7030   -3.8222   -1.1312 H   0  0  0  0  0  0  0  0  0  0  0  0
    4.3027   -3.1004   -0.9511 H   0  0  0  0  0  0  0  0  0  0  0  0
    3.5807   -1.4464    2.3647 H   0  0  0  0  0  0  0  0  0  0  0  0
    4.8527   -1.7316    1.1770 H   0  0  0  0  0  0  0  0  0  0  0  0
    1.0521   -3.6802    0.9606 H   0  0  0  0  0  0  0  0  0  0  0  0
    1.3011   -2.3077    2.0226 H   0  0  0  0  0  0  0  0  0  0  0  0
    4.6144   -0.5935   -1.1341 H   0  0  0  0  0  0  0  0  0  0  0  0
    3.2307    0.4564   -1.4043 H   0  0  0  0  0  0  0  0  0  0  0  0
    0.9117   -0.4592   -3.0021 H   0  0  0  0  0  0  0  0  0  0  0  0
   -1.4163    0.0405   -2.5450 H   0  0  0  0  0  0  0  0  0  0  0  0
    0.5271    1.3728    0.3576 H   0  0  0  0  0  0  0  0  0  0  0  0
    4.5827    2.8379    0.4531 H   0  0  0  0  0  0  0  0  0  0  0  0
   -3.6672   -2.3049   -1.2101 H   0  0  0  0  0  0  0  0  0  0  0  0
   -2.3487    1.3996    0.5671 H   0  0  0  0  0  0  0  0  0  0  0  0
   -6.0063   -1.6841   -0.7565 H   0  0  0  0  0  0  0  0  0  0  0  0
   -4.6265    2.0214    1.0179 H   0  0  0  0  0  0  0  0  0  0  0  0
   -0.0714    3.3992   -0.9616 H   0  0  0  0  0  0  0  0  0  0  0  0
    3.7975    4.8058   -0.8595 H   0  0  0  0  0  0  0  0  0  0  0  0
   -6.6869    2.6345    0.4322 H   0  0  0  0  0  0  0  0  0  0  0  0
   -6.5877    1.8200    2.0556 H   0  0  0  0  0  0  0  0  0  0  0  0
   -8.1077    1.9043    1.1716 H   0  0  0  0  0  0  0  0  0  0  0  0
  1 15  2  0  0  0  0
  2 16  2  0  0  0  0
  3 29  1  0  0  0  0
  3 30  1  0  0  0  0
  4 10  1  0  0  0  0
  4 12  1  0  0  0  0
  4 16  1  0  0  0  0
  5 11  1  0  0  0  0
  5 13  1  0  0  0  0
  5 15  1  0  0  0  0
  6 25  2  0  0  0  0
  6 26  1  0  0  0  0
  7  9  1  0  0  0  0
  7 10  1  0  0  0  0
  7 11  1  0  0  0  0
  7 31  1  0  0  0  0
  8  9  1  0  0  0  0
  8 12  1  0  0  0  0
  8 13  1  0  0  0  0
  8 32  1  0  0  0  0
  9 33  1  0  0  0  0
  9 34  1  0  0  0  0
 10 35  1  0  0  0  0
 10 36  1  0  0  0  0
 11 37  1  0  0  0  0
 11 38  1  0  0  0  0
 12 39  1  0  0  0  0
 12 40  1  0  0  0  0
 13 14  2  0  0  0  0
 14 18  1  0  0  0  0
 14 41  1  0  0  0  0
 15 17  1  0  0  0  0
 16 19  1  0  0  0  0
 17 18  2  0  0  0  0
 17 20  1  0  0  0  0
 18 42  1  0  0  0  0
 19 21  2  0  0  0  0
 19 22  1  0  0  0  0
 20 23  2  0  0  0  0
 20 24  1  0  0  0  0
 21 25  1  0  0  0  0
 21 43  1  0  0  0  0
 22 26  2  0  0  0  0
 22 44  1  0  0  0  0
 23 27  1  0  0  0  0
 23 45  1  0  0  0  0
 24 28  2  0  0  0  0
 24 46  1  0  0  0  0
 25 49  1  0  0  0  0
 26 50  1  0  0  0  0
 27 29  2  0  0  0  0
 27 47  1  0  0  0  0
 28 29  1  0  0  0  0
 28 48  1  0  0  0  0
 30 51  1  0  0  0  0
 30 52  1  0  0  0  0
 30 53  1  0  0  0  0
M  END
> <PUBCHEM_COMPOUND_CID>
11885121

> <PUBCHEM_CONFORMER_RMSD>
0.8

> <PUBCHEM_CONFORMER_DIVERSEORDER>
1
6
5
3
4
2
7

> <PUBCHEM_MMFF94_PARTIAL_CHARGES>
38
1 -0.57
10 0.3
11 0.3
12 0.3
13 -0.03
14 -0.15
15 0.62
16 0.54
17 -0.01
18 -0.15
19 0.09
2 -0.57
20 0.03
21 -0.15
22 -0.15
23 -0.15
24 -0.15
25 0.16
26 0.16
27 -0.15
28 -0.15
29 0.08
3 -0.36
30 0.28
4 -0.66
41 0.15
42 0.15
43 0.15
44 0.15
45 0.15
46 0.15
47 0.15
48 0.15
49 0.15
5 -0.47
50 0.15
6 -0.62
8 0.14

> <PUBCHEM_EFFECTIVE_ROTOR_COUNT>
5

> <PUBCHEM_PHARMACOPHORE_FEATURES>
9
1 1 acceptor
1 2 acceptor
1 3 acceptor
1 6 acceptor
6 20 23 24 27 28 29 rings
6 4 7 8 9 10 12 rings
6 5 13 14 15 17 18 rings
6 5 7 8 9 11 13 rings
6 6 19 21 22 25 26 rings

> <PUBCHEM_HEAVY_ATOM_COUNT>
30

> <PUBCHEM_ATOM_DEF_STEREO_COUNT>
2

> <PUBCHEM_ATOM_UDEF_STEREO_COUNT>
0

> <PUBCHEM_BOND_DEF_STEREO_COUNT>
0

> <PUBCHEM_BOND_UDEF_STEREO_COUNT>
0

> <PUBCHEM_ISOTOPIC_ATOM_COUNT>
0

> <PUBCHEM_COMPONENT_COUNT>
1

> <PUBCHEM_CACTVS_TAUTO_COUNT>
1

> <PUBCHEM_CONFORMER_ID>
00B55A4100000001

> <PUBCHEM_MMFF94_ENERGY>
98.9993

> <PUBCHEM_FEATURE_SELFOVERLAP>
47.268

> <PUBCHEM_SHAPE_FINGERPRINT>
10074138 170 15305874927769429011
10165383 225 17967542298275067278
10483366 6 18337689589621598396
10674148 151 18200319956917019972
10937287 8 17760928841603986020
11421498 54 17825391774111397746
11578080 2 18117580602344197291
12156800 1 14977180591190454384
12422481 6 17912045458069586226
12633257 1 17896859123403925154
12788726 201 17830749647007888694
133893 2 18127719130080341664
13965767 371 17772723101298262778
14251764 38 18265616657637874555
14849402 71 18335142007529877452
15163728 17 18046359796605031932
15238133 3 18408605838548860406
15420108 30 18057589053494470774
15475509 84 17324351918397846683
17818456 19 17846503578422479785
17899979 19 17558860389272949628
20691752 17 18114174242285491983
20715895 44 17915744181057891569
20739085 24 18410281532950839320
21033648 29 17385433311853122645
21475661 188 18337675316315975908
21859007 373 17678162825483587709
21860390 5 18413388748104270222
23559900 14 18343590620349724015
3411729 13 18341054107037662829
345986 75 17607233269228071330
397830 11 18187942724557529707
4058900 60 18044665432070329668
44280116 191 12815761655584770283
474 4 18338510962412089183
5104073 3 18337122224388717763
513532 50 17275109444308600460
5283268 108 18338795602917074280
5895379 119 17272872925819606393
6086070 43 17972850641413431079
9896288 288 17469609971775937216
9981440 41 17977949308479931401

> <PUBCHEM_SHAPE_MULTIPOLES>
584.83
11.63
4.37
1.58
25.55
4.01
-0.05
3.18
-3.12
-5.92
0.44
-0.99
-0.33
-0.97

> <PUBCHEM_SHAPE_SELFOVERLAP>
1293.72

> <PUBCHEM_SHAPE_VOLUME>
307.2

> <PUBCHEM_COORDINATE_TYPE>
2
5
10

$$$$
