25389088
  -OEChem-12032416163D

 62 65  0     1  0  0  0  0  0999 V2000
   -4.8131   -0.6498    0.8688 O   0  0  0  0  0  0  0  0  0  0  0  0
   -0.8182   -2.8997    0.5767 N   0  0  2  0  0  0  0  0  0  0  0  0
    3.6760   -1.3353    0.4838 N   0  0  0  0  0  0  0  0  0  0  0  0
   -2.7269    0.3386    0.6044 N   0  0  0  0  0  0  0  0  0  0  0  0
    4.4264   -0.2338    0.6573 N   0  0  0  0  0  0  0  0  0  0  0  0
   -4.6316    1.4725   -0.0513 N   0  0  0  0  0  0  0  0  0  0  0  0
    0.4358   -1.9721   -1.5090 C   0  0  2  0  0  0  0  0  0  0  0  0
    1.4238   -2.1786   -0.3276 C   0  0  2  0  0  0  0  0  0  0  0  0
   -1.5342   -1.7127    0.0394 C   0  0  2  0  0  0  0  0  0  0  0  0
   -0.7005   -1.0272   -1.0644 C   0  0  0  0  0  0  0  0  0  0  0  0
    0.5773   -2.5359    0.9275 C   0  0  0  0  0  0  0  0  0  0  0  0
   -0.2046   -3.3465   -1.7990 C   0  0  0  0  0  0  0  0  0  0  0  0
   -0.7741   -3.9260   -0.4923 C   0  0  0  0  0  0  0  0  0  0  0  0
    2.4435   -1.0848   -0.0441 C   0  0  0  0  0  0  0  0  0  0  0  0
   -1.9414   -0.7303    1.1396 C   0  0  0  0  0  0  0  0  0  0  0  0
    2.3833    0.2749   -0.2285 C   0  0  0  0  0  0  0  0  0  0  0  0
    4.1196    2.1777    0.2477 C   0  0  0  0  0  0  0  0  0  0  0  0
    3.6314    0.7465    0.2203 C   0  0  0  0  0  0  0  0  0  0  0  0
    4.1673    2.8114   -1.1541 C   0  0  0  0  0  0  0  0  0  0  0  0
    3.2617    3.1296    1.1069 C   0  0  0  0  0  0  0  0  0  0  0  0
    3.7813    4.2662   -0.9341 C   0  0  0  0  0  0  0  0  0  0  0  0
    2.7163    4.1787    0.1447 C   0  0  0  0  0  0  0  0  0  0  0  0
    4.2160   -2.6223    0.8559 C   0  0  0  0  0  0  0  0  0  0  0  0
   -4.1231    0.3019    0.5059 C   0  0  0  0  0  0  0  0  0  0  0  0
   -6.0434    1.6894   -0.2628 C   0  0  0  0  0  0  0  0  0  0  0  0
   -6.2667    2.5649   -1.4890 C   0  0  0  0  0  0  0  0  0  0  0  0
   -6.6818    2.3027    0.9772 C   0  0  0  0  0  0  0  0  0  0  0  0
    0.9441   -1.5814   -2.3967 H   0  0  0  0  0  0  0  0  0  0  0  0
    2.0095   -3.0718   -0.5925 H   0  0  0  0  0  0  0  0  0  0  0  0
   -2.4706   -2.0682   -0.4161 H   0  0  0  0  0  0  0  0  0  0  0  0
   -1.3492   -0.8137   -1.9236 H   0  0  0  0  0  0  0  0  0  0  0  0
   -0.3066   -0.0670   -0.7286 H   0  0  0  0  0  0  0  0  0  0  0  0
    1.0429   -3.3854    1.4444 H   0  0  0  0  0  0  0  0  0  0  0  0
    0.5857   -1.7242    1.6642 H   0  0  0  0  0  0  0  0  0  0  0  0
   -1.0021   -3.2364   -2.5438 H   0  0  0  0  0  0  0  0  0  0  0  0
    0.5382   -4.0347   -2.2189 H   0  0  0  0  0  0  0  0  0  0  0  0
   -0.1718   -4.7817   -0.1614 H   0  0  0  0  0  0  0  0  0  0  0  0
   -1.7800   -4.3262   -0.6694 H   0  0  0  0  0  0  0  0  0  0  0  0
   -1.0727   -0.2712    1.6221 H   0  0  0  0  0  0  0  0  0  0  0  0
   -2.5211   -1.2462    1.9137 H   0  0  0  0  0  0  0  0  0  0  0  0
    1.5746    0.8614   -0.6347 H   0  0  0  0  0  0  0  0  0  0  0  0
    5.1375    2.1851    0.6629 H   0  0  0  0  0  0  0  0  0  0  0  0
    5.1597    2.7193   -1.6079 H   0  0  0  0  0  0  0  0  0  0  0  0
    3.4516    2.3435   -1.8409 H   0  0  0  0  0  0  0  0  0  0  0  0
    3.9030    3.6193    1.8506 H   0  0  0  0  0  0  0  0  0  0  0  0
    2.4563    2.6285    1.6538 H   0  0  0  0  0  0  0  0  0  0  0  0
   -2.2456    1.1687    0.2721 H   0  0  0  0  0  0  0  0  0  0  0  0
    3.4116    4.7405   -1.8476 H   0  0  0  0  0  0  0  0  0  0  0  0
    4.6441    4.8383   -0.5733 H   0  0  0  0  0  0  0  0  0  0  0  0
    1.7686    3.8350   -0.2866 H   0  0  0  0  0  0  0  0  0  0  0  0
    2.5390    5.1396    0.6360 H   0  0  0  0  0  0  0  0  0  0  0  0
    4.3482   -3.2169   -0.0511 H   0  0  0  0  0  0  0  0  0  0  0  0
    5.1822   -2.4827    1.3487 H   0  0  0  0  0  0  0  0  0  0  0  0
    3.5239   -3.1089    1.5466 H   0  0  0  0  0  0  0  0  0  0  0  0
   -3.9871    2.2320   -0.2495 H   0  0  0  0  0  0  0  0  0  0  0  0
   -6.5144    0.7157   -0.4446 H   0  0  0  0  0  0  0  0  0  0  0  0
   -7.3355    2.7067   -1.6799 H   0  0  0  0  0  0  0  0  0  0  0  0
   -5.8212    2.1071   -2.3791 H   0  0  0  0  0  0  0  0  0  0  0  0
   -5.8088    3.5524   -1.3624 H   0  0  0  0  0  0  0  0  0  0  0  0
   -7.7567    2.4520    0.8311 H   0  0  0  0  0  0  0  0  0  0  0  0
   -6.5469    1.6537    1.8493 H   0  0  0  0  0  0  0  0  0  0  0  0
   -6.2316    3.2726    1.2166 H   0  0  0  0  0  0  0  0  0  0  0  0
  1 24  2  0  0  0  0
  2  9  1  0  0  0  0
  2 11  1  0  0  0  0
  2 13  1  0  0  0  0
  3  5  1  0  0  0  0
  3 14  1  0  0  0  0
  3 23  1  0  0  0  0
  4 15  1  0  0  0  0
  4 24  1  0  0  0  0
  4 47  1  0  0  0  0
  5 18  2  0  0  0  0
  6 24  1  0  0  0  0
  6 25  1  0  0  0  0
  6 55  1  0  0  0  0
  7  8  1  0  0  0  0
  7 10  1  0  0  0  0
  7 12  1  0  0  0  0
  7 28  1  0  0  0  0
  8 11  1  0  0  0  0
  8 14  1  0  0  0  0
  8 29  1  0  0  0  0
  9 10  1  0  0  0  0
  9 15  1  0  0  0  0
  9 30  1  0  0  0  0
 10 31  1  0  0  0  0
 10 32  1  0  0  0  0
 11 33  1  0  0  0  0
 11 34  1  0  0  0  0
 12 13  1  0  0  0  0
 12 35  1  0  0  0  0
 12 36  1  0  0  0  0
 13 37  1  0  0  0  0
 13 38  1  0  0  0  0
 14 16  2  0  0  0  0
 15 39  1  0  0  0  0
 15 40  1  0  0  0  0
 16 18  1  0  0  0  0
 16 41  1  0  0  0  0
 17 18  1  0  0  0  0
 17 19  1  0  0  0  0
 17 20  1  0  0  0  0
 17 42  1  0  0  0  0
 19 21  1  0  0  0  0
 19 43  1  0  0  0  0
 19 44  1  0  0  0  0
 20 22  1  0  0  0  0
 20 45  1  0  0  0  0
 20 46  1  0  0  0  0
 21 22  1  0  0  0  0
 21 48  1  0  0  0  0
 21 49  1  0  0  0  0
 22 50  1  0  0  0  0
 22 51  1  0  0  0  0
 23 52  1  0  0  0  0
 23 53  1  0  0  0  0
 23 54  1  0  0  0  0
 25 26  1  0  0  0  0
 25 27  1  0  0  0  0
 25 56  1  0  0  0  0
 26 57  1  0  0  0  0
 26 58  1  0  0  0  0
 26 59  1  0  0  0  0
 27 60  1  0  0  0  0
 27 61  1  0  0  0  0
 27 62  1  0  0  0  0
M  END
> <PUBCHEM_COMPOUND_CID>
25389088

> <PUBCHEM_CONFORMER_RMSD>
1

> <PUBCHEM_CONFORMER_DIVERSEORDER>
1
43
52
14
58
44
32
69
87
60
75
97
84
31
9
89
36
110
94
38
22
107
90
53
13
48
101
30
51
62
11
28
5
42
3
61
85
29
7
83
47
111
23
76
19
8
21
63
73
57
102
50
54
4
77
67
93
6
17
59
74
96
70
64
15
33
104
26
88
37
105
71
34
41
24
16
27
45
86
98
18
108
40
39
20
35
79
10
56
46
65
55
95
2
49
92
91
82
112
103
78
106
81
68
12
109
100
72
66
80
99
25

> <PUBCHEM_MMFF94_PARTIAL_CHARGES>
21
1 -0.57
11 0.27
13 0.27
14 -0.33
15 0.3
16 -0.15
17 0.18
18 0.11
2 -0.81
23 0.26
24 0.69
25 0.3
3 0.31
4 -0.73
41 0.15
47 0.37
5 -0.71
55 0.37
6 -0.73
8 0.18
9 0.27

> <PUBCHEM_EFFECTIVE_ROTOR_COUNT>
9.2

> <PUBCHEM_PHARMACOPHORE_FEATURES>
9
1 1 acceptor
1 2 cation
1 4 donor
1 5 acceptor
1 6 donor
3 25 26 27 hydrophobe
5 17 19 20 21 22 rings
5 3 5 14 16 18 rings
8 2 7 8 9 10 11 12 13 rings

> <PUBCHEM_HEAVY_ATOM_COUNT>
27

> <PUBCHEM_ATOM_DEF_STEREO_COUNT>
3

> <PUBCHEM_ATOM_UDEF_STEREO_COUNT>
0

> <PUBCHEM_BOND_DEF_STEREO_COUNT>
0

> <PUBCHEM_BOND_UDEF_STEREO_COUNT>
0

> <PUBCHEM_ISOTOPIC_ATOM_COUNT>
0

> <PUBCHEM_COMPONENT_COUNT>
1

> <PUBCHEM_CACTVS_TAUTO_COUNT>
3

> <PUBCHEM_CONFORMER_ID>
0183682000000001

> <PUBCHEM_MMFF94_ENERGY>
47.0715

> <PUBCHEM_FEATURE_SELFOVERLAP>
45.719

> <PUBCHEM_SHAPE_FINGERPRINT>
10673678 19 18342181047054552417
10763959 59 18410016498670737142
10811444 77 18336816499473486869
10871710 139 17619636116982017222
10937287 8 18340206409215460651
12293681 4 16679773044867428239
12403259 118 18339633533635336450
12769317 202 18342170025809677161
13878862 14 18189597406898438709
13944108 23 18122074099971708133
14117953 113 18341332180637710324
14251764 30 10303817592509401349
14251764 75 18339372962602338273
15082195 135 18270944796855401999
15979999 66 17838625456860342150
18335252 114 18267295443920304727
19304152 47 17683256020128938280
20715895 44 18340204081781218369
21315764 268 18188205399850877757
21388113 180 18335701629074211373
21475661 188 18335420162122341603
21716022 299 14619118006175053279
21860390 5 18200601267734420278
21864079 5 17978793742495837472
22950370 63 8934999287412801055
23379529 103 9690486354161683213
23466295 7 9077747786350075233
23559900 14 18196376914423891211
245318 6 18189351202293740213
2838139 119 18411416258535277911
3298306 158 18341612676372667337
3388396 114 16540450172668856108
376196 1 18408044005144862227
4066623 53 17910691864930368670
474 4 18271527494536089835
5109719 28 18339377296867548177
6371009 1 18270391694534581425
7288768 16 17606397915553185482

> <PUBCHEM_SHAPE_MULTIPOLES>
524.87
13.16
5.99
1.32
21.48
2.18
0.35
16.39
-1.06
-4.23
1.27
0.38
-0.16
-0.54

> <PUBCHEM_SHAPE_SELFOVERLAP>
1095.742

> <PUBCHEM_SHAPE_VOLUME>
297.7

> <PUBCHEM_COORDINATE_TYPE>
2
5
10

$$$$
