51138172
  -OEChem-12032416323D

 63 66  0     1  0  0  0  0  0999 V2000
   -3.3054    0.9288    1.3492 O   0  0  0  0  0  0  0  0  0  0  0  0
   -4.7582   -4.7394   -0.3046 O   0  0  0  0  0  0  0  0  0  0  0  0
   -1.0172    1.7783    0.4916 N   0  0  0  0  0  0  0  0  0  0  0  0
   -3.4087   -0.7934   -0.2070 N   0  0  0  0  0  0  0  0  0  0  0  0
    3.1190   -1.0532    1.1065 N   0  0  0  0  0  0  0  0  0  0  0  0
   -0.0005    2.3612   -0.3941 C   0  0  2  0  0  0  0  0  0  0  0  0
   -1.2878    0.3666    0.2604 C   0  0  1  0  0  0  0  0  0  0  0  0
   -0.5043   -0.5203    1.2262 C   0  0  0  0  0  0  0  0  0  0  0  0
    1.4144    1.7900   -0.2560 C   0  0  0  0  0  0  0  0  0  0  0  0
    1.7435    0.5592    0.3821 C   0  0  0  0  0  0  0  0  0  0  0  0
    0.9741   -0.4676    1.0314 C   0  0  0  0  0  0  0  0  0  0  0  0
   -0.0568    3.8730   -0.1095 C   0  0  0  0  0  0  0  0  0  0  0  0
   -2.7538    0.1999    0.5207 C   0  0  0  0  0  0  0  0  0  0  0  0
    3.0789    0.1423    0.4287 C   0  0  0  0  0  0  0  0  0  0  0  0
   -2.7785   -1.6750   -1.1986 C   0  0  0  0  0  0  0  0  0  0  0  0
   -4.8516   -0.9859   -0.0417 C   0  0  0  0  0  0  0  0  0  0  0  0
   -1.2600    4.5603   -0.7625 C   0  0  0  0  0  0  0  0  0  0  0  0
   -3.0628   -3.1394   -0.8777 C   0  0  0  0  0  0  0  0  0  0  0  0
   -5.1714   -2.4370    0.3011 C   0  0  0  0  0  0  0  0  0  0  0  0
   -4.5623   -3.3943   -0.7244 C   0  0  0  0  0  0  0  0  0  0  0  0
    1.8600   -1.4318    1.4680 C   0  0  0  0  0  0  0  0  0  0  0  0
    2.4889    2.4831   -0.8695 C   0  0  0  0  0  0  0  0  0  0  0  0
    4.1296    0.8629   -0.1414 C   0  0  0  0  0  0  0  0  0  0  0  0
    3.8084    2.0396   -0.8058 C   0  0  0  0  0  0  0  0  0  0  0  0
   -1.2016    6.0621   -0.4731 C   0  0  0  0  0  0  0  0  0  0  0  0
   -2.5958    3.9927   -0.2807 C   0  0  0  0  0  0  0  0  0  0  0  0
    4.3121   -1.8230    1.3872 C   0  0  0  0  0  0  0  0  0  0  0  0
    4.7927   -2.5457    0.2027 C   0  0  0  0  0  0  0  0  0  0  0  0
    5.1878   -3.1373   -0.7650 C   0  0  0  0  0  0  0  0  0  0  0  0
    5.6674   -3.8566   -1.9441 C   0  0  0  0  0  0  0  0  0  0  0  0
   -0.2959    2.1957   -1.4394 H   0  0  0  0  0  0  0  0  0  0  0  0
   -1.0542    0.1520   -0.7835 H   0  0  0  0  0  0  0  0  0  0  0  0
   -0.7301   -0.2485    2.2669 H   0  0  0  0  0  0  0  0  0  0  0  0
   -0.8363   -1.5611    1.1150 H   0  0  0  0  0  0  0  0  0  0  0  0
   -0.7923    1.9551    1.4699 H   0  0  0  0  0  0  0  0  0  0  0  0
    0.8320    4.3927   -0.4786 H   0  0  0  0  0  0  0  0  0  0  0  0
   -0.0501    4.0605    0.9746 H   0  0  0  0  0  0  0  0  0  0  0  0
   -3.1935   -1.4092   -2.1779 H   0  0  0  0  0  0  0  0  0  0  0  0
   -1.6982   -1.5616   -1.2620 H   0  0  0  0  0  0  0  0  0  0  0  0
   -5.2468   -0.3262    0.7371 H   0  0  0  0  0  0  0  0  0  0  0  0
   -5.3294   -0.7004   -0.9863 H   0  0  0  0  0  0  0  0  0  0  0  0
   -1.2022    4.4294   -1.8506 H   0  0  0  0  0  0  0  0  0  0  0  0
   -2.5475   -3.4248    0.0491 H   0  0  0  0  0  0  0  0  0  0  0  0
   -2.6529   -3.7871   -1.6618 H   0  0  0  0  0  0  0  0  0  0  0  0
   -6.2565   -2.5843    0.3536 H   0  0  0  0  0  0  0  0  0  0  0  0
   -4.7848   -2.6787    1.2999 H   0  0  0  0  0  0  0  0  0  0  0  0
   -5.0568   -3.2689   -1.6950 H   0  0  0  0  0  0  0  0  0  0  0  0
    1.6832   -2.3566    2.0016 H   0  0  0  0  0  0  0  0  0  0  0  0
    2.3062    3.3849   -1.4492 H   0  0  0  0  0  0  0  0  0  0  0  0
    5.1575    0.5201   -0.0952 H   0  0  0  0  0  0  0  0  0  0  0  0
    4.5931    2.6148   -1.2900 H   0  0  0  0  0  0  0  0  0  0  0  0
   -0.2660    6.4961   -0.8415 H   0  0  0  0  0  0  0  0  0  0  0  0
   -2.0258    6.5866   -0.9684 H   0  0  0  0  0  0  0  0  0  0  0  0
   -1.2700    6.2635    0.6015 H   0  0  0  0  0  0  0  0  0  0  0  0
   -3.4194    4.6439   -0.5975 H   0  0  0  0  0  0  0  0  0  0  0  0
   -2.8073    3.0172   -0.7268 H   0  0  0  0  0  0  0  0  0  0  0  0
   -2.6438    3.9245    0.8110 H   0  0  0  0  0  0  0  0  0  0  0  0
    4.0814   -2.5255    2.1960 H   0  0  0  0  0  0  0  0  0  0  0  0
    5.0731   -1.1338    1.7692 H   0  0  0  0  0  0  0  0  0  0  0  0
   -5.7156   -4.8792   -0.2077 H   0  0  0  0  0  0  0  0  0  0  0  0
    6.5159   -4.4989   -1.6899 H   0  0  0  0  0  0  0  0  0  0  0  0
    4.8776   -4.4874   -2.3631 H   0  0  0  0  0  0  0  0  0  0  0  0
    5.9915   -3.1577   -2.7210 H   0  0  0  0  0  0  0  0  0  0  0  0
  1 13  2  0  0  0  0
  2 20  1  0  0  0  0
  2 60  1  0  0  0  0
  3  6  1  0  0  0  0
  3  7  1  0  0  0  0
  3 35  1  0  0  0  0
  4 13  1  0  0  0  0
  4 15  1  0  0  0  0
  4 16  1  0  0  0  0
  5 14  1  0  0  0  0
  5 21  1  0  0  0  0
  5 27  1  0  0  0  0
  6  9  1  0  0  0  0
  6 12  1  0  0  0  0
  6 31  1  0  0  0  0
  7  8  1  0  0  0  0
  7 13  1  0  0  0  0
  7 32  1  0  0  0  0
  8 11  1  0  0  0  0
  8 33  1  0  0  0  0
  8 34  1  0  0  0  0
  9 10  2  0  0  0  0
  9 22  1  0  0  0  0
 10 11  1  0  0  0  0
 10 14  1  0  0  0  0
 11 21  2  0  0  0  0
 12 17  1  0  0  0  0
 12 36  1  0  0  0  0
 12 37  1  0  0  0  0
 14 23  2  0  0  0  0
 15 18  1  0  0  0  0
 15 38  1  0  0  0  0
 15 39  1  0  0  0  0
 16 19  1  0  0  0  0
 16 40  1  0  0  0  0
 16 41  1  0  0  0  0
 17 25  1  0  0  0  0
 17 26  1  0  0  0  0
 17 42  1  0  0  0  0
 18 20  1  0  0  0  0
 18 43  1  0  0  0  0
 18 44  1  0  0  0  0
 19 20  1  0  0  0  0
 19 45  1  0  0  0  0
 19 46  1  0  0  0  0
 20 47  1  0  0  0  0
 21 48  1  0  0  0  0
 22 24  2  0  0  0  0
 22 49  1  0  0  0  0
 23 24  1  0  0  0  0
 23 50  1  0  0  0  0
 24 51  1  0  0  0  0
 25 52  1  0  0  0  0
 25 53  1  0  0  0  0
 25 54  1  0  0  0  0
 26 55  1  0  0  0  0
 26 56  1  0  0  0  0
 26 57  1  0  0  0  0
 27 28  1  0  0  0  0
 27 58  1  0  0  0  0
 27 59  1  0  0  0  0
 28 29  3  0  0  0  0
 29 30  1  0  0  0  0
 30 61  1  0  0  0  0
 30 62  1  0  0  0  0
 30 63  1  0  0  0  0
M  END
> <PUBCHEM_COMPOUND_CID>
51138172

> <PUBCHEM_CONFORMER_RMSD>
0.8

> <PUBCHEM_CONFORMER_DIVERSEORDER>
1
126
11
35
115
53
3
105
141
28
91
131
133
64
97
37
88
111
66
125
119
58
63
139
27
50
47
10
124
30
54
51
46
140
86
87
79
60
62
81
106
49
100
143
15
135
103
134
102
16
109
25
7
72
67
142
17
110
39
29
40
59
38
83
45
99
48
76
117
23
5
32
136
70
74
80
43
89
75
95
12
33
19
112
84
42
24
123
21
114
138
18
120
82
101
26
8
129
98
56
34
90
96
92
13
104
108
44
61
107
127
57
137
68
73
36
130
116
22
93
9
4
122
31
6
20
85
52
2
65
144
113
78
14
41
132
128
118
71
55
77
121
69
94

> <PUBCHEM_MMFF94_PARTIAL_CHARGES>
29
1 -0.57
11 -0.18
13 0.57
14 -0.15
15 0.3
16 0.3
2 -0.68
20 0.28
21 -0.3
22 -0.15
23 -0.15
24 -0.15
27 0.46
28 -0.2
29 -0.2
3 -0.9
30 0.2
35 0.36
4 -0.66
48 0.15
49 0.15
5 0.05
50 0.15
51 0.15
6 0.41
60 0.4
7 0.33
8 0.18
9 -0.14

> <PUBCHEM_EFFECTIVE_ROTOR_COUNT>
7

> <PUBCHEM_PHARMACOPHORE_FEATURES>
12
1 1 acceptor
1 2 acceptor
1 2 donor
1 3 cation
1 3 donor
1 30 hydrophobe
1 5 cation
3 17 25 26 hydrophobe
5 5 10 11 14 21 rings
6 4 15 16 18 19 20 rings
6 9 10 14 22 23 24 rings
7 3 6 7 8 9 10 11 rings

> <PUBCHEM_HEAVY_ATOM_COUNT>
30

> <PUBCHEM_ATOM_DEF_STEREO_COUNT>
2

> <PUBCHEM_ATOM_UDEF_STEREO_COUNT>
0

> <PUBCHEM_BOND_DEF_STEREO_COUNT>
0

> <PUBCHEM_BOND_UDEF_STEREO_COUNT>
0

> <PUBCHEM_ISOTOPIC_ATOM_COUNT>
0

> <PUBCHEM_COMPONENT_COUNT>
1

> <PUBCHEM_CACTVS_TAUTO_COUNT>
1

> <PUBCHEM_CONFORMER_ID>
030C4E7C00000001

> <PUBCHEM_MMFF94_ENERGY>
64.0576

> <PUBCHEM_FEATURE_SELFOVERLAP>
61.026

> <PUBCHEM_SHAPE_FINGERPRINT>
10042902 136 18342182124885875094
10940486 97 18046637711539475996
11014199 57 18410289224556920827
11227688 84 18046093667667977442
11513181 2 18410022022452334916
11578080 2 18058144203323806648
117089 54 18270129018577919607
11763715 3 18262536860611188997
12107183 9 18340778139263618939
12422481 6 17560801000545786678
13009979 54 18201446856432072898
13540713 5 17896320217321342592
13690498 29 18264221214057561662
13692114 37 17978206289480634117
13757389 114 17759814641509785636
13911987 19 17608668432956549452
14117953 113 18268708317169027567
15230672 131 17473831624197277910
15664445 248 18124041392830063252
16090146 7 17479745918596037256
17492 89 18341332270605559790
17909252 39 18341611581345534282
18393751 57 17695886110814607608
20028762 73 18195245749150342212
21307412 95 17409374971379550174
22849339 104 17979642234369816830
23379529 103 18341896264457534726
4017518 198 17546719353291192006
44280117 145 18265893563524451370
46194498 28 17096919390102343639
463206 1 18116994596647517691
508706 21 18127125265016088646
6669772 16 17112694250930237701
70251023 43 18408608050098322010
7164475 11 18408599258374373024
7970288 3 18269555107914834023

> <PUBCHEM_SHAPE_MULTIPOLES>
590.7
11.25
7.47
1.28
4.59
5.79
0
-16.43
-2.41
-5.74
-3.25
1.03
-0.79
0.1

> <PUBCHEM_SHAPE_SELFOVERLAP>
1250.552

> <PUBCHEM_SHAPE_VOLUME>
329.7

> <PUBCHEM_COORDINATE_TYPE>
2
5
10

$$$$
