7128128
  -OEChem-12032416393D

 65 66  0     1  0  0  0  0  0999 V2000
   -4.0548    4.6216   -0.5776 S   0  0  0  0  0  0  0  0  0  0  0  0
   -3.4516    0.5812    0.9896 O   0  0  0  0  0  0  0  0  0  0  0  0
   -2.4824    2.1013   -2.1146 O   0  0  0  0  0  0  0  0  0  0  0  0
    1.6117   -1.1568    0.8833 O   0  0  0  0  0  0  0  0  0  0  0  0
   -4.5462   -3.9273   -1.1288 O   0  0  0  0  0  0  0  0  0  0  0  0
   -2.6503   -3.0340   -2.0727 O   0  0  0  0  0  0  0  0  0  0  0  0
    7.8520    0.3307   -0.8289 O   0  0  0  0  0  0  0  0  0  0  0  0
   -1.6491    2.2986    0.0360 N   0  0  0  0  0  0  0  0  0  0  0  0
    1.0624    1.0842    1.0278 N   0  0  0  0  0  0  0  0  0  0  0  0
   -2.3674   -1.1846   -0.0714 N   0  0  0  0  0  0  0  0  0  0  0  0
    3.2060    0.5089    0.4420 N   0  0  0  0  0  0  0  0  0  0  0  0
   -0.3177    0.8943    1.4065 C   0  0  2  0  0  0  0  0  0  0  0  0
   -1.2293    0.9082    0.1794 C   0  0  1  0  0  0  0  0  0  0  0  0
   -0.8315    2.0675    2.2455 C   0  0  0  0  0  0  0  0  0  0  0  0
   -1.2799    3.0883    1.2077 C   0  0  0  0  0  0  0  0  0  0  0  0
   -2.4762    0.1080    0.4124 C   0  0  0  0  0  0  0  0  0  0  0  0
   -2.1814    2.7972   -1.1433 C   0  0  0  0  0  0  0  0  0  0  0  0
   -3.4225   -2.1647    0.0481 C   0  0  2  0  0  0  0  0  0  0  0  0
   -3.3262   -2.9792    1.3565 C   0  0  0  0  0  0  0  0  0  0  0  0
   -2.3934    4.2898   -1.1812 C   0  0  0  0  0  0  0  0  0  0  0  0
    1.9424    0.0228    0.7894 C   0  0  0  0  0  0  0  0  0  0  0  0
   -3.4806   -3.0791   -1.1707 C   0  0  0  0  0  0  0  0  0  0  0  0
   -3.7844   -2.1968    2.5919 C   0  0  0  0  0  0  0  0  0  0  0  0
   -1.9076   -3.5146    1.5737 C   0  0  0  0  0  0  0  0  0  0  0  0
    4.3660   -0.2363    0.1260 C   0  0  0  0  0  0  0  0  0  0  0  0
   -4.0498    6.4257   -0.7224 C   0  0  0  0  0  0  0  0  0  0  0  0
    5.5513    0.4229   -0.1997 C   0  0  0  0  0  0  0  0  0  0  0  0
    4.3243   -1.6305    0.1399 C   0  0  0  0  0  0  0  0  0  0  0  0
   -4.6751   -4.8204   -2.2401 C   0  0  0  0  0  0  0  0  0  0  0  0
    6.6950   -0.3122   -0.5113 C   0  0  0  0  0  0  0  0  0  0  0  0
    5.4681   -2.3656   -0.1718 C   0  0  0  0  0  0  0  0  0  0  0  0
    6.6534   -1.7063   -0.4973 C   0  0  0  0  0  0  0  0  0  0  0  0
    7.8247    1.7571   -0.8240 C   0  0  0  0  0  0  0  0  0  0  0  0
   -0.3924   -0.0432    1.9691 H   0  0  0  0  0  0  0  0  0  0  0  0
   -0.7328    0.5827   -0.7423 H   0  0  0  0  0  0  0  0  0  0  0  0
   -0.0881    2.4779    2.9359 H   0  0  0  0  0  0  0  0  0  0  0  0
   -1.6978    1.7452    2.8361 H   0  0  0  0  0  0  0  0  0  0  0  0
   -2.1180    3.6943    1.5596 H   0  0  0  0  0  0  0  0  0  0  0  0
   -0.4499    3.7466    0.9294 H   0  0  0  0  0  0  0  0  0  0  0  0
    1.3942    2.0299    0.8639 H   0  0  0  0  0  0  0  0  0  0  0  0
   -1.5005   -1.4760   -0.5141 H   0  0  0  0  0  0  0  0  0  0  0  0
   -4.3737   -1.6156    0.0391 H   0  0  0  0  0  0  0  0  0  0  0  0
   -3.9928   -3.8481    1.2834 H   0  0  0  0  0  0  0  0  0  0  0  0
   -2.3076    4.6177   -2.2227 H   0  0  0  0  0  0  0  0  0  0  0  0
   -1.6432    4.8340   -0.6049 H   0  0  0  0  0  0  0  0  0  0  0  0
   -4.7875   -1.7844    2.4430 H   0  0  0  0  0  0  0  0  0  0  0  0
   -3.8208   -2.8532    3.4682 H   0  0  0  0  0  0  0  0  0  0  0  0
   -3.1025   -1.3738    2.8270 H   0  0  0  0  0  0  0  0  0  0  0  0
   -1.1886   -2.7106    1.7628 H   0  0  0  0  0  0  0  0  0  0  0  0
   -1.5626   -4.0880    0.7072 H   0  0  0  0  0  0  0  0  0  0  0  0
   -1.8830   -4.1843    2.4407 H   0  0  0  0  0  0  0  0  0  0  0  0
    3.3127    1.5196    0.4116 H   0  0  0  0  0  0  0  0  0  0  0  0
   -3.2661    6.8551   -0.0928 H   0  0  0  0  0  0  0  0  0  0  0  0
   -3.8921    6.7232   -1.7623 H   0  0  0  0  0  0  0  0  0  0  0  0
   -5.0155    6.8162   -0.3910 H   0  0  0  0  0  0  0  0  0  0  0  0
    5.5280    1.5079   -0.1954 H   0  0  0  0  0  0  0  0  0  0  0  0
    3.4457   -2.2117    0.3811 H   0  0  0  0  0  0  0  0  0  0  0  0
   -4.8038   -4.2547   -3.1677 H   0  0  0  0  0  0  0  0  0  0  0  0
   -3.8001   -5.4743   -2.3033 H   0  0  0  0  0  0  0  0  0  0  0  0
   -5.5632   -5.4372   -2.0789 H   0  0  0  0  0  0  0  0  0  0  0  0
    5.4370   -3.4513   -0.1613 H   0  0  0  0  0  0  0  0  0  0  0  0
    7.5411   -2.2843   -0.7392 H   0  0  0  0  0  0  0  0  0  0  0  0
    7.1352    2.1494   -1.5793 H   0  0  0  0  0  0  0  0  0  0  0  0
    7.6153    2.1525    0.1758 H   0  0  0  0  0  0  0  0  0  0  0  0
    8.8275    2.1002   -1.0989 H   0  0  0  0  0  0  0  0  0  0  0  0
  1 20  1  0  0  0  0
  1 26  1  0  0  0  0
  2 16  2  0  0  0  0
  3 17  2  0  0  0  0
  4 21  2  0  0  0  0
  5 22  1  0  0  0  0
  5 29  1  0  0  0  0
  6 22  2  0  0  0  0
  7 30  1  0  0  0  0
  7 33  1  0  0  0  0
  8 13  1  0  0  0  0
  8 15  1  0  0  0  0
  8 17  1  0  0  0  0
  9 12  1  0  0  0  0
  9 21  1  0  0  0  0
  9 40  1  0  0  0  0
 10 16  1  0  0  0  0
 10 18  1  0  0  0  0
 10 41  1  0  0  0  0
 11 21  1  0  0  0  0
 11 25  1  0  0  0  0
 11 52  1  0  0  0  0
 12 13  1  0  0  0  0
 12 14  1  0  0  0  0
 12 34  1  0  0  0  0
 13 16  1  0  0  0  0
 13 35  1  0  0  0  0
 14 15  1  0  0  0  0
 14 36  1  0  0  0  0
 14 37  1  0  0  0  0
 15 38  1  0  0  0  0
 15 39  1  0  0  0  0
 17 20  1  0  0  0  0
 18 19  1  0  0  0  0
 18 22  1  0  0  0  0
 18 42  1  0  0  0  0
 19 23  1  0  0  0  0
 19 24  1  0  0  0  0
 19 43  1  0  0  0  0
 20 44  1  0  0  0  0
 20 45  1  0  0  0  0
 23 46  1  0  0  0  0
 23 47  1  0  0  0  0
 23 48  1  0  0  0  0
 24 49  1  0  0  0  0
 24 50  1  0  0  0  0
 24 51  1  0  0  0  0
 25 27  2  0  0  0  0
 25 28  1  0  0  0  0
 26 53  1  0  0  0  0
 26 54  1  0  0  0  0
 26 55  1  0  0  0  0
 27 30  1  0  0  0  0
 27 56  1  0  0  0  0
 28 31  2  0  0  0  0
 28 57  1  0  0  0  0
 29 58  1  0  0  0  0
 29 59  1  0  0  0  0
 29 60  1  0  0  0  0
 30 32  2  0  0  0  0
 31 32  1  0  0  0  0
 31 61  1  0  0  0  0
 32 62  1  0  0  0  0
 33 63  1  0  0  0  0
 33 64  1  0  0  0  0
 33 65  1  0  0  0  0
M  END
> <PUBCHEM_COMPOUND_CID>
7128128

> <PUBCHEM_CONFORMER_RMSD>
1.2

> <PUBCHEM_CONFORMER_DIVERSEORDER>
2
19
7
21
16
25
23
8
29
26
22
5
30
24
3
17
4
6
27
9
14
20
28
18
13
1
12
31
15
11
10

> <PUBCHEM_MMFF94_PARTIAL_CHARGES>
36
1 -0.46
10 -0.73
11 -0.55
12 0.3
13 0.36
15 0.3
16 0.57
17 0.57
18 0.36
2 -0.57
20 0.29
21 0.69
22 0.66
25 0.12
26 0.23
27 -0.15
28 -0.15
29 0.28
3 -0.57
30 0.08
31 -0.15
32 -0.15
33 0.28
4 -0.57
40 0.37
41 0.37
5 -0.43
52 0.37
56 0.15
57 0.15
6 -0.57
61 0.15
62 0.15
7 -0.36
8 -0.66
9 -0.73

> <PUBCHEM_EFFECTIVE_ROTOR_COUNT>
15

> <PUBCHEM_PHARMACOPHORE_FEATURES>
12
1 10 donor
1 11 donor
1 2 acceptor
1 26 hydrophobe
1 3 acceptor
1 4 acceptor
1 6 acceptor
1 7 acceptor
1 9 donor
3 19 23 24 hydrophobe
5 8 12 13 14 15 rings
6 25 27 28 30 31 32 rings

> <PUBCHEM_HEAVY_ATOM_COUNT>
33

> <PUBCHEM_ATOM_DEF_STEREO_COUNT>
3

> <PUBCHEM_ATOM_UDEF_STEREO_COUNT>
0

> <PUBCHEM_BOND_DEF_STEREO_COUNT>
0

> <PUBCHEM_BOND_UDEF_STEREO_COUNT>
0

> <PUBCHEM_ISOTOPIC_ATOM_COUNT>
0

> <PUBCHEM_COMPONENT_COUNT>
1

> <PUBCHEM_CACTVS_TAUTO_COUNT>
6

> <PUBCHEM_CONFORMER_ID>
006CC44000000002

> <PUBCHEM_MMFF94_ENERGY>
90.6221

> <PUBCHEM_FEATURE_SELFOVERLAP>
60.95

> <PUBCHEM_SHAPE_FINGERPRINT>
10369192 42 17827926122660059205
11991303 11 18265891354823999973
12788726 201 18262220150371634755
13631057 29 18343021133993777730
13690498 29 18412260670395937174
13757389 114 18410572856446075325
14114206 34 18187917421961612179
14556957 393 18115036323821046924
14950920 106 16486701375879137714
15064981 194 18191610574535934892
15064986 266 18335710390347954876
15276724 80 18409457955127226882
15361156 5 18336551607048169570
15463212 79 17896598388639664072
15775530 1 18197753644093315552
15803439 3 17902768796724719485
16628084 112 18335414609263417403
16993438 75 18341325604715843199
21365058 27 18125718981798390429
25019877 29 18048882888392609677
3388396 114 17827941824981242908
4058900 60 17689438187517879833
437795 70 18119780708559372687
484985 159 17917996074970707611
5265222 85 18265614290916391137
563151 40 18056184775573034045
6201460 15 16265153266201569470
6677587 24 15674006376230185967
6703917 75 18127131875578067673
6898599 12 18338237055479503820
7237137 82 18412830200866776038

> <PUBCHEM_SHAPE_MULTIPOLES>
627.83
16.25
7.61
1.95
44.3
4.43
0.16
-1.7
-6.41
-19.15
-3.67
-2.92
-1.26
-0.37

> <PUBCHEM_SHAPE_SELFOVERLAP>
1274.028

> <PUBCHEM_SHAPE_VOLUME>
368.7

> <PUBCHEM_COORDINATE_TYPE>
2
5
10

$$$$
