25388964
  -OEChem-12032416163D

 67 71  0     1  0  0  0  0  0999 V2000
   -4.5888    1.2985   -0.9483 O   0  0  0  0  0  0  0  0  0  0  0  0
   -6.1733   -3.1620    0.4924 O   0  0  0  0  0  0  0  0  0  0  0  0
   -0.5936    3.3527   -0.5933 N   0  0  2  0  0  0  0  0  0  0  0  0
    3.8443    1.6384   -0.4490 N   0  0  0  0  0  0  0  0  0  0  0  0
   -2.6187    0.1690   -0.6205 N   0  0  0  0  0  0  0  0  0  0  0  0
    4.5588    0.5115   -0.6102 N   0  0  0  0  0  0  0  0  0  0  0  0
   -4.6756   -0.8157    0.0022 N   0  0  0  0  0  0  0  0  0  0  0  0
    0.6080    2.3930    1.5088 C   0  0  2  0  0  0  0  0  0  0  0  0
    1.6139    2.5606    0.3364 C   0  0  2  0  0  0  0  0  0  0  0  0
   -1.3544    2.1928   -0.0581 C   0  0  2  0  0  0  0  0  0  0  0  0
   -0.5551    1.4848    1.0569 C   0  0  0  0  0  0  0  0  0  0  0  0
    0.7923    2.9404   -0.9286 C   0  0  0  0  0  0  0  0  0  0  0  0
    0.0114    3.7895    1.7866 C   0  0  0  0  0  0  0  0  0  0  0  0
   -0.5254    4.3818    0.4718 C   0  0  0  0  0  0  0  0  0  0  0  0
    2.5989    1.4320    0.0678 C   0  0  0  0  0  0  0  0  0  0  0  0
   -1.7835    1.2196   -1.1581 C   0  0  0  0  0  0  0  0  0  0  0  0
    2.4911    0.0759    0.2573 C   0  0  0  0  0  0  0  0  0  0  0  0
    3.7271   -0.4395   -0.1769 C   0  0  0  0  0  0  0  0  0  0  0  0
    4.1686   -1.8917   -0.1935 C   0  0  0  0  0  0  0  0  0  0  0  0
    3.2890   -2.7464   -1.1226 C   0  0  0  0  0  0  0  0  0  0  0  0
    4.2192   -2.4918    1.2226 C   0  0  0  0  0  0  0  0  0  0  0  0
    4.4309    2.9048   -0.8211 C   0  0  0  0  0  0  0  0  0  0  0  0
    3.7471   -4.2038   -1.1403 C   0  0  0  0  0  0  0  0  0  0  0  0
    4.6737   -3.9502    1.1951 C   0  0  0  0  0  0  0  0  0  0  0  0
    3.8052   -4.7932    0.2659 C   0  0  0  0  0  0  0  0  0  0  0  0
   -4.0021    0.2862   -0.5517 C   0  0  0  0  0  0  0  0  0  0  0  0
   -6.1350   -0.7750    0.1197 C   0  0  0  0  0  0  0  0  0  0  0  0
   -4.0498   -1.9866    0.6330 C   0  0  0  0  0  0  0  0  0  0  0  0
   -6.7514   -2.1069   -0.2782 C   0  0  0  0  0  0  0  0  0  0  0  0
   -4.7728   -3.2687    0.2342 C   0  0  0  0  0  0  0  0  0  0  0  0
    1.0941    1.9895    2.4032 H   0  0  0  0  0  0  0  0  0  0  0  0
    2.2267    3.4348    0.6032 H   0  0  0  0  0  0  0  0  0  0  0  0
   -2.2825    2.5817    0.3866 H   0  0  0  0  0  0  0  0  0  0  0  0
   -0.1907    0.5104    0.7291 H   0  0  0  0  0  0  0  0  0  0  0  0
   -1.2192    1.2972    1.9104 H   0  0  0  0  0  0  0  0  0  0  0  0
    1.2914    3.7713   -1.4446 H   0  0  0  0  0  0  0  0  0  0  0  0
    0.7804    2.1255   -1.6616 H   0  0  0  0  0  0  0  0  0  0  0  0
    0.7728    4.4541    2.2110 H   0  0  0  0  0  0  0  0  0  0  0  0
   -0.7967    3.7096    2.5239 H   0  0  0  0  0  0  0  0  0  0  0  0
   -1.5190    4.8164    0.6372 H   0  0  0  0  0  0  0  0  0  0  0  0
    0.1085    5.2153    0.1433 H   0  0  0  0  0  0  0  0  0  0  0  0
   -0.9257    0.7249   -1.6247 H   0  0  0  0  0  0  0  0  0  0  0  0
   -2.3322    1.7488   -1.9458 H   0  0  0  0  0  0  0  0  0  0  0  0
    1.6596   -0.4807    0.6591 H   0  0  0  0  0  0  0  0  0  0  0  0
    5.1922   -1.9206   -0.5963 H   0  0  0  0  0  0  0  0  0  0  0  0
   -2.1385   -0.6582   -0.2972 H   0  0  0  0  0  0  0  0  0  0  0  0
    3.3173   -2.3440   -2.1428 H   0  0  0  0  0  0  0  0  0  0  0  0
    2.2409   -2.7034   -0.7988 H   0  0  0  0  0  0  0  0  0  0  0  0
    3.2302   -2.4329    1.6955 H   0  0  0  0  0  0  0  0  0  0  0  0
    4.9023   -1.9099    1.8536 H   0  0  0  0  0  0  0  0  0  0  0  0
    4.5740    3.4988    0.0846 H   0  0  0  0  0  0  0  0  0  0  0  0
    3.7623    3.4111   -1.5207 H   0  0  0  0  0  0  0  0  0  0  0  0
    5.3967    2.7306   -1.3035 H   0  0  0  0  0  0  0  0  0  0  0  0
    4.7385   -4.2690   -1.6051 H   0  0  0  0  0  0  0  0  0  0  0  0
    3.0646   -4.7963   -1.7601 H   0  0  0  0  0  0  0  0  0  0  0  0
    4.6393   -4.3653    2.2086 H   0  0  0  0  0  0  0  0  0  0  0  0
    5.7185   -4.0006    0.8644 H   0  0  0  0  0  0  0  0  0  0  0  0
    2.7897   -4.8586    0.6759 H   0  0  0  0  0  0  0  0  0  0  0  0
    4.1979   -5.8152    0.2211 H   0  0  0  0  0  0  0  0  0  0  0  0
   -6.5584    0.0330   -0.4844 H   0  0  0  0  0  0  0  0  0  0  0  0
   -6.3522   -0.5590    1.1726 H   0  0  0  0  0  0  0  0  0  0  0  0
   -4.1417   -1.8297    1.7143 H   0  0  0  0  0  0  0  0  0  0  0  0
   -2.9913   -2.0928    0.4030 H   0  0  0  0  0  0  0  0  0  0  0  0
   -7.8279   -2.0971   -0.0815 H   0  0  0  0  0  0  0  0  0  0  0  0
   -6.6067   -2.3136   -1.3453 H   0  0  0  0  0  0  0  0  0  0  0  0
   -4.6175   -3.4971   -0.8271 H   0  0  0  0  0  0  0  0  0  0  0  0
   -4.3872   -4.1120    0.8158 H   0  0  0  0  0  0  0  0  0  0  0  0
  1 26  2  0  0  0  0
  2 29  1  0  0  0  0
  2 30  1  0  0  0  0
  3 10  1  0  0  0  0
  3 12  1  0  0  0  0
  3 14  1  0  0  0  0
  4  6  1  0  0  0  0
  4 15  1  0  0  0  0
  4 22  1  0  0  0  0
  5 16  1  0  0  0  0
  5 26  1  0  0  0  0
  5 46  1  0  0  0  0
  6 18  2  0  0  0  0
  7 26  1  0  0  0  0
  7 27  1  0  0  0  0
  7 28  1  0  0  0  0
  8  9  1  0  0  0  0
  8 11  1  0  0  0  0
  8 13  1  0  0  0  0
  8 31  1  0  0  0  0
  9 12  1  0  0  0  0
  9 15  1  0  0  0  0
  9 32  1  0  0  0  0
 10 11  1  0  0  0  0
 10 16  1  0  0  0  0
 10 33  1  0  0  0  0
 11 34  1  0  0  0  0
 11 35  1  0  0  0  0
 12 36  1  0  0  0  0
 12 37  1  0  0  0  0
 13 14  1  0  0  0  0
 13 38  1  0  0  0  0
 13 39  1  0  0  0  0
 14 40  1  0  0  0  0
 14 41  1  0  0  0  0
 15 17  2  0  0  0  0
 16 42  1  0  0  0  0
 16 43  1  0  0  0  0
 17 18  1  0  0  0  0
 17 44  1  0  0  0  0
 18 19  1  0  0  0  0
 19 20  1  0  0  0  0
 19 21  1  0  0  0  0
 19 45  1  0  0  0  0
 20 23  1  0  0  0  0
 20 47  1  0  0  0  0
 20 48  1  0  0  0  0
 21 24  1  0  0  0  0
 21 49  1  0  0  0  0
 21 50  1  0  0  0  0
 22 51  1  0  0  0  0
 22 52  1  0  0  0  0
 22 53  1  0  0  0  0
 23 25  1  0  0  0  0
 23 54  1  0  0  0  0
 23 55  1  0  0  0  0
 24 25  1  0  0  0  0
 24 56  1  0  0  0  0
 24 57  1  0  0  0  0
 25 58  1  0  0  0  0
 25 59  1  0  0  0  0
 27 29  1  0  0  0  0
 27 60  1  0  0  0  0
 27 61  1  0  0  0  0
 28 30  1  0  0  0  0
 28 62  1  0  0  0  0
 28 63  1  0  0  0  0
 29 64  1  0  0  0  0
 29 65  1  0  0  0  0
 30 66  1  0  0  0  0
 30 67  1  0  0  0  0
M  END
> <PUBCHEM_COMPOUND_CID>
25388964

> <PUBCHEM_CONFORMER_RMSD>
1

> <PUBCHEM_CONFORMER_DIVERSEORDER>
1
88
28
71
82
29
15
18
12
6
70
25
21
24
85
83
78
91
48
27
72
39
79
59
16
47
53
93
9
86
49
4
22
63
50
52
7
36
32
55
38
46
51
77
56
65
2
61
57
58
92
64
5
81
30
80
33
89
87
10
19
69
90
11
35
75
84
42
60
73
31
8
68
20
66
40
34
62
13
94
37
74
44
76
54
3
17
96
41
43
26
95
45
23
14
67

> <PUBCHEM_MMFF94_PARTIAL_CHARGES>
24
1 -0.57
10 0.27
12 0.27
14 0.27
15 -0.33
16 0.3
17 -0.15
18 0.11
19 0.18
2 -0.56
22 0.26
26 0.69
27 0.3
28 0.3
29 0.28
3 -0.81
30 0.28
4 0.31
44 0.15
46 0.37
5 -0.73
6 -0.71
7 -0.66
9 0.18

> <PUBCHEM_EFFECTIVE_ROTOR_COUNT>
9.6

> <PUBCHEM_PHARMACOPHORE_FEATURES>
9
1 1 acceptor
1 2 acceptor
1 3 cation
1 5 donor
1 6 acceptor
5 4 6 15 17 18 rings
6 19 20 21 23 24 25 rings
6 2 7 27 28 29 30 rings
8 3 8 9 10 11 12 13 14 rings

> <PUBCHEM_HEAVY_ATOM_COUNT>
30

> <PUBCHEM_ATOM_DEF_STEREO_COUNT>
3

> <PUBCHEM_ATOM_UDEF_STEREO_COUNT>
0

> <PUBCHEM_BOND_DEF_STEREO_COUNT>
0

> <PUBCHEM_BOND_UDEF_STEREO_COUNT>
0

> <PUBCHEM_ISOTOPIC_ATOM_COUNT>
0

> <PUBCHEM_COMPONENT_COUNT>
1

> <PUBCHEM_CACTVS_TAUTO_COUNT>
2

> <PUBCHEM_CONFORMER_ID>
018367A400000001

> <PUBCHEM_MMFF94_ENERGY>
54.2737

> <PUBCHEM_FEATURE_SELFOVERLAP>
45.672

> <PUBCHEM_SHAPE_FINGERPRINT>
10622 236 18118677721717556082
10928967 22 18201994481958058495
11014199 57 18195247703064724820
11285246 1 18044102254362400842
117089 54 18411705352921881735
12107183 9 18271259240154441201
12422481 6 17628651755974128137
12655387 17 18195823864812627421
13533116 47 18053948630930219585
1361 2 18195247943103540587
13631057 29 18411707552529842180
13911852 28 18412539908322219783
14251764 30 18408882923894778211
14863182 85 18266177434391215372
14866123 147 17981044116328165673
15320467 1 17977666734077008467
15475509 35 18270960275506229449
15728490 83 17905330628462976691
15803439 3 16885582328863015340
17492 89 18267866082334814038
17909252 39 18412822465535834946
19311894 1 17616253581160813690
19319366 153 18267862977179039084
20775530 9 18342450426828123774
21315759 227 18191575364156080958
21703447 108 18271801299149882400
23379529 103 18265331703378892998
23466295 7 18051979116950630676
23569914 152 17906976679849290967
25222932 49 18271243953405667550
314194 84 18271238430367718909
345986 75 17704075092448881529
3737641 26 18412834598259243916
4394409 98 16888613248433624615
4435113 14 17969232294818350411
4461854 278 16820820106213199283
44880168 125 17060342885905803270
46194498 28 17678454388600134501
5309563 4 18413394245477870542
5912855 24 18271259222146740936
6700243 42 17313648418047190885
7970288 3 18410853244183896323
9831232 110 18191305086702507863
9961470 85 16970250848651544074

> <PUBCHEM_SHAPE_MULTIPOLES>
580.74
14.12
7.2
1.24
17.6
2.34
0.22
19.07
-0.8
-4.86
1.08
-0.6
-0.31
-0.21

> <PUBCHEM_SHAPE_SELFOVERLAP>
1221.191

> <PUBCHEM_SHAPE_VOLUME>
322.5

> <PUBCHEM_COORDINATE_TYPE>
2
5
10

$$$$
