56775480
  -OEChem-12032416323D

 50 53  0     0  0  0  0  0  0999 V2000
    6.8535   -2.5040    0.6469 F   0  0  0  0  0  0  0  0  0  0  0  0
   -2.7486    3.6290    0.9704 O   0  0  0  0  0  0  0  0  0  0  0  0
    2.5485    1.9832   -0.1756 O   0  0  0  0  0  0  0  0  0  0  0  0
   -2.0575    0.6355    0.4696 N   0  0  0  0  0  0  0  0  0  0  0  0
    1.3579    2.6386   -0.4652 N   0  0  0  0  0  0  0  0  0  0  0  0
   -1.8142    1.9930   -0.0329 C   0  0  0  0  0  0  0  0  0  0  0  0
   -3.4005   -1.3582   -0.0349 C   0  0  0  0  0  0  0  0  0  0  0  0
   -2.5972   -0.1886   -0.6007 C   0  0  0  0  0  0  0  0  0  0  0  0
   -3.8770   -2.2841   -1.1621 C   0  0  0  0  0  0  0  0  0  0  0  0
   -4.5883   -0.8496    0.7933 C   0  0  0  0  0  0  0  0  0  0  0  0
   -1.5088    2.9068    1.1484 C   0  0  0  0  0  0  0  0  0  0  0  0
   -3.1429    2.7378   -0.0977 C   0  0  0  0  0  0  0  0  0  0  0  0
   -0.9087    2.0200   -1.2260 C   0  0  0  0  0  0  0  0  0  0  0  0
   -4.7282   -3.4329   -0.6262 C   0  0  0  0  0  0  0  0  0  0  0  0
   -5.4381   -2.0010    1.3260 C   0  0  0  0  0  0  0  0  0  0  0  0
   -5.9027   -2.9239    0.2037 C   0  0  0  0  0  0  0  0  0  0  0  0
    0.5117    1.6720   -0.8319 C   0  0  0  0  0  0  0  0  0  0  0  0
    1.1064    0.3990   -0.7934 C   0  0  0  0  0  0  0  0  0  0  0  0
    2.3862    0.6502   -0.3748 C   0  0  0  0  0  0  0  0  0  0  0  0
    3.5380   -0.1629   -0.1125 C   0  0  0  0  0  0  0  0  0  0  0  0
    3.4701   -1.5454   -0.2854 C   0  0  0  0  0  0  0  0  0  0  0  0
    4.7262    0.4286    0.3166 C   0  0  0  0  0  0  0  0  0  0  0  0
    4.5899   -2.3363   -0.0290 C   0  0  0  0  0  0  0  0  0  0  0  0
    5.8461   -0.3622    0.5731 C   0  0  0  0  0  0  0  0  0  0  0  0
    5.7780   -1.7447    0.4002 C   0  0  0  0  0  0  0  0  0  0  0  0
   -2.7464   -1.9447    0.6262 H   0  0  0  0  0  0  0  0  0  0  0  0
   -3.2536    0.3770   -1.2751 H   0  0  0  0  0  0  0  0  0  0  0  0
   -1.7820   -0.5930   -1.2117 H   0  0  0  0  0  0  0  0  0  0  0  0
   -4.4634   -1.7126   -1.8930 H   0  0  0  0  0  0  0  0  0  0  0  0
   -3.0140   -2.6953   -1.6993 H   0  0  0  0  0  0  0  0  0  0  0  0
   -4.2436   -0.2533    1.6459 H   0  0  0  0  0  0  0  0  0  0  0  0
   -5.2189   -0.1936    0.1795 H   0  0  0  0  0  0  0  0  0  0  0  0
   -1.2521    0.1760    0.8918 H   0  0  0  0  0  0  0  0  0  0  0  0
   -1.4600    2.4487    2.1425 H   0  0  0  0  0  0  0  0  0  0  0  0
   -0.6622    3.5905    1.0395 H   0  0  0  0  0  0  0  0  0  0  0  0
   -3.3262    3.2960   -1.0219 H   0  0  0  0  0  0  0  0  0  0  0  0
   -4.0563    2.1967    0.1703 H   0  0  0  0  0  0  0  0  0  0  0  0
   -0.8909    3.0337   -1.6520 H   0  0  0  0  0  0  0  0  0  0  0  0
   -1.2346    1.3829   -2.0551 H   0  0  0  0  0  0  0  0  0  0  0  0
   -4.1044   -4.0924   -0.0102 H   0  0  0  0  0  0  0  0  0  0  0  0
   -5.1014   -4.0356   -1.4618 H   0  0  0  0  0  0  0  0  0  0  0  0
   -6.3089   -1.6008    1.8576 H   0  0  0  0  0  0  0  0  0  0  0  0
   -4.8557   -2.5773    2.0554 H   0  0  0  0  0  0  0  0  0  0  0  0
   -6.4508   -3.7730    0.6272 H   0  0  0  0  0  0  0  0  0  0  0  0
   -6.6019   -2.3840   -0.4466 H   0  0  0  0  0  0  0  0  0  0  0  0
    0.6651   -0.5558   -1.0376 H   0  0  0  0  0  0  0  0  0  0  0  0
    2.5586   -2.0353   -0.6183 H   0  0  0  0  0  0  0  0  0  0  0  0
    4.8188    1.5017    0.4631 H   0  0  0  0  0  0  0  0  0  0  0  0
    4.5376   -3.4127   -0.1632 H   0  0  0  0  0  0  0  0  0  0  0  0
    6.7715    0.0975    0.9074 H   0  0  0  0  0  0  0  0  0  0  0  0
  1 25  1  0  0  0  0
  2 11  1  0  0  0  0
  2 12  1  0  0  0  0
  3  5  1  0  0  0  0
  3 19  1  0  0  0  0
  4  6  1  0  0  0  0
  4  8  1  0  0  0  0
  4 33  1  0  0  0  0
  5 17  2  0  0  0  0
  6 11  1  0  0  0  0
  6 12  1  0  0  0  0
  6 13  1  0  0  0  0
  7  8  1  0  0  0  0
  7  9  1  0  0  0  0
  7 10  1  0  0  0  0
  7 26  1  0  0  0  0
  8 27  1  0  0  0  0
  8 28  1  0  0  0  0
  9 14  1  0  0  0  0
  9 29  1  0  0  0  0
  9 30  1  0  0  0  0
 10 15  1  0  0  0  0
 10 31  1  0  0  0  0
 10 32  1  0  0  0  0
 11 34  1  0  0  0  0
 11 35  1  0  0  0  0
 12 36  1  0  0  0  0
 12 37  1  0  0  0  0
 13 17  1  0  0  0  0
 13 38  1  0  0  0  0
 13 39  1  0  0  0  0
 14 16  1  0  0  0  0
 14 40  1  0  0  0  0
 14 41  1  0  0  0  0
 15 16  1  0  0  0  0
 15 42  1  0  0  0  0
 15 43  1  0  0  0  0
 16 44  1  0  0  0  0
 16 45  1  0  0  0  0
 17 18  1  0  0  0  0
 18 19  2  0  0  0  0
 18 46  1  0  0  0  0
 19 20  1  0  0  0  0
 20 21  2  0  0  0  0
 20 22  1  0  0  0  0
 21 23  1  0  0  0  0
 21 47  1  0  0  0  0
 22 24  2  0  0  0  0
 22 48  1  0  0  0  0
 23 25  2  0  0  0  0
 23 49  1  0  0  0  0
 24 25  1  0  0  0  0
 24 50  1  0  0  0  0
M  END
> <PUBCHEM_COMPOUND_CID>
56775480

> <PUBCHEM_CONFORMER_RMSD>
0.8

> <PUBCHEM_CONFORMER_DIVERSEORDER>
1
55
137
53
112
153
12
136
104
131
140
62
125
40
38
43
141
145
128
39
152
85
126
118
88
142
113
2
162
70
159
130
150
151
63
48
148
154
120
61
27
10
16
78
144
165
35
64
115
45
157
75
32
68
121
92
101
87
29
82
94
95
119
158
73
117
109
100
86
59
25
28
135
93
129
96
107
34
138
91
84
147
124
155
83
149
31
98
42
14
74
51
60
8
161
24
164
52
13
81
67
97
17
79
114
139
90
76
15
30
166
33
156
89
50
22
41
132
26
7
3
71
80
4
5
163
19
36
160
123
143
6
18
37
106
46
116
47
54
69
23
111
20
108
146
122
102
65
72
57
11
105
103
9
127
44
77
99
110
21
56
133
66
134
58
49

> <PUBCHEM_MMFF94_PARTIAL_CHARGES>
25
1 -0.19
11 0.26
12 0.26
13 0.18
17 0.11
18 -0.15
19 0.09
2 -0.52
20 0.05
21 -0.15
22 -0.15
23 -0.15
24 -0.15
25 0.19
3 -0.02
33 0.36
4 -0.84
46 0.15
47 0.15
48 0.15
49 0.15
5 -0.41
50 0.15
6 0.21
8 0.27

> <PUBCHEM_EFFECTIVE_ROTOR_COUNT>
8

> <PUBCHEM_PHARMACOPHORE_FEATURES>
8
1 2 acceptor
1 4 cation
1 4 donor
1 5 acceptor
4 2 6 11 12 rings
5 3 5 17 18 19 rings
6 20 21 22 23 24 25 rings
6 7 9 10 14 15 16 rings

> <PUBCHEM_HEAVY_ATOM_COUNT>
25

> <PUBCHEM_ATOM_DEF_STEREO_COUNT>
0

> <PUBCHEM_ATOM_UDEF_STEREO_COUNT>
0

> <PUBCHEM_BOND_DEF_STEREO_COUNT>
0

> <PUBCHEM_BOND_UDEF_STEREO_COUNT>
0

> <PUBCHEM_ISOTOPIC_ATOM_COUNT>
0

> <PUBCHEM_COMPONENT_COUNT>
1

> <PUBCHEM_CACTVS_TAUTO_COUNT>
1

> <PUBCHEM_CONFORMER_ID>
0362533800000001

> <PUBCHEM_MMFF94_ENERGY>
44.7489

> <PUBCHEM_FEATURE_SELFOVERLAP>
40.597

> <PUBCHEM_SHAPE_FINGERPRINT>
10622 236 18261105275129194234
11135609 149 17767655594303612175
11135926 11 17828489407098040677
11552529 35 18270394988911257416
12107183 9 18342192085352254633
12422481 6 17988380190836363023
12633257 1 16343704399739184551
12760667 363 18411415129454790375
13004483 165 18270962466034469853
13103583 49 17917161592947589291
13540713 5 18262256476646673788
13583140 156 17417235551472603824
13631057 29 18410009953351554924
13885169 86 10519987096994036619
13911852 28 18267583692772870263
14178342 30 18269846315271054492
14251751 18 18412826893135309819
14347332 77 18408887342909658639
14429380 30 18334577966581514250
14844126 61 18340767057636136859
14866123 147 18410297978628191531
14950920 106 17418091061359860395
15042514 8 18411142407642845961
15352361 1 18408321120233745670
15361156 5 17824281327691538692
16120349 21 18339654339089498585
17492 89 18410291440896916196
17780758 139 18341609270125543080
19141452 34 18265334993361362740
19301679 30 18340219561191889243
20028762 73 18341613762846821678
20775530 9 18334849537083532667
21315759 148 17988642944493553534
21478907 32 18410576223467917293
22122407 14 15840975673134379896
23424784 1240 18271250413617372182
23559900 14 18339629114314773265
23622692 118 18408323302172019172
314194 84 18050573142822670735
4073 2 18269552746315128586
4409770 3 18337105675906495965
463206 1 18121781892029830703
484985 159 18262792970043896703
5104073 3 18341603769169093368
513202 73 18187372052015565265
5486654 36 18336268942181206976
5924683 9 18340765957586620469
6431902 208 18408881858242346062
7970288 3 18265331883900252155
9981440 41 16557056732543492893

> <PUBCHEM_SHAPE_MULTIPOLES>
485.51
15.23
4.51
1.06
9.83
1.06
0.02
-17.93
3.76
-4.34
0.32
-0.79
0.09
-1.07

> <PUBCHEM_SHAPE_SELFOVERLAP>
1037.958

> <PUBCHEM_SHAPE_VOLUME>
272

> <PUBCHEM_COORDINATE_TYPE>
2
5
10

$$$$
