38028970
  -OEChem-12032416253D

 71 74  0     1  0  0  0  0  0999 V2000
    0.0346    3.6552   -0.2188 O   0  0  0  0  0  0  0  0  0  0  0  0
   -3.5675   -2.5161    1.8354 O   0  0  0  0  0  0  0  0  0  0  0  0
    1.5570    1.9173   -0.4682 N   0  0  0  0  0  0  0  0  0  0  0  0
   -3.8654   -1.5166   -0.2378 N   0  0  0  0  0  0  0  0  0  0  0  0
    4.1823    0.7644   -0.0701 N   0  0  0  0  0  0  0  0  0  0  0  0
    6.1068   -0.3256   -0.8981 N   0  0  0  0  0  0  0  0  0  0  0  0
   -1.8409   -3.0447   -1.1903 N   0  0  0  0  0  0  0  0  0  0  0  0
   -0.4717   -4.8926    0.4150 N   0  0  0  0  0  0  0  0  0  0  0  0
   -3.3722    1.2388    0.8614 C   0  0  1  0  0  0  0  0  0  0  0  0
   -4.5302    0.8248   -0.0807 C   0  0  1  0  0  0  0  0  0  0  0  0
   -2.7054    2.5277    0.3572 C   0  0  0  0  0  0  0  0  0  0  0  0
   -2.1432    2.3735   -1.0686 C   0  0  2  0  0  0  0  0  0  0  0  0
   -3.8535    1.4334    2.3027 C   0  0  0  0  0  0  0  0  0  0  0  0
   -3.1431    1.7197   -2.0005 C   0  0  0  0  0  0  0  0  0  0  0  0
   -4.2109    1.0433   -1.5411 C   0  0  0  0  0  0  0  0  0  0  0  0
   -0.8175    1.6044   -1.0593 C   0  0  0  0  0  0  0  0  0  0  0  0
   -4.9278   -0.6389    0.1416 C   0  0  0  0  0  0  0  0  0  0  0  0
   -2.6980    1.2424    3.2800 C   0  0  0  0  0  0  0  0  0  0  0  0
   -4.4828    2.8126    2.4717 C   0  0  0  0  0  0  0  0  0  0  0  0
   -2.9126    1.9000   -3.4752 C   0  0  0  0  0  0  0  0  0  0  0  0
    0.2877    2.4922   -0.5419 C   0  0  0  0  0  0  0  0  0  0  0  0
    2.6808    2.7137    0.0178 C   0  0  0  0  0  0  0  0  0  0  0  0
    1.8536    0.5326   -0.8424 C   0  0  0  0  0  0  0  0  0  0  0  0
    3.7000    1.8626    0.7722 C   0  0  0  0  0  0  0  0  0  0  0  0
    3.3298    0.3119   -1.1723 C   0  0  0  0  0  0  0  0  0  0  0  0
   -3.2578   -2.4013    0.6525 C   0  0  0  0  0  0  0  0  0  0  0  0
    5.4333    0.1940    0.1527 C   0  0  0  0  0  0  0  0  0  0  0  0
   -2.1495   -3.2279    0.1089 C   0  0  0  0  0  0  0  0  0  0  0  0
    5.9089    0.1971    1.4541 C   0  0  0  0  0  0  0  0  0  0  0  0
   -1.4770   -4.1355    0.8973 C   0  0  0  0  0  0  0  0  0  0  0  0
    7.1561   -0.3695    1.6925 C   0  0  0  0  0  0  0  0  0  0  0  0
    7.3154   -0.8675   -0.6279 C   0  0  0  0  0  0  0  0  0  0  0  0
    7.8793   -0.9142    0.6370 C   0  0  0  0  0  0  0  0  0  0  0  0
   -0.8356   -3.8019   -1.6726 C   0  0  0  0  0  0  0  0  0  0  0  0
   -0.1630   -4.7095   -0.8842 C   0  0  0  0  0  0  0  0  0  0  0  0
   -2.6164    0.4449    0.8596 H   0  0  0  0  0  0  0  0  0  0  0  0
   -5.4144    1.4383    0.1334 H   0  0  0  0  0  0  0  0  0  0  0  0
   -1.9241    2.8574    1.0482 H   0  0  0  0  0  0  0  0  0  0  0  0
   -3.4370    3.3442    0.2991 H   0  0  0  0  0  0  0  0  0  0  0  0
   -1.9792    3.3893   -1.4555 H   0  0  0  0  0  0  0  0  0  0  0  0
   -4.6089    0.6830    2.5576 H   0  0  0  0  0  0  0  0  0  0  0  0
   -4.9216    0.6345   -2.2568 H   0  0  0  0  0  0  0  0  0  0  0  0
   -0.5465    1.3194   -2.0812 H   0  0  0  0  0  0  0  0  0  0  0  0
   -0.8740    0.6927   -0.4569 H   0  0  0  0  0  0  0  0  0  0  0  0
   -5.7863   -0.8963   -0.4906 H   0  0  0  0  0  0  0  0  0  0  0  0
   -5.2350   -0.8266    1.1739 H   0  0  0  0  0  0  0  0  0  0  0  0
   -1.8999    1.9759    3.1302 H   0  0  0  0  0  0  0  0  0  0  0  0
   -2.2626    0.2423    3.1806 H   0  0  0  0  0  0  0  0  0  0  0  0
   -3.0498    1.3459    4.3124 H   0  0  0  0  0  0  0  0  0  0  0  0
   -3.7473    3.6240    2.4753 H   0  0  0  0  0  0  0  0  0  0  0  0
   -4.9841    2.8618    3.4464 H   0  0  0  0  0  0  0  0  0  0  0  0
   -5.2492    3.0228    1.7199 H   0  0  0  0  0  0  0  0  0  0  0  0
   -2.8289    2.9639   -3.7200 H   0  0  0  0  0  0  0  0  0  0  0  0
   -3.7354    1.4917   -4.0721 H   0  0  0  0  0  0  0  0  0  0  0  0
   -1.9964    1.3956   -3.7947 H   0  0  0  0  0  0  0  0  0  0  0  0
   -3.5656   -1.5239   -1.2087 H   0  0  0  0  0  0  0  0  0  0  0  0
    2.3185    3.5234    0.6602 H   0  0  0  0  0  0  0  0  0  0  0  0
    3.1446    3.1772   -0.8617 H   0  0  0  0  0  0  0  0  0  0  0  0
    1.2460    0.2276   -1.6981 H   0  0  0  0  0  0  0  0  0  0  0  0
    1.5591   -0.0917    0.0102 H   0  0  0  0  0  0  0  0  0  0  0  0
    4.5249    2.5199    1.0734 H   0  0  0  0  0  0  0  0  0  0  0  0
    3.2365    1.4514    1.6774 H   0  0  0  0  0  0  0  0  0  0  0  0
    3.4834   -0.7562   -1.3687 H   0  0  0  0  0  0  0  0  0  0  0  0
    3.6005    0.8612   -2.0822 H   0  0  0  0  0  0  0  0  0  0  0  0
    5.3534    0.5983    2.2945 H   0  0  0  0  0  0  0  0  0  0  0  0
   -1.7119   -4.2960    1.9429 H   0  0  0  0  0  0  0  0  0  0  0  0
    7.5623   -0.3911    2.6993 H   0  0  0  0  0  0  0  0  0  0  0  0
    7.8388   -1.2789   -1.4847 H   0  0  0  0  0  0  0  0  0  0  0  0
    8.8529   -1.3621    0.7996 H   0  0  0  0  0  0  0  0  0  0  0  0
   -0.5867   -3.6549   -2.7163 H   0  0  0  0  0  0  0  0  0  0  0  0
    0.6449   -5.3172   -1.2725 H   0  0  0  0  0  0  0  0  0  0  0  0
  1 21  2  0  0  0  0
  2 26  2  0  0  0  0
  3 21  1  0  0  0  0
  3 22  1  0  0  0  0
  3 23  1  0  0  0  0
  4 17  1  0  0  0  0
  4 26  1  0  0  0  0
  4 56  1  0  0  0  0
  5 24  1  0  0  0  0
  5 25  1  0  0  0  0
  5 27  1  0  0  0  0
  6 27  1  0  0  0  0
  6 32  2  0  0  0  0
  7 28  2  0  0  0  0
  7 34  1  0  0  0  0
  8 30  2  0  0  0  0
  8 35  1  0  0  0  0
  9 10  1  0  0  0  0
  9 11  1  0  0  0  0
  9 13  1  0  0  0  0
  9 36  1  0  0  0  0
 10 15  1  0  0  0  0
 10 17  1  0  0  0  0
 10 37  1  0  0  0  0
 11 12  1  0  0  0  0
 11 38  1  0  0  0  0
 11 39  1  0  0  0  0
 12 14  1  0  0  0  0
 12 16  1  0  0  0  0
 12 40  1  0  0  0  0
 13 18  1  0  0  0  0
 13 19  1  0  0  0  0
 13 41  1  0  0  0  0
 14 15  2  0  0  0  0
 14 20  1  0  0  0  0
 15 42  1  0  0  0  0
 16 21  1  0  0  0  0
 16 43  1  0  0  0  0
 16 44  1  0  0  0  0
 17 45  1  0  0  0  0
 17 46  1  0  0  0  0
 18 47  1  0  0  0  0
 18 48  1  0  0  0  0
 18 49  1  0  0  0  0
 19 50  1  0  0  0  0
 19 51  1  0  0  0  0
 19 52  1  0  0  0  0
 20 53  1  0  0  0  0
 20 54  1  0  0  0  0
 20 55  1  0  0  0  0
 22 24  1  0  0  0  0
 22 57  1  0  0  0  0
 22 58  1  0  0  0  0
 23 25  1  0  0  0  0
 23 59  1  0  0  0  0
 23 60  1  0  0  0  0
 24 61  1  0  0  0  0
 24 62  1  0  0  0  0
 25 63  1  0  0  0  0
 25 64  1  0  0  0  0
 26 28  1  0  0  0  0
 27 29  2  0  0  0  0
 28 30  1  0  0  0  0
 29 31  1  0  0  0  0
 29 65  1  0  0  0  0
 30 66  1  0  0  0  0
 31 33  2  0  0  0  0
 31 67  1  0  0  0  0
 32 33  1  0  0  0  0
 32 68  1  0  0  0  0
 33 69  1  0  0  0  0
 34 35  2  0  0  0  0
 34 70  1  0  0  0  0
 35 71  1  0  0  0  0
M  END
> <PUBCHEM_COMPOUND_CID>
38028970

> <PUBCHEM_CONFORMER_RMSD>
1.2

> <PUBCHEM_CONFORMER_DIVERSEORDER>
1
25
77
8
38
97
95
86
75
11
78
19
68
6
29
17
74
89
36
57
41
22
81
92
71
96
79
48
83
15
23
7
82
60
61
28
73
93
32
102
72
69
37
84
31
54
85
58
24
27
43
91
98
66
87
100
12
50
9
47
46
90
40
51
3
45
64
67
52
70
55
10
76
101
33
99
4
53
14
62
80
5
18
44
63
20
21
35
26
56
65
13
59
34
42
16
49
88
39
30
94
2

> <PUBCHEM_MMFF94_PARTIAL_CHARGES>
39
1 -0.57
10 0.14
12 0.14
14 -0.28
15 -0.29
16 0.06
17 0.3
2 -0.57
20 0.14
21 0.57
22 0.3
23 0.3
24 0.37
25 0.37
26 0.54
27 0.41
28 0.4
29 -0.15
3 -0.66
30 0.16
31 -0.15
32 0.16
33 -0.15
34 0.16
35 0.16
4 -0.73
42 0.15
5 -0.84
56 0.37
6 -0.62
65 0.15
66 0.15
67 0.15
68 0.15
69 0.15
7 -0.62
70 0.15
71 0.15
8 -0.62

> <PUBCHEM_EFFECTIVE_ROTOR_COUNT>
11

> <PUBCHEM_PHARMACOPHORE_FEATURES>
12
1 1 acceptor
1 2 acceptor
1 4 donor
1 5 cation
1 6 acceptor
1 7 acceptor
1 8 acceptor
3 13 18 19 hydrophobe
6 3 5 22 23 24 25 rings
6 6 27 29 31 32 33 rings
6 7 8 28 30 34 35 rings
6 9 10 11 12 14 15 rings

> <PUBCHEM_HEAVY_ATOM_COUNT>
35

> <PUBCHEM_ATOM_DEF_STEREO_COUNT>
3

> <PUBCHEM_ATOM_UDEF_STEREO_COUNT>
0

> <PUBCHEM_BOND_DEF_STEREO_COUNT>
0

> <PUBCHEM_BOND_UDEF_STEREO_COUNT>
0

> <PUBCHEM_ISOTOPIC_ATOM_COUNT>
0

> <PUBCHEM_COMPONENT_COUNT>
1

> <PUBCHEM_CACTVS_TAUTO_COUNT>
2

> <PUBCHEM_CONFORMER_ID>
024446AA00000001

> <PUBCHEM_MMFF94_ENERGY>
98.5913

> <PUBCHEM_FEATURE_SELFOVERLAP>
60.902

> <PUBCHEM_SHAPE_FINGERPRINT>
10305334 12 18059304141294335841
11524674 6 18342731910405370695
11763389 116 18339638945996178078
12522641 33 17897426313255394701
13947930 73 18190192350110642419
14725015 67 18337950220779110199
14950920 106 18201726188336823008
15320294 125 18040425578116594246
15326923 133 17985272876709014590
15444296 8 16153721912112290757
16112460 7 18199191689728322906
17627616 140 18116981204892515974
18603816 31 17315043659653465968
20578428 11 16741109413721036373
20764821 26 18338246954999248351
20771845 38 18262791874700908763
20775530 9 17404315478097520727
229767 44 18411986892138089386
238918 7 18272942621740985894
3383291 50 18341325682373621855
484985 159 18334574634082427325
5080951 261 18335406998548746008
5085150 59 18263065661348211183

> <PUBCHEM_SHAPE_MULTIPOLES>
678.66
15.72
5.74
2.47
38.44
8.38
-0.34
-1.34
-4.94
-5.32
0.36
-3.27
-1.37
0

> <PUBCHEM_SHAPE_SELFOVERLAP>
1429.943

> <PUBCHEM_SHAPE_VOLUME>
376.8

> <PUBCHEM_COORDINATE_TYPE>
2
5
10

$$$$
