75367676
  -OEChem-12032416383D

 39 40  0     1  0  0  0  0  0999 V2000
   -0.7082    2.9382    1.1480 O   0  0  0  0  0  0  0  0  0  0  0  0
    1.7341    1.0592   -0.8582 O   0  0  0  0  0  0  0  0  0  0  0  0
   -1.7886   -1.6023   -1.1836 O   0  0  0  0  0  0  0  0  0  0  0  0
   -1.8896    0.6159   -0.4724 N   0  0  0  0  0  0  0  0  0  0  0  0
   -3.5493   -0.9544    0.1489 N   0  0  0  0  0  0  0  0  0  0  0  0
    0.4982    1.2420   -0.1692 C   0  0  2  0  0  0  0  0  0  0  0  0
   -0.6344    0.9477   -1.1524 C   0  0  0  0  0  0  0  0  0  0  0  0
   -2.5847    1.6678    0.2861 C   0  0  0  0  0  0  0  0  0  0  0  0
    0.4575    2.6647    0.3824 C   0  0  0  0  0  0  0  0  0  0  0  0
   -1.8964    3.0240    0.3681 C   0  0  0  0  0  0  0  0  0  0  0  0
   -2.3674   -0.7153   -0.5489 C   0  0  0  0  0  0  0  0  0  0  0  0
    2.5640    0.0830   -0.3787 C   0  0  0  0  0  0  0  0  0  0  0  0
   -4.1975   -2.2475    0.1925 C   0  0  0  0  0  0  0  0  0  0  0  0
    2.1298   -1.2418   -0.3343 C   0  0  0  0  0  0  0  0  0  0  0  0
    3.8444    0.4125    0.0656 C   0  0  0  0  0  0  0  0  0  0  0  0
   -3.5352   -3.1663    1.1982 C   0  0  0  0  0  0  0  0  0  0  0  0
    2.9761   -2.2372    0.1546 C   0  0  0  0  0  0  0  0  0  0  0  0
    4.6907   -0.5827    0.5545 C   0  0  0  0  0  0  0  0  0  0  0  0
    4.2565   -1.9075    0.5990 C   0  0  0  0  0  0  0  0  0  0  0  0
    0.4102    0.5539    0.6842 H   0  0  0  0  0  0  0  0  0  0  0  0
   -0.8123    1.7887   -1.8329 H   0  0  0  0  0  0  0  0  0  0  0  0
   -0.3421    0.1182   -1.8060 H   0  0  0  0  0  0  0  0  0  0  0  0
   -2.7232    1.2860    1.3048 H   0  0  0  0  0  0  0  0  0  0  0  0
   -3.5738    1.7915   -0.1696 H   0  0  0  0  0  0  0  0  0  0  0  0
    1.3195    2.8128    1.0438 H   0  0  0  0  0  0  0  0  0  0  0  0
    0.5721    3.4083   -0.4167 H   0  0  0  0  0  0  0  0  0  0  0  0
   -2.5641    3.7114    0.8993 H   0  0  0  0  0  0  0  0  0  0  0  0
   -1.7072    3.4695   -0.6150 H   0  0  0  0  0  0  0  0  0  0  0  0
   -4.0093   -0.2043    0.6498 H   0  0  0  0  0  0  0  0  0  0  0  0
   -4.1628   -2.6941   -0.8067 H   0  0  0  0  0  0  0  0  0  0  0  0
   -5.2454   -2.0812    0.4606 H   0  0  0  0  0  0  0  0  0  0  0  0
    1.1397   -1.5183   -0.6844 H   0  0  0  0  0  0  0  0  0  0  0  0
    4.1876    1.4430    0.0338 H   0  0  0  0  0  0  0  0  0  0  0  0
   -2.4879   -3.3532    0.9391 H   0  0  0  0  0  0  0  0  0  0  0  0
   -3.5555   -2.7274    2.2014 H   0  0  0  0  0  0  0  0  0  0  0  0
   -4.0540   -4.1291    1.2347 H   0  0  0  0  0  0  0  0  0  0  0  0
    2.6388   -3.2691    0.1874 H   0  0  0  0  0  0  0  0  0  0  0  0
    5.6876   -0.3261    0.9006 H   0  0  0  0  0  0  0  0  0  0  0  0
    4.9156   -2.6825    0.9792 H   0  0  0  0  0  0  0  0  0  0  0  0
  1  9  1  0  0  0  0
  1 10  1  0  0  0  0
  2  6  1  0  0  0  0
  2 12  1  0  0  0  0
  3 11  2  0  0  0  0
  4  7  1  0  0  0  0
  4  8  1  0  0  0  0
  4 11  1  0  0  0  0
  5 11  1  0  0  0  0
  5 13  1  0  0  0  0
  5 29  1  0  0  0  0
  6  7  1  0  0  0  0
  6  9  1  0  0  0  0
  6 20  1  0  0  0  0
  7 21  1  0  0  0  0
  7 22  1  0  0  0  0
  8 10  1  0  0  0  0
  8 23  1  0  0  0  0
  8 24  1  0  0  0  0
  9 25  1  0  0  0  0
  9 26  1  0  0  0  0
 10 27  1  0  0  0  0
 10 28  1  0  0  0  0
 12 14  2  0  0  0  0
 12 15  1  0  0  0  0
 13 16  1  0  0  0  0
 13 30  1  0  0  0  0
 13 31  1  0  0  0  0
 14 17  1  0  0  0  0
 14 32  1  0  0  0  0
 15 18  2  0  0  0  0
 15 33  1  0  0  0  0
 16 34  1  0  0  0  0
 16 35  1  0  0  0  0
 16 36  1  0  0  0  0
 17 19  2  0  0  0  0
 17 37  1  0  0  0  0
 18 19  1  0  0  0  0
 18 38  1  0  0  0  0
 19 39  1  0  0  0  0
M  END
> <PUBCHEM_COMPOUND_CID>
75367676

> <PUBCHEM_CONFORMER_RMSD>
0.8

> <PUBCHEM_CONFORMER_DIVERSEORDER>
1
83
84
77
75
19
5
26
68
13
64
59
74
11
56
81
20
45
16
67
53
48
70
69
73
85
49
55
76
30
22
15
6
43
39
79
42
31
54
62
66
65
4
3
35
52
47
10
57
29
60
9
71
72
82
36
23
51
32
14
2
38
18
46
61
41
25
44
58
8
34
27
63
12
50
40
7
17
28
80
24
37
21
33
78

> <PUBCHEM_MMFF94_PARTIAL_CHARGES>
24
1 -0.56
10 0.28
11 0.69
12 0.08
13 0.3
14 -0.15
15 -0.15
17 -0.15
18 -0.15
19 -0.15
2 -0.36
29 0.37
3 -0.57
32 0.15
33 0.15
37 0.15
38 0.15
39 0.15
4 -0.66
5 -0.73
6 0.28
7 0.3
8 0.3
9 0.28

> <PUBCHEM_EFFECTIVE_ROTOR_COUNT>
6.4

> <PUBCHEM_PHARMACOPHORE_FEATURES>
6
1 1 acceptor
1 2 acceptor
1 3 acceptor
1 5 donor
6 12 14 15 17 18 19 rings
7 1 4 6 7 8 9 10 rings

> <PUBCHEM_HEAVY_ATOM_COUNT>
19

> <PUBCHEM_ATOM_DEF_STEREO_COUNT>
1

> <PUBCHEM_ATOM_UDEF_STEREO_COUNT>
0

> <PUBCHEM_BOND_DEF_STEREO_COUNT>
0

> <PUBCHEM_BOND_UDEF_STEREO_COUNT>
0

> <PUBCHEM_ISOTOPIC_ATOM_COUNT>
0

> <PUBCHEM_COMPONENT_COUNT>
1

> <PUBCHEM_CACTVS_TAUTO_COUNT>
2

> <PUBCHEM_CONFORMER_ID>
047E04FC00000001

> <PUBCHEM_MMFF94_ENERGY>
52.1829

> <PUBCHEM_FEATURE_SELFOVERLAP>
30.447

> <PUBCHEM_SHAPE_FINGERPRINT>
10366900 7 17559091204519760232
10616163 171 18341331076915381262
114674 6 17612592632652469395
12382932 28 18200873946649912748
12506688 2 18264491852562674339
12553582 1 18199749304947111046
12824470 246 18186514397652471928
13032168 30 18260267421693983618
13103583 49 18127715883586609211
13140716 1 18341331098121114296
13631057 29 18408604777686611414
14178342 30 18266170639762781394
14251705 54 18409449215000797198
14787075 74 18190458453752470902
14790565 3 17257094199490672421
14844126 61 18269539590050034138
15042514 8 18339648819840570009
15099037 8 18334580135281107060
15352361 1 18335701688839574499
15375462 189 18269273628594845310
17492 89 18338516344391947418
17780758 139 18123172529842050114
20291156 8 18410009957208945238
20681677 274 18339069398887743056
23500284 5 18410294700724203493
23557571 272 18271247119097224766
23559900 14 18340475682792015912
23598288 3 18341897359420286405
3421961 26 18122908895964113163
392239 28 17913468398035958672
5104073 3 18268981013211662002
58807428 26 17478342928599754017
9709674 26 18056758719977445190

> <PUBCHEM_SHAPE_MULTIPOLES>
363.44
8.44
3.85
0.99
3.74
0.39
-0.02
-7.2
1.71
-3.45
1.38
-0.31
-0.04
0

> <PUBCHEM_SHAPE_SELFOVERLAP>
742.207

> <PUBCHEM_SHAPE_VOLUME>
207.1

> <PUBCHEM_COORDINATE_TYPE>
2
5
10

$$$$
