28990896
  -OEChem-12032416403D

 74 80  0     1  0  0  0  0  0999 V2000
   -0.9884   -0.0171    2.6699 O   0  0  0  0  0  0  0  0  0  0  0  0
   -6.1111   -1.6140   -2.4916 O   0  0  0  0  0  0  0  0  0  0  0  0
    3.0553   -2.0477    0.5068 N   0  0  2  0  0  0  0  0  0  0  0  0
   -0.0198   -1.5014    1.1547 N   0  0  0  0  0  0  0  0  0  0  0  0
    5.0549    1.1914   -1.9628 N   0  0  0  0  0  0  0  0  0  0  0  0
   -4.5519   -0.3056   -0.5021 N   0  0  0  0  0  0  0  0  0  0  0  0
    1.4908   -3.4380    1.8871 C   0  0  1  0  0  0  0  0  0  0  0  0
    1.0196   -3.0974   -0.4913 C   0  0  2  0  0  0  0  0  0  0  0  0
    0.9657   -4.1265    0.6344 C   0  0  0  0  0  0  0  0  0  0  0  0
    2.9377   -2.9526    1.6568 C   0  0  0  0  0  0  0  0  0  0  0  0
    2.4819   -2.6456   -0.7083 C   0  0  0  0  0  0  0  0  0  0  0  0
    0.5375   -2.2945    2.2597 C   0  0  0  0  0  0  0  0  0  0  0  0
    0.1373   -1.9044   -0.1735 C   0  0  0  0  0  0  0  0  0  0  0  0
    4.4452   -1.6535    0.2899 C   0  0  0  0  0  0  0  0  0  0  0  0
   -0.4738   -1.2286   -1.1594 C   0  0  0  0  0  0  0  0  0  0  0  0
   -0.7994   -0.3828    1.5085 C   0  0  0  0  0  0  0  0  0  0  0  0
    4.5483   -0.3389   -0.4368 C   0  0  0  0  0  0  0  0  0  0  0  0
   -1.4436    0.3757    0.3790 C   0  0  0  0  0  0  0  0  0  0  0  0
   -1.2699   -0.0686   -0.8748 C   0  0  0  0  0  0  0  0  0  0  0  0
    4.0122    0.9085   -0.0109 C   0  0  0  0  0  0  0  0  0  0  0  0
   -2.2436    1.5872    0.6310 C   0  0  0  0  0  0  0  0  0  0  0  0
    5.1835   -0.1328   -1.6397 C   0  0  0  0  0  0  0  0  0  0  0  0
    4.3441    1.8516   -0.9860 C   0  0  0  0  0  0  0  0  0  0  0  0
   -3.6184    1.5144    0.8549 C   0  0  0  0  0  0  0  0  0  0  0  0
    3.2740    1.3271    1.1140 C   0  0  0  0  0  0  0  0  0  0  0  0
   -1.5997    2.8244    0.6417 C   0  0  0  0  0  0  0  0  0  0  0  0
   -4.3419    0.2061    0.8506 C   0  0  0  0  0  0  0  0  0  0  0  0
    3.9732    3.1977   -0.8920 C   0  0  0  0  0  0  0  0  0  0  0  0
    5.5968    1.7946   -3.1614 C   0  0  0  0  0  0  0  0  0  0  0  0
   -4.3493    2.6790    1.0897 C   0  0  0  0  0  0  0  0  0  0  0  0
    2.8962    2.6705    1.2214 C   0  0  0  0  0  0  0  0  0  0  0  0
   -2.3306    3.9891    0.8764 C   0  0  0  0  0  0  0  0  0  0  0  0
   -5.6986    0.3572   -1.1385 C   0  0  0  0  0  0  0  0  0  0  0  0
   -4.7578   -1.7604   -0.4835 C   0  0  0  0  0  0  0  0  0  0  0  0
    3.2416    3.5897    0.2328 C   0  0  0  0  0  0  0  0  0  0  0  0
   -3.7055    3.9165    1.1004 C   0  0  0  0  0  0  0  0  0  0  0  0
   -5.9060   -0.2016   -2.5433 C   0  0  0  0  0  0  0  0  0  0  0  0
   -4.9864   -2.2689   -1.9040 C   0  0  0  0  0  0  0  0  0  0  0  0
    1.5111   -4.1542    2.7180 H   0  0  0  0  0  0  0  0  0  0  0  0
    0.6680   -3.5814   -1.4121 H   0  0  0  0  0  0  0  0  0  0  0  0
   -0.0584   -4.4892    0.7880 H   0  0  0  0  0  0  0  0  0  0  0  0
    1.5830   -4.9988    0.3878 H   0  0  0  0  0  0  0  0  0  0  0  0
    3.2805   -2.4403    2.5647 H   0  0  0  0  0  0  0  0  0  0  0  0
    3.5867   -3.8280    1.5178 H   0  0  0  0  0  0  0  0  0  0  0  0
    3.0759   -3.5130   -1.0275 H   0  0  0  0  0  0  0  0  0  0  0  0
    2.5072   -1.9223   -1.5331 H   0  0  0  0  0  0  0  0  0  0  0  0
   -0.3294   -2.7197    2.7841 H   0  0  0  0  0  0  0  0  0  0  0  0
    1.0152   -1.6109    2.9730 H   0  0  0  0  0  0  0  0  0  0  0  0
    5.0147   -2.4361   -0.2284 H   0  0  0  0  0  0  0  0  0  0  0  0
    4.9502   -1.5021    1.2545 H   0  0  0  0  0  0  0  0  0  0  0  0
   -0.3637   -1.5169   -2.1995 H   0  0  0  0  0  0  0  0  0  0  0  0
   -1.7093    0.4429   -1.7264 H   0  0  0  0  0  0  0  0  0  0  0  0
    5.7128   -0.8193   -2.2873 H   0  0  0  0  0  0  0  0  0  0  0  0
    2.9961    0.6258    1.8956 H   0  0  0  0  0  0  0  0  0  0  0  0
   -3.7525   -0.5031    1.4480 H   0  0  0  0  0  0  0  0  0  0  0  0
   -5.2921    0.2809    1.3984 H   0  0  0  0  0  0  0  0  0  0  0  0
   -0.5285    2.8991    0.4696 H   0  0  0  0  0  0  0  0  0  0  0  0
    4.2385    3.9183   -1.6584 H   0  0  0  0  0  0  0  0  0  0  0  0
    4.7702    2.2153   -3.7395 H   0  0  0  0  0  0  0  0  0  0  0  0
    6.3015    2.5761   -2.8658 H   0  0  0  0  0  0  0  0  0  0  0  0
    6.1136    1.0351   -3.7537 H   0  0  0  0  0  0  0  0  0  0  0  0
   -5.4212    2.6404    1.2653 H   0  0  0  0  0  0  0  0  0  0  0  0
    2.3255    2.9986    2.0861 H   0  0  0  0  0  0  0  0  0  0  0  0
   -5.5340    1.4363   -1.2244 H   0  0  0  0  0  0  0  0  0  0  0  0
   -6.6103    0.1968   -0.5481 H   0  0  0  0  0  0  0  0  0  0  0  0
   -5.6251   -2.0127    0.1404 H   0  0  0  0  0  0  0  0  0  0  0  0
   -3.8794   -2.2663   -0.0664 H   0  0  0  0  0  0  0  0  0  0  0  0
   -1.8292    4.9525    0.8849 H   0  0  0  0  0  0  0  0  0  0  0  0
    2.9369    4.6280    0.3362 H   0  0  0  0  0  0  0  0  0  0  0  0
   -4.2745    4.8234    1.2830 H   0  0  0  0  0  0  0  0  0  0  0  0
   -6.7962    0.2472   -2.9955 H   0  0  0  0  0  0  0  0  0  0  0  0
   -5.0537    0.0209   -3.1969 H   0  0  0  0  0  0  0  0  0  0  0  0
   -4.1023   -2.1161   -2.5351 H   0  0  0  0  0  0  0  0  0  0  0  0
   -5.1985   -3.3427   -1.8858 H   0  0  0  0  0  0  0  0  0  0  0  0
  1 16  2  0  0  0  0
  2 37  1  0  0  0  0
  2 38  1  0  0  0  0
  3 10  1  0  0  0  0
  3 11  1  0  0  0  0
  3 14  1  0  0  0  0
  4 12  1  0  0  0  0
  4 13  1  0  0  0  0
  4 16  1  0  0  0  0
  5 22  1  0  0  0  0
  5 23  1  0  0  0  0
  5 29  1  0  0  0  0
  6 27  1  0  0  0  0
  6 33  1  0  0  0  0
  6 34  1  0  0  0  0
  7  9  1  0  0  0  0
  7 10  1  0  0  0  0
  7 12  1  0  0  0  0
  7 39  1  0  0  0  0
  8  9  1  0  0  0  0
  8 11  1  0  0  0  0
  8 13  1  0  0  0  0
  8 40  1  0  0  0  0
  9 41  1  0  0  0  0
  9 42  1  0  0  0  0
 10 43  1  0  0  0  0
 10 44  1  0  0  0  0
 11 45  1  0  0  0  0
 11 46  1  0  0  0  0
 12 47  1  0  0  0  0
 12 48  1  0  0  0  0
 13 15  2  0  0  0  0
 14 17  1  0  0  0  0
 14 49  1  0  0  0  0
 14 50  1  0  0  0  0
 15 19  1  0  0  0  0
 15 51  1  0  0  0  0
 16 18  1  0  0  0  0
 17 20  1  0  0  0  0
 17 22  2  0  0  0  0
 18 19  2  0  0  0  0
 18 21  1  0  0  0  0
 19 52  1  0  0  0  0
 20 23  1  0  0  0  0
 20 25  2  0  0  0  0
 21 24  1  0  0  0  0
 21 26  2  0  0  0  0
 22 53  1  0  0  0  0
 23 28  2  0  0  0  0
 24 27  1  0  0  0  0
 24 30  2  0  0  0  0
 25 31  1  0  0  0  0
 25 54  1  0  0  0  0
 26 32  1  0  0  0  0
 26 57  1  0  0  0  0
 27 55  1  0  0  0  0
 27 56  1  0  0  0  0
 28 35  1  0  0  0  0
 28 58  1  0  0  0  0
 29 59  1  0  0  0  0
 29 60  1  0  0  0  0
 29 61  1  0  0  0  0
 30 36  1  0  0  0  0
 30 62  1  0  0  0  0
 31 35  2  0  0  0  0
 31 63  1  0  0  0  0
 32 36  2  0  0  0  0
 32 68  1  0  0  0  0
 33 37  1  0  0  0  0
 33 64  1  0  0  0  0
 33 65  1  0  0  0  0
 34 38  1  0  0  0  0
 34 66  1  0  0  0  0
 34 67  1  0  0  0  0
 35 69  1  0  0  0  0
 36 70  1  0  0  0  0
 37 71  1  0  0  0  0
 37 72  1  0  0  0  0
 38 73  1  0  0  0  0
 38 74  1  0  0  0  0
M  END
> <PUBCHEM_COMPOUND_CID>
28990896

> <PUBCHEM_CONFORMER_RMSD>
1

> <PUBCHEM_CONFORMER_DIVERSEORDER>
1
66
131
114
78
68
123
85
42
14
47
72
102
36
87
69
129
99
35
43
116
127
44
64
101
53
124
26
2
60
76
106
120
117
21
58
3
65
75
80
57
128
104
17
88
103
126
95
89
6
56
24
12
22
92
54
109
59
45
113
71
61
34
105
38
29
37
130
79
94
10
98
84
20
122
25
51
74
91
19
83
41
111
5
11
82
118
23
86
7
108
70
31
93
40
46
97
50
32
73
81
27
90
100
110
115
55
33
112
15
63
9
107
28
67
8
77
119
52
13
18
39
96
121
48
62
49
125
16
30
4

> <PUBCHEM_MMFF94_PARTIAL_CHARGES>
46
1 -0.57
10 0.27
11 0.27
12 0.3
13 -0.03
14 0.45
15 -0.15
16 0.62
17 -0.18
18 -0.01
19 -0.15
2 -0.56
21 0.03
22 -0.3
23 -0.15
24 -0.14
25 -0.15
26 -0.15
27 0.41
28 -0.15
29 0.26
3 -0.81
30 -0.15
31 -0.15
32 -0.15
33 0.27
34 0.27
35 -0.15
36 -0.15
37 0.28
38 0.28
4 -0.47
5 0.05
51 0.15
52 0.15
53 0.15
54 0.15
57 0.15
58 0.15
6 -0.81
62 0.15
63 0.15
68 0.15
69 0.15
70 0.15
8 0.14

> <PUBCHEM_EFFECTIVE_ROTOR_COUNT>
7.2

> <PUBCHEM_PHARMACOPHORE_FEATURES>
12
1 1 acceptor
1 2 acceptor
1 3 cation
1 5 cation
1 6 cation
5 5 17 20 22 23 rings
6 2 6 33 34 37 38 rings
6 20 23 25 28 31 35 rings
6 21 24 26 30 32 36 rings
6 3 7 8 9 10 11 rings
6 4 13 15 16 18 19 rings
6 4 7 8 9 12 13 rings

> <PUBCHEM_HEAVY_ATOM_COUNT>
38

> <PUBCHEM_ATOM_DEF_STEREO_COUNT>
2

> <PUBCHEM_ATOM_UDEF_STEREO_COUNT>
0

> <PUBCHEM_BOND_DEF_STEREO_COUNT>
0

> <PUBCHEM_BOND_UDEF_STEREO_COUNT>
0

> <PUBCHEM_ISOTOPIC_ATOM_COUNT>
0

> <PUBCHEM_COMPONENT_COUNT>
1

> <PUBCHEM_CACTVS_TAUTO_COUNT>
3

> <PUBCHEM_CONFORMER_ID>
01BA5DB000000001

> <PUBCHEM_MMFF94_ENERGY>
93.5997

> <PUBCHEM_FEATURE_SELFOVERLAP>
62.546

> <PUBCHEM_SHAPE_FINGERPRINT>
10190206 1 18341617069791603013
10581848 31 17829338221806067263
10653451 467 17397829459032034299
10675989 125 18195232536929320689
10940486 97 17694777424445297691
11227688 84 18197211658898190263
11331351 85 17181648477593852954
1361 2 18264767834155309877
13782708 43 14764062432825009151
15001296 14 18129368445088548533
15082195 135 18267571426013502359
15250474 111 18341045212355363505
17809404 112 15647341788589298107
20764821 26 18335710386501744368
20775438 99 17483094330375034140
21033648 29 15140970529921294711
23559900 14 17270037190958706327
24771293 8 18193829355057702546
25223398 141 17417232231051914918
354706 35 18125166189141872636
5312544 6 18409442609182502658
5776283 40 18197517301640610156
6086070 43 17535446154939669678
6201320 77 14763252071106694911
6371009 1 18335129891601072592
6669772 16 17625521764240153953

> <PUBCHEM_SHAPE_MULTIPOLES>
750.36
13.35
5.39
2.4
6.37
0.95
0.91
4.08
9.8
-1.49
-1.87
0.13
-0.42
-4.52

> <PUBCHEM_SHAPE_SELFOVERLAP>
1658.181

> <PUBCHEM_SHAPE_VOLUME>
397.4

> <PUBCHEM_COORDINATE_TYPE>
2
5
10

$$$$
