11867058
  -OEChem-12032416133D

 68 71  0     1  0  0  0  0  0999 V2000
    0.2591    2.4058    0.5088 S   0  0  0  0  0  0  0  0  0  0  0  0
    8.8187    2.1176    0.0863 F   0  0  0  0  0  0  0  0  0  0  0  0
   -7.3452    0.8795   -0.7038 O   0  0  0  0  0  0  0  0  0  0  0  0
   -6.8614    2.2358    1.2122 O   0  0  0  0  0  0  0  0  0  0  0  0
    0.2222   -2.0977   -2.0704 O   0  0  0  0  0  0  0  0  0  0  0  0
    3.3732   -0.8372   -0.6986 O   0  0  0  0  0  0  0  0  0  0  0  0
    0.5530   -0.0180   -0.3465 N   0  0  0  0  0  0  0  0  0  0  0  0
    0.8106   -3.4753   -0.2996 N   0  0  0  0  0  0  0  0  0  0  0  0
    2.5662    1.2462    0.0520 N   0  0  0  0  0  0  0  0  0  0  0  0
   -3.2602   -0.4674    0.0081 C   0  0  2  0  0  0  0  0  0  0  0  0
   -3.5493    1.0671   -0.3037 C   0  0  1  0  0  0  0  0  0  0  0  0
   -5.0448    1.5531   -0.1812 C   0  0  1  0  0  0  0  0  0  0  0  0
   -1.8231   -0.8296   -0.5894 C   0  0  1  0  0  0  0  0  0  0  0  0
   -4.3210   -1.3469   -0.7034 C   0  0  0  0  0  0  0  0  0  0  0  0
   -5.9741    0.5385   -0.9058 C   0  0  1  0  0  0  0  0  0  0  0  0
   -2.5273    1.9957    0.4148 C   0  0  0  0  0  0  0  0  0  0  0  0
   -5.7559   -0.9024   -0.4577 C   0  0  0  0  0  0  0  0  0  0  0  0
   -3.2837   -0.7881    1.5229 C   0  0  0  0  0  0  0  0  0  0  0  0
   -0.8037    0.2180   -0.2221 C   0  0  0  0  0  0  0  0  0  0  0  0
   -5.5217    1.7996    1.2673 C   0  0  0  0  0  0  0  0  0  0  0  0
   -5.1953    2.9191   -0.9087 C   0  0  0  0  0  0  0  0  0  0  0  0
   -1.1415    1.4848    0.2087 C   0  0  0  0  0  0  0  0  0  0  0  0
   -1.3269   -2.2408   -0.2466 C   0  0  0  0  0  0  0  0  0  0  0  0
   -0.0376   -2.5857   -0.9673 C   0  0  0  0  0  0  0  0  0  0  0  0
    1.2094    1.0620    0.0182 C   0  0  0  0  0  0  0  0  0  0  0  0
    0.4813   -4.0404    1.0069 C   0  0  0  0  0  0  0  0  0  0  0  0
    2.0871   -3.9055   -0.8571 C   0  0  0  0  0  0  0  0  0  0  0  0
    3.5505    0.3086   -0.3000 C   0  0  0  0  0  0  0  0  0  0  0  0
    0.9831   -3.1939    2.0888 C   0  0  0  0  0  0  0  0  0  0  0  0
    4.9538    0.7897   -0.1964 C   0  0  0  0  0  0  0  0  0  0  0  0
    5.9135    0.2187   -1.0050 C   0  0  0  0  0  0  0  0  0  0  0  0
    5.2483    1.7918    0.7038 C   0  0  0  0  0  0  0  0  0  0  0  0
    1.3939   -2.5019    2.9799 C   0  0  0  0  0  0  0  0  0  0  0  0
    7.2295    0.6711   -0.9089 C   0  0  0  0  0  0  0  0  0  0  0  0
    6.5644    2.2441    0.7999 C   0  0  0  0  0  0  0  0  0  0  0  0
    7.5549    1.6837   -0.0065 C   0  0  0  0  0  0  0  0  0  0  0  0
   -3.3241    1.1648   -1.3801 H   0  0  0  0  0  0  0  0  0  0  0  0
   -1.9137   -0.7665   -1.6847 H   0  0  0  0  0  0  0  0  0  0  0  0
   -4.2265   -2.3935   -0.3908 H   0  0  0  0  0  0  0  0  0  0  0  0
   -4.1409   -1.3344   -1.7865 H   0  0  0  0  0  0  0  0  0  0  0  0
   -5.7917    0.5833   -1.9880 H   0  0  0  0  0  0  0  0  0  0  0  0
   -2.7323    2.0434    1.4896 H   0  0  0  0  0  0  0  0  0  0  0  0
   -2.5984    3.0141    0.0186 H   0  0  0  0  0  0  0  0  0  0  0  0
   -6.4390   -1.5581   -1.0128 H   0  0  0  0  0  0  0  0  0  0  0  0
   -6.0355   -1.0286    0.5942 H   0  0  0  0  0  0  0  0  0  0  0  0
   -2.5067   -0.2540    2.0774 H   0  0  0  0  0  0  0  0  0  0  0  0
   -4.2373   -0.5603    1.9921 H   0  0  0  0  0  0  0  0  0  0  0  0
   -3.1321   -1.8579    1.7043 H   0  0  0  0  0  0  0  0  0  0  0  0
   -4.9256    2.5559    1.7871 H   0  0  0  0  0  0  0  0  0  0  0  0
   -5.5214    0.8984    1.8736 H   0  0  0  0  0  0  0  0  0  0  0  0
   -6.2344    3.2471   -1.0084 H   0  0  0  0  0  0  0  0  0  0  0  0
   -4.7869    2.8656   -1.9248 H   0  0  0  0  0  0  0  0  0  0  0  0
   -4.6622    3.7179   -0.3822 H   0  0  0  0  0  0  0  0  0  0  0  0
   -1.1796   -2.2670    0.8325 H   0  0  0  0  0  0  0  0  0  0  0  0
   -2.0628   -3.0027   -0.5210 H   0  0  0  0  0  0  0  0  0  0  0  0
   -7.5525    1.6406   -1.2705 H   0  0  0  0  0  0  0  0  0  0  0  0
   -6.8597    3.2021    1.1061 H   0  0  0  0  0  0  0  0  0  0  0  0
    2.8377    2.1853    0.3252 H   0  0  0  0  0  0  0  0  0  0  0  0
   -0.5947   -4.2136    1.1004 H   0  0  0  0  0  0  0  0  0  0  0  0
    0.9390   -5.0351    1.0731 H   0  0  0  0  0  0  0  0  0  0  0  0
    2.8890   -3.6622   -0.1545 H   0  0  0  0  0  0  0  0  0  0  0  0
    2.2850   -3.4086   -1.8103 H   0  0  0  0  0  0  0  0  0  0  0  0
    2.0549   -4.9864   -1.0222 H   0  0  0  0  0  0  0  0  0  0  0  0
    5.6773   -0.5659   -1.7175 H   0  0  0  0  0  0  0  0  0  0  0  0
    4.5193    2.2274    1.3785 H   0  0  0  0  0  0  0  0  0  0  0  0
    1.7582   -1.8862    3.7687 H   0  0  0  0  0  0  0  0  0  0  0  0
    8.0010    0.2361   -1.5374 H   0  0  0  0  0  0  0  0  0  0  0  0
    6.8204    3.0262    1.5087 H   0  0  0  0  0  0  0  0  0  0  0  0
  1 22  1  0  0  0  0
  1 25  1  0  0  0  0
  2 36  1  0  0  0  0
  3 15  1  0  0  0  0
  3 56  1  0  0  0  0
  4 20  1  0  0  0  0
  4 57  1  0  0  0  0
  5 24  2  0  0  0  0
  6 28  2  0  0  0  0
  7 19  1  0  0  0  0
  7 25  2  0  0  0  0
  8 24  1  0  0  0  0
  8 26  1  0  0  0  0
  8 27  1  0  0  0  0
  9 25  1  0  0  0  0
  9 28  1  0  0  0  0
  9 58  1  0  0  0  0
 10 11  1  0  0  0  0
 10 13  1  0  0  0  0
 10 14  1  0  0  0  0
 10 18  1  0  0  0  0
 11 12  1  0  0  0  0
 11 16  1  0  0  0  0
 11 37  1  0  0  0  0
 12 15  1  0  0  0  0
 12 20  1  0  0  0  0
 12 21  1  0  0  0  0
 13 19  1  0  0  0  0
 13 23  1  0  0  0  0
 13 38  1  0  0  0  0
 14 17  1  0  0  0  0
 14 39  1  0  0  0  0
 14 40  1  0  0  0  0
 15 17  1  0  0  0  0
 15 41  1  0  0  0  0
 16 22  1  0  0  0  0
 16 42  1  0  0  0  0
 16 43  1  0  0  0  0
 17 44  1  0  0  0  0
 17 45  1  0  0  0  0
 18 46  1  0  0  0  0
 18 47  1  0  0  0  0
 18 48  1  0  0  0  0
 19 22  2  0  0  0  0
 20 49  1  0  0  0  0
 20 50  1  0  0  0  0
 21 51  1  0  0  0  0
 21 52  1  0  0  0  0
 21 53  1  0  0  0  0
 23 24  1  0  0  0  0
 23 54  1  0  0  0  0
 23 55  1  0  0  0  0
 26 29  1  0  0  0  0
 26 59  1  0  0  0  0
 26 60  1  0  0  0  0
 27 61  1  0  0  0  0
 27 62  1  0  0  0  0
 27 63  1  0  0  0  0
 28 30  1  0  0  0  0
 29 33  3  0  0  0  0
 30 31  2  0  0  0  0
 30 32  1  0  0  0  0
 31 34  1  0  0  0  0
 31 64  1  0  0  0  0
 32 35  2  0  0  0  0
 32 65  1  0  0  0  0
 33 66  1  0  0  0  0
 34 36  2  0  0  0  0
 34 67  1  0  0  0  0
 35 36  1  0  0  0  0
 35 68  1  0  0  0  0
M  END
> <PUBCHEM_COMPOUND_CID>
11867058

> <PUBCHEM_CONFORMER_RMSD>
1

> <PUBCHEM_CONFORMER_DIVERSEORDER>
1
20
9
19
14
17
15
21
16
6
22
10
18
7
8
13
12
11
5
3
2
4

> <PUBCHEM_MMFF94_PARTIAL_CHARGES>
37
1 -0.08
13 0.18
15 0.28
16 0.18
19 0.05
2 -0.19
20 0.28
22 -0.14
23 0.06
24 0.57
25 0.44
26 0.5
27 0.3
28 0.54
29 -0.2
3 -0.68
30 0.09
31 -0.15
32 -0.15
33 -0.18
34 -0.15
35 -0.15
36 0.19
4 -0.68
5 -0.57
56 0.4
57 0.4
58 0.37
6 -0.57
64 0.15
65 0.15
66 0.18
67 0.15
68 0.15
7 -0.57
8 -0.66
9 -0.49

> <PUBCHEM_EFFECTIVE_ROTOR_COUNT>
9.2

> <PUBCHEM_PHARMACOPHORE_FEATURES>
12
1 3 acceptor
1 3 donor
1 33 hydrophobe
1 4 acceptor
1 4 donor
1 5 acceptor
1 6 acceptor
1 9 donor
5 1 7 19 22 25 rings
6 10 11 12 14 15 17 rings
6 10 11 13 16 19 22 rings
6 30 31 32 34 35 36 rings

> <PUBCHEM_HEAVY_ATOM_COUNT>
36

> <PUBCHEM_ATOM_DEF_STEREO_COUNT>
5

> <PUBCHEM_ATOM_UDEF_STEREO_COUNT>
0

> <PUBCHEM_BOND_DEF_STEREO_COUNT>
0

> <PUBCHEM_BOND_UDEF_STEREO_COUNT>
0

> <PUBCHEM_ISOTOPIC_ATOM_COUNT>
0

> <PUBCHEM_COMPONENT_COUNT>
1

> <PUBCHEM_CACTVS_TAUTO_COUNT>
3

> <PUBCHEM_CONFORMER_ID>
00B513B200000001

> <PUBCHEM_MMFF94_ENERGY>
116.9788

> <PUBCHEM_FEATURE_SELFOVERLAP>
61.042

> <PUBCHEM_SHAPE_FINGERPRINT>
10411042 1 17692809702770539591
10674148 151 18410570709336337128
11007060 377 18269557302520913122
11135609 187 18341612594446249344
11135926 11 18412261706042361317
11315181 36 18272934946982534841
11421498 54 12966865489594634310
11578080 2 17387960990095533815
12838862 33 18341877620130713580
13150687 139 18412548700284188502
14190465 44 18191866945597378084
14394314 77 18413393128702581785
14725015 67 17904765827273311786
14790565 3 18411702118552720221
14856354 85 16660646296940780713
15183329 4 18410853261152937673
15361156 5 18051694640636033052
15444296 121 17969227914040794052
15927050 60 18341609334698479967
18608769 82 18268994353201072343
18681886 176 17917702548283907849
20554085 129 18129926936907991586
21133665 82 18410293636659231422
21360443 120 18334012792066810694
21421861 104 18118966893380857531
23559900 14 17917140701726073625
249057 3 18336829792745349548
3383291 50 18265335199646569194
3411729 13 18334856061102146347
4258327 124 17969237801230174380
5219985 9 10087643693529871656
5265222 85 18337956821711476820
5385378 56 18339651027353228081
5758199 1 18343305851238416489
5776283 40 18200311164722942968
59755656 215 18343023272180382374
6371380 46 18271802480081025584
6669772 16 18336270045945876822
7288768 16 18113898290911732242

> <PUBCHEM_SHAPE_MULTIPOLES>
699.02
18.71
4.34
1.52
17.26
4.3
-0.82
-18.85
1.82
1.05
-0.93
0
1.23
-0.21

> <PUBCHEM_SHAPE_SELFOVERLAP>
1480.839

> <PUBCHEM_SHAPE_VOLUME>
394.6

> <PUBCHEM_COORDINATE_TYPE>
2
5
10

$$$$
