7127906
  -OEChem-12032416153D

 53 53  0     1  0  0  0  0  0999 V2000
    5.7552    1.2867   -0.4670 S   0  0  0  0  0  0  0  0  0  0  0  0
   -2.5353    0.3339    2.2096 O   0  0  0  0  0  0  0  0  0  0  0  0
   -1.1620    3.1467    0.3162 O   0  0  0  0  0  0  0  0  0  0  0  0
    0.6553   -1.0202   -2.0562 O   0  0  0  0  0  0  0  0  0  0  0  0
   -5.5395    1.3483   -0.6189 O   0  0  0  0  0  0  0  0  0  0  0  0
    6.9311    0.4685   -0.7100 O   0  0  0  0  0  0  0  0  0  0  0  0
    5.1966    2.1114   -1.5249 O   0  0  0  0  0  0  0  0  0  0  0  0
    2.8559   -2.3762    1.9551 O   0  0  0  0  0  0  0  0  0  0  0  0
   -3.9171   -0.2340   -0.1189 N   0  0  0  0  0  0  0  0  0  0  0  0
    1.7538   -0.9429   -0.0014 N   0  0  0  0  0  0  0  0  0  0  0  0
    4.4081   -3.3564    0.5748 N   0  0  0  0  0  0  0  0  0  0  0  0
   -8.5690   -1.6073   -0.3278 N   0  0  0  0  0  0  0  0  0  0  0  0
   -2.5151    1.3269    1.1819 C   0  0  2  0  0  0  0  0  0  0  0  0
   -2.7909    0.6652   -0.1818 C   0  0  1  0  0  0  0  0  0  0  0  0
   -1.1514    2.0284    1.2011 C   0  0  1  0  0  0  0  0  0  0  0  0
   -0.0038    1.0732    0.8305 C   0  0  0  0  0  0  0  0  0  0  0  0
   -0.3616    0.1076   -0.2634 C   0  0  0  0  0  0  0  0  0  0  0  0
   -1.6045   -0.0790   -0.7325 C   0  0  0  0  0  0  0  0  0  0  0  0
    0.7179   -0.6705   -0.8780 C   0  0  0  0  0  0  0  0  0  0  0  0
    2.9279   -1.6974   -0.3768 C   0  0  1  0  0  0  0  0  0  0  0  0
    4.0545   -0.7929   -0.8815 C   0  0  0  0  0  0  0  0  0  0  0  0
    4.4744    0.2424    0.1538 C   0  0  0  0  0  0  0  0  0  0  0  0
   -5.2169    0.1948   -0.3474 C   0  0  0  0  0  0  0  0  0  0  0  0
    3.3796   -2.4795    0.8485 C   0  0  0  0  0  0  0  0  0  0  0  0
   -6.2141   -0.9436   -0.2228 C   0  0  0  0  0  0  0  0  0  0  0  0
    6.1187    2.3530    0.9090 C   0  0  0  0  0  0  0  0  0  0  0  0
   -7.6477   -0.4869   -0.4714 C   0  0  0  0  0  0  0  0  0  0  0  0
   -3.3155    2.0415    1.4063 H   0  0  0  0  0  0  0  0  0  0  0  0
   -3.0295    1.4544   -0.9070 H   0  0  0  0  0  0  0  0  0  0  0  0
   -0.9498    2.4194    2.2058 H   0  0  0  0  0  0  0  0  0  0  0  0
    0.2520    0.5074    1.7345 H   0  0  0  0  0  0  0  0  0  0  0  0
    0.8721    1.6634    0.5345 H   0  0  0  0  0  0  0  0  0  0  0  0
   -1.7940   -0.7745   -1.5471 H   0  0  0  0  0  0  0  0  0  0  0  0
   -3.7542   -1.2027    0.1432 H   0  0  0  0  0  0  0  0  0  0  0  0
    2.6517   -2.4119   -1.1615 H   0  0  0  0  0  0  0  0  0  0  0  0
    4.9230   -1.3893   -1.1842 H   0  0  0  0  0  0  0  0  0  0  0  0
    3.7138   -0.2750   -1.7875 H   0  0  0  0  0  0  0  0  0  0  0  0
    1.7117   -0.6285    0.9613 H   0  0  0  0  0  0  0  0  0  0  0  0
   -1.9350   -0.3882    1.9614 H   0  0  0  0  0  0  0  0  0  0  0  0
   -1.8855    3.7336    0.5946 H   0  0  0  0  0  0  0  0  0  0  0  0
    3.6408    0.8955    0.4303 H   0  0  0  0  0  0  0  0  0  0  0  0
    4.8668   -0.2346    1.0571 H   0  0  0  0  0  0  0  0  0  0  0  0
   -5.9331   -1.7221   -0.9431 H   0  0  0  0  0  0  0  0  0  0  0  0
   -6.1216   -1.3679    0.7849 H   0  0  0  0  0  0  0  0  0  0  0  0
    6.9099    3.0417    0.6059 H   0  0  0  0  0  0  0  0  0  0  0  0
    5.2171    2.9099    1.1705 H   0  0  0  0  0  0  0  0  0  0  0  0
    6.4551    1.7422    1.7487 H   0  0  0  0  0  0  0  0  0  0  0  0
   -7.7427   -0.0622   -1.4772 H   0  0  0  0  0  0  0  0  0  0  0  0
   -7.9236    0.2981    0.2413 H   0  0  0  0  0  0  0  0  0  0  0  0
    4.8038   -3.4651   -0.3532 H   0  0  0  0  0  0  0  0  0  0  0  0
    4.7954   -3.9460    1.3041 H   0  0  0  0  0  0  0  0  0  0  0  0
   -9.5148   -1.2975   -0.5474 H   0  0  0  0  0  0  0  0  0  0  0  0
   -8.3397   -2.3301   -1.0088 H   0  0  0  0  0  0  0  0  0  0  0  0
  1  6  2  0  0  0  0
  1  7  2  0  0  0  0
  1 22  1  0  0  0  0
  1 26  1  0  0  0  0
  2 13  1  0  0  0  0
  2 39  1  0  0  0  0
  3 15  1  0  0  0  0
  3 40  1  0  0  0  0
  4 19  2  0  0  0  0
  5 23  2  0  0  0  0
  8 24  2  0  0  0  0
  9 14  1  0  0  0  0
  9 23  1  0  0  0  0
  9 34  1  0  0  0  0
 10 19  1  0  0  0  0
 10 20  1  0  0  0  0
 10 38  1  0  0  0  0
 11 24  1  0  0  0  0
 11 50  1  0  0  0  0
 11 51  1  0  0  0  0
 12 27  1  0  0  0  0
 12 52  1  0  0  0  0
 12 53  1  0  0  0  0
 13 14  1  0  0  0  0
 13 15  1  0  0  0  0
 13 28  1  0  0  0  0
 14 18  1  0  0  0  0
 14 29  1  0  0  0  0
 15 16  1  0  0  0  0
 15 30  1  0  0  0  0
 16 17  1  0  0  0  0
 16 31  1  0  0  0  0
 16 32  1  0  0  0  0
 17 18  2  0  0  0  0
 17 19  1  0  0  0  0
 18 33  1  0  0  0  0
 20 21  1  0  0  0  0
 20 24  1  0  0  0  0
 20 35  1  0  0  0  0
 21 22  1  0  0  0  0
 21 36  1  0  0  0  0
 21 37  1  0  0  0  0
 22 41  1  0  0  0  0
 22 42  1  0  0  0  0
 23 25  1  0  0  0  0
 25 27  1  0  0  0  0
 25 43  1  0  0  0  0
 25 44  1  0  0  0  0
 26 45  1  0  0  0  0
 26 46  1  0  0  0  0
 26 47  1  0  0  0  0
 27 48  1  0  0  0  0
 27 49  1  0  0  0  0
M  END
> <PUBCHEM_COMPOUND_CID>
7127906

> <PUBCHEM_CONFORMER_RMSD>
1

> <PUBCHEM_CONFORMER_DIVERSEORDER>
1
83
167
76
171
161
69
57
101
183
119
34
137
162
188
175
155
118
123
50
143
65
138
47
164
134
86
103
87
5
96
80
179
106
68
173
148
74
90
27
61
189
89
153
141
71
35
29
152
142
82
94
98
172
11
48
158
154
31
73
88
110
140
126
108
112
177
174
111
45
4
15
81
122
157
129
165
49
7
30
70
41
181
67
58
107
115
64
124
16
125
170
185
160
104
42
184
95
79
25
12
63
28
178
77
52
8
36
55
146
59
117
44
17
128
18
97
91
85
6
46
43
22
149
26
156
186
10
66
133
135
182
127
92
33
166
144
53
150
2
130
100
9
39
176
19
13
93
147
145
40
105
114
132
136
60
120
3
180
32
131
72
38
54
168
139
102
151
24
159
62
109
84
75
51
23
113
163
116
187
56
78
37
20
121
169
99
21
14

> <PUBCHEM_MMFF94_PARTIAL_CHARGES>
35
1 1.09
10 -0.73
11 -0.8
12 -0.99
13 0.28
14 0.44
15 0.28
16 0.14
17 -0.12
18 -0.29
19 0.62
2 -0.68
20 0.36
22 0.11
23 0.57
24 0.57
25 0.06
26 0.11
27 0.27
3 -0.68
33 0.15
34 0.37
38 0.37
39 0.4
4 -0.57
40 0.4
5 -0.57
50 0.37
51 0.37
52 0.36
53 0.36
6 -0.65
7 -0.65
8 -0.57
9 -0.73

> <PUBCHEM_EFFECTIVE_ROTOR_COUNT>
11.8

> <PUBCHEM_PHARMACOPHORE_FEATURES>
15
1 10 donor
1 11 donor
1 12 cation
1 12 donor
1 2 acceptor
1 2 donor
1 3 acceptor
1 3 donor
1 4 acceptor
1 5 acceptor
1 6 acceptor
1 7 acceptor
1 8 acceptor
1 9 donor
6 13 14 15 16 17 18 rings

> <PUBCHEM_HEAVY_ATOM_COUNT>
27

> <PUBCHEM_ATOM_DEF_STEREO_COUNT>
4

> <PUBCHEM_ATOM_UDEF_STEREO_COUNT>
0

> <PUBCHEM_BOND_DEF_STEREO_COUNT>
0

> <PUBCHEM_BOND_UDEF_STEREO_COUNT>
0

> <PUBCHEM_ISOTOPIC_ATOM_COUNT>
0

> <PUBCHEM_COMPONENT_COUNT>
1

> <PUBCHEM_CACTVS_TAUTO_COUNT>
8

> <PUBCHEM_CONFORMER_ID>
006CC36200000001

> <PUBCHEM_MMFF94_ENERGY>
39.7231

> <PUBCHEM_FEATURE_SELFOVERLAP>
76.152

> <PUBCHEM_SHAPE_FINGERPRINT>
10670039 82 16916795033324668224
10906281 52 17988657250813020233
12596602 18 18408603630450594379
12788726 201 18059858316022488153
13533116 47 18188772743281659738
13617811 41 18339074999119856992
13692114 37 18335414695547781442
13899415 154 17131834282910292865
14123256 10 18060703904999721612
14461889 52 18113620131090241546
1454969 45 17846499253279240175
14840074 17 17346875654996167725
15183329 4 14057003789428970183
15301273 46 14836129853806066601
17492 89 18125723379158949854
20511986 3 18114453492527431975
21049683 271 18270682082106806385
21774942 28 14996826737996446135
23559900 14 16226630489247608214
34797466 226 16558757844899292948
3633792 109 17895472523219283271
4098825 35 18260545611611939717
4325135 7 18411702105640814797
4340502 62 18113052749126215602
465052 167 18202278078991679367
474 4 18333739039910537036
5486654 2 18342178894463514758
8988823 20 17749104466051723010

> <PUBCHEM_SHAPE_MULTIPOLES>
498.49
19.07
2.82
1.4
19.53
0.34
0.3
1.36
-3.49
-3.76
0.93
-0.78
0.11
-1.48

> <PUBCHEM_SHAPE_SELFOVERLAP>
991.672

> <PUBCHEM_SHAPE_VOLUME>
295.4

> <PUBCHEM_COORDINATE_TYPE>
2
5
10

$$$$
