45361666
  -OEChem-12032416313D

 71 74  0     1  0  0  0  0  0999 V2000
    8.4670   -1.9883    1.7945 F   0  0  0  0  0  0  0  0  0  0  0  0
   -2.2275   -0.8997   -1.6891 O   0  0  0  0  0  0  0  0  0  0  0  0
   -6.6232    1.3432    0.0933 O   0  0  0  0  0  0  0  0  0  0  0  0
    4.0030   -0.6381    1.1686 O   0  0  0  0  0  0  0  0  0  0  0  0
    2.8141    0.5921   -0.3855 N   0  0  0  0  0  0  0  0  0  0  0  0
   -6.5165   -0.9641    0.0405 N   0  0  0  0  0  0  0  0  0  0  0  0
    5.0660    0.3061   -0.6994 N   0  0  0  0  0  0  0  0  0  0  0  0
   -1.1443    1.6545    0.9336 C   0  0  1  0  0  0  0  0  0  0  0  0
   -1.0241    0.4381   -0.0437 C   0  0  2  0  0  0  0  0  0  0  0  0
    0.3637    0.4472   -0.7795 C   0  0  1  0  0  0  0  0  0  0  0  0
   -2.2706    0.3330   -0.9689 C   0  0  2  0  0  0  0  0  0  0  0  0
   -2.4709    1.5531    1.7230 C   0  0  0  0  0  0  0  0  0  0  0  0
   -3.5999    0.3369   -0.1786 C   0  0  1  0  0  0  0  0  0  0  0  0
    0.0159    1.5980    1.9540 C   0  0  0  0  0  0  0  0  0  0  0  0
    1.5225    0.4662    0.2567 C   0  0  2  0  0  0  0  0  0  0  0  0
   -3.6961    1.4897    0.8206 C   0  0  0  0  0  0  0  0  0  0  0  0
    1.3888    1.5777    1.2974 C   0  0  0  0  0  0  0  0  0  0  0  0
   -1.1078    3.0162    0.1945 C   0  0  0  0  0  0  0  0  0  0  0  0
   -4.8166    0.3649   -1.1118 C   0  0  2  0  0  0  0  0  0  0  0  0
    0.5610   -0.7402   -1.7370 C   0  0  0  0  0  0  0  0  0  0  0  0
   -4.8213    1.6179   -1.9684 C   0  0  0  0  0  0  0  0  0  0  0  0
   -6.0683    0.3060   -0.2734 C   0  0  0  0  0  0  0  0  0  0  0  0
    3.9786    0.0187    0.1303 C   0  0  0  0  0  0  0  0  0  0  0  0
   -5.9097   -2.2284   -0.3643 C   0  0  0  0  0  0  0  0  0  0  0  0
   -7.7065   -1.1908    0.8476 C   0  0  0  0  0  0  0  0  0  0  0  0
   -6.6276   -3.2784    0.4716 C   0  0  0  0  0  0  0  0  0  0  0  0
   -8.0103   -2.6704    0.6701 C   0  0  0  0  0  0  0  0  0  0  0  0
    6.4139   -0.0883   -0.5318 C   0  0  0  0  0  0  0  0  0  0  0  0
    6.7831   -0.8597    0.5703 C   0  0  0  0  0  0  0  0  0  0  0  0
    7.3744    0.2946   -1.4682 C   0  0  0  0  0  0  0  0  0  0  0  0
    8.1124   -1.2484    0.7360 C   0  0  0  0  0  0  0  0  0  0  0  0
    8.7038   -0.0937   -1.3025 C   0  0  0  0  0  0  0  0  0  0  0  0
    9.0728   -0.8654   -0.2005 C   0  0  0  0  0  0  0  0  0  0  0  0
   -1.0236   -0.4777    0.5691 H   0  0  0  0  0  0  0  0  0  0  0  0
    0.4316    1.3517   -1.3972 H   0  0  0  0  0  0  0  0  0  0  0  0
   -2.2191    1.1397   -1.7029 H   0  0  0  0  0  0  0  0  0  0  0  0
   -2.4561    0.6549    2.3552 H   0  0  0  0  0  0  0  0  0  0  0  0
   -2.5723    2.4057    2.4068 H   0  0  0  0  0  0  0  0  0  0  0  0
   -3.6317   -0.5890    0.4101 H   0  0  0  0  0  0  0  0  0  0  0  0
   -0.0397    2.4524    2.6406 H   0  0  0  0  0  0  0  0  0  0  0  0
   -0.0835    0.6982    2.5760 H   0  0  0  0  0  0  0  0  0  0  0  0
    1.5111   -0.4932    0.7920 H   0  0  0  0  0  0  0  0  0  0  0  0
   -4.5592    1.3613    1.4832 H   0  0  0  0  0  0  0  0  0  0  0  0
   -3.8178    2.4623    0.3397 H   0  0  0  0  0  0  0  0  0  0  0  0
    1.6021    2.5516    0.8401 H   0  0  0  0  0  0  0  0  0  0  0  0
    2.1512    1.4503    2.0769 H   0  0  0  0  0  0  0  0  0  0  0  0
   -1.8956    3.1048   -0.5588 H   0  0  0  0  0  0  0  0  0  0  0  0
   -1.2408    3.8424    0.9028 H   0  0  0  0  0  0  0  0  0  0  0  0
   -0.1623    3.1922   -0.3248 H   0  0  0  0  0  0  0  0  0  0  0  0
   -4.7903   -0.4857   -1.8003 H   0  0  0  0  0  0  0  0  0  0  0  0
   -0.0758   -0.6447   -2.6209 H   0  0  0  0  0  0  0  0  0  0  0  0
    1.5853   -0.7911   -2.1201 H   0  0  0  0  0  0  0  0  0  0  0  0
    0.3457   -1.6917   -1.2399 H   0  0  0  0  0  0  0  0  0  0  0  0
    2.8895    1.1893   -1.2033 H   0  0  0  0  0  0  0  0  0  0  0  0
   -2.2294   -1.6270   -1.0436 H   0  0  0  0  0  0  0  0  0  0  0  0
   -3.9817    1.6538   -2.6672 H   0  0  0  0  0  0  0  0  0  0  0  0
   -5.7257    1.6258   -2.5911 H   0  0  0  0  0  0  0  0  0  0  0  0
   -4.8464    2.5555   -1.4082 H   0  0  0  0  0  0  0  0  0  0  0  0
   -6.1151   -2.3701   -1.4312 H   0  0  0  0  0  0  0  0  0  0  0  0
   -4.8311   -2.2464   -0.2037 H   0  0  0  0  0  0  0  0  0  0  0  0
   -7.4533   -0.9534    1.8868 H   0  0  0  0  0  0  0  0  0  0  0  0
   -8.5259   -0.5412    0.5262 H   0  0  0  0  0  0  0  0  0  0  0  0
   -6.1300   -3.3898    1.4426 H   0  0  0  0  0  0  0  0  0  0  0  0
   -6.6559   -4.2574   -0.0144 H   0  0  0  0  0  0  0  0  0  0  0  0
   -8.6154   -2.8248   -0.2314 H   0  0  0  0  0  0  0  0  0  0  0  0
   -8.5474   -3.0960    1.5220 H   0  0  0  0  0  0  0  0  0  0  0  0
    4.8738    0.8653   -1.5267 H   0  0  0  0  0  0  0  0  0  0  0  0
    6.0987   -1.1946    1.3366 H   0  0  0  0  0  0  0  0  0  0  0  0
    7.1002    0.8957   -2.3313 H   0  0  0  0  0  0  0  0  0  0  0  0
    9.4517    0.2045   -2.0314 H   0  0  0  0  0  0  0  0  0  0  0  0
   10.1078   -1.1679   -0.0712 H   0  0  0  0  0  0  0  0  0  0  0  0
  1 31  1  0  0  0  0
  2 11  1  0  0  0  0
  2 55  1  0  0  0  0
  3 22  2  0  0  0  0
  4 23  2  0  0  0  0
  5 15  1  0  0  0  0
  5 23  1  0  0  0  0
  5 54  1  0  0  0  0
  6 22  1  0  0  0  0
  6 24  1  0  0  0  0
  6 25  1  0  0  0  0
  7 23  1  0  0  0  0
  7 28  1  0  0  0  0
  7 67  1  0  0  0  0
  8  9  1  0  0  0  0
  8 12  1  0  0  0  0
  8 14  1  0  0  0  0
  8 18  1  0  0  0  0
  9 10  1  0  0  0  0
  9 11  1  0  0  0  0
  9 34  1  0  0  0  0
 10 15  1  0  0  0  0
 10 20  1  0  0  0  0
 10 35  1  0  0  0  0
 11 13  1  0  0  0  0
 11 36  1  0  0  0  0
 12 16  1  0  0  0  0
 12 37  1  0  0  0  0
 12 38  1  0  0  0  0
 13 16  1  0  0  0  0
 13 19  1  0  0  0  0
 13 39  1  0  0  0  0
 14 17  1  0  0  0  0
 14 40  1  0  0  0  0
 14 41  1  0  0  0  0
 15 17  1  0  0  0  0
 15 42  1  0  0  0  0
 16 43  1  0  0  0  0
 16 44  1  0  0  0  0
 17 45  1  0  0  0  0
 17 46  1  0  0  0  0
 18 47  1  0  0  0  0
 18 48  1  0  0  0  0
 18 49  1  0  0  0  0
 19 21  1  0  0  0  0
 19 22  1  0  0  0  0
 19 50  1  0  0  0  0
 20 51  1  0  0  0  0
 20 52  1  0  0  0  0
 20 53  1  0  0  0  0
 21 56  1  0  0  0  0
 21 57  1  0  0  0  0
 21 58  1  0  0  0  0
 24 26  1  0  0  0  0
 24 59  1  0  0  0  0
 24 60  1  0  0  0  0
 25 27  1  0  0  0  0
 25 61  1  0  0  0  0
 25 62  1  0  0  0  0
 26 27  1  0  0  0  0
 26 63  1  0  0  0  0
 26 64  1  0  0  0  0
 27 65  1  0  0  0  0
 27 66  1  0  0  0  0
 28 29  2  0  0  0  0
 28 30  1  0  0  0  0
 29 31  1  0  0  0  0
 29 68  1  0  0  0  0
 30 32  2  0  0  0  0
 30 69  1  0  0  0  0
 31 33  2  0  0  0  0
 32 33  1  0  0  0  0
 32 70  1  0  0  0  0
 33 71  1  0  0  0  0
M  END
> <PUBCHEM_COMPOUND_CID>
45361666

> <PUBCHEM_CONFORMER_RMSD>
1

> <PUBCHEM_CONFORMER_DIVERSEORDER>
1
8
55
63
88
45
99
57
107
101
78
70
44
79
42
76
90
71
54
96
92
69
83
108
43
81
100
103
80
86
93
56
15
47
82
29
104
23
95
18
28
58
87
91
98
84
89
105
30
85
41
17
32
74
62
67
72
106
38
27
19
65
24
53
52
77
102
11
64
75
51
31
48
68
66
26
36
33
59
40
60
37
61
22
73
16
7
97
50
94
39
12
46
10
49
34
35
14
13
9
20
5
6
3
25
2
4
21

> <PUBCHEM_MMFF94_PARTIAL_CHARGES>
27
1 -0.19
11 0.28
15 0.3
19 0.06
2 -0.68
22 0.57
23 0.69
24 0.3
25 0.3
28 0.12
29 -0.15
3 -0.57
30 -0.15
31 0.19
32 -0.15
33 -0.15
4 -0.57
5 -0.73
54 0.37
55 0.4
6 -0.66
67 0.37
68 0.15
69 0.15
7 -0.55
70 0.15
71 0.15

> <PUBCHEM_EFFECTIVE_ROTOR_COUNT>
9.6

> <PUBCHEM_PHARMACOPHORE_FEATURES>
11
1 2 acceptor
1 2 donor
1 21 hydrophobe
1 3 acceptor
1 4 acceptor
1 5 donor
1 7 donor
5 6 24 25 26 27 rings
6 28 29 30 31 32 33 rings
6 8 9 10 14 15 17 rings
6 8 9 11 12 13 16 rings

> <PUBCHEM_HEAVY_ATOM_COUNT>
33

> <PUBCHEM_ATOM_DEF_STEREO_COUNT>
6

> <PUBCHEM_ATOM_UDEF_STEREO_COUNT>
1

> <PUBCHEM_BOND_DEF_STEREO_COUNT>
0

> <PUBCHEM_BOND_UDEF_STEREO_COUNT>
0

> <PUBCHEM_ISOTOPIC_ATOM_COUNT>
0

> <PUBCHEM_COMPONENT_COUNT>
1

> <PUBCHEM_CACTVS_TAUTO_COUNT>
3

> <PUBCHEM_CONFORMER_ID>
02B42A0200000001

> <PUBCHEM_MMFF94_ENERGY>
98.3197

> <PUBCHEM_FEATURE_SELFOVERLAP>
55.889

> <PUBCHEM_SHAPE_FINGERPRINT>
10076449 9 18411423937815308473
10162869 55 17821730555689610478
10299344 5 18113618988913705486
10952577 141 16879332422131264981
11135926 11 17632572726134217023
11386260 185 15140968391782209974
11497681 19 17894627029006013310
11578821 258 9583511023789857002
11607047 191 18057622976085276113
12035758 1 16917353657691985053
12082328 90 17894346661740189567
12166972 35 18187930624770311813
12539745 222 18410860971874320049
13150687 139 15430037634970098458
13673619 4 17632293471708878296
13690498 29 18113892789348016477
13811026 1 17988640808966197624
15183329 4 15791726399620870632
15461852 350 18113904849162490198
17686467 74 18272928337175650936
1818759 1 18202008724739602406
18608769 82 18272652376150776070
19611394 137 18201161065266618875
20105231 36 17632582652067908206
21095123 293 10159691413813208562
21150785 3 17385725806961670180
21267235 1 17988647406073075952
21315759 40 18186524293816265310
21781051 124 18201164338337601478
21792934 111 17060616694086360648
21792938 703 16371299938758389483
21792961 116 18341890771505015125
21927370 108 17489879223509590296
22149856 69 15626231208839462578
23569917 315 18337676305256895330
23569943 247 17833838171461316282
23576562 1 11819574674233819763
249057 3 12540705829329972230
2747138 104 17704071794119479656
3178227 256 17560806562390556842
3383291 50 17846779628418029046
3552219 110 18060148664402444560
4107672 100 18113329787565149405
4339292 15 18340199787415653711
437795 83 13046209581745511071
4461854 278 16702305672079499782
5104073 3 16055744538250742787
54039377 194 18410015472580046991
5937810 71 13262660532075210583
59682541 35 17847057792723319546
6201320 215 9727090710789505414
636775 8 18341902908861177350
9896288 288 17917158187128136297
9953998 17 14836403636079664389
9962374 69 17417799694968101557
999808 66 18060422430328862111

> <PUBCHEM_SHAPE_MULTIPOLES>
639.3
28.39
2.49
1.63
39.12
0.64
0.08
21.32
-0.69
-5.12
-0.88
0.48
-0.26
0.09

> <PUBCHEM_SHAPE_SELFOVERLAP>
1346.329

> <PUBCHEM_SHAPE_VOLUME>
358.6

> <PUBCHEM_COORDINATE_TYPE>
2
5
10

$$$$
