11867059
  -OEChem-12032416123D

 70 73  0     1  0  0  0  0  0999 V2000
   -0.8583    3.3535    0.4695 S   0  0  0  0  0  0  0  0  0  0  0  0
   -7.0804   -1.3166   -0.5801 O   0  0  0  0  0  0  0  0  0  0  0  0
   -7.2837    0.2847    1.1917 O   0  0  0  0  0  0  0  0  0  0  0  0
    0.8933   -1.1258   -1.8566 O   0  0  0  0  0  0  0  0  0  0  0  0
    3.3812    1.6212   -0.4134 O   0  0  0  0  0  0  0  0  0  0  0  0
    5.3605    3.4144   -0.2913 O   0  0  0  0  0  0  0  0  0  0  0  0
    0.4526    1.2086   -0.1416 N   0  0  0  0  0  0  0  0  0  0  0  0
    1.7249   -2.6750   -0.3367 N   0  0  0  0  0  0  0  0  0  0  0  0
    1.7386    3.2293    0.1281 N   0  0  0  0  0  0  0  0  0  0  0  0
   -2.8383   -0.7607    0.2586 C   0  0  2  0  0  0  0  0  0  0  0  0
   -3.7270    0.4771   -0.2035 C   0  0  1  0  0  0  0  0  0  0  0  0
   -5.2928    0.3017   -0.1285 C   0  0  1  0  0  0  0  0  0  0  0  0
   -1.3578   -0.5409   -0.3012 C   0  0  1  0  0  0  0  0  0  0  0  0
   -3.4067   -2.0636   -0.3614 C   0  0  0  0  0  0  0  0  0  0  0  0
   -5.6849   -1.0694   -0.7483 C   0  0  1  0  0  0  0  0  0  0  0  0
   -3.2147    1.8087    0.4188 C   0  0  0  0  0  0  0  0  0  0  0  0
   -4.9050   -2.2400   -0.1599 C   0  0  0  0  0  0  0  0  0  0  0  0
   -2.7878   -0.9236    1.7977 C   0  0  0  0  0  0  0  0  0  0  0  0
   -0.8830    0.8655   -0.0403 C   0  0  0  0  0  0  0  0  0  0  0  0
   -5.8875    0.4558    1.2887 C   0  0  0  0  0  0  0  0  0  0  0  0
   -5.9684    1.4077   -0.9877 C   0  0  0  0  0  0  0  0  0  0  0  0
   -1.7348    1.9080    0.2632 C   0  0  0  0  0  0  0  0  0  0  0  0
   -0.3336   -1.5778    0.1794 C   0  0  0  0  0  0  0  0  0  0  0  0
    0.8073   -1.7423   -0.7979 C   0  0  0  0  0  0  0  0  0  0  0  0
    0.5842    2.4922    0.1137 C   0  0  0  0  0  0  0  0  0  0  0  0
    2.9175   -3.0375   -1.0675 C   0  0  0  0  0  0  0  0  0  0  0  0
    3.0411    2.7649   -0.1299 C   0  0  0  0  0  0  0  0  0  0  0  0
    4.1658   -2.7468   -0.2856 C   0  0  0  0  0  0  0  0  0  0  0  0
    4.0582    3.8863   -0.0181 C   0  0  0  0  0  0  0  0  0  0  0  0
    4.7880   -1.5036   -0.4021 C   0  0  0  0  0  0  0  0  0  0  0  0
    4.7032   -3.7193    0.5577 C   0  0  0  0  0  0  0  0  0  0  0  0
    5.9476   -1.2332    0.3245 C   0  0  0  0  0  0  0  0  0  0  0  0
    5.8628   -3.4487    1.2843 C   0  0  0  0  0  0  0  0  0  0  0  0
    6.4850   -2.2056    1.1677 C   0  0  0  0  0  0  0  0  0  0  0  0
    6.3328    4.4509   -0.1922 C   0  0  0  0  0  0  0  0  0  0  0  0
   -3.5197    0.5626   -1.2844 H   0  0  0  0  0  0  0  0  0  0  0  0
   -1.4405   -0.6150   -1.3960 H   0  0  0  0  0  0  0  0  0  0  0  0
   -2.9037   -2.9444    0.0533 H   0  0  0  0  0  0  0  0  0  0  0  0
   -3.2040   -2.0757   -1.4406 H   0  0  0  0  0  0  0  0  0  0  0  0
   -5.4994   -1.0371   -1.8302 H   0  0  0  0  0  0  0  0  0  0  0  0
   -3.6867    2.6628   -0.0783 H   0  0  0  0  0  0  0  0  0  0  0  0
   -3.4665    1.8660    1.4830 H   0  0  0  0  0  0  0  0  0  0  0  0
   -5.2257   -3.1696   -0.6475 H   0  0  0  0  0  0  0  0  0  0  0  0
   -5.1515   -2.3774    0.8987 H   0  0  0  0  0  0  0  0  0  0  0  0
   -2.1467   -1.7638    2.0864 H   0  0  0  0  0  0  0  0  0  0  0  0
   -3.7594   -1.1457    2.2343 H   0  0  0  0  0  0  0  0  0  0  0  0
   -2.3918   -0.0375    2.3013 H   0  0  0  0  0  0  0  0  0  0  0  0
   -5.5213   -0.2916    1.9880 H   0  0  0  0  0  0  0  0  0  0  0  0
   -5.6923    1.4480    1.7066 H   0  0  0  0  0  0  0  0  0  0  0  0
   -5.8497    2.4004   -0.5410 H   0  0  0  0  0  0  0  0  0  0  0  0
   -7.0438    1.2396   -1.1147 H   0  0  0  0  0  0  0  0  0  0  0  0
   -5.5343    1.4426   -1.9937 H   0  0  0  0  0  0  0  0  0  0  0  0
   -0.7907   -2.5676    0.2772 H   0  0  0  0  0  0  0  0  0  0  0  0
    0.0795   -1.3042    1.1585 H   0  0  0  0  0  0  0  0  0  0  0  0
   -7.2861   -2.1580   -1.0219 H   0  0  0  0  0  0  0  0  0  0  0  0
   -7.6518    0.3928    2.0851 H   0  0  0  0  0  0  0  0  0  0  0  0
    1.5512   -3.1462    0.5468 H   0  0  0  0  0  0  0  0  0  0  0  0
    1.6167    4.2139    0.3508 H   0  0  0  0  0  0  0  0  0  0  0  0
    2.9463   -2.5244   -2.0356 H   0  0  0  0  0  0  0  0  0  0  0  0
    2.8477   -4.1096   -1.2853 H   0  0  0  0  0  0  0  0  0  0  0  0
    4.0141    4.2915    0.9995 H   0  0  0  0  0  0  0  0  0  0  0  0
    3.7879    4.6705   -0.7348 H   0  0  0  0  0  0  0  0  0  0  0  0
    4.3830   -0.7440   -1.0640 H   0  0  0  0  0  0  0  0  0  0  0  0
    4.2270   -4.6909    0.6589 H   0  0  0  0  0  0  0  0  0  0  0  0
    6.4327   -0.2658    0.2322 H   0  0  0  0  0  0  0  0  0  0  0  0
    6.2811   -4.2057    1.9413 H   0  0  0  0  0  0  0  0  0  0  0  0
    7.3880   -1.9951    1.7333 H   0  0  0  0  0  0  0  0  0  0  0  0
    7.3142    4.0232   -0.4135 H   0  0  0  0  0  0  0  0  0  0  0  0
    6.3500    4.8627    0.8215 H   0  0  0  0  0  0  0  0  0  0  0  0
    6.1229    5.2420   -0.9184 H   0  0  0  0  0  0  0  0  0  0  0  0
  1 22  1  0  0  0  0
  1 25  1  0  0  0  0
  2 15  1  0  0  0  0
  2 55  1  0  0  0  0
  3 20  1  0  0  0  0
  3 56  1  0  0  0  0
  4 24  2  0  0  0  0
  5 27  2  0  0  0  0
  6 29  1  0  0  0  0
  6 35  1  0  0  0  0
  7 19  1  0  0  0  0
  7 25  2  0  0  0  0
  8 24  1  0  0  0  0
  8 26  1  0  0  0  0
  8 57  1  0  0  0  0
  9 25  1  0  0  0  0
  9 27  1  0  0  0  0
  9 58  1  0  0  0  0
 10 11  1  0  0  0  0
 10 13  1  0  0  0  0
 10 14  1  0  0  0  0
 10 18  1  0  0  0  0
 11 12  1  0  0  0  0
 11 16  1  0  0  0  0
 11 36  1  0  0  0  0
 12 15  1  0  0  0  0
 12 20  1  0  0  0  0
 12 21  1  0  0  0  0
 13 19  1  0  0  0  0
 13 23  1  0  0  0  0
 13 37  1  0  0  0  0
 14 17  1  0  0  0  0
 14 38  1  0  0  0  0
 14 39  1  0  0  0  0
 15 17  1  0  0  0  0
 15 40  1  0  0  0  0
 16 22  1  0  0  0  0
 16 41  1  0  0  0  0
 16 42  1  0  0  0  0
 17 43  1  0  0  0  0
 17 44  1  0  0  0  0
 18 45  1  0  0  0  0
 18 46  1  0  0  0  0
 18 47  1  0  0  0  0
 19 22  2  0  0  0  0
 20 48  1  0  0  0  0
 20 49  1  0  0  0  0
 21 50  1  0  0  0  0
 21 51  1  0  0  0  0
 21 52  1  0  0  0  0
 23 24  1  0  0  0  0
 23 53  1  0  0  0  0
 23 54  1  0  0  0  0
 26 28  1  0  0  0  0
 26 59  1  0  0  0  0
 26 60  1  0  0  0  0
 27 29  1  0  0  0  0
 28 30  2  0  0  0  0
 28 31  1  0  0  0  0
 29 61  1  0  0  0  0
 29 62  1  0  0  0  0
 30 32  1  0  0  0  0
 30 63  1  0  0  0  0
 31 33  2  0  0  0  0
 31 64  1  0  0  0  0
 32 34  2  0  0  0  0
 32 65  1  0  0  0  0
 33 34  1  0  0  0  0
 33 66  1  0  0  0  0
 34 67  1  0  0  0  0
 35 68  1  0  0  0  0
 35 69  1  0  0  0  0
 35 70  1  0  0  0  0
M  END
> <PUBCHEM_COMPOUND_CID>
11867059

> <PUBCHEM_CONFORMER_RMSD>
1.2

> <PUBCHEM_CONFORMER_DIVERSEORDER>
1
19
11
10
15
17
13
8
3
5
16
12
18
4
7
20
2
14
6
9

> <PUBCHEM_MMFF94_PARTIAL_CHARGES>
37
1 -0.08
13 0.18
15 0.28
16 0.18
19 0.05
2 -0.68
20 0.28
22 -0.14
23 0.06
24 0.57
25 0.44
26 0.44
27 0.57
28 -0.14
29 0.34
3 -0.68
30 -0.15
31 -0.15
32 -0.15
33 -0.15
34 -0.15
35 0.28
4 -0.57
5 -0.57
55 0.4
56 0.4
57 0.37
58 0.37
6 -0.56
63 0.15
64 0.15
65 0.15
66 0.15
67 0.15
7 -0.57
8 -0.73
9 -0.49

> <PUBCHEM_EFFECTIVE_ROTOR_COUNT>
11.2

> <PUBCHEM_PHARMACOPHORE_FEATURES>
13
1 2 acceptor
1 2 donor
1 3 acceptor
1 3 donor
1 4 acceptor
1 5 acceptor
1 6 acceptor
1 8 donor
1 9 donor
5 1 7 19 22 25 rings
6 10 11 12 14 15 17 rings
6 10 11 13 16 19 22 rings
6 28 30 31 32 33 34 rings

> <PUBCHEM_HEAVY_ATOM_COUNT>
35

> <PUBCHEM_ATOM_DEF_STEREO_COUNT>
5

> <PUBCHEM_ATOM_UDEF_STEREO_COUNT>
0

> <PUBCHEM_BOND_DEF_STEREO_COUNT>
0

> <PUBCHEM_BOND_UDEF_STEREO_COUNT>
0

> <PUBCHEM_ISOTOPIC_ATOM_COUNT>
0

> <PUBCHEM_COMPONENT_COUNT>
1

> <PUBCHEM_CACTVS_TAUTO_COUNT>
6

> <PUBCHEM_CONFORMER_ID>
00B513B300000001

> <PUBCHEM_MMFF94_ENERGY>
103.2895

> <PUBCHEM_FEATURE_SELFOVERLAP>
66.127

> <PUBCHEM_SHAPE_FINGERPRINT>
10050765 1 18410573990211621389
10838868 158 17536045694025980627
1100329 8 17981052916637170193
11135926 11 18339075011751200613
11136131 41 18335412526688549290
11963148 33 17907853260725703447
12107183 9 18197224654715328857
12107698 1 18410571743352921058
12166972 35 17822581490930846774
12516196 113 18340205185356237263
12857493 111 18266732489614939741
12977781 61 17750531739128402138
13560911 43 18336825287397755954
13782708 43 17894911811086527291
14415360 78 17540804002726637285
15400415 2 17905888433388825596
15927050 60 18053099807700732974
16067689 302 18268434702057107487
17627616 140 18267303312796302022
20609170 92 18188193391554861605
20721686 56 18408888451554598738
20771845 171 17969224601819415893
21344244 246 18339071718317814911
21360443 120 18264209291529385540
22223350 30 17751099065891420347
23559900 14 18341038645577052555
24771293 8 18131064905641540266
3411729 13 18338237175854093356
392239 28 18339366253478020683
4149490 64 18336270128663228595
4280585 95 18338508634962074151
5104073 3 18339939190021481843
5385378 56 18340497758712849369
6004065 56 18411696578509385327
6669772 16 18334857276825505874
67856867 119 18410856572577796599

> <PUBCHEM_SHAPE_MULTIPOLES>
679.84
17.87
5.68
1.11
2.55
4.12
-0.15
-4.83
-2.41
-12.76
-0.03
0.32
-0.53
-1.58

> <PUBCHEM_SHAPE_SELFOVERLAP>
1425.39

> <PUBCHEM_SHAPE_VOLUME>
385.6

> <PUBCHEM_COORDINATE_TYPE>
2
5
10

$$$$
