26743682
  -OEChem-12032416193D

 39 42  0     1  0  0  0  0  0999 V2000
    0.8433    2.2287    1.7053 S   0  0  0  0  0  0  0  0  0  0  0  0
    4.4921   -3.1407    0.5118 O   0  0  0  0  0  0  0  0  0  0  0  0
    0.1761    0.0007   -2.0231 O   0  0  0  0  0  0  0  0  0  0  0  0
    2.7052   -0.0474    0.4167 N   0  0  1  0  0  0  0  0  0  0  0  0
   -0.2909   -0.8902   -0.0219 N   0  0  0  0  0  0  0  0  0  0  0  0
   -1.2177    0.0444   -1.8931 N   0  0  0  0  0  0  0  0  0  0  0  0
   -3.7511   -0.2326   -0.8857 N   0  0  0  0  0  0  0  0  0  0  0  0
    2.1450   -0.7251   -0.7701 C   0  0  1  0  0  0  0  0  0  0  0  0
    2.5770   -2.1960   -0.6241 C   0  0  0  0  0  0  0  0  0  0  0  0
    3.4128   -2.2372    0.6491 C   0  0  2  0  0  0  0  0  0  0  0  0
    3.8923   -0.8065    0.8051 C   0  0  0  0  0  0  0  0  0  0  0  0
    3.0053    1.3598    0.1864 C   0  0  0  0  0  0  0  0  0  0  0  0
    0.6433   -0.5638   -0.8789 C   0  0  0  0  0  0  0  0  0  0  0  0
    1.7698    2.2167    0.2653 C   0  0  0  0  0  0  0  0  0  0  0  0
    1.2360    3.0422   -0.6998 C   0  0  0  0  0  0  0  0  0  0  0  0
   -1.4155   -0.4981   -0.6880 C   0  0  0  0  0  0  0  0  0  0  0  0
    0.0508    3.6934   -0.2509 C   0  0  0  0  0  0  0  0  0  0  0  0
   -0.2761    3.3407    1.0400 C   0  0  0  0  0  0  0  0  0  0  0  0
   -2.7228   -0.6640   -0.1215 C   0  0  0  0  0  0  0  0  0  0  0  0
   -2.8740   -1.2341    1.1322 C   0  0  0  0  0  0  0  0  0  0  0  0
   -4.1637   -1.3706    1.6337 C   0  0  0  0  0  0  0  0  0  0  0  0
   -4.9899   -0.3815   -0.3653 C   0  0  0  0  0  0  0  0  0  0  0  0
   -5.2473   -0.9387    0.8769 C   0  0  0  0  0  0  0  0  0  0  0  0
    2.6077   -0.3415   -1.6904 H   0  0  0  0  0  0  0  0  0  0  0  0
    1.7352   -2.8940   -0.5487 H   0  0  0  0  0  0  0  0  0  0  0  0
    3.1738   -2.5034   -1.4921 H   0  0  0  0  0  0  0  0  0  0  0  0
    2.7985   -2.5375    1.5069 H   0  0  0  0  0  0  0  0  0  0  0  0
    4.1980   -0.6003    1.8362 H   0  0  0  0  0  0  0  0  0  0  0  0
    4.7513   -0.6087    0.1503 H   0  0  0  0  0  0  0  0  0  0  0  0
    3.5248    1.5163   -0.7679 H   0  0  0  0  0  0  0  0  0  0  0  0
    3.6912    1.7254    0.9638 H   0  0  0  0  0  0  0  0  0  0  0  0
    4.1162   -4.0209    0.3401 H   0  0  0  0  0  0  0  0  0  0  0  0
    1.6705    3.1742   -1.6825 H   0  0  0  0  0  0  0  0  0  0  0  0
   -0.5330    4.3842   -0.8451 H   0  0  0  0  0  0  0  0  0  0  0  0
   -1.1193    3.6817    1.6238 H   0  0  0  0  0  0  0  0  0  0  0  0
   -2.0330   -1.5728    1.7285 H   0  0  0  0  0  0  0  0  0  0  0  0
   -4.3243   -1.8124    2.6125 H   0  0  0  0  0  0  0  0  0  0  0  0
   -5.8004   -0.0289   -0.9946 H   0  0  0  0  0  0  0  0  0  0  0  0
   -6.2612   -1.0350    1.2478 H   0  0  0  0  0  0  0  0  0  0  0  0
  1 14  1  0  0  0  0
  1 18  1  0  0  0  0
  2 10  1  0  0  0  0
  2 32  1  0  0  0  0
  3  6  1  0  0  0  0
  3 13  1  0  0  0  0
  4  8  1  0  0  0  0
  4 11  1  0  0  0  0
  4 12  1  0  0  0  0
  5 13  2  0  0  0  0
  5 16  1  0  0  0  0
  6 16  2  0  0  0  0
  7 19  1  0  0  0  0
  7 22  2  0  0  0  0
  8  9  1  0  0  0  0
  8 13  1  0  0  0  0
  8 24  1  0  0  0  0
  9 10  1  0  0  0  0
  9 25  1  0  0  0  0
  9 26  1  0  0  0  0
 10 11  1  0  0  0  0
 10 27  1  0  0  0  0
 11 28  1  0  0  0  0
 11 29  1  0  0  0  0
 12 14  1  0  0  0  0
 12 30  1  0  0  0  0
 12 31  1  0  0  0  0
 14 15  2  0  0  0  0
 15 17  1  0  0  0  0
 15 33  1  0  0  0  0
 16 19  1  0  0  0  0
 17 18  2  0  0  0  0
 17 34  1  0  0  0  0
 18 35  1  0  0  0  0
 19 20  2  0  0  0  0
 20 21  1  0  0  0  0
 20 36  1  0  0  0  0
 21 23  2  0  0  0  0
 21 37  1  0  0  0  0
 22 23  1  0  0  0  0
 22 38  1  0  0  0  0
 23 39  1  0  0  0  0
M  END
> <PUBCHEM_COMPOUND_CID>
26743682

> <PUBCHEM_CONFORMER_RMSD>
0.8

> <PUBCHEM_CONFORMER_DIVERSEORDER>
1
157
12
172
147
44
49
105
165
98
149
138
20
96
121
4
64
52
80
101
85
92
171
50
161
43
131
18
158
73
122
3
155
119
164
30
142
167
117
47
53
137
159
87
107
100
133
58
76
128
144
153
14
132
134
97
109
146
170
61
71
166
78
125
102
6
89
129
123
110
5
136
68
140
116
124
28
62
106
143
41
93
115
95
29
33
81
135
2
67
75
145
127
88
24
151
7
26
162
113
27
9
45
114
83
15
74
35
72
51
37
79
54
99
10
65
108
60
139
46
32
154
19
82
48
141
160
36
21
169
148
57
111
59
173
55
103
94
34
63
120
31
40
168
17
112
39
126
130
152
38
150
8
90
16
163
156
86
11
42
13
118
91
77
84
22
104
56
66
25
69
23
70

> <PUBCHEM_MMFF94_PARTIAL_CHARGES>
30
1 -0.08
10 0.28
11 0.27
12 0.45
13 0.3
14 -0.14
15 -0.15
16 0.46
17 -0.15
18 -0.11
19 0.36
2 -0.68
20 -0.15
21 -0.15
22 0.16
23 -0.15
3 -0.02
32 0.4
33 0.15
34 0.15
35 0.15
36 0.15
37 0.15
38 0.15
39 0.15
4 -0.81
5 -0.57
6 -0.41
7 -0.62
8 0.45

> <PUBCHEM_EFFECTIVE_ROTOR_COUNT>
5

> <PUBCHEM_PHARMACOPHORE_FEATURES>
9
1 2 acceptor
1 2 donor
1 4 cation
1 7 acceptor
3 5 6 16 cation
5 1 14 15 17 18 rings
5 3 5 6 13 16 rings
5 4 8 9 10 11 rings
6 7 19 20 21 22 23 rings

> <PUBCHEM_HEAVY_ATOM_COUNT>
23

> <PUBCHEM_ATOM_DEF_STEREO_COUNT>
2

> <PUBCHEM_ATOM_UDEF_STEREO_COUNT>
0

> <PUBCHEM_BOND_DEF_STEREO_COUNT>
0

> <PUBCHEM_BOND_UDEF_STEREO_COUNT>
0

> <PUBCHEM_ISOTOPIC_ATOM_COUNT>
0

> <PUBCHEM_COMPONENT_COUNT>
1

> <PUBCHEM_CACTVS_TAUTO_COUNT>
1

> <PUBCHEM_CONFORMER_ID>
0198138200000001

> <PUBCHEM_MMFF94_ENERGY>
38.7229

> <PUBCHEM_FEATURE_SELFOVERLAP>
45.672

> <PUBCHEM_SHAPE_FINGERPRINT>
10064457 181 17400366040725616788
10119406 146 15610480356389910006
10366900 7 18045509865748313727
10382601 240 18058159699934457920
104564 63 18201725016074299716
10688039 33 18335136453726090413
108634 29 17909262486322657117
11640471 11 17057804293755924529
12422481 6 17773890687946677809
12507560 14 18341890779478108823
12633257 1 18044643432999458906
12824470 246 17678450858221094578
13052359 8 17615967708194866940
13134695 92 18343294894692415877
13140716 1 17837206348215338624
13533116 47 18263648540757527339
13583140 156 18194687192721799623
13965767 371 17489862756836636986
14790565 3 17906451378920620576
14866123 147 17182775468216536898
151778 21 17902799900725181053
15420108 30 17344327090148460868
17349148 13 17275106171791239247
1813 80 18129954385743643998
18785283 64 18044937024306270916
21041028 32 18341608170756366060
23175994 123 18336546032333769087
23559900 14 17603586361389693367
31174 14 18262233438319927447
3380486 145 17913451780427844260
3472631 163 14476962307160581323
474 4 18055353797641452309
484985 159 17466218631134087674
5283268 108 18271534099915962888
5895379 119 14763249876019567433
621550 5 17967533445587639495
6442390 28 17255414136895248888
6786 2 17324947226809150572
7097593 13 18269554004097117591
81228 2 17981340988039523485
8509985 295 18413395341185108993
8988823 20 18265616662175902615

> <PUBCHEM_SHAPE_MULTIPOLES>
445.52
8.57
3.86
1.51
9.08
3.15
0.09
-6.93
-2.54
-4.2
-0.8
0.56
0.1
0.2

> <PUBCHEM_SHAPE_SELFOVERLAP>
957.883

> <PUBCHEM_SHAPE_VOLUME>
248.7

> <PUBCHEM_COORDINATE_TYPE>
2
5
10

$$$$
