26742476
  -OEChem-12032416213D

 69 72  0     1  0  0  0  0  0999 V2000
   -6.0207    1.0817    1.7939 O   0  0  0  0  0  0  0  0  0  0  0  0
   -2.3574   -1.6098    1.9716 N   0  0  2  0  0  0  0  0  0  0  0  0
   -4.2278    1.2149    0.3428 N   0  0  0  0  0  0  0  0  0  0  0  0
    0.0778   -1.0654   -1.8486 N   0  0  0  0  0  0  0  0  0  0  0  0
    2.2196    0.0082   -2.1090 N   0  0  0  0  0  0  0  0  0  0  0  0
    7.5764    1.3097    1.0141 N   0  0  0  0  0  0  0  0  0  0  0  0
   -1.9419   -2.5247   -0.4312 C   0  0  2  0  0  0  0  0  0  0  0  0
   -0.5968   -2.1377    0.2436 C   0  0  2  0  0  0  0  0  0  0  0  0
   -3.2503   -0.9199    1.0036 C   0  0  2  0  0  0  0  0  0  0  0  0
   -2.8768   -1.2969   -0.4461 C   0  0  0  0  0  0  0  0  0  0  0  0
   -2.6034   -3.5876    0.4721 C   0  0  0  0  0  0  0  0  0  0  0  0
   -0.9386   -1.4188    1.5799 C   0  0  0  0  0  0  0  0  0  0  0  0
   -2.6615   -3.0599    1.9164 C   0  0  0  0  0  0  0  0  0  0  0  0
   -3.2739    0.5960    1.2107 C   0  0  0  0  0  0  0  0  0  0  0  0
    0.4255   -1.3684   -0.5808 C   0  0  0  0  0  0  0  0  0  0  0  0
    1.6352   -1.0224   -0.0139 C   0  0  0  0  0  0  0  0  0  0  0  0
   -5.5598    1.4181    0.7027 C   0  0  0  0  0  0  0  0  0  0  0  0
    2.5017   -0.3279   -0.8332 C   0  0  0  0  0  0  0  0  0  0  0  0
   -6.4212    2.1055   -0.3776 C   0  0  0  0  0  0  0  0  0  0  0  0
    1.0084   -0.3861   -2.5460 C   0  0  0  0  0  0  0  0  0  0  0  0
    3.7996    0.0913   -0.3607 C   0  0  0  0  0  0  0  0  0  0  0  0
   -5.8665    3.5055   -0.6815 C   0  0  0  0  0  0  0  0  0  0  0  0
   -7.8649    2.2506    0.1366 C   0  0  0  0  0  0  0  0  0  0  0  0
   -6.4406    1.2551   -1.6569 C   0  0  0  0  0  0  0  0  0  0  0  0
    0.6610   -0.0344   -3.9530 C   0  0  0  0  0  0  0  0  0  0  0  0
    3.8996    0.9478    0.7357 C   0  0  0  0  0  0  0  0  0  0  0  0
    4.9539   -0.3608   -1.0002 C   0  0  0  0  0  0  0  0  0  0  0  0
    5.1539    1.3525    1.1924 C   0  0  0  0  0  0  0  0  0  0  0  0
    6.2081    0.0439   -0.5435 C   0  0  0  0  0  0  0  0  0  0  0  0
    6.3081    0.9005    0.5527 C   0  0  0  0  0  0  0  0  0  0  0  0
    8.7820    0.8395    0.3610 C   0  0  0  0  0  0  0  0  0  0  0  0
    7.6915    2.1998    2.1522 C   0  0  0  0  0  0  0  0  0  0  0  0
   -1.7962   -2.9195   -1.4421 H   0  0  0  0  0  0  0  0  0  0  0  0
   -0.0921   -3.0844    0.4916 H   0  0  0  0  0  0  0  0  0  0  0  0
   -4.2761   -1.2717    1.1900 H   0  0  0  0  0  0  0  0  0  0  0  0
   -2.3903   -0.4659   -0.9688 H   0  0  0  0  0  0  0  0  0  0  0  0
   -3.7891   -1.5361   -1.0067 H   0  0  0  0  0  0  0  0  0  0  0  0
   -2.0348   -4.5243    0.4407 H   0  0  0  0  0  0  0  0  0  0  0  0
   -3.6143   -3.8088    0.1087 H   0  0  0  0  0  0  0  0  0  0  0  0
   -0.2958   -1.8163    2.3768 H   0  0  0  0  0  0  0  0  0  0  0  0
   -0.7052   -0.3486    1.5391 H   0  0  0  0  0  0  0  0  0  0  0  0
   -3.6535   -3.2515    2.3435 H   0  0  0  0  0  0  0  0  0  0  0  0
   -1.9569   -3.6118    2.5516 H   0  0  0  0  0  0  0  0  0  0  0  0
   -2.3051    1.0546    0.9889 H   0  0  0  0  0  0  0  0  0  0  0  0
   -3.5251    0.8341    2.2507 H   0  0  0  0  0  0  0  0  0  0  0  0
   -3.9059    1.5146   -0.5718 H   0  0  0  0  0  0  0  0  0  0  0  0
    1.8894   -1.2908    1.0048 H   0  0  0  0  0  0  0  0  0  0  0  0
   -5.7878    4.1032    0.2339 H   0  0  0  0  0  0  0  0  0  0  0  0
   -4.8669    3.4613   -1.1270 H   0  0  0  0  0  0  0  0  0  0  0  0
   -6.5136    4.0445   -1.3825 H   0  0  0  0  0  0  0  0  0  0  0  0
   -8.5065    2.7353   -0.6080 H   0  0  0  0  0  0  0  0  0  0  0  0
   -7.9022    2.8533    1.0516 H   0  0  0  0  0  0  0  0  0  0  0  0
   -8.3035    1.2733    0.3694 H   0  0  0  0  0  0  0  0  0  0  0  0
   -7.1234    1.6772   -2.4029 H   0  0  0  0  0  0  0  0  0  0  0  0
   -5.4507    1.1896   -2.1211 H   0  0  0  0  0  0  0  0  0  0  0  0
   -6.7664    0.2308   -1.4417 H   0  0  0  0  0  0  0  0  0  0  0  0
    0.9846   -0.8354   -4.6242 H   0  0  0  0  0  0  0  0  0  0  0  0
   -0.4193    0.1017   -4.0640 H   0  0  0  0  0  0  0  0  0  0  0  0
    1.1527    0.8959   -4.2538 H   0  0  0  0  0  0  0  0  0  0  0  0
    3.0116    1.3155    1.2448 H   0  0  0  0  0  0  0  0  0  0  0  0
    4.8955   -1.0320   -1.8540 H   0  0  0  0  0  0  0  0  0  0  0  0
    5.1787    2.0202    2.0479 H   0  0  0  0  0  0  0  0  0  0  0  0
    7.0755   -0.3356   -1.0744 H   0  0  0  0  0  0  0  0  0  0  0  0
    9.6834    1.2429    0.8358 H   0  0  0  0  0  0  0  0  0  0  0  0
    8.8140    1.1572   -0.6872 H   0  0  0  0  0  0  0  0  0  0  0  0
    8.8627   -0.2518    0.4170 H   0  0  0  0  0  0  0  0  0  0  0  0
    8.7380    2.4257    2.3854 H   0  0  0  0  0  0  0  0  0  0  0  0
    7.2624    1.7476    3.0533 H   0  0  0  0  0  0  0  0  0  0  0  0
    7.2029    3.1605    1.9547 H   0  0  0  0  0  0  0  0  0  0  0  0
  1 17  2  0  0  0  0
  2  9  1  0  0  0  0
  2 12  1  0  0  0  0
  2 13  1  0  0  0  0
  3 14  1  0  0  0  0
  3 17  1  0  0  0  0
  3 46  1  0  0  0  0
  4 15  2  0  0  0  0
  4 20  1  0  0  0  0
  5 18  1  0  0  0  0
  5 20  2  0  0  0  0
  6 30  1  0  0  0  0
  6 31  1  0  0  0  0
  6 32  1  0  0  0  0
  7  8  1  0  0  0  0
  7 10  1  0  0  0  0
  7 11  1  0  0  0  0
  7 33  1  0  0  0  0
  8 12  1  0  0  0  0
  8 15  1  0  0  0  0
  8 34  1  0  0  0  0
  9 10  1  0  0  0  0
  9 14  1  0  0  0  0
  9 35  1  0  0  0  0
 10 36  1  0  0  0  0
 10 37  1  0  0  0  0
 11 13  1  0  0  0  0
 11 38  1  0  0  0  0
 11 39  1  0  0  0  0
 12 40  1  0  0  0  0
 12 41  1  0  0  0  0
 13 42  1  0  0  0  0
 13 43  1  0  0  0  0
 14 44  1  0  0  0  0
 14 45  1  0  0  0  0
 15 16  1  0  0  0  0
 16 18  2  0  0  0  0
 16 47  1  0  0  0  0
 17 19  1  0  0  0  0
 18 21  1  0  0  0  0
 19 22  1  0  0  0  0
 19 23  1  0  0  0  0
 19 24  1  0  0  0  0
 20 25  1  0  0  0  0
 21 26  2  0  0  0  0
 21 27  1  0  0  0  0
 22 48  1  0  0  0  0
 22 49  1  0  0  0  0
 22 50  1  0  0  0  0
 23 51  1  0  0  0  0
 23 52  1  0  0  0  0
 23 53  1  0  0  0  0
 24 54  1  0  0  0  0
 24 55  1  0  0  0  0
 24 56  1  0  0  0  0
 25 57  1  0  0  0  0
 25 58  1  0  0  0  0
 25 59  1  0  0  0  0
 26 28  1  0  0  0  0
 26 60  1  0  0  0  0
 27 29  2  0  0  0  0
 27 61  1  0  0  0  0
 28 30  2  0  0  0  0
 28 62  1  0  0  0  0
 29 30  1  0  0  0  0
 29 63  1  0  0  0  0
 31 64  1  0  0  0  0
 31 65  1  0  0  0  0
 31 66  1  0  0  0  0
 32 67  1  0  0  0  0
 32 68  1  0  0  0  0
 32 69  1  0  0  0  0
M  END
> <PUBCHEM_COMPOUND_CID>
26742476

> <PUBCHEM_CONFORMER_RMSD>
1

> <PUBCHEM_CONFORMER_DIVERSEORDER>
1
48
23
76
51
78
85
87
30
43
62
72
24
59
54
80
36
86
37
91
28
89
74
88
12
10
75
40
79
11
34
82
93
64
27
44
4
32
42
61
41
22
77
46
73
58
53
52
55
50
68
69
57
67
83
25
9
13
90
92
35
31
45
3
19
66
39
84
5
71
16
2
60
81
70
38
56
20
49
26
65
47
15
33
14
21
29
7
8
6
63
17
18

> <PUBCHEM_MMFF94_PARTIAL_CHARGES>
31
1 -0.57
12 0.27
13 0.27
14 0.3
15 0.17
16 -0.15
17 0.57
18 0.31
19 0.06
2 -0.81
20 0.48
25 0.14
26 -0.15
27 -0.15
28 -0.15
29 -0.15
3 -0.73
30 0.1
31 0.37
32 0.37
4 -0.62
46 0.37
47 0.15
5 -0.62
6 -0.84
60 0.15
61 0.15
62 0.15
63 0.15
8 0.14
9 0.27

> <PUBCHEM_EFFECTIVE_ROTOR_COUNT>
8.2

> <PUBCHEM_PHARMACOPHORE_FEATURES>
10
1 1 acceptor
1 2 cation
1 3 donor
1 4 acceptor
1 6 cation
3 4 5 20 cation
4 19 22 23 24 hydrophobe
6 21 26 27 28 29 30 rings
6 4 5 15 16 18 20 rings
8 2 7 8 9 10 11 12 13 rings

> <PUBCHEM_HEAVY_ATOM_COUNT>
32

> <PUBCHEM_ATOM_DEF_STEREO_COUNT>
3

> <PUBCHEM_ATOM_UDEF_STEREO_COUNT>
0

> <PUBCHEM_BOND_DEF_STEREO_COUNT>
0

> <PUBCHEM_BOND_UDEF_STEREO_COUNT>
0

> <PUBCHEM_ISOTOPIC_ATOM_COUNT>
0

> <PUBCHEM_COMPONENT_COUNT>
1

> <PUBCHEM_CACTVS_TAUTO_COUNT>
2

> <PUBCHEM_CONFORMER_ID>
01980ECC00000001

> <PUBCHEM_MMFF94_ENERGY>
107.7507

> <PUBCHEM_FEATURE_SELFOVERLAP>
50.746

> <PUBCHEM_SHAPE_FINGERPRINT>
10554248 39 16128390255209035604
10577160 103 17773585204281857057
10985338 8 17901142833838621734
11135609 201 18266750082966126777
11374522 101 18261677082154818140
12107183 9 16732991941597731126
12422481 6 16950846895456757743
12539747 363 11458425712987474711
12633257 1 15502673602194437235
13103583 49 16009040513432604715
13540713 5 16807315715185007487
13583140 156 17988649652847770294
13631057 29 11672065224689672911
13911987 19 15913333506771215938
14767858 380 14692569909684115207
14904525 67 18196089061869463564
14950920 106 15575581170302474409
15350500 185 18261382318375012517
15669420 48 17632290199555195501
15684973 49 18043827578403854238
15721738 202 8574421033168475218
17492 54 15697997418662288287
18643901 69 9367350349039927449
19053607 189 17679316165477886477
19246450 95 16226037856801467541
19304671 126 17770223752592383373
20105231 36 14923940121223760176
21033648 29 18408328800009849662
21304303 282 18409726292685981647
21403212 168 16877940517239414119
21756936 100 18260829306901898667
21859007 373 18116156571302994623
23522609 53 16806189755723142278
2838139 119 18060140886500929281
312425 54 18114457938309226698
3459 39 18259701181996196609
393628 179 18337942420702418637
393628 194 17989215849543663409
4366758 6 18041272193769677783
445580 182 17821449079446894218
4938544 92 18338234972383084434
5028188 123 18187657955446885054
5104073 3 17096656585490684980
5372103 7 17917427588815244425
54039377 194 13262674817030188064
58083652 198 15574990745284972998
6009941 240 18409449215606998034
6058803 2 16446750706477345598
6086070 43 16916776418936290530
636775 8 9223230771866672184
6691757 9 17894342307102650695
6697151 62 17342964559156317430
999808 66 11963387444623575728

> <PUBCHEM_SHAPE_MULTIPOLES>
627.77
22.08
3.29
2.46
17.9
0.9
1.93
-24.15
-7.81
-6.29
-1.15
0.7
0.09
3.08

> <PUBCHEM_SHAPE_SELFOVERLAP>
1333.541

> <PUBCHEM_SHAPE_VOLUME>
347.7

> <PUBCHEM_COORDINATE_TYPE>
2
5
10

$$$$
