51138040
  -OEChem-12032416233D

 63 67  0     1  0  0  0  0  0999 V2000
    3.0811    2.4180    1.0937 O   0  0  0  0  0  0  0  0  0  0  0  0
    1.8855   -0.3508    0.4845 N   0  0  0  0  0  0  0  0  0  0  0  0
    4.2243    1.3170   -0.5998 N   0  0  0  0  0  0  0  0  0  0  0  0
   -2.7839    0.9165   -0.9628 N   0  0  0  0  0  0  0  0  0  0  0  0
   -6.9115    0.3458    1.8995 N   0  0  0  0  0  0  0  0  0  0  0  0
    5.5435    1.9202   -0.3384 C   0  0  0  0  0  0  0  0  0  0  0  0
    6.2189    1.4324    0.9603 C   0  0  0  0  0  0  0  0  0  0  0  0
    6.7079    1.2565   -1.1027 C   0  0  0  0  0  0  0  0  0  0  0  0
    1.3609   -1.5192   -0.2350 C   0  0  2  0  0  0  0  0  0  0  0  0
    1.8726    0.8892   -0.2784 C   0  0  1  0  0  0  0  0  0  0  0  0
    7.5492    1.4347    0.1784 C   0  0  0  0  0  0  0  0  0  0  0  0
    0.6424    1.7346    0.0460 C   0  0  0  0  0  0  0  0  0  0  0  0
   -0.1201   -1.4571   -0.6224 C   0  0  0  0  0  0  0  0  0  0  0  0
   -0.9117   -0.2727   -0.6512 C   0  0  0  0  0  0  0  0  0  0  0  0
   -0.6466    1.1141   -0.3779 C   0  0  0  0  0  0  0  0  0  0  0  0
    1.6820   -2.7155    0.6788 C   0  0  0  0  0  0  0  0  0  0  0  0
    3.1030    1.6279    0.1519 C   0  0  0  0  0  0  0  0  0  0  0  0
   -2.2546   -0.3501   -1.0380 C   0  0  0  0  0  0  0  0  0  0  0  0
    3.1548   -3.1330    0.6225 C   0  0  0  0  0  0  0  0  0  0  0  0
   -1.8256    1.8047   -0.5731 C   0  0  0  0  0  0  0  0  0  0  0  0
   -0.7562   -2.6450   -1.0647 C   0  0  0  0  0  0  0  0  0  0  0  0
   -2.8756   -1.5386   -1.4257 C   0  0  0  0  0  0  0  0  0  0  0  0
   -4.1516    1.2777   -1.2688 C   0  0  0  0  0  0  0  0  0  0  0  0
   -2.0962   -2.6879   -1.4450 C   0  0  0  0  0  0  0  0  0  0  0  0
    3.3665   -4.3582    1.5150 C   0  0  0  0  0  0  0  0  0  0  0  0
    4.1020   -2.0115    1.0511 C   0  0  0  0  0  0  0  0  0  0  0  0
   -5.1189    0.9507   -0.1583 C   0  0  0  0  0  0  0  0  0  0  0  0
   -6.2101    0.1245   -0.4036 C   0  0  0  0  0  0  0  0  0  0  0  0
   -4.9230    1.4749    1.1146 C   0  0  0  0  0  0  0  0  0  0  0  0
   -7.0692   -0.1449    0.6496 C   0  0  0  0  0  0  0  0  0  0  0  0
   -5.8397    1.1450    2.0999 C   0  0  0  0  0  0  0  0  0  0  0  0
    5.5234    3.0121   -0.4440 H   0  0  0  0  0  0  0  0  0  0  0  0
    1.9176   -1.6395   -1.1745 H   0  0  0  0  0  0  0  0  0  0  0  0
    5.9124    0.4357    1.2972 H   0  0  0  0  0  0  0  0  0  0  0  0
    6.1720    2.1220    1.8073 H   0  0  0  0  0  0  0  0  0  0  0  0
    7.0693    1.7977   -1.9810 H   0  0  0  0  0  0  0  0  0  0  0  0
    6.5429    0.2069   -1.3743 H   0  0  0  0  0  0  0  0  0  0  0  0
    1.9321    0.7075   -1.3598 H   0  0  0  0  0  0  0  0  0  0  0  0
    8.2403    0.6212    0.4117 H   0  0  0  0  0  0  0  0  0  0  0  0
    8.0873    2.3884    0.2247 H   0  0  0  0  0  0  0  0  0  0  0  0
    0.7424    2.7130   -0.4442 H   0  0  0  0  0  0  0  0  0  0  0  0
    0.5796    1.9421    1.1236 H   0  0  0  0  0  0  0  0  0  0  0  0
    1.4172   -0.2358    1.3826 H   0  0  0  0  0  0  0  0  0  0  0  0
    1.3846   -2.4981    1.7155 H   0  0  0  0  0  0  0  0  0  0  0  0
    1.1005   -3.6026    0.4118 H   0  0  0  0  0  0  0  0  0  0  0  0
    4.1231    0.6438   -1.3557 H   0  0  0  0  0  0  0  0  0  0  0  0
    3.4074   -3.4239   -0.4052 H   0  0  0  0  0  0  0  0  0  0  0  0
   -2.0468    2.8587   -0.4660 H   0  0  0  0  0  0  0  0  0  0  0  0
   -0.1953   -3.5726   -1.1537 H   0  0  0  0  0  0  0  0  0  0  0  0
   -3.9160   -1.5761   -1.7284 H   0  0  0  0  0  0  0  0  0  0  0  0
   -4.1881    2.3551   -1.4729 H   0  0  0  0  0  0  0  0  0  0  0  0
   -4.4240    0.7766   -2.2054 H   0  0  0  0  0  0  0  0  0  0  0  0
   -2.5329   -3.6282   -1.7711 H   0  0  0  0  0  0  0  0  0  0  0  0
    3.1455   -4.1301    2.5634 H   0  0  0  0  0  0  0  0  0  0  0  0
    4.4027   -4.7085    1.4565 H   0  0  0  0  0  0  0  0  0  0  0  0
    2.7207   -5.1863    1.2037 H   0  0  0  0  0  0  0  0  0  0  0  0
    3.7847   -1.5345    1.9839 H   0  0  0  0  0  0  0  0  0  0  0  0
    4.2136   -1.2646    0.2638 H   0  0  0  0  0  0  0  0  0  0  0  0
    5.1095   -2.4099    1.2209 H   0  0  0  0  0  0  0  0  0  0  0  0
   -6.3948   -0.3018   -1.3836 H   0  0  0  0  0  0  0  0  0  0  0  0
   -4.0913    2.1308    1.3461 H   0  0  0  0  0  0  0  0  0  0  0  0
   -7.9352   -0.7836    0.5104 H   0  0  0  0  0  0  0  0  0  0  0  0
   -5.7332    1.5298    3.1088 H   0  0  0  0  0  0  0  0  0  0  0  0
  1 17  2  0  0  0  0
  2  9  1  0  0  0  0
  2 10  1  0  0  0  0
  2 43  1  0  0  0  0
  3  6  1  0  0  0  0
  3 17  1  0  0  0  0
  3 46  1  0  0  0  0
  4 18  1  0  0  0  0
  4 20  1  0  0  0  0
  4 23  1  0  0  0  0
  5 30  2  0  0  0  0
  5 31  1  0  0  0  0
  6  7  1  0  0  0  0
  6  8  1  0  0  0  0
  6 32  1  0  0  0  0
  7 11  1  0  0  0  0
  7 34  1  0  0  0  0
  7 35  1  0  0  0  0
  8 11  1  0  0  0  0
  8 36  1  0  0  0  0
  8 37  1  0  0  0  0
  9 13  1  0  0  0  0
  9 16  1  0  0  0  0
  9 33  1  0  0  0  0
 10 12  1  0  0  0  0
 10 17  1  0  0  0  0
 10 38  1  0  0  0  0
 11 39  1  0  0  0  0
 11 40  1  0  0  0  0
 12 15  1  0  0  0  0
 12 41  1  0  0  0  0
 12 42  1  0  0  0  0
 13 14  2  0  0  0  0
 13 21  1  0  0  0  0
 14 15  1  0  0  0  0
 14 18  1  0  0  0  0
 15 20  2  0  0  0  0
 16 19  1  0  0  0  0
 16 44  1  0  0  0  0
 16 45  1  0  0  0  0
 18 22  2  0  0  0  0
 19 25  1  0  0  0  0
 19 26  1  0  0  0  0
 19 47  1  0  0  0  0
 20 48  1  0  0  0  0
 21 24  2  0  0  0  0
 21 49  1  0  0  0  0
 22 24  1  0  0  0  0
 22 50  1  0  0  0  0
 23 27  1  0  0  0  0
 23 51  1  0  0  0  0
 23 52  1  0  0  0  0
 24 53  1  0  0  0  0
 25 54  1  0  0  0  0
 25 55  1  0  0  0  0
 25 56  1  0  0  0  0
 26 57  1  0  0  0  0
 26 58  1  0  0  0  0
 26 59  1  0  0  0  0
 27 28  2  0  0  0  0
 27 29  1  0  0  0  0
 28 30  1  0  0  0  0
 28 60  1  0  0  0  0
 29 31  2  0  0  0  0
 29 61  1  0  0  0  0
 30 62  1  0  0  0  0
 31 63  1  0  0  0  0
M  END
> <PUBCHEM_COMPOUND_CID>
51138040

> <PUBCHEM_CONFORMER_RMSD>
1

> <PUBCHEM_CONFORMER_DIVERSEORDER>
1
14
21
34
56
9
62
12
47
27
42
16
59
60
23
50
18
3
33
46
37
48
63
64
5
29
39
54
26
51
15
19
24
32
58
35
10
55
20
36
44
38
41
13
6
7
52
25
43
11
53
49
17
8
4
2
57
61
22
45
40
31
28
30

> <PUBCHEM_MMFF94_PARTIAL_CHARGES>
33
1 -0.57
10 0.33
12 0.18
13 -0.14
15 -0.18
17 0.57
18 -0.15
2 -0.9
20 -0.3
21 -0.15
22 -0.15
23 0.4
24 -0.15
27 -0.14
28 -0.15
29 -0.15
3 -0.65
30 0.16
31 0.16
4 0.05
43 0.36
46 0.37
48 0.15
49 0.15
5 -0.62
50 0.15
53 0.15
6 0.22
60 0.15
61 0.15
62 0.15
63 0.15
9 0.41

> <PUBCHEM_EFFECTIVE_ROTOR_COUNT>
8.6

> <PUBCHEM_PHARMACOPHORE_FEATURES>
12
1 1 acceptor
1 2 cation
1 2 donor
1 3 donor
1 4 cation
1 5 acceptor
3 19 25 26 hydrophobe
4 6 7 8 11 rings
5 4 14 15 18 20 rings
6 13 14 18 21 22 24 rings
6 5 27 28 29 30 31 rings
7 2 9 10 12 13 14 15 rings

> <PUBCHEM_HEAVY_ATOM_COUNT>
31

> <PUBCHEM_ATOM_DEF_STEREO_COUNT>
2

> <PUBCHEM_ATOM_UDEF_STEREO_COUNT>
0

> <PUBCHEM_BOND_DEF_STEREO_COUNT>
0

> <PUBCHEM_BOND_UDEF_STEREO_COUNT>
0

> <PUBCHEM_ISOTOPIC_ATOM_COUNT>
0

> <PUBCHEM_COMPONENT_COUNT>
1

> <PUBCHEM_CACTVS_TAUTO_COUNT>
2

> <PUBCHEM_CONFORMER_ID>
030C4DF800000001

> <PUBCHEM_MMFF94_ENERGY>
79.1255

> <PUBCHEM_FEATURE_SELFOVERLAP>
61.028

> <PUBCHEM_SHAPE_FINGERPRINT>
10165383 225 18412546530518712125
10190108 129 18118973731000980371
10670039 82 15482400759736491353
10674148 151 17775291569441162996
11135926 11 18335688452087439574
12422481 6 18126278645816343811
12597179 24 18040439910200590610
12788726 201 17560803186604700953
13111901 25 18412255151579661874
13140716 1 18340761573005611023
13540713 5 18270378556266845175
13782708 43 16951125041359593251
14028597 1 18131356271906978176
14114211 68 18188510016512195782
14790565 3 18342458114550454100
14849402 71 18343866636285838345
14955137 171 18052256189618050695
15183329 4 18130783469119283284
15238133 3 16988559053235997075
15297060 5 18341043104227918298
15927050 60 18410288159605991782
15975801 100 15265405503959332459
16112460 7 18271529714691134923
16993089 31 15936960848243474194
18608769 82 18335422421296212103
19319366 153 18407478864768376918
20739085 24 18339091376267324485
21033648 29 16629949041302289616
21360443 120 18261111881632583078
21623969 137 18113057125238792185
21756936 100 17561085822013618469
21781055 127 16773241673688560307
22311459 1 18408884066019170692
23559900 14 17987792991861839190
25147074 1 18272072916648972295
3009799 131 10519993642650484405
3178227 256 18336272322458060912
3411729 13 18411423886223083398
350125 39 18412257350481000526
38570 142 18343592849315904806
397830 11 17603869987875967755
4093350 32 17275108297931848438
437795 51 18113909225861317330
5104073 3 18340476854816876163
5385378 56 18409728444315981378
563151 40 18337115678025556546
5758199 1 18342462559826216417
59755656 520 18201720686625563133
6669772 16 18113900442099328994

> <PUBCHEM_SHAPE_MULTIPOLES>
612.17
17.62
3.77
1.51
0.98
4.21
0.37
-10.53
5.65
-5.19
0.8
1.58
0.32
-2.3

> <PUBCHEM_SHAPE_SELFOVERLAP>
1322.705

> <PUBCHEM_SHAPE_VOLUME>
335.7

> <PUBCHEM_COORDINATE_TYPE>
2
5
10

$$$$
