7142447
  -OEChem-12032416223D

 48 52  0     1  0  0  0  0  0999 V2000
   -6.5684   -0.2876   -1.5991 S   0  0  0  0  0  0  0  0  0  0  0  0
    1.4412    2.3416    0.5229 O   0  0  0  0  0  0  0  0  0  0  0  0
   -1.3398   -2.1411    0.8415 O   0  0  0  0  0  0  0  0  0  0  0  0
    4.4211    1.2957   -2.0242 O   0  0  0  0  0  0  0  0  0  0  0  0
    0.2058   -0.6612   -0.0366 N   0  0  0  0  0  0  0  0  0  0  0  0
    2.9274    0.0651   -0.7549 N   0  0  0  0  0  0  0  0  0  0  0  0
   -0.7979    2.0051    0.7599 N   0  0  0  0  0  0  0  0  0  0  0  0
    7.0148   -1.7586   -0.0771 N   0  0  0  0  0  0  0  0  0  0  0  0
    0.4692    0.5600   -0.7843 C   0  0  2  0  0  0  0  0  0  0  0  0
    1.7876    0.5039   -1.5655 C   0  0  0  0  0  0  0  0  0  0  0  0
    1.3151   -1.6023    0.1238 C   0  0  0  0  0  0  0  0  0  0  0  0
    2.6392   -0.8814    0.3301 C   0  0  0  0  0  0  0  0  0  0  0  0
    0.4371    1.6864    0.2364 C   0  0  0  0  0  0  0  0  0  0  0  0
   -1.0695   -1.0318    0.3784 C   0  0  0  0  0  0  0  0  0  0  0  0
   -2.1712   -0.0358    0.2945 C   0  0  0  0  0  0  0  0  0  0  0  0
   -2.0240    1.3327    0.5745 C   0  0  0  0  0  0  0  0  0  0  0  0
    4.2218    0.4988   -1.1051 C   0  0  0  0  0  0  0  0  0  0  0  0
   -3.4603   -0.5634    0.0943 C   0  0  0  0  0  0  0  0  0  0  0  0
   -3.1763    2.1257    0.7165 C   0  0  0  0  0  0  0  0  0  0  0  0
    5.3415   -0.0432   -0.3395 C   0  0  0  0  0  0  0  0  0  0  0  0
   -4.5896    0.2485    0.1909 C   0  0  0  0  0  0  0  0  0  0  0  0
   -4.4485    1.5912    0.5158 C   0  0  0  0  0  0  0  0  0  0  0  0
   -5.9025   -0.3099   -0.0209 C   0  0  0  0  0  0  0  0  0  0  0  0
    5.7923    0.5950    0.8055 C   0  0  0  0  0  0  0  0  0  0  0  0
    5.9751   -1.2038   -0.7395 C   0  0  0  0  0  0  0  0  0  0  0  0
   -6.7573   -0.8914    0.8909 C   0  0  0  0  0  0  0  0  0  0  0  0
    6.8598    0.0547    1.5141 C   0  0  0  0  0  0  0  0  0  0  0  0
    7.4312   -1.1131    1.0354 C   0  0  0  0  0  0  0  0  0  0  0  0
   -7.9728   -1.3235    0.2862 C   0  0  0  0  0  0  0  0  0  0  0  0
   -8.0021   -1.0564   -1.0649 C   0  0  0  0  0  0  0  0  0  0  0  0
   -0.3404    0.7273   -1.5055 H   0  0  0  0  0  0  0  0  0  0  0  0
    1.7009   -0.2206   -2.3852 H   0  0  0  0  0  0  0  0  0  0  0  0
    2.0062    1.4768   -2.0201 H   0  0  0  0  0  0  0  0  0  0  0  0
    1.3465   -2.2178   -0.7834 H   0  0  0  0  0  0  0  0  0  0  0  0
    1.1161   -2.2722    0.9672 H   0  0  0  0  0  0  0  0  0  0  0  0
    2.6180   -0.2996    1.2592 H   0  0  0  0  0  0  0  0  0  0  0  0
    3.4427   -1.6171    0.4184 H   0  0  0  0  0  0  0  0  0  0  0  0
   -0.8451    2.8888    1.2617 H   0  0  0  0  0  0  0  0  0  0  0  0
   -3.5870   -1.6234   -0.1233 H   0  0  0  0  0  0  0  0  0  0  0  0
   -3.0910    3.1836    0.9581 H   0  0  0  0  0  0  0  0  0  0  0  0
   -5.3157    2.2398    0.6141 H   0  0  0  0  0  0  0  0  0  0  0  0
    5.3223    1.5097    1.1563 H   0  0  0  0  0  0  0  0  0  0  0  0
    5.6622   -1.7438   -1.6279 H   0  0  0  0  0  0  0  0  0  0  0  0
   -6.5278   -1.0047    1.9432 H   0  0  0  0  0  0  0  0  0  0  0  0
    7.2324    0.5325    2.4129 H   0  0  0  0  0  0  0  0  0  0  0  0
    8.2663   -1.5749    1.5517 H   0  0  0  0  0  0  0  0  0  0  0  0
   -8.7845   -1.8058    0.8152 H   0  0  0  0  0  0  0  0  0  0  0  0
   -8.7969   -1.2760   -1.7637 H   0  0  0  0  0  0  0  0  0  0  0  0
  1 23  1  0  0  0  0
  1 30  1  0  0  0  0
  2 13  2  0  0  0  0
  3 14  2  0  0  0  0
  4 17  2  0  0  0  0
  5  9  1  0  0  0  0
  5 11  1  0  0  0  0
  5 14  1  0  0  0  0
  6 10  1  0  0  0  0
  6 12  1  0  0  0  0
  6 17  1  0  0  0  0
  7 13  1  0  0  0  0
  7 16  1  0  0  0  0
  7 38  1  0  0  0  0
  8 25  1  0  0  0  0
  8 28  2  0  0  0  0
  9 10  1  0  0  0  0
  9 13  1  0  0  0  0
  9 31  1  0  0  0  0
 10 32  1  0  0  0  0
 10 33  1  0  0  0  0
 11 12  1  0  0  0  0
 11 34  1  0  0  0  0
 11 35  1  0  0  0  0
 12 36  1  0  0  0  0
 12 37  1  0  0  0  0
 14 15  1  0  0  0  0
 15 16  2  0  0  0  0
 15 18  1  0  0  0  0
 16 19  1  0  0  0  0
 17 20  1  0  0  0  0
 18 21  2  0  0  0  0
 18 39  1  0  0  0  0
 19 22  2  0  0  0  0
 19 40  1  0  0  0  0
 20 24  1  0  0  0  0
 20 25  2  0  0  0  0
 21 22  1  0  0  0  0
 21 23  1  0  0  0  0
 22 41  1  0  0  0  0
 23 26  2  0  0  0  0
 24 27  2  0  0  0  0
 24 42  1  0  0  0  0
 25 43  1  0  0  0  0
 26 29  1  0  0  0  0
 26 44  1  0  0  0  0
 27 28  1  0  0  0  0
 27 45  1  0  0  0  0
 28 46  1  0  0  0  0
 29 30  2  0  0  0  0
 29 47  1  0  0  0  0
 30 48  1  0  0  0  0
M  END
> <PUBCHEM_COMPOUND_CID>
7142447

> <PUBCHEM_CONFORMER_RMSD>
0.8

> <PUBCHEM_CONFORMER_DIVERSEORDER>
1
7
23
22
4
8
21
24
2
20
14
19
3
12
9
13
11
15
25
5
16
18
6
10
26
17

> <PUBCHEM_MMFF94_PARTIAL_CHARGES>
41
1 -0.08
10 0.3
11 0.3
12 0.3
13 0.57
14 0.54
15 0.09
16 0.12
17 0.54
18 -0.15
19 -0.15
2 -0.57
20 0.09
21 0.05
22 -0.15
23 -0.01
24 -0.15
25 0.16
26 -0.15
27 -0.15
28 0.16
29 -0.15
3 -0.57
30 -0.11
38 0.37
39 0.15
4 -0.57
40 0.15
41 0.15
42 0.15
43 0.15
44 0.15
45 0.15
46 0.15
47 0.15
48 0.15
5 -0.66
6 -0.66
7 -0.55
8 -0.62
9 0.36

> <PUBCHEM_EFFECTIVE_ROTOR_COUNT>
4

> <PUBCHEM_PHARMACOPHORE_FEATURES>
10
1 2 acceptor
1 3 acceptor
1 4 acceptor
1 7 donor
1 8 acceptor
5 1 23 26 29 30 rings
6 15 16 18 19 21 22 rings
6 5 6 9 10 11 12 rings
6 8 20 24 25 27 28 rings
7 5 7 9 13 14 15 16 rings

> <PUBCHEM_HEAVY_ATOM_COUNT>
30

> <PUBCHEM_ATOM_DEF_STEREO_COUNT>
1

> <PUBCHEM_ATOM_UDEF_STEREO_COUNT>
0

> <PUBCHEM_BOND_DEF_STEREO_COUNT>
0

> <PUBCHEM_BOND_UDEF_STEREO_COUNT>
0

> <PUBCHEM_ISOTOPIC_ATOM_COUNT>
0

> <PUBCHEM_COMPONENT_COUNT>
1

> <PUBCHEM_CACTVS_TAUTO_COUNT>
3

> <PUBCHEM_CONFORMER_ID>
006CFC2F00000001

> <PUBCHEM_MMFF94_ENERGY>
105.2539

> <PUBCHEM_FEATURE_SELFOVERLAP>
50.777

> <PUBCHEM_SHAPE_FINGERPRINT>
10 15 17346875672270708980
106641 1 17060334149852196392
10670039 82 16805592652432603533
10674148 151 11458422432433598668
10930396 42 18264183934163861392
11135926 11 18335419046454743951
11181472 205 14779820495360419470
11719270 70 18187364328889693098
11828532 37 18339644563200906554
12107698 1 18060701701956006681
12166972 35 18041002855616633172
12236239 1 18114187419408764232
12516196 113 17704073992705125201
13692114 37 18410852192255220554
13862211 1 18411705378358628985
13914758 101 16877938313530885893
14068700 675 18343584053703515137
14251764 18 18408045117514576188
14849402 71 15913035586153655632
15131766 46 16301221546911829214
15183329 4 16298383543785657301
15188451 53 18334853897266472976
1577012 14 18261689102929438204
15849732 13 18410289220362089695
19841028 212 17532079523883082314
21130935 74 17775010020679959630
21267235 1 18341899602047218769
21521721 280 14692567732499790614
21781051 124 17968949711708039179
21792961 116 18114178632675744979
22149856 69 16773534199657801849
22224240 67 16343983615336335631
23522609 53 17912119219918003513
23559900 14 18265895942345158481
23569917 315 18334301946013394402
23569943 247 17831866746727735122
23576562 1 14635736226917969135
249057 25 18260561003904374948
3004659 81 18114190731203024724
3044373 193 17346882261030167840
335352 9 18113343011985867806
3383291 50 18410577301215234339
3418910 222 15913054252086870488
34797466 226 16558755632985568292
3633792 109 17676763180876073251
4098825 35 16443615823286232647
4340502 62 15626506077818888012
474113 269 16588572116541015994
484989 97 18188781685878551339
5104073 3 17487630636236171490
5283156 175 18410013226201205975
5758199 1 12607404394829677517
58260988 393 14476973259074043562
59682541 35 17775278400569897274
59755656 520 16877940590286163467
6081469 158 17967247612068417037
6394761 36 14129054803181257775
9663363 56 18060414725895855383
9689198 14 10663818598099946261

> <PUBCHEM_SHAPE_MULTIPOLES>
583.7
22.55
1.95
1.3
3.56
0.56
0.42
-9.89
-0.42
0.31
-0.39
-0.66
0.11
-0.72

> <PUBCHEM_SHAPE_SELFOVERLAP>
1284.417

> <PUBCHEM_SHAPE_VOLUME>
313.8

> <PUBCHEM_COORDINATE_TYPE>
2
5
10

$$$$
