25338626
  -OEChem-12032416353D

 46 48  0     1  0  0  0  0  0999 V2000
    4.8452    4.8546    0.4745 F   0  0  0  0  0  0  0  0  0  0  0  0
    3.0566   -2.4255   -0.9288 O   0  0  0  0  0  0  0  0  0  0  0  0
   -3.8015   -1.3646   -1.2457 O   0  0  0  0  0  0  0  0  0  0  0  0
   -4.6374    0.9159   -0.0845 O   0  0  0  0  0  0  0  0  0  0  0  0
   -6.4937    3.9098    0.5833 O   0  0  0  0  0  0  0  0  0  0  0  0
   -6.6690    2.4062   -1.1185 O   0  0  0  0  0  0  0  0  0  0  0  0
    0.3007   -3.2803    1.0939 N   0  0  1  0  0  0  0  0  0  0  0  0
   -2.1742   -1.7110    0.3791 N   0  0  0  0  0  0  0  0  0  0  0  0
    1.8561   -0.7676   -0.0194 N   0  0  0  0  0  0  0  0  0  0  0  0
    3.8920   -1.3014   -0.9161 N   0  0  0  0  0  0  0  0  0  0  0  0
   -1.6453   -2.9475   -0.1457 C   0  0  1  0  0  0  0  0  0  0  0  0
    0.7909   -3.0731   -0.2822 C   0  0  1  0  0  0  0  0  0  0  0  0
   -0.4683   -2.7006   -1.0893 C   0  0  0  0  0  0  0  0  0  0  0  0
   -1.0589   -3.8125    0.9598 C   0  0  0  0  0  0  0  0  0  0  0  0
    1.8781   -2.0247   -0.3841 C   0  0  0  0  0  0  0  0  0  0  0  0
    1.1549   -4.1617    1.8808 C   0  0  0  0  0  0  0  0  0  0  0  0
   -3.2156   -1.0214   -0.2225 C   0  0  0  0  0  0  0  0  0  0  0  0
    3.1132   -0.3653   -0.3655 C   0  0  0  0  0  0  0  0  0  0  0  0
   -3.5670    0.2388    0.5391 C   0  0  0  0  0  0  0  0  0  0  0  0
    3.5598    0.9805   -0.1490 C   0  0  0  0  0  0  0  0  0  0  0  0
    2.7012    1.9158    0.4289 C   0  0  0  0  0  0  0  0  0  0  0  0
    4.8527    1.3539   -0.5160 C   0  0  0  0  0  0  0  0  0  0  0  0
   -4.9899    2.1076    0.6120 C   0  0  0  0  0  0  0  0  0  0  0  0
    3.1354    3.2243    0.6395 C   0  0  0  0  0  0  0  0  0  0  0  0
    5.2869    2.6626   -0.3054 C   0  0  0  0  0  0  0  0  0  0  0  0
    4.4283    3.5978    0.2723 C   0  0  0  0  0  0  0  0  0  0  0  0
   -6.1312    2.7892   -0.0904 C   0  0  0  0  0  0  0  0  0  0  0  0
   -2.4535   -3.4727   -0.6668 H   0  0  0  0  0  0  0  0  0  0  0  0
    1.1763   -4.0189   -0.6897 H   0  0  0  0  0  0  0  0  0  0  0  0
   -0.4531   -1.6726   -1.4701 H   0  0  0  0  0  0  0  0  0  0  0  0
   -0.5466   -3.3709   -1.9546 H   0  0  0  0  0  0  0  0  0  0  0  0
   -1.6194   -3.7389    1.8979 H   0  0  0  0  0  0  0  0  0  0  0  0
   -1.0416   -4.8625    0.6399 H   0  0  0  0  0  0  0  0  0  0  0  0
   -1.7218   -1.3058    1.1940 H   0  0  0  0  0  0  0  0  0  0  0  0
    2.1567   -3.7332    1.9910 H   0  0  0  0  0  0  0  0  0  0  0  0
    1.2540   -5.1566    1.4321 H   0  0  0  0  0  0  0  0  0  0  0  0
    0.7492   -4.2808    2.8915 H   0  0  0  0  0  0  0  0  0  0  0  0
   -3.8465   -0.0405    1.5617 H   0  0  0  0  0  0  0  0  0  0  0  0
   -2.6815    0.8847    0.5665 H   0  0  0  0  0  0  0  0  0  0  0  0
    1.6882    1.6557    0.7257 H   0  0  0  0  0  0  0  0  0  0  0  0
    5.5497    0.6531   -0.9685 H   0  0  0  0  0  0  0  0  0  0  0  0
   -5.3059    1.8549    1.6297 H   0  0  0  0  0  0  0  0  0  0  0  0
   -4.1328    2.7890    0.6288 H   0  0  0  0  0  0  0  0  0  0  0  0
    2.4676    3.9531    1.0893 H   0  0  0  0  0  0  0  0  0  0  0  0
    6.2933    2.9544   -0.5910 H   0  0  0  0  0  0  0  0  0  0  0  0
   -7.2383    4.3751    0.1459 H   0  0  0  0  0  0  0  0  0  0  0  0
  1 26  1  0  0  0  0
  2 10  1  0  0  0  0
  2 15  1  0  0  0  0
  3 17  2  0  0  0  0
  4 19  1  0  0  0  0
  4 23  1  0  0  0  0
  5 27  1  0  0  0  0
  5 46  1  0  0  0  0
  6 27  2  0  0  0  0
  7 12  1  0  0  0  0
  7 14  1  0  0  0  0
  7 16  1  0  0  0  0
  8 11  1  0  0  0  0
  8 17  1  0  0  0  0
  8 34  1  0  0  0  0
  9 15  2  0  0  0  0
  9 18  1  0  0  0  0
 10 18  2  0  0  0  0
 11 13  1  0  0  0  0
 11 14  1  0  0  0  0
 11 28  1  0  0  0  0
 12 13  1  0  0  0  0
 12 15  1  0  0  0  0
 12 29  1  0  0  0  0
 13 30  1  0  0  0  0
 13 31  1  0  0  0  0
 14 32  1  0  0  0  0
 14 33  1  0  0  0  0
 16 35  1  0  0  0  0
 16 36  1  0  0  0  0
 16 37  1  0  0  0  0
 17 19  1  0  0  0  0
 18 20  1  0  0  0  0
 19 38  1  0  0  0  0
 19 39  1  0  0  0  0
 20 21  2  0  0  0  0
 20 22  1  0  0  0  0
 21 24  1  0  0  0  0
 21 40  1  0  0  0  0
 22 25  2  0  0  0  0
 22 41  1  0  0  0  0
 23 27  1  0  0  0  0
 23 42  1  0  0  0  0
 23 43  1  0  0  0  0
 24 26  2  0  0  0  0
 24 44  1  0  0  0  0
 25 26  1  0  0  0  0
 25 45  1  0  0  0  0
M  END
> <PUBCHEM_COMPOUND_CID>
25338626

> <PUBCHEM_CONFORMER_RMSD>
1

> <PUBCHEM_CONFORMER_DIVERSEORDER>
1
12
16
29
24
26
3
9
17
22
2
19
15
8
14
6
13
28
20
5
4
25
7
23
10
11
27
18
21
30

> <PUBCHEM_MMFF94_PARTIAL_CHARGES>
32
1 -0.19
10 -0.41
11 0.3
12 0.45
14 0.27
15 0.3
16 0.27
17 0.57
18 0.46
19 0.34
2 -0.02
20 0.05
21 -0.15
22 -0.15
23 0.34
24 -0.15
25 -0.15
26 0.19
27 0.66
3 -0.57
34 0.37
4 -0.56
40 0.15
41 0.15
44 0.15
45 0.15
46 0.5
5 -0.65
6 -0.57
7 -0.81
8 -0.73
9 -0.57

> <PUBCHEM_EFFECTIVE_ROTOR_COUNT>
9

> <PUBCHEM_PHARMACOPHORE_FEATURES>
11
1 3 acceptor
1 4 acceptor
1 5 acceptor
1 6 acceptor
1 7 cation
1 8 donor
3 5 6 27 anion
3 9 10 18 cation
5 2 9 10 15 18 rings
5 7 11 12 13 14 rings
6 20 21 22 24 25 26 rings

> <PUBCHEM_HEAVY_ATOM_COUNT>
27

> <PUBCHEM_ATOM_DEF_STEREO_COUNT>
2

> <PUBCHEM_ATOM_UDEF_STEREO_COUNT>
0

> <PUBCHEM_BOND_DEF_STEREO_COUNT>
0

> <PUBCHEM_BOND_UDEF_STEREO_COUNT>
0

> <PUBCHEM_ISOTOPIC_ATOM_COUNT>
0

> <PUBCHEM_COMPONENT_COUNT>
1

> <PUBCHEM_CACTVS_TAUTO_COUNT>
2

> <PUBCHEM_CONFORMER_ID>
0182A30200000001

> <PUBCHEM_MMFF94_ENERGY>
45.0999

> <PUBCHEM_FEATURE_SELFOVERLAP>
55.89

> <PUBCHEM_SHAPE_FINGERPRINT>
10675989 125 18340491049599705232
10937287 8 18409728482554150443
11059845 2 18122315095609025040
11197282 1 8539241604275887885
12107183 9 18262220215096980938
13590594 115 17403191295772005890
13878862 14 17826215312799718383
13944108 23 17978237058214464149
13965767 371 17894904118578606286
14223995 32 18271237331231352248
14251764 38 18340202011433155026
14251764 75 18342184345383876273
14429114 114 18413105091611636249
14848178 96 18413387622807027201
15142526 21 18334577915384609803
15322687 12 18341050718477050529
15326921 28 17767108071625324216
155225 5 17763464315381045496
16067690 210 17112944913711165656
1768 85 18338808797663379849
17980427 26 18336531781728078054
20238998 120 17544480116906655219
20715895 44 18341047437142985960
21033648 144 16550034556273628276
21049683 118 17458345192024409835
21344244 78 17395842177432352587
21388113 180 18410014312844204377
21475661 188 18411139104116591839
21585483 110 18336827464672589101
22122407 14 18122919620867009057
23569914 152 17771090215204667316
23845131 108 18186805738897913131
24204213 92 17413884133095376518
2838139 119 18341612667661192646
376196 1 18412828018665323654
5047190 92 18339081592458580385
5312510 48 18268150847441362537
53794403 172 18340770343186268045
56633871 153 9545241967454061320
57091435 61 18339074887803219185
59124914 9 18408325458509553626
5951187 136 18057614153119591309
6036956 94 17832143101770820549
7288768 16 18115023129549916851
9849439 229 18334580174157170605
9980921 52 14833631664820746284

> <PUBCHEM_SHAPE_MULTIPOLES>
499.1
14.31
7.18
1.09
15.53
1.11
-0.15
25.21
1.53
-0.11
-2.14
0.16
-0.85
0.59

> <PUBCHEM_SHAPE_SELFOVERLAP>
1056.766

> <PUBCHEM_SHAPE_VOLUME>
281.2

> <PUBCHEM_COORDINATE_TYPE>
2
5
10

$$$$
