11882078
  -OEChem-12032416123D

 75 77  0     1  0  0  0  0  0999 V2000
   -6.8326   -0.0327   -1.5317 S   0  0  0  0  0  0  0  0  0  0  0  0
    3.2914   -1.7117   -1.5421 O   0  0  0  0  0  0  0  0  0  0  0  0
    2.9453    0.9070    0.8887 O   0  0  0  0  0  0  0  0  0  0  0  0
   -2.2518   -0.2550    0.3327 O   0  0  0  0  0  0  0  0  0  0  0  0
    2.7725    2.0445   -2.9237 O   0  0  0  0  0  0  0  0  0  0  0  0
    2.3547   -1.6738    0.5743 N   0  0  0  0  0  0  0  0  0  0  0  0
   -0.7174   -1.7635    1.1783 N   0  0  0  0  0  0  0  0  0  0  0  0
    1.3110    1.4956   -0.6610 N   0  0  0  0  0  0  0  0  0  0  0  0
   -2.7618   -2.5416    0.4825 N   0  0  0  0  0  0  0  0  0  0  0  0
    3.7477    3.8089   -1.8224 N   0  0  0  0  0  0  0  0  0  0  0  0
    1.3007   -0.7106    0.2719 C   0  0  1  0  0  0  0  0  0  0  0  0
    0.3284   -0.8054    1.4478 C   0  0  2  0  0  0  0  0  0  0  0  0
    1.2163   -1.2619    2.6086 C   0  0  0  0  0  0  0  0  0  0  0  0
    2.2466   -2.1664    1.9448 C   0  0  0  0  0  0  0  0  0  0  0  0
    3.2261   -2.1512   -0.3928 C   0  0  0  0  0  0  0  0  0  0  0  0
    1.9581    0.6359    0.2101 C   0  0  0  0  0  0  0  0  0  0  0  0
    4.1346   -3.2718    0.0465 C   0  0  0  0  0  0  0  0  0  0  0  0
    5.6253   -2.8947   -0.0225 C   0  0  0  0  0  0  0  0  0  0  0  0
    5.8458   -1.6732    0.8896 C   0  0  0  0  0  0  0  0  0  0  0  0
    6.0370   -2.5169   -1.4556 C   0  0  0  0  0  0  0  0  0  0  0  0
    6.5135   -4.0467    0.4776 C   0  0  0  0  0  0  0  0  0  0  0  0
    1.7325    2.8596   -0.8842 C   0  0  2  0  0  0  0  0  0  0  0  0
   -1.9550   -1.4098    0.6296 C   0  0  0  0  0  0  0  0  0  0  0  0
    0.5669    3.7666   -1.2951 C   0  0  0  0  0  0  0  0  0  0  0  0
    2.7905    2.8283   -1.9775 C   0  0  0  0  0  0  0  0  0  0  0  0
   -0.2759    4.2021   -0.1213 C   0  0  0  0  0  0  0  0  0  0  0  0
   -4.0775   -2.6088   -0.0325 C   0  0  0  0  0  0  0  0  0  0  0  0
   -1.3692    3.4322    0.2760 C   0  0  0  0  0  0  0  0  0  0  0  0
    0.0385    5.3741    0.5668 C   0  0  0  0  0  0  0  0  0  0  0  0
   -4.7168   -1.4480   -0.4680 C   0  0  0  0  0  0  0  0  0  0  0  0
   -4.7356   -3.8366   -0.1044 C   0  0  0  0  0  0  0  0  0  0  0  0
   -2.1482    3.8344    1.3609 C   0  0  0  0  0  0  0  0  0  0  0  0
   -0.7403    5.7761    1.6518 C   0  0  0  0  0  0  0  0  0  0  0  0
   -1.8338    5.0062    2.0489 C   0  0  0  0  0  0  0  0  0  0  0  0
   -6.0146   -1.5152   -0.9752 C   0  0  0  0  0  0  0  0  0  0  0  0
   -6.0331   -3.9036   -0.6114 C   0  0  0  0  0  0  0  0  0  0  0  0
   -6.6727   -2.7430   -1.0469 C   0  0  0  0  0  0  0  0  0  0  0  0
   -6.8470    0.9708   -0.0193 C   0  0  0  0  0  0  0  0  0  0  0  0
    0.8485   -0.9609   -0.6949 H   0  0  0  0  0  0  0  0  0  0  0  0
   -0.1411    0.1580    1.6774 H   0  0  0  0  0  0  0  0  0  0  0  0
    1.7234   -0.3937    3.0468 H   0  0  0  0  0  0  0  0  0  0  0  0
    0.6719   -1.7721    3.4091 H   0  0  0  0  0  0  0  0  0  0  0  0
    1.8923   -3.2025    1.9103 H   0  0  0  0  0  0  0  0  0  0  0  0
    3.2118   -2.1264    2.4558 H   0  0  0  0  0  0  0  0  0  0  0  0
    3.9010   -3.6584    1.0399 H   0  0  0  0  0  0  0  0  0  0  0  0
    3.9370   -4.1116   -0.6339 H   0  0  0  0  0  0  0  0  0  0  0  0
   -0.5242   -2.7483    1.3337 H   0  0  0  0  0  0  0  0  0  0  0  0
    0.5317    1.1450   -1.2108 H   0  0  0  0  0  0  0  0  0  0  0  0
    5.5491   -1.8878    1.9220 H   0  0  0  0  0  0  0  0  0  0  0  0
    5.2913   -0.7917    0.5519 H   0  0  0  0  0  0  0  0  0  0  0  0
    6.9057   -1.3922    0.9090 H   0  0  0  0  0  0  0  0  0  0  0  0
    7.1284   -2.4412   -1.5354 H   0  0  0  0  0  0  0  0  0  0  0  0
    5.7112   -3.2760   -2.1752 H   0  0  0  0  0  0  0  0  0  0  0  0
    5.6451   -1.5455   -1.7706 H   0  0  0  0  0  0  0  0  0  0  0  0
    7.5740   -3.7717    0.4613 H   0  0  0  0  0  0  0  0  0  0  0  0
    6.3878   -4.9358   -0.1502 H   0  0  0  0  0  0  0  0  0  0  0  0
    6.2575   -4.3255    1.5058 H   0  0  0  0  0  0  0  0  0  0  0  0
    2.1990    3.2260    0.0394 H   0  0  0  0  0  0  0  0  0  0  0  0
   -0.0687    3.2710   -2.0416 H   0  0  0  0  0  0  0  0  0  0  0  0
    0.9465    4.6665   -1.7980 H   0  0  0  0  0  0  0  0  0  0  0  0
   -2.3630   -3.4284    0.7803 H   0  0  0  0  0  0  0  0  0  0  0  0
    4.5046    3.9076   -2.4908 H   0  0  0  0  0  0  0  0  0  0  0  0
    3.7364    4.4649   -1.0480 H   0  0  0  0  0  0  0  0  0  0  0  0
   -1.6253    2.5182   -0.2528 H   0  0  0  0  0  0  0  0  0  0  0  0
    0.8894    5.9809    0.2686 H   0  0  0  0  0  0  0  0  0  0  0  0
   -4.2482   -0.4745   -0.4447 H   0  0  0  0  0  0  0  0  0  0  0  0
   -4.2487   -4.7485    0.2317 H   0  0  0  0  0  0  0  0  0  0  0  0
   -2.9995    3.2346    1.6698 H   0  0  0  0  0  0  0  0  0  0  0  0
   -0.4952    6.6882    2.1881 H   0  0  0  0  0  0  0  0  0  0  0  0
   -2.4401    5.3192    2.8939 H   0  0  0  0  0  0  0  0  0  0  0  0
   -6.5455   -4.8596   -0.6672 H   0  0  0  0  0  0  0  0  0  0  0  0
   -7.6843   -2.8151   -1.4388 H   0  0  0  0  0  0  0  0  0  0  0  0
   -7.3196    0.4199    0.7984 H   0  0  0  0  0  0  0  0  0  0  0  0
   -5.8311    1.2516    0.2702 H   0  0  0  0  0  0  0  0  0  0  0  0
   -7.4194    1.8841   -0.2019 H   0  0  0  0  0  0  0  0  0  0  0  0
  1 35  1  0  0  0  0
  1 38  1  0  0  0  0
  2 15  2  0  0  0  0
  3 16  2  0  0  0  0
  4 23  2  0  0  0  0
  5 25  2  0  0  0  0
  6 11  1  0  0  0  0
  6 14  1  0  0  0  0
  6 15  1  0  0  0  0
  7 12  1  0  0  0  0
  7 23  1  0  0  0  0
  7 47  1  0  0  0  0
  8 16  1  0  0  0  0
  8 22  1  0  0  0  0
  8 48  1  0  0  0  0
  9 23  1  0  0  0  0
  9 27  1  0  0  0  0
  9 61  1  0  0  0  0
 10 25  1  0  0  0  0
 10 62  1  0  0  0  0
 10 63  1  0  0  0  0
 11 12  1  0  0  0  0
 11 16  1  0  0  0  0
 11 39  1  0  0  0  0
 12 13  1  0  0  0  0
 12 40  1  0  0  0  0
 13 14  1  0  0  0  0
 13 41  1  0  0  0  0
 13 42  1  0  0  0  0
 14 43  1  0  0  0  0
 14 44  1  0  0  0  0
 15 17  1  0  0  0  0
 17 18  1  0  0  0  0
 17 45  1  0  0  0  0
 17 46  1  0  0  0  0
 18 19  1  0  0  0  0
 18 20  1  0  0  0  0
 18 21  1  0  0  0  0
 19 49  1  0  0  0  0
 19 50  1  0  0  0  0
 19 51  1  0  0  0  0
 20 52  1  0  0  0  0
 20 53  1  0  0  0  0
 20 54  1  0  0  0  0
 21 55  1  0  0  0  0
 21 56  1  0  0  0  0
 21 57  1  0  0  0  0
 22 24  1  0  0  0  0
 22 25  1  0  0  0  0
 22 58  1  0  0  0  0
 24 26  1  0  0  0  0
 24 59  1  0  0  0  0
 24 60  1  0  0  0  0
 26 28  2  0  0  0  0
 26 29  1  0  0  0  0
 27 30  2  0  0  0  0
 27 31  1  0  0  0  0
 28 32  1  0  0  0  0
 28 64  1  0  0  0  0
 29 33  2  0  0  0  0
 29 65  1  0  0  0  0
 30 35  1  0  0  0  0
 30 66  1  0  0  0  0
 31 36  2  0  0  0  0
 31 67  1  0  0  0  0
 32 34  2  0  0  0  0
 32 68  1  0  0  0  0
 33 34  1  0  0  0  0
 33 69  1  0  0  0  0
 34 70  1  0  0  0  0
 35 37  2  0  0  0  0
 36 37  1  0  0  0  0
 36 71  1  0  0  0  0
 37 72  1  0  0  0  0
 38 73  1  0  0  0  0
 38 74  1  0  0  0  0
 38 75  1  0  0  0  0
M  END
> <PUBCHEM_COMPOUND_CID>
11882078

> <PUBCHEM_CONFORMER_RMSD>
1.2

> <PUBCHEM_CONFORMER_DIVERSEORDER>
1
87
71
64
65
38
96
41
15
76
67
90
95
45
109
59
61
16
69
92
63
91
108
49
33
81
47
53
85
99
27
106
14
57
36
62
74
35
30
100
44
102
52
80
10
68
22
83
55
42
12
104
23
84
56
94
40
13
39
101
86
6
72
28
60
24
107
26
58
77
82
11
43
51
93
78
8
17
54
70
32
75
25
46
18
37
79
20
29
48
103
9
5
21
73
3
105
98
34
50
19
31
89
4
88
66
7
97
2

> <PUBCHEM_MMFF94_PARTIAL_CHARGES>
47
1 -0.33
10 -0.8
11 0.36
12 0.3
14 0.3
15 0.57
16 0.57
17 0.06
2 -0.57
22 0.36
23 0.69
24 0.14
25 0.57
26 -0.14
27 0.12
28 -0.15
29 -0.15
3 -0.57
30 -0.15
31 -0.15
32 -0.15
33 -0.15
34 -0.15
35 0.1
36 -0.15
37 -0.15
38 0.23
4 -0.57
47 0.37
48 0.37
5 -0.57
6 -0.66
61 0.37
62 0.37
63 0.37
64 0.15
65 0.15
66 0.15
67 0.15
68 0.15
69 0.15
7 -0.73
70 0.15
71 0.15
72 0.15
8 -0.73
9 -0.55

> <PUBCHEM_EFFECTIVE_ROTOR_COUNT>
15

> <PUBCHEM_PHARMACOPHORE_FEATURES>
13
1 10 donor
1 2 acceptor
1 3 acceptor
1 38 hydrophobe
1 4 acceptor
1 5 acceptor
1 7 donor
1 8 donor
1 9 donor
4 18 19 20 21 hydrophobe
5 6 11 12 13 14 rings
6 26 28 29 32 33 34 rings
6 27 30 31 35 36 37 rings

> <PUBCHEM_HEAVY_ATOM_COUNT>
38

> <PUBCHEM_ATOM_DEF_STEREO_COUNT>
3

> <PUBCHEM_ATOM_UDEF_STEREO_COUNT>
0

> <PUBCHEM_BOND_DEF_STEREO_COUNT>
0

> <PUBCHEM_BOND_UDEF_STEREO_COUNT>
0

> <PUBCHEM_ISOTOPIC_ATOM_COUNT>
0

> <PUBCHEM_COMPONENT_COUNT>
1

> <PUBCHEM_CACTVS_TAUTO_COUNT>
12

> <PUBCHEM_CONFORMER_ID>
00B54E5E00000001

> <PUBCHEM_MMFF94_ENERGY>
106.9199

> <PUBCHEM_FEATURE_SELFOVERLAP>
66.024

> <PUBCHEM_SHAPE_FINGERPRINT>
10815517 723 18197502814277330545
11093857 51 17392765073792720765
11115154 58 18409443688005362139
11331351 85 18341039749025347475
11445158 3 14711488047129073798
13757389 114 17907594527362265796
14017579 90 17626919200886123911
14068700 675 18337386041625856175
15082195 135 17981026833580545007
15264996 142 18120674452340014635
15950262 2 14927322458554828932
18365409 1 18053666867658625513
21304303 172 18339361834325749606
21779490 27 18270677542405209917
21968339 14 18121218937548573814
23559900 14 18338506539060758083
255183 313 17688318889243971696
3388396 114 18194427673538980284
3504750 166 17829599562267245010
376196 1 17396129604932379114
3882209 13 18411694374805456236
4046055 25 18339077094852556462
44280117 145 18269561534272650806
4461854 278 17692555329205862953
508180 173 18187639203012788427
6700243 42 17771939097672899662

> <PUBCHEM_SHAPE_MULTIPOLES>
737.49
15.54
8.92
2
10.91
12.39
0.15
-24.06
5.94
1.18
-1.45
-1.32
1.48
-3.69

> <PUBCHEM_SHAPE_SELFOVERLAP>
1528.918

> <PUBCHEM_SHAPE_VOLUME>
423.9

> <PUBCHEM_COORDINATE_TYPE>
2
5
10

$$$$
