45361205
  -OEChem-12032416353D

 64 67  0     1  0  0  0  0  0999 V2000
    4.7707   -4.3751   -0.0165 Cl  0  0  0  0  0  0  0  0  0  0  0  0
    0.8703   -0.7115    0.9578 O   0  0  0  0  0  0  0  0  0  0  0  0
   -5.2097    1.6550    0.0975 O   0  0  0  0  0  0  0  0  0  0  0  0
   -5.5752   -4.3995    0.5244 O   0  0  0  0  0  0  0  0  0  0  0  0
   -0.4545    2.5898   -0.5707 N   0  0  1  0  0  0  0  0  0  0  0  0
    2.7684    0.9530   -0.0009 N   0  0  1  0  0  0  0  0  0  0  0  0
   -0.4491    0.9547    1.8061 N   0  0  0  0  0  0  0  0  0  0  0  0
   -4.6320   -0.4899   -0.5833 N   0  0  0  0  0  0  0  0  0  0  0  0
    1.0111    2.5869   -0.3669 C   0  0  1  0  0  0  0  0  0  0  0  0
    1.6142    1.5874    0.6633 C   0  0  1  0  0  0  0  0  0  0  0  0
    1.8182    2.2633   -1.6380 C   0  0  0  0  0  0  0  0  0  0  0  0
   -1.2430    2.9847    0.6299 C   0  0  2  0  0  0  0  0  0  0  0  0
    3.1644    1.8275   -1.0991 C   0  0  0  0  0  0  0  0  0  0  0  0
   -0.7627    2.3619    1.9553 C   0  0  0  0  0  0  0  0  0  0  0  0
    0.6629    0.4888    1.1307 C   0  0  0  0  0  0  0  0  0  0  0  0
   -2.7276    2.6044    0.4495 C   0  0  0  0  0  0  0  0  0  0  0  0
    3.8754    0.6754    0.9055 C   0  0  0  0  0  0  0  0  0  0  0  0
   -0.8215    3.4322   -1.7217 C   0  0  0  0  0  0  0  0  0  0  0  0
   -2.8933    1.1704   -0.0149 C   0  0  0  0  0  0  0  0  0  0  0  0
    4.7878   -0.3934    0.3651 C   0  0  0  0  0  0  0  0  0  0  0  0
   -4.3499    0.8086   -0.1602 C   0  0  0  0  0  0  0  0  0  0  0  0
   -3.6302   -1.5174   -0.8969 C   0  0  0  0  0  0  0  0  0  0  0  0
   -6.0223   -0.9021   -0.7925 C   0  0  0  0  0  0  0  0  0  0  0  0
   -3.9049   -2.7971   -0.1124 C   0  0  0  0  0  0  0  0  0  0  0  0
   -6.3388   -2.1691   -0.0051 C   0  0  0  0  0  0  0  0  0  0  0  0
   -5.3392   -3.2821   -0.3237 C   0  0  0  0  0  0  0  0  0  0  0  0
    4.4015   -1.7326    0.4178 C   0  0  0  0  0  0  0  0  0  0  0  0
    6.0195   -0.0441   -0.1888 C   0  0  0  0  0  0  0  0  0  0  0  0
    5.2466   -2.7227   -0.0836 C   0  0  0  0  0  0  0  0  0  0  0  0
    6.8648   -1.0340   -0.6900 C   0  0  0  0  0  0  0  0  0  0  0  0
    6.4783   -2.3733   -0.6376 C   0  0  0  0  0  0  0  0  0  0  0  0
    1.3164    3.5973   -0.0529 H   0  0  0  0  0  0  0  0  0  0  0  0
    1.9523    2.1509    1.5432 H   0  0  0  0  0  0  0  0  0  0  0  0
    1.9182    3.1278   -2.3024 H   0  0  0  0  0  0  0  0  0  0  0  0
    1.3546    1.4424   -2.2014 H   0  0  0  0  0  0  0  0  0  0  0  0
   -1.1907    4.0743    0.7628 H   0  0  0  0  0  0  0  0  0  0  0  0
    3.7332    2.7006   -0.7552 H   0  0  0  0  0  0  0  0  0  0  0  0
    3.7444    1.3025   -1.8642 H   0  0  0  0  0  0  0  0  0  0  0  0
   -1.5239    2.4432    2.7394 H   0  0  0  0  0  0  0  0  0  0  0  0
    0.1189    2.8903    2.3316 H   0  0  0  0  0  0  0  0  0  0  0  0
   -3.2056    3.2853   -0.2656 H   0  0  0  0  0  0  0  0  0  0  0  0
   -3.2704    2.7647    1.3907 H   0  0  0  0  0  0  0  0  0  0  0  0
    3.4941    0.3025    1.8667 H   0  0  0  0  0  0  0  0  0  0  0  0
    4.4378    1.5844    1.1583 H   0  0  0  0  0  0  0  0  0  0  0  0
   -1.0812    0.2713    2.2115 H   0  0  0  0  0  0  0  0  0  0  0  0
   -0.5166    4.4744   -1.5736 H   0  0  0  0  0  0  0  0  0  0  0  0
   -0.3698    3.0655   -2.6488 H   0  0  0  0  0  0  0  0  0  0  0  0
   -1.8965    3.4166   -1.9212 H   0  0  0  0  0  0  0  0  0  0  0  0
   -2.4915    0.4664    0.7110 H   0  0  0  0  0  0  0  0  0  0  0  0
   -2.4156    1.0110   -0.9866 H   0  0  0  0  0  0  0  0  0  0  0  0
   -2.6122   -1.1825   -0.6927 H   0  0  0  0  0  0  0  0  0  0  0  0
   -3.6949   -1.7108   -1.9744 H   0  0  0  0  0  0  0  0  0  0  0  0
   -6.1533   -1.0753   -1.8672 H   0  0  0  0  0  0  0  0  0  0  0  0
   -6.7137   -0.1046   -0.5032 H   0  0  0  0  0  0  0  0  0  0  0  0
   -3.7324   -2.6213    0.9577 H   0  0  0  0  0  0  0  0  0  0  0  0
   -3.1983   -3.5822   -0.4066 H   0  0  0  0  0  0  0  0  0  0  0  0
   -7.3586   -2.5070   -0.2237 H   0  0  0  0  0  0  0  0  0  0  0  0
   -6.3153   -1.9554    1.0716 H   0  0  0  0  0  0  0  0  0  0  0  0
   -5.4652   -3.6140   -1.3611 H   0  0  0  0  0  0  0  0  0  0  0  0
    3.4421   -2.0045    0.8518 H   0  0  0  0  0  0  0  0  0  0  0  0
    6.3318    0.9957   -0.2375 H   0  0  0  0  0  0  0  0  0  0  0  0
    7.8236   -0.7619   -1.1215 H   0  0  0  0  0  0  0  0  0  0  0  0
   -6.4923   -4.6886    0.3792 H   0  0  0  0  0  0  0  0  0  0  0  0
    7.1472   -3.1340   -1.0320 H   0  0  0  0  0  0  0  0  0  0  0  0
  1 29  1  0  0  0  0
  2 15  2  0  0  0  0
  3 21  2  0  0  0  0
  4 26  1  0  0  0  0
  4 63  1  0  0  0  0
  5  9  1  0  0  0  0
  5 12  1  0  0  0  0
  5 18  1  0  0  0  0
  6 10  1  0  0  0  0
  6 13  1  0  0  0  0
  6 17  1  0  0  0  0
  7 14  1  0  0  0  0
  7 15  1  0  0  0  0
  7 45  1  0  0  0  0
  8 21  1  0  0  0  0
  8 22  1  0  0  0  0
  8 23  1  0  0  0  0
  9 10  1  0  0  0  0
  9 11  1  0  0  0  0
  9 32  1  0  0  0  0
 10 15  1  0  0  0  0
 10 33  1  0  0  0  0
 11 13  1  0  0  0  0
 11 34  1  0  0  0  0
 11 35  1  0  0  0  0
 12 14  1  0  0  0  0
 12 16  1  0  0  0  0
 12 36  1  0  0  0  0
 13 37  1  0  0  0  0
 13 38  1  0  0  0  0
 14 39  1  0  0  0  0
 14 40  1  0  0  0  0
 16 19  1  0  0  0  0
 16 41  1  0  0  0  0
 16 42  1  0  0  0  0
 17 20  1  0  0  0  0
 17 43  1  0  0  0  0
 17 44  1  0  0  0  0
 18 46  1  0  0  0  0
 18 47  1  0  0  0  0
 18 48  1  0  0  0  0
 19 21  1  0  0  0  0
 19 49  1  0  0  0  0
 19 50  1  0  0  0  0
 20 27  2  0  0  0  0
 20 28  1  0  0  0  0
 22 24  1  0  0  0  0
 22 51  1  0  0  0  0
 22 52  1  0  0  0  0
 23 25  1  0  0  0  0
 23 53  1  0  0  0  0
 23 54  1  0  0  0  0
 24 26  1  0  0  0  0
 24 55  1  0  0  0  0
 24 56  1  0  0  0  0
 25 26  1  0  0  0  0
 25 57  1  0  0  0  0
 25 58  1  0  0  0  0
 26 59  1  0  0  0  0
 27 29  1  0  0  0  0
 27 60  1  0  0  0  0
 28 30  2  0  0  0  0
 28 61  1  0  0  0  0
 29 31  2  0  0  0  0
 30 31  1  0  0  0  0
 30 62  1  0  0  0  0
 31 64  1  0  0  0  0
M  END
> <PUBCHEM_COMPOUND_CID>
45361205

> <PUBCHEM_CONFORMER_RMSD>
1.4

> <PUBCHEM_CONFORMER_DIVERSEORDER>
1
28
33
85
46
77
68
57
62
8
64
7
20
80
61
38
42
82
9
88
3
78
25
60
75
90
2
51
16
21
56
94
63
70
65
73
11
29
44
54
59
50
30
71
81
86
58
45
52
37
22
15
76
41
67
12
18
39
89
87
93
84
24
48
95
55
13
5
23
79
10
53
43
74
83
32
47
17
14
49
35
6
34
91
4
40
19
92
66
72
69
31
27
26
36

> <PUBCHEM_MMFF94_PARTIAL_CHARGES>
33
1 -0.18
10 0.33
12 0.27
13 0.27
14 0.3
15 0.57
17 0.41
18 0.27
19 0.06
2 -0.57
20 -0.14
21 0.57
22 0.3
23 0.3
26 0.28
27 -0.15
28 -0.15
29 0.18
3 -0.57
30 -0.15
31 -0.15
4 -0.68
45 0.37
5 -0.81
6 -0.81
60 0.15
61 0.15
62 0.15
63 0.4
64 0.15
7 -0.73
8 -0.66
9 0.27

> <PUBCHEM_EFFECTIVE_ROTOR_COUNT>
8.6

> <PUBCHEM_PHARMACOPHORE_FEATURES>
11
1 2 acceptor
1 3 acceptor
1 4 acceptor
1 4 donor
1 5 cation
1 6 cation
1 7 donor
5 6 9 10 11 13 rings
6 20 27 28 29 30 31 rings
6 8 22 23 24 25 26 rings
7 5 7 9 10 12 14 15 rings

> <PUBCHEM_HEAVY_ATOM_COUNT>
31

> <PUBCHEM_ATOM_DEF_STEREO_COUNT>
3

> <PUBCHEM_ATOM_UDEF_STEREO_COUNT>
0

> <PUBCHEM_BOND_DEF_STEREO_COUNT>
0

> <PUBCHEM_BOND_UDEF_STEREO_COUNT>
0

> <PUBCHEM_ISOTOPIC_ATOM_COUNT>
0

> <PUBCHEM_COMPONENT_COUNT>
1

> <PUBCHEM_CACTVS_TAUTO_COUNT>
3

> <PUBCHEM_CONFORMER_ID>
02B4283500000001

> <PUBCHEM_MMFF94_ENERGY>
77.74

> <PUBCHEM_FEATURE_SELFOVERLAP>
55.858

> <PUBCHEM_SHAPE_FINGERPRINT>
10042902 136 18409449172140671812
10391435 84 18339629097224016448
10622 236 18408598141550987762
10838868 217 11311240675852350699
10928967 22 17767693024674973815
11285246 1 17968095373634581515
11315621 136 18334576888580931582
11497681 19 18411703176047812740
117089 54 18264213693834356459
12422481 6 17489584545914019086
12633257 1 15769488850190502141
1361 4 18341332189544435166
13690498 29 17968092002502050221
13782708 43 18131626764593965060
14068700 675 18409165502768131584
14211702 104 18202290165092889158
14251764 30 18410853291475885951
14289585 56 17240757337912642205
14420673 8 18412826919849664219
15001296 14 18335411361992971074
15183329 4 18408319977851832634
15728490 83 18410018745361340907
17909252 39 18341048622380075122
20775438 99 17828477308048060106
20775530 9 18338783598589061511
21223535 225 15430309200887909101
21424621 283 9871742503763156660
21585480 29 17485904626530105822
23379529 103 18409164428640834855
23559900 14 18272358776655715744
2838139 119 8358253743979947672
373842 8 18413109459150609471
439807 62 18410858802335761991
4435113 14 17916032244040207526
463206 1 18408889503288875328
5326457 24 18340208484170039326
563151 248 18055655940148784305
7970288 3 18338795723392365111

> <PUBCHEM_SHAPE_MULTIPOLES>
602.3
17.25
5.4
1.3
2.43
3.64
-0.09
20.94
2.92
-2.79
0.5
0.09
-1
-0.37

> <PUBCHEM_SHAPE_SELFOVERLAP>
1254.482

> <PUBCHEM_SHAPE_VOLUME>
341

> <PUBCHEM_COORDINATE_TYPE>
2
5
10

$$$$
