11865816
  -OEChem-12032416123D

 52 52  0     1  0  0  0  0  0999 V2000
   -3.2494    3.6511    0.1664 S   0  0  0  0  0  0  0  0  0  0  0  0
   -2.1096   -0.3338    1.4305 O   0  0  0  0  0  0  0  0  0  0  0  0
   -2.1943    1.1645   -1.8058 O   0  0  0  0  0  0  0  0  0  0  0  0
    3.6468   -0.9032    1.4870 O   0  0  0  0  0  0  0  0  0  0  0  0
   -4.1145   -1.9028   -0.8055 O   0  0  0  0  0  0  0  0  0  0  0  0
   -0.7390    1.3654   -0.0169 N   0  0  0  0  0  0  0  0  0  0  0  0
    2.1633    0.1912    0.0753 N   0  0  0  0  0  0  0  0  0  0  0  0
   -1.5020   -2.1517    0.1154 N   0  0  0  0  0  0  0  0  0  0  0  0
    4.3911    0.0733   -0.4816 N   0  0  0  0  0  0  0  0  0  0  0  0
   -4.5181   -4.0967   -0.2490 N   0  0  0  0  0  0  0  0  0  0  0  0
    0.9711   -0.0232    0.8607 C   0  0  2  0  0  0  0  0  0  0  0  0
   -0.2757   -0.0186   -0.0238 C   0  0  1  0  0  0  0  0  0  0  0  0
    0.7257    1.1374    1.8287 C   0  0  0  0  0  0  0  0  0  0  0  0
   -0.0365    2.1555    0.9905 C   0  0  0  0  0  0  0  0  0  0  0  0
   -1.3776   -0.8404    0.5760 C   0  0  0  0  0  0  0  0  0  0  0  0
   -1.6173    1.8607   -0.9687 C   0  0  0  0  0  0  0  0  0  0  0  0
    3.4208   -0.2711    0.4560 C   0  0  0  0  0  0  0  0  0  0  0  0
   -1.8519    3.3497   -0.9248 C   0  0  0  0  0  0  0  0  0  0  0  0
   -2.5309   -3.0606    0.6142 C   0  0  0  0  0  0  0  0  0  0  0  0
   -0.6144   -2.7099   -0.8965 C   0  0  0  0  0  0  0  0  0  0  0  0
    5.7828   -0.2824   -0.3345 C   0  0  0  0  0  0  0  0  0  0  0  0
   -3.7762   -2.9351   -0.2331 C   0  0  0  0  0  0  0  0  0  0  0  0
    6.0503   -1.6559   -0.9373 C   0  0  0  0  0  0  0  0  0  0  0  0
    6.6708    0.7808   -0.9677 C   0  0  0  0  0  0  0  0  0  0  0  0
   -3.3151    5.4557    0.0445 C   0  0  0  0  0  0  0  0  0  0  0  0
    1.0901   -0.9628    1.4122 H   0  0  0  0  0  0  0  0  0  0  0  0
   -0.0819   -0.2922   -1.0645 H   0  0  0  0  0  0  0  0  0  0  0  0
    1.6393    1.5587    2.2594 H   0  0  0  0  0  0  0  0  0  0  0  0
    0.0902    0.7985    2.6559 H   0  0  0  0  0  0  0  0  0  0  0  0
    0.6583    2.8272    0.4747 H   0  0  0  0  0  0  0  0  0  0  0  0
   -0.7324    2.7470    1.5899 H   0  0  0  0  0  0  0  0  0  0  0  0
    2.0968    0.7666   -0.7590 H   0  0  0  0  0  0  0  0  0  0  0  0
   -2.0974    3.6839   -1.9386 H   0  0  0  0  0  0  0  0  0  0  0  0
   -0.9678    3.9034   -0.6037 H   0  0  0  0  0  0  0  0  0  0  0  0
   -2.1515   -4.0866    0.6418 H   0  0  0  0  0  0  0  0  0  0  0  0
   -2.8029   -2.7704    1.6353 H   0  0  0  0  0  0  0  0  0  0  0  0
    0.4207   -2.4100   -0.7152 H   0  0  0  0  0  0  0  0  0  0  0  0
   -0.6517   -3.8031   -0.8913 H   0  0  0  0  0  0  0  0  0  0  0  0
   -0.9354   -2.3466   -1.8773 H   0  0  0  0  0  0  0  0  0  0  0  0
    4.0934    0.5288   -1.3392 H   0  0  0  0  0  0  0  0  0  0  0  0
    6.0114   -0.3282    0.7372 H   0  0  0  0  0  0  0  0  0  0  0  0
    5.8177   -1.6712   -2.0080 H   0  0  0  0  0  0  0  0  0  0  0  0
    7.1000   -1.9410   -0.8118 H   0  0  0  0  0  0  0  0  0  0  0  0
    5.4329   -2.4222   -0.4561 H   0  0  0  0  0  0  0  0  0  0  0  0
    6.4856    1.7612   -0.5150 H   0  0  0  0  0  0  0  0  0  0  0  0
    6.4780    0.8727   -2.0425 H   0  0  0  0  0  0  0  0  0  0  0  0
    7.7299    0.5392   -0.8308 H   0  0  0  0  0  0  0  0  0  0  0  0
   -3.4914    5.7608   -0.9902 H   0  0  0  0  0  0  0  0  0  0  0  0
   -4.1362    5.8287    0.6623 H   0  0  0  0  0  0  0  0  0  0  0  0
   -2.3813    5.8951    0.4048 H   0  0  0  0  0  0  0  0  0  0  0  0
   -4.2318   -4.9344    0.2475 H   0  0  0  0  0  0  0  0  0  0  0  0
   -5.3882   -4.1513   -0.7681 H   0  0  0  0  0  0  0  0  0  0  0  0
  1 18  1  0  0  0  0
  1 25  1  0  0  0  0
  2 15  2  0  0  0  0
  3 16  2  0  0  0  0
  4 17  2  0  0  0  0
  5 22  2  0  0  0  0
  6 12  1  0  0  0  0
  6 14  1  0  0  0  0
  6 16  1  0  0  0  0
  7 11  1  0  0  0  0
  7 17  1  0  0  0  0
  7 32  1  0  0  0  0
  8 15  1  0  0  0  0
  8 19  1  0  0  0  0
  8 20  1  0  0  0  0
  9 17  1  0  0  0  0
  9 21  1  0  0  0  0
  9 40  1  0  0  0  0
 10 22  1  0  0  0  0
 10 51  1  0  0  0  0
 10 52  1  0  0  0  0
 11 12  1  0  0  0  0
 11 13  1  0  0  0  0
 11 26  1  0  0  0  0
 12 15  1  0  0  0  0
 12 27  1  0  0  0  0
 13 14  1  0  0  0  0
 13 28  1  0  0  0  0
 13 29  1  0  0  0  0
 14 30  1  0  0  0  0
 14 31  1  0  0  0  0
 16 18  1  0  0  0  0
 18 33  1  0  0  0  0
 18 34  1  0  0  0  0
 19 22  1  0  0  0  0
 19 35  1  0  0  0  0
 19 36  1  0  0  0  0
 20 37  1  0  0  0  0
 20 38  1  0  0  0  0
 20 39  1  0  0  0  0
 21 23  1  0  0  0  0
 21 24  1  0  0  0  0
 21 41  1  0  0  0  0
 23 42  1  0  0  0  0
 23 43  1  0  0  0  0
 23 44  1  0  0  0  0
 24 45  1  0  0  0  0
 24 46  1  0  0  0  0
 24 47  1  0  0  0  0
 25 48  1  0  0  0  0
 25 49  1  0  0  0  0
 25 50  1  0  0  0  0
M  END
> <PUBCHEM_COMPOUND_CID>
11865816

> <PUBCHEM_CONFORMER_RMSD>
1

> <PUBCHEM_CONFORMER_DIVERSEORDER>
1
83
76
18
87
43
70
86
66
72
21
60
78
19
54
89
37
64
74
51
24
58
65
77
80
82
49
48
88
62
27
68
69
84
4
29
15
79
28
40
67
61
73
42
46
52
9
50
30
81
57
47
71
31
35
17
39
6
56
16
32
8
59
85
33
25
53
26
38
22
10
44
34
36
20
23
75
41
14
5
13
45
7
3
63
55
11
2
12

> <PUBCHEM_MMFF94_PARTIAL_CHARGES>
26
1 -0.46
10 -0.8
11 0.3
12 0.36
14 0.3
15 0.57
16 0.57
17 0.69
18 0.29
19 0.36
2 -0.57
20 0.3
21 0.3
22 0.57
25 0.23
3 -0.57
32 0.37
4 -0.57
40 0.37
5 -0.57
51 0.37
52 0.37
6 -0.66
7 -0.73
8 -0.66
9 -0.73

> <PUBCHEM_EFFECTIVE_ROTOR_COUNT>
12

> <PUBCHEM_PHARMACOPHORE_FEATURES>
10
1 10 donor
1 2 acceptor
1 25 hydrophobe
1 3 acceptor
1 4 acceptor
1 5 acceptor
1 7 donor
1 9 donor
3 21 23 24 hydrophobe
5 6 11 12 13 14 rings

> <PUBCHEM_HEAVY_ATOM_COUNT>
25

> <PUBCHEM_ATOM_DEF_STEREO_COUNT>
2

> <PUBCHEM_ATOM_UDEF_STEREO_COUNT>
0

> <PUBCHEM_BOND_DEF_STEREO_COUNT>
0

> <PUBCHEM_BOND_UDEF_STEREO_COUNT>
0

> <PUBCHEM_ISOTOPIC_ATOM_COUNT>
0

> <PUBCHEM_COMPONENT_COUNT>
1

> <PUBCHEM_CACTVS_TAUTO_COUNT>
6

> <PUBCHEM_CONFORMER_ID>
00B50ED800000001

> <PUBCHEM_MMFF94_ENERGY>
56.191

> <PUBCHEM_FEATURE_SELFOVERLAP>
50.798

> <PUBCHEM_SHAPE_FINGERPRINT>
105312 117 18265617576666138540
107951 10 18055068761984165541
11069576 57 16330453321603774390
12714826 92 18341607148823194626
12788726 201 18261103101902220722
12954195 1 18410851032222608167
13009979 54 18055650653165394323
13540713 4 18059561517367843848
13540713 5 17896025573716336138
13757389 114 18265063435432691900
14508225 48 18265329684802474757
14713325 29 18410293584180516703
14790565 3 17906732501456350721
15664445 248 17618509121790618012
15842332 3 17604693466535317410
15927050 60 18196091028299294767
17539 30 18411696599666905213
18785283 64 17325485506317189705
19427546 20 18409454682863371748
20600515 1 17982197769627996230
20871999 31 18409164424578073618
21120745 212 18335429022803877813
21426921 1 18408888438632818732
22182313 1 17986651835993232024
22849341 161 18120108414342257747
22907989 373 18335125488721563196
23598288 3 18187646843279501802
283562 15 18261110807215974394
3759504 43 18267864973727076700
4058900 60 17693383239264210473
497634 4 18059028271260184344
57262259 84 18411701010397754166
59554788 170 18196930191756689520
59755656 520 18192714440632080628
7237137 82 18260546740565287654
77188 2 18122627425330011237

> <PUBCHEM_SHAPE_MULTIPOLES>
469.96
11.31
5.71
1.32
24.16
1.87
0.17
-1.02
-3.75
-13.36
-0.78
0.18
0.24
0.08

> <PUBCHEM_SHAPE_SELFOVERLAP>
924.461

> <PUBCHEM_SHAPE_VOLUME>
284.6

> <PUBCHEM_COORDINATE_TYPE>
2
5
10

$$$$
