45783739
  -OEChem-12032416263D

 47 50  0     1  0  0  0  0  0999 V2000
    0.6055   -1.7576    1.8540 O   0  0  0  0  0  0  0  0  0  0  0  0
   -2.1280   -1.2550   -0.5506 N   0  0  1  0  0  0  0  0  0  0  0  0
   -3.1961    2.7892    0.2026 N   0  0  0  0  0  0  0  0  0  0  0  0
    0.8008   -0.8200   -0.1709 N   0  0  0  0  0  0  0  0  0  0  0  0
    1.8748   -1.1665    1.8192 N   0  0  0  0  0  0  0  0  0  0  0  0
    4.0458    1.7885   -1.2806 N   0  0  0  0  0  0  0  0  0  0  0  0
    1.7005    1.4798   -1.3189 N   0  0  0  0  0  0  0  0  0  0  0  0
    5.4383    0.4163    0.1284 N   0  0  0  0  0  0  0  0  0  0  0  0
   -2.8051   -0.1068    0.0476 C   0  0  0  0  0  0  0  0  0  0  0  0
   -1.3564   -2.0495    0.4259 C   0  0  1  0  0  0  0  0  0  0  0  0
   -3.0681   -2.1793   -1.1849 C   0  0  0  0  0  0  0  0  0  0  0  0
   -3.5737    0.6720   -1.0228 C   0  0  0  0  0  0  0  0  0  0  0  0
   -1.8036    0.8167    0.7474 C   0  0  0  0  0  0  0  0  0  0  0  0
   -1.3566   -3.4794   -0.1458 C   0  0  0  0  0  0  0  0  0  0  0  0
   -2.2021   -3.4024   -1.4091 C   0  0  0  0  0  0  0  0  0  0  0  0
   -4.2083    1.9344   -0.4333 C   0  0  0  0  0  0  0  0  0  0  0  0
   -2.4958    2.0744    1.2789 C   0  0  0  0  0  0  0  0  0  0  0  0
    0.0405   -1.5073    0.6437 C   0  0  0  0  0  0  0  0  0  0  0  0
   -3.8097    4.0136    0.7161 C   0  0  0  0  0  0  0  0  0  0  0  0
    1.9154   -0.6343    0.5941 C   0  0  0  0  0  0  0  0  0  0  0  0
    3.0539    0.0872    0.1035 C   0  0  0  0  0  0  0  0  0  0  0  0
    2.9745    1.1103   -0.8190 C   0  0  0  0  0  0  0  0  0  0  0  0
    4.3242   -0.2197    0.5468 C   0  0  0  0  0  0  0  0  0  0  0  0
    5.2293    1.3954   -0.7723 C   0  0  0  0  0  0  0  0  0  0  0  0
   -3.5278   -0.4539    0.8008 H   0  0  0  0  0  0  0  0  0  0  0  0
   -1.8751   -2.0821    1.3948 H   0  0  0  0  0  0  0  0  0  0  0  0
   -3.9115   -2.4277   -0.5283 H   0  0  0  0  0  0  0  0  0  0  0  0
   -3.4505   -1.8133   -2.1424 H   0  0  0  0  0  0  0  0  0  0  0  0
   -2.9032    0.9534   -1.8462 H   0  0  0  0  0  0  0  0  0  0  0  0
   -4.3815    0.0709   -1.4551 H   0  0  0  0  0  0  0  0  0  0  0  0
   -1.0094    1.1237    0.0563 H   0  0  0  0  0  0  0  0  0  0  0  0
   -1.3453    0.3372    1.6170 H   0  0  0  0  0  0  0  0  0  0  0  0
   -1.8290   -4.1628    0.5704 H   0  0  0  0  0  0  0  0  0  0  0  0
   -0.3567   -3.8665   -0.3699 H   0  0  0  0  0  0  0  0  0  0  0  0
   -2.7910   -4.3105   -1.5683 H   0  0  0  0  0  0  0  0  0  0  0  0
   -1.5540   -3.2586   -2.2826 H   0  0  0  0  0  0  0  0  0  0  0  0
   -4.6967    2.4828   -1.2481 H   0  0  0  0  0  0  0  0  0  0  0  0
   -4.9902    1.6534    0.2847 H   0  0  0  0  0  0  0  0  0  0  0  0
   -3.1917    1.8010    2.0833 H   0  0  0  0  0  0  0  0  0  0  0  0
   -1.7302    2.7256    1.7184 H   0  0  0  0  0  0  0  0  0  0  0  0
   -4.2890    4.5732   -0.0948 H   0  0  0  0  0  0  0  0  0  0  0  0
   -4.5625    3.8085    1.4859 H   0  0  0  0  0  0  0  0  0  0  0  0
   -3.0486    4.6746    1.1454 H   0  0  0  0  0  0  0  0  0  0  0  0
    4.5136   -1.0100    1.2673 H   0  0  0  0  0  0  0  0  0  0  0  0
    0.9931    0.7636   -1.4232 H   0  0  0  0  0  0  0  0  0  0  0  0
    1.6858    2.2437   -1.9842 H   0  0  0  0  0  0  0  0  0  0  0  0
    6.1067    1.9230   -1.1256 H   0  0  0  0  0  0  0  0  0  0  0  0
  1  5  1  0  0  0  0
  1 18  1  0  0  0  0
  2  9  1  0  0  0  0
  2 10  1  0  0  0  0
  2 11  1  0  0  0  0
  3 16  1  0  0  0  0
  3 17  1  0  0  0  0
  3 19  1  0  0  0  0
  4 18  2  0  0  0  0
  4 20  1  0  0  0  0
  5 20  2  0  0  0  0
  6 22  2  0  0  0  0
  6 24  1  0  0  0  0
  7 22  1  0  0  0  0
  7 45  1  0  0  0  0
  7 46  1  0  0  0  0
  8 23  1  0  0  0  0
  8 24  2  0  0  0  0
  9 12  1  0  0  0  0
  9 13  1  0  0  0  0
  9 25  1  0  0  0  0
 10 14  1  0  0  0  0
 10 18  1  0  0  0  0
 10 26  1  0  0  0  0
 11 15  1  0  0  0  0
 11 27  1  0  0  0  0
 11 28  1  0  0  0  0
 12 16  1  0  0  0  0
 12 29  1  0  0  0  0
 12 30  1  0  0  0  0
 13 17  1  0  0  0  0
 13 31  1  0  0  0  0
 13 32  1  0  0  0  0
 14 15  1  0  0  0  0
 14 33  1  0  0  0  0
 14 34  1  0  0  0  0
 15 35  1  0  0  0  0
 15 36  1  0  0  0  0
 16 37  1  0  0  0  0
 16 38  1  0  0  0  0
 17 39  1  0  0  0  0
 17 40  1  0  0  0  0
 19 41  1  0  0  0  0
 19 42  1  0  0  0  0
 19 43  1  0  0  0  0
 20 21  1  0  0  0  0
 21 22  1  0  0  0  0
 21 23  2  0  0  0  0
 23 44  1  0  0  0  0
 24 47  1  0  0  0  0
M  END
> <PUBCHEM_COMPOUND_CID>
45783739

> <PUBCHEM_CONFORMER_RMSD>
0.8

> <PUBCHEM_CONFORMER_DIVERSEORDER>
1
32
75
22
73
21
66
30
70
27
74
3
42
41
49
19
12
58
55
26
28
33
46
67
43
65
50
6
62
68
14
37
10
54
9
52
71
31
29
16
56
63
18
64
35
72
36
17
23
51
61
34
24
53
15
44
7
59
38
2
40
48
11
8
57
45
47
60
4
39
69
5
20
25
13

> <PUBCHEM_MMFF94_PARTIAL_CHARGES>
24
1 -0.02
10 0.45
11 0.27
16 0.27
17 0.27
18 0.3
19 0.27
2 -0.81
20 0.46
21 0.05
22 0.41
23 0.16
24 0.47
3 -0.81
4 -0.57
44 0.15
45 0.4
46 0.4
47 0.15
5 -0.41
6 -0.62
7 -0.9
8 -0.62
9 0.27

> <PUBCHEM_EFFECTIVE_ROTOR_COUNT>
5.2

> <PUBCHEM_PHARMACOPHORE_FEATURES>
10
1 2 cation
1 3 cation
1 7 donor
3 4 5 20 cation
3 6 7 22 cation
3 6 8 24 cation
5 1 4 5 18 20 rings
5 2 10 11 14 15 rings
6 3 9 12 13 16 17 rings
6 6 8 21 22 23 24 rings

> <PUBCHEM_HEAVY_ATOM_COUNT>
24

> <PUBCHEM_ATOM_DEF_STEREO_COUNT>
1

> <PUBCHEM_ATOM_UDEF_STEREO_COUNT>
0

> <PUBCHEM_BOND_DEF_STEREO_COUNT>
0

> <PUBCHEM_BOND_UDEF_STEREO_COUNT>
0

> <PUBCHEM_ISOTOPIC_ATOM_COUNT>
0

> <PUBCHEM_COMPONENT_COUNT>
1

> <PUBCHEM_CACTVS_TAUTO_COUNT>
11

> <PUBCHEM_CONFORMER_ID>
02BA9ABB00000001

> <PUBCHEM_MMFF94_ENERGY>
48.1565

> <PUBCHEM_FEATURE_SELFOVERLAP>
50.886

> <PUBCHEM_SHAPE_FINGERPRINT>
10382601 240 17751645338248797776
10871710 139 18335704970394749941
10937287 8 18197783193842480873
11049842 53 18127678358225800338
11370993 144 14129328555854301428
11477941 20 17841713216587401308
11640471 11 18334292024737861329
12107183 9 18192141604323457050
12173636 292 18342446020418420759
12788726 201 18339067302875734683
13583140 156 13407344244575670836
13965767 371 17899421887345206549
14142880 1 18187364333489946477
14187579 7 18195816395253147980
14251751 93 18408609179352733174
14251764 38 18196931291633256472
14251764 75 18126297337219488009
14294032 229 18272095981155705337
14739800 52 18196910340951072600
14767858 380 18269535214511919205
15064981 113 18201996599967610532
15163728 17 18056768637236344357
15463212 79 18408878538327065395
15534591 1 18335421278919677923
15842332 3 18189030076025900682
16752209 62 18270101509648985143
16988056 13 16682319513961082765
16994733 274 15576366187504087951
17818456 19 18269543945774308306
18785283 64 17764316037876656259
20775438 99 15964809673315042630
21033650 10 18265920084419171708
22907989 373 18341315786947897959
235170 7 17417262068685007700
23557571 272 18059012911919238806
23559900 14 18060421292674348498
266924 1 18261658350900340635
312425 83 18198366081429333676
3610482 184 18117299101834897708
38570 142 17896340064074625428
4169191 19 17170398675068272580
46194498 28 14979085047913391897
474 4 18040433256968960704
5048184 11 18337956692529966489
5895379 119 18410852200955145200
6328613 192 18113911485578591708
633830 44 17822015311425606522
7808743 9 18341048536602171449

> <PUBCHEM_SHAPE_MULTIPOLES>
453.17
9.65
4.17
1.39
10.36
0.06
-0.16
-7.33
2.11
-6.25
0.26
0.2
0.23
-2.35

> <PUBCHEM_SHAPE_SELFOVERLAP>
972.389

> <PUBCHEM_SHAPE_VOLUME>
250.4

> <PUBCHEM_COORDINATE_TYPE>
2
5
10

$$$$
