7113393
  -OEChem-12032416233D

 79 82  0     1  0  0  0  0  0999 V2000
    0.2788    3.9948    1.1670 S   0  0  0  0  0  0  0  0  0  0  0  0
    1.6909    3.8087    1.4264 O   0  0  0  0  0  0  0  0  0  0  0  0
   -0.5614    4.7149    2.1003 O   0  0  0  0  0  0  0  0  0  0  0  0
    0.2634    0.3663    2.2645 O   0  0  0  0  0  0  0  0  0  0  0  0
   -1.4571   -1.8896   -1.5244 O   0  0  0  0  0  0  0  0  0  0  0  0
    5.1256   -1.0442    2.9292 O   0  0  0  0  0  0  0  0  0  0  0  0
    4.9633    0.4678    1.2042 O   0  0  0  0  0  0  0  0  0  0  0  0
    4.4856   -4.0663   -3.2972 O   0  0  0  0  0  0  0  0  0  0  0  0
   -0.4333    2.4769    0.8344 N   0  0  2  0  0  0  0  0  0  0  0  0
   -1.6267    0.1608   -0.4122 N   0  0  0  0  0  0  0  0  0  0  0  0
    2.2312    0.1700    1.0366 N   0  0  0  0  0  0  0  0  0  0  0  0
   -7.2899   -2.6842    0.7684 N   0  0  0  0  0  0  0  0  0  0  0  0
    0.4247    1.4665    0.1558 C   0  0  2  0  0  0  0  0  0  0  0  0
   -0.3261    0.6385   -0.8829 C   0  0  0  0  0  0  0  0  0  0  0  0
   -1.8496    2.5014    0.3853 C   0  0  0  0  0  0  0  0  0  0  0  0
   -2.4081    1.0858    0.4161 C   0  0  0  0  0  0  0  0  0  0  0  0
    0.9391    0.6094    1.2682 C   0  0  0  0  0  0  0  0  0  0  0  0
   -2.0869   -1.0925   -0.8309 C   0  0  0  0  0  0  0  0  0  0  0  0
    0.1182    4.7648   -0.4137 C   0  0  0  0  0  0  0  0  0  0  0  0
    2.9648   -0.6547    1.9695 C   0  0  1  0  0  0  0  0  0  0  0  0
   -3.4368   -1.5047   -0.4158 C   0  0  0  0  0  0  0  0  0  0  0  0
    2.7008   -2.1474    1.7227 C   0  0  0  0  0  0  0  0  0  0  0  0
    1.1334    4.6319   -1.3608 C   0  0  0  0  0  0  0  0  0  0  0  0
   -1.0249    5.5048   -0.7158 C   0  0  0  0  0  0  0  0  0  0  0  0
    4.4533   -0.3327    1.9815 C   0  0  0  0  0  0  0  0  0  0  0  0
   -3.6163   -2.2028    0.7785 C   0  0  0  0  0  0  0  0  0  0  0  0
   -4.5369   -1.1982   -1.2166 C   0  0  0  0  0  0  0  0  0  0  0  0
    3.1769   -2.6598    0.3821 C   0  0  0  0  0  0  0  0  0  0  0  0
    1.0058    5.2391   -2.6101 C   0  0  0  0  0  0  0  0  0  0  0  0
   -1.1527    6.1120   -1.9652 C   0  0  0  0  0  0  0  0  0  0  0  0
   -0.1374    5.9791   -2.9123 C   0  0  0  0  0  0  0  0  0  0  0  0
   -4.8960   -2.5940    1.1719 C   0  0  0  0  0  0  0  0  0  0  0  0
   -5.8166   -1.5893   -0.8233 C   0  0  0  0  0  0  0  0  0  0  0  0
   -5.9962   -2.2873    0.3711 C   0  0  0  0  0  0  0  0  0  0  0  0
    4.4698   -3.1660    0.2488 C   0  0  0  0  0  0  0  0  0  0  0  0
    2.3238   -2.6265   -0.7211 C   0  0  0  0  0  0  0  0  0  0  0  0
    4.9097   -3.6388   -0.9876 C   0  0  0  0  0  0  0  0  0  0  0  0
    2.7636   -3.0992   -1.9573 C   0  0  0  0  0  0  0  0  0  0  0  0
    4.0565   -3.6055   -2.0906 C   0  0  0  0  0  0  0  0  0  0  0  0
    6.5366   -0.8142    2.9943 C   0  0  0  0  0  0  0  0  0  0  0  0
   -7.4853   -3.4219    2.0007 C   0  0  0  0  0  0  0  0  0  0  0  0
   -8.4395   -2.3716   -0.0572 C   0  0  0  0  0  0  0  0  0  0  0  0
    3.5619   -4.0019   -4.3828 C   0  0  0  0  0  0  0  0  0  0  0  0
    1.2640    1.9513   -0.3518 H   0  0  0  0  0  0  0  0  0  0  0  0
   -0.5310    1.2538   -1.7683 H   0  0  0  0  0  0  0  0  0  0  0  0
    0.2825   -0.2044   -1.2242 H   0  0  0  0  0  0  0  0  0  0  0  0
   -1.9262    2.8965   -0.6323 H   0  0  0  0  0  0  0  0  0  0  0  0
   -2.4456    3.1297    1.0549 H   0  0  0  0  0  0  0  0  0  0  0  0
   -2.4001    0.6880    1.4376 H   0  0  0  0  0  0  0  0  0  0  0  0
   -3.4470    1.0972    0.0737 H   0  0  0  0  0  0  0  0  0  0  0  0
    2.6910    0.4150    0.1644 H   0  0  0  0  0  0  0  0  0  0  0  0
    2.5963   -0.4030    2.9727 H   0  0  0  0  0  0  0  0  0  0  0  0
    3.1709   -2.7473    2.5134 H   0  0  0  0  0  0  0  0  0  0  0  0
    1.6248   -2.3501    1.8130 H   0  0  0  0  0  0  0  0  0  0  0  0
    2.0345    4.0640   -1.1487 H   0  0  0  0  0  0  0  0  0  0  0  0
   -1.8292    5.6202    0.0050 H   0  0  0  0  0  0  0  0  0  0  0  0
   -2.7652   -2.4457    1.4094 H   0  0  0  0  0  0  0  0  0  0  0  0
   -4.4071   -0.6545   -2.1489 H   0  0  0  0  0  0  0  0  0  0  0  0
    1.7964    5.1362   -3.3475 H   0  0  0  0  0  0  0  0  0  0  0  0
   -2.0431    6.6875   -2.2009 H   0  0  0  0  0  0  0  0  0  0  0  0
   -0.2369    6.4516   -3.8850 H   0  0  0  0  0  0  0  0  0  0  0  0
   -4.9831   -3.1344    2.1093 H   0  0  0  0  0  0  0  0  0  0  0  0
   -6.6394   -1.3271   -1.4809 H   0  0  0  0  0  0  0  0  0  0  0  0
    5.1440   -3.2060    1.0996 H   0  0  0  0  0  0  0  0  0  0  0  0
    1.3115   -2.2459   -0.6255 H   0  0  0  0  0  0  0  0  0  0  0  0
    5.9174   -4.0333   -1.0850 H   0  0  0  0  0  0  0  0  0  0  0  0
    2.0485   -3.0460   -2.7711 H   0  0  0  0  0  0  0  0  0  0  0  0
    6.7387    0.2330    3.2386 H   0  0  0  0  0  0  0  0  0  0  0  0
    7.0091   -1.0890    2.0465 H   0  0  0  0  0  0  0  0  0  0  0  0
    6.9474   -1.4452    3.7868 H   0  0  0  0  0  0  0  0  0  0  0  0
   -6.9512   -4.3785    1.9785 H   0  0  0  0  0  0  0  0  0  0  0  0
   -7.1575   -2.8379    2.8679 H   0  0  0  0  0  0  0  0  0  0  0  0
   -8.5420   -3.6593    2.1673 H   0  0  0  0  0  0  0  0  0  0  0  0
   -8.5603   -1.2889   -0.1743 H   0  0  0  0  0  0  0  0  0  0  0  0
   -8.3576   -2.8412   -1.0437 H   0  0  0  0  0  0  0  0  0  0  0  0
   -9.3701   -2.7415    0.3877 H   0  0  0  0  0  0  0  0  0  0  0  0
    4.0694   -4.4085   -5.2636 H   0  0  0  0  0  0  0  0  0  0  0  0
    3.2903   -2.9675   -4.6194 H   0  0  0  0  0  0  0  0  0  0  0  0
    2.6834   -4.6306   -4.2014 H   0  0  0  0  0  0  0  0  0  0  0  0
  1  2  2  0  0  0  0
  1  3  2  0  0  0  0
  1  9  1  0  0  0  0
  1 19  1  0  0  0  0
  4 17  2  0  0  0  0
  5 18  2  0  0  0  0
  6 25  1  0  0  0  0
  6 40  1  0  0  0  0
  7 25  2  0  0  0  0
  8 39  1  0  0  0  0
  8 43  1  0  0  0  0
  9 13  1  0  0  0  0
  9 15  1  0  0  0  0
 10 14  1  0  0  0  0
 10 16  1  0  0  0  0
 10 18  1  0  0  0  0
 11 17  1  0  0  0  0
 11 20  1  0  0  0  0
 11 51  1  0  0  0  0
 12 34  1  0  0  0  0
 12 41  1  0  0  0  0
 12 42  1  0  0  0  0
 13 14  1  0  0  0  0
 13 17  1  0  0  0  0
 13 44  1  0  0  0  0
 14 45  1  0  0  0  0
 14 46  1  0  0  0  0
 15 16  1  0  0  0  0
 15 47  1  0  0  0  0
 15 48  1  0  0  0  0
 16 49  1  0  0  0  0
 16 50  1  0  0  0  0
 18 21  1  0  0  0  0
 19 23  2  0  0  0  0
 19 24  1  0  0  0  0
 20 22  1  0  0  0  0
 20 25  1  0  0  0  0
 20 52  1  0  0  0  0
 21 26  2  0  0  0  0
 21 27  1  0  0  0  0
 22 28  1  0  0  0  0
 22 53  1  0  0  0  0
 22 54  1  0  0  0  0
 23 29  1  0  0  0  0
 23 55  1  0  0  0  0
 24 30  2  0  0  0  0
 24 56  1  0  0  0  0
 26 32  1  0  0  0  0
 26 57  1  0  0  0  0
 27 33  2  0  0  0  0
 27 58  1  0  0  0  0
 28 35  2  0  0  0  0
 28 36  1  0  0  0  0
 29 31  2  0  0  0  0
 29 59  1  0  0  0  0
 30 31  1  0  0  0  0
 30 60  1  0  0  0  0
 31 61  1  0  0  0  0
 32 34  2  0  0  0  0
 32 62  1  0  0  0  0
 33 34  1  0  0  0  0
 33 63  1  0  0  0  0
 35 37  1  0  0  0  0
 35 64  1  0  0  0  0
 36 38  2  0  0  0  0
 36 65  1  0  0  0  0
 37 39  2  0  0  0  0
 37 66  1  0  0  0  0
 38 39  1  0  0  0  0
 38 67  1  0  0  0  0
 40 68  1  0  0  0  0
 40 69  1  0  0  0  0
 40 70  1  0  0  0  0
 41 71  1  0  0  0  0
 41 72  1  0  0  0  0
 41 73  1  0  0  0  0
 42 74  1  0  0  0  0
 42 75  1  0  0  0  0
 42 76  1  0  0  0  0
 43 77  1  0  0  0  0
 43 78  1  0  0  0  0
 43 79  1  0  0  0  0
M  END
> <PUBCHEM_COMPOUND_CID>
7113393

> <PUBCHEM_CONFORMER_RMSD>
1.4

> <PUBCHEM_CONFORMER_DIVERSEORDER>
1
32
76
30
58
86
11
69
2
67
85
89
51
68
66
49
28
83
60
77
42
56
34
25
54
84
18
87
73
61
57
41
50
55
82
46
12
74
80
52
79
48
26
17
8
72
88
19
31
63
38
53
7
65
44
22
35
27
43
62
15
9
16
45
78
47
64
21
37
40
4
13
3
70
36
23
71
39
59
24
14
5
20
29
33
81
6
75
10

> <PUBCHEM_MMFF94_PARTIAL_CHARGES>
57
1 1.45
10 -0.66
11 -0.73
12 -0.84
13 0.42
14 0.3
15 0.36
16 0.3
17 0.57
18 0.54
19 -0.01
2 -0.65
20 0.36
21 0.09
22 0.14
23 -0.15
24 -0.15
25 0.66
26 -0.15
27 -0.15
28 -0.14
29 -0.15
3 -0.65
30 -0.15
31 -0.15
32 -0.15
33 -0.15
34 0.1
35 -0.15
36 -0.15
37 -0.15
38 -0.15
39 0.08
4 -0.57
40 0.28
41 0.37
42 0.37
43 0.28
5 -0.57
51 0.37
55 0.15
56 0.15
57 0.15
58 0.15
59 0.15
6 -0.43
60 0.15
61 0.15
62 0.15
63 0.15
64 0.15
65 0.15
66 0.15
67 0.15
7 -0.57
8 -0.36
9 -0.85

> <PUBCHEM_EFFECTIVE_ROTOR_COUNT>
14.2

> <PUBCHEM_PHARMACOPHORE_FEATURES>
12
1 11 donor
1 12 cation
1 2 acceptor
1 3 acceptor
1 4 acceptor
1 5 acceptor
1 7 acceptor
1 8 acceptor
6 19 23 24 29 30 31 rings
6 21 26 27 32 33 34 rings
6 28 35 36 37 38 39 rings
6 9 10 13 14 15 16 rings

> <PUBCHEM_HEAVY_ATOM_COUNT>
43

> <PUBCHEM_ATOM_DEF_STEREO_COUNT>
2

> <PUBCHEM_ATOM_UDEF_STEREO_COUNT>
0

> <PUBCHEM_BOND_DEF_STEREO_COUNT>
0

> <PUBCHEM_BOND_UDEF_STEREO_COUNT>
0

> <PUBCHEM_ISOTOPIC_ATOM_COUNT>
0

> <PUBCHEM_COMPONENT_COUNT>
1

> <PUBCHEM_CACTVS_TAUTO_COUNT>
2

> <PUBCHEM_CONFORMER_ID>
006C8AB100000001

> <PUBCHEM_MMFF94_ENERGY>
132.2335

> <PUBCHEM_FEATURE_SELFOVERLAP>
60.918

> <PUBCHEM_SHAPE_FINGERPRINT>
10258939 38 18338496574846888850
10974685 15 18048601426469462130
11445158 3 17903336440644534140
11991303 11 17616548258765869093
131258 43 18269579198755058902
13785724 45 18272664432867774095
14918310 93 18201443631486802508
15001296 14 18265911159466763372
15484559 13 17972324177270563860
19301679 30 18342735195876387291
1979834 28 18059850709873550098
21716022 299 18265356030074210373
24771750 20 17756715500139951597
3388396 114 17901146068191608060
354706 132 17976276647132920774
4015057 19 16552808164369470232
4461854 278 17987789839240039042
44802255 64 17108761847714121228
6695519 79 16770942668496091050

> <PUBCHEM_SHAPE_MULTIPOLES>
827.76
14.56
10.03
3.34
22.53
19.12
1.87
-28.89
-5.38
-1.35
7.81
-5.93
-1.33
4.55

> <PUBCHEM_SHAPE_SELFOVERLAP>
1745.661

> <PUBCHEM_SHAPE_VOLUME>
466.5

> <PUBCHEM_COORDINATE_TYPE>
2
5
10

$$$$
