40776883
  -OEChem-12032416183D

 66 70  0     1  0  0  0  0  0999 V2000
    7.8912   -2.7109   -1.7733 F   0  0  0  0  0  0  0  0  0  0  0  0
   -3.2613    0.8940   -0.8249 O   0  0  0  0  0  0  0  0  0  0  0  0
   -3.3677   -0.7871   -2.3859 O   0  0  0  0  0  0  0  0  0  0  0  0
   -0.4874    3.3216   -1.3211 N   0  0  2  0  0  0  0  0  0  0  0  0
    1.2667    0.6458    1.9324 N   0  0  0  0  0  0  0  0  0  0  0  0
   -4.9371   -0.6158   -0.6857 N   0  0  0  0  0  0  0  0  0  0  0  0
    2.9454   -1.0684    1.7060 N   0  0  0  0  0  0  0  0  0  0  0  0
   -0.0618    3.0894    1.2378 C   0  0  2  0  0  0  0  0  0  0  0  0
    1.1647    2.5761    0.4338 C   0  0  2  0  0  0  0  0  0  0  0  0
   -1.6409    2.6431   -0.6735 C   0  0  2  0  0  0  0  0  0  0  0  0
   -1.3206    2.3113    0.8000 C   0  0  0  0  0  0  0  0  0  0  0  0
   -0.2753    4.5633    0.8316 C   0  0  0  0  0  0  0  0  0  0  0  0
    0.7596    2.5574   -1.0679 C   0  0  0  0  0  0  0  0  0  0  0  0
   -0.3427    4.6613   -0.7025 C   0  0  0  0  0  0  0  0  0  0  0  0
   -2.1004    1.4069   -1.4494 C   0  0  0  0  0  0  0  0  0  0  0  0
    1.8171    1.2727    0.8721 C   0  0  0  0  0  0  0  0  0  0  0  0
    2.9167    0.7980    0.1865 C   0  0  0  0  0  0  0  0  0  0  0  0
   -5.7467   -1.7629   -1.0321 C   0  0  0  0  0  0  0  0  0  0  0  0
    3.4444   -0.3887    0.6526 C   0  0  0  0  0  0  0  0  0  0  0  0
   -3.8182   -0.2270   -1.3918 C   0  0  0  0  0  0  0  0  0  0  0  0
    1.8722   -0.5026    2.2906 C   0  0  0  0  0  0  0  0  0  0  0  0
   -5.2082   -3.0365   -0.3718 C   0  0  0  0  0  0  0  0  0  0  0  0
   -7.2173   -1.5288   -0.6705 C   0  0  0  0  0  0  0  0  0  0  0  0
   -5.4545   -3.0623    1.1367 C   0  0  0  0  0  0  0  0  0  0  0  0
   -7.4602   -1.5569    0.8386 C   0  0  0  0  0  0  0  0  0  0  0  0
   -6.9261   -2.8384    1.4710 C   0  0  0  0  0  0  0  0  0  0  0  0
    4.5959   -0.9905    0.0238 C   0  0  0  0  0  0  0  0  0  0  0  0
    1.2934   -1.2239    3.4604 C   0  0  0  0  0  0  0  0  0  0  0  0
    4.5441   -1.3596   -1.3204 C   0  0  0  0  0  0  0  0  0  0  0  0
    5.7610   -1.2026    0.7608 C   0  0  0  0  0  0  0  0  0  0  0  0
    5.6572   -1.9409   -1.9275 C   0  0  0  0  0  0  0  0  0  0  0  0
    6.8742   -1.7839    0.1538 C   0  0  0  0  0  0  0  0  0  0  0  0
    6.8222   -2.1531   -1.1903 C   0  0  0  0  0  0  0  0  0  0  0  0
    0.0927    3.0095    2.3190 H   0  0  0  0  0  0  0  0  0  0  0  0
    1.9546    3.3331    0.5586 H   0  0  0  0  0  0  0  0  0  0  0  0
   -2.4958    3.3356   -0.6783 H   0  0  0  0  0  0  0  0  0  0  0  0
   -1.1672    1.2363    0.9465 H   0  0  0  0  0  0  0  0  0  0  0  0
   -2.1698    2.6011    1.4313 H   0  0  0  0  0  0  0  0  0  0  0  0
    0.5436    5.1869    1.2086 H   0  0  0  0  0  0  0  0  0  0  0  0
   -1.2034    4.9421    1.2766 H   0  0  0  0  0  0  0  0  0  0  0  0
    1.5702    2.9977   -1.6641 H   0  0  0  0  0  0  0  0  0  0  0  0
    0.6549    1.5355   -1.4500 H   0  0  0  0  0  0  0  0  0  0  0  0
   -1.1819    5.3029   -0.9982 H   0  0  0  0  0  0  0  0  0  0  0  0
    0.5564    5.1556   -1.0921 H   0  0  0  0  0  0  0  0  0  0  0  0
   -1.3286    0.6294   -1.4597 H   0  0  0  0  0  0  0  0  0  0  0  0
   -2.3362    1.6839   -2.4844 H   0  0  0  0  0  0  0  0  0  0  0  0
    3.3426    1.3314   -0.6552 H   0  0  0  0  0  0  0  0  0  0  0  0
   -5.6776   -1.8890   -2.1199 H   0  0  0  0  0  0  0  0  0  0  0  0
   -4.1344   -3.1466   -0.5656 H   0  0  0  0  0  0  0  0  0  0  0  0
   -5.7018   -3.9068   -0.8232 H   0  0  0  0  0  0  0  0  0  0  0  0
   -7.8285   -2.3100   -1.1402 H   0  0  0  0  0  0  0  0  0  0  0  0
   -7.5610   -0.5695   -1.0758 H   0  0  0  0  0  0  0  0  0  0  0  0
   -4.8467   -2.2903    1.6241 H   0  0  0  0  0  0  0  0  0  0  0  0
   -5.1282   -4.0258    1.5445 H   0  0  0  0  0  0  0  0  0  0  0  0
   -8.5352   -1.4736    1.0355 H   0  0  0  0  0  0  0  0  0  0  0  0
   -6.9873   -0.6888    1.3126 H   0  0  0  0  0  0  0  0  0  0  0  0
   -5.1712   -0.0850    0.1475 H   0  0  0  0  0  0  0  0  0  0  0  0
   -7.5142   -3.6929    1.1142 H   0  0  0  0  0  0  0  0  0  0  0  0
   -7.0551   -2.7948    2.5583 H   0  0  0  0  0  0  0  0  0  0  0  0
    1.7729   -0.8787    4.3810 H   0  0  0  0  0  0  0  0  0  0  0  0
    0.2169   -1.0413    3.5355 H   0  0  0  0  0  0  0  0  0  0  0  0
    1.4485   -2.3033    3.3671 H   0  0  0  0  0  0  0  0  0  0  0  0
    3.6439   -1.2078   -1.9115 H   0  0  0  0  0  0  0  0  0  0  0  0
    5.8221   -0.9182    1.8087 H   0  0  0  0  0  0  0  0  0  0  0  0
    5.6171   -2.2294   -2.9736 H   0  0  0  0  0  0  0  0  0  0  0  0
    7.7818   -1.9484    0.7270 H   0  0  0  0  0  0  0  0  0  0  0  0
  1 33  1  0  0  0  0
  2 15  1  0  0  0  0
  2 20  1  0  0  0  0
  3 20  2  0  0  0  0
  4 10  1  0  0  0  0
  4 13  1  0  0  0  0
  4 14  1  0  0  0  0
  5 16  2  0  0  0  0
  5 21  1  0  0  0  0
  6 18  1  0  0  0  0
  6 20  1  0  0  0  0
  6 57  1  0  0  0  0
  7 19  1  0  0  0  0
  7 21  2  0  0  0  0
  8  9  1  0  0  0  0
  8 11  1  0  0  0  0
  8 12  1  0  0  0  0
  8 34  1  0  0  0  0
  9 13  1  0  0  0  0
  9 16  1  0  0  0  0
  9 35  1  0  0  0  0
 10 11  1  0  0  0  0
 10 15  1  0  0  0  0
 10 36  1  0  0  0  0
 11 37  1  0  0  0  0
 11 38  1  0  0  0  0
 12 14  1  0  0  0  0
 12 39  1  0  0  0  0
 12 40  1  0  0  0  0
 13 41  1  0  0  0  0
 13 42  1  0  0  0  0
 14 43  1  0  0  0  0
 14 44  1  0  0  0  0
 15 45  1  0  0  0  0
 15 46  1  0  0  0  0
 16 17  1  0  0  0  0
 17 19  2  0  0  0  0
 17 47  1  0  0  0  0
 18 22  1  0  0  0  0
 18 23  1  0  0  0  0
 18 48  1  0  0  0  0
 19 27  1  0  0  0  0
 21 28  1  0  0  0  0
 22 24  1  0  0  0  0
 22 49  1  0  0  0  0
 22 50  1  0  0  0  0
 23 25  1  0  0  0  0
 23 51  1  0  0  0  0
 23 52  1  0  0  0  0
 24 26  1  0  0  0  0
 24 53  1  0  0  0  0
 24 54  1  0  0  0  0
 25 26  1  0  0  0  0
 25 55  1  0  0  0  0
 25 56  1  0  0  0  0
 26 58  1  0  0  0  0
 26 59  1  0  0  0  0
 27 29  2  0  0  0  0
 27 30  1  0  0  0  0
 28 60  1  0  0  0  0
 28 61  1  0  0  0  0
 28 62  1  0  0  0  0
 29 31  1  0  0  0  0
 29 63  1  0  0  0  0
 30 32  2  0  0  0  0
 30 64  1  0  0  0  0
 31 33  2  0  0  0  0
 31 65  1  0  0  0  0
 32 33  1  0  0  0  0
 32 66  1  0  0  0  0
M  END
> <PUBCHEM_COMPOUND_CID>
40776883

> <PUBCHEM_CONFORMER_RMSD>
1.2

> <PUBCHEM_CONFORMER_DIVERSEORDER>
1
13
40
112
100
118
58
44
24
102
124
96
35
30
72
101
2
49
77
86
117
83
56
107
3
45
25
46
38
90
109
87
52
89
70
10
80
23
88
76
50
69
63
71
33
62
66
51
78
119
32
59
97
34
127
39
64
74
73
11
126
68
128
55
17
60
12
27
94
42
47
28
85
6
26
57
104
121
43
99
125
61
31
9
116
98
16
4
41
84
21
129
53
103
91
19
5
108
122
115
7
111
79
114
22
110
105
67
81
8
37
82
20
120
54
92
65
18
29
95
14
48
75
106
123
36
113
15
93

> <PUBCHEM_MMFF94_PARTIAL_CHARGES>
30
1 -0.19
10 0.27
13 0.27
14 0.27
15 0.28
16 0.17
17 -0.15
18 0.3
19 0.31
2 -0.43
20 0.78
21 0.48
28 0.14
29 -0.15
3 -0.57
30 -0.15
31 -0.15
32 -0.15
33 0.19
4 -0.81
47 0.15
5 -0.62
57 0.37
6 -0.73
63 0.15
64 0.15
65 0.15
66 0.15
7 -0.62
9 0.14

> <PUBCHEM_EFFECTIVE_ROTOR_COUNT>
9.4

> <PUBCHEM_PHARMACOPHORE_FEATURES>
9
1 3 acceptor
1 4 cation
1 5 acceptor
1 6 donor
3 5 7 21 cation
6 18 22 23 24 25 26 rings
6 27 29 30 31 32 33 rings
6 5 7 16 17 19 21 rings
8 4 8 9 10 11 12 13 14 rings

> <PUBCHEM_HEAVY_ATOM_COUNT>
33

> <PUBCHEM_ATOM_DEF_STEREO_COUNT>
3

> <PUBCHEM_ATOM_UDEF_STEREO_COUNT>
0

> <PUBCHEM_BOND_DEF_STEREO_COUNT>
0

> <PUBCHEM_BOND_UDEF_STEREO_COUNT>
0

> <PUBCHEM_ISOTOPIC_ATOM_COUNT>
0

> <PUBCHEM_COMPONENT_COUNT>
1

> <PUBCHEM_CACTVS_TAUTO_COUNT>
2

> <PUBCHEM_CONFORMER_ID>
026E34B300000001

> <PUBCHEM_MMFF94_ENERGY>
76.8977

> <PUBCHEM_FEATURE_SELFOVERLAP>
45.672

> <PUBCHEM_SHAPE_FINGERPRINT>
10169797 241 18264473126626603490
10462674 369 17677030426409679119
10864689 126 18187914089599811531
10904742 38 7853561392724111870
10928967 22 18043509777094491971
11374522 101 9727048977441551274
11476731 99 11741073817973248059
11513181 2 17615410694045270723
117089 54 18411989056938886687
11973864 196 17024333992709235814
12422481 6 17917429869816665495
12633257 1 14764333981378339661
13103583 49 14476661032331933764
13383661 66 18413113848506861546
1361 87 18114174298590110827
13673619 4 17917990555879229038
13690498 29 18040991822409808021
13782708 43 17987791888176309286
14068700 675 18259985946743867580
14251764 30 18411697686177813943
14950920 106 14619641566893166455
15326923 133 17612040669504862459
15350500 185 8646769963211786743
15444296 121 18337116658090626513
15669420 48 14273743971277258371
16120349 189 9655570816301141147
17138139 8 17895186680387225874
17686467 74 18411692181084612928
19246450 95 14692298279210770931
20156587 77 18263948629689390757
20501277 180 8357447794502347903
20775530 9 18337091433061238589
208703 8 18412265060569626953
21344244 246 18261398892912563284
21716022 299 18188222012130979437
21792965 302 18186803625356946856
22440779 20 17489020449093891096
2260408 40 17986101027706862225
23569914 2 13553182449209337878
3862424 121 16951706872743790603
42626532 9 17345744188563731832
4330586 98 17096102401265659602
437815 12 18411419540196305739
4408954 87 16032402172523035555
44344687 77 18263657305941564509
44880168 125 18059564819891908127
57527585 21 15359401614793390804
57816373 69 18268706294308347359
6201320 77 16772965683870078718
6695519 79 16198428029244130434
86090 222 16952521641055813881
999808 66 18202845435201803479

> <PUBCHEM_SHAPE_MULTIPOLES>
640.19
19.35
5.41
2.34
7.2
5.99
-0.99
-31.42
5.29
1.82
0.28
-0.97
-1
2.86

> <PUBCHEM_SHAPE_SELFOVERLAP>
1374.302

> <PUBCHEM_SHAPE_VOLUME>
353

> <PUBCHEM_COORDINATE_TYPE>
2
5
10

$$$$
