11882870
  -OEChem-12032416123D

 74 78  0     1  0  0  0  0  0999 V2000
   -0.9795    3.0883    0.1453 S   0  0  0  0  0  0  0  0  0  0  0  0
    3.8138    4.3743   -0.0076 S   0  0  0  0  0  0  0  0  0  0  0  0
   -7.8524   -0.6496   -0.5001 O   0  0  0  0  0  0  0  0  0  0  0  0
   -7.8100    1.1610    1.0697 O   0  0  0  0  0  0  0  0  0  0  0  0
    0.0582   -1.8509   -1.6072 O   0  0  0  0  0  0  0  0  0  0  0  0
    2.8864    0.6208   -0.4306 O   0  0  0  0  0  0  0  0  0  0  0  0
    6.6046   -1.2530    0.5189 O   0  0  0  0  0  0  0  0  0  0  0  0
   -0.0186    0.7091   -0.1839 N   0  0  0  0  0  0  0  0  0  0  0  0
    0.6295   -3.3207    0.1001 N   0  0  0  0  0  0  0  0  0  0  0  0
    1.5673    2.5230   -0.1200 N   0  0  0  0  0  0  0  0  0  0  0  0
   -3.5794   -0.6645    0.3656 C   0  0  2  0  0  0  0  0  0  0  0  0
   -4.2608    0.6332   -0.2565 C   0  0  1  0  0  0  0  0  0  0  0  0
   -5.8350    0.7132   -0.1977 C   0  0  1  0  0  0  0  0  0  0  0  0
   -2.0802   -0.7446   -0.1817 C   0  0  1  0  0  0  0  0  0  0  0  0
   -4.3424   -1.9271   -0.1126 C   0  0  0  0  0  0  0  0  0  0  0  0
   -6.4346   -0.6437   -0.6638 C   0  0  1  0  0  0  0  0  0  0  0  0
   -3.5488    1.9331    0.2193 C   0  0  0  0  0  0  0  0  0  0  0  0
   -5.8507   -1.8437    0.0736 C   0  0  0  0  0  0  0  0  0  0  0  0
   -3.5621   -0.6509    1.9141 C   0  0  0  0  0  0  0  0  0  0  0  0
   -1.3919    0.5919   -0.0742 C   0  0  0  0  0  0  0  0  0  0  0  0
   -6.4047    1.1234    1.1783 C   0  0  0  0  0  0  0  0  0  0  0  0
   -6.3249    1.8018   -1.1941 C   0  0  0  0  0  0  0  0  0  0  0  0
   -2.0709    1.7824    0.0873 C   0  0  0  0  0  0  0  0  0  0  0  0
   -1.2336   -1.8641    0.4387 C   0  0  0  0  0  0  0  0  0  0  0  0
   -0.1283   -2.3176   -0.4866 C   0  0  0  0  0  0  0  0  0  0  0  0
    0.3117    1.9776   -0.0755 C   0  0  0  0  0  0  0  0  0  0  0  0
    1.7539   -3.9474   -0.5565 C   0  0  0  0  0  0  0  0  0  0  0  0
    2.7909    1.8381   -0.2930 C   0  0  0  0  0  0  0  0  0  0  0  0
    3.0421   -3.2314   -0.2704 C   0  0  0  0  0  0  0  0  0  0  0  0
    3.9936    2.6891   -0.2524 C   0  0  0  0  0  0  0  0  0  0  0  0
    3.3438   -2.8304    1.0311 C   0  0  0  0  0  0  0  0  0  0  0  0
    3.9378   -2.9677   -1.3066 C   0  0  0  0  0  0  0  0  0  0  0  0
    5.3152    2.3244   -0.3875 C   0  0  0  0  0  0  0  0  0  0  0  0
    4.5409   -2.1653    1.2963 C   0  0  0  0  0  0  0  0  0  0  0  0
    5.1348   -2.3026   -1.0416 C   0  0  0  0  0  0  0  0  0  0  0  0
    5.4364   -1.9014    0.2598 C   0  0  0  0  0  0  0  0  0  0  0  0
    6.1917    3.4433   -0.2884 C   0  0  0  0  0  0  0  0  0  0  0  0
    5.5068    4.6204   -0.0817 C   0  0  0  0  0  0  0  0  0  0  0  0
    6.8496   -0.8718    1.8718 C   0  0  0  0  0  0  0  0  0  0  0  0
   -4.0378    0.5578   -1.3351 H   0  0  0  0  0  0  0  0  0  0  0  0
   -2.1686   -0.9333   -1.2623 H   0  0  0  0  0  0  0  0  0  0  0  0
   -4.1392   -2.0974   -1.1782 H   0  0  0  0  0  0  0  0  0  0  0  0
   -3.9856   -2.8204    0.4125 H   0  0  0  0  0  0  0  0  0  0  0  0
   -6.2414   -0.7681   -1.7377 H   0  0  0  0  0  0  0  0  0  0  0  0
   -3.7933    2.1536    1.2638 H   0  0  0  0  0  0  0  0  0  0  0  0
   -3.8787    2.7856   -0.3837 H   0  0  0  0  0  0  0  0  0  0  0  0
   -6.3111   -2.7631   -0.3106 H   0  0  0  0  0  0  0  0  0  0  0  0
   -6.1205   -1.8157    1.1351 H   0  0  0  0  0  0  0  0  0  0  0  0
   -3.0342    0.2160    2.3209 H   0  0  0  0  0  0  0  0  0  0  0  0
   -4.5584   -0.6666    2.3510 H   0  0  0  0  0  0  0  0  0  0  0  0
   -3.0621   -1.5407    2.3124 H   0  0  0  0  0  0  0  0  0  0  0  0
   -6.0581    2.1155    1.4831 H   0  0  0  0  0  0  0  0  0  0  0  0
   -6.1635    0.4158    1.9674 H   0  0  0  0  0  0  0  0  0  0  0  0
   -7.4127    1.7890   -1.3254 H   0  0  0  0  0  0  0  0  0  0  0  0
   -6.0540    2.8096   -0.8624 H   0  0  0  0  0  0  0  0  0  0  0  0
   -5.8862    1.6503   -2.1872 H   0  0  0  0  0  0  0  0  0  0  0  0
   -1.8407   -2.7526    0.6399 H   0  0  0  0  0  0  0  0  0  0  0  0
   -0.7870   -1.5445    1.3887 H   0  0  0  0  0  0  0  0  0  0  0  0
   -8.1856   -1.4950   -0.8464 H   0  0  0  0  0  0  0  0  0  0  0  0
   -8.1606    1.4292    1.9360 H   0  0  0  0  0  0  0  0  0  0  0  0
    0.3956   -3.6343    1.0379 H   0  0  0  0  0  0  0  0  0  0  0  0
    1.5978    3.5332   -0.0085 H   0  0  0  0  0  0  0  0  0  0  0  0
    1.5528   -3.9802   -1.6333 H   0  0  0  0  0  0  0  0  0  0  0  0
    1.8204   -4.9782   -0.1920 H   0  0  0  0  0  0  0  0  0  0  0  0
    2.6643   -3.0355    1.8540 H   0  0  0  0  0  0  0  0  0  0  0  0
    3.7163   -3.2749   -2.3252 H   0  0  0  0  0  0  0  0  0  0  0  0
    5.6449    1.3071   -0.5525 H   0  0  0  0  0  0  0  0  0  0  0  0
    4.7128   -1.8834    2.3295 H   0  0  0  0  0  0  0  0  0  0  0  0
    5.8284   -2.0991   -1.8529 H   0  0  0  0  0  0  0  0  0  0  0  0
    7.2697    3.3875   -0.3655 H   0  0  0  0  0  0  0  0  0  0  0  0
    5.9195    5.6132    0.0293 H   0  0  0  0  0  0  0  0  0  0  0  0
    7.8211   -0.3674    1.8944 H   0  0  0  0  0  0  0  0  0  0  0  0
    6.9269   -1.7450    2.5285 H   0  0  0  0  0  0  0  0  0  0  0  0
    6.1066   -0.1494    2.2267 H   0  0  0  0  0  0  0  0  0  0  0  0
  1 23  1  0  0  0  0
  1 26  1  0  0  0  0
  2 30  1  0  0  0  0
  2 38  1  0  0  0  0
  3 16  1  0  0  0  0
  3 59  1  0  0  0  0
  4 21  1  0  0  0  0
  4 60  1  0  0  0  0
  5 25  2  0  0  0  0
  6 28  2  0  0  0  0
  7 36  1  0  0  0  0
  7 39  1  0  0  0  0
  8 20  1  0  0  0  0
  8 26  2  0  0  0  0
  9 25  1  0  0  0  0
  9 27  1  0  0  0  0
  9 61  1  0  0  0  0
 10 26  1  0  0  0  0
 10 28  1  0  0  0  0
 10 62  1  0  0  0  0
 11 12  1  0  0  0  0
 11 14  1  0  0  0  0
 11 15  1  0  0  0  0
 11 19  1  0  0  0  0
 12 13  1  0  0  0  0
 12 17  1  0  0  0  0
 12 40  1  0  0  0  0
 13 16  1  0  0  0  0
 13 21  1  0  0  0  0
 13 22  1  0  0  0  0
 14 20  1  0  0  0  0
 14 24  1  0  0  0  0
 14 41  1  0  0  0  0
 15 18  1  0  0  0  0
 15 42  1  0  0  0  0
 15 43  1  0  0  0  0
 16 18  1  0  0  0  0
 16 44  1  0  0  0  0
 17 23  1  0  0  0  0
 17 45  1  0  0  0  0
 17 46  1  0  0  0  0
 18 47  1  0  0  0  0
 18 48  1  0  0  0  0
 19 49  1  0  0  0  0
 19 50  1  0  0  0  0
 19 51  1  0  0  0  0
 20 23  2  0  0  0  0
 21 52  1  0  0  0  0
 21 53  1  0  0  0  0
 22 54  1  0  0  0  0
 22 55  1  0  0  0  0
 22 56  1  0  0  0  0
 24 25  1  0  0  0  0
 24 57  1  0  0  0  0
 24 58  1  0  0  0  0
 27 29  1  0  0  0  0
 27 63  1  0  0  0  0
 27 64  1  0  0  0  0
 28 30  1  0  0  0  0
 29 31  2  0  0  0  0
 29 32  1  0  0  0  0
 30 33  2  0  0  0  0
 31 34  1  0  0  0  0
 31 65  1  0  0  0  0
 32 35  2  0  0  0  0
 32 66  1  0  0  0  0
 33 37  1  0  0  0  0
 33 67  1  0  0  0  0
 34 36  2  0  0  0  0
 34 68  1  0  0  0  0
 35 36  1  0  0  0  0
 35 69  1  0  0  0  0
 37 38  2  0  0  0  0
 37 70  1  0  0  0  0
 38 71  1  0  0  0  0
 39 72  1  0  0  0  0
 39 73  1  0  0  0  0
 39 74  1  0  0  0  0
M  END
> <PUBCHEM_COMPOUND_CID>
11882870

> <PUBCHEM_CONFORMER_RMSD>
1.2

> <PUBCHEM_CONFORMER_DIVERSEORDER>
1
33
38
14
35
18
37
17
34
40
9
23
20
16
24
36
6
21
32
31
13
10
30
3
29
39
15
26
25
12
5
27
8
19
4
11
28
22
2
7

> <PUBCHEM_MMFF94_PARTIAL_CHARGES>
43
1 -0.08
10 -0.49
14 0.18
16 0.28
17 0.18
2 -0.08
20 0.05
21 0.28
23 -0.14
24 0.06
25 0.57
26 0.44
27 0.44
28 0.71
29 -0.14
3 -0.68
30 -0.05
31 -0.15
32 -0.15
33 -0.15
34 -0.15
35 -0.15
36 0.08
37 -0.15
38 -0.11
39 0.28
4 -0.68
5 -0.57
59 0.4
6 -0.57
60 0.4
61 0.37
62 0.37
65 0.15
66 0.15
67 0.15
68 0.15
69 0.15
7 -0.36
70 0.15
71 0.15
8 -0.57
9 -0.73

> <PUBCHEM_EFFECTIVE_ROTOR_COUNT>
11.2

> <PUBCHEM_PHARMACOPHORE_FEATURES>
14
1 10 donor
1 3 acceptor
1 3 donor
1 4 acceptor
1 4 donor
1 5 acceptor
1 6 acceptor
1 7 acceptor
1 9 donor
5 1 8 20 23 26 rings
5 2 30 33 37 38 rings
6 11 12 13 15 16 18 rings
6 11 12 14 17 20 23 rings
6 29 31 32 34 35 36 rings

> <PUBCHEM_HEAVY_ATOM_COUNT>
39

> <PUBCHEM_ATOM_DEF_STEREO_COUNT>
5

> <PUBCHEM_ATOM_UDEF_STEREO_COUNT>
0

> <PUBCHEM_BOND_DEF_STEREO_COUNT>
0

> <PUBCHEM_BOND_UDEF_STEREO_COUNT>
0

> <PUBCHEM_ISOTOPIC_ATOM_COUNT>
0

> <PUBCHEM_COMPONENT_COUNT>
1

> <PUBCHEM_CACTVS_TAUTO_COUNT>
6

> <PUBCHEM_CONFORMER_ID>
00B5517600000001

> <PUBCHEM_MMFF94_ENERGY>
116.9359

> <PUBCHEM_FEATURE_SELFOVERLAP>
71.195

> <PUBCHEM_SHAPE_FINGERPRINT>
10050765 1 18410576197972270639
10290309 65 18122624130658163272
10816530 90 18408612470558556166
11135926 11 18337382846197179325
11621639 179 17535736401437429605
12107698 1 18261386716083608330
12440605 4 18197222662087984115
12522641 33 18263646320486379276
13560911 43 18262514793554551464
1361 2 18410011022946325914
13811026 1 18334856156298354211
14295345 954 18261395580648420816
14394314 77 18340207495842966305
14725015 67 18188482485544949026
14840074 17 17773866520181767807
15001296 14 18408884053091570338
15200665 1 17619913198027764866
15320467 1 18338798914716557254
15400415 2 18122907792100372580
15444296 7 18060127752791722910
15927050 60 18197216073375725134
15968369 153 18201994430729498188
16067689 302 18340773762608444519
18738133 686 18266156445249465920
20721686 56 18335706052336099058
21344244 246 18338793533433798055
22311459 1 18338238150379906294
23559900 14 18338792326141584891
24771293 8 18272362045178139922
24771750 20 18189632672753223213
3411729 13 18336547213460214598
394071 54 18343023246753755626
4073 2 18189903204084990097
5265222 85 17832433372856403476
53794403 172 18410294735600841718
5776283 40 18338252548211959214
6036956 94 17398391318142630204
6669772 16 18340208595469989348
99344 41 18411135874369776356
9961470 85 18268144439365429154

> <PUBCHEM_SHAPE_MULTIPOLES>
766.01
19.58
5.8
1.16
13.54
1.95
-0.27
4.2
-2.07
-11.49
0.71
-0.22
-0.55
-0.66

> <PUBCHEM_SHAPE_SELFOVERLAP>
1621.92

> <PUBCHEM_SHAPE_VOLUME>
431.5

> <PUBCHEM_COORDINATE_TYPE>
2
5
10

$$$$
