75537107
  -OEChem-12032416323D

 44 46  0     1  0  0  0  0  0999 V2000
   -5.0849   -1.4565    0.1075 O   0  0  0  0  0  0  0  0  0  0  0  0
    5.7375    1.4220   -0.5760 O   0  0  0  0  0  0  0  0  0  0  0  0
   -0.1478   -0.3103   -0.1646 N   0  0  2  0  0  0  0  0  0  0  0  0
   -2.9408   -0.5994   -0.3256 N   0  0  0  0  0  0  0  0  0  0  0  0
   -4.6234    0.8538   -0.0076 N   0  0  0  0  0  0  0  0  0  0  0  0
    4.0253    0.1386    0.3293 N   0  0  0  0  0  0  0  0  0  0  0  0
   -2.3532    0.6987   -0.5834 C   0  0  2  0  0  0  0  0  0  0  0  0
    1.1499   -0.1578    0.4887 C   0  0  0  0  0  0  0  0  0  0  0  0
   -1.0223    0.8362    0.1552 C   0  0  0  0  0  0  0  0  0  0  0  0
   -0.7798   -1.5832    0.2377 C   0  0  0  0  0  0  0  0  0  0  0  0
   -2.1245   -1.7872   -0.4649 C   0  0  0  0  0  0  0  0  0  0  0  0
    1.7999    1.1659    0.0661 C   0  0  0  0  0  0  0  0  0  0  0  0
    2.0608   -1.3401    0.1329 C   0  0  0  0  0  0  0  0  0  0  0  0
   -3.4366    1.6809   -0.1425 C   0  0  0  0  0  0  0  0  0  0  0  0
    3.1996    1.3011    0.6628 C   0  0  0  0  0  0  0  0  0  0  0  0
    3.4566   -1.1550    0.7280 C   0  0  0  0  0  0  0  0  0  0  0  0
   -4.3142   -0.5203   -0.0587 C   0  0  0  0  0  0  0  0  0  0  0  0
   -5.9205    1.4178    0.2945 C   0  0  0  0  0  0  0  0  0  0  0  0
    5.2651    0.3207   -0.2829 C   0  0  0  0  0  0  0  0  0  0  0  0
    6.0534   -0.9259   -0.5964 C   0  0  0  0  0  0  0  0  0  0  0  0
   -2.2002    0.7705   -1.6685 H   0  0  0  0  0  0  0  0  0  0  0  0
    1.0204   -0.1416    1.5810 H   0  0  0  0  0  0  0  0  0  0  0  0
   -0.6099    1.7895   -0.1845 H   0  0  0  0  0  0  0  0  0  0  0  0
   -1.1859    0.9016    1.2392 H   0  0  0  0  0  0  0  0  0  0  0  0
   -0.9273   -1.6109    1.3254 H   0  0  0  0  0  0  0  0  0  0  0  0
   -0.1845   -2.4544   -0.0457 H   0  0  0  0  0  0  0  0  0  0  0  0
   -1.9783   -1.9565   -1.5380 H   0  0  0  0  0  0  0  0  0  0  0  0
   -2.6600   -2.6497   -0.0554 H   0  0  0  0  0  0  0  0  0  0  0  0
    1.2443    2.0392    0.4197 H   0  0  0  0  0  0  0  0  0  0  0  0
    1.8650    1.2261   -1.0283 H   0  0  0  0  0  0  0  0  0  0  0  0
    2.1431   -1.4427   -0.9572 H   0  0  0  0  0  0  0  0  0  0  0  0
    1.6923   -2.2889    0.5334 H   0  0  0  0  0  0  0  0  0  0  0  0
   -3.2265    2.1381    0.8299 H   0  0  0  0  0  0  0  0  0  0  0  0
   -3.6090    2.4646   -0.8862 H   0  0  0  0  0  0  0  0  0  0  0  0
    3.6655    2.2251    0.3058 H   0  0  0  0  0  0  0  0  0  0  0  0
    3.1479    1.3621    1.7565 H   0  0  0  0  0  0  0  0  0  0  0  0
    3.4090   -1.1622    1.8236 H   0  0  0  0  0  0  0  0  0  0  0  0
    4.0917   -1.9906    0.4286 H   0  0  0  0  0  0  0  0  0  0  0  0
   -6.1852    2.1343   -0.4873 H   0  0  0  0  0  0  0  0  0  0  0  0
   -5.8657    1.9267    1.2604 H   0  0  0  0  0  0  0  0  0  0  0  0
   -6.6749    0.6286    0.3423 H   0  0  0  0  0  0  0  0  0  0  0  0
    5.4933   -1.5643   -1.2848 H   0  0  0  0  0  0  0  0  0  0  0  0
    6.2887   -1.4662    0.3243 H   0  0  0  0  0  0  0  0  0  0  0  0
    6.9956   -0.6487   -1.0792 H   0  0  0  0  0  0  0  0  0  0  0  0
  1 17  2  0  0  0  0
  2 19  2  0  0  0  0
  3  8  1  0  0  0  0
  3  9  1  0  0  0  0
  3 10  1  0  0  0  0
  4  7  1  0  0  0  0
  4 11  1  0  0  0  0
  4 17  1  0  0  0  0
  5 14  1  0  0  0  0
  5 17  1  0  0  0  0
  5 18  1  0  0  0  0
  6 15  1  0  0  0  0
  6 16  1  0  0  0  0
  6 19  1  0  0  0  0
  7  9  1  0  0  0  0
  7 14  1  0  0  0  0
  7 21  1  0  0  0  0
  8 12  1  0  0  0  0
  8 13  1  0  0  0  0
  8 22  1  0  0  0  0
  9 23  1  0  0  0  0
  9 24  1  0  0  0  0
 10 11  1  0  0  0  0
 10 25  1  0  0  0  0
 10 26  1  0  0  0  0
 11 27  1  0  0  0  0
 11 28  1  0  0  0  0
 12 15  1  0  0  0  0
 12 29  1  0  0  0  0
 12 30  1  0  0  0  0
 13 16  1  0  0  0  0
 13 31  1  0  0  0  0
 13 32  1  0  0  0  0
 14 33  1  0  0  0  0
 14 34  1  0  0  0  0
 15 35  1  0  0  0  0
 15 36  1  0  0  0  0
 16 37  1  0  0  0  0
 16 38  1  0  0  0  0
 18 39  1  0  0  0  0
 18 40  1  0  0  0  0
 18 41  1  0  0  0  0
 19 20  1  0  0  0  0
 20 42  1  0  0  0  0
 20 43  1  0  0  0  0
 20 44  1  0  0  0  0
M  END
> <PUBCHEM_COMPOUND_CID>
75537107

> <PUBCHEM_CONFORMER_RMSD>
0.6

> <PUBCHEM_CONFORMER_DIVERSEORDER>
1
51
6
7
28
10
50
35
11
46
49
14
32
37
48
27
25
8
22
33
21
43
39
44
2
29
30
45
15
3
17
16
31
34
42
41
4
5
13
47
23
9
38
12
19
20
36
40
18
24
26

> <PUBCHEM_MMFF94_PARTIAL_CHARGES>
18
1 -0.57
10 0.27
11 0.3
14 0.3
15 0.3
16 0.3
17 0.69
18 0.3
19 0.57
2 -0.57
20 0.06
3 -0.81
4 -0.66
5 -0.66
6 -0.66
7 0.3
8 0.27
9 0.27

> <PUBCHEM_EFFECTIVE_ROTOR_COUNT>
4.4

> <PUBCHEM_PHARMACOPHORE_FEATURES>
6
1 1 acceptor
1 2 acceptor
1 3 cation
5 4 5 7 14 17 rings
6 3 4 7 9 10 11 rings
6 6 8 12 13 15 16 rings

> <PUBCHEM_HEAVY_ATOM_COUNT>
20

> <PUBCHEM_ATOM_DEF_STEREO_COUNT>
1

> <PUBCHEM_ATOM_UDEF_STEREO_COUNT>
0

> <PUBCHEM_BOND_DEF_STEREO_COUNT>
0

> <PUBCHEM_BOND_UDEF_STEREO_COUNT>
0

> <PUBCHEM_ISOTOPIC_ATOM_COUNT>
0

> <PUBCHEM_COMPONENT_COUNT>
1

> <PUBCHEM_CACTVS_TAUTO_COUNT>
1

> <PUBCHEM_CONFORMER_ID>
04809AD300000001

> <PUBCHEM_MMFF94_ENERGY>
41.9259

> <PUBCHEM_FEATURE_SELFOVERLAP>
30.542

> <PUBCHEM_SHAPE_FINGERPRINT>
10366900 7 17240479230095449593
11796584 16 14764340540310067116
12107183 9 17615401463690235464
12236239 1 18260548930966907812
12390115 104 18129391397599993849
12403259 415 18131063878764477225
12788726 201 17774724134539513696
13897977 58 18408321094838072453
14341114 176 18335144150676425185
14528608 73 18334858337998906540
15042514 8 18195246848525352495
15048467 5 18335139795558546484
15183329 4 18201727210976018174
15196674 1 18410008823305872107
15778101 99 18342179926073226249
15788980 27 17132111355424283476
17834072 33 18409448098604277102
17844677 252 18341900713837632696
19784866 170 18336266760870265159
200 152 17775284980037905146
20621476 66 18341337699760460321
20645477 56 18411417298175670445
20645477 70 18272374140470813670
21267235 1 18410862083015484355
22079108 93 16226053305440070272
221357 26 18343579646612998888
2215653 11 17846780685232476804
2297311 6 18343590650271589149
23402539 116 18131063840347109205
23402655 69 18413103961718226054
23557571 272 18272657878013996375
23559900 14 18201711894764406168
293599 30 18341048536870995177
29717793 49 17775007860859574796
3004659 81 18409451354827998870
335352 9 18413387622680524308
34797466 226 17774451598165341948
350125 39 18409449180704414309
3545911 37 18411418388970938385
4073 2 18041005063140029186
4214541 1 18412261740064138449
4340502 62 16225769592753548992
4463277 17 18410013234300608040
474 4 17458347498189471916
4990 188 18201723946969684982
5104073 3 18408878542521761027
542803 24 17894910732927922984
59755656 215 18343024346012065422
59755656 520 17312822680135232842
633830 44 18261105335796488334
77779 3 18410008827637632771
9996256 80 18412826919069111335

> <PUBCHEM_SHAPE_MULTIPOLES>
379.93
14.11
1.83
0.74
3.85
0.15
-0.01
-2.6
1.24
-0.71
0
0.32
0
-0.18

> <PUBCHEM_SHAPE_SELFOVERLAP>
784.44

> <PUBCHEM_SHAPE_VOLUME>
218.4

> <PUBCHEM_COORDINATE_TYPE>
2
5
10

$$$$
