51137102
  -OEChem-12032416243D

 40 43  0     1  0  0  0  0  0999 V2000
   -4.2867   -2.0902   -0.7779 F   0  0  0  0  0  0  0  0  0  0  0  0
    7.5605   -0.5607   -0.1892 F   0  0  0  0  0  0  0  0  0  0  0  0
   -1.8487   -0.1524   -0.0001 N   0  0  1  0  0  0  0  0  0  0  0  0
    2.7915   -1.1721    0.6226 N   0  0  0  0  0  0  0  0  0  0  0  0
    2.2567    0.8549   -0.1158 N   0  0  0  0  0  0  0  0  0  0  0  0
    0.3493   -0.5963    0.6861 C   0  0  1  0  0  0  0  0  0  0  0  0
   -0.3275    0.3408    1.7015 C   0  0  0  0  0  0  0  0  0  0  0  0
   -0.5499   -0.5377   -0.5561 C   0  0  0  0  0  0  0  0  0  0  0  0
   -1.5457    0.8955    0.9746 C   0  0  0  0  0  0  0  0  0  0  0  0
    1.7934   -0.2688    0.3841 C   0  0  0  0  0  0  0  0  0  0  0  0
   -2.7803    0.2962   -1.0245 C   0  0  0  0  0  0  0  0  0  0  0  0
   -4.2046    0.2700   -0.5373 C   0  0  0  0  0  0  0  0  0  0  0  0
    3.9778   -0.5929    0.2516 C   0  0  0  0  0  0  0  0  0  0  0  0
    3.6174    0.6715   -0.2058 C   0  0  0  0  0  0  0  0  0  0  0  0
   -4.8889   -0.9414   -0.4399 C   0  0  0  0  0  0  0  0  0  0  0  0
   -4.8397    1.4602   -0.1829 C   0  0  0  0  0  0  0  0  0  0  0  0
    5.2950   -1.0526    0.2760 C   0  0  0  0  0  0  0  0  0  0  0  0
    4.6175    1.5427   -0.6699 C   0  0  0  0  0  0  0  0  0  0  0  0
    6.2775   -0.1725   -0.1896 C   0  0  0  0  0  0  0  0  0  0  0  0
    5.9469    1.1025   -0.6545 C   0  0  0  0  0  0  0  0  0  0  0  0
   -6.2084   -0.9629    0.0119 C   0  0  0  0  0  0  0  0  0  0  0  0
   -6.1593    1.4389    0.2689 C   0  0  0  0  0  0  0  0  0  0  0  0
   -6.8436    0.2274    0.3664 C   0  0  0  0  0  0  0  0  0  0  0  0
    0.3023   -1.6147    1.0987 H   0  0  0  0  0  0  0  0  0  0  0  0
   -0.6433   -0.2392    2.5776 H   0  0  0  0  0  0  0  0  0  0  0  0
    0.3266    1.1453    2.0542 H   0  0  0  0  0  0  0  0  0  0  0  0
   -0.1871    0.2060   -1.2782 H   0  0  0  0  0  0  0  0  0  0  0  0
   -0.5960   -1.5097   -1.0593 H   0  0  0  0  0  0  0  0  0  0  0  0
   -1.2837    1.8445    0.4891 H   0  0  0  0  0  0  0  0  0  0  0  0
   -2.3702    1.0745    1.6718 H   0  0  0  0  0  0  0  0  0  0  0  0
   -2.5172    1.2882   -1.4162 H   0  0  0  0  0  0  0  0  0  0  0  0
   -2.7303   -0.3752   -1.8935 H   0  0  0  0  0  0  0  0  0  0  0  0
    2.6792   -2.1021    1.0040 H   0  0  0  0  0  0  0  0  0  0  0  0
   -4.3177    2.4108   -0.2524 H   0  0  0  0  0  0  0  0  0  0  0  0
    5.5493   -2.0424    0.6374 H   0  0  0  0  0  0  0  0  0  0  0  0
    4.3709    2.5352   -1.0331 H   0  0  0  0  0  0  0  0  0  0  0  0
    6.7328    1.7638   -1.0100 H   0  0  0  0  0  0  0  0  0  0  0  0
   -6.7409   -1.9063    0.0877 H   0  0  0  0  0  0  0  0  0  0  0  0
   -6.6538    2.3655    0.5454 H   0  0  0  0  0  0  0  0  0  0  0  0
   -7.8709    0.2107    0.7184 H   0  0  0  0  0  0  0  0  0  0  0  0
  1 15  1  0  0  0  0
  2 19  1  0  0  0  0
  3  8  1  0  0  0  0
  3  9  1  0  0  0  0
  3 11  1  0  0  0  0
  4 10  1  0  0  0  0
  4 13  1  0  0  0  0
  4 33  1  0  0  0  0
  5 10  2  0  0  0  0
  5 14  1  0  0  0  0
  6  7  1  0  0  0  0
  6  8  1  0  0  0  0
  6 10  1  0  0  0  0
  6 24  1  0  0  0  0
  7  9  1  0  0  0  0
  7 25  1  0  0  0  0
  7 26  1  0  0  0  0
  8 27  1  0  0  0  0
  8 28  1  0  0  0  0
  9 29  1  0  0  0  0
  9 30  1  0  0  0  0
 11 12  1  0  0  0  0
 11 31  1  0  0  0  0
 11 32  1  0  0  0  0
 12 15  1  0  0  0  0
 12 16  2  0  0  0  0
 13 14  2  0  0  0  0
 13 17  1  0  0  0  0
 14 18  1  0  0  0  0
 15 21  2  0  0  0  0
 16 22  1  0  0  0  0
 16 34  1  0  0  0  0
 17 19  2  0  0  0  0
 17 35  1  0  0  0  0
 18 20  2  0  0  0  0
 18 36  1  0  0  0  0
 19 20  1  0  0  0  0
 20 37  1  0  0  0  0
 21 23  1  0  0  0  0
 21 38  1  0  0  0  0
 22 23  2  0  0  0  0
 22 39  1  0  0  0  0
 23 40  1  0  0  0  0
M  END
> <PUBCHEM_COMPOUND_CID>
51137102

> <PUBCHEM_CONFORMER_RMSD>
0.8

> <PUBCHEM_CONFORMER_DIVERSEORDER>
1
43
30
66
44
65
20
53
46
41
63
5
56
68
61
32
67
48
45
50
42
24
51
62
64
15
8
40
27
52
59
49
18
17
60
47
21
19
38
23
7
4
9
55
16
3
39
2
58
37
33
35
10
34
31
12
25
6
14
36
54
57
11
28
29
26
13
22

> <PUBCHEM_MMFF94_PARTIAL_CHARGES>
30
1 -0.19
10 0.01
11 0.41
12 -0.14
13 -0.15
14 0.23
15 0.19
16 -0.15
17 -0.15
18 -0.15
19 0.19
2 -0.19
20 -0.15
21 -0.15
22 -0.15
23 -0.15
3 -0.81
33 0.27
34 0.15
35 0.15
36 0.15
37 0.15
38 0.15
39 0.15
4 0.03
40 0.15
5 -0.57
6 0.18
8 0.27
9 0.27

> <PUBCHEM_EFFECTIVE_ROTOR_COUNT>
4

> <PUBCHEM_PHARMACOPHORE_FEATURES>
7
1 3 cation
1 4 donor
3 4 5 10 cation
5 3 6 7 8 9 rings
5 4 5 10 13 14 rings
6 12 15 16 21 22 23 rings
6 13 14 17 18 19 20 rings

> <PUBCHEM_HEAVY_ATOM_COUNT>
23

> <PUBCHEM_ATOM_DEF_STEREO_COUNT>
1

> <PUBCHEM_ATOM_UDEF_STEREO_COUNT>
0

> <PUBCHEM_BOND_DEF_STEREO_COUNT>
0

> <PUBCHEM_BOND_UDEF_STEREO_COUNT>
0

> <PUBCHEM_ISOTOPIC_ATOM_COUNT>
0

> <PUBCHEM_COMPONENT_COUNT>
1

> <PUBCHEM_CACTVS_TAUTO_COUNT>
2

> <PUBCHEM_CONFORMER_ID>
030C4A4E00000001

> <PUBCHEM_MMFF94_ENERGY>
44.1061

> <PUBCHEM_FEATURE_SELFOVERLAP>
35.63

> <PUBCHEM_SHAPE_FINGERPRINT>
10 15 12829494774800338124
10299344 5 18411419518842788307
10595046 47 18334856108641828473
106641 1 12035739725179136700
11315181 36 16559031601988025851
11524674 6 16486972921260406951
11646440 116 16081093666405926588
11719270 70 17846498098092020926
12091667 2 18333452036941462809
12107183 9 17615964409659886769
12166972 35 18187086169791271900
12236239 1 18413388735261462116
12730499 353 17313105228979997650
12788726 201 17560804264973489891
12916748 109 16081085961598366652
13167372 99 18334857169362074692
13533116 47 16443615810522624608
14251752 14 18202563964535559249
14251764 18 17749105591739213056
14251764 46 18410573980856490349
14294032 229 17487075374296148009
14849402 71 18041851730106977988
14856354 85 18201442506489960351
14933364 13 18408324380192888701
15183329 4 18335697234752175549
15461852 350 13045945737809367323
15537594 2 16702300144034479231
17093844 174 15985098618269051495
17844677 252 18342741836243862649
18006028 8 14117516536654275043
19489759 90 8935001478030426647
200 152 18412543214935328242
21033648 29 17386291025555038472
21150785 3 18410296922066223596
21792961 116 17989208105985490267
220451 1 18408882927789176291
221357 26 18186236221691205972
22224240 67 15068343427520166128
23035841 295 18272370880147140771
23198884 109 18260550026384132457
23402539 116 18342453746621513525
23536379 177 18409448072502183465
23559900 14 17703217516022784680
23569943 247 16879617177465879594
23622692 88 13334741240861486682
2838139 119 17530681022106016972
29717793 49 18202289087477753124
3004659 81 18413388726961651946
314173 85 15195569008986545041
347723 3 17703790314420442256
3545911 37 17313104150790023642
4073 2 17822579412134962010
4325135 7 18333449846381560869
5283156 175 17846502496169601650
542803 24 18408601461391447837
59682541 35 14779558902388850977
59755656 215 16271933683841719876
59755656 520 17095241440515915387
9996256 80 18186799166774269997
999808 66 18114473353110564355

> <PUBCHEM_SHAPE_MULTIPOLES>
443.84
19.9
1.43
0.98
2.62
0.03
0.19
0.74
-2.46
-0.52
-0.15
-0.27
0.05
-1.01

> <PUBCHEM_SHAPE_SELFOVERLAP>
979.033

> <PUBCHEM_SHAPE_VOLUME>
242.4

> <PUBCHEM_COORDINATE_TYPE>
2
5
10

$$$$
