26743700
  -OEChem-12032416213D

 54 57  0     1  0  0  0  0  0999 V2000
    7.8544    0.6706   -0.7690 F   0  0  0  0  0  0  0  0  0  0  0  0
    6.2814   -0.7815   -1.2076 F   0  0  0  0  0  0  0  0  0  0  0  0
    6.2961    1.1874   -2.2114 F   0  0  0  0  0  0  0  0  0  0  0  0
   -4.1457   -4.4259   -1.8526 O   0  0  0  0  0  0  0  0  0  0  0  0
   -0.8132   -2.1407    2.1670 O   0  0  0  0  0  0  0  0  0  0  0  0
   -3.8819    4.8222   -1.0268 O   0  0  0  0  0  0  0  0  0  0  0  0
    5.7786    1.0855    0.0142 O   0  0  0  0  0  0  0  0  0  0  0  0
   -3.0748   -1.2578   -0.5925 N   0  0  1  0  0  0  0  0  0  0  0  0
   -3.7778    2.8378    0.1771 N   0  0  0  0  0  0  0  0  0  0  0  0
   -0.2040   -1.2018    0.2269 N   0  0  0  0  0  0  0  0  0  0  0  0
    0.5096   -1.7135    2.3395 N   0  0  0  0  0  0  0  0  0  0  0  0
   -3.6928   -0.0464   -0.0590 C   0  0  0  0  0  0  0  0  0  0  0  0
   -2.5597   -2.1598    0.4576 C   0  0  1  0  0  0  0  0  0  0  0  0
   -4.0102   -2.0460   -1.3928 C   0  0  0  0  0  0  0  0  0  0  0  0
   -2.6504   -3.5698   -0.1550 C   0  0  0  0  0  0  0  0  0  0  0  0
   -3.2701   -3.3626   -1.5315 C   0  0  1  0  0  0  0  0  0  0  0  0
   -2.6872    0.7182    0.8116 C   0  0  0  0  0  0  0  0  0  0  0  0
   -4.1906    0.8404   -1.2076 C   0  0  0  0  0  0  0  0  0  0  0  0
   -3.2806    2.0383    1.3037 C   0  0  0  0  0  0  0  0  0  0  0  0
   -4.7544    2.1566   -0.6753 C   0  0  0  0  0  0  0  0  0  0  0  0
   -1.1556   -1.8013    0.8967 C   0  0  0  0  0  0  0  0  0  0  0  0
   -3.4224    4.1589   -0.0936 C   0  0  0  0  0  0  0  0  0  0  0  0
    0.7977   -1.1704    1.1530 C   0  0  0  0  0  0  0  0  0  0  0  0
   -2.4088    4.7884    0.8283 C   0  0  0  0  0  0  0  0  0  0  0  0
    2.0764   -0.5899    0.8602 C   0  0  0  0  0  0  0  0  0  0  0  0
    2.3211   -0.0385   -0.3974 C   0  0  0  0  0  0  0  0  0  0  0  0
    3.0757   -0.5782    1.8334 C   0  0  0  0  0  0  0  0  0  0  0  0
    3.5652    0.5244   -0.6820 C   0  0  0  0  0  0  0  0  0  0  0  0
    4.3197   -0.0154    1.5488 C   0  0  0  0  0  0  0  0  0  0  0  0
    4.5645    0.5359    0.2912 C   0  0  0  0  0  0  0  0  0  0  0  0
    6.5396    0.5347   -1.0550 C   0  0  0  0  0  0  0  0  0  0  0  0
   -4.5560   -0.3116    0.5687 H   0  0  0  0  0  0  0  0  0  0  0  0
   -3.2182   -2.1430    1.3379 H   0  0  0  0  0  0  0  0  0  0  0  0
   -4.9784   -2.1937   -0.8964 H   0  0  0  0  0  0  0  0  0  0  0  0
   -4.1940   -1.6215   -2.3850 H   0  0  0  0  0  0  0  0  0  0  0  0
   -1.6775   -4.0663   -0.2477 H   0  0  0  0  0  0  0  0  0  0  0  0
   -3.2851   -4.2139    0.4665 H   0  0  0  0  0  0  0  0  0  0  0  0
   -2.4912   -3.2930   -2.3008 H   0  0  0  0  0  0  0  0  0  0  0  0
   -1.7768    0.9420    0.2416 H   0  0  0  0  0  0  0  0  0  0  0  0
   -2.4173    0.1638    1.7141 H   0  0  0  0  0  0  0  0  0  0  0  0
   -4.9831    0.3510   -1.7840 H   0  0  0  0  0  0  0  0  0  0  0  0
   -3.3658    1.0569   -1.8997 H   0  0  0  0  0  0  0  0  0  0  0  0
   -2.5323    2.5762    1.8885 H   0  0  0  0  0  0  0  0  0  0  0  0
   -4.1340    1.8502    1.9664 H   0  0  0  0  0  0  0  0  0  0  0  0
   -5.6485    1.9741   -0.0674 H   0  0  0  0  0  0  0  0  0  0  0  0
   -5.0532    2.7951   -1.5126 H   0  0  0  0  0  0  0  0  0  0  0  0
   -3.6227   -5.2458   -1.8503 H   0  0  0  0  0  0  0  0  0  0  0  0
   -2.2110    5.8151    0.5050 H   0  0  0  0  0  0  0  0  0  0  0  0
   -2.7961    4.8218    1.8500 H   0  0  0  0  0  0  0  0  0  0  0  0
   -1.4680    4.2329    0.7915 H   0  0  0  0  0  0  0  0  0  0  0  0
    1.5624   -0.0308   -1.1760 H   0  0  0  0  0  0  0  0  0  0  0  0
    2.9219   -0.9984    2.8242 H   0  0  0  0  0  0  0  0  0  0  0  0
    3.7404    0.9569   -1.6633 H   0  0  0  0  0  0  0  0  0  0  0  0
    5.0947   -0.0092    2.3104 H   0  0  0  0  0  0  0  0  0  0  0  0
  1 31  1  0  0  0  0
  2 31  1  0  0  0  0
  3 31  1  0  0  0  0
  4 16  1  0  0  0  0
  4 47  1  0  0  0  0
  5 11  1  0  0  0  0
  5 21  1  0  0  0  0
  6 22  2  0  0  0  0
  7 30  1  0  0  0  0
  7 31  1  0  0  0  0
  8 12  1  0  0  0  0
  8 13  1  0  0  0  0
  8 14  1  0  0  0  0
  9 19  1  0  0  0  0
  9 20  1  0  0  0  0
  9 22  1  0  0  0  0
 10 21  2  0  0  0  0
 10 23  1  0  0  0  0
 11 23  2  0  0  0  0
 12 17  1  0  0  0  0
 12 18  1  0  0  0  0
 12 32  1  0  0  0  0
 13 15  1  0  0  0  0
 13 21  1  0  0  0  0
 13 33  1  0  0  0  0
 14 16  1  0  0  0  0
 14 34  1  0  0  0  0
 14 35  1  0  0  0  0
 15 16  1  0  0  0  0
 15 36  1  0  0  0  0
 15 37  1  0  0  0  0
 16 38  1  0  0  0  0
 17 19  1  0  0  0  0
 17 39  1  0  0  0  0
 17 40  1  0  0  0  0
 18 20  1  0  0  0  0
 18 41  1  0  0  0  0
 18 42  1  0  0  0  0
 19 43  1  0  0  0  0
 19 44  1  0  0  0  0
 20 45  1  0  0  0  0
 20 46  1  0  0  0  0
 22 24  1  0  0  0  0
 23 25  1  0  0  0  0
 24 48  1  0  0  0  0
 24 49  1  0  0  0  0
 24 50  1  0  0  0  0
 25 26  2  0  0  0  0
 25 27  1  0  0  0  0
 26 28  1  0  0  0  0
 26 51  1  0  0  0  0
 27 29  2  0  0  0  0
 27 52  1  0  0  0  0
 28 30  2  0  0  0  0
 28 53  1  0  0  0  0
 29 30  1  0  0  0  0
 29 54  1  0  0  0  0
M  END
> <PUBCHEM_COMPOUND_CID>
26743700

> <PUBCHEM_CONFORMER_RMSD>
1

> <PUBCHEM_CONFORMER_DIVERSEORDER>
1
25
30
33
37
29
44
15
24
50
28
3
49
26
20
27
14
38
23
4
21
40
35
48
43
47
10
18
34
22
8
46
32
41
36
7
9
17
16
31
11
12
42
2
5
6
19
13
39
45

> <PUBCHEM_MMFF94_PARTIAL_CHARGES>
33
1 -0.34
10 -0.57
11 -0.41
12 0.27
13 0.45
14 0.27
16 0.28
19 0.3
2 -0.34
20 0.3
21 0.3
22 0.57
23 0.46
24 0.06
25 0.05
26 -0.15
27 -0.15
28 -0.15
29 -0.15
3 -0.34
30 0.08
31 1.3
4 -0.68
47 0.4
5 -0.02
51 0.15
52 0.15
53 0.15
54 0.15
6 -0.57
7 -0.36
8 -0.81
9 -0.66

> <PUBCHEM_EFFECTIVE_ROTOR_COUNT>
8.2

> <PUBCHEM_PHARMACOPHORE_FEATURES>
10
1 4 acceptor
1 4 donor
1 6 acceptor
1 7 acceptor
1 8 cation
3 10 11 23 cation
5 5 10 11 21 23 rings
5 8 13 14 15 16 rings
6 25 26 27 28 29 30 rings
6 9 12 17 18 19 20 rings

> <PUBCHEM_HEAVY_ATOM_COUNT>
31

> <PUBCHEM_ATOM_DEF_STEREO_COUNT>
2

> <PUBCHEM_ATOM_UDEF_STEREO_COUNT>
0

> <PUBCHEM_BOND_DEF_STEREO_COUNT>
0

> <PUBCHEM_BOND_UDEF_STEREO_COUNT>
0

> <PUBCHEM_ISOTOPIC_ATOM_COUNT>
0

> <PUBCHEM_COMPONENT_COUNT>
1

> <PUBCHEM_CACTVS_TAUTO_COUNT>
1

> <PUBCHEM_CONFORMER_ID>
0198139400000001

> <PUBCHEM_MMFF94_ENERGY>
69.0496

> <PUBCHEM_FEATURE_SELFOVERLAP>
50.747

> <PUBCHEM_SHAPE_FINGERPRINT>
10670039 82 18410573963893334288
10871710 139 18335415734681271121
10937287 8 18051967027182324897
11049842 53 17840847604594433299
11211813 163 18340209566792006870
11410812 94 18410864261914545940
11477941 20 18127402569452817780
11513181 2 18052819148250499845
11828042 200 18337933664360511085
12107183 9 17974271141622524442
12788726 201 18265593486706544259
13540713 5 18115570574808777562
13690498 29 18129662031477953686
13757389 114 18272929432776698959
13761468 95 18115865196384579484
13782708 43 17130986623933779294
13911987 19 18194379153878623261
13944108 23 16969703291639501688
14114211 68 17771621249261678217
14114211 80 17984426235554554937
14251764 75 17979078180621246377
14294032 229 18341054039135616905
15064981 113 18128519501721167302
15183329 4 18413393116640073230
15198563 99 18269822260039938543
15264996 163 18260827112163424901
15289351 153 18044379568924920468
15463212 79 18337097983102838091
15575132 122 18264486188155406345
15876981 60 18335988678369379013
15950262 2 15939194965808476077
16988056 13 16250244399808634765
16992828 155 17896313632235048413
16994733 274 15504027088556566503
19377110 9 10447919590909853682
20101258 96 18265899253769991387
21033650 10 18409169926426100354
21756936 100 18113627788948222130
21927370 108 18193848274172395819
22393880 68 18060136570296589306
23516275 100 17690265428295176504
24893989 43 15253459413704428461
255183 451 17552061223899901967
312425 54 8718287727589972740
3388396 114 17759533548194671692
3610482 184 18260558822413981262
38570 142 17895767179635352370
397830 11 8214135223932629934
4169191 19 16952544735206280116
437795 83 18046926045822090820
46194498 28 17558825329011897256
484985 159 14836123299586091335
50677037 204 17968946413210702772
5283173 99 18412831283225031768
531348 171 18342743996644320870
550186 7 18273494559281481573
6058803 2 18044351882146406547
6608658 132 18334849520178080789
68570916 9 9943806691203371266
7288768 16 17458636562204499313
7808743 9 18338232674354204233

> <PUBCHEM_SHAPE_MULTIPOLES>
572.74
15.02
5.48
1.85
31.48
3.56
0.22
6.38
-8.34
-13.11
-1.25
1
-0.8
-2.23

> <PUBCHEM_SHAPE_SELFOVERLAP>
1229.083

> <PUBCHEM_SHAPE_VOLUME>
318.2

> <PUBCHEM_COORDINATE_TYPE>
2
5
10

$$$$
