45361700
  -OEChem-12032416233D

 84 87  0     1  0  0  0  0  0999 V2000
    3.0336    0.9739    2.2113 O   0  0  0  0  0  0  0  0  0  0  0  0
    0.1111   -2.0620    0.2534 O   0  0  0  0  0  0  0  0  0  0  0  0
    4.1272   -3.8661    1.6154 O   0  0  0  0  0  0  0  0  0  0  0  0
   -2.8483   -2.5079    1.8803 O   0  0  0  0  0  0  0  0  0  0  0  0
    0.8318    0.7177    1.5024 N   0  0  0  0  0  0  0  0  0  0  0  0
   -1.7323   -0.4549    1.8710 N   0  0  0  0  0  0  0  0  0  0  0  0
    2.3602   -1.8645    0.8208 N   0  0  0  0  0  0  0  0  0  0  0  0
    3.3952   -5.1386   -0.1506 N   0  0  0  0  0  0  0  0  0  0  0  0
   -7.0407    0.6705   -1.6045 N   0  0  0  0  0  0  0  0  0  0  0  0
    3.2643   -0.8579   -1.8437 C   0  0  0  0  0  0  0  0  0  0  0  0
    2.0175   -1.2553   -2.6454 C   0  0  0  0  0  0  0  0  0  0  0  0
    4.3094   -0.1955   -2.7516 C   0  0  0  0  0  0  0  0  0  0  0  0
    2.1708    2.6728    0.8182 C   0  0  0  0  0  0  0  0  0  0  0  0
    3.8589   -2.0724   -1.1335 C   0  0  0  0  0  0  0  0  0  0  0  0
    1.4351   -0.0674   -3.4080 C   0  0  0  0  0  0  0  0  0  0  0  0
    3.7232    0.9908   -3.5139 C   0  0  0  0  0  0  0  0  0  0  0  0
    0.7247   -0.6348    2.0688 C   0  0  1  0  0  0  0  0  0  0  0  0
    2.4791    0.5937   -4.3025 C   0  0  0  0  0  0  0  0  0  0  0  0
    3.6110    2.8530    0.3350 C   0  0  0  0  0  0  0  0  0  0  0  0
    1.7281    3.8354    1.7077 C   0  0  0  0  0  0  0  0  0  0  0  0
    2.8944   -2.7710   -0.1698 C   0  0  1  0  0  0  0  0  0  0  0  0
    2.0607    1.3835    1.5725 C   0  0  0  0  0  0  0  0  0  0  0  0
    3.8059    4.1992   -0.3576 C   0  0  0  0  0  0  0  0  0  0  0  0
    1.9234    5.1794    1.0105 C   0  0  0  0  0  0  0  0  0  0  0  0
    3.3605    5.3588    0.5291 C   0  0  0  0  0  0  0  0  0  0  0  0
   -0.6319   -0.9147    2.7152 C   0  0  0  0  0  0  0  0  0  0  0  0
   -0.3310    1.2066    0.7394 C   0  0  0  0  0  0  0  0  0  0  0  0
   -1.6378    0.9535    1.4806 C   0  0  0  0  0  0  0  0  0  0  0  0
    1.0091   -1.5891    0.9450 C   0  0  0  0  0  0  0  0  0  0  0  0
    3.5301   -3.9561    0.5452 C   0  0  0  0  0  0  0  0  0  0  0  0
   -2.7746   -1.3255    1.5494 C   0  0  0  0  0  0  0  0  0  0  0  0
   -3.8802   -0.8091    0.7322 C   0  0  0  0  0  0  0  0  0  0  0  0
   -3.8187   -0.8954   -0.6587 C   0  0  0  0  0  0  0  0  0  0  0  0
   -4.9914   -0.2315    1.3467 C   0  0  0  0  0  0  0  0  0  0  0  0
   -4.8681   -0.4040   -1.4350 C   0  0  0  0  0  0  0  0  0  0  0  0
   -6.0407    0.2600    0.5704 C   0  0  0  0  0  0  0  0  0  0  0  0
   -5.9791    0.1737   -0.8205 C   0  0  0  0  0  0  0  0  0  0  0  0
   -8.2028    1.2656   -0.9745 C   0  0  0  0  0  0  0  0  0  0  0  0
   -6.9877    0.5857   -3.0505 C   0  0  0  0  0  0  0  0  0  0  0  0
    2.9645   -0.1174   -1.0915 H   0  0  0  0  0  0  0  0  0  0  0  0
    1.2279   -1.6458   -2.0010 H   0  0  0  0  0  0  0  0  0  0  0  0
    2.2703   -2.0514   -3.3574 H   0  0  0  0  0  0  0  0  0  0  0  0
    4.6989   -0.9281   -3.4701 H   0  0  0  0  0  0  0  0  0  0  0  0
    5.1618    0.1470   -2.1529 H   0  0  0  0  0  0  0  0  0  0  0  0
    1.5669    2.6412   -0.0940 H   0  0  0  0  0  0  0  0  0  0  0  0
    4.2181   -2.8010   -1.8724 H   0  0  0  0  0  0  0  0  0  0  0  0
    4.7483   -1.7533   -0.5730 H   0  0  0  0  0  0  0  0  0  0  0  0
    1.0473    0.6693   -2.6934 H   0  0  0  0  0  0  0  0  0  0  0  0
    0.5864   -0.3998   -4.0163 H   0  0  0  0  0  0  0  0  0  0  0  0
    4.4773    1.3987   -4.1962 H   0  0  0  0  0  0  0  0  0  0  0  0
    3.4662    1.7897   -2.8083 H   0  0  0  0  0  0  0  0  0  0  0  0
    1.4897   -0.7694    2.8433 H   0  0  0  0  0  0  0  0  0  0  0  0
    2.7617   -0.0978   -5.1058 H   0  0  0  0  0  0  0  0  0  0  0  0
    2.0471    1.4799   -4.7808 H   0  0  0  0  0  0  0  0  0  0  0  0
    4.3132    2.7985    1.1775 H   0  0  0  0  0  0  0  0  0  0  0  0
    3.8891    2.0434   -0.3491 H   0  0  0  0  0  0  0  0  0  0  0  0
    0.6777    3.7281    2.0008 H   0  0  0  0  0  0  0  0  0  0  0  0
    2.3039    3.8287    2.6429 H   0  0  0  0  0  0  0  0  0  0  0  0
    2.0536   -3.1775   -0.7434 H   0  0  0  0  0  0  0  0  0  0  0  0
    4.8604    4.3256   -0.6280 H   0  0  0  0  0  0  0  0  0  0  0  0
    3.2331    4.2139   -1.2930 H   0  0  0  0  0  0  0  0  0  0  0  0
    1.2398    5.2492    0.1554 H   0  0  0  0  0  0  0  0  0  0  0  0
    1.6610    5.9923    1.6968 H   0  0  0  0  0  0  0  0  0  0  0  0
    4.0288    5.4325    1.3959 H   0  0  0  0  0  0  0  0  0  0  0  0
    3.4493    6.3008   -0.0238 H   0  0  0  0  0  0  0  0  0  0  0  0
   -0.7135   -0.3623    3.6595 H   0  0  0  0  0  0  0  0  0  0  0  0
   -0.7399   -1.9792    2.9502 H   0  0  0  0  0  0  0  0  0  0  0  0
   -0.2749    2.2746    0.5308 H   0  0  0  0  0  0  0  0  0  0  0  0
   -0.3259    0.6823   -0.2233 H   0  0  0  0  0  0  0  0  0  0  0  0
   -1.6760    1.5467    2.4022 H   0  0  0  0  0  0  0  0  0  0  0  0
   -2.4789    1.2637    0.8574 H   0  0  0  0  0  0  0  0  0  0  0  0
    3.0181   -1.4351    1.4648 H   0  0  0  0  0  0  0  0  0  0  0  0
    3.7823   -6.0030    0.2134 H   0  0  0  0  0  0  0  0  0  0  0  0
    2.9172   -5.1962   -1.0441 H   0  0  0  0  0  0  0  0  0  0  0  0
   -2.9563   -1.3425   -1.1466 H   0  0  0  0  0  0  0  0  0  0  0  0
   -5.0483   -0.1591    2.4298 H   0  0  0  0  0  0  0  0  0  0  0  0
   -4.7725   -0.4942   -2.5125 H   0  0  0  0  0  0  0  0  0  0  0  0
   -6.8822    0.7003    1.0959 H   0  0  0  0  0  0  0  0  0  0  0  0
   -8.7168    0.5438   -0.3300 H   0  0  0  0  0  0  0  0  0  0  0  0
   -7.9265    2.1498   -0.3893 H   0  0  0  0  0  0  0  0  0  0  0  0
   -8.9379    1.6001   -1.7150 H   0  0  0  0  0  0  0  0  0  0  0  0
   -6.1329    1.1438   -3.4487 H   0  0  0  0  0  0  0  0  0  0  0  0
   -6.9337   -0.4565   -3.3842 H   0  0  0  0  0  0  0  0  0  0  0  0
   -7.8826    1.0153   -3.5145 H   0  0  0  0  0  0  0  0  0  0  0  0
  1 22  2  0  0  0  0
  2 29  2  0  0  0  0
  3 30  2  0  0  0  0
  4 31  2  0  0  0  0
  5 17  1  0  0  0  0
  5 22  1  0  0  0  0
  5 27  1  0  0  0  0
  6 26  1  0  0  0  0
  6 28  1  0  0  0  0
  6 31  1  0  0  0  0
  7 21  1  0  0  0  0
  7 29  1  0  0  0  0
  7 72  1  0  0  0  0
  8 30  1  0  0  0  0
  8 73  1  0  0  0  0
  8 74  1  0  0  0  0
  9 37  1  0  0  0  0
  9 38  1  0  0  0  0
  9 39  1  0  0  0  0
 10 11  1  0  0  0  0
 10 12  1  0  0  0  0
 10 14  1  0  0  0  0
 10 40  1  0  0  0  0
 11 15  1  0  0  0  0
 11 41  1  0  0  0  0
 11 42  1  0  0  0  0
 12 16  1  0  0  0  0
 12 43  1  0  0  0  0
 12 44  1  0  0  0  0
 13 19  1  0  0  0  0
 13 20  1  0  0  0  0
 13 22  1  0  0  0  0
 13 45  1  0  0  0  0
 14 21  1  0  0  0  0
 14 46  1  0  0  0  0
 14 47  1  0  0  0  0
 15 18  1  0  0  0  0
 15 48  1  0  0  0  0
 15 49  1  0  0  0  0
 16 18  1  0  0  0  0
 16 50  1  0  0  0  0
 16 51  1  0  0  0  0
 17 26  1  0  0  0  0
 17 29  1  0  0  0  0
 17 52  1  0  0  0  0
 18 53  1  0  0  0  0
 18 54  1  0  0  0  0
 19 23  1  0  0  0  0
 19 55  1  0  0  0  0
 19 56  1  0  0  0  0
 20 24  1  0  0  0  0
 20 57  1  0  0  0  0
 20 58  1  0  0  0  0
 21 30  1  0  0  0  0
 21 59  1  0  0  0  0
 23 25  1  0  0  0  0
 23 60  1  0  0  0  0
 23 61  1  0  0  0  0
 24 25  1  0  0  0  0
 24 62  1  0  0  0  0
 24 63  1  0  0  0  0
 25 64  1  0  0  0  0
 25 65  1  0  0  0  0
 26 66  1  0  0  0  0
 26 67  1  0  0  0  0
 27 28  1  0  0  0  0
 27 68  1  0  0  0  0
 27 69  1  0  0  0  0
 28 70  1  0  0  0  0
 28 71  1  0  0  0  0
 31 32  1  0  0  0  0
 32 33  2  0  0  0  0
 32 34  1  0  0  0  0
 33 35  1  0  0  0  0
 33 75  1  0  0  0  0
 34 36  2  0  0  0  0
 34 76  1  0  0  0  0
 35 37  2  0  0  0  0
 35 77  1  0  0  0  0
 36 37  1  0  0  0  0
 36 78  1  0  0  0  0
 38 79  1  0  0  0  0
 38 80  1  0  0  0  0
 38 81  1  0  0  0  0
 39 82  1  0  0  0  0
 39 83  1  0  0  0  0
 39 84  1  0  0  0  0
M  END
> <PUBCHEM_COMPOUND_CID>
45361700

> <PUBCHEM_CONFORMER_RMSD>
1.2

> <PUBCHEM_CONFORMER_DIVERSEORDER>
1
7
44
48
55
56
43
80
76
84
69
105
49
65
35
86
59
104
31
101
130
121
125
41
9
91
66
117
34
123
29
96
131
27
119
46
107
129
62
111
30
122
58
36
78
109
28
26
93
4
16
98
20
38
22
19
33
77
53
70
92
103
132
39
24
95
128
52
88
85
42
133
13
57
51
71
14
37
89
12
64
73
60
108
75
10
114
21
136
5
23
124
72
100
18
17
83
45
67
97
115
112
118
82
135
127
99
87
102
54
50
47
68
32
110
90
113
15
8
11
40
63
81
61
116
3
79
2
120
94
6
126
25
106
134
74

> <PUBCHEM_MMFF94_PARTIAL_CHARGES>
34
1 -0.57
13 0.06
17 0.36
2 -0.57
21 0.36
22 0.57
26 0.3
27 0.3
28 0.3
29 0.57
3 -0.57
30 0.57
31 0.54
32 0.09
33 -0.15
34 -0.15
35 -0.15
36 -0.15
37 0.1
38 0.37
39 0.37
4 -0.57
5 -0.66
6 -0.66
7 -0.73
72 0.37
73 0.37
74 0.37
75 0.15
76 0.15
77 0.15
78 0.15
8 -0.8
9 -0.84

> <PUBCHEM_EFFECTIVE_ROTOR_COUNT>
14.6

> <PUBCHEM_PHARMACOPHORE_FEATURES>
11
1 1 acceptor
1 2 acceptor
1 3 acceptor
1 4 acceptor
1 7 donor
1 8 donor
1 9 cation
6 10 11 12 15 16 18 rings
6 13 19 20 23 24 25 rings
6 32 33 34 35 36 37 rings
6 5 6 17 26 27 28 rings

> <PUBCHEM_HEAVY_ATOM_COUNT>
39

> <PUBCHEM_ATOM_DEF_STEREO_COUNT>
2

> <PUBCHEM_ATOM_UDEF_STEREO_COUNT>
0

> <PUBCHEM_BOND_DEF_STEREO_COUNT>
0

> <PUBCHEM_BOND_UDEF_STEREO_COUNT>
0

> <PUBCHEM_ISOTOPIC_ATOM_COUNT>
0

> <PUBCHEM_COMPONENT_COUNT>
1

> <PUBCHEM_CACTVS_TAUTO_COUNT>
4

> <PUBCHEM_CONFORMER_ID>
02B42A2400000001

> <PUBCHEM_MMFF94_ENERGY>
103.7588

> <PUBCHEM_FEATURE_SELFOVERLAP>
55.823

> <PUBCHEM_SHAPE_FINGERPRINT>
10556698 54 18263634088087458549
10721379 63 18342741827273944824
10974685 15 17758693521395251302
10985338 1 18201438120595505422
10985338 8 16952273125088505140
11115154 58 18119532033498509233
11578080 2 18261958573440544087
11720765 8 18336821979587245802
11763715 3 17980499866583184274
11828422 8 18188209926577557132
12440610 7 17896599673405338419
12633046 712 18191893178946074491
13383661 66 15189652786268744423
13642711 20 18195816382140866636
14747281 78 18409175419990094769
14950920 106 11963656817253078981
15198563 99 17979640031347155094
15351334 14 18266186205051601903
15484559 13 17771618237709050744
15781502 13 16955880356752114098
15968369 26 18336827593336816730
1813 80 17702948019852559651
2132832 1 17972897860421500570
21857420 4 18337105658130430192
23559900 14 17458067028040403979
24941158 1 18265025038487537870
3388396 114 18052008890602800790
376196 1 17972583661656199185
4066623 53 18189331281924041940
508180 173 15648480843849632326
513532 50 18040712584604448045
5223283 242 18339924789006538265

> <PUBCHEM_SHAPE_MULTIPOLES>
754.22
14.31
5.78
3.81
36.63
3.62
4.05
2.48
9.58
-13.05
-2.9
-1.62
-0.39
1.53

> <PUBCHEM_SHAPE_SELFOVERLAP>
1570.799

> <PUBCHEM_SHAPE_VOLUME>
423

> <PUBCHEM_COORDINATE_TYPE>
2
5
10

$$$$
