45784225
  -OEChem-12032416243D

 50 53  0     1  0  0  0  0  0999 V2000
    7.5454    0.0627    0.1046 O   0  0  0  0  0  0  0  0  0  0  0  0
    1.4777    0.9169   -0.4061 N   0  0  1  0  0  0  0  0  0  0  0  0
    5.3389   -0.6100    0.3819 N   0  0  0  0  0  0  0  0  0  0  0  0
   -3.1761    0.2832   -1.3549 N   0  0  0  0  0  0  0  0  0  0  0  0
   -2.5434    0.3538    0.7745 N   0  0  0  0  0  0  0  0  0  0  0  0
    2.5870    0.2861    0.3050 C   0  0  0  0  0  0  0  0  0  0  0  0
   -0.8038    0.9924   -0.9436 C   0  0  2  0  0  0  0  0  0  0  0  0
    0.3191    0.0303   -0.5332 C   0  0  0  0  0  0  0  0  0  0  0  0
    0.9722    2.1009    0.2886 C   0  0  0  0  0  0  0  0  0  0  0  0
   -0.3544    2.3646   -0.4121 C   0  0  0  0  0  0  0  0  0  0  0  0
    3.0426   -0.9743   -0.4419 C   0  0  0  0  0  0  0  0  0  0  0  0
    3.7512    1.2749    0.4477 C   0  0  0  0  0  0  0  0  0  0  0  0
    4.2643   -1.5991    0.2318 C   0  0  0  0  0  0  0  0  0  0  0  0
    4.9576    0.6056    1.1040 C   0  0  0  0  0  0  0  0  0  0  0  0
   -2.1669    0.5434   -0.4702 C   0  0  0  0  0  0  0  0  0  0  0  0
    6.6500   -0.7689   -0.0656 C   0  0  0  0  0  0  0  0  0  0  0  0
   -4.2772   -0.1001   -0.6330 C   0  0  0  0  0  0  0  0  0  0  0  0
   -3.8569   -0.0479    0.6931 C   0  0  0  0  0  0  0  0  0  0  0  0
    6.9622   -2.0466   -0.8028 C   0  0  0  0  0  0  0  0  0  0  0  0
   -5.5654   -0.4765   -1.0146 C   0  0  0  0  0  0  0  0  0  0  0  0
   -4.7623   -0.3879    1.7124 C   0  0  0  0  0  0  0  0  0  0  0  0
   -6.4534   -0.8116    0.0129 C   0  0  0  0  0  0  0  0  0  0  0  0
   -6.0611   -0.7687    1.3528 C   0  0  0  0  0  0  0  0  0  0  0  0
   -7.8474   -1.2233   -0.3315 C   0  0  0  0  0  0  0  0  0  0  0  0
    2.2658   -0.0116    1.3140 H   0  0  0  0  0  0  0  0  0  0  0  0
   -0.8206    1.0569   -2.0414 H   0  0  0  0  0  0  0  0  0  0  0  0
    0.4546   -0.7319   -1.3080 H   0  0  0  0  0  0  0  0  0  0  0  0
    0.0862   -0.4733    0.4145 H   0  0  0  0  0  0  0  0  0  0  0  0
    0.7970    1.9084    1.3549 H   0  0  0  0  0  0  0  0  0  0  0  0
    1.6259    2.9725    0.1867 H   0  0  0  0  0  0  0  0  0  0  0  0
   -1.0787    2.8262    0.2673 H   0  0  0  0  0  0  0  0  0  0  0  0
   -0.2061    3.0504   -1.2558 H   0  0  0  0  0  0  0  0  0  0  0  0
    3.2950   -0.7249   -1.4812 H   0  0  0  0  0  0  0  0  0  0  0  0
    2.2546   -1.7349   -0.4690 H   0  0  0  0  0  0  0  0  0  0  0  0
    3.4766    2.1381    1.0636 H   0  0  0  0  0  0  0  0  0  0  0  0
    4.0448    1.6551   -0.5398 H   0  0  0  0  0  0  0  0  0  0  0  0
    4.0069   -1.9514    1.2379 H   0  0  0  0  0  0  0  0  0  0  0  0
    4.5870   -2.4702   -0.3410 H   0  0  0  0  0  0  0  0  0  0  0  0
    5.7928    1.3118    1.1467 H   0  0  0  0  0  0  0  0  0  0  0  0
    4.7223    0.3140    2.1345 H   0  0  0  0  0  0  0  0  0  0  0  0
   -3.1240    0.3583   -2.3622 H   0  0  0  0  0  0  0  0  0  0  0  0
    8.0139   -2.0442   -1.1058 H   0  0  0  0  0  0  0  0  0  0  0  0
    6.7974   -2.9091   -0.1517 H   0  0  0  0  0  0  0  0  0  0  0  0
    6.3486   -2.1225   -1.7045 H   0  0  0  0  0  0  0  0  0  0  0  0
   -5.8573   -0.5038   -2.0588 H   0  0  0  0  0  0  0  0  0  0  0  0
   -4.4671   -0.3573    2.7563 H   0  0  0  0  0  0  0  0  0  0  0  0
   -6.7656   -1.0310    2.1390 H   0  0  0  0  0  0  0  0  0  0  0  0
   -8.2135   -1.9881    0.3619 H   0  0  0  0  0  0  0  0  0  0  0  0
   -7.8984   -1.6531   -1.3378 H   0  0  0  0  0  0  0  0  0  0  0  0
   -8.5158   -0.3577   -0.2874 H   0  0  0  0  0  0  0  0  0  0  0  0
  1 16  2  0  0  0  0
  2  6  1  0  0  0  0
  2  8  1  0  0  0  0
  2  9  1  0  0  0  0
  3 13  1  0  0  0  0
  3 14  1  0  0  0  0
  3 16  1  0  0  0  0
  4 15  1  0  0  0  0
  4 17  1  0  0  0  0
  4 41  1  0  0  0  0
  5 15  2  0  0  0  0
  5 18  1  0  0  0  0
  6 11  1  0  0  0  0
  6 12  1  0  0  0  0
  6 25  1  0  0  0  0
  7  8  1  0  0  0  0
  7 10  1  0  0  0  0
  7 15  1  0  0  0  0
  7 26  1  0  0  0  0
  8 27  1  0  0  0  0
  8 28  1  0  0  0  0
  9 10  1  0  0  0  0
  9 29  1  0  0  0  0
  9 30  1  0  0  0  0
 10 31  1  0  0  0  0
 10 32  1  0  0  0  0
 11 13  1  0  0  0  0
 11 33  1  0  0  0  0
 11 34  1  0  0  0  0
 12 14  1  0  0  0  0
 12 35  1  0  0  0  0
 12 36  1  0  0  0  0
 13 37  1  0  0  0  0
 13 38  1  0  0  0  0
 14 39  1  0  0  0  0
 14 40  1  0  0  0  0
 16 19  1  0  0  0  0
 17 18  2  0  0  0  0
 17 20  1  0  0  0  0
 18 21  1  0  0  0  0
 19 42  1  0  0  0  0
 19 43  1  0  0  0  0
 19 44  1  0  0  0  0
 20 22  2  0  0  0  0
 20 45  1  0  0  0  0
 21 23  2  0  0  0  0
 21 46  1  0  0  0  0
 22 23  1  0  0  0  0
 22 24  1  0  0  0  0
 23 47  1  0  0  0  0
 24 48  1  0  0  0  0
 24 49  1  0  0  0  0
 24 50  1  0  0  0  0
M  END
> <PUBCHEM_COMPOUND_CID>
45784225

> <PUBCHEM_CONFORMER_RMSD>
0.8

> <PUBCHEM_CONFORMER_DIVERSEORDER>
1
46
37
48
15
56
38
55
36
53
41
13
40
34
14
28
2
43
52
49
23
31
32
21
16
33
11
42
45
26
27
4
54
29
44
7
12
30
47
5
10
19
35
18
22
3
8
24
50
9
6
25
20
17
51
39

> <PUBCHEM_MMFF94_PARTIAL_CHARGES>
25
1 -0.57
13 0.3
14 0.3
15 0.01
16 0.57
17 -0.15
18 0.23
19 0.06
2 -0.81
20 -0.15
21 -0.15
22 -0.14
23 -0.15
24 0.14
3 -0.66
4 0.03
41 0.27
45 0.15
46 0.15
47 0.15
5 -0.57
6 0.27
7 0.18
8 0.27
9 0.27

> <PUBCHEM_EFFECTIVE_ROTOR_COUNT>
5.2

> <PUBCHEM_PHARMACOPHORE_FEATURES>
8
1 1 acceptor
1 2 cation
1 4 donor
3 4 5 15 cation
5 2 7 8 9 10 rings
5 4 5 15 17 18 rings
6 17 18 20 21 22 23 rings
6 3 6 11 12 13 14 rings

> <PUBCHEM_HEAVY_ATOM_COUNT>
24

> <PUBCHEM_ATOM_DEF_STEREO_COUNT>
1

> <PUBCHEM_ATOM_UDEF_STEREO_COUNT>
0

> <PUBCHEM_BOND_DEF_STEREO_COUNT>
0

> <PUBCHEM_BOND_UDEF_STEREO_COUNT>
0

> <PUBCHEM_ISOTOPIC_ATOM_COUNT>
0

> <PUBCHEM_COMPONENT_COUNT>
1

> <PUBCHEM_CACTVS_TAUTO_COUNT>
2

> <PUBCHEM_CONFORMER_ID>
02BA9CA100000001

> <PUBCHEM_MMFF94_ENERGY>
41.8174

> <PUBCHEM_FEATURE_SELFOVERLAP>
40.704

> <PUBCHEM_SHAPE_FINGERPRINT>
10299344 5 17632858633665025214
106641 1 17775563169538694658
11315181 36 17022625282329421685
11796584 16 17095239246235526201
12166972 35 18202282528272012336
12236239 1 17489867163204219585
12516196 113 18409444795357980945
12596602 18 17203325632507158643
12760667 363 18335423461216471929
13288520 33 17385723608734934717
13402501 40 18186241735986154451
13533116 47 18271804674292479096
13668630 136 18261109703794299611
13673619 4 18333448742137772060
13685833 64 18409729564521574222
13885169 127 18334854983941035557
13914758 101 18342457029163645649
14123256 34 18260834799399860643
14251764 18 17418374709716434308
14739800 52 15839846654944305792
14849402 71 17059484275094396296
15183329 4 14923940146212932119
15238133 3 14836402549758815880
15301273 46 17703513203067370005
15461852 350 15267053736756981989
15510800 12 18114194063839865979
15537594 2 18410849958739903150
15690457 1 18130783495416581711
15716309 27 18131632283347424143
17844677 252 18410013234274767165
18006028 8 18334857220885630709
1813 80 18341625797160068869
18335252 114 8358263618152121602
18335252 98 18412263922836030662
18681886 176 15502659350976055957
20281389 69 12895351088586926778
20715895 44 9007049180822235134
21033650 10 15719665473200491973
21049683 271 18334579075263611468
21150785 3 15140681384275294886
21267235 1 18342458123894730204
21585482 111 8933840381474632102
21623969 137 18410576175833146846
22224240 67 17918270965530347406
22288116 15 12540992819071123689
2297311 6 16732980934445916813
23522609 53 18127160586933249248
23559900 14 16733550554425702069
246663 6 18343024376794196118
2838139 119 11527942327020901138
3004659 81 16732984244995328756
3009799 131 13479136795981296206
33532 11 18343018878756425078
335352 9 16009022905301100143
34797466 226 17022905691632192372
4340502 62 14836408029942192860
437815 12 18186801396521997901
445580 126 9799694770779846566
465052 167 18413673525952906116
5104073 3 18199177387993311600
5385378 56 11815627367217942436
54039377 194 18129947759748849182
59755656 215 17894629240555689546
59755656 520 12103557567857669973
636775 8 18113912545981884546
9663363 56 18333724723755962637
9862886 166 17240490216716595490

> <PUBCHEM_SHAPE_MULTIPOLES>
468.12
21.48
1.74
1.17
2.83
0.42
0.2
-12.93
1.5
1.75
-0.19
-1.25
-0.05
0.89

> <PUBCHEM_SHAPE_SELFOVERLAP>
1003.886

> <PUBCHEM_SHAPE_VOLUME>
259.5

> <PUBCHEM_COORDINATE_TYPE>
2
5
10

$$$$
