51137933
  -OEChem-12032416243D

 44 47  0     1  0  0  0  0  0999 V2000
    5.2725   -2.2687   -0.9042 F   0  0  0  0  0  0  0  0  0  0  0  0
    3.4621   -2.0103   -2.0803 F   0  0  0  0  0  0  0  0  0  0  0  0
    4.9957   -0.4769   -2.1045 F   0  0  0  0  0  0  0  0  0  0  0  0
   -1.7629    0.9801   -0.3941 O   0  0  0  0  0  0  0  0  0  0  0  0
   -1.6296   -0.9570    1.2928 O   0  0  0  0  0  0  0  0  0  0  0  0
    1.2366    1.7878    0.4586 N   0  0  0  0  0  0  0  0  0  0  0  0
   -2.9808    2.7625   -0.9805 N   0  0  0  0  0  0  0  0  0  0  0  0
    2.7584    0.2536   -0.3800 N   0  0  0  0  0  0  0  0  0  0  0  0
    2.4775    0.5707    1.9923 N   0  0  0  0  0  0  0  0  0  0  0  0
   -3.8318    1.6776   -0.8814 N   0  0  0  0  0  0  0  0  0  0  0  0
   -0.4567    3.0458   -0.6336 C   0  0  1  0  0  0  0  0  0  0  0  0
   -0.1943    3.6338    0.7563 C   0  0  0  0  0  0  0  0  0  0  0  0
    0.8104    2.2042   -0.8779 C   0  0  0  0  0  0  0  0  0  0  0  0
    0.5262    2.5141    1.5071 C   0  0  0  0  0  0  0  0  0  0  0  0
   -1.7845    2.3090   -0.6875 C   0  0  0  0  0  0  0  0  0  0  0  0
    2.1984    0.8299    0.7006 C   0  0  0  0  0  0  0  0  0  0  0  0
   -3.0780    0.6597   -0.5372 C   0  0  0  0  0  0  0  0  0  0  0  0
    3.6952   -0.6783   -0.1071 C   0  0  0  0  0  0  0  0  0  0  0  0
   -3.4200   -0.7115   -0.2929 C   0  0  0  0  0  0  0  0  0  0  0  0
    3.4231   -0.3707    2.1926 C   0  0  0  0  0  0  0  0  0  0  0  0
    4.0720   -1.0348    1.1717 C   0  0  0  0  0  0  0  0  0  0  0  0
   -2.6889   -1.4809    0.6121 C   0  0  0  0  0  0  0  0  0  0  0  0
    4.3412   -1.3431   -1.2759 C   0  0  0  0  0  0  0  0  0  0  0  0
   -4.4982   -1.2745   -0.9755 C   0  0  0  0  0  0  0  0  0  0  0  0
   -3.0361   -2.8133    0.8346 C   0  0  0  0  0  0  0  0  0  0  0  0
   -4.8455   -2.6071   -0.7530 C   0  0  0  0  0  0  0  0  0  0  0  0
   -4.1144   -3.3766    0.1520 C   0  0  0  0  0  0  0  0  0  0  0  0
   -0.9477   -1.8252    2.1949 C   0  0  0  0  0  0  0  0  0  0  0  0
   -0.5166    3.8460   -1.3815 H   0  0  0  0  0  0  0  0  0  0  0  0
    0.4783    4.4962    0.6641 H   0  0  0  0  0  0  0  0  0  0  0  0
   -1.0964    3.9655    1.2801 H   0  0  0  0  0  0  0  0  0  0  0  0
    0.6108    1.3516   -1.5365 H   0  0  0  0  0  0  0  0  0  0  0  0
    1.5957    2.8231   -1.3278 H   0  0  0  0  0  0  0  0  0  0  0  0
    1.2039    2.9328    2.2588 H   0  0  0  0  0  0  0  0  0  0  0  0
   -0.1917    1.8508    2.0027 H   0  0  0  0  0  0  0  0  0  0  0  0
    3.6519   -0.5839    3.2313 H   0  0  0  0  0  0  0  0  0  0  0  0
    4.8243   -1.7834    1.3832 H   0  0  0  0  0  0  0  0  0  0  0  0
   -5.0800   -0.6934   -1.6872 H   0  0  0  0  0  0  0  0  0  0  0  0
   -2.5177   -3.4745    1.5202 H   0  0  0  0  0  0  0  0  0  0  0  0
   -5.6847   -3.0459   -1.2849 H   0  0  0  0  0  0  0  0  0  0  0  0
   -4.3857   -4.4142    0.3242 H   0  0  0  0  0  0  0  0  0  0  0  0
   -1.5981   -2.1516    3.0136 H   0  0  0  0  0  0  0  0  0  0  0  0
   -0.4770   -2.6644    1.6714 H   0  0  0  0  0  0  0  0  0  0  0  0
   -0.1383   -1.2435    2.6486 H   0  0  0  0  0  0  0  0  0  0  0  0
  1 23  1  0  0  0  0
  2 23  1  0  0  0  0
  3 23  1  0  0  0  0
  4 15  1  0  0  0  0
  4 17  1  0  0  0  0
  5 22  1  0  0  0  0
  5 28  1  0  0  0  0
  6 13  1  0  0  0  0
  6 14  1  0  0  0  0
  6 16  1  0  0  0  0
  7 10  1  0  0  0  0
  7 15  2  0  0  0  0
  8 16  1  0  0  0  0
  8 18  2  0  0  0  0
  9 16  2  0  0  0  0
  9 20  1  0  0  0  0
 10 17  2  0  0  0  0
 11 12  1  0  0  0  0
 11 13  1  0  0  0  0
 11 15  1  0  0  0  0
 11 29  1  0  0  0  0
 12 14  1  0  0  0  0
 12 30  1  0  0  0  0
 12 31  1  0  0  0  0
 13 32  1  0  0  0  0
 13 33  1  0  0  0  0
 14 34  1  0  0  0  0
 14 35  1  0  0  0  0
 17 19  1  0  0  0  0
 18 21  1  0  0  0  0
 18 23  1  0  0  0  0
 19 22  1  0  0  0  0
 19 24  2  0  0  0  0
 20 21  2  0  0  0  0
 20 36  1  0  0  0  0
 21 37  1  0  0  0  0
 22 25  2  0  0  0  0
 24 26  1  0  0  0  0
 24 38  1  0  0  0  0
 25 27  1  0  0  0  0
 25 39  1  0  0  0  0
 26 27  2  0  0  0  0
 26 40  1  0  0  0  0
 27 41  1  0  0  0  0
 28 42  1  0  0  0  0
 28 43  1  0  0  0  0
 28 44  1  0  0  0  0
M  END
> <PUBCHEM_COMPOUND_CID>
51137933

> <PUBCHEM_CONFORMER_RMSD>
0.8

> <PUBCHEM_CONFORMER_DIVERSEORDER>
8
109
106
150
55
40
160
131
164
209
137
142
213
189
3
52
57
163
104
174
1
19
165
69
28
200
45
125
154
171
243
18
63
96
188
117
228
168
92
128
26
124
76
219
208
34
129
100
136
43
94
107
135
231
64
232
4
179
144
41
88
21
196
206
211
120
32
49
226
155
98
2
245
14
158
172
139
66
241
132
23
242
119
89
81
84
71
17
239
123
61
141
145
58
48
105
215
175
161
115
22
159
246
218
151
220
72
162
62
60
95
153
27
167
5
31
227
233
91
78
134
77
70
93
140
127
54
87
198
16
36
79
230
186
118
212
178
133
143
47
39
176
181
201
20
202
234
205
74
138
33
24
223
110
35
37
44
83
170
184
10
56
185
51
103
195
80
182
177
82
99
65
46
217
53
6
191
111
210
149
173
197
166
30
180
90
12
203
157
97
187
38
224
229
112
11
183
214
13
121
222
190
148
116
102
193
244
156
126
86
67
199
130
59
194
29
238
7
75
108
146
50
85
73
192
216
240
15
221
152
9
237
25
42
68
147
114
169
122
236
207
225
204
113
235
101

> <PUBCHEM_MMFF94_PARTIAL_CHARGES>
33
1 -0.34
10 -0.34
11 0.18
13 0.37
14 0.37
15 0.3
16 0.72
17 0.43
18 0.17
19 0.05
2 -0.34
20 0.16
21 -0.15
22 0.08
23 1.16
24 -0.15
25 -0.15
26 -0.15
27 -0.15
28 0.28
3 -0.34
36 0.15
37 0.15
38 0.15
39 0.15
4 -0.28
40 0.15
41 0.15
5 -0.36
6 -0.84
7 -0.34
8 -0.62
9 -0.62

> <PUBCHEM_EFFECTIVE_ROTOR_COUNT>
6

> <PUBCHEM_PHARMACOPHORE_FEATURES>
7
1 5 acceptor
1 8 acceptor
4 6 8 9 16 cation
5 4 7 10 15 17 rings
5 6 11 12 13 14 rings
6 19 22 24 25 26 27 rings
6 8 9 16 18 20 21 rings

> <PUBCHEM_HEAVY_ATOM_COUNT>
28

> <PUBCHEM_ATOM_DEF_STEREO_COUNT>
1

> <PUBCHEM_ATOM_UDEF_STEREO_COUNT>
0

> <PUBCHEM_BOND_DEF_STEREO_COUNT>
0

> <PUBCHEM_BOND_UDEF_STEREO_COUNT>
0

> <PUBCHEM_ISOTOPIC_ATOM_COUNT>
0

> <PUBCHEM_COMPONENT_COUNT>
1

> <PUBCHEM_CACTVS_TAUTO_COUNT>
1

> <PUBCHEM_CONFORMER_ID>
030C4D8D00000008

> <PUBCHEM_MMFF94_ENERGY>
76.2117

> <PUBCHEM_FEATURE_SELFOVERLAP>
35.523

> <PUBCHEM_SHAPE_FINGERPRINT>
10577160 103 18263663882802279980
10928967 22 18333450967157711147
12363563 72 18411420643475217543
12422481 6 12607143797515178739
12553582 1 18187369852180024171
12596599 1 18341890779646576481
12788726 201 18187931633680963553
13402501 40 18200873976546099966
13583140 156 16056875840577624003
13911882 115 18201994456873913344
14251757 5 18262526892039482894
14790565 3 17833820583068942329
14866123 147 18337382752662141497
14950920 106 15123503739647341695
15420108 30 16974751708121110288
15475509 8 18411696591915851103
16752209 62 18041273292442516314
17909252 39 18268724951424617756
20403669 9 18410284852591267959
20600515 1 18263341643305148756
20775438 99 17546429537610233975
20775530 9 18339365270183444435
21279426 13 18116974759343467367
21781051 124 17967254175095332525
22440779 20 16339807580665563444
23559900 14 18263638631908876661
4280585 95 18260261933105827524
437795 70 18410857646915609063
484985 159 17771644363910365146
508706 21 18411415086157256839
6823239 73 18413103983309068330
9709674 26 18191575557513764641
9862886 166 18268429032668179854

> <PUBCHEM_SHAPE_MULTIPOLES>
517.76
10.31
4.35
1.87
2.54
2
0.27
-10.14
-3.81
-2.64
-0.21
2.13
-0.7
1.92

> <PUBCHEM_SHAPE_SELFOVERLAP>
1135.765

> <PUBCHEM_SHAPE_VOLUME>
282.6

> <PUBCHEM_COORDINATE_TYPE>
2
5
10

$$$$
