40781655
  -OEChem-12032416253D

 61 62  0     1  0  0  0  0  0999 V2000
   -2.2484   -0.3531    0.5689 O   0  0  0  0  0  0  0  0  0  0  0  0
   -5.0680   -0.9981    1.5136 O   0  0  0  0  0  0  0  0  0  0  0  0
   -5.4488    1.0036   -0.3348 O   0  0  0  0  0  0  0  0  0  0  0  0
   -0.0987   -0.8430   -1.4164 O   0  0  0  0  0  0  0  0  0  0  0  0
   -0.7750    1.9138    1.3111 O   0  0  0  0  0  0  0  0  0  0  0  0
    1.2257   -2.5179   -0.5047 N   0  0  0  0  0  0  0  0  0  0  0  0
   -1.0727   -2.7324   -0.4828 N   0  0  0  0  0  0  0  0  0  0  0  0
   -0.4167    3.2242   -0.5745 N   0  0  0  0  0  0  0  0  0  0  0  0
    3.2472    3.7202   -0.1283 N   0  0  0  0  0  0  0  0  0  0  0  0
   -3.0094   -1.5766    0.4462 C   0  0  1  0  0  0  0  0  0  0  0  0
   -4.4605   -1.1603    0.2325 C   0  0  2  0  0  0  0  0  0  0  0  0
   -4.3059    0.1831   -0.4499 C   0  0  2  0  0  0  0  0  0  0  0  0
   -3.1109    0.7632    0.2872 C   0  0  2  0  0  0  0  0  0  0  0  0
    2.5072   -1.9034   -0.7712 C   0  0  0  0  0  0  0  0  0  0  0  0
   -2.4371   -2.3656   -0.7235 C   0  0  0  0  0  0  0  0  0  0  0  0
    2.9213   -0.9741    0.3748 C   0  0  0  0  0  0  0  0  0  0  0  0
    3.5806   -2.9628   -1.0426 C   0  0  0  0  0  0  0  0  0  0  0  0
   -2.3536    1.8040   -0.5181 C   0  0  0  0  0  0  0  0  0  0  0  0
    3.3222   -1.7417    1.6345 C   0  0  0  0  0  0  0  0  0  0  0  0
    3.9804   -3.7272    0.2195 C   0  0  0  0  0  0  0  0  0  0  0  0
    4.3990   -2.7819    1.3414 C   0  0  0  0  0  0  0  0  0  0  0  0
    0.0121   -1.9310   -0.8527 C   0  0  0  0  0  0  0  0  0  0  0  0
   -1.1080    2.2986    0.1935 C   0  0  0  0  0  0  0  0  0  0  0  0
    0.8057    3.8576   -0.1361 C   0  0  0  0  0  0  0  0  0  0  0  0
    2.0254    3.0502   -0.5548 C   0  0  0  0  0  0  0  0  0  0  0  0
    4.3889    3.2699   -0.9270 C   0  0  0  0  0  0  0  0  0  0  0  0
    3.4980    3.4808    1.2943 C   0  0  0  0  0  0  0  0  0  0  0  0
   -2.8757   -2.1356    1.3797 H   0  0  0  0  0  0  0  0  0  0  0  0
   -5.0636   -1.8721   -0.3383 H   0  0  0  0  0  0  0  0  0  0  0  0
   -4.0770    0.0422   -1.5130 H   0  0  0  0  0  0  0  0  0  0  0  0
   -3.4160    1.1982    1.2480 H   0  0  0  0  0  0  0  0  0  0  0  0
    2.3919   -1.2945   -1.6766 H   0  0  0  0  0  0  0  0  0  0  0  0
   -2.4765   -1.7826   -1.6501 H   0  0  0  0  0  0  0  0  0  0  0  0
   -3.0020   -3.2912   -0.8743 H   0  0  0  0  0  0  0  0  0  0  0  0
    2.1076   -0.2818    0.6206 H   0  0  0  0  0  0  0  0  0  0  0  0
    3.7718   -0.3619    0.0488 H   0  0  0  0  0  0  0  0  0  0  0  0
    4.4715   -2.4705   -1.4531 H   0  0  0  0  0  0  0  0  0  0  0  0
    3.2314   -3.6728   -1.8020 H   0  0  0  0  0  0  0  0  0  0  0  0
   -2.9995    2.6628   -0.7334 H   0  0  0  0  0  0  0  0  0  0  0  0
   -2.0268    1.3730   -1.4729 H   0  0  0  0  0  0  0  0  0  0  0  0
    2.4418   -2.2365    2.0623 H   0  0  0  0  0  0  0  0  0  0  0  0
    3.6880   -1.0377    2.3908 H   0  0  0  0  0  0  0  0  0  0  0  0
    4.8088   -4.4061   -0.0134 H   0  0  0  0  0  0  0  0  0  0  0  0
    3.1480   -4.3546    0.5593 H   0  0  0  0  0  0  0  0  0  0  0  0
    5.3293   -2.2730    1.0603 H   0  0  0  0  0  0  0  0  0  0  0  0
    4.6127   -3.3578    2.2488 H   0  0  0  0  0  0  0  0  0  0  0  0
    1.1996   -3.3843    0.0236 H   0  0  0  0  0  0  0  0  0  0  0  0
   -0.8858   -3.6123   -0.0117 H   0  0  0  0  0  0  0  0  0  0  0  0
   -5.1123   -1.8771    1.9275 H   0  0  0  0  0  0  0  0  0  0  0  0
   -6.1960    0.5187   -0.7247 H   0  0  0  0  0  0  0  0  0  0  0  0
   -0.7728    3.4705   -1.4935 H   0  0  0  0  0  0  0  0  0  0  0  0
    0.8275    4.8555   -0.5885 H   0  0  0  0  0  0  0  0  0  0  0  0
    0.7494    3.9807    0.9498 H   0  0  0  0  0  0  0  0  0  0  0  0
    1.9686    2.0209   -0.1792 H   0  0  0  0  0  0  0  0  0  0  0  0
    1.9997    2.9719   -1.6505 H   0  0  0  0  0  0  0  0  0  0  0  0
    4.5582    2.1910   -0.8323 H   0  0  0  0  0  0  0  0  0  0  0  0
    4.2363    3.5050   -1.9864 H   0  0  0  0  0  0  0  0  0  0  0  0
    5.3028    3.7914   -0.6213 H   0  0  0  0  0  0  0  0  0  0  0  0
    4.4182    3.9875    1.6078 H   0  0  0  0  0  0  0  0  0  0  0  0
    2.7011    3.8904    1.9222 H   0  0  0  0  0  0  0  0  0  0  0  0
    3.6053    2.4138    1.5226 H   0  0  0  0  0  0  0  0  0  0  0  0
  1 10  1  0  0  0  0
  1 13  1  0  0  0  0
  2 11  1  0  0  0  0
  2 49  1  0  0  0  0
  3 12  1  0  0  0  0
  3 50  1  0  0  0  0
  4 22  2  0  0  0  0
  5 23  2  0  0  0  0
  6 14  1  0  0  0  0
  6 22  1  0  0  0  0
  6 47  1  0  0  0  0
  7 15  1  0  0  0  0
  7 22  1  0  0  0  0
  7 48  1  0  0  0  0
  8 23  1  0  0  0  0
  8 24  1  0  0  0  0
  8 51  1  0  0  0  0
  9 25  1  0  0  0  0
  9 26  1  0  0  0  0
  9 27  1  0  0  0  0
 10 11  1  0  0  0  0
 10 15  1  0  0  0  0
 10 28  1  0  0  0  0
 11 12  1  0  0  0  0
 11 29  1  0  0  0  0
 12 13  1  0  0  0  0
 12 30  1  0  0  0  0
 13 18  1  0  0  0  0
 13 31  1  0  0  0  0
 14 16  1  0  0  0  0
 14 17  1  0  0  0  0
 14 32  1  0  0  0  0
 15 33  1  0  0  0  0
 15 34  1  0  0  0  0
 16 19  1  0  0  0  0
 16 35  1  0  0  0  0
 16 36  1  0  0  0  0
 17 20  1  0  0  0  0
 17 37  1  0  0  0  0
 17 38  1  0  0  0  0
 18 23  1  0  0  0  0
 18 39  1  0  0  0  0
 18 40  1  0  0  0  0
 19 21  1  0  0  0  0
 19 41  1  0  0  0  0
 19 42  1  0  0  0  0
 20 21  1  0  0  0  0
 20 43  1  0  0  0  0
 20 44  1  0  0  0  0
 21 45  1  0  0  0  0
 21 46  1  0  0  0  0
 24 25  1  0  0  0  0
 24 52  1  0  0  0  0
 24 53  1  0  0  0  0
 25 54  1  0  0  0  0
 25 55  1  0  0  0  0
 26 56  1  0  0  0  0
 26 57  1  0  0  0  0
 26 58  1  0  0  0  0
 27 59  1  0  0  0  0
 27 60  1  0  0  0  0
 27 61  1  0  0  0  0
M  END
> <PUBCHEM_COMPOUND_CID>
40781655

> <PUBCHEM_CONFORMER_RMSD>
1.2

> <PUBCHEM_CONFORMER_DIVERSEORDER>
1
154
171
53
129
117
91
150
189
137
188
79
163
74
36
26
135
172
131
175
178
132
177
71
33
169
192
39
118
51
134
179
155
94
35
133
98
85
19
102
112
183
12
69
174
176
75
191
42
184
46
190
27
144
157
167
11
193
84
138
70
9
136
44
110
194
185
152
187
90
162
25
151
101
160
99
111
148
170
124
87
114
55
130
14
119
66
38
92
56
68
81
165
143
63
104
80
62
126
115
78
67
186
96
58
82
24
22
180
156
13
159
86
153
107
141
116
127
57
113
103
31
47
125
16
173
149
30
20
145
59
121
106
181
168
93
139
182
65
64
23
32
45
49
5
97
89
123
76
7
158
146
28
100
109
43
48
61
142
128
60
73
120
10
17
161
166
8
83
15
54
88
52
122
105
147
72
3
108
29
95
37
21
164
6
140
77
50
4
40
34
18
41
2

> <PUBCHEM_MMFF94_PARTIAL_CHARGES>
27
1 -0.56
10 0.28
11 0.28
12 0.28
13 0.28
14 0.3
15 0.3
18 0.06
2 -0.68
22 0.69
23 0.57
24 0.3
25 0.27
26 0.27
27 0.27
3 -0.68
4 -0.57
47 0.37
48 0.37
49 0.4
5 -0.57
50 0.4
51 0.37
6 -0.73
7 -0.73
8 -0.73
9 -0.81

> <PUBCHEM_EFFECTIVE_ROTOR_COUNT>
13.2

> <PUBCHEM_PHARMACOPHORE_FEATURES>
13
1 1 acceptor
1 2 acceptor
1 2 donor
1 3 acceptor
1 3 donor
1 4 acceptor
1 5 acceptor
1 6 donor
1 7 donor
1 8 donor
1 9 cation
5 1 10 11 12 13 rings
6 14 16 17 19 20 21 rings

> <PUBCHEM_HEAVY_ATOM_COUNT>
27

> <PUBCHEM_ATOM_DEF_STEREO_COUNT>
4

> <PUBCHEM_ATOM_UDEF_STEREO_COUNT>
0

> <PUBCHEM_BOND_DEF_STEREO_COUNT>
0

> <PUBCHEM_BOND_UDEF_STEREO_COUNT>
0

> <PUBCHEM_ISOTOPIC_ATOM_COUNT>
0

> <PUBCHEM_COMPONENT_COUNT>
1

> <PUBCHEM_CACTVS_TAUTO_COUNT>
6

> <PUBCHEM_CONFORMER_ID>
026E475700000001

> <PUBCHEM_MMFF94_ENERGY>
39.8343

> <PUBCHEM_FEATURE_SELFOVERLAP>
66.038

> <PUBCHEM_SHAPE_FINGERPRINT>
11578080 2 17459727350758939503
12422481 6 18194656346177048784
12596602 18 17603877654335225002
12788726 201 18117571621678636442
13402501 40 17984690126296234875
138480 1 18411140208107556372
14117953 113 17836084476998427925
14790565 3 17905047311003298596
16120349 306 17981317112659522336
16719943 64 17906173211395139020
167882 2 18410570717420200749
17627616 140 18337391664207480348
17859628 97 17978797040371642925
21033648 29 17557681604474318314
21344244 246 18267568282672676159
23559900 14 18339357470269419339
3298306 158 18265335199482798173
338550 245 18119530083916290076
469060 322 18124611781772492515
5385378 56 18269006447665090561
57091435 65 18409730707415580060
79837 15 17472699608066231114

> <PUBCHEM_SHAPE_MULTIPOLES>
506.38
10.07
6.31
1.26
4.81
4.48
-0.27
-3.16
-1.92
-8.86
0.43
-0.69
-0.28
-0.33

> <PUBCHEM_SHAPE_SELFOVERLAP>
1013.315

> <PUBCHEM_SHAPE_VOLUME>
297.3

> <PUBCHEM_COORDINATE_TYPE>
2
5
10

$$$$
