38030616
  -OEChem-12032416263D

 71 74  0     1  0  0  0  0  0999 V2000
    5.2057   -5.3625    0.1437 O   0  0  0  0  0  0  0  0  0  0  0  0
   -2.7699    0.8659    0.7426 O   0  0  0  0  0  0  0  0  0  0  0  0
    3.3909   -0.5752    0.5733 N   0  0  0  0  0  0  0  0  0  0  0  0
   -3.2465    2.6726   -0.4873 N   0  0  0  0  0  0  0  0  0  0  0  0
   -4.1199    1.6650   -0.8522 N   0  0  0  0  0  0  0  0  0  0  0  0
    1.6735    1.3843   -0.7702 C   0  0  1  0  0  0  0  0  0  0  0  0
    2.7193    1.7794    0.2983 C   0  0  2  0  0  0  0  0  0  0  0  0
    0.2530    1.4911   -0.1979 C   0  0  0  0  0  0  0  0  0  0  0  0
   -0.0805    2.8941    0.3531 C   0  0  2  0  0  0  0  0  0  0  0  0
    2.9810    0.6359    1.2839 C   0  0  0  0  0  0  0  0  0  0  0  0
    1.8248    2.2314   -2.0411 C   0  0  0  0  0  0  0  0  0  0  0  0
    2.3243    3.0150    1.0660 C   0  0  0  0  0  0  0  0  0  0  0  0
    1.0834    3.5352    1.0936 C   0  0  0  0  0  0  0  0  0  0  0  0
    3.1983   -1.7589    1.4216 C   0  0  0  0  0  0  0  0  0  0  0  0
    4.7865   -0.4628    0.1286 C   0  0  0  0  0  0  0  0  0  0  0  0
    5.0118   -2.9813    0.1517 C   0  0  0  0  0  0  0  0  0  0  0  0
   -1.3497    2.7951    1.2086 C   0  0  0  0  0  0  0  0  0  0  0  0
    3.5723   -3.0405    0.6739 C   0  0  0  0  0  0  0  0  0  0  0  0
    5.2144   -1.6998   -0.6637 C   0  0  0  0  0  0  0  0  0  0  0  0
    0.8215    1.7857   -3.1001 C   0  0  0  0  0  0  0  0  0  0  0  0
    3.2508    2.1402   -2.5747 C   0  0  0  0  0  0  0  0  0  0  0  0
    0.8176    4.8232    1.8235 C   0  0  0  0  0  0  0  0  0  0  0  0
    5.3456   -4.2181   -0.6779 C   0  0  0  0  0  0  0  0  0  0  0  0
   -2.4776    2.1616    0.4457 C   0  0  0  0  0  0  0  0  0  0  0  0
   -3.8050    0.6299   -0.1091 C   0  0  0  0  0  0  0  0  0  0  0  0
   -4.3729   -0.6860   -0.0570 C   0  0  0  0  0  0  0  0  0  0  0  0
   -4.1739   -1.4873    1.0674 C   0  0  0  0  0  0  0  0  0  0  0  0
   -5.1252   -1.1642   -1.1299 C   0  0  0  0  0  0  0  0  0  0  0  0
   -4.7268   -2.7668    1.1186 C   0  0  0  0  0  0  0  0  0  0  0  0
   -5.6781   -2.4437   -1.0787 C   0  0  0  0  0  0  0  0  0  0  0  0
   -5.4789   -3.2450    0.0455 C   0  0  0  0  0  0  0  0  0  0  0  0
   -6.0697   -4.6133    0.1004 C   0  0  0  0  0  0  0  0  0  0  0  0
    1.8195    0.3398   -1.0727 H   0  0  0  0  0  0  0  0  0  0  0  0
    3.6775    2.0279   -0.1579 H   0  0  0  0  0  0  0  0  0  0  0  0
   -0.4857    1.1710   -0.9390 H   0  0  0  0  0  0  0  0  0  0  0  0
    0.1647    0.7566    0.6149 H   0  0  0  0  0  0  0  0  0  0  0  0
   -0.3038    3.5445   -0.5048 H   0  0  0  0  0  0  0  0  0  0  0  0
    2.0582    0.4432    1.8478 H   0  0  0  0  0  0  0  0  0  0  0  0
    3.7300    0.9267    2.0340 H   0  0  0  0  0  0  0  0  0  0  0  0
    1.6305    3.2903   -1.8329 H   0  0  0  0  0  0  0  0  0  0  0  0
    3.1233    3.5116    1.6128 H   0  0  0  0  0  0  0  0  0  0  0  0
    2.1450   -1.8384    1.7175 H   0  0  0  0  0  0  0  0  0  0  0  0
    3.7914   -1.6808    2.3423 H   0  0  0  0  0  0  0  0  0  0  0  0
    4.9295    0.3985   -0.5303 H   0  0  0  0  0  0  0  0  0  0  0  0
    5.4604   -0.3288    0.9853 H   0  0  0  0  0  0  0  0  0  0  0  0
    5.6807   -2.9576    1.0231 H   0  0  0  0  0  0  0  0  0  0  0  0
    3.4442   -3.8941    1.3500 H   0  0  0  0  0  0  0  0  0  0  0  0
    2.8755   -3.1895   -0.1617 H   0  0  0  0  0  0  0  0  0  0  0  0
    4.6366   -1.7521   -1.5961 H   0  0  0  0  0  0  0  0  0  0  0  0
    6.2688   -1.6021   -0.9483 H   0  0  0  0  0  0  0  0  0  0  0  0
   -1.1570    2.2222    2.1246 H   0  0  0  0  0  0  0  0  0  0  0  0
   -1.6854    3.7909    1.5212 H   0  0  0  0  0  0  0  0  0  0  0  0
    0.8621    0.7039   -3.2667 H   0  0  0  0  0  0  0  0  0  0  0  0
    1.0292    2.2740   -4.0591 H   0  0  0  0  0  0  0  0  0  0  0  0
   -0.2042    2.0608   -2.8375 H   0  0  0  0  0  0  0  0  0  0  0  0
    3.6149    1.1076   -2.5918 H   0  0  0  0  0  0  0  0  0  0  0  0
    3.9515    2.7578   -2.0058 H   0  0  0  0  0  0  0  0  0  0  0  0
    3.3007    2.5172   -3.6031 H   0  0  0  0  0  0  0  0  0  0  0  0
    0.3126    5.5363    1.1638 H   0  0  0  0  0  0  0  0  0  0  0  0
    1.7412    5.2990    2.1707 H   0  0  0  0  0  0  0  0  0  0  0  0
    0.1891    4.6481    2.7020 H   0  0  0  0  0  0  0  0  0  0  0  0
    6.3777   -4.1744   -1.0407 H   0  0  0  0  0  0  0  0  0  0  0  0
    4.6744   -4.3168   -1.5377 H   0  0  0  0  0  0  0  0  0  0  0  0
    5.4250   -6.1364   -0.4026 H   0  0  0  0  0  0  0  0  0  0  0  0
   -3.5996   -1.1418    1.9234 H   0  0  0  0  0  0  0  0  0  0  0  0
   -5.2914   -0.5563   -2.0161 H   0  0  0  0  0  0  0  0  0  0  0  0
   -4.5677   -3.3807    2.0013 H   0  0  0  0  0  0  0  0  0  0  0  0
   -6.2633   -2.8046   -1.9203 H   0  0  0  0  0  0  0  0  0  0  0  0
   -7.0691   -4.5734    0.5446 H   0  0  0  0  0  0  0  0  0  0  0  0
   -6.1479   -5.0507   -0.9009 H   0  0  0  0  0  0  0  0  0  0  0  0
   -5.4469   -5.2888    0.6968 H   0  0  0  0  0  0  0  0  0  0  0  0
  1 23  1  0  0  0  0
  1 64  1  0  0  0  0
  2 24  1  0  0  0  0
  2 25  1  0  0  0  0
  3 10  1  0  0  0  0
  3 14  1  0  0  0  0
  3 15  1  0  0  0  0
  4  5  1  0  0  0  0
  4 24  2  0  0  0  0
  5 25  2  0  0  0  0
  6  7  1  0  0  0  0
  6  8  1  0  0  0  0
  6 11  1  0  0  0  0
  6 33  1  0  0  0  0
  7 10  1  0  0  0  0
  7 12  1  0  0  0  0
  7 34  1  0  0  0  0
  8  9  1  0  0  0  0
  8 35  1  0  0  0  0
  8 36  1  0  0  0  0
  9 13  1  0  0  0  0
  9 17  1  0  0  0  0
  9 37  1  0  0  0  0
 10 38  1  0  0  0  0
 10 39  1  0  0  0  0
 11 20  1  0  0  0  0
 11 21  1  0  0  0  0
 11 40  1  0  0  0  0
 12 13  2  0  0  0  0
 12 41  1  0  0  0  0
 13 22  1  0  0  0  0
 14 18  1  0  0  0  0
 14 42  1  0  0  0  0
 14 43  1  0  0  0  0
 15 19  1  0  0  0  0
 15 44  1  0  0  0  0
 15 45  1  0  0  0  0
 16 18  1  0  0  0  0
 16 19  1  0  0  0  0
 16 23  1  0  0  0  0
 16 46  1  0  0  0  0
 17 24  1  0  0  0  0
 17 51  1  0  0  0  0
 17 52  1  0  0  0  0
 18 47  1  0  0  0  0
 18 48  1  0  0  0  0
 19 49  1  0  0  0  0
 19 50  1  0  0  0  0
 20 53  1  0  0  0  0
 20 54  1  0  0  0  0
 20 55  1  0  0  0  0
 21 56  1  0  0  0  0
 21 57  1  0  0  0  0
 21 58  1  0  0  0  0
 22 59  1  0  0  0  0
 22 60  1  0  0  0  0
 22 61  1  0  0  0  0
 23 62  1  0  0  0  0
 23 63  1  0  0  0  0
 25 26  1  0  0  0  0
 26 27  2  0  0  0  0
 26 28  1  0  0  0  0
 27 29  1  0  0  0  0
 27 65  1  0  0  0  0
 28 30  2  0  0  0  0
 28 66  1  0  0  0  0
 29 31  2  0  0  0  0
 29 67  1  0  0  0  0
 30 31  1  0  0  0  0
 30 68  1  0  0  0  0
 31 32  1  0  0  0  0
 32 69  1  0  0  0  0
 32 70  1  0  0  0  0
 32 71  1  0  0  0  0
M  END
> <PUBCHEM_COMPOUND_CID>
38030616

> <PUBCHEM_CONFORMER_RMSD>
1

> <PUBCHEM_CONFORMER_DIVERSEORDER>
11
186
155
75
28
44
77
198
109
136
9
10
67
23
194
83
122
151
220
12
174
26
181
113
27
32
159
166
219
49
185
205
215
190
73
88
14
16
40
115
59
218
30
184
192
93
217
47
29
209
164
64
200
118
126
50
71
31
176
179
129
46
112
99
202
158
37
35
135
145
230
104
41
222
2
58
128
62
199
94
8
87
102
13
203
57
211
139
95
168
119
25
227
183
4
105
36
55
140
85
42
189
106
153
81
123
68
221
162
53
216
207
92
149
195
196
65
63
21
144
223
48
138
226
167
56
224
165
96
228
100
51
97
154
208
17
169
103
60
148
193
180
66
146
74
98
84
187
111
130
134
210
131
79
161
120
143
91
33
43
132
117
160
175
3
170
107
182
156
142
127
38
163
152
171
69
178
141
72
54
204
15
89
114
124
52
147
150
7
82
212
157
116
18
22
229
76
121
125
137
78
214
6
191
34
188
24
19
108
90
86
225
201
110
70
213
80
61
45
197
5
101
206
177
39
173
172
1
20
133

> <PUBCHEM_MMFF94_PARTIAL_CHARGES>
30
1 -0.68
10 0.27
12 -0.29
13 -0.28
14 0.27
15 0.27
17 0.18
2 -0.28
22 0.14
23 0.28
24 0.3
25 0.43
26 0.05
27 -0.15
28 -0.15
29 -0.15
3 -0.81
30 -0.15
31 -0.14
32 0.14
4 -0.34
41 0.15
5 -0.34
64 0.4
65 0.15
66 0.15
67 0.15
68 0.15
7 0.14
9 0.14

> <PUBCHEM_EFFECTIVE_ROTOR_COUNT>
9

> <PUBCHEM_PHARMACOPHORE_FEATURES>
8
1 1 acceptor
1 1 donor
1 3 cation
3 11 20 21 hydrophobe
5 2 4 5 24 25 rings
6 26 27 28 29 30 31 rings
6 3 14 15 16 18 19 rings
6 6 7 8 9 12 13 rings

> <PUBCHEM_HEAVY_ATOM_COUNT>
32

> <PUBCHEM_ATOM_DEF_STEREO_COUNT>
3

> <PUBCHEM_ATOM_UDEF_STEREO_COUNT>
0

> <PUBCHEM_BOND_DEF_STEREO_COUNT>
0

> <PUBCHEM_BOND_UDEF_STEREO_COUNT>
0

> <PUBCHEM_ISOTOPIC_ATOM_COUNT>
0

> <PUBCHEM_COMPONENT_COUNT>
1

> <PUBCHEM_CACTVS_TAUTO_COUNT>
1

> <PUBCHEM_CONFORMER_ID>
02444D180000000B

> <PUBCHEM_MMFF94_ENERGY>
59.2104

> <PUBCHEM_FEATURE_SELFOVERLAP>
40.597

> <PUBCHEM_SHAPE_FINGERPRINT>
10042902 136 18337675187941782310
10622 236 18335138652786321286
10928967 22 18197793304364125511
11069576 57 18262523726643324406
11093857 51 17609789951653326204
11285246 1 17967254182873001691
11315621 136 18259988205796139270
11497681 19 18337398124587886766
117089 54 18342181029268664846
11763715 3 18269294395374463096
11796584 16 18339931402607886428
12107183 9 18201453458804661617
12633046 712 18410846664589911789
131258 38 18337662143905000270
14114206 34 14996561733776301389
14856354 85 17624417477199062246
15728490 83 18338243665555628331
16989378 47 18187944875577113526
17492 89 18411978087602429323
17909252 39 18338238292113171603
19301676 85 18051405168235434687
19315092 285 17915746585933291491
19319366 153 17979078506995952572
20775530 9 18260268516762827625
21315764 119 18041544920024698469
23559900 14 18411125931921445497
24893989 43 16836015322560414463
25222932 49 17985262121461526109
2838139 119 8718242647644856400
3044373 233 18266748063745668771
32027 91 18340476825374265673
4017518 198 17040638288805445100
404807 78 17102848072578974715
463206 1 18338516318426426105
484985 159 17617934734686979148
49967989 163 18053960454616483484
50009960 94 18117528852325907386
6679774 75 17189580414864029985
6700243 42 17097193147582317303
7970288 3 18340765919169584058
9831232 110 17686054303951858703

> <PUBCHEM_SHAPE_MULTIPOLES>
631.86
14.6
7.32
1.9
13.9
4.95
-1.34
23.27
-1.24
-4.8
1.74
-1.18
-1.71
-0.18

> <PUBCHEM_SHAPE_SELFOVERLAP>
1326.531

> <PUBCHEM_SHAPE_VOLUME>
356.5

> <PUBCHEM_COORDINATE_TYPE>
2
5
10

$$$$
