11885333
  -OEChem-12032416213D

 56 60  0     1  0  0  0  0  0999 V2000
   -7.2954   -1.1598   -0.2295 S   0  0  0  0  0  0  0  0  0  0  0  0
   -1.5304    1.9628   -1.3914 O   0  0  0  0  0  0  0  0  0  0  0  0
    2.6770   -1.9753   -0.6400 O   0  0  0  0  0  0  0  0  0  0  0  0
    0.8911   -3.4972    1.3962 O   0  0  0  0  0  0  0  0  0  0  0  0
    3.2935    0.7510   -0.7518 N   0  0  2  0  0  0  0  0  0  0  0  0
    0.4121    1.9544   -0.1013 N   0  0  0  0  0  0  0  0  0  0  0  0
    2.5611    3.1477   -0.8272 C   0  0  1  0  0  0  0  0  0  0  0  0
    2.5031    1.9371    1.3003 C   0  0  2  0  0  0  0  0  0  0  0  0
    2.8106    3.2918    0.6682 C   0  0  0  0  0  0  0  0  0  0  0  0
    3.4740    2.0496   -1.4126 C   0  0  0  0  0  0  0  0  0  0  0  0
    3.4447    0.8646    0.7066 C   0  0  0  0  0  0  0  0  0  0  0  0
    1.0712    2.8589   -1.0544 C   0  0  0  0  0  0  0  0  0  0  0  0
    1.0526    1.5536    1.0736 C   0  0  0  0  0  0  0  0  0  0  0  0
    4.2111   -0.2465   -1.2968 C   0  0  0  0  0  0  0  0  0  0  0  0
    0.3928    0.8196    1.9837 C   0  0  0  0  0  0  0  0  0  0  0  0
   -0.9222    1.6008   -0.3826 C   0  0  0  0  0  0  0  0  0  0  0  0
   -1.6247    0.7485    0.6401 C   0  0  0  0  0  0  0  0  0  0  0  0
   -0.9636    0.4083    1.7567 C   0  0  0  0  0  0  0  0  0  0  0  0
    3.9685   -1.6117   -0.7102 C   0  0  0  0  0  0  0  0  0  0  0  0
   -3.0067    0.2838    0.4274 C   0  0  0  0  0  0  0  0  0  0  0  0
    4.8104   -2.5551   -0.2341 C   0  0  0  0  0  0  0  0  0  0  0  0
    2.6851   -3.2178   -0.0900 C   0  0  0  0  0  0  0  0  0  0  0  0
    3.9732   -3.6192    0.1778 C   0  0  0  0  0  0  0  0  0  0  0  0
   -4.0795    1.0548    0.8761 C   0  0  0  0  0  0  0  0  0  0  0  0
   -3.2439   -0.9282   -0.2224 C   0  0  0  0  0  0  0  0  0  0  0  0
    1.3737   -3.8536    0.0992 C   0  0  0  0  0  0  0  0  0  0  0  0
   -5.3878    0.6147    0.6753 C   0  0  0  0  0  0  0  0  0  0  0  0
   -4.5522   -1.3682   -0.4233 C   0  0  0  0  0  0  0  0  0  0  0  0
   -5.6242   -0.5968    0.0256 C   0  0  0  0  0  0  0  0  0  0  0  0
   -7.3751   -1.2724   -2.0394 C   0  0  0  0  0  0  0  0  0  0  0  0
    2.8106    4.0889   -1.3328 H   0  0  0  0  0  0  0  0  0  0  0  0
    2.7012    2.0120    2.3778 H   0  0  0  0  0  0  0  0  0  0  0  0
    2.1775    4.0792    1.0959 H   0  0  0  0  0  0  0  0  0  0  0  0
    3.8525    3.5772    0.8583 H   0  0  0  0  0  0  0  0  0  0  0  0
    3.2586    1.9484   -2.4837 H   0  0  0  0  0  0  0  0  0  0  0  0
    4.5188    2.3781   -1.3264 H   0  0  0  0  0  0  0  0  0  0  0  0
    4.4816    1.1216    0.9641 H   0  0  0  0  0  0  0  0  0  0  0  0
    3.2205   -0.0847    1.2072 H   0  0  0  0  0  0  0  0  0  0  0  0
    0.5186    3.8065   -0.9919 H   0  0  0  0  0  0  0  0  0  0  0  0
    0.9024    2.4788   -2.0699 H   0  0  0  0  0  0  0  0  0  0  0  0
    5.2569    0.0425   -1.1290 H   0  0  0  0  0  0  0  0  0  0  0  0
    4.0678   -0.3304   -2.3816 H   0  0  0  0  0  0  0  0  0  0  0  0
    0.8690    0.4894    2.9009 H   0  0  0  0  0  0  0  0  0  0  0  0
   -1.4232   -0.2065    2.5251 H   0  0  0  0  0  0  0  0  0  0  0  0
    5.8882   -2.5068   -0.1794 H   0  0  0  0  0  0  0  0  0  0  0  0
    4.2737   -4.5605    0.6154 H   0  0  0  0  0  0  0  0  0  0  0  0
   -3.9113    2.0018    1.3834 H   0  0  0  0  0  0  0  0  0  0  0  0
   -2.4184   -1.5410   -0.5768 H   0  0  0  0  0  0  0  0  0  0  0  0
    0.6515   -3.5115   -0.6485 H   0  0  0  0  0  0  0  0  0  0  0  0
    1.4514   -4.9437    0.0438 H   0  0  0  0  0  0  0  0  0  0  0  0
   -6.2105    1.2296    1.0320 H   0  0  0  0  0  0  0  0  0  0  0  0
   -4.7119   -2.3189   -0.9255 H   0  0  0  0  0  0  0  0  0  0  0  0
    0.0217   -3.9204    1.5006 H   0  0  0  0  0  0  0  0  0  0  0  0
   -7.1047   -0.3146   -2.4923 H   0  0  0  0  0  0  0  0  0  0  0  0
   -8.3963   -1.5240   -2.3375 H   0  0  0  0  0  0  0  0  0  0  0  0
   -6.7043   -2.0521   -2.4091 H   0  0  0  0  0  0  0  0  0  0  0  0
  1 29  1  0  0  0  0
  1 30  1  0  0  0  0
  2 16  2  0  0  0  0
  3 19  1  0  0  0  0
  3 22  1  0  0  0  0
  4 26  1  0  0  0  0
  4 53  1  0  0  0  0
  5 10  1  0  0  0  0
  5 11  1  0  0  0  0
  5 14  1  0  0  0  0
  6 12  1  0  0  0  0
  6 13  1  0  0  0  0
  6 16  1  0  0  0  0
  7  9  1  0  0  0  0
  7 10  1  0  0  0  0
  7 12  1  0  0  0  0
  7 31  1  0  0  0  0
  8  9  1  0  0  0  0
  8 11  1  0  0  0  0
  8 13  1  0  0  0  0
  8 32  1  0  0  0  0
  9 33  1  0  0  0  0
  9 34  1  0  0  0  0
 10 35  1  0  0  0  0
 10 36  1  0  0  0  0
 11 37  1  0  0  0  0
 11 38  1  0  0  0  0
 12 39  1  0  0  0  0
 12 40  1  0  0  0  0
 13 15  2  0  0  0  0
 14 19  1  0  0  0  0
 14 41  1  0  0  0  0
 14 42  1  0  0  0  0
 15 18  1  0  0  0  0
 15 43  1  0  0  0  0
 16 17  1  0  0  0  0
 17 18  2  0  0  0  0
 17 20  1  0  0  0  0
 18 44  1  0  0  0  0
 19 21  2  0  0  0  0
 20 24  2  0  0  0  0
 20 25  1  0  0  0  0
 21 23  1  0  0  0  0
 21 45  1  0  0  0  0
 22 23  2  0  0  0  0
 22 26  1  0  0  0  0
 23 46  1  0  0  0  0
 24 27  1  0  0  0  0
 24 47  1  0  0  0  0
 25 28  2  0  0  0  0
 25 48  1  0  0  0  0
 26 49  1  0  0  0  0
 26 50  1  0  0  0  0
 27 29  2  0  0  0  0
 27 51  1  0  0  0  0
 28 29  1  0  0  0  0
 28 52  1  0  0  0  0
 30 54  1  0  0  0  0
 30 55  1  0  0  0  0
 30 56  1  0  0  0  0
M  END
> <PUBCHEM_COMPOUND_CID>
11885333

> <PUBCHEM_CONFORMER_RMSD>
0.8

> <PUBCHEM_CONFORMER_DIVERSEORDER>
1
25
22
19
20
9
18
11
6
17
15
24
13
12
23
4
10
7
8
2
21
5
14
3
16

> <PUBCHEM_MMFF94_PARTIAL_CHARGES>
37
1 -0.33
10 0.27
11 0.27
12 0.3
13 -0.03
14 0.45
15 -0.15
16 0.62
17 -0.01
18 -0.15
19 -0.04
2 -0.57
20 0.03
21 -0.15
22 -0.04
23 -0.15
24 -0.15
25 -0.15
26 0.46
27 -0.15
28 -0.15
29 0.1
3 -0.28
30 0.23
4 -0.68
43 0.15
44 0.15
45 0.15
46 0.15
47 0.15
48 0.15
5 -0.81
51 0.15
52 0.15
53 0.4
6 -0.47
8 0.14

> <PUBCHEM_EFFECTIVE_ROTOR_COUNT>
6

> <PUBCHEM_PHARMACOPHORE_FEATURES>
11
1 2 acceptor
1 3 acceptor
1 30 hydrophobe
1 4 acceptor
1 4 donor
1 5 cation
5 3 19 21 22 23 rings
6 20 24 25 27 28 29 rings
6 5 7 8 9 10 11 rings
6 6 13 15 16 17 18 rings
6 6 7 8 9 12 13 rings

> <PUBCHEM_HEAVY_ATOM_COUNT>
30

> <PUBCHEM_ATOM_DEF_STEREO_COUNT>
2

> <PUBCHEM_ATOM_UDEF_STEREO_COUNT>
0

> <PUBCHEM_BOND_DEF_STEREO_COUNT>
0

> <PUBCHEM_BOND_UDEF_STEREO_COUNT>
0

> <PUBCHEM_ISOTOPIC_ATOM_COUNT>
0

> <PUBCHEM_COMPONENT_COUNT>
1

> <PUBCHEM_CACTVS_TAUTO_COUNT>
1

> <PUBCHEM_CONFORMER_ID>
00B55B1500000001

> <PUBCHEM_MMFF94_ENERGY>
69.5671

> <PUBCHEM_FEATURE_SELFOVERLAP>
57.375

> <PUBCHEM_SHAPE_FINGERPRINT>
10675989 125 18269275827634483897
11135609 149 18264466447820647701
114674 6 18408603669405707754
11796584 16 17632308899278637517
12107183 9 18055085259317806209
12147406 95 17750772399183878931
13150687 139 17898031237950839828
13533116 47 18272933864592266745
1361 2 18335987565914553217
13631057 29 18049733915235698238
13773456 30 18120938571032550288
13782708 43 16916786353617463693
13911987 19 17973479682899155676
14068700 675 18200035032590238994
14347332 77 18272650126489680969
14784336 7 18131068290429093833
14931854 50 18338249184509333198
15001296 14 17916576682837206455
15250474 111 18201718492192849375
15475509 35 17918268770807158747
17138139 8 17629760338298598390
17492 54 18189357756924977814
17818456 19 17842854234721181665
19026451 147 18341334388314489666
19315092 285 18060699481157013913
19958102 18 18338788005895141431
20567600 247 18342457032646034687
20775438 99 18337942514938446283
20775530 9 18122343480652296358
21133410 171 17028780180354498946
21285901 2 17821725056966239069
21304303 94 18335701692965620195
21703447 108 18131346427504702280
23522609 53 17701286791892555577
23559900 14 18411694357994793753
23569914 152 17613685182839235967
238 59 18261970616998191122
25222932 49 16843872286395999333
27425 322 16517093036626633587
3004659 81 17989215845094720533
338550 245 18340485676663734550
397830 11 10447638141976876869
46194498 28 17967533510118066277
463206 1 18337121063972451322
484989 97 18191325942346701282
513532 50 17967525813562921656
5309563 4 18266742389840571574
59682541 52 18408317809567879965

> <PUBCHEM_SHAPE_MULTIPOLES>
593.67
13.9
4.66
1.53
28.26
2.97
0.03
7.74
-4.94
-7.54
-0.1
0.28
-0.46
-1.04

> <PUBCHEM_SHAPE_SELFOVERLAP>
1284.955

> <PUBCHEM_SHAPE_VOLUME>
328.1

> <PUBCHEM_COORDINATE_TYPE>
2
5
10

$$$$
