25314503
  -OEChem-12032416193D

 69 73  0     1  0  0  0  0  0999 V2000
    2.2711   -2.5976   -1.5123 O   0  0  0  0  0  0  0  0  0  0  0  0
    2.5759   -4.3867   -0.0677 O   0  0  0  0  0  0  0  0  0  0  0  0
    2.6236   -2.7282    2.2877 O   0  0  0  0  0  0  0  0  0  0  0  0
    3.9224    1.0889    1.5964 O   0  0  0  0  0  0  0  0  0  0  0  0
   -0.0225   -1.7464   -0.0087 N   0  0  0  0  0  0  0  0  0  0  0  0
    2.9609   -0.0834   -0.1594 N   0  0  0  0  0  0  0  0  0  0  0  0
    2.9517    2.2115   -0.1891 N   0  0  0  0  0  0  0  0  0  0  0  0
    0.9843   -2.6651    0.5262 C   0  0  2  0  0  0  0  0  0  0  0  0
    2.0844   -1.8745    1.2700 C   0  0  2  0  0  0  0  0  0  0  0  0
    3.2354   -1.4094    0.3510 C   0  0  1  0  0  0  0  0  0  0  0  0
    1.5948   -3.4931   -0.6195 C   0  0  1  0  0  0  0  0  0  0  0  0
    3.5044   -2.3751   -0.8216 C   0  0  1  0  0  0  0  0  0  0  0  0
   -0.9496   -1.3265    1.0506 C   0  0  0  0  0  0  0  0  0  0  0  0
   -0.7429   -2.3681   -1.1280 C   0  0  0  0  0  0  0  0  0  0  0  0
   -2.7479   -0.8955   -0.6745 C   0  0  0  0  0  0  0  0  0  0  0  0
    3.8410   -3.7914   -0.3943 C   0  0  0  0  0  0  0  0  0  0  0  0
   -1.9766   -0.3240    0.5200 C   0  0  0  0  0  0  0  0  0  0  0  0
   -1.7622   -1.4009   -1.7334 C   0  0  0  0  0  0  0  0  0  0  0  0
   -3.6987    0.1439   -1.2616 C   0  0  0  0  0  0  0  0  0  0  0  0
    3.3332    1.0735    0.5164 C   0  0  0  0  0  0  0  0  0  0  0  0
    3.2104    3.5556    0.2773 C   0  0  0  0  0  0  0  0  0  0  0  0
   -4.9542    0.2732   -0.4429 C   0  0  0  0  0  0  0  0  0  0  0  0
    3.4397    4.5119   -0.8980 C   0  0  0  0  0  0  0  0  0  0  0  0
    2.0790    4.0514    1.1842 C   0  0  0  0  0  0  0  0  0  0  0  0
    2.1542    4.8087   -1.6700 C   0  0  0  0  0  0  0  0  0  0  0  0
    0.7956    4.3491    0.4087 C   0  0  0  0  0  0  0  0  0  0  0  0
    1.0471    5.3111   -0.7483 C   0  0  0  0  0  0  0  0  0  0  0  0
   -6.0612   -0.5245   -0.7322 C   0  0  0  0  0  0  0  0  0  0  0  0
   -5.0111    1.1911    0.6057 C   0  0  0  0  0  0  0  0  0  0  0  0
   -7.2253   -0.4043    0.0270 C   0  0  0  0  0  0  0  0  0  0  0  0
   -6.1749    1.3113    1.3651 C   0  0  0  0  0  0  0  0  0  0  0  0
   -7.2820    0.5136    1.0756 C   0  0  0  0  0  0  0  0  0  0  0  0
    0.5245   -3.3810    1.2229 H   0  0  0  0  0  0  0  0  0  0  0  0
    1.6727   -1.0214    1.8182 H   0  0  0  0  0  0  0  0  0  0  0  0
    4.1596   -1.3426    0.9396 H   0  0  0  0  0  0  0  0  0  0  0  0
    0.8935   -4.1352   -1.1585 H   0  0  0  0  0  0  0  0  0  0  0  0
    4.2521   -1.9639   -1.5076 H   0  0  0  0  0  0  0  0  0  0  0  0
   -0.4201   -0.8422    1.8771 H   0  0  0  0  0  0  0  0  0  0  0  0
   -1.4766   -2.1928    1.4729 H   0  0  0  0  0  0  0  0  0  0  0  0
   -1.2539   -3.2886   -0.8156 H   0  0  0  0  0  0  0  0  0  0  0  0
   -0.1002   -2.5939   -1.9832 H   0  0  0  0  0  0  0  0  0  0  0  0
   -3.3246   -1.7645   -0.3263 H   0  0  0  0  0  0  0  0  0  0  0  0
    4.2580   -4.3636   -1.2300 H   0  0  0  0  0  0  0  0  0  0  0  0
    4.5267   -3.8515    0.4550 H   0  0  0  0  0  0  0  0  0  0  0  0
   -2.6582   -0.0736    1.3392 H   0  0  0  0  0  0  0  0  0  0  0  0
   -1.4630    0.6030    0.2327 H   0  0  0  0  0  0  0  0  0  0  0  0
   -1.2358   -0.5509   -2.1884 H   0  0  0  0  0  0  0  0  0  0  0  0
   -2.3073   -1.9063   -2.5401 H   0  0  0  0  0  0  0  0  0  0  0  0
    2.4083    0.0049   -1.0069 H   0  0  0  0  0  0  0  0  0  0  0  0
   -3.9847   -0.1402   -2.2833 H   0  0  0  0  0  0  0  0  0  0  0  0
   -3.2088    1.1213   -1.3607 H   0  0  0  0  0  0  0  0  0  0  0  0
    3.2715   -2.2091    2.7939 H   0  0  0  0  0  0  0  0  0  0  0  0
    4.1315    3.5198    0.8723 H   0  0  0  0  0  0  0  0  0  0  0  0
    2.4054    2.0850   -1.0353 H   0  0  0  0  0  0  0  0  0  0  0  0
    4.1885    4.0986   -1.5845 H   0  0  0  0  0  0  0  0  0  0  0  0
    3.8465    5.4565   -0.5148 H   0  0  0  0  0  0  0  0  0  0  0  0
    2.4050    4.9696    1.6895 H   0  0  0  0  0  0  0  0  0  0  0  0
    1.8652    3.3171    1.9700 H   0  0  0  0  0  0  0  0  0  0  0  0
    1.8142    3.9087   -2.1957 H   0  0  0  0  0  0  0  0  0  0  0  0
    2.3578    5.5621   -2.4397 H   0  0  0  0  0  0  0  0  0  0  0  0
    0.0492    4.7781    1.0868 H   0  0  0  0  0  0  0  0  0  0  0  0
    0.3715    3.4141    0.0223 H   0  0  0  0  0  0  0  0  0  0  0  0
    1.3239    6.2950   -0.3498 H   0  0  0  0  0  0  0  0  0  0  0  0
    0.1234    5.4480   -1.3218 H   0  0  0  0  0  0  0  0  0  0  0  0
   -6.0288   -1.2452   -1.5451 H   0  0  0  0  0  0  0  0  0  0  0  0
   -4.1600    1.8260    0.8372 H   0  0  0  0  0  0  0  0  0  0  0  0
   -8.0871   -1.0258   -0.1980 H   0  0  0  0  0  0  0  0  0  0  0  0
   -6.2200    2.0275    2.1804 H   0  0  0  0  0  0  0  0  0  0  0  0
   -8.1883    0.6076    1.6666 H   0  0  0  0  0  0  0  0  0  0  0  0
  1 11  1  0  0  0  0
  1 12  1  0  0  0  0
  2 11  1  0  0  0  0
  2 16  1  0  0  0  0
  3  9  1  0  0  0  0
  3 52  1  0  0  0  0
  4 20  2  0  0  0  0
  5  8  1  0  0  0  0
  5 13  1  0  0  0  0
  5 14  1  0  0  0  0
  6 10  1  0  0  0  0
  6 20  1  0  0  0  0
  6 49  1  0  0  0  0
  7 20  1  0  0  0  0
  7 21  1  0  0  0  0
  7 54  1  0  0  0  0
  8  9  1  0  0  0  0
  8 11  1  0  0  0  0
  8 33  1  0  0  0  0
  9 10  1  0  0  0  0
  9 34  1  0  0  0  0
 10 12  1  0  0  0  0
 10 35  1  0  0  0  0
 11 36  1  0  0  0  0
 12 16  1  0  0  0  0
 12 37  1  0  0  0  0
 13 17  1  0  0  0  0
 13 38  1  0  0  0  0
 13 39  1  0  0  0  0
 14 18  1  0  0  0  0
 14 40  1  0  0  0  0
 14 41  1  0  0  0  0
 15 17  1  0  0  0  0
 15 18  1  0  0  0  0
 15 19  1  0  0  0  0
 15 42  1  0  0  0  0
 16 43  1  0  0  0  0
 16 44  1  0  0  0  0
 17 45  1  0  0  0  0
 17 46  1  0  0  0  0
 18 47  1  0  0  0  0
 18 48  1  0  0  0  0
 19 22  1  0  0  0  0
 19 50  1  0  0  0  0
 19 51  1  0  0  0  0
 21 23  1  0  0  0  0
 21 24  1  0  0  0  0
 21 53  1  0  0  0  0
 22 28  2  0  0  0  0
 22 29  1  0  0  0  0
 23 25  1  0  0  0  0
 23 55  1  0  0  0  0
 23 56  1  0  0  0  0
 24 26  1  0  0  0  0
 24 57  1  0  0  0  0
 24 58  1  0  0  0  0
 25 27  1  0  0  0  0
 25 59  1  0  0  0  0
 25 60  1  0  0  0  0
 26 27  1  0  0  0  0
 26 61  1  0  0  0  0
 26 62  1  0  0  0  0
 27 63  1  0  0  0  0
 27 64  1  0  0  0  0
 28 30  1  0  0  0  0
 28 65  1  0  0  0  0
 29 31  2  0  0  0  0
 29 66  1  0  0  0  0
 30 32  2  0  0  0  0
 30 67  1  0  0  0  0
 31 32  1  0  0  0  0
 31 68  1  0  0  0  0
 32 69  1  0  0  0  0
M  END
> <PUBCHEM_COMPOUND_CID>
25314503

> <PUBCHEM_CONFORMER_RMSD>
1.2

> <PUBCHEM_CONFORMER_DIVERSEORDER>
1
23
79
44
50
6
20
46
84
58
52
77
83
22
31
18
68
74
69
12
32
15
66
57
87
62
37
35
86
59
7
3
34
67
9
72
49
63
60
30
70
64
28
56
17
80
39
42
11
43
24
16
51
71
26
76
85
25
45
38
78
13
5
75
73
53
48
10
47
33
61
81
82
41
8
2
65
4
55
29
40
19
36
27
14
21
54

> <PUBCHEM_MMFF94_PARTIAL_CHARGES>
32
1 -0.56
10 0.3
11 0.56
12 0.28
13 0.27
14 0.27
16 0.28
19 0.14
2 -0.56
20 0.69
21 0.3
22 -0.14
28 -0.15
29 -0.15
3 -0.68
30 -0.15
31 -0.15
32 -0.15
4 -0.57
49 0.37
5 -0.81
52 0.4
54 0.37
6 -0.73
65 0.15
66 0.15
67 0.15
68 0.15
69 0.15
7 -0.73
8 0.27
9 0.28

> <PUBCHEM_EFFECTIVE_ROTOR_COUNT>
10.6

> <PUBCHEM_PHARMACOPHORE_FEATURES>
12
1 1 acceptor
1 2 acceptor
1 3 acceptor
1 3 donor
1 4 acceptor
1 5 cation
1 6 donor
1 7 donor
6 21 23 24 25 26 27 rings
6 22 28 29 30 31 32 rings
6 5 13 14 15 17 18 rings
8 1 2 8 9 10 11 12 16 rings

> <PUBCHEM_HEAVY_ATOM_COUNT>
32

> <PUBCHEM_ATOM_DEF_STEREO_COUNT>
5

> <PUBCHEM_ATOM_UDEF_STEREO_COUNT>
0

> <PUBCHEM_BOND_DEF_STEREO_COUNT>
0

> <PUBCHEM_BOND_UDEF_STEREO_COUNT>
0

> <PUBCHEM_ISOTOPIC_ATOM_COUNT>
0

> <PUBCHEM_COMPONENT_COUNT>
1

> <PUBCHEM_CACTVS_TAUTO_COUNT>
3

> <PUBCHEM_CONFORMER_ID>
018244C700000001

> <PUBCHEM_MMFF94_ENERGY>
70.1645

> <PUBCHEM_FEATURE_SELFOVERLAP>
60.998

> <PUBCHEM_SHAPE_FINGERPRINT>
10483366 6 18338815480880471116
10675989 125 18270120239695999569
10937287 8 18051410970176516988
11059048 146 17832989725254722469
11059845 2 17548952895906674344
11273773 38 18265617757213455636
11445158 3 18271237245394589311
11763715 3 17833013567023857951
12166972 35 18201158733204872275
12539747 167 16962373969220190202
12741549 16 17751078016667892886
13398642 44 18190465059302052445
13590594 115 18122909720186455090
13761468 95 16822808006019912412
13944108 23 18335706026614469836
14114211 80 18048609405822509157
14251764 75 18120658191082920653
14790565 3 17907298011399742699
14849402 71 18410580573652499422
15081414 286 18410288086385143876
15082195 135 18198039560725242175
151778 21 18264485276926078933
15400415 2 17978791543342038141
15483637 11 17906452121627858660
161222 619 18043545012673359713
17844677 252 18270402660239994627
18785283 64 18408882953964778545
21860390 5 18413386540654480686
23522609 53 17702964608128898841
245318 6 18191312782819841277
394071 54 18410011044384284273
397830 11 18261121811766088907
4173938 77 18341615901913783871
513532 50 17989497307534546582
53794403 172 18336834198526583797

> <PUBCHEM_SHAPE_MULTIPOLES>
620.12
13.4
7.57
1.54
32.55
7.65
-0.11
3.12
-2.26
-14.32
1.59
-0.16
-0.02
-1.35

> <PUBCHEM_SHAPE_SELFOVERLAP>
1313.347

> <PUBCHEM_SHAPE_VOLUME>
341

> <PUBCHEM_COORDINATE_TYPE>
2
5
10

$$$$
