75536761
  -OEChem-12032416333D

 49 51  0     1  0  0  0  0  0999 V2000
   -0.2305    0.8744   -0.2272 O   0  0  0  0  0  0  0  0  0  0  0  0
    0.8634   -2.4699    0.4975 O   0  0  0  0  0  0  0  0  0  0  0  0
   -7.5234    1.1155   -0.4541 O   0  0  0  0  0  0  0  0  0  0  0  0
   -3.6540   -1.9248    0.0629 O   0  0  0  0  0  0  0  0  0  0  0  0
    3.1704   -0.3728    0.1036 N   0  0  0  0  0  0  0  0  0  0  0  0
   -2.8019    0.0718    0.8056 N   0  0  0  0  0  0  0  0  0  0  0  0
   -4.9469   -0.0147   -0.1839 N   0  0  0  0  0  0  0  0  0  0  0  0
    6.0260    1.0329    0.2116 N   0  0  0  0  0  0  0  0  0  0  0  0
    6.4139   -0.9136   -0.7844 N   0  0  0  0  0  0  0  0  0  0  0  0
    1.7875   -0.3729   -0.3447 C   0  0  1  0  0  0  0  0  0  0  0  0
    0.8358   -1.0608    0.6166 C   0  0  1  0  0  0  0  0  0  0  0  0
   -0.4999   -0.4795    0.1732 C   0  0  1  0  0  0  0  0  0  0  0  0
    1.1879    1.0219   -0.4148 C   0  0  0  0  0  0  0  0  0  0  0  0
   -1.5528   -0.4915    1.2670 C   0  0  0  0  0  0  0  0  0  0  0  0
    4.0745   -0.0138   -0.9825 C   0  0  0  0  0  0  0  0  0  0  0  0
   -3.7926   -0.7071    0.2194 C   0  0  0  0  0  0  0  0  0  0  0  0
    5.5110    0.0078   -0.5322 C   0  0  0  0  0  0  0  0  0  0  0  0
   -6.0395   -0.7564   -0.8178 C   0  0  0  0  0  0  0  0  0  0  0  0
   -5.1308    1.4436   -0.1743 C   0  0  0  0  0  0  0  0  0  0  0  0
   -7.3890   -0.2973   -0.2885 C   0  0  0  0  0  0  0  0  0  0  0  0
   -6.5318    1.8105    0.3031 C   0  0  0  0  0  0  0  0  0  0  0  0
    7.3409    0.7468    0.4486 C   0  0  0  0  0  0  0  0  0  0  0  0
    5.3249    2.2087    0.6708 C   0  0  0  0  0  0  0  0  0  0  0  0
    7.5569   -0.4590   -0.1758 C   0  0  0  0  0  0  0  0  0  0  0  0
    1.7051   -0.8727   -1.3203 H   0  0  0  0  0  0  0  0  0  0  0  0
    1.0598   -0.7894    1.6558 H   0  0  0  0  0  0  0  0  0  0  0  0
   -0.8812   -1.0109   -0.7086 H   0  0  0  0  0  0  0  0  0  0  0  0
    1.5537    1.6734    0.3875 H   0  0  0  0  0  0  0  0  0  0  0  0
    1.3770    1.5157   -1.3727 H   0  0  0  0  0  0  0  0  0  0  0  0
   -1.2351    0.1291    2.1124 H   0  0  0  0  0  0  0  0  0  0  0  0
   -1.7240   -1.5100    1.6314 H   0  0  0  0  0  0  0  0  0  0  0  0
    3.4127   -1.3048    0.4411 H   0  0  0  0  0  0  0  0  0  0  0  0
    3.8194    0.9657   -1.4036 H   0  0  0  0  0  0  0  0  0  0  0  0
    3.9899   -0.7433   -1.7981 H   0  0  0  0  0  0  0  0  0  0  0  0
   -2.9060    1.0698    0.9177 H   0  0  0  0  0  0  0  0  0  0  0  0
    0.6654   -2.7027   -0.4254 H   0  0  0  0  0  0  0  0  0  0  0  0
   -5.9230   -1.8344   -0.6718 H   0  0  0  0  0  0  0  0  0  0  0  0
   -5.9667   -0.5512   -1.8925 H   0  0  0  0  0  0  0  0  0  0  0  0
   -4.9945    1.7702   -1.2122 H   0  0  0  0  0  0  0  0  0  0  0  0
   -4.4013    1.9710    0.4376 H   0  0  0  0  0  0  0  0  0  0  0  0
   -8.1965   -0.7801   -0.8476 H   0  0  0  0  0  0  0  0  0  0  0  0
   -7.5136   -0.5535    0.7703 H   0  0  0  0  0  0  0  0  0  0  0  0
   -6.6612    1.5781    1.3670 H   0  0  0  0  0  0  0  0  0  0  0  0
   -6.7018    2.8840    0.1741 H   0  0  0  0  0  0  0  0  0  0  0  0
    7.9883    1.3982    1.0191 H   0  0  0  0  0  0  0  0  0  0  0  0
    4.9191    2.7364   -0.1956 H   0  0  0  0  0  0  0  0  0  0  0  0
    4.5265    1.8980    1.3485 H   0  0  0  0  0  0  0  0  0  0  0  0
    6.0221    2.8624    1.2017 H   0  0  0  0  0  0  0  0  0  0  0  0
    8.4773   -1.0230   -0.2179 H   0  0  0  0  0  0  0  0  0  0  0  0
  1 12  1  0  0  0  0
  1 13  1  0  0  0  0
  2 11  1  0  0  0  0
  2 36  1  0  0  0  0
  3 20  1  0  0  0  0
  3 21  1  0  0  0  0
  4 16  2  0  0  0  0
  5 10  1  0  0  0  0
  5 15  1  0  0  0  0
  5 32  1  0  0  0  0
  6 14  1  0  0  0  0
  6 16  1  0  0  0  0
  6 35  1  0  0  0  0
  7 16  1  0  0  0  0
  7 18  1  0  0  0  0
  7 19  1  0  0  0  0
  8 17  1  0  0  0  0
  8 22  1  0  0  0  0
  8 23  1  0  0  0  0
  9 17  2  0  0  0  0
  9 24  1  0  0  0  0
 10 11  1  0  0  0  0
 10 13  1  0  0  0  0
 10 25  1  0  0  0  0
 11 12  1  0  0  0  0
 11 26  1  0  0  0  0
 12 14  1  0  0  0  0
 12 27  1  0  0  0  0
 13 28  1  0  0  0  0
 13 29  1  0  0  0  0
 14 30  1  0  0  0  0
 14 31  1  0  0  0  0
 15 17  1  0  0  0  0
 15 33  1  0  0  0  0
 15 34  1  0  0  0  0
 18 20  1  0  0  0  0
 18 37  1  0  0  0  0
 18 38  1  0  0  0  0
 19 21  1  0  0  0  0
 19 39  1  0  0  0  0
 19 40  1  0  0  0  0
 20 41  1  0  0  0  0
 20 42  1  0  0  0  0
 21 43  1  0  0  0  0
 21 44  1  0  0  0  0
 22 24  2  0  0  0  0
 22 45  1  0  0  0  0
 23 46  1  0  0  0  0
 23 47  1  0  0  0  0
 23 48  1  0  0  0  0
 24 49  1  0  0  0  0
M  END
> <PUBCHEM_COMPOUND_CID>
75536761

> <PUBCHEM_CONFORMER_RMSD>
1

> <PUBCHEM_CONFORMER_DIVERSEORDER>
1
84
81
39
86
107
72
98
50
122
8
151
127
40
124
36
140
47
63
82
137
145
30
141
138
131
23
133
95
118
108
113
67
65
142
51
149
71
143
7
150
155
91
37
32
73
146
4
153
46
55
80
68
87
43
20
3
101
135
48
99
148
35
79
103
144
123
64
88
93
130
74
117
105
29
5
152
54
110
18
12
38
58
45
136
21
115
85
59
83
92
125
100
128
97
27
34
10
121
111
154
31
56
52
132
96
70
102
114
33
6
90
120
78
53
41
14
15
134
75
44
24
139
94
26
62
42
106
147
17
66
69
22
126
89
57
9
119
116
28
109
2
16
25
77
112
76
49
104
13
61
129
19
11
60

> <PUBCHEM_MMFF94_PARTIAL_CHARGES>
29
1 -0.56
10 0.27
11 0.28
12 0.28
13 0.28
14 0.3
15 0.45
16 0.69
17 0.01
18 0.3
19 0.3
2 -0.68
20 0.28
21 0.28
22 -0.3
23 0.26
24 0.08
3 -0.56
32 0.36
35 0.37
36 0.4
4 -0.57
45 0.15
49 0.15
5 -0.9
6 -0.73
7 -0.66
8 0.05
9 -0.57

> <PUBCHEM_EFFECTIVE_ROTOR_COUNT>
9.2

> <PUBCHEM_PHARMACOPHORE_FEATURES>
12
1 1 acceptor
1 2 acceptor
1 2 donor
1 3 acceptor
1 4 acceptor
1 5 cation
1 5 donor
1 6 donor
3 8 9 17 cation
5 1 10 11 12 13 rings
5 8 9 17 22 24 rings
6 3 7 18 19 20 21 rings

> <PUBCHEM_HEAVY_ATOM_COUNT>
24

> <PUBCHEM_ATOM_DEF_STEREO_COUNT>
3

> <PUBCHEM_ATOM_UDEF_STEREO_COUNT>
0

> <PUBCHEM_BOND_DEF_STEREO_COUNT>
0

> <PUBCHEM_BOND_UDEF_STEREO_COUNT>
0

> <PUBCHEM_ISOTOPIC_ATOM_COUNT>
0

> <PUBCHEM_COMPONENT_COUNT>
1

> <PUBCHEM_CACTVS_TAUTO_COUNT>
2

> <PUBCHEM_CONFORMER_ID>
0480997900000001

> <PUBCHEM_MMFF94_ENERGY>
38.6766

> <PUBCHEM_FEATURE_SELFOVERLAP>
60.899

> <PUBCHEM_SHAPE_FINGERPRINT>
10 15 13984666949259446779
11315181 36 17417815054451289747
11719270 70 17703790297789790990
12082328 90 18131349701055044079
12091667 2 18411703193037829491
125118 31 18335704966295383684
13533116 47 17676759878357609202
13673619 4 12751517371055983075
13914758 101 18409730642748542776
13968360 50 17203613653515364238
14251757 52 17386013918586396708
14251764 18 17167860868147725859
14251764 46 18410293609691649527
14556957 393 16486987210252948337
15183329 4 16587740945257343236
15716309 27 7925910374617701361
15849732 13 18059856177065666164
18681886 176 18131061667309889787
20157964 124 18060423513077391174
20281389 69 17894908512266560677
20554085 129 18201424888392278994
21150785 3 17489586762243470725
21315763 28 18343301474349867013
220451 1 14129059248894240360
22224240 67 18113335314581299914
23198884 109 18413389822368151437
23402539 116 18409730686004066838
23559900 14 17988073504417020697
246663 6 11384114154461157309
3009799 131 18273497874832820113
335352 9 18187651323310082390
4073 2 18115029722525105018
4325135 7 15626225719291223484
4340502 62 14996282513894291050
5385378 56 17386001728746550178
5758199 1 18187083940634023707
59682541 35 8934991573113162398
5969126 39 15123512476222232169
59755656 215 18334297544056024038
59755656 520 15502376764135579251

> <PUBCHEM_SHAPE_MULTIPOLES>
445.53
24.14
1.73
0.88
0.37
0.15
-0.05
6.49
3.15
0.43
-0.26
-0.12
-0.05
0.56

> <PUBCHEM_SHAPE_SELFOVERLAP>
919.702

> <PUBCHEM_SHAPE_VOLUME>
255.1

> <PUBCHEM_COORDINATE_TYPE>
2
5
10

$$$$
