75537137
  -OEChem-12032416343D

 34 35  0     1  0  0  0  0  0999 V2000
    1.1458    2.0735    0.4501 O   0  0  0  0  0  0  0  0  0  0  0  0
    3.1479   -0.3667    1.0253 O   0  0  0  0  0  0  0  0  0  0  0  0
   -0.7748    0.8677   -0.1634 N   0  0  0  0  0  0  0  0  0  0  0  0
    1.2034    0.2178   -1.0050 N   0  0  0  0  0  0  0  0  0  0  0  0
   -3.2344   -0.4687    0.1114 N   0  0  2  0  0  0  0  0  0  0  0  0
   -1.1060   -0.1916   -1.0933 C   0  0  1  0  0  0  0  0  0  0  0  0
    0.2526   -0.7729   -1.4794 C   0  0  0  0  0  0  0  0  0  0  0  0
   -2.0694   -1.1858   -0.4457 C   0  0  0  0  0  0  0  0  0  0  0  0
   -1.8384    1.5401    0.5532 C   0  0  0  0  0  0  0  0  0  0  0  0
   -2.8108    0.5100    1.1334 C   0  0  0  0  0  0  0  0  0  0  0  0
    0.5934    1.1707   -0.1645 C   0  0  0  0  0  0  0  0  0  0  0  0
    2.6213    0.1068   -1.2675 C   0  0  0  0  0  0  0  0  0  0  0  0
   -4.1917   -1.4170    0.6802 C   0  0  0  0  0  0  0  0  0  0  0  0
    3.2936   -0.8528   -0.3028 C   0  0  0  0  0  0  0  0  0  0  0  0
    3.7676   -1.2310    1.9678 C   0  0  0  0  0  0  0  0  0  0  0  0
   -1.5736    0.2827   -1.9661 H   0  0  0  0  0  0  0  0  0  0  0  0
    0.4618   -1.7235   -0.9786 H   0  0  0  0  0  0  0  0  0  0  0  0
    0.3515   -0.8999   -2.5616 H   0  0  0  0  0  0  0  0  0  0  0  0
   -2.3957   -1.9056   -1.2060 H   0  0  0  0  0  0  0  0  0  0  0  0
   -1.5610   -1.7511    0.3473 H   0  0  0  0  0  0  0  0  0  0  0  0
   -2.3507    2.1932   -0.1626 H   0  0  0  0  0  0  0  0  0  0  0  0
   -1.4104    2.1690    1.3402 H   0  0  0  0  0  0  0  0  0  0  0  0
   -2.3310   -0.0073    1.9751 H   0  0  0  0  0  0  0  0  0  0  0  0
   -3.6834    1.0428    1.5297 H   0  0  0  0  0  0  0  0  0  0  0  0
    3.0579    1.1045   -1.1459 H   0  0  0  0  0  0  0  0  0  0  0  0
    2.7619   -0.2116   -2.3052 H   0  0  0  0  0  0  0  0  0  0  0  0
   -4.5424   -2.1158   -0.0873 H   0  0  0  0  0  0  0  0  0  0  0  0
   -5.0774   -0.8914    1.0539 H   0  0  0  0  0  0  0  0  0  0  0  0
   -3.7611   -1.9971    1.5044 H   0  0  0  0  0  0  0  0  0  0  0  0
    4.3593   -0.9264   -0.5485 H   0  0  0  0  0  0  0  0  0  0  0  0
    2.8474   -1.8512   -0.3788 H   0  0  0  0  0  0  0  0  0  0  0  0
    3.6264   -0.8089    2.9663 H   0  0  0  0  0  0  0  0  0  0  0  0
    4.8411   -1.3083    1.7699 H   0  0  0  0  0  0  0  0  0  0  0  0
    3.3061   -2.2229    1.9398 H   0  0  0  0  0  0  0  0  0  0  0  0
  1 11  2  0  0  0  0
  2 14  1  0  0  0  0
  2 15  1  0  0  0  0
  3  6  1  0  0  0  0
  3  9  1  0  0  0  0
  3 11  1  0  0  0  0
  4  7  1  0  0  0  0
  4 11  1  0  0  0  0
  4 12  1  0  0  0  0
  5  8  1  0  0  0  0
  5 10  1  0  0  0  0
  5 13  1  0  0  0  0
  6  7  1  0  0  0  0
  6  8  1  0  0  0  0
  6 16  1  0  0  0  0
  7 17  1  0  0  0  0
  7 18  1  0  0  0  0
  8 19  1  0  0  0  0
  8 20  1  0  0  0  0
  9 10  1  0  0  0  0
  9 21  1  0  0  0  0
  9 22  1  0  0  0  0
 10 23  1  0  0  0  0
 10 24  1  0  0  0  0
 12 14  1  0  0  0  0
 12 25  1  0  0  0  0
 12 26  1  0  0  0  0
 13 27  1  0  0  0  0
 13 28  1  0  0  0  0
 13 29  1  0  0  0  0
 14 30  1  0  0  0  0
 14 31  1  0  0  0  0
 15 32  1  0  0  0  0
 15 33  1  0  0  0  0
 15 34  1  0  0  0  0
M  END
> <PUBCHEM_COMPOUND_CID>
75537137

> <PUBCHEM_CONFORMER_RMSD>
0.6

> <PUBCHEM_CONFORMER_DIVERSEORDER>
1
17
27
2
25
14
26
18
24
16
7
15
23
19
11
22
6
20
13
10
8
9
21
12
5
4
3

> <PUBCHEM_MMFF94_PARTIAL_CHARGES>
15
1 -0.57
10 0.27
11 0.69
12 0.3
13 0.27
14 0.28
15 0.28
2 -0.56
3 -0.66
4 -0.66
5 -0.81
6 0.3
7 0.3
8 0.27
9 0.3

> <PUBCHEM_EFFECTIVE_ROTOR_COUNT>
4.2

> <PUBCHEM_PHARMACOPHORE_FEATURES>
5
1 1 acceptor
1 2 acceptor
1 5 cation
5 3 4 6 7 11 rings
6 3 5 6 8 9 10 rings

> <PUBCHEM_HEAVY_ATOM_COUNT>
15

> <PUBCHEM_ATOM_DEF_STEREO_COUNT>
1

> <PUBCHEM_ATOM_UDEF_STEREO_COUNT>
0

> <PUBCHEM_BOND_DEF_STEREO_COUNT>
0

> <PUBCHEM_BOND_UDEF_STEREO_COUNT>
0

> <PUBCHEM_ISOTOPIC_ATOM_COUNT>
0

> <PUBCHEM_COMPONENT_COUNT>
1

> <PUBCHEM_CACTVS_TAUTO_COUNT>
1

> <PUBCHEM_CONFORMER_ID>
04809AF100000001

> <PUBCHEM_MMFF94_ENERGY>
29.8722

> <PUBCHEM_FEATURE_SELFOVERLAP>
25.467

> <PUBCHEM_SHAPE_FINGERPRINT>
10610426 29 17603860083649585092
10857977 72 18131639954053493861
11127187 94 13046234822592276890
11132069 177 17418096533538416239
11137873 295 15792012212456391418
11578080 2 17896017941169600292
11769659 78 17603303743418782110
11796584 16 17968103049063288483
12251169 10 18060142075979867631
12382932 28 18058174933618694196
12491281 212 12247669474551423082
12644460 14 18127708216526595064
12824470 246 17822008696505882547
13705890 14 15936413355486862630
14178342 30 17986968357549415993
15342168 16 14548729651065549042
15375462 189 18261390087537944106
16945 1 18060148638916697557
19786989 88 12103571861497800681
200 152 16732987513839857422
20523700 14 10737283588712405185
20559304 39 18129677385969647476
20645477 70 15864072091543735698
20671657 53 16443624597809576402
20715346 28 17346323643807425860
21501925 9 18130791187285796493
22485316 2 17676489466499006735
23419403 2 15906792580917345421
23559900 14 18057056704808363910
2748010 2 17628939845147714437
33382 64 17023765544733711315
4072396 5 18342457007177008719
474 4 13542463163577026354
4990 188 14201397218175854019
76465 3 18187922923978053435
90316 7 18337957774846076289

> <PUBCHEM_SHAPE_MULTIPOLES>
282.01
6.73
1.62
1.53
0.24
0.36
0.2
-3.56
2.98
-0.29
0.45
1.12
-0.39
-0.75

> <PUBCHEM_SHAPE_SELFOVERLAP>
566.45

> <PUBCHEM_SHAPE_VOLUME>
168.4

> <PUBCHEM_COORDINATE_TYPE>
2
5
10

$$$$
