71693207
  -OEChem-12032416333D

 79 82  0     1  0  0  0  0  0999 V2000
   -4.2402    0.1699    1.5238 O   0  0  0  0  0  0  0  0  0  0  0  0
   -1.2182   -1.7296    0.6023 O   0  0  0  0  0  0  0  0  0  0  0  0
   -1.8535   -3.2842   -0.9340 O   0  0  0  0  0  0  0  0  0  0  0  0
    7.7958   -0.3701   -0.2222 O   0  0  0  0  0  0  0  0  0  0  0  0
    7.6313   -2.5448    0.5143 O   0  0  0  0  0  0  0  0  0  0  0  0
   -3.7297    1.6155   -0.2256 N   0  0  0  0  0  0  0  0  0  0  0  0
    2.9048    0.6372   -1.4650 N   0  0  0  0  0  0  0  0  0  0  0  0
    1.5973   -0.4395   -0.0259 N   0  0  0  0  0  0  0  0  0  0  0  0
   -4.5542   -2.0706   -0.1375 C   0  0  0  0  0  0  0  0  0  0  0  0
   -1.0626    2.3604    0.9472 C   0  0  1  0  0  0  0  0  0  0  0  0
   -4.7874   -3.1103   -1.2571 C   0  0  0  0  0  0  0  0  0  0  0  0
   -5.8913   -2.0036    0.6389 C   0  0  0  0  0  0  0  0  0  0  0  0
   -2.1118    3.3417    0.3671 C   0  0  2  0  0  0  0  0  0  0  0  0
    0.3353    2.6842    0.3983 C   0  0  0  0  0  0  0  0  0  0  0  0
   -6.2984   -3.2725   -1.3416 C   0  0  0  0  0  0  0  0  0  0  0  0
   -6.7340   -3.1561    0.1069 C   0  0  0  0  0  0  0  0  0  0  0  0
    0.3905    2.6050   -1.1389 C   0  0  2  0  0  0  0  0  0  0  0  0
   -4.2141   -0.6977   -0.7339 C   0  0  0  0  0  0  0  0  0  0  0  0
   -1.0391    2.3929    2.4785 C   0  0  0  0  0  0  0  0  0  0  0  0
   -3.4084   -2.5162    0.7793 C   0  0  0  0  0  0  0  0  0  0  0  0
   -3.5346    2.8010    0.5486 C   0  0  0  0  0  0  0  0  0  0  0  0
   -0.7738    3.3307   -1.7823 C   0  0  0  0  0  0  0  0  0  0  0  0
   -1.8779    3.6635   -1.0903 C   0  0  0  0  0  0  0  0  0  0  0  0
    0.4605    1.1497   -1.6148 C   0  0  0  0  0  0  0  0  0  0  0  0
   -4.0707    0.3794    0.3256 C   0  0  0  0  0  0  0  0  0  0  0  0
   -0.2076    3.5723    2.9728 C   0  0  0  0  0  0  0  0  0  0  0  0
   -0.4955    1.0788    3.0303 C   0  0  0  0  0  0  0  0  0  0  0  0
   -0.6209    3.7062   -3.2300 C   0  0  0  0  0  0  0  0  0  0  0  0
   -2.1077   -2.5840    0.0342 C   0  0  0  0  0  0  0  0  0  0  0  0
    1.6322    0.4305   -1.0102 C   0  0  0  0  0  0  0  0  0  0  0  0
    3.7473   -0.1517   -0.7246 C   0  0  0  0  0  0  0  0  0  0  0  0
    2.9073   -0.8139    0.1666 C   0  0  0  0  0  0  0  0  0  0  0  0
    5.1297   -0.3374   -0.7568 C   0  0  0  0  0  0  0  0  0  0  0  0
    3.4623   -1.7187    1.0871 C   0  0  0  0  0  0  0  0  0  0  0  0
    5.6651   -1.2416    0.1664 C   0  0  0  0  0  0  0  0  0  0  0  0
    4.8480   -1.9211    1.0729 C   0  0  0  0  0  0  0  0  0  0  0  0
    7.1009   -1.4773    0.1806 C   0  0  0  0  0  0  0  0  0  0  0  0
    9.2231   -0.4780   -0.2509 C   0  0  0  0  0  0  0  0  0  0  0  0
   -1.3172    1.3419    0.6301 H   0  0  0  0  0  0  0  0  0  0  0  0
   -2.0560    4.2972    0.9035 H   0  0  0  0  0  0  0  0  0  0  0  0
   -4.3652   -2.8117   -2.2223 H   0  0  0  0  0  0  0  0  0  0  0  0
   -4.3568   -4.0851   -0.9959 H   0  0  0  0  0  0  0  0  0  0  0  0
   -5.7683   -2.0838    1.7243 H   0  0  0  0  0  0  0  0  0  0  0  0
   -6.4276   -1.0676    0.4387 H   0  0  0  0  0  0  0  0  0  0  0  0
    1.1082    2.0657    0.8621 H   0  0  0  0  0  0  0  0  0  0  0  0
    0.6026    3.7218    0.6412 H   0  0  0  0  0  0  0  0  0  0  0  0
    1.3150    3.1166   -1.4432 H   0  0  0  0  0  0  0  0  0  0  0  0
   -6.5890   -4.2273   -1.7888 H   0  0  0  0  0  0  0  0  0  0  0  0
   -6.7359   -2.4645   -1.9396 H   0  0  0  0  0  0  0  0  0  0  0  0
   -7.8065   -2.9660    0.2062 H   0  0  0  0  0  0  0  0  0  0  0  0
   -6.4979   -4.0785    0.6505 H   0  0  0  0  0  0  0  0  0  0  0  0
   -5.0141   -0.3795   -1.4160 H   0  0  0  0  0  0  0  0  0  0  0  0
   -3.2942   -0.7265   -1.3300 H   0  0  0  0  0  0  0  0  0  0  0  0
   -2.0538    2.5048    2.8741 H   0  0  0  0  0  0  0  0  0  0  0  0
   -3.2937   -1.9003    1.6752 H   0  0  0  0  0  0  0  0  0  0  0  0
   -3.5995   -3.5255    1.1687 H   0  0  0  0  0  0  0  0  0  0  0  0
   -4.2663    3.5344    0.1885 H   0  0  0  0  0  0  0  0  0  0  0  0
   -3.7710    2.6150    1.5998 H   0  0  0  0  0  0  0  0  0  0  0  0
   -2.6628    4.2261   -1.5922 H   0  0  0  0  0  0  0  0  0  0  0  0
    0.5546    1.1041   -2.7070 H   0  0  0  0  0  0  0  0  0  0  0  0
   -0.4588    0.6057   -1.3655 H   0  0  0  0  0  0  0  0  0  0  0  0
   -3.6709    1.6908   -1.2372 H   0  0  0  0  0  0  0  0  0  0  0  0
    0.8690    3.4294    2.8327 H   0  0  0  0  0  0  0  0  0  0  0  0
   -0.3539    3.6871    4.0541 H   0  0  0  0  0  0  0  0  0  0  0  0
   -0.5081    4.5212    2.5188 H   0  0  0  0  0  0  0  0  0  0  0  0
    0.5314    0.8831    2.7070 H   0  0  0  0  0  0  0  0  0  0  0  0
   -1.1180    0.2355    2.7133 H   0  0  0  0  0  0  0  0  0  0  0  0
   -0.4984    1.0936    4.1258 H   0  0  0  0  0  0  0  0  0  0  0  0
   -0.5565    2.8126   -3.8579 H   0  0  0  0  0  0  0  0  0  0  0  0
    0.2870    4.3007   -3.3745 H   0  0  0  0  0  0  0  0  0  0  0  0
   -1.4652    4.3023   -3.5925 H   0  0  0  0  0  0  0  0  0  0  0  0
    3.1785    1.2607   -2.2129 H   0  0  0  0  0  0  0  0  0  0  0  0
   -0.3525   -1.7424    0.1412 H   0  0  0  0  0  0  0  0  0  0  0  0
    5.7379    0.1950   -1.4800 H   0  0  0  0  0  0  0  0  0  0  0  0
    2.8355   -2.2506    1.7958 H   0  0  0  0  0  0  0  0  0  0  0  0
    5.2767   -2.6195    1.7884 H   0  0  0  0  0  0  0  0  0  0  0  0
    9.6301    0.4783   -0.5897 H   0  0  0  0  0  0  0  0  0  0  0  0
    9.6054   -0.6886    0.7522 H   0  0  0  0  0  0  0  0  0  0  0  0
    9.5279   -1.2597   -0.9529 H   0  0  0  0  0  0  0  0  0  0  0  0
  1 25  2  0  0  0  0
  2 29  1  0  0  0  0
  2 73  1  0  0  0  0
  3 29  2  0  0  0  0
  4 37  1  0  0  0  0
  4 38  1  0  0  0  0
  5 37  2  0  0  0  0
  6 21  1  0  0  0  0
  6 25  1  0  0  0  0
  6 62  1  0  0  0  0
  7 30  1  0  0  0  0
  7 31  1  0  0  0  0
  7 72  1  0  0  0  0
  8 30  2  0  0  0  0
  8 32  1  0  0  0  0
  9 11  1  0  0  0  0
  9 12  1  0  0  0  0
  9 18  1  0  0  0  0
  9 20  1  0  0  0  0
 10 13  1  0  0  0  0
 10 14  1  0  0  0  0
 10 19  1  0  0  0  0
 10 39  1  0  0  0  0
 11 15  1  0  0  0  0
 11 41  1  0  0  0  0
 11 42  1  0  0  0  0
 12 16  1  0  0  0  0
 12 43  1  0  0  0  0
 12 44  1  0  0  0  0
 13 21  1  0  0  0  0
 13 23  1  0  0  0  0
 13 40  1  0  0  0  0
 14 17  1  0  0  0  0
 14 45  1  0  0  0  0
 14 46  1  0  0  0  0
 15 16  1  0  0  0  0
 15 48  1  0  0  0  0
 15 49  1  0  0  0  0
 16 50  1  0  0  0  0
 16 51  1  0  0  0  0
 17 22  1  0  0  0  0
 17 24  1  0  0  0  0
 17 47  1  0  0  0  0
 18 25  1  0  0  0  0
 18 52  1  0  0  0  0
 18 53  1  0  0  0  0
 19 26  1  0  0  0  0
 19 27  1  0  0  0  0
 19 54  1  0  0  0  0
 20 29  1  0  0  0  0
 20 55  1  0  0  0  0
 20 56  1  0  0  0  0
 21 57  1  0  0  0  0
 21 58  1  0  0  0  0
 22 23  2  0  0  0  0
 22 28  1  0  0  0  0
 23 59  1  0  0  0  0
 24 30  1  0  0  0  0
 24 60  1  0  0  0  0
 24 61  1  0  0  0  0
 26 63  1  0  0  0  0
 26 64  1  0  0  0  0
 26 65  1  0  0  0  0
 27 66  1  0  0  0  0
 27 67  1  0  0  0  0
 27 68  1  0  0  0  0
 28 69  1  0  0  0  0
 28 70  1  0  0  0  0
 28 71  1  0  0  0  0
 31 32  2  0  0  0  0
 31 33  1  0  0  0  0
 32 34  1  0  0  0  0
 33 35  2  0  0  0  0
 33 74  1  0  0  0  0
 34 36  2  0  0  0  0
 34 75  1  0  0  0  0
 35 36  1  0  0  0  0
 35 37  1  0  0  0  0
 36 76  1  0  0  0  0
 38 77  1  0  0  0  0
 38 78  1  0  0  0  0
 38 79  1  0  0  0  0
M  END
> <PUBCHEM_COMPOUND_CID>
71693207

> <PUBCHEM_CONFORMER_RMSD>
1.2

> <PUBCHEM_CONFORMER_DIVERSEORDER>
1
44
71
69
64
41
55
9
48
53
27
70
57
68
32
46
49
8
56
36
16
60
19
67
52
50
65
66
2
54
63
62
26
59
73
45
12
4
21
24
7
40
25
37
22
29
47
11
3
30
33
13
38
20
61
51
14
35
10
58
39
17
72
43
28
5
15
23
18
42
6
31
34

> <PUBCHEM_MMFF94_PARTIAL_CHARGES>
35
1 -0.57
13 0.14
17 0.14
18 0.06
2 -0.65
20 0.06
21 0.3
22 -0.28
23 -0.29
24 0.18
25 0.57
28 0.14
29 0.66
3 -0.57
30 0.01
31 -0.15
32 0.23
33 -0.15
34 -0.15
35 0.09
36 -0.15
37 0.63
38 0.28
4 -0.43
5 -0.57
59 0.15
6 -0.73
62 0.37
7 0.03
72 0.27
73 0.5
74 0.15
75 0.15
76 0.15
8 -0.57

> <PUBCHEM_EFFECTIVE_ROTOR_COUNT>
13.8

> <PUBCHEM_PHARMACOPHORE_FEATURES>
13
1 1 acceptor
1 2 acceptor
1 3 acceptor
1 5 acceptor
1 6 donor
1 7 donor
3 19 26 27 hydrophobe
3 2 3 29 anion
3 7 8 30 cation
5 7 8 30 31 32 rings
5 9 11 12 15 16 rings
6 10 13 14 17 22 23 rings
6 31 32 33 34 35 36 rings

> <PUBCHEM_HEAVY_ATOM_COUNT>
38

> <PUBCHEM_ATOM_DEF_STEREO_COUNT>
3

> <PUBCHEM_ATOM_UDEF_STEREO_COUNT>
0

> <PUBCHEM_BOND_DEF_STEREO_COUNT>
0

> <PUBCHEM_BOND_UDEF_STEREO_COUNT>
0

> <PUBCHEM_ISOTOPIC_ATOM_COUNT>
0

> <PUBCHEM_COMPONENT_COUNT>
1

> <PUBCHEM_CACTVS_TAUTO_COUNT>
14

> <PUBCHEM_CONFORMER_ID>
0445F39700000001

> <PUBCHEM_MMFF94_ENERGY>
85.6917

> <PUBCHEM_FEATURE_SELFOVERLAP>
66.135

> <PUBCHEM_SHAPE_FINGERPRINT>
10483366 6 18189878861465865085
10622 236 18260828198288470743
11297750 10 18270951453807609481
11456790 92 18340503261341585099
11497681 19 18409167727830002164
11720765 8 18191023619946583685
12156800 1 17681231604668847609
12166972 35 18338236089116954859
12539745 222 18342453708995956402
13631057 29 18409728456910667762
14068700 675 18341618152091407425
14114206 34 16732976506050233269
14395042 24 18339939151952014155
14659021 117 17603873260609905448
14725015 67 18341328994389115967
14856354 85 17916586423659749616
15297060 5 18129662976660500419
15968369 26 17326318331057886099
16989713 51 18262236621523736142
17686467 74 18336545010706455384
18336668 15 18411425033406528409
19309040 13 12396838014544243163
19315092 285 18340774827106186504
19319366 153 17543644479188662349
19611394 137 17989488507526481936
20775530 9 18339365287827426925
21033648 29 15913064109443138295
21223535 225 14996275869105260911
23559900 14 18047748493361896071
3552219 110 18341905125291356392
4015057 19 16733284407860626076
469060 322 18261965050156222257
6376802 137 18202008741333799265
66674814 147 17748829626419852403
70634741 139 18410291394127120580

> <PUBCHEM_SHAPE_MULTIPOLES>
737.73
17.7
5.58
2.23
32.1
2.56
0.58
-23.12
-1.04
-7.31
-0.82
-0.86
2.76
-1.75

> <PUBCHEM_SHAPE_SELFOVERLAP>
1564.204

> <PUBCHEM_SHAPE_VOLUME>
412.7

> <PUBCHEM_COORDINATE_TYPE>
2
5
10

$$$$
