7142399
  -OEChem-12032416133D

 53 56  0     1  0  0  0  0  0999 V2000
   -3.2719   -2.0829    0.0849 O   0  0  0  0  0  0  0  0  0  0  0  0
    0.0809    1.7295    1.5560 O   0  0  0  0  0  0  0  0  0  0  0  0
   -6.1337   -0.1421   -1.8161 O   0  0  0  0  0  0  0  0  0  0  0  0
   -8.0619    0.3877   -0.2576 O   0  0  0  0  0  0  0  0  0  0  0  0
    8.3137    0.8958   -0.2796 O   0  0  0  0  0  0  0  0  0  0  0  0
   -1.6528    0.7749    0.3582 N   0  0  0  0  0  0  0  0  0  0  0  0
   -4.4476    0.6237   -0.4110 N   0  0  0  0  0  0  0  0  0  0  0  0
   -1.0077   -2.1125    0.3131 N   0  0  0  0  0  0  0  0  0  0  0  0
   -2.0796   -0.1344   -0.6962 C   0  0  2  0  0  0  0  0  0  0  0  0
   -3.3841    0.3111   -1.3691 C   0  0  0  0  0  0  0  0  0  0  0  0
   -2.6206    1.7724    0.8167 C   0  0  0  0  0  0  0  0  0  0  0  0
   -4.0345    1.2125    0.8659 C   0  0  0  0  0  0  0  0  0  0  0  0
   -2.1916   -1.5033   -0.0439 C   0  0  0  0  0  0  0  0  0  0  0  0
   -0.3374    0.8448    0.8072 C   0  0  0  0  0  0  0  0  0  0  0  0
    0.6218   -0.2144    0.3947 C   0  0  0  0  0  0  0  0  0  0  0  0
    0.2958   -1.5753    0.2767 C   0  0  0  0  0  0  0  0  0  0  0  0
   -5.7756    0.3528   -0.7450 C   0  0  0  0  0  0  0  0  0  0  0  0
    1.9687    0.1821    0.2988 C   0  0  0  0  0  0  0  0  0  0  0  0
    1.3334   -2.5138    0.1363 C   0  0  0  0  0  0  0  0  0  0  0  0
   -6.8091    0.7071    0.2962 C   0  0  0  0  0  0  0  0  0  0  0  0
    2.9808   -0.7580    0.1100 C   0  0  0  0  0  0  0  0  0  0  0  0
    2.6643   -2.1084    0.0425 C   0  0  0  0  0  0  0  0  0  0  0  0
    4.3592   -0.3304    0.0095 C   0  0  0  0  0  0  0  0  0  0  0  0
    5.3822   -1.1643    0.4599 C   0  0  0  0  0  0  0  0  0  0  0  0
    4.6644    0.9155   -0.5382 C   0  0  0  0  0  0  0  0  0  0  0  0
   -9.1341    0.6788    0.6374 C   0  0  0  0  0  0  0  0  0  0  0  0
    6.7113   -0.7521    0.3628 C   0  0  0  0  0  0  0  0  0  0  0  0
    5.9935    1.3277   -0.6353 C   0  0  0  0  0  0  0  0  0  0  0  0
    7.0170    0.4938   -0.1849 C   0  0  0  0  0  0  0  0  0  0  0  0
    8.5551    2.1814   -0.8498 C   0  0  0  0  0  0  0  0  0  0  0  0
   -1.3033   -0.1845   -1.4700 H   0  0  0  0  0  0  0  0  0  0  0  0
   -3.2098    1.2308   -1.9416 H   0  0  0  0  0  0  0  0  0  0  0  0
   -3.7299   -0.4485   -2.0792 H   0  0  0  0  0  0  0  0  0  0  0  0
   -2.5641    2.6154    0.1171 H   0  0  0  0  0  0  0  0  0  0  0  0
   -2.3306    2.1484    1.8037 H   0  0  0  0  0  0  0  0  0  0  0  0
   -4.1045    0.4184    1.6186 H   0  0  0  0  0  0  0  0  0  0  0  0
   -4.7290    2.0060    1.1543 H   0  0  0  0  0  0  0  0  0  0  0  0
   -1.0760   -3.1023    0.5377 H   0  0  0  0  0  0  0  0  0  0  0  0
    2.2097    1.2362    0.4207 H   0  0  0  0  0  0  0  0  0  0  0  0
    1.1084   -3.5762    0.0614 H   0  0  0  0  0  0  0  0  0  0  0  0
   -6.7694    1.7800    0.5063 H   0  0  0  0  0  0  0  0  0  0  0  0
   -6.6303    0.1230    1.2045 H   0  0  0  0  0  0  0  0  0  0  0  0
    3.4119   -2.8803   -0.1173 H   0  0  0  0  0  0  0  0  0  0  0  0
    5.1910   -2.1293    0.9210 H   0  0  0  0  0  0  0  0  0  0  0  0
    3.9020    1.5837   -0.9296 H   0  0  0  0  0  0  0  0  0  0  0  0
  -10.0729    0.4065    0.1480 H   0  0  0  0  0  0  0  0  0  0  0  0
   -9.1558    1.7476    0.8709 H   0  0  0  0  0  0  0  0  0  0  0  0
   -9.0330    0.0927    1.5558 H   0  0  0  0  0  0  0  0  0  0  0  0
    7.5043   -1.4027    0.7213 H   0  0  0  0  0  0  0  0  0  0  0  0
    6.1610    2.3042   -1.0770 H   0  0  0  0  0  0  0  0  0  0  0  0
    8.1141    2.9799   -0.2435 H   0  0  0  0  0  0  0  0  0  0  0  0
    8.2298    2.2255   -1.8947 H   0  0  0  0  0  0  0  0  0  0  0  0
    9.6387    2.3384   -0.8456 H   0  0  0  0  0  0  0  0  0  0  0  0
  1 13  2  0  0  0  0
  2 14  2  0  0  0  0
  3 17  2  0  0  0  0
  4 20  1  0  0  0  0
  4 26  1  0  0  0  0
  5 29  1  0  0  0  0
  5 30  1  0  0  0  0
  6  9  1  0  0  0  0
  6 11  1  0  0  0  0
  6 14  1  0  0  0  0
  7 10  1  0  0  0  0
  7 12  1  0  0  0  0
  7 17  1  0  0  0  0
  8 13  1  0  0  0  0
  8 16  1  0  0  0  0
  8 38  1  0  0  0  0
  9 10  1  0  0  0  0
  9 13  1  0  0  0  0
  9 31  1  0  0  0  0
 10 32  1  0  0  0  0
 10 33  1  0  0  0  0
 11 12  1  0  0  0  0
 11 34  1  0  0  0  0
 11 35  1  0  0  0  0
 12 36  1  0  0  0  0
 12 37  1  0  0  0  0
 14 15  1  0  0  0  0
 15 16  2  0  0  0  0
 15 18  1  0  0  0  0
 16 19  1  0  0  0  0
 17 20  1  0  0  0  0
 18 21  2  0  0  0  0
 18 39  1  0  0  0  0
 19 22  2  0  0  0  0
 19 40  1  0  0  0  0
 20 41  1  0  0  0  0
 20 42  1  0  0  0  0
 21 22  1  0  0  0  0
 21 23  1  0  0  0  0
 22 43  1  0  0  0  0
 23 24  2  0  0  0  0
 23 25  1  0  0  0  0
 24 27  1  0  0  0  0
 24 44  1  0  0  0  0
 25 28  2  0  0  0  0
 25 45  1  0  0  0  0
 26 46  1  0  0  0  0
 26 47  1  0  0  0  0
 26 48  1  0  0  0  0
 27 29  2  0  0  0  0
 27 49  1  0  0  0  0
 28 29  1  0  0  0  0
 28 50  1  0  0  0  0
 30 51  1  0  0  0  0
 30 52  1  0  0  0  0
 30 53  1  0  0  0  0
M  END
> <PUBCHEM_COMPOUND_CID>
7142399

> <PUBCHEM_CONFORMER_RMSD>
0.8

> <PUBCHEM_CONFORMER_DIVERSEORDER>
1
12
7
15
10
9
14
13
4
16
3
11
6
5
17
2
8

> <PUBCHEM_MMFF94_PARTIAL_CHARGES>
36
1 -0.57
10 0.3
11 0.3
12 0.3
13 0.57
14 0.54
15 0.09
16 0.12
17 0.57
18 -0.15
19 -0.15
2 -0.57
20 0.34
22 -0.15
24 -0.15
25 -0.15
26 0.28
27 -0.15
28 -0.15
29 0.08
3 -0.57
30 0.28
38 0.37
39 0.15
4 -0.56
40 0.15
43 0.15
44 0.15
45 0.15
49 0.15
5 -0.36
50 0.15
6 -0.66
7 -0.66
8 -0.55
9 0.36

> <PUBCHEM_EFFECTIVE_ROTOR_COUNT>
6

> <PUBCHEM_PHARMACOPHORE_FEATURES>
10
1 1 acceptor
1 2 acceptor
1 3 acceptor
1 4 acceptor
1 5 acceptor
1 8 donor
6 15 16 18 19 21 22 rings
6 23 24 25 27 28 29 rings
6 6 7 9 10 11 12 rings
7 6 8 9 13 14 15 16 rings

> <PUBCHEM_HEAVY_ATOM_COUNT>
30

> <PUBCHEM_ATOM_DEF_STEREO_COUNT>
1

> <PUBCHEM_ATOM_UDEF_STEREO_COUNT>
0

> <PUBCHEM_BOND_DEF_STEREO_COUNT>
0

> <PUBCHEM_BOND_UDEF_STEREO_COUNT>
0

> <PUBCHEM_ISOTOPIC_ATOM_COUNT>
0

> <PUBCHEM_COMPONENT_COUNT>
1

> <PUBCHEM_CACTVS_TAUTO_COUNT>
3

> <PUBCHEM_CONFORMER_ID>
006CFBFF00000001

> <PUBCHEM_MMFF94_ENERGY>
117.3204

> <PUBCHEM_FEATURE_SELFOVERLAP>
50.793

> <PUBCHEM_SHAPE_FINGERPRINT>
10 15 17675925400070333730
10076449 9 18271247226851364763
10165383 225 18335420171171056127
10299344 5 18131912646259888429
106641 1 17675928703480407051
10906281 52 18201729413851629619
11135609 187 18337388249861642657
12236239 1 18272367521113365740
12788726 201 17631452271950545353
12838862 33 18339345422891708273
13540713 5 11315469466307259282
13685833 64 11095882674961669574
14123256 10 18272087188524154721
14216079 64 9871754589922342644
14251764 18 18060698369472425857
14394314 77 18270125612921769385
14767858 380 18272083894542844596
14849402 71 18342460340256669457
14856354 85 16702300170621934117
14931854 50 18272647909447760372
15064981 194 18193572270529481876
15131766 46 16590015947096168868
15183329 4 18412825790040974968
15347591 1 18044933468674164905
15840311 113 18040438789794115030
15849732 13 17821449058378246591
16087824 20 18130788898997435553
16090146 7 16128382614082804087
18335252 98 18334018302736854483
18608769 82 18408604790772278931
19319366 153 18335976476510436083
20105231 36 16988846094580215279
20157964 124 18260266327026000754
21033648 29 18263072379468268720
21049683 271 18412824703103766553
21150785 3 17203609298428691340
21267235 1 18201720592141583019
21304304 249 9583516525156646577
21521721 280 18334859407261270539
22224240 67 17313105246038618747
23559900 14 18271234040584419632
23569917 315 18340208488666687850
23576562 1 17701811309782123676
28498 318 11383832658183638017
335352 9 18272928341517369381
34797466 226 15913321412718258816
350125 39 18410574002457921067
4073 2 17895198835525157290
4093350 32 15719659966687908640
4149490 64 17748825185587589026
4258327 124 17604727667164703430
4325135 7 18342738502948061004
4340502 62 17095243588194800571
5758199 1 18412263917807872939
59682541 35 17749115495928367241
9663363 56 10879991338007712726

> <PUBCHEM_SHAPE_MULTIPOLES>
573.1
23.93
2.11
1.03
1.88
0.75
-0.13
-12.09
-3.77
-1.84
0.18
0.91
-0.29
-1.38

> <PUBCHEM_SHAPE_SELFOVERLAP>
1246.542

> <PUBCHEM_SHAPE_VOLUME>
309.1

> <PUBCHEM_COORDINATE_TYPE>
2
5
10

$$$$
