51137763
  -OEChem-12032416223D

 41 44  0     1  0  0  0  0  0999 V2000
   -5.1013    0.1574   -0.7119 F   0  0  0  0  0  0  0  0  0  0  0  0
   -1.0370    0.8740   -0.1970 O   0  0  0  0  0  0  0  0  0  0  0  0
    2.8234   -0.0410    2.4618 O   0  0  0  0  0  0  0  0  0  0  0  0
    1.9833    1.3278    0.7842 N   0  0  0  0  0  0  0  0  0  0  0  0
   -1.9379    2.7262   -1.0702 N   0  0  0  0  0  0  0  0  0  0  0  0
   -2.9463    1.7936   -0.9135 N   0  0  0  0  0  0  0  0  0  0  0  0
    0.5755    2.6879   -0.5693 C   0  0  1  0  0  0  0  0  0  0  0  0
    0.8468    3.3954    0.7675 C   0  0  0  0  0  0  0  0  0  0  0  0
    1.7084    1.6529   -0.6164 C   0  0  0  0  0  0  0  0  0  0  0  0
    1.3424    2.2800    1.6778 C   0  0  0  0  0  0  0  0  0  0  0  0
   -0.8420    2.1464   -0.6391 C   0  0  0  0  0  0  0  0  0  0  0  0
    2.6789    0.2325    1.2719 C   0  0  0  0  0  0  0  0  0  0  0  0
    3.2795   -0.6834    0.2898 C   0  0  0  0  0  0  0  0  0  0  0  0
   -2.3749    0.7287   -0.4013 C   0  0  0  0  0  0  0  0  0  0  0  0
    4.2316   -0.2113   -0.6137 C   0  0  0  0  0  0  0  0  0  0  0  0
    2.8977   -2.0247    0.2632 C   0  0  0  0  0  0  0  0  0  0  0  0
   -2.9321   -0.5396   -0.0304 C   0  0  0  0  0  0  0  0  0  0  0  0
    4.8019   -1.0804   -1.5438 C   0  0  0  0  0  0  0  0  0  0  0  0
    3.4680   -2.8939   -0.6668 C   0  0  0  0  0  0  0  0  0  0  0  0
   -4.2948   -0.7841   -0.2003 C   0  0  0  0  0  0  0  0  0  0  0  0
   -2.1070   -1.5298    0.5027 C   0  0  0  0  0  0  0  0  0  0  0  0
    4.4201   -2.4217   -1.5704 C   0  0  0  0  0  0  0  0  0  0  0  0
   -4.8324   -2.0189    0.1629 C   0  0  0  0  0  0  0  0  0  0  0  0
   -2.6446   -2.7647    0.8660 C   0  0  0  0  0  0  0  0  0  0  0  0
   -4.0072   -3.0093    0.6960 C   0  0  0  0  0  0  0  0  0  0  0  0
    0.6805    3.3917   -1.4039 H   0  0  0  0  0  0  0  0  0  0  0  0
    1.6488    4.1316    0.6294 H   0  0  0  0  0  0  0  0  0  0  0  0
   -0.0210    3.9158    1.1846 H   0  0  0  0  0  0  0  0  0  0  0  0
    1.4614    0.7563   -1.1924 H   0  0  0  0  0  0  0  0  0  0  0  0
    2.6138    2.1110   -1.0290 H   0  0  0  0  0  0  0  0  0  0  0  0
    0.5141    1.7673    2.1792 H   0  0  0  0  0  0  0  0  0  0  0  0
    2.0485    2.6289    2.4374 H   0  0  0  0  0  0  0  0  0  0  0  0
    4.5587    0.8248   -0.5934 H   0  0  0  0  0  0  0  0  0  0  0  0
    2.1547   -2.4039    0.9601 H   0  0  0  0  0  0  0  0  0  0  0  0
    5.5470   -0.7140   -2.2439 H   0  0  0  0  0  0  0  0  0  0  0  0
    3.1704   -3.9382   -0.6879 H   0  0  0  0  0  0  0  0  0  0  0  0
   -1.0406   -1.3778    0.6506 H   0  0  0  0  0  0  0  0  0  0  0  0
    4.8648   -3.0987   -2.2938 H   0  0  0  0  0  0  0  0  0  0  0  0
   -5.8933   -2.2092    0.0305 H   0  0  0  0  0  0  0  0  0  0  0  0
   -2.0024   -3.5360    1.2811 H   0  0  0  0  0  0  0  0  0  0  0  0
   -4.4258   -3.9707    0.9788 H   0  0  0  0  0  0  0  0  0  0  0  0
  1 20  1  0  0  0  0
  2 11  1  0  0  0  0
  2 14  1  0  0  0  0
  3 12  2  0  0  0  0
  4  9  1  0  0  0  0
  4 10  1  0  0  0  0
  4 12  1  0  0  0  0
  5  6  1  0  0  0  0
  5 11  2  0  0  0  0
  6 14  2  0  0  0  0
  7  8  1  0  0  0  0
  7  9  1  0  0  0  0
  7 11  1  0  0  0  0
  7 26  1  0  0  0  0
  8 10  1  0  0  0  0
  8 27  1  0  0  0  0
  8 28  1  0  0  0  0
  9 29  1  0  0  0  0
  9 30  1  0  0  0  0
 10 31  1  0  0  0  0
 10 32  1  0  0  0  0
 12 13  1  0  0  0  0
 13 15  2  0  0  0  0
 13 16  1  0  0  0  0
 14 17  1  0  0  0  0
 15 18  1  0  0  0  0
 15 33  1  0  0  0  0
 16 19  2  0  0  0  0
 16 34  1  0  0  0  0
 17 20  1  0  0  0  0
 17 21  2  0  0  0  0
 18 22  2  0  0  0  0
 18 35  1  0  0  0  0
 19 22  1  0  0  0  0
 19 36  1  0  0  0  0
 20 23  2  0  0  0  0
 21 24  1  0  0  0  0
 21 37  1  0  0  0  0
 22 38  1  0  0  0  0
 23 25  1  0  0  0  0
 23 39  1  0  0  0  0
 24 25  2  0  0  0  0
 24 40  1  0  0  0  0
 25 41  1  0  0  0  0
M  END
> <PUBCHEM_COMPOUND_CID>
51137763

> <PUBCHEM_CONFORMER_RMSD>
0.8

> <PUBCHEM_CONFORMER_DIVERSEORDER>
1
68
22
78
34
72
106
101
4
54
57
138
134
74
55
40
117
114
9
69
53
97
27
108
146
133
87
112
56
10
3
39
12
36
128
118
92
5
140
44
85
90
49
67
50
136
6
46
82
125
62
98
66
28
60
104
52
96
71
122
129
77
124
61
41
123
95
126
13
38
24
127
45
79
43
89
29
105
30
64
131
59
26
142
37
86
102
70
18
14
94
16
21
75
88
132
145
93
99
141
42
23
47
103
121
17
15
147
120
65
113
31
76
51
58
25
91
115
20
139
100
32
35
81
11
73
110
83
33
116
111
130
144
80
137
135
2
63
7
107
119
48
143
8
19
109
84

> <PUBCHEM_MMFF94_PARTIAL_CHARGES>
33
1 -0.19
10 0.3
11 0.3
12 0.54
13 0.09
14 0.43
15 -0.15
16 -0.15
17 0.05
18 -0.15
19 -0.15
2 -0.28
20 0.19
21 -0.15
22 -0.15
23 -0.15
24 -0.15
25 -0.15
3 -0.57
33 0.15
34 0.15
35 0.15
36 0.15
37 0.15
38 0.15
39 0.15
4 -0.66
40 0.15
41 0.15
5 -0.34
6 -0.34
7 0.18
9 0.3

> <PUBCHEM_EFFECTIVE_ROTOR_COUNT>
5

> <PUBCHEM_PHARMACOPHORE_FEATURES>
5
1 3 acceptor
5 2 5 6 11 14 rings
5 4 7 8 9 10 rings
6 13 15 16 18 19 22 rings
6 17 20 21 23 24 25 rings

> <PUBCHEM_HEAVY_ATOM_COUNT>
25

> <PUBCHEM_ATOM_DEF_STEREO_COUNT>
1

> <PUBCHEM_ATOM_UDEF_STEREO_COUNT>
0

> <PUBCHEM_BOND_DEF_STEREO_COUNT>
0

> <PUBCHEM_BOND_UDEF_STEREO_COUNT>
0

> <PUBCHEM_ISOTOPIC_ATOM_COUNT>
0

> <PUBCHEM_COMPONENT_COUNT>
1

> <PUBCHEM_CACTVS_TAUTO_COUNT>
1

> <PUBCHEM_CONFORMER_ID>
030C4CE300000001

> <PUBCHEM_MMFF94_ENERGY>
59.3244

> <PUBCHEM_FEATURE_SELFOVERLAP>
25.374

> <PUBCHEM_SHAPE_FINGERPRINT>
10692045 39 18270697424204170315
10928967 22 18259705592711657387
114674 6 18264485272667853418
12506688 2 18413390938595775552
12553582 1 18261109677559901937
12596599 1 18409166644975926675
12712778 12 17688287012092523546
13135754 10 16699797552901791584
13402501 40 18341615884423067662
13533116 47 18129102398003571683
13631057 29 18340497651897563662
13911882 115 18343580772453242490
14251740 57 18125163981354524203
14251757 5 18263372394922010191
14251764 30 17131288856919519934
14363568 33 18123489412080580218
14681488 357 18340773757242358119
14790565 3 17688876328560043445
14863182 85 17902233652125983356
14866123 147 18053389803797418353
15352361 1 18410015437629569038
15664445 248 17169834620184539213
17909252 39 18341347655910851172
17974551 9 17274261630353782657
1979834 28 17907016536422980771
20775530 9 18412547604265784858
21279426 13 18261942034539319783
22113638 7 15313222654328402242
2215653 11 18412537705004088119
23379529 103 18198073482334962318
23466295 7 17982187621036799022
23557571 272 18339349774336832920
23559900 14 18336263543728965613
238078 22 18267878194163733284
3117164 225 18341067271956074073
314173 41 18334293201321679441
329604 57 18409738348579293790
3737641 26 18342751736100879016
4280585 95 18187925033138921860
437815 12 18131355167704334173
46194498 28 18116441538003739966
5309563 4 18342462551326089223
6669772 16 17768539635907425020
6823239 73 18411415124874817650
7987 15 18043827578534989547
9709674 26 18337383963357687035
9862886 166 18195809558150359950

> <PUBCHEM_SHAPE_MULTIPOLES>
480.53
10.21
4.27
1.46
3.22
0.66
-0.48
-9.3
2.28
0.08
0.07
-1.37
0.2
2.58

> <PUBCHEM_SHAPE_SELFOVERLAP>
1059.467

> <PUBCHEM_SHAPE_VOLUME>
260.1

> <PUBCHEM_COORDINATE_TYPE>
2
5
10

$$$$
