26742072
  -OEChem-12032416403D

 56 58  0     1  0  0  0  0  0999 V2000
   -0.6875    3.0324   -2.6638 O   0  0  0  0  0  0  0  0  0  0  0  0
   -0.8924    0.0462    1.8274 O   0  0  0  0  0  0  0  0  0  0  0  0
    2.1072    3.2782    0.6375 O   0  0  0  0  0  0  0  0  0  0  0  0
    5.7727   -1.8314   -0.0721 O   0  0  0  0  0  0  0  0  0  0  0  0
   -2.3507    1.7036    1.1116 N   0  0  0  0  0  0  0  0  0  0  0  0
    0.5642    1.8094   -0.2770 N   0  0  0  0  0  0  0  0  0  0  0  0
   -3.0817   -0.5214    1.4235 N   0  0  0  0  0  0  0  0  0  0  0  0
   -0.5533    2.7364   -0.2993 C   0  0  1  0  0  0  0  0  0  0  0  0
   -1.4016    2.4658   -1.5562 C   0  0  1  0  0  0  0  0  0  0  0  0
   -2.8147    3.0612   -1.5477 C   0  0  0  0  0  0  0  0  0  0  0  0
   -1.2877    2.7063    1.0482 C   0  0  0  0  0  0  0  0  0  0  0  0
   -3.8381    2.1846   -0.8201 C   0  0  0  0  0  0  0  0  0  0  0  0
   -3.6769    2.1704    0.6940 C   0  0  0  0  0  0  0  0  0  0  0  0
   -2.0291    0.3853    1.4831 C   0  0  0  0  0  0  0  0  0  0  0  0
    1.8125    2.1703    0.1969 C   0  0  0  0  0  0  0  0  0  0  0  0
    2.8564    1.1157    0.1275 C   0  0  0  0  0  0  0  0  0  0  0  0
   -2.9162   -1.9175    1.7596 C   0  0  0  0  0  0  0  0  0  0  0  0
   -2.5343   -2.7418    0.5643 C   0  0  0  0  0  0  0  0  0  0  0  0
    4.2012    1.4713    0.0248 C   0  0  0  0  0  0  0  0  0  0  0  0
    2.4916   -0.2303    0.1632 C   0  0  0  0  0  0  0  0  0  0  0  0
    5.1814    0.4811   -0.0424 C   0  0  0  0  0  0  0  0  0  0  0  0
    3.4716   -1.2205    0.0959 C   0  0  0  0  0  0  0  0  0  0  0  0
   -3.5245   -3.3207   -0.2295 C   0  0  0  0  0  0  0  0  0  0  0  0
   -1.1889   -2.9287    0.2476 C   0  0  0  0  0  0  0  0  0  0  0  0
    4.8164   -0.8647   -0.0069 C   0  0  0  0  0  0  0  0  0  0  0  0
   -3.1693   -4.0865   -1.3399 C   0  0  0  0  0  0  0  0  0  0  0  0
   -0.8335   -3.6944   -0.8628 C   0  0  0  0  0  0  0  0  0  0  0  0
   -1.8238   -4.2734   -1.6565 C   0  0  0  0  0  0  0  0  0  0  0  0
    5.3291   -3.1869   -0.0306 C   0  0  0  0  0  0  0  0  0  0  0  0
   -0.1124    3.7384   -0.3925 H   0  0  0  0  0  0  0  0  0  0  0  0
   -1.4650    1.3874   -1.7497 H   0  0  0  0  0  0  0  0  0  0  0  0
   -3.1576    3.1762   -2.5845 H   0  0  0  0  0  0  0  0  0  0  0  0
   -2.8022    4.0759   -1.1313 H   0  0  0  0  0  0  0  0  0  0  0  0
   -0.5819    2.5225    1.8678 H   0  0  0  0  0  0  0  0  0  0  0  0
   -1.7314    3.6893    1.2466 H   0  0  0  0  0  0  0  0  0  0  0  0
   -4.8426    2.5587   -1.0529 H   0  0  0  0  0  0  0  0  0  0  0  0
   -3.7876    1.1607   -1.2103 H   0  0  0  0  0  0  0  0  0  0  0  0
   -3.8282    3.1795    1.0968 H   0  0  0  0  0  0  0  0  0  0  0  0
   -4.4645    1.5630    1.1467 H   0  0  0  0  0  0  0  0  0  0  0  0
    0.3948    0.8765   -0.6363 H   0  0  0  0  0  0  0  0  0  0  0  0
   -1.1551    2.7756   -3.4769 H   0  0  0  0  0  0  0  0  0  0  0  0
   -3.9737   -0.2569    1.0263 H   0  0  0  0  0  0  0  0  0  0  0  0
   -3.8669   -2.2676    2.1778 H   0  0  0  0  0  0  0  0  0  0  0  0
   -2.1657   -2.0220    2.5520 H   0  0  0  0  0  0  0  0  0  0  0  0
    4.5052    2.5141   -0.0092 H   0  0  0  0  0  0  0  0  0  0  0  0
    1.4613   -0.5529    0.2752 H   0  0  0  0  0  0  0  0  0  0  0  0
    6.2274    0.7640   -0.1235 H   0  0  0  0  0  0  0  0  0  0  0  0
    3.1194   -2.2457    0.1358 H   0  0  0  0  0  0  0  0  0  0  0  0
   -4.5763   -3.1808    0.0056 H   0  0  0  0  0  0  0  0  0  0  0  0
   -0.4058   -2.4889    0.8587 H   0  0  0  0  0  0  0  0  0  0  0  0
   -3.9403   -4.5369   -1.9583 H   0  0  0  0  0  0  0  0  0  0  0  0
    0.2143   -3.8402   -1.1089 H   0  0  0  0  0  0  0  0  0  0  0  0
   -1.5471   -4.8697   -2.5210 H   0  0  0  0  0  0  0  0  0  0  0  0
    6.2197   -3.8205   -0.0950 H   0  0  0  0  0  0  0  0  0  0  0  0
    4.7000   -3.4312   -0.8934 H   0  0  0  0  0  0  0  0  0  0  0  0
    4.8385   -3.4208    0.9203 H   0  0  0  0  0  0  0  0  0  0  0  0
  1  9  1  0  0  0  0
  1 41  1  0  0  0  0
  2 14  2  0  0  0  0
  3 15  2  0  0  0  0
  4 25  1  0  0  0  0
  4 29  1  0  0  0  0
  5 11  1  0  0  0  0
  5 13  1  0  0  0  0
  5 14  1  0  0  0  0
  6  8  1  0  0  0  0
  6 15  1  0  0  0  0
  6 40  1  0  0  0  0
  7 14  1  0  0  0  0
  7 17  1  0  0  0  0
  7 42  1  0  0  0  0
  8  9  1  0  0  0  0
  8 11  1  0  0  0  0
  8 30  1  0  0  0  0
  9 10  1  0  0  0  0
  9 31  1  0  0  0  0
 10 12  1  0  0  0  0
 10 32  1  0  0  0  0
 10 33  1  0  0  0  0
 11 34  1  0  0  0  0
 11 35  1  0  0  0  0
 12 13  1  0  0  0  0
 12 36  1  0  0  0  0
 12 37  1  0  0  0  0
 13 38  1  0  0  0  0
 13 39  1  0  0  0  0
 15 16  1  0  0  0  0
 16 19  2  0  0  0  0
 16 20  1  0  0  0  0
 17 18  1  0  0  0  0
 17 43  1  0  0  0  0
 17 44  1  0  0  0  0
 18 23  2  0  0  0  0
 18 24  1  0  0  0  0
 19 21  1  0  0  0  0
 19 45  1  0  0  0  0
 20 22  2  0  0  0  0
 20 46  1  0  0  0  0
 21 25  2  0  0  0  0
 21 47  1  0  0  0  0
 22 25  1  0  0  0  0
 22 48  1  0  0  0  0
 23 26  1  0  0  0  0
 23 49  1  0  0  0  0
 24 27  2  0  0  0  0
 24 50  1  0  0  0  0
 26 28  2  0  0  0  0
 26 51  1  0  0  0  0
 27 28  1  0  0  0  0
 27 52  1  0  0  0  0
 28 53  1  0  0  0  0
 29 54  1  0  0  0  0
 29 55  1  0  0  0  0
 29 56  1  0  0  0  0
M  END
> <PUBCHEM_COMPOUND_CID>
26742072

> <PUBCHEM_CONFORMER_RMSD>
1

> <PUBCHEM_CONFORMER_DIVERSEORDER>
3
61
23
12
111
112
92
62
46
58
45
64
82
119
57
97
124
121
9
26
95
30
60
33
24
100
35
77
109
63
78
37
49
89
66
84
91
114
106
79
19
2
36
115
72
88
107
110
59
15
53
120
18
39
87
116
104
96
55
7
98
22
51
99
108
94
41
71
122
1
75
73
52
28
47
70
40
44
83
86
50
80
76
113
101
117
6
38
16
90
69
105
93
123
32
85
27
14
56
34
25
20
65
118
103
21
31
4
10
67
54
29
48
17
102
43
5
81
13
68
42
74
11
8

> <PUBCHEM_MMFF94_PARTIAL_CHARGES>
39
1 -0.68
11 0.3
13 0.3
14 0.69
15 0.54
16 0.09
17 0.44
18 -0.14
19 -0.15
2 -0.57
20 -0.15
21 -0.15
22 -0.15
23 -0.15
24 -0.15
25 0.08
26 -0.15
27 -0.15
28 -0.15
29 0.28
3 -0.57
4 -0.36
40 0.37
41 0.4
42 0.37
45 0.15
46 0.15
47 0.15
48 0.15
49 0.15
5 -0.66
50 0.15
51 0.15
52 0.15
53 0.15
6 -0.73
7 -0.73
8 0.3
9 0.28

> <PUBCHEM_EFFECTIVE_ROTOR_COUNT>
9.4

> <PUBCHEM_PHARMACOPHORE_FEATURES>
10
1 1 acceptor
1 1 donor
1 2 acceptor
1 3 acceptor
1 4 acceptor
1 6 donor
1 7 donor
6 16 19 20 21 22 25 rings
6 18 23 24 26 27 28 rings
7 5 8 9 10 11 12 13 rings

> <PUBCHEM_HEAVY_ATOM_COUNT>
29

> <PUBCHEM_ATOM_DEF_STEREO_COUNT>
2

> <PUBCHEM_ATOM_UDEF_STEREO_COUNT>
0

> <PUBCHEM_BOND_DEF_STEREO_COUNT>
0

> <PUBCHEM_BOND_UDEF_STEREO_COUNT>
0

> <PUBCHEM_ISOTOPIC_ATOM_COUNT>
0

> <PUBCHEM_COMPONENT_COUNT>
1

> <PUBCHEM_CACTVS_TAUTO_COUNT>
4

> <PUBCHEM_CONFORMER_ID>
01980D3800000003

> <PUBCHEM_MMFF94_ENERGY>
78.9438

> <PUBCHEM_FEATURE_SELFOVERLAP>
50.749

> <PUBCHEM_SHAPE_FINGERPRINT>
10483366 6 18340470232916172855
11014199 57 17905615754304228890
11524674 6 18196085543187636324
11552529 35 18200882875897691720
12156800 1 17904999855888026619
12422481 6 18192461669628399419
13004483 165 18195240238148184147
13402501 40 18192718834283066097
14674994 50 18411978074860082301
19930381 70 17547575877412935945
20764821 26 18125452907846175750
20775438 99 17552309597088135661
20775530 9 18193559088942456690
21344244 181 18267561603798083733
23559900 14 18261112908009090808
26353 1 17756692393437171973
3298306 158 17828760647140784524
46194498 28 16888053000405380031
5080951 261 18116971395645732408
5085150 59 17613980912358603786

> <PUBCHEM_SHAPE_MULTIPOLES>
558.39
9.9
6.55
1.65
15.33
4.11
0.35
5.04
-0.22
-5.45
2.86
-1.95
-0.46
0.07

> <PUBCHEM_SHAPE_SELFOVERLAP>
1174.511

> <PUBCHEM_SHAPE_VOLUME>
310.3

> <PUBCHEM_COORDINATE_TYPE>
2
5
10

$$$$
