7135197
  -OEChem-12032416133D

 77 81  0     1  0  0  0  0  0999 V2000
   -1.4174   -3.5862   -0.5741 S   0  0  0  0  0  0  0  0  0  0  0  0
   -6.6658    2.0694    0.8729 O   0  0  0  0  0  0  0  0  0  0  0  0
   -7.2643    0.5312   -0.8650 O   0  0  0  0  0  0  0  0  0  0  0  0
    1.0578    0.4614    1.6018 O   0  0  0  0  0  0  0  0  0  0  0  0
    3.0867   -2.5927   -0.0117 O   0  0  0  0  0  0  0  0  0  0  0  0
    5.3300    5.3409   -1.4028 O   0  0  0  0  0  0  0  0  0  0  0  0
    0.2787   -1.6968   -0.0779 N   0  0  0  0  0  0  0  0  0  0  0  0
    2.2692    1.8456    0.1838 N   0  0  0  0  0  0  0  0  0  0  0  0
    1.1807   -3.9058   -0.4197 N   0  0  0  0  0  0  0  0  0  0  0  0
    4.0968    4.0060    0.0434 N   0  0  0  0  0  0  0  0  0  0  0  0
   -2.6506    0.8038   -0.2607 C   0  0  2  0  0  0  0  0  0  0  0  0
   -3.7009   -0.2665    0.2749 C   0  0  1  0  0  0  0  0  0  0  0  0
   -5.2155    0.1724    0.3101 C   0  0  1  0  0  0  0  0  0  0  0  0
   -1.1926    0.3341    0.1942 C   0  0  1  0  0  0  0  0  0  0  0  0
   -2.9440    2.1824    0.3860 C   0  0  0  0  0  0  0  0  0  0  0  0
   -5.3240    1.5884    0.9436 C   0  0  1  0  0  0  0  0  0  0  0  0
   -3.4679   -1.6640   -0.3698 C   0  0  0  0  0  0  0  0  0  0  0  0
   -4.4012    2.6113    0.2902 C   0  0  0  0  0  0  0  0  0  0  0  0
   -2.6839    0.9603   -1.8010 C   0  0  0  0  0  0  0  0  0  0  0  0
   -0.9831   -1.1318   -0.0869 C   0  0  0  0  0  0  0  0  0  0  0  0
   -5.9282    0.1258   -1.0597 C   0  0  0  0  0  0  0  0  0  0  0  0
   -6.0055   -0.8053    1.2255 C   0  0  0  0  0  0  0  0  0  0  0  0
   -2.0190   -2.0135   -0.3192 C   0  0  0  0  0  0  0  0  0  0  0  0
   -0.0446    1.1834   -0.3678 C   0  0  0  0  0  0  0  0  0  0  0  0
    1.1386    1.1252    0.5652 C   0  0  0  0  0  0  0  0  0  0  0  0
    0.1721   -2.9835   -0.3300 C   0  0  0  0  0  0  0  0  0  0  0  0
    2.4232    2.5846   -1.0765 C   0  0  0  0  0  0  0  0  0  0  0  0
    3.4603    1.8432    1.0369 C   0  0  0  0  0  0  0  0  0  0  0  0
    3.4083   -4.9557   -0.4370 C   0  0  0  0  0  0  0  0  0  0  0  0
    2.5593   -3.6797   -0.2613 C   0  0  0  0  0  0  0  0  0  0  0  0
    2.9059    4.0079   -0.8101 C   0  0  0  0  0  0  0  0  0  0  0  0
    3.9433    3.2664    1.3034 C   0  0  0  0  0  0  0  0  0  0  0  0
    3.2915   -6.0413    0.6530 C   0  0  0  0  0  0  0  0  0  0  0  0
    4.9068   -4.8668   -0.0801 C   0  0  0  0  0  0  0  0  0  0  0  0
    4.7927   -6.3188    0.4295 C   0  0  0  0  0  0  0  0  0  0  0  0
    5.2268    4.7277   -0.3373 C   0  0  0  0  0  0  0  0  0  0  0  0
    6.3799    4.7371    0.6340 C   0  0  0  0  0  0  0  0  0  0  0  0
   -3.4345   -0.3894    1.3392 H   0  0  0  0  0  0  0  0  0  0  0  0
   -1.2051    0.4165    1.2912 H   0  0  0  0  0  0  0  0  0  0  0  0
   -2.6654    2.1575    1.4478 H   0  0  0  0  0  0  0  0  0  0  0  0
   -2.3300    2.9662   -0.0719 H   0  0  0  0  0  0  0  0  0  0  0  0
   -5.0695    1.5219    2.0098 H   0  0  0  0  0  0  0  0  0  0  0  0
   -3.8016   -1.6746   -1.4128 H   0  0  0  0  0  0  0  0  0  0  0  0
   -4.0410   -2.4269    0.1675 H   0  0  0  0  0  0  0  0  0  0  0  0
   -4.6962    2.7918   -0.7493 H   0  0  0  0  0  0  0  0  0  0  0  0
   -4.5238    3.5804    0.7908 H   0  0  0  0  0  0  0  0  0  0  0  0
   -1.9301    1.6784   -2.1424 H   0  0  0  0  0  0  0  0  0  0  0  0
   -3.6317    1.3476   -2.1691 H   0  0  0  0  0  0  0  0  0  0  0  0
   -2.4832    0.0208   -2.3233 H   0  0  0  0  0  0  0  0  0  0  0  0
   -5.4914    0.8020   -1.7902 H   0  0  0  0  0  0  0  0  0  0  0  0
   -5.9345   -0.8839   -1.4812 H   0  0  0  0  0  0  0  0  0  0  0  0
   -6.0893   -1.8024    0.7806 H   0  0  0  0  0  0  0  0  0  0  0  0
   -7.0248   -0.4574    1.4271 H   0  0  0  0  0  0  0  0  0  0  0  0
   -5.5126   -0.9165    2.1983 H   0  0  0  0  0  0  0  0  0  0  0  0
    0.2543    0.8263   -1.3599 H   0  0  0  0  0  0  0  0  0  0  0  0
   -0.3341    2.2354   -0.4392 H   0  0  0  0  0  0  0  0  0  0  0  0
   -6.6937    2.9322    1.3203 H   0  0  0  0  0  0  0  0  0  0  0  0
   -7.7087    0.4900   -1.7289 H   0  0  0  0  0  0  0  0  0  0  0  0
    0.8782   -4.8545   -0.6251 H   0  0  0  0  0  0  0  0  0  0  0  0
    3.1640    2.0385   -1.6730 H   0  0  0  0  0  0  0  0  0  0  0  0
    1.4987    2.6175   -1.6547 H   0  0  0  0  0  0  0  0  0  0  0  0
    3.2625    1.3326    1.9844 H   0  0  0  0  0  0  0  0  0  0  0  0
    4.2317    1.2719    0.5065 H   0  0  0  0  0  0  0  0  0  0  0  0
    3.2670   -5.3754   -1.4452 H   0  0  0  0  0  0  0  0  0  0  0  0
    2.1340    4.5782   -0.2796 H   0  0  0  0  0  0  0  0  0  0  0  0
    3.1031    4.5191   -1.7575 H   0  0  0  0  0  0  0  0  0  0  0  0
    4.8715    3.2340    1.8763 H   0  0  0  0  0  0  0  0  0  0  0  0
    3.2044    3.8125    1.9022 H   0  0  0  0  0  0  0  0  0  0  0  0
    2.6216   -6.8744    0.4252 H   0  0  0  0  0  0  0  0  0  0  0  0
    3.0564   -5.6572    1.6525 H   0  0  0  0  0  0  0  0  0  0  0  0
    5.1528   -4.1465    0.7089 H   0  0  0  0  0  0  0  0  0  0  0  0
    5.5882   -4.7178   -0.9218 H   0  0  0  0  0  0  0  0  0  0  0  0
    4.9931   -7.0743   -0.3390 H   0  0  0  0  0  0  0  0  0  0  0  0
    5.3718   -6.5565    1.3251 H   0  0  0  0  0  0  0  0  0  0  0  0
    6.7733    3.7251    0.7610 H   0  0  0  0  0  0  0  0  0  0  0  0
    6.0633    5.1496    1.5956 H   0  0  0  0  0  0  0  0  0  0  0  0
    7.1820    5.3693    0.2406 H   0  0  0  0  0  0  0  0  0  0  0  0
  1 23  1  0  0  0  0
  1 26  1  0  0  0  0
  2 16  1  0  0  0  0
  2 57  1  0  0  0  0
  3 21  1  0  0  0  0
  3 58  1  0  0  0  0
  4 25  2  0  0  0  0
  5 30  2  0  0  0  0
  6 36  2  0  0  0  0
  7 20  1  0  0  0  0
  7 26  2  0  0  0  0
  8 25  1  0  0  0  0
  8 27  1  0  0  0  0
  8 28  1  0  0  0  0
  9 26  1  0  0  0  0
  9 30  1  0  0  0  0
  9 59  1  0  0  0  0
 10 31  1  0  0  0  0
 10 32  1  0  0  0  0
 10 36  1  0  0  0  0
 11 12  1  0  0  0  0
 11 14  1  0  0  0  0
 11 15  1  0  0  0  0
 11 19  1  0  0  0  0
 12 13  1  0  0  0  0
 12 17  1  0  0  0  0
 12 38  1  0  0  0  0
 13 16  1  0  0  0  0
 13 21  1  0  0  0  0
 13 22  1  0  0  0  0
 14 20  1  0  0  0  0
 14 24  1  0  0  0  0
 14 39  1  0  0  0  0
 15 18  1  0  0  0  0
 15 40  1  0  0  0  0
 15 41  1  0  0  0  0
 16 18  1  0  0  0  0
 16 42  1  0  0  0  0
 17 23  1  0  0  0  0
 17 43  1  0  0  0  0
 17 44  1  0  0  0  0
 18 45  1  0  0  0  0
 18 46  1  0  0  0  0
 19 47  1  0  0  0  0
 19 48  1  0  0  0  0
 19 49  1  0  0  0  0
 20 23  2  0  0  0  0
 21 50  1  0  0  0  0
 21 51  1  0  0  0  0
 22 52  1  0  0  0  0
 22 53  1  0  0  0  0
 22 54  1  0  0  0  0
 24 25  1  0  0  0  0
 24 55  1  0  0  0  0
 24 56  1  0  0  0  0
 27 31  1  0  0  0  0
 27 60  1  0  0  0  0
 27 61  1  0  0  0  0
 28 32  1  0  0  0  0
 28 62  1  0  0  0  0
 28 63  1  0  0  0  0
 29 30  1  0  0  0  0
 29 33  1  0  0  0  0
 29 34  1  0  0  0  0
 29 64  1  0  0  0  0
 31 65  1  0  0  0  0
 31 66  1  0  0  0  0
 32 67  1  0  0  0  0
 32 68  1  0  0  0  0
 33 35  1  0  0  0  0
 33 69  1  0  0  0  0
 33 70  1  0  0  0  0
 34 35  1  0  0  0  0
 34 71  1  0  0  0  0
 34 72  1  0  0  0  0
 35 73  1  0  0  0  0
 35 74  1  0  0  0  0
 36 37  1  0  0  0  0
 37 75  1  0  0  0  0
 37 76  1  0  0  0  0
 37 77  1  0  0  0  0
M  END
> <PUBCHEM_COMPOUND_CID>
7135197

> <PUBCHEM_CONFORMER_RMSD>
1.2

> <PUBCHEM_CONFORMER_DIVERSEORDER>
1
12
6
10
11
7
8
3
9
2
4
5

> <PUBCHEM_MMFF94_PARTIAL_CHARGES>
30
1 -0.08
10 -0.66
14 0.18
16 0.28
17 0.18
2 -0.68
20 0.05
21 0.28
23 -0.14
24 0.06
25 0.57
26 0.44
27 0.3
28 0.3
29 0.05
3 -0.68
30 0.58
31 0.3
32 0.3
36 0.57
37 0.06
4 -0.57
5 -0.57
57 0.4
58 0.4
59 0.37
6 -0.57
7 -0.57
8 -0.66
9 -0.49

> <PUBCHEM_EFFECTIVE_ROTOR_COUNT>
11.2

> <PUBCHEM_PHARMACOPHORE_FEATURES>
13
1 2 acceptor
1 2 donor
1 3 acceptor
1 3 donor
1 4 acceptor
1 5 acceptor
1 6 acceptor
1 9 donor
4 29 33 34 35 rings
5 1 7 20 23 26 rings
6 11 12 13 15 16 18 rings
6 11 12 14 17 20 23 rings
6 8 10 27 28 31 32 rings

> <PUBCHEM_HEAVY_ATOM_COUNT>
37

> <PUBCHEM_ATOM_DEF_STEREO_COUNT>
5

> <PUBCHEM_ATOM_UDEF_STEREO_COUNT>
0

> <PUBCHEM_BOND_DEF_STEREO_COUNT>
0

> <PUBCHEM_BOND_UDEF_STEREO_COUNT>
0

> <PUBCHEM_ISOTOPIC_ATOM_COUNT>
0

> <PUBCHEM_COMPONENT_COUNT>
1

> <PUBCHEM_CACTVS_TAUTO_COUNT>
3

> <PUBCHEM_CONFORMER_ID>
006CDFDD00000001

> <PUBCHEM_MMFF94_ENERGY>
110.8158

> <PUBCHEM_FEATURE_SELFOVERLAP>
66.12

> <PUBCHEM_SHAPE_FINGERPRINT>
10032420 55 17243300405492482827
10050765 1 18411982456328363923
102385 1 18339922714195507927
10290309 65 18410291436723898565
10319688 45 16969143125335766234
11049842 53 18268974536279498002
11062273 19 18270117899159498613
11136131 41 18336259136902999282
11297750 10 17898568679386211693
11411753 3 17967817116511215933
11445158 3 18198332971173287519
12660671 118 18042942346893452154
12977781 61 17969523626697422603
13248334 5 18410012100962089306
13540713 4 18187083919892332197
13757389 114 17474117969433533430
14068700 675 17914045400795506555
14394314 77 17835241147284995178
14790565 3 18195529426896948297
14849402 71 18340493244353665267
14937079 2 18196935474629955595
14955137 171 18194685852164586611
15230672 131 18266462199993200804
15297060 5 18126290976045478673
15400415 2 18194401323814619348
15439362 3 18410008836528319173
15927050 60 18270683198086049694
15980000 95 18051980221353331294
16990350 14 18411982498676429688
18393751 57 18121225539335878865
19311894 1 16825305027302241922
19319366 153 18271803583328275893
20238998 120 17834115243030119180
21133410 127 18186516613899140381
21133665 82 18126571361318736476
21796203 349 17763223195805687963
21927370 108 17835819498975601843
22311459 1 18410573955936038606
23523788 1 17318203818964642715
23559900 14 18265610988581600849
24771750 20 18341338854668657598
249999 5 18411702088487513939
283562 15 17909546499888971743
3380486 145 17402912024418518523
5171179 24 18191015699973798205
5265222 85 18051699029797275256
550186 72 17617376182643230854
563151 97 18124024891418239887
5776283 40 18265915690894546436
6058803 2 18273209782081717583
6086070 43 17829312611348701535
6673363 416 17907591225409427694
6703917 75 18050866694562148281
9896288 288 17905332084535809898
9962374 69 18269830914573534455
9981440 41 18120376715884099131

> <PUBCHEM_SHAPE_MULTIPOLES>
716.02
15.14
10.03
1.14
11.05
7.11
-0.05
-9.06
1.43
-29.26
-0.36
0.25
-0.66
-1.15

> <PUBCHEM_SHAPE_SELFOVERLAP>
1500.046

> <PUBCHEM_SHAPE_VOLUME>
408.3

> <PUBCHEM_COORDINATE_TYPE>
2
5
10

$$$$
