11882016
  -OEChem-12032416123D

 60 62  0     1  0  0  0  0  0999 V2000
   -2.0528    4.7153    2.0306 S   0  0  0  0  0  0  0  0  0  0  0  0
   -4.6679   -4.6682    0.6993 S   0  0  0  0  0  0  0  0  0  0  0  0
    4.0109   -0.3508    2.4677 F   0  0  0  0  0  0  0  0  0  0  0  0
    7.9015   -1.9495    0.3024 F   0  0  0  0  0  0  0  0  0  0  0  0
   -1.6925    0.6152    1.0152 O   0  0  0  0  0  0  0  0  0  0  0  0
   -3.9992    2.5974    0.3271 O   0  0  0  0  0  0  0  0  0  0  0  0
    2.7505    1.0651   -2.2324 O   0  0  0  0  0  0  0  0  0  0  0  0
    0.5832   -2.2471   -0.5597 O   0  0  0  0  0  0  0  0  0  0  0  0
   -1.9057    2.6405   -0.6593 N   0  0  0  0  0  0  0  0  0  0  0  0
    1.0953    1.6478   -0.7267 N   0  0  0  0  0  0  0  0  0  0  0  0
   -1.8662   -1.0033   -0.6490 N   0  0  0  0  0  0  0  0  0  0  0  0
    2.9725    0.5748    0.0527 N   0  0  0  0  0  0  0  0  0  0  0  0
    0.1090   -2.8810    1.5967 N   0  0  0  0  0  0  0  0  0  0  0  0
    0.2031    2.2548   -1.6824 C   0  0  1  0  0  0  0  0  0  0  0  0
   -1.9791    1.3122   -1.2499 C   0  0  1  0  0  0  0  0  0  0  0  0
   -0.8119    1.2492   -2.2327 C   0  0  0  0  0  0  0  0  0  0  0  0
   -0.6715    3.3271   -1.0404 C   0  0  0  0  0  0  0  0  0  0  0  0
   -1.8368    0.2919   -0.1608 C   0  0  0  0  0  0  0  0  0  0  0  0
   -2.9727    3.2068    0.0217 C   0  0  0  0  0  0  0  0  0  0  0  0
   -1.7260   -2.1689    0.1935 C   0  0  1  0  0  0  0  0  0  0  0  0
   -2.8077    4.6574    0.3992 C   0  0  0  0  0  0  0  0  0  0  0  0
    2.3294    1.0857   -1.0783 C   0  0  0  0  0  0  0  0  0  0  0  0
   -2.4404   -3.3957   -0.3867 C   0  0  0  0  0  0  0  0  0  0  0  0
   -0.2355   -2.4408    0.3358 C   0  0  0  0  0  0  0  0  0  0  0  0
   -3.9292   -3.3665   -0.1326 C   0  0  0  0  0  0  0  0  0  0  0  0
    4.2303   -0.0686    0.1195 C   0  0  0  0  0  0  0  0  0  0  0  0
   -1.9697    6.5116    2.2365 C   0  0  0  0  0  0  0  0  0  0  0  0
   -4.8406   -2.3968   -0.4886 C   0  0  0  0  0  0  0  0  0  0  0  0
   -6.1627   -2.7267   -0.0726 C   0  0  0  0  0  0  0  0  0  0  0  0
    4.7219   -0.5211    1.3440 C   0  0  0  0  0  0  0  0  0  0  0  0
    4.9791   -0.2511   -1.0431 C   0  0  0  0  0  0  0  0  0  0  0  0
   -6.2115   -3.9360    0.5853 C   0  0  0  0  0  0  0  0  0  0  0  0
    5.9623   -1.1560    1.4059 C   0  0  0  0  0  0  0  0  0  0  0  0
    6.2195   -0.8861   -0.9811 C   0  0  0  0  0  0  0  0  0  0  0  0
    6.7111   -1.3384    0.2433 C   0  0  0  0  0  0  0  0  0  0  0  0
    0.8109    2.6800   -2.4886 H   0  0  0  0  0  0  0  0  0  0  0  0
   -2.9482    1.1714   -1.7419 H   0  0  0  0  0  0  0  0  0  0  0  0
   -1.1615    1.6086   -3.2095 H   0  0  0  0  0  0  0  0  0  0  0  0
   -0.3824    0.2544   -2.3836 H   0  0  0  0  0  0  0  0  0  0  0  0
   -0.9395    4.0882   -1.7821 H   0  0  0  0  0  0  0  0  0  0  0  0
   -0.2059    3.8136   -0.1794 H   0  0  0  0  0  0  0  0  0  0  0  0
    0.7883    1.5676    0.2381 H   0  0  0  0  0  0  0  0  0  0  0  0
   -1.9596   -1.1520   -1.6496 H   0  0  0  0  0  0  0  0  0  0  0  0
   -2.1333   -1.9224    1.1828 H   0  0  0  0  0  0  0  0  0  0  0  0
   -2.2213    5.2159   -0.3325 H   0  0  0  0  0  0  0  0  0  0  0  0
   -3.8032    5.1126    0.4376 H   0  0  0  0  0  0  0  0  0  0  0  0
   -2.2713   -3.4644   -1.4696 H   0  0  0  0  0  0  0  0  0  0  0  0
   -2.0081   -4.3080    0.0449 H   0  0  0  0  0  0  0  0  0  0  0  0
    2.4856    0.6718    0.9402 H   0  0  0  0  0  0  0  0  0  0  0  0
    1.0753   -3.0840    1.8303 H   0  0  0  0  0  0  0  0  0  0  0  0
   -0.5770   -3.0335    2.3289 H   0  0  0  0  0  0  0  0  0  0  0  0
   -4.5861   -1.4940   -1.0281 H   0  0  0  0  0  0  0  0  0  0  0  0
   -1.3474    6.9551    1.4549 H   0  0  0  0  0  0  0  0  0  0  0  0
   -2.9725    6.9452    2.2004 H   0  0  0  0  0  0  0  0  0  0  0  0
   -1.5253    6.7424    3.2082 H   0  0  0  0  0  0  0  0  0  0  0  0
   -7.0340   -2.1093   -0.2486 H   0  0  0  0  0  0  0  0  0  0  0  0
    4.6677    0.0701   -2.0267 H   0  0  0  0  0  0  0  0  0  0  0  0
   -7.0799   -4.4247    1.0039 H   0  0  0  0  0  0  0  0  0  0  0  0
    6.3450   -1.5086    2.3590 H   0  0  0  0  0  0  0  0  0  0  0  0
    6.8038   -1.0293   -1.8854 H   0  0  0  0  0  0  0  0  0  0  0  0
  1 21  1  0  0  0  0
  1 27  1  0  0  0  0
  2 25  1  0  0  0  0
  2 32  1  0  0  0  0
  3 30  1  0  0  0  0
  4 35  1  0  0  0  0
  5 18  2  0  0  0  0
  6 19  2  0  0  0  0
  7 22  2  0  0  0  0
  8 24  2  0  0  0  0
  9 15  1  0  0  0  0
  9 17  1  0  0  0  0
  9 19  1  0  0  0  0
 10 14  1  0  0  0  0
 10 22  1  0  0  0  0
 10 42  1  0  0  0  0
 11 18  1  0  0  0  0
 11 20  1  0  0  0  0
 11 43  1  0  0  0  0
 12 22  1  0  0  0  0
 12 26  1  0  0  0  0
 12 49  1  0  0  0  0
 13 24  1  0  0  0  0
 13 50  1  0  0  0  0
 13 51  1  0  0  0  0
 14 16  1  0  0  0  0
 14 17  1  0  0  0  0
 14 36  1  0  0  0  0
 15 16  1  0  0  0  0
 15 18  1  0  0  0  0
 15 37  1  0  0  0  0
 16 38  1  0  0  0  0
 16 39  1  0  0  0  0
 17 40  1  0  0  0  0
 17 41  1  0  0  0  0
 19 21  1  0  0  0  0
 20 23  1  0  0  0  0
 20 24  1  0  0  0  0
 20 44  1  0  0  0  0
 21 45  1  0  0  0  0
 21 46  1  0  0  0  0
 23 25  1  0  0  0  0
 23 47  1  0  0  0  0
 23 48  1  0  0  0  0
 25 28  2  0  0  0  0
 26 30  2  0  0  0  0
 26 31  1  0  0  0  0
 27 53  1  0  0  0  0
 27 54  1  0  0  0  0
 27 55  1  0  0  0  0
 28 29  1  0  0  0  0
 28 52  1  0  0  0  0
 29 32  2  0  0  0  0
 29 56  1  0  0  0  0
 30 33  1  0  0  0  0
 31 34  2  0  0  0  0
 31 57  1  0  0  0  0
 32 58  1  0  0  0  0
 33 35  2  0  0  0  0
 33 59  1  0  0  0  0
 34 35  1  0  0  0  0
 34 60  1  0  0  0  0
M  END
> <PUBCHEM_COMPOUND_CID>
11882016

> <PUBCHEM_CONFORMER_RMSD>
1.2

> <PUBCHEM_CONFORMER_DIVERSEORDER>
1
56
20
59
37
4
39
12
60
29
53
51
49
46
34
40
3
6
43
31
62
52
47
41
27
36
23
22
71
73
75
32
44
15
67
61
19
42
30
8
28
65
74
57
38
14
54
68
7
66
69
5
64
45
33
72
26
35
48
58
16
70
21
50
24
25
18
55
10
13
2
17
9
63
11

> <PUBCHEM_MMFF94_PARTIAL_CHARGES>
45
1 -0.46
10 -0.73
11 -0.73
12 -0.55
13 -0.8
14 0.3
15 0.36
17 0.3
18 0.57
19 0.57
2 -0.08
20 0.36
21 0.29
22 0.69
23 0.18
24 0.57
25 -0.14
26 0.12
27 0.23
28 -0.15
29 -0.15
3 -0.19
30 0.19
31 -0.15
32 -0.11
33 -0.15
34 -0.15
35 0.19
4 -0.19
42 0.37
43 0.37
49 0.37
5 -0.57
50 0.37
51 0.37
52 0.15
56 0.15
57 0.15
58 0.15
59 0.15
6 -0.57
60 0.15
7 -0.57
8 -0.57
9 -0.66

> <PUBCHEM_EFFECTIVE_ROTOR_COUNT>
14

> <PUBCHEM_PHARMACOPHORE_FEATURES>
12
1 10 donor
1 11 donor
1 12 donor
1 13 donor
1 27 hydrophobe
1 5 acceptor
1 6 acceptor
1 7 acceptor
1 8 acceptor
5 2 25 28 29 32 rings
5 9 14 15 16 17 rings
6 26 30 31 33 34 35 rings

> <PUBCHEM_HEAVY_ATOM_COUNT>
35

> <PUBCHEM_ATOM_DEF_STEREO_COUNT>
3

> <PUBCHEM_ATOM_UDEF_STEREO_COUNT>
0

> <PUBCHEM_BOND_DEF_STEREO_COUNT>
0

> <PUBCHEM_BOND_UDEF_STEREO_COUNT>
0

> <PUBCHEM_ISOTOPIC_ATOM_COUNT>
0

> <PUBCHEM_COMPONENT_COUNT>
1

> <PUBCHEM_CACTVS_TAUTO_COUNT>
12

> <PUBCHEM_CONFORMER_ID>
00B54E2000000001

> <PUBCHEM_MMFF94_ENERGY>
79.1924

> <PUBCHEM_FEATURE_SELFOVERLAP>
60.949

> <PUBCHEM_SHAPE_FINGERPRINT>
10622 236 18114180881935718726
11331351 85 18341331214096008527
11456790 92 18190191251643929091
12166972 35 17386565898254756510
12422481 6 17988365982668141759
12788726 201 18193012601677925901
13004483 165 18268430324777804359
13540713 5 18115324348797450916
14068700 675 18334857272361824495
14395042 24 18260823788016239555
14866123 147 18408608046030201175
14955137 171 18120936367994291907
15420108 30 18047752598859624465
16992752 21 18264500640682837372
22889206 1 17404016423408399633
22899556 56 18130225939340307424
244849 19 17416982638043944246
4144715 1 18200314308829024256
6697151 62 18054784246761173711
79837 15 18196940976694220665
9896288 288 18271247093163709007

> <PUBCHEM_SHAPE_MULTIPOLES>
665.05
14.73
8.02
1.85
20
10.86
0.23
-20.29
3.03
-14.79
4.75
1.09
1.75
-1.4

> <PUBCHEM_SHAPE_SELFOVERLAP>
1374.815

> <PUBCHEM_SHAPE_VOLUME>
382.8

> <PUBCHEM_COORDINATE_TYPE>
2
5
10

$$$$
