11882025
  -OEChem-12032416353D

 67 70  0     1  0  0  0  0  0999 V2000
   -5.2924    2.5005    2.2163 S   0  0  0  0  0  0  0  0  0  0  0  0
    2.5724    1.6618    2.4744 F   0  0  0  0  0  0  0  0  0  0  0  0
    6.6564    2.6299    0.2915 F   0  0  0  0  0  0  0  0  0  0  0  0
   -2.7238   -0.6366    0.9783 O   0  0  0  0  0  0  0  0  0  0  0  0
   -5.7551   -0.2426    0.3623 O   0  0  0  0  0  0  0  0  0  0  0  0
    0.6580    2.3972   -2.1600 O   0  0  0  0  0  0  0  0  0  0  0  0
   -3.1076   -4.4237   -0.1936 O   0  0  0  0  0  0  0  0  0  0  0  0
   -4.0583    1.0163   -0.5831 N   0  0  0  0  0  0  0  0  0  0  0  0
   -1.0154    1.8716   -0.6533 N   0  0  0  0  0  0  0  0  0  0  0  0
   -1.9933   -1.9798   -0.7771 N   0  0  0  0  0  0  0  0  0  0  0  0
    1.1540    1.9858    0.0974 N   0  0  0  0  0  0  0  0  0  0  0  0
    2.5220   -1.0428   -1.6595 N   0  0  0  0  0  0  0  0  0  0  0  0
   -1.8178   -4.5188    1.7046 N   0  0  0  0  0  0  0  0  0  0  0  0
   -2.1103    1.9307   -1.5890 C   0  0  1  0  0  0  0  0  0  0  0  0
   -3.3884   -0.0913   -1.2487 C   0  0  1  0  0  0  0  0  0  0  0  0
   -2.4011    0.5630   -2.2127 C   0  0  0  0  0  0  0  0  0  0  0  0
   -3.4234    2.2947   -0.9032 C   0  0  0  0  0  0  0  0  0  0  0  0
   -2.6830   -0.9184   -0.2164 C   0  0  0  0  0  0  0  0  0  0  0  0
   -5.2482    0.8518    0.1098 C   0  0  0  0  0  0  0  0  0  0  0  0
   -1.2128   -2.9146    0.0008 C   0  0  2  0  0  0  0  0  0  0  0  0
   -5.9139    2.1237    0.5712 C   0  0  0  0  0  0  0  0  0  0  0  0
    0.3164    2.1141   -1.0142 C   0  0  0  0  0  0  0  0  0  0  0  0
   -0.0571   -3.5193   -0.8062 C   0  0  0  0  0  0  0  0  0  0  0  0
    1.1272   -2.6019   -0.9174 C   0  0  0  0  0  0  0  0  0  0  0  0
   -2.1620   -4.0072    0.4712 C   0  0  0  0  0  0  0  0  0  0  0  0
    2.2312   -2.5305   -0.0226 C   0  0  0  0  0  0  0  0  0  0  0  0
    1.3347   -1.6754   -1.9132 C   0  0  0  0  0  0  0  0  0  0  0  0
    3.0915   -1.5447   -0.5110 C   0  0  0  0  0  0  0  0  0  0  0  0
    2.5577    2.1506    0.1500 C   0  0  0  0  0  0  0  0  0  0  0  0
    2.5824   -3.2119    1.1596 C   0  0  0  0  0  0  0  0  0  0  0  0
    4.2902   -1.2051    0.1264 C   0  0  0  0  0  0  0  0  0  0  0  0
   -6.2218    4.0228    2.5243 C   0  0  0  0  0  0  0  0  0  0  0  0
    3.7783   -2.8827    1.8079 C   0  0  0  0  0  0  0  0  0  0  0  0
    4.6176   -1.8944    1.2975 C   0  0  0  0  0  0  0  0  0  0  0  0
    3.2385    1.9808    1.3556 C   0  0  0  0  0  0  0  0  0  0  0  0
    3.2614    2.4827   -1.0076 C   0  0  0  0  0  0  0  0  0  0  0  0
    4.6231    2.1432    1.4035 C   0  0  0  0  0  0  0  0  0  0  0  0
    4.6460    2.6451   -0.9596 C   0  0  0  0  0  0  0  0  0  0  0  0
    5.3267    2.4754    0.2459 C   0  0  0  0  0  0  0  0  0  0  0  0
   -1.8564    2.6673   -2.3591 H   0  0  0  0  0  0  0  0  0  0  0  0
   -4.1227   -0.7200   -1.7649 H   0  0  0  0  0  0  0  0  0  0  0  0
   -1.4941   -0.0150   -2.4111 H   0  0  0  0  0  0  0  0  0  0  0  0
   -2.9079    0.7209   -3.1738 H   0  0  0  0  0  0  0  0  0  0  0  0
   -3.2939    2.9086   -0.0081 H   0  0  0  0  0  0  0  0  0  0  0  0
   -4.0827    2.8174   -1.6055 H   0  0  0  0  0  0  0  0  0  0  0  0
   -1.2090    1.5789    0.2996 H   0  0  0  0  0  0  0  0  0  0  0  0
   -2.1015   -2.1655   -1.7702 H   0  0  0  0  0  0  0  0  0  0  0  0
   -0.8287   -2.3841    0.8819 H   0  0  0  0  0  0  0  0  0  0  0  0
   -6.9933    1.9434    0.6175 H   0  0  0  0  0  0  0  0  0  0  0  0
   -5.7510    2.9547   -0.1175 H   0  0  0  0  0  0  0  0  0  0  0  0
    0.2752   -4.4562   -0.3401 H   0  0  0  0  0  0  0  0  0  0  0  0
   -0.3983   -3.7966   -1.8128 H   0  0  0  0  0  0  0  0  0  0  0  0
    0.7109    1.7434    0.9800 H   0  0  0  0  0  0  0  0  0  0  0  0
    0.7456   -1.4079   -2.7793 H   0  0  0  0  0  0  0  0  0  0  0  0
    2.9232   -0.3133   -2.2323 H   0  0  0  0  0  0  0  0  0  0  0  0
    1.9389   -3.9838    1.5721 H   0  0  0  0  0  0  0  0  0  0  0  0
   -1.0187   -4.1814    2.2316 H   0  0  0  0  0  0  0  0  0  0  0  0
   -2.3607   -5.2635    2.1291 H   0  0  0  0  0  0  0  0  0  0  0  0
    4.9562   -0.4554   -0.2838 H   0  0  0  0  0  0  0  0  0  0  0  0
   -5.9653    4.4069    3.5152 H   0  0  0  0  0  0  0  0  0  0  0  0
   -7.2963    3.8247    2.4950 H   0  0  0  0  0  0  0  0  0  0  0  0
   -5.9658    4.7813    1.7800 H   0  0  0  0  0  0  0  0  0  0  0  0
    4.0546   -3.4055    2.7197 H   0  0  0  0  0  0  0  0  0  0  0  0
    5.5445   -1.6581    1.8140 H   0  0  0  0  0  0  0  0  0  0  0  0
    2.8075    2.6292   -1.9772 H   0  0  0  0  0  0  0  0  0  0  0  0
    5.1533    2.0095    2.3416 H   0  0  0  0  0  0  0  0  0  0  0  0
    5.1956    2.9023   -1.8603 H   0  0  0  0  0  0  0  0  0  0  0  0
  1 21  1  0  0  0  0
  1 32  1  0  0  0  0
  2 35  1  0  0  0  0
  3 39  1  0  0  0  0
  4 18  2  0  0  0  0
  5 19  2  0  0  0  0
  6 22  2  0  0  0  0
  7 25  2  0  0  0  0
  8 15  1  0  0  0  0
  8 17  1  0  0  0  0
  8 19  1  0  0  0  0
  9 14  1  0  0  0  0
  9 22  1  0  0  0  0
  9 46  1  0  0  0  0
 10 18  1  0  0  0  0
 10 20  1  0  0  0  0
 10 47  1  0  0  0  0
 11 22  1  0  0  0  0
 11 29  1  0  0  0  0
 11 53  1  0  0  0  0
 12 27  1  0  0  0  0
 12 28  1  0  0  0  0
 12 55  1  0  0  0  0
 13 25  1  0  0  0  0
 13 57  1  0  0  0  0
 13 58  1  0  0  0  0
 14 16  1  0  0  0  0
 14 17  1  0  0  0  0
 14 40  1  0  0  0  0
 15 16  1  0  0  0  0
 15 18  1  0  0  0  0
 15 41  1  0  0  0  0
 16 42  1  0  0  0  0
 16 43  1  0  0  0  0
 17 44  1  0  0  0  0
 17 45  1  0  0  0  0
 19 21  1  0  0  0  0
 20 23  1  0  0  0  0
 20 25  1  0  0  0  0
 20 48  1  0  0  0  0
 21 49  1  0  0  0  0
 21 50  1  0  0  0  0
 23 24  1  0  0  0  0
 23 51  1  0  0  0  0
 23 52  1  0  0  0  0
 24 26  1  0  0  0  0
 24 27  2  0  0  0  0
 26 28  1  0  0  0  0
 26 30  2  0  0  0  0
 27 54  1  0  0  0  0
 28 31  2  0  0  0  0
 29 35  2  0  0  0  0
 29 36  1  0  0  0  0
 30 33  1  0  0  0  0
 30 56  1  0  0  0  0
 31 34  1  0  0  0  0
 31 59  1  0  0  0  0
 32 60  1  0  0  0  0
 32 61  1  0  0  0  0
 32 62  1  0  0  0  0
 33 34  2  0  0  0  0
 33 63  1  0  0  0  0
 34 64  1  0  0  0  0
 35 37  1  0  0  0  0
 36 38  2  0  0  0  0
 36 65  1  0  0  0  0
 37 39  2  0  0  0  0
 37 66  1  0  0  0  0
 38 39  1  0  0  0  0
 38 67  1  0  0  0  0
M  END
> <PUBCHEM_COMPOUND_CID>
11882025

> <PUBCHEM_CONFORMER_RMSD>
1.2

> <PUBCHEM_CONFORMER_DIVERSEORDER>
1
7
112
163
123
132
134
176
162
3
95
149
120
14
82
72
65
122
74
68
126
11
148
27
38
129
76
167
86
32
105
156
182
64
34
127
160
6
60
18
130
109
83
81
43
24
168
145
16
169
188
158
161
137
119
87
79
30
128
61
44
66
19
62
80
157
139
85
71
47
108
33
69
113
175
28
39
140
51
104
110
131
111
13
178
155
91
165
22
146
136
154
63
106
150
187
52
142
37
186
125
185
35
59
115
93
12
10
97
70
36
164
9
177
180
67
56
121
48
124
75
166
29
174
53
173
100
26
88
103
183
89
98
118
172
114
107
151
94
73
141
138
17
143
50
147
170
31
90
57
54
133
8
78
144
23
171
55
77
101
49
21
92
42
159
184
15
25
179
99
40
41
84
116
117
58
96
181
152
2
5
135
153
45
102
20
46
4

> <PUBCHEM_MMFF94_PARTIAL_CHARGES>
51
1 -0.46
10 -0.73
11 -0.55
12 0.03
13 -0.8
14 0.3
15 0.36
17 0.3
18 0.57
19 0.57
2 -0.19
20 0.36
21 0.29
22 0.69
23 0.18
24 -0.18
25 0.57
27 -0.3
28 -0.15
29 0.12
3 -0.19
30 -0.15
31 -0.15
32 0.23
33 -0.15
34 -0.15
35 0.19
36 -0.15
37 -0.15
38 -0.15
39 0.19
4 -0.57
46 0.37
47 0.37
5 -0.57
53 0.37
54 0.15
55 0.27
56 0.15
57 0.37
58 0.37
59 0.15
6 -0.57
63 0.15
64 0.15
65 0.15
66 0.15
67 0.15
7 -0.57
8 -0.66
9 -0.73

> <PUBCHEM_EFFECTIVE_ROTOR_COUNT>
14

> <PUBCHEM_PHARMACOPHORE_FEATURES>
15
1 10 donor
1 11 donor
1 12 cation
1 12 donor
1 13 donor
1 32 hydrophobe
1 4 acceptor
1 5 acceptor
1 6 acceptor
1 7 acceptor
1 9 donor
5 12 24 26 27 28 rings
5 8 14 15 16 17 rings
6 26 28 30 31 33 34 rings
6 29 35 36 37 38 39 rings

> <PUBCHEM_HEAVY_ATOM_COUNT>
39

> <PUBCHEM_ATOM_DEF_STEREO_COUNT>
3

> <PUBCHEM_ATOM_UDEF_STEREO_COUNT>
0

> <PUBCHEM_BOND_DEF_STEREO_COUNT>
0

> <PUBCHEM_BOND_UDEF_STEREO_COUNT>
0

> <PUBCHEM_ISOTOPIC_ATOM_COUNT>
0

> <PUBCHEM_COMPONENT_COUNT>
1

> <PUBCHEM_CACTVS_TAUTO_COUNT>
12

> <PUBCHEM_CONFORMER_ID>
00B54E2900000001

> <PUBCHEM_MMFF94_ENERGY>
86.5795

> <PUBCHEM_FEATURE_SELFOVERLAP>
76.267

> <PUBCHEM_SHAPE_FINGERPRINT>
10439779 11 18341047518526442073
10675989 125 15381028737981994100
11513181 2 18130219467347534486
12422481 6 18187645752537630141
12608794 3 18265889155732179219
12633257 1 18339351968479941710
13140716 1 18410003364809030278
14725015 67 17970902259374421727
16112460 7 18341896259798025041
20764821 26 18334284388228272726
22223350 30 17677351445525292523
3052486 1 18045498879617597108
338550 245 18188764076691628364
3680242 22 18192993716522173570
392239 28 18265048034043269711
4112364 45 17913228481480023585
4144715 1 18338243790400154690
508706 21 18265615570663210406

> <PUBCHEM_SHAPE_MULTIPOLES>
738.54
13.23
6.28
2.11
8.17
4.16
0.44
-12.31
6.79
-0.76
1.88
0.9
-0.92
-2.11

> <PUBCHEM_SHAPE_SELFOVERLAP>
1573.051

> <PUBCHEM_SHAPE_VOLUME>
415.5

> <PUBCHEM_COORDINATE_TYPE>
2
5
10

$$$$
