45783427
  -OEChem-12032416263D

 59 62  0     1  0  0  0  0  0999 V2000
   -1.3269   -0.0733    2.6587 O   0  0  0  0  0  0  0  0  0  0  0  0
    0.8991   -1.6718   -1.0829 O   0  0  0  0  0  0  0  0  0  0  0  0
    3.3669    2.2756   -1.7202 O   0  0  0  0  0  0  0  0  0  0  0  0
   -0.8898   -1.9158   -3.2214 O   0  0  0  0  0  0  0  0  0  0  0  0
   -3.3287    0.6403   -0.1399 N   0  0  1  0  0  0  0  0  0  0  0  0
   -1.0040   -1.2597    0.7865 N   0  0  0  0  0  0  0  0  0  0  0  0
   -0.0280   -0.5902    2.7444 N   0  0  0  0  0  0  0  0  0  0  0  0
    2.5131    3.1658    0.2890 N   0  0  0  0  0  0  0  0  0  0  0  0
    2.7799   -2.8457   -0.4414 N   0  0  0  0  0  0  0  0  0  0  0  0
   -3.2440   -0.0864    1.1427 C   0  0  1  0  0  0  0  0  0  0  0  0
   -4.2045   -1.2789    0.9809 C   0  0  0  0  0  0  0  0  0  0  0  0
   -4.8268   -1.1043   -0.3972 C   0  0  0  0  0  0  0  0  0  0  0  0
   -4.6636    0.3760   -0.6773 C   0  0  0  0  0  0  0  0  0  0  0  0
   -3.0624    2.0671   -0.0105 C   0  0  0  0  0  0  0  0  0  0  0  0
   -1.8306   -0.5153    1.4765 C   0  0  0  0  0  0  0  0  0  0  0  0
   -1.5871    2.3572    0.0688 C   0  0  0  0  0  0  0  0  0  0  0  0
   -1.0658    3.0200    1.1799 C   0  0  0  0  0  0  0  0  0  0  0  0
   -0.7418    1.9638   -0.9687 C   0  0  0  0  0  0  0  0  0  0  0  0
    0.0883   -1.2774    1.6042 C   0  0  0  0  0  0  0  0  0  0  0  0
    0.3007    3.2895    1.2535 C   0  0  0  0  0  0  0  0  0  0  0  0
    0.6248    2.2334   -0.8953 C   0  0  0  0  0  0  0  0  0  0  0  0
    1.1460    2.8962    0.2160 C   0  0  0  0  0  0  0  0  0  0  0  0
    1.2806   -1.9934    1.2530 C   0  0  0  0  0  0  0  0  0  0  0  0
    1.6657   -2.1788   -0.0651 C   0  0  0  0  0  0  0  0  0  0  0  0
    2.0911   -2.5266    2.2489 C   0  0  0  0  0  0  0  0  0  0  0  0
    3.2458   -3.2191    1.9013 C   0  0  0  0  0  0  0  0  0  0  0  0
    3.5080    2.8509   -0.6461 C   0  0  0  0  0  0  0  0  0  0  0  0
    3.5429   -3.3498    0.5543 C   0  0  0  0  0  0  0  0  0  0  0  0
    1.3616   -1.9043   -2.4076 C   0  0  0  0  0  0  0  0  0  0  0  0
    4.8690    3.3164   -0.1924 C   0  0  0  0  0  0  0  0  0  0  0  0
    0.3790   -1.2949   -3.3890 C   0  0  0  0  0  0  0  0  0  0  0  0
   -1.8587   -1.3665   -4.1035 C   0  0  0  0  0  0  0  0  0  0  0  0
   -3.6279    0.5321    1.9664 H   0  0  0  0  0  0  0  0  0  0  0  0
   -3.7192   -2.2570    1.0676 H   0  0  0  0  0  0  0  0  0  0  0  0
   -4.9892   -1.2257    1.7455 H   0  0  0  0  0  0  0  0  0  0  0  0
   -5.8727   -1.4237   -0.4227 H   0  0  0  0  0  0  0  0  0  0  0  0
   -4.2708   -1.6964   -1.1348 H   0  0  0  0  0  0  0  0  0  0  0  0
   -4.7268    0.5915   -1.7484 H   0  0  0  0  0  0  0  0  0  0  0  0
   -5.4360    0.9506   -0.1504 H   0  0  0  0  0  0  0  0  0  0  0  0
   -3.6059    2.5070    0.8360 H   0  0  0  0  0  0  0  0  0  0  0  0
   -3.4279    2.5969   -0.9016 H   0  0  0  0  0  0  0  0  0  0  0  0
   -1.7122    3.3302    1.9965 H   0  0  0  0  0  0  0  0  0  0  0  0
   -1.1363    1.4516   -1.8422 H   0  0  0  0  0  0  0  0  0  0  0  0
    0.6934    3.8057    2.1259 H   0  0  0  0  0  0  0  0  0  0  0  0
    1.2153    1.8977   -1.7362 H   0  0  0  0  0  0  0  0  0  0  0  0
    1.8452   -2.4245    3.3029 H   0  0  0  0  0  0  0  0  0  0  0  0
    2.8154    3.6518    1.1308 H   0  0  0  0  0  0  0  0  0  0  0  0
    3.8919   -3.6448    2.6605 H   0  0  0  0  0  0  0  0  0  0  0  0
    4.4317   -3.8812    0.2306 H   0  0  0  0  0  0  0  0  0  0  0  0
    1.4211   -2.9846   -2.5894 H   0  0  0  0  0  0  0  0  0  0  0  0
    2.3464   -1.4444   -2.5527 H   0  0  0  0  0  0  0  0  0  0  0  0
    5.6234    3.0316   -0.9309 H   0  0  0  0  0  0  0  0  0  0  0  0
    4.8700    4.4046   -0.0841 H   0  0  0  0  0  0  0  0  0  0  0  0
    5.1191    2.8531    0.7662 H   0  0  0  0  0  0  0  0  0  0  0  0
    0.2787   -0.2213   -3.1962 H   0  0  0  0  0  0  0  0  0  0  0  0
    0.7331   -1.4463   -4.4146 H   0  0  0  0  0  0  0  0  0  0  0  0
   -2.0003   -0.3003   -3.9014 H   0  0  0  0  0  0  0  0  0  0  0  0
   -1.5594   -1.5173   -5.1452 H   0  0  0  0  0  0  0  0  0  0  0  0
   -2.8084   -1.8812   -3.9346 H   0  0  0  0  0  0  0  0  0  0  0  0
  1  7  1  0  0  0  0
  1 15  1  0  0  0  0
  2 24  1  0  0  0  0
  2 29  1  0  0  0  0
  3 27  2  0  0  0  0
  4 31  1  0  0  0  0
  4 32  1  0  0  0  0
  5 10  1  0  0  0  0
  5 13  1  0  0  0  0
  5 14  1  0  0  0  0
  6 15  2  0  0  0  0
  6 19  1  0  0  0  0
  7 19  2  0  0  0  0
  8 22  1  0  0  0  0
  8 27  1  0  0  0  0
  8 47  1  0  0  0  0
  9 24  1  0  0  0  0
  9 28  2  0  0  0  0
 10 11  1  0  0  0  0
 10 15  1  0  0  0  0
 10 33  1  0  0  0  0
 11 12  1  0  0  0  0
 11 34  1  0  0  0  0
 11 35  1  0  0  0  0
 12 13  1  0  0  0  0
 12 36  1  0  0  0  0
 12 37  1  0  0  0  0
 13 38  1  0  0  0  0
 13 39  1  0  0  0  0
 14 16  1  0  0  0  0
 14 40  1  0  0  0  0
 14 41  1  0  0  0  0
 16 17  2  0  0  0  0
 16 18  1  0  0  0  0
 17 20  1  0  0  0  0
 17 42  1  0  0  0  0
 18 21  2  0  0  0  0
 18 43  1  0  0  0  0
 19 23  1  0  0  0  0
 20 22  2  0  0  0  0
 20 44  1  0  0  0  0
 21 22  1  0  0  0  0
 21 45  1  0  0  0  0
 23 24  2  0  0  0  0
 23 25  1  0  0  0  0
 25 26  2  0  0  0  0
 25 46  1  0  0  0  0
 26 28  1  0  0  0  0
 26 48  1  0  0  0  0
 27 30  1  0  0  0  0
 28 49  1  0  0  0  0
 29 31  1  0  0  0  0
 29 50  1  0  0  0  0
 29 51  1  0  0  0  0
 30 52  1  0  0  0  0
 30 53  1  0  0  0  0
 30 54  1  0  0  0  0
 31 55  1  0  0  0  0
 31 56  1  0  0  0  0
 32 57  1  0  0  0  0
 32 58  1  0  0  0  0
 32 59  1  0  0  0  0
M  END
> <PUBCHEM_COMPOUND_CID>
45783427

> <PUBCHEM_CONFORMER_RMSD>
1

> <PUBCHEM_CONFORMER_DIVERSEORDER>
1
41
12
61
172
43
106
155
146
38
118
8
100
80
45
116
183
121
186
83
162
174
132
144
70
71
17
109
2
126
47
37
58
103
35
150
74
141
39
168
49
135
182
67
90
79
163
81
75
73
87
3
4
52
76
129
169
84
112
50
125
137
51
134
64
117
157
9
179
145
156
110
7
20
60
28
120
165
11
33
53
30
98
69
130
123
48
77
95
42
147
31
131
59
159
171
133
26
136
119
34
160
56
88
149
148
94
99
46
57
15
105
170
10
82
44
92
101
176
177
115
22
55
122
5
185
40
85
178
24
91
89
108
72
181
18
16
78
6
62
152
167
27
86
173
102
36
166
104
13
68
14
180
96
154
127
139
158
161
175
107
143
23
138
114
97
142
153
29
32
25
124
54
93
19
184
63
111
65
140
66
164
151
21
113
128

> <PUBCHEM_MMFF94_PARTIAL_CHARGES>
38
1 -0.02
10 0.45
13 0.27
14 0.41
15 0.3
16 -0.14
17 -0.15
18 -0.15
19 0.46
2 -0.36
20 -0.15
21 -0.15
22 0.12
23 0.05
24 0.39
25 -0.15
26 -0.15
27 0.57
28 0.16
29 0.28
3 -0.57
30 0.06
31 0.28
32 0.28
4 -0.56
42 0.15
43 0.15
44 0.15
45 0.15
46 0.15
47 0.37
48 0.15
49 0.15
5 -0.81
6 -0.57
7 -0.41
8 -0.55
9 -0.62

> <PUBCHEM_EFFECTIVE_ROTOR_COUNT>
11

> <PUBCHEM_PHARMACOPHORE_FEATURES>
11
1 2 acceptor
1 3 acceptor
1 4 acceptor
1 5 cation
1 8 donor
1 9 acceptor
3 6 7 19 cation
5 1 6 7 15 19 rings
5 5 10 11 12 13 rings
6 16 17 18 20 21 22 rings
6 9 23 24 25 26 28 rings

> <PUBCHEM_HEAVY_ATOM_COUNT>
32

> <PUBCHEM_ATOM_DEF_STEREO_COUNT>
1

> <PUBCHEM_ATOM_UDEF_STEREO_COUNT>
0

> <PUBCHEM_BOND_DEF_STEREO_COUNT>
0

> <PUBCHEM_BOND_UDEF_STEREO_COUNT>
0

> <PUBCHEM_ISOTOPIC_ATOM_COUNT>
0

> <PUBCHEM_COMPONENT_COUNT>
1

> <PUBCHEM_CACTVS_TAUTO_COUNT>
2

> <PUBCHEM_CONFORMER_ID>
02BA998300000001

> <PUBCHEM_MMFF94_ENERGY>
75.8552

> <PUBCHEM_FEATURE_SELFOVERLAP>
55.875

> <PUBCHEM_SHAPE_FINGERPRINT>
1100329 8 17975416815532547057
11578080 2 17096626756726569613
12104220 1 17394150042470642122
12156800 1 16485265469590574926
133893 2 18337975431588116353
13615921 28 17972034739113049142
14114207 22 18115014325309642864
14400156 162 11452571964832409860
15274700 242 17833809935791969512
15876981 60 17829063013361227886
17818456 19 16745355649342240178
20028762 73 17257107385620423179
20600515 1 17617646662239991085
20905425 154 18409738360994748857
21133410 230 17173812653612314570
21304303 282 16758559130529114697
23419403 2 17532348942411442262
3298306 158 18335984289023798712
35225 105 16452604613831082102
469060 322 17695303102519836191
550186 7 16970536717817420806
59755656 215 18190742140943326737

> <PUBCHEM_SHAPE_MULTIPOLES>
610.16
7.19
5.27
3.27
2.42
2.82
3.17
-0.12
-0.26
-6.78
-0.57
0.42
-2.76
-1.86

> <PUBCHEM_SHAPE_SELFOVERLAP>
1303.222

> <PUBCHEM_SHAPE_VOLUME>
339.7

> <PUBCHEM_COORDINATE_TYPE>
2
5
10

$$$$
