40779924
  -OEChem-12032416283D

 61 63  0     1  0  0  0  0  0999 V2000
    3.5328    3.6140   -0.0628 O   0  0  0  0  0  0  0  0  0  0  0  0
   -4.2843   -0.1942    1.4494 O   0  0  0  0  0  0  0  0  0  0  0  0
   -0.1129   -2.0556    1.3125 N   0  0  2  0  0  0  0  0  0  0  0  0
    3.4880   -0.0953   -0.2048 N   0  0  2  0  0  0  0  0  0  0  0  0
   -2.5533    0.5693    0.1092 N   0  0  0  0  0  0  0  0  0  0  0  0
   -4.7015    1.0120   -0.4883 N   0  0  0  0  0  0  0  0  0  0  0  0
    0.5366   -2.3284   -1.1917 C   0  0  2  0  0  0  0  0  0  0  0  0
    1.7185   -1.7593   -0.3740 C   0  0  2  0  0  0  0  0  0  0  0  0
   -0.6850   -1.4046   -1.0330 C   0  0  0  0  0  0  0  0  0  0  0  0
   -1.1231   -1.3873    0.4485 C   0  0  2  0  0  0  0  0  0  0  0  0
    1.2331   -1.4837    1.0670 C   0  0  0  0  0  0  0  0  0  0  0  0
    0.1679   -3.6847   -0.5606 C   0  0  0  0  0  0  0  0  0  0  0  0
   -0.0781   -3.4926    0.9464 C   0  0  0  0  0  0  0  0  0  0  0  0
    2.3445   -0.5175   -1.0046 C   0  0  0  0  0  0  0  0  0  0  0  0
   -1.4552    0.0281    0.9265 C   0  0  0  0  0  0  0  0  0  0  0  0
    3.9037    1.2892   -0.4691 C   0  0  2  0  0  0  0  0  0  0  0  0
    4.6732   -0.9067   -0.4925 C   0  0  0  0  0  0  0  0  0  0  0  0
    5.3068    1.3402    0.1391 C   0  0  0  0  0  0  0  0  0  0  0  0
    5.8074   -0.0999    0.1176 C   0  0  0  0  0  0  0  0  0  0  0  0
    2.9796    2.3280    0.1537 C   0  0  0  0  0  0  0  0  0  0  0  0
   -3.8766    0.4033    0.4542 C   0  0  0  0  0  0  0  0  0  0  0  0
    2.7179    4.6383    0.4954 C   0  0  0  0  0  0  0  0  0  0  0  0
   -6.1421    1.0019   -0.3901 C   0  0  0  0  0  0  0  0  0  0  0  0
   -6.7674    0.9967   -1.7789 C   0  0  0  0  0  0  0  0  0  0  0  0
   -6.6304    2.1891    0.4308 C   0  0  0  0  0  0  0  0  0  0  0  0
    0.8000   -2.4527   -2.2473 H   0  0  0  0  0  0  0  0  0  0  0  0
    2.4782   -2.5523   -0.3343 H   0  0  0  0  0  0  0  0  0  0  0  0
   -0.4508   -0.4030   -1.4078 H   0  0  0  0  0  0  0  0  0  0  0  0
   -1.5103   -1.7834   -1.6495 H   0  0  0  0  0  0  0  0  0  0  0  0
   -2.0553   -1.9661    0.5283 H   0  0  0  0  0  0  0  0  0  0  0  0
    1.9429   -1.9269    1.7780 H   0  0  0  0  0  0  0  0  0  0  0  0
    1.2277   -0.4149    1.3076 H   0  0  0  0  0  0  0  0  0  0  0  0
    0.9741   -4.4110   -0.7167 H   0  0  0  0  0  0  0  0  0  0  0  0
   -0.7311   -4.0892   -1.0411 H   0  0  0  0  0  0  0  0  0  0  0  0
   -1.0201   -3.9750    1.2352 H   0  0  0  0  0  0  0  0  0  0  0  0
    0.7016   -4.0039    1.5251 H   0  0  0  0  0  0  0  0  0  0  0  0
    1.5917    0.2759   -1.0324 H   0  0  0  0  0  0  0  0  0  0  0  0
    2.6242   -0.7077   -2.0487 H   0  0  0  0  0  0  0  0  0  0  0  0
   -0.6142    0.7187    0.8115 H   0  0  0  0  0  0  0  0  0  0  0  0
   -1.7644    0.0247    1.9775 H   0  0  0  0  0  0  0  0  0  0  0  0
    3.9941    1.4734   -1.5494 H   0  0  0  0  0  0  0  0  0  0  0  0
    4.8436   -1.0167   -1.5713 H   0  0  0  0  0  0  0  0  0  0  0  0
    4.6242   -1.9039   -0.0448 H   0  0  0  0  0  0  0  0  0  0  0  0
    5.2978    1.7065    1.1730 H   0  0  0  0  0  0  0  0  0  0  0  0
    5.9663    1.9961   -0.4396 H   0  0  0  0  0  0  0  0  0  0  0  0
    6.7305   -0.2003   -0.4624 H   0  0  0  0  0  0  0  0  0  0  0  0
    6.0154   -0.4344    1.1408 H   0  0  0  0  0  0  0  0  0  0  0  0
    2.8710    2.1515    1.2314 H   0  0  0  0  0  0  0  0  0  0  0  0
    1.9841    2.2881   -0.3015 H   0  0  0  0  0  0  0  0  0  0  0  0
   -2.3190    1.0780   -0.7374 H   0  0  0  0  0  0  0  0  0  0  0  0
   -4.2695    1.5467   -1.2359 H   0  0  0  0  0  0  0  0  0  0  0  0
    3.1948    5.6021    0.2983 H   0  0  0  0  0  0  0  0  0  0  0  0
    2.6270    4.5079    1.5780 H   0  0  0  0  0  0  0  0  0  0  0  0
    1.7276    4.6364    0.0300 H   0  0  0  0  0  0  0  0  0  0  0  0
   -6.4421    0.0818    0.1261 H   0  0  0  0  0  0  0  0  0  0  0  0
   -6.4934    1.8955   -2.3427 H   0  0  0  0  0  0  0  0  0  0  0  0
   -6.4258    0.1298   -2.3550 H   0  0  0  0  0  0  0  0  0  0  0  0
   -7.8597    0.9530   -1.7167 H   0  0  0  0  0  0  0  0  0  0  0  0
   -6.3381    3.1383   -0.0321 H   0  0  0  0  0  0  0  0  0  0  0  0
   -6.2035    2.1704    1.4394 H   0  0  0  0  0  0  0  0  0  0  0  0
   -7.7211    2.1772    0.5260 H   0  0  0  0  0  0  0  0  0  0  0  0
  1 20  1  0  0  0  0
  1 22  1  0  0  0  0
  2 21  2  0  0  0  0
  3 10  1  0  0  0  0
  3 11  1  0  0  0  0
  3 13  1  0  0  0  0
  4 14  1  0  0  0  0
  4 16  1  0  0  0  0
  4 17  1  0  0  0  0
  5 15  1  0  0  0  0
  5 21  1  0  0  0  0
  5 50  1  0  0  0  0
  6 21  1  0  0  0  0
  6 23  1  0  0  0  0
  6 51  1  0  0  0  0
  7  8  1  0  0  0  0
  7  9  1  0  0  0  0
  7 12  1  0  0  0  0
  7 26  1  0  0  0  0
  8 11  1  0  0  0  0
  8 14  1  0  0  0  0
  8 27  1  0  0  0  0
  9 10  1  0  0  0  0
  9 28  1  0  0  0  0
  9 29  1  0  0  0  0
 10 15  1  0  0  0  0
 10 30  1  0  0  0  0
 11 31  1  0  0  0  0
 11 32  1  0  0  0  0
 12 13  1  0  0  0  0
 12 33  1  0  0  0  0
 12 34  1  0  0  0  0
 13 35  1  0  0  0  0
 13 36  1  0  0  0  0
 14 37  1  0  0  0  0
 14 38  1  0  0  0  0
 15 39  1  0  0  0  0
 15 40  1  0  0  0  0
 16 18  1  0  0  0  0
 16 20  1  0  0  0  0
 16 41  1  0  0  0  0
 17 19  1  0  0  0  0
 17 42  1  0  0  0  0
 17 43  1  0  0  0  0
 18 19  1  0  0  0  0
 18 44  1  0  0  0  0
 18 45  1  0  0  0  0
 19 46  1  0  0  0  0
 19 47  1  0  0  0  0
 20 48  1  0  0  0  0
 20 49  1  0  0  0  0
 22 52  1  0  0  0  0
 22 53  1  0  0  0  0
 22 54  1  0  0  0  0
 23 24  1  0  0  0  0
 23 25  1  0  0  0  0
 23 55  1  0  0  0  0
 24 56  1  0  0  0  0
 24 57  1  0  0  0  0
 24 58  1  0  0  0  0
 25 59  1  0  0  0  0
 25 60  1  0  0  0  0
 25 61  1  0  0  0  0
M  END
> <PUBCHEM_COMPOUND_CID>
40779924

> <PUBCHEM_CONFORMER_RMSD>
1

> <PUBCHEM_CONFORMER_DIVERSEORDER>
1
17
105
20
114
26
55
107
32
48
39
106
64
98
88
90
52
50
11
22
83
80
13
116
43
8
19
24
81
112
57
108
84
44
54
96
95
2
41
28
5
53
37
12
14
99
100
29
78
49
61
42
10
104
67
40
18
25
115
21
92
45
113
110
72
30
60
4
31
68
16
97
75
87
94
59
9
111
56
38
71
85
101
63
109
33
46
6
35
7
102
69
89
36
47
23
65
103
91
58
74
15
51
34
86
70
66
62
77
3
82
73
93
27
76
79

> <PUBCHEM_MMFF94_PARTIAL_CHARGES>
19
1 -0.56
10 0.27
11 0.27
13 0.27
14 0.27
15 0.3
16 0.27
17 0.27
2 -0.57
20 0.28
21 0.69
22 0.28
23 0.3
3 -0.81
4 -0.81
5 -0.73
50 0.37
51 0.37
6 -0.73

> <PUBCHEM_EFFECTIVE_ROTOR_COUNT>
11.2

> <PUBCHEM_PHARMACOPHORE_FEATURES>
9
1 1 acceptor
1 2 acceptor
1 3 cation
1 4 cation
1 5 donor
1 6 donor
3 23 24 25 hydrophobe
5 4 16 17 18 19 rings
8 3 7 8 9 10 11 12 13 rings

> <PUBCHEM_HEAVY_ATOM_COUNT>
25

> <PUBCHEM_ATOM_DEF_STEREO_COUNT>
4

> <PUBCHEM_ATOM_UDEF_STEREO_COUNT>
0

> <PUBCHEM_BOND_DEF_STEREO_COUNT>
0

> <PUBCHEM_BOND_UDEF_STEREO_COUNT>
0

> <PUBCHEM_ISOTOPIC_ATOM_COUNT>
0

> <PUBCHEM_COMPONENT_COUNT>
1

> <PUBCHEM_CACTVS_TAUTO_COUNT>
3

> <PUBCHEM_CONFORMER_ID>
026E409400000001

> <PUBCHEM_MMFF94_ENERGY>
48.1176

> <PUBCHEM_FEATURE_SELFOVERLAP>
45.726

> <PUBCHEM_SHAPE_FINGERPRINT>
10763959 59 18334863805228783708
12596602 18 13984960523038101189
12633257 1 18189885582741328008
12769317 202 18338228272144496833
13103583 49 13551199900388476755
13402501 40 18260829276088346653
13583140 156 18115886229314448018
13955234 65 17972321716239064123
14251764 30 10015584991158506725
14251764 38 18124312963596234788
14461889 52 17604448331783261451
14957384 54 18336546139897764970
15003188 100 18412262852429273221
15238133 3 18262243322094788468
15322687 12 18341330080208967544
15537594 2 11169915008836534696
18335252 114 18339354167460772132
20567600 247 8574417709080085417
20567600 254 18260265231139349479
20715895 44 18342738533440139032
20775530 9 7892125126849436024
21033648 29 18113616832750517008
21049683 118 17896020187336555003
21298829 104 18272373053185023176
21315763 76 18342459235600657209
21344244 78 17901363633818057794
21403212 168 18188199910856507602
21475661 188 18334859454389781480
21521239 73 17560521694754199678
21716022 299 14906793154798226078
21968339 14 18264757767004714775
23227448 37 18268435813783080750
23558518 356 17756427419751329306
23559900 14 18191589640812418043
23845131 108 18187081767365553499
2838139 119 18410289207772372445
33382 64 9439403531782581814
335352 9 18411703171726530230
465052 167 10881408625122007850
474 4 18341899571223149706
5312510 48 18411702063235240001
53794403 172 18265054811112097868
57091435 61 18411133619960371577
6371009 1 18342173354077399096

> <PUBCHEM_SHAPE_MULTIPOLES>
482.83
14.44
4.53
1.21
19.77
2.1
0.07
13.42
2.73
-3.79
-0.53
1.12
-0.43
0.68

> <PUBCHEM_SHAPE_SELFOVERLAP>
978.511

> <PUBCHEM_SHAPE_VOLUME>
280

> <PUBCHEM_COORDINATE_TYPE>
2
5
10

$$$$
