11939797
  -OEChem-12032416363D

 68 72  0     1  0  0  0  0  0999 V2000
   -0.6772    0.9467    1.8265 O   0  0  0  0  0  0  0  0  0  0  0  0
   -1.5604    3.8753    1.2104 O   0  0  0  0  0  0  0  0  0  0  0  0
   -5.4385    0.6612    1.6197 O   0  0  0  0  0  0  0  0  0  0  0  0
   -3.4532    0.8431    0.4322 N   0  0  0  0  0  0  0  0  0  0  0  0
    1.0839    3.3323   -0.3034 N   0  0  0  0  0  0  0  0  0  0  0  0
   -5.1007   -0.5777   -0.3147 N   0  0  0  0  0  0  0  0  0  0  0  0
    2.5959    1.5784   -0.4767 N   0  0  0  0  0  0  0  0  0  0  0  0
    2.4752    3.2963   -2.1622 N   0  0  0  0  0  0  0  0  0  0  0  0
    5.6862   -3.7433    1.0305 N   0  0  0  0  0  0  0  0  0  0  0  0
   -1.7866    2.6192    0.5495 C   0  0  1  0  0  0  0  0  0  0  0  0
   -0.5155    1.8035    0.6835 C   0  0  1  0  0  0  0  0  0  0  0  0
   -2.8228    1.8112    1.2967 C   0  0  2  0  0  0  0  0  0  0  0  0
    0.5579    2.8328    0.9481 C   0  0  2  0  0  0  0  0  0  0  0  0
   -1.9923    1.1316    2.3709 C   0  0  0  0  0  0  0  0  0  0  0  0
   -0.2026    3.9282    1.6725 C   0  0  0  0  0  0  0  0  0  0  0  0
   -6.3765   -1.2584   -0.3211 C   0  0  0  0  0  0  0  0  0  0  0  0
   -6.8502   -1.5273   -1.7534 C   0  0  0  0  0  0  0  0  0  0  0  0
   -6.3142   -2.5536    0.4957 C   0  0  0  0  0  0  0  0  0  0  0  0
   -4.7307    0.3381    0.6666 C   0  0  0  0  0  0  0  0  0  0  0  0
   -6.0338   -2.6196   -2.4441 C   0  0  0  0  0  0  0  0  0  0  0  0
   -5.4985   -3.6442   -0.1988 C   0  0  0  0  0  0  0  0  0  0  0  0
   -5.9957   -3.9016   -1.6179 C   0  0  0  0  0  0  0  0  0  0  0  0
    2.0956    2.7084   -1.0117 C   0  0  0  0  0  0  0  0  0  0  0  0
    3.5804    0.9969   -1.1929 C   0  0  0  0  0  0  0  0  0  0  0  0
    3.4634    2.6620   -2.8268 C   0  0  0  0  0  0  0  0  0  0  0  0
    4.0592    1.4981   -2.3861 C   0  0  0  0  0  0  0  0  0  0  0  0
    4.1185   -0.2152   -0.6233 C   0  0  0  0  0  0  0  0  0  0  0  0
    5.4716   -0.2896   -0.2926 C   0  0  0  0  0  0  0  0  0  0  0  0
    3.2859   -1.3128   -0.4048 C   0  0  0  0  0  0  0  0  0  0  0  0
    5.9921   -1.4614    0.2564 C   0  0  0  0  0  0  0  0  0  0  0  0
    3.8063   -2.4846    0.1442 C   0  0  0  0  0  0  0  0  0  0  0  0
    5.1594   -2.5590    0.4748 C   0  0  0  0  0  0  0  0  0  0  0  0
    4.8270   -4.8850    1.2745 C   0  0  0  0  0  0  0  0  0  0  0  0
    7.0907   -3.8297    1.3779 C   0  0  0  0  0  0  0  0  0  0  0  0
   -2.0491    2.8381   -0.4906 H   0  0  0  0  0  0  0  0  0  0  0  0
   -0.3325    1.1583   -0.1817 H   0  0  0  0  0  0  0  0  0  0  0  0
   -3.6003    2.4330    1.7535 H   0  0  0  0  0  0  0  0  0  0  0  0
    1.3667    2.4719    1.5940 H   0  0  0  0  0  0  0  0  0  0  0  0
   -1.8910    1.7742    3.2523 H   0  0  0  0  0  0  0  0  0  0  0  0
   -2.3891    0.1644    2.6940 H   0  0  0  0  0  0  0  0  0  0  0  0
    0.1977    4.9331    1.5057 H   0  0  0  0  0  0  0  0  0  0  0  0
   -0.2215    3.7422    2.7521 H   0  0  0  0  0  0  0  0  0  0  0  0
   -2.9211    0.4634   -0.3452 H   0  0  0  0  0  0  0  0  0  0  0  0
    0.6672    4.1540   -0.7264 H   0  0  0  0  0  0  0  0  0  0  0  0
   -7.1025   -0.5897    0.1579 H   0  0  0  0  0  0  0  0  0  0  0  0
   -6.8034   -0.6075   -2.3489 H   0  0  0  0  0  0  0  0  0  0  0  0
   -7.9029   -1.8370   -1.7285 H   0  0  0  0  0  0  0  0  0  0  0  0
   -7.3353   -2.9246    0.6522 H   0  0  0  0  0  0  0  0  0  0  0  0
   -5.8917   -2.3625    1.4894 H   0  0  0  0  0  0  0  0  0  0  0  0
   -6.4691   -2.8323   -3.4274 H   0  0  0  0  0  0  0  0  0  0  0  0
   -5.0111   -2.2683   -2.6244 H   0  0  0  0  0  0  0  0  0  0  0  0
   -5.5555   -4.5709    0.3836 H   0  0  0  0  0  0  0  0  0  0  0  0
   -4.4414   -3.3535   -0.2282 H   0  0  0  0  0  0  0  0  0  0  0  0
   -4.4112   -0.8261   -1.0171 H   0  0  0  0  0  0  0  0  0  0  0  0
   -5.3482   -4.6374   -2.1080 H   0  0  0  0  0  0  0  0  0  0  0  0
   -7.0011   -4.3385   -1.5775 H   0  0  0  0  0  0  0  0  0  0  0  0
    3.7724    3.1302   -3.7553 H   0  0  0  0  0  0  0  0  0  0  0  0
    4.8468    1.0215   -2.9568 H   0  0  0  0  0  0  0  0  0  0  0  0
    6.1363    0.5567   -0.4500 H   0  0  0  0  0  0  0  0  0  0  0  0
    2.2291   -1.2741   -0.6593 H   0  0  0  0  0  0  0  0  0  0  0  0
    7.0504   -1.4686    0.4979 H   0  0  0  0  0  0  0  0  0  0  0  0
    3.1183   -3.3107    0.2939 H   0  0  0  0  0  0  0  0  0  0  0  0
    5.3815   -5.7231    1.7113 H   0  0  0  0  0  0  0  0  0  0  0  0
    4.3870   -5.2558    0.3419 H   0  0  0  0  0  0  0  0  0  0  0  0
    4.0297   -4.6361    1.9836 H   0  0  0  0  0  0  0  0  0  0  0  0
    7.3456   -4.8116    1.7922 H   0  0  0  0  0  0  0  0  0  0  0  0
    7.3555   -3.0908    2.1423 H   0  0  0  0  0  0  0  0  0  0  0  0
    7.7262   -3.6906    0.4961 H   0  0  0  0  0  0  0  0  0  0  0  0
  1 11  1  0  0  0  0
  1 14  1  0  0  0  0
  2 10  1  0  0  0  0
  2 15  1  0  0  0  0
  3 19  2  0  0  0  0
  4 12  1  0  0  0  0
  4 19  1  0  0  0  0
  4 43  1  0  0  0  0
  5 13  1  0  0  0  0
  5 23  1  0  0  0  0
  5 44  1  0  0  0  0
  6 16  1  0  0  0  0
  6 19  1  0  0  0  0
  6 54  1  0  0  0  0
  7 23  1  0  0  0  0
  7 24  2  0  0  0  0
  8 23  2  0  0  0  0
  8 25  1  0  0  0  0
  9 32  1  0  0  0  0
  9 33  1  0  0  0  0
  9 34  1  0  0  0  0
 10 11  1  0  0  0  0
 10 12  1  0  0  0  0
 10 35  1  0  0  0  0
 11 13  1  0  0  0  0
 11 36  1  0  0  0  0
 12 14  1  0  0  0  0
 12 37  1  0  0  0  0
 13 15  1  0  0  0  0
 13 38  1  0  0  0  0
 14 39  1  0  0  0  0
 14 40  1  0  0  0  0
 15 41  1  0  0  0  0
 15 42  1  0  0  0  0
 16 17  1  0  0  0  0
 16 18  1  0  0  0  0
 16 45  1  0  0  0  0
 17 20  1  0  0  0  0
 17 46  1  0  0  0  0
 17 47  1  0  0  0  0
 18 21  1  0  0  0  0
 18 48  1  0  0  0  0
 18 49  1  0  0  0  0
 20 22  1  0  0  0  0
 20 50  1  0  0  0  0
 20 51  1  0  0  0  0
 21 22  1  0  0  0  0
 21 52  1  0  0  0  0
 21 53  1  0  0  0  0
 22 55  1  0  0  0  0
 22 56  1  0  0  0  0
 24 26  1  0  0  0  0
 24 27  1  0  0  0  0
 25 26  2  0  0  0  0
 25 57  1  0  0  0  0
 26 58  1  0  0  0  0
 27 28  2  0  0  0  0
 27 29  1  0  0  0  0
 28 30  1  0  0  0  0
 28 59  1  0  0  0  0
 29 31  2  0  0  0  0
 29 60  1  0  0  0  0
 30 32  2  0  0  0  0
 30 61  1  0  0  0  0
 31 32  1  0  0  0  0
 31 62  1  0  0  0  0
 33 63  1  0  0  0  0
 33 64  1  0  0  0  0
 33 65  1  0  0  0  0
 34 66  1  0  0  0  0
 34 67  1  0  0  0  0
 34 68  1  0  0  0  0
M  END
> <PUBCHEM_COMPOUND_CID>
11939797

> <PUBCHEM_CONFORMER_RMSD>
1

> <PUBCHEM_CONFORMER_DIVERSEORDER>
1
111
28
19
116
94
13
123
109
48
113
86
125
131
22
98
108
115
103
100
77
12
81
55
72
84
130
120
82
23
92
65
34
32
95
127
99
26
35
128
60
91
104
27
61
105
78
124
76
101
25
134
75
49
74
106
80
17
126
88
69
7
4
97
71
66
44
85
122
37
121
57
70
135
83
30
67
43
5
93
136
53
68
129
118
16
110
58
8
64
33
102
107
73
18
63
24
132
96
46
59
112
117
90
6
36
14
47
39
52
21
54
11
41
20
114
79
15
119
56
89
45
62
133
3
31
42
10
38
51
29
40
9
50
87
2

> <PUBCHEM_MMFF94_PARTIAL_CHARGES>
37
1 -0.56
10 0.28
11 0.28
12 0.3
13 0.37
14 0.28
15 0.28
16 0.3
19 0.69
2 -0.56
23 0.72
24 0.31
25 0.16
26 -0.15
28 -0.15
29 -0.15
3 -0.57
30 -0.15
31 -0.15
32 0.1
33 0.37
34 0.37
4 -0.73
43 0.37
44 0.4
5 -0.87
54 0.37
57 0.15
58 0.15
59 0.15
6 -0.73
60 0.15
61 0.15
62 0.15
7 -0.62
8 -0.62
9 -0.84

> <PUBCHEM_EFFECTIVE_ROTOR_COUNT>
10.4

> <PUBCHEM_PHARMACOPHORE_FEATURES>
14
1 1 acceptor
1 2 acceptor
1 3 acceptor
1 4 donor
1 5 donor
1 6 donor
1 7 acceptor
1 9 cation
4 5 7 8 23 cation
5 1 10 11 12 14 rings
5 2 10 11 13 15 rings
6 16 17 18 20 21 22 rings
6 27 28 29 30 31 32 rings
6 7 8 23 24 25 26 rings

> <PUBCHEM_HEAVY_ATOM_COUNT>
34

> <PUBCHEM_ATOM_DEF_STEREO_COUNT>
4

> <PUBCHEM_ATOM_UDEF_STEREO_COUNT>
0

> <PUBCHEM_BOND_DEF_STEREO_COUNT>
0

> <PUBCHEM_BOND_UDEF_STEREO_COUNT>
0

> <PUBCHEM_ISOTOPIC_ATOM_COUNT>
0

> <PUBCHEM_COMPONENT_COUNT>
1

> <PUBCHEM_CACTVS_TAUTO_COUNT>
9

> <PUBCHEM_CONFORMER_ID>
00B62FD500000001

> <PUBCHEM_MMFF94_ENERGY>
97.8682

> <PUBCHEM_FEATURE_SELFOVERLAP>
71.805

> <PUBCHEM_SHAPE_FINGERPRINT>
10622 236 18335985263996698914
10908659 184 17987811825151215183
11069576 57 18261406554595577300
11103572 155 18117578404112499283
11135609 149 18336247025106034013
11135926 11 17534380896594334700
11227150 75 18336250280749077730
11478447 58 18193830668226191242
11497681 19 18266182726429039086
11607047 403 18198609125171016216
11828042 38 17894918481329820011
12977781 61 18125691604901626265
131258 38 18195515107465141918
14068700 675 18338796715471535072
14340393 91 17968641732508958445
14765038 42 10879407523050764754
15264996 55 17912108065671592615
15419009 47 17970620788883304309
15968369 26 17902219341057089625
17324776 126 18262795151598328282
19303781 99 18114750330391333346
19304671 126 15936407888035986365
19315092 285 18409169934673208868
19319366 153 18122068868985774612
20156587 161 18272355499706815511
20775438 99 18189330345916278578
208703 8 18202009828092244596
21585483 132 18200020889221378687
21599406 157 17678174004935169111
23569914 152 18122313863232641381
25025965 108 17535739704088296282
25222932 49 17987520479822394532
260245 28 18265046925615582419
3504750 166 18196373606655053608
3882209 13 18334005073984421010
4017518 198 16968580682025260988
437795 139 17846498162494950651
439807 62 18337958991244493415
4440575 13 18411696617390522254
50009960 94 18058711585503225435
57527295 17 18268451163912717113
5874358 3 17417227949813202495
59025328 239 17894919503563287988
6058803 2 18194149368101077028
6201460 15 18337957787720799011
6677587 24 16882445430357223533
7970288 3 18413670210248930315
9511036 111 18341041931138175058
96874 4 18412820278997015247

> <PUBCHEM_SHAPE_MULTIPOLES>
652.21
19.82
6.85
2.33
14.59
2.99
-0.99
29.55
-3.79
-4.16
1.18
0.26
-1.1
-8.55

> <PUBCHEM_SHAPE_SELFOVERLAP>
1398.002

> <PUBCHEM_SHAPE_VOLUME>
358.6

> <PUBCHEM_COORDINATE_TYPE>
2
5
10

$$$$
