75536901
  -OEChem-12032416333D

 39 41  0     1  0  0  0  0  0999 V2000
    4.1743    2.2712   -2.1122 F   0  0  0  0  0  0  0  0  0  0  0  0
   -1.3775   -2.7070   -1.1164 O   0  0  0  0  0  0  0  0  0  0  0  0
   -1.8608    0.7788   -0.2502 O   0  0  0  0  0  0  0  0  0  0  0  0
    3.1581   -2.3934    0.5072 O   0  0  0  0  0  0  0  0  0  0  0  0
    0.9976   -1.4854    0.5236 N   0  0  0  0  0  0  0  0  0  0  0  0
   -3.8787   -0.1991    0.3639 N   0  0  0  0  0  0  0  0  0  0  0  0
   -5.1516    2.2747    0.0080 N   0  0  0  0  0  0  0  0  0  0  0  0
   -1.2948   -0.5164   -0.0450 C   0  0  2  0  0  0  0  0  0  0  0  0
    0.1371   -0.2985    0.4523 C   0  0  0  0  0  0  0  0  0  0  0  0
    0.3616   -2.8014    0.6041 C   0  0  0  0  0  0  0  0  0  0  0  0
   -1.3640   -1.3026   -1.3526 C   0  0  0  0  0  0  0  0  0  0  0  0
   -0.1149   -3.2642   -0.7668 C   0  0  0  0  0  0  0  0  0  0  0  0
    2.4003   -1.4242    0.4819 C   0  0  0  0  0  0  0  0  0  0  0  0
    3.0392   -0.1011    0.4020 C   0  0  0  0  0  0  0  0  0  0  0  0
   -3.2046    0.9006   -0.0272 C   0  0  0  0  0  0  0  0  0  0  0  0
    3.3095    0.4690   -0.8420 C   0  0  0  0  0  0  0  0  0  0  0  0
    3.3754    0.5826    1.5706 C   0  0  0  0  0  0  0  0  0  0  0  0
    3.9159    1.7229   -0.9177 C   0  0  0  0  0  0  0  0  0  0  0  0
    3.9821    1.8364    1.4948 C   0  0  0  0  0  0  0  0  0  0  0  0
   -3.8298    2.1156   -0.2020 C   0  0  0  0  0  0  0  0  0  0  0  0
    4.2522    2.4067    0.2508 C   0  0  0  0  0  0  0  0  0  0  0  0
   -5.2006   -0.0399    0.5739 C   0  0  0  0  0  0  0  0  0  0  0  0
   -5.8257    1.1750    0.3991 C   0  0  0  0  0  0  0  0  0  0  0  0
   -1.8120   -1.0629    0.7539 H   0  0  0  0  0  0  0  0  0  0  0  0
    0.1071    0.1335    1.4609 H   0  0  0  0  0  0  0  0  0  0  0  0
    0.6141    0.4619   -0.1748 H   0  0  0  0  0  0  0  0  0  0  0  0
   -0.4519   -2.7583    1.3356 H   0  0  0  0  0  0  0  0  0  0  0  0
    1.0953   -3.5237    0.9783 H   0  0  0  0  0  0  0  0  0  0  0  0
   -2.2945   -1.0730   -1.8834 H   0  0  0  0  0  0  0  0  0  0  0  0
   -0.5524   -1.0327   -2.0397 H   0  0  0  0  0  0  0  0  0  0  0  0
    0.6177   -3.0560   -1.5554 H   0  0  0  0  0  0  0  0  0  0  0  0
   -0.2621   -4.3490   -0.7374 H   0  0  0  0  0  0  0  0  0  0  0  0
    3.0510   -0.0549   -1.7586 H   0  0  0  0  0  0  0  0  0  0  0  0
    3.1688    0.1475    2.5449 H   0  0  0  0  0  0  0  0  0  0  0  0
    4.2437    2.3689    2.4045 H   0  0  0  0  0  0  0  0  0  0  0  0
   -3.2918    3.0019   -0.5164 H   0  0  0  0  0  0  0  0  0  0  0  0
    4.7240    3.3831    0.1916 H   0  0  0  0  0  0  0  0  0  0  0  0
   -5.7428   -0.9231    0.8881 H   0  0  0  0  0  0  0  0  0  0  0  0
   -6.8878    1.3020    0.5680 H   0  0  0  0  0  0  0  0  0  0  0  0
  1 18  1  0  0  0  0
  2 11  1  0  0  0  0
  2 12  1  0  0  0  0
  3  8  1  0  0  0  0
  3 15  1  0  0  0  0
  4 13  2  0  0  0  0
  5  9  1  0  0  0  0
  5 10  1  0  0  0  0
  5 13  1  0  0  0  0
  6 15  2  0  0  0  0
  6 22  1  0  0  0  0
  7 20  2  0  0  0  0
  7 23  1  0  0  0  0
  8  9  1  0  0  0  0
  8 11  1  0  0  0  0
  8 24  1  0  0  0  0
  9 25  1  0  0  0  0
  9 26  1  0  0  0  0
 10 12  1  0  0  0  0
 10 27  1  0  0  0  0
 10 28  1  0  0  0  0
 11 29  1  0  0  0  0
 11 30  1  0  0  0  0
 12 31  1  0  0  0  0
 12 32  1  0  0  0  0
 13 14  1  0  0  0  0
 14 16  2  0  0  0  0
 14 17  1  0  0  0  0
 15 20  1  0  0  0  0
 16 18  1  0  0  0  0
 16 33  1  0  0  0  0
 17 19  2  0  0  0  0
 17 34  1  0  0  0  0
 18 21  2  0  0  0  0
 19 21  1  0  0  0  0
 19 35  1  0  0  0  0
 20 36  1  0  0  0  0
 21 37  1  0  0  0  0
 22 23  2  0  0  0  0
 22 38  1  0  0  0  0
 23 39  1  0  0  0  0
M  END
> <PUBCHEM_COMPOUND_CID>
75536901

> <PUBCHEM_CONFORMER_RMSD>
0.8

> <PUBCHEM_CONFORMER_DIVERSEORDER>
1
198
289
375
219
87
407
355
75
109
174
384
93
138
380
376
299
123
103
269
415
142
56
60
230
234
405
124
251
333
325
326
28
115
403
369
223
182
351
323
172
404
134
195
361
130
394
73
334
35
324
62
335
173
346
270
89
207
37
118
168
140
210
374
125
2
235
154
21
88
327
339
261
348
378
33
411
91
114
160
247
283
65
347
319
204
70
158
295
254
30
350
233
177
368
9
94
408
67
287
265
393
227
20
122
398
391
13
379
281
86
356
352
331
132
409
401
83
316
365
400
390
297
317
203
201
31
399
271
12
258
284
310
381
84
105
97
274
63
231
354
244
329
144
147
388
321
4
148
285
413
38
145
131
241
200
280
159
95
181
18
112
273
68
217
205
191
150
344
328
382
102
402
363
357
36
153
193
392
120
139
364
8
220
298
353
264
216
188
359
5
209
345
232
152
385
246
14
211
275
189
337
178
302
136
32
309
78
46
341
236
272
96
307
294
40
267
137
221
358
100
253
256
34
262
282
149
263
155
171
61
162
418
242
116
240
199
397
225
146
342
90
245
29
362
133
49
194
268
47
308
279
141
53
43
77
23
66
164
277
54
252
293
185
157
110
166
417
296
260
292
243
7
255
64
79
366
239
312
371
111
117
101
6
322
318
276
85
338
10
406
286
121
259
215
19
81
412
106
313
304
41
48
257
305
372
3
386
249
98
197
213
370
163
315
206
187
349
340
143
17
183
395
414
410
176
59
57
128
156
184
72
74
387
104
22
25
367
165
69
218
45
175
237
11
119
55
107
113
300
416
320
186
314
224
196
250
108
16
190
228
192
208
167
248
82
58
212
151
169
301
52
127
50
51
214
311
290
330
76
92
389
238
377
42
39
288
336
161
99
229
15
222
373
360
26
332
135
80
179
170
226
291
396
126
44
27
306
71
303
343
266
24
383
278
202
129
180

> <PUBCHEM_MMFF94_PARTIAL_CHARGES>
30
1 -0.19
10 0.3
11 0.28
12 0.28
13 0.54
14 0.09
15 0.39
16 -0.15
17 -0.15
18 0.19
19 -0.15
2 -0.56
20 0.16
21 -0.15
22 0.16
23 0.16
3 -0.36
33 0.15
34 0.15
35 0.15
36 0.15
37 0.15
38 0.15
39 0.15
4 -0.57
5 -0.66
6 -0.62
7 -0.62
8 0.28
9 0.3

> <PUBCHEM_EFFECTIVE_ROTOR_COUNT>
5.4

> <PUBCHEM_PHARMACOPHORE_FEATURES>
6
1 2 acceptor
1 4 acceptor
1 7 acceptor
6 14 16 17 18 19 21 rings
6 6 7 15 20 22 23 rings
7 2 5 8 9 10 11 12 rings

> <PUBCHEM_HEAVY_ATOM_COUNT>
23

> <PUBCHEM_ATOM_DEF_STEREO_COUNT>
1

> <PUBCHEM_ATOM_UDEF_STEREO_COUNT>
0

> <PUBCHEM_BOND_DEF_STEREO_COUNT>
0

> <PUBCHEM_BOND_UDEF_STEREO_COUNT>
0

> <PUBCHEM_ISOTOPIC_ATOM_COUNT>
0

> <PUBCHEM_COMPONENT_COUNT>
1

> <PUBCHEM_CACTVS_TAUTO_COUNT>
1

> <PUBCHEM_CONFORMER_ID>
04809A0500000001

> <PUBCHEM_MMFF94_ENERGY>
75.6513

> <PUBCHEM_FEATURE_SELFOVERLAP>
30.448

> <PUBCHEM_SHAPE_FINGERPRINT>
10493431 412 18339919419622288689
10498660 4 18059295465059354600
11720765 8 17488755459034748124
11796584 16 9511456723948783001
12173636 292 18341885346328570887
12363563 72 8574433165997074561
12403259 118 18262504884938398601
12788726 201 17758119580678294750
12925494 130 18050280372125079249
13965767 371 18115849919850753016
14123255 52 18341889697251325387
14251764 75 18343029891010588729
14341114 328 17313386755201078881
14528608 73 18342173358783309493
1454969 45 18341331197860293743
146900 427 18272377438820723753
14790565 3 18341894112847022753
14955137 171 18050561851185475010
15342168 16 18186804715982786452
15342816 4 9871753520274733896
15885798 251 8718833089035261779
17349148 13 12179849364500170025
17810953 82 18339077086209653432
18222031 100 11314311637476368345
18785283 64 18263925445187603186
20465049 17 18339656533717982398
20567600 9 18127703625254210057
21709351 56 18192984929314563287
21756936 100 18266177408525718900
22620623 9 17202197619772072071
23227448 37 18199746023729226973
23558518 356 17764014062382855153
23559900 14 17980195289008881019
245318 6 17532957084074446085
3178227 256 18265906747902912706
3472631 163 18199748205683747044
350125 39 18337390423020044808
38570 142 17241629371583824780
44154327 71 18409731750871054516
474 4 18187365419615512240
49207404 50 18187653487520120251
5048184 11 18410291458155991196
5104073 3 18261958445150454745
6034566 193 17896320401060438117
633830 44 18059571339572479375
6438754 60 10447932750203897229
7808743 9 18265895955040260088
8988823 20 13840272532400981727
960060 61 13182739268690954528
9999458 23 18263083219238437950

> <PUBCHEM_SHAPE_MULTIPOLES>
433.5
11.54
3.47
1.27
9.94
1.81
-0.26
-10.7
1.07
-1.04
-0.55
-1.44
-0.28
-0.87

> <PUBCHEM_SHAPE_SELFOVERLAP>
926.574

> <PUBCHEM_SHAPE_VOLUME>
237.9

> <PUBCHEM_COORDINATE_TYPE>
2
5
10

$$$$
