71693311
  -OEChem-12032416233D

 53 54  0     1  0  0  0  0  0999 V2000
    1.7519    1.7802    0.8105 O   0  0  0  0  0  0  0  0  0  0  0  0
    2.0577   -0.3869   -2.7080 O   0  0  0  0  0  0  0  0  0  0  0  0
    5.2807    1.7449    0.3211 O   0  0  0  0  0  0  0  0  0  0  0  0
   -5.2646    0.5850   -1.0964 O   0  0  0  0  0  0  0  0  0  0  0  0
    3.6973    0.1648   -0.3341 N   0  0  0  0  0  0  0  0  0  0  0  0
   -4.1235   -0.4005    0.7093 N   0  0  0  0  0  0  0  0  0  0  0  0
    2.2779   -0.2662   -0.3320 C   0  0  1  0  0  0  0  0  0  0  0  0
    1.3278    0.9454   -0.2680 C   0  0  1  0  0  0  0  0  0  0  0  0
    4.7161   -0.8269   -0.6675 C   0  0  0  0  0  0  0  0  0  0  0  0
    5.0166   -1.7703    0.5026 C   0  0  0  0  0  0  0  0  0  0  0  0
    1.9330   -1.1600   -1.5319 C   0  0  0  0  0  0  0  0  0  0  0  0
    4.1064    1.3949    0.1847 C   0  0  0  0  0  0  0  0  0  0  0  0
   -0.1206    0.5871   -0.0083 C   0  0  0  0  0  0  0  0  0  0  0  0
    2.9976    2.3702    0.5268 C   0  0  0  0  0  0  0  0  0  0  0  0
    5.5219   -0.9708    1.7041 C   0  0  0  0  0  0  0  0  0  0  0  0
    6.0429   -2.8383    0.1175 C   0  0  0  0  0  0  0  0  0  0  0  0
   -0.4639   -0.1572    1.1202 C   0  0  0  0  0  0  0  0  0  0  0  0
   -1.1116    1.0021   -0.8980 C   0  0  0  0  0  0  0  0  0  0  0  0
   -1.7982   -0.4863    1.3594 C   0  0  0  0  0  0  0  0  0  0  0  0
   -2.4457    0.6730   -0.6591 C   0  0  0  0  0  0  0  0  0  0  0  0
   -2.7890   -0.0712    0.4697 C   0  0  0  0  0  0  0  0  0  0  0  0
   -5.2505   -0.0760   -0.0634 C   0  0  0  0  0  0  0  0  0  0  0  0
   -6.5247   -0.6336    0.5590 C   0  0  0  0  0  0  0  0  0  0  0  0
   -7.7911   -0.3159   -0.2333 C   0  0  0  0  0  0  0  0  0  0  0  0
   -9.0443   -0.8874    0.4151 C   0  0  0  0  0  0  0  0  0  0  0  0
    2.1796   -0.8619    0.5836 H   0  0  0  0  0  0  0  0  0  0  0  0
    1.3906    1.5338   -1.1938 H   0  0  0  0  0  0  0  0  0  0  0  0
    5.6395   -0.2945   -0.9320 H   0  0  0  0  0  0  0  0  0  0  0  0
    4.4487   -1.3738   -1.5736 H   0  0  0  0  0  0  0  0  0  0  0  0
    4.0959   -2.2874    0.7990 H   0  0  0  0  0  0  0  0  0  0  0  0
    0.8982   -1.5124   -1.4650 H   0  0  0  0  0  0  0  0  0  0  0  0
    2.5556   -2.0551   -1.6035 H   0  0  0  0  0  0  0  0  0  0  0  0
    3.3043    2.9309    1.4159 H   0  0  0  0  0  0  0  0  0  0  0  0
    2.8936    3.0839   -0.2985 H   0  0  0  0  0  0  0  0  0  0  0  0
    4.7464   -0.3222    2.1213 H   0  0  0  0  0  0  0  0  0  0  0  0
    5.8188   -1.6504    2.5115 H   0  0  0  0  0  0  0  0  0  0  0  0
    6.3996   -0.3673    1.4510 H   0  0  0  0  0  0  0  0  0  0  0  0
    5.6818   -3.4326   -0.7283 H   0  0  0  0  0  0  0  0  0  0  0  0
    6.2275   -3.5219    0.9528 H   0  0  0  0  0  0  0  0  0  0  0  0
    6.9981   -2.3855   -0.1692 H   0  0  0  0  0  0  0  0  0  0  0  0
    0.2902   -0.4802    1.8323 H   0  0  0  0  0  0  0  0  0  0  0  0
   -0.8582    1.5815   -1.7819 H   0  0  0  0  0  0  0  0  0  0  0  0
    1.8156   -0.9593   -3.4557 H   0  0  0  0  0  0  0  0  0  0  0  0
   -2.0517   -1.0645    2.2443 H   0  0  0  0  0  0  0  0  0  0  0  0
   -3.1543    1.0284   -1.3939 H   0  0  0  0  0  0  0  0  0  0  0  0
   -4.2902   -0.9478    1.5512 H   0  0  0  0  0  0  0  0  0  0  0  0
   -6.4091   -1.7207    0.6477 H   0  0  0  0  0  0  0  0  0  0  0  0
   -6.6123   -0.2241    1.5728 H   0  0  0  0  0  0  0  0  0  0  0  0
   -7.9019    0.7707   -0.3317 H   0  0  0  0  0  0  0  0  0  0  0  0
   -7.6994   -0.7149   -1.2507 H   0  0  0  0  0  0  0  0  0  0  0  0
   -8.9813   -1.9774    0.4930 H   0  0  0  0  0  0  0  0  0  0  0  0
   -9.9274   -0.6386   -0.1814 H   0  0  0  0  0  0  0  0  0  0  0  0
   -9.1853   -0.4780    1.4204 H   0  0  0  0  0  0  0  0  0  0  0  0
  1  8  1  0  0  0  0
  1 14  1  0  0  0  0
  2 11  1  0  0  0  0
  2 43  1  0  0  0  0
  3 12  2  0  0  0  0
  4 22  2  0  0  0  0
  5  7  1  0  0  0  0
  5  9  1  0  0  0  0
  5 12  1  0  0  0  0
  6 21  1  0  0  0  0
  6 22  1  0  0  0  0
  6 46  1  0  0  0  0
  7  8  1  0  0  0  0
  7 11  1  0  0  0  0
  7 26  1  0  0  0  0
  8 13  1  0  0  0  0
  8 27  1  0  0  0  0
  9 10  1  0  0  0  0
  9 28  1  0  0  0  0
  9 29  1  0  0  0  0
 10 15  1  0  0  0  0
 10 16  1  0  0  0  0
 10 30  1  0  0  0  0
 11 31  1  0  0  0  0
 11 32  1  0  0  0  0
 12 14  1  0  0  0  0
 13 17  2  0  0  0  0
 13 18  1  0  0  0  0
 14 33  1  0  0  0  0
 14 34  1  0  0  0  0
 15 35  1  0  0  0  0
 15 36  1  0  0  0  0
 15 37  1  0  0  0  0
 16 38  1  0  0  0  0
 16 39  1  0  0  0  0
 16 40  1  0  0  0  0
 17 19  1  0  0  0  0
 17 41  1  0  0  0  0
 18 20  2  0  0  0  0
 18 42  1  0  0  0  0
 19 21  2  0  0  0  0
 19 44  1  0  0  0  0
 20 21  1  0  0  0  0
 20 45  1  0  0  0  0
 22 23  1  0  0  0  0
 23 24  1  0  0  0  0
 23 47  1  0  0  0  0
 23 48  1  0  0  0  0
 24 25  1  0  0  0  0
 24 49  1  0  0  0  0
 24 50  1  0  0  0  0
 25 51  1  0  0  0  0
 25 52  1  0  0  0  0
 25 53  1  0  0  0  0
M  END
> <PUBCHEM_COMPOUND_CID>
71693311

> <PUBCHEM_CONFORMER_RMSD>
1

> <PUBCHEM_CONFORMER_DIVERSEORDER>
1
23
33
34
32
24
19
21
13
6
35
4
7
3
17
12
26
22
27
10
11
18
5
29
31
28
30
25
14
20
8
2
9
15
16

> <PUBCHEM_MMFF94_PARTIAL_CHARGES>
26
1 -0.56
11 0.28
12 0.57
13 -0.14
14 0.34
17 -0.15
18 -0.15
19 -0.15
2 -0.68
20 -0.15
21 0.12
22 0.57
23 0.06
3 -0.57
4 -0.57
41 0.15
42 0.15
43 0.4
44 0.15
45 0.15
46 0.37
5 -0.66
6 -0.55
7 0.3
8 0.42
9 0.3

> <PUBCHEM_EFFECTIVE_ROTOR_COUNT>
9

> <PUBCHEM_PHARMACOPHORE_FEATURES>
10
1 1 acceptor
1 2 acceptor
1 2 donor
1 25 hydrophobe
1 3 acceptor
1 4 acceptor
1 6 donor
3 10 15 16 hydrophobe
6 1 5 7 8 12 14 rings
6 13 17 18 19 20 21 rings

> <PUBCHEM_HEAVY_ATOM_COUNT>
25

> <PUBCHEM_ATOM_DEF_STEREO_COUNT>
2

> <PUBCHEM_ATOM_UDEF_STEREO_COUNT>
0

> <PUBCHEM_BOND_DEF_STEREO_COUNT>
0

> <PUBCHEM_BOND_UDEF_STEREO_COUNT>
0

> <PUBCHEM_ISOTOPIC_ATOM_COUNT>
0

> <PUBCHEM_COMPONENT_COUNT>
1

> <PUBCHEM_CACTVS_TAUTO_COUNT>
6

> <PUBCHEM_CONFORMER_ID>
0445F3FF00000001

> <PUBCHEM_MMFF94_ENERGY>
62.081

> <PUBCHEM_FEATURE_SELFOVERLAP>
50.747

> <PUBCHEM_SHAPE_FINGERPRINT>
10 15 14764620923948593035
10411042 1 18268431231854504410
106641 1 17989199344658771970
10670039 82 16371002954559547919
11719270 70 17632579344573792383
11796584 16 17603872195795334362
12166972 35 17240205421682887365
12236239 1 16558756723569690277
12616971 3 17846770815060202509
13533116 47 18413669119395672776
13617811 41 15719390620630295302
13685833 64 18335422365968007059
13782708 43 18260545585013648743
14251757 52 10663816373623924087
14294032 229 16082481147976924773
15183329 4 15430038729828367079
15475509 35 17895740826085199010
17349148 13 17775007873380421122
18222031 100 18059863827256793310
19377110 9 16845583006461823787
1979834 28 16988847146804692734
21267235 1 18271810077999179518
21279426 13 18114733833458872101
21304304 249 18272092652324643966
21344244 78 17418371364264095720
21781051 124 16298683749874207123
22149856 69 15841008727820042595
22956985 138 17199124214675205014
23536379 177 18202004339720307433
23559900 14 17676775335754736340
23569943 247 18042683893406399843
34797466 226 17022905678995067324
4073 2 18117279361669345707
4340502 62 16917350333492819127
465052 167 18342458111004742014
5104073 3 15768945532590820819
58260988 393 15625947491077986074
59755656 215 17313100822185523747
6438161 24 17603858980033213090
8988823 20 18411138047944585228

> <PUBCHEM_SHAPE_MULTIPOLES>
481.05
19.86
1.92
1.39
37.83
0.08
-0.5
9.39
2.57
-4.22
0.27
-0.98
0.21
0.7

> <PUBCHEM_SHAPE_SELFOVERLAP>
984.438

> <PUBCHEM_SHAPE_VOLUME>
274.4

> <PUBCHEM_COORDINATE_TYPE>
2
5
10

$$$$
