11883107
  -OEChem-12032416133D

 76 79  0     1  0  0  0  0  0999 V2000
   -1.4155    3.3997   -0.0518 S   0  0  0  0  0  0  0  0  0  0  0  0
   -7.2292   -1.8221   -0.8008 O   0  0  0  0  0  0  0  0  0  0  0  0
   -7.7530    0.1203    0.5018 O   0  0  0  0  0  0  0  0  0  0  0  0
    0.8321   -1.3525   -1.0047 O   0  0  0  0  0  0  0  0  0  0  0  0
    2.9718    1.8220    0.0736 O   0  0  0  0  0  0  0  0  0  0  0  0
    4.8405    3.7338    0.0358 O   0  0  0  0  0  0  0  0  0  0  0  0
    7.6680   -1.8684   -0.9719 O   0  0  0  0  0  0  0  0  0  0  0  0
    0.0534    1.2721    0.0392 N   0  0  0  0  0  0  0  0  0  0  0  0
    1.4904   -2.4527    0.9337 N   0  0  0  0  0  0  0  0  0  0  0  0
    1.2062    3.3885   -0.0030 N   0  0  0  0  0  0  0  0  0  0  0  0
    5.1626   -2.2985    0.3084 N   0  0  0  0  0  0  0  0  0  0  0  0
   -3.1815   -0.7868    0.4452 C   0  0  2  0  0  0  0  0  0  0  0  0
   -4.0399    0.2468   -0.4093 C   0  0  1  0  0  0  0  0  0  0  0  0
   -5.5917   -0.0192   -0.5061 C   0  0  1  0  0  0  0  0  0  0  0  0
   -1.6444   -0.5936    0.0533 C   0  0  1  0  0  0  0  0  0  0  0  0
   -3.6014   -2.2337    0.0780 C   0  0  0  0  0  0  0  0  0  0  0  0
   -5.8347   -1.5198   -0.8336 C   0  0  1  0  0  0  0  0  0  0  0  0
   -3.6770    1.7181   -0.0541 C   0  0  0  0  0  0  0  0  0  0  0  0
   -5.1050   -2.4671    0.1123 C   0  0  0  0  0  0  0  0  0  0  0  0
   -3.3519   -0.5922    1.9721 C   0  0  0  0  0  0  0  0  0  0  0  0
   -1.2682    0.8657    0.0381 C   0  0  0  0  0  0  0  0  0  0  0  0
   -6.3942    0.4090    0.7424 C   0  0  0  0  0  0  0  0  0  0  0  0
   -6.1760    0.8116   -1.6836 C   0  0  0  0  0  0  0  0  0  0  0  0
   -2.1952    1.8858   -0.0287 C   0  0  0  0  0  0  0  0  0  0  0  0
   -0.6625   -1.4181    0.8967 C   0  0  0  0  0  0  0  0  0  0  0  0
    0.6152   -1.7174    0.1476 C   0  0  0  0  0  0  0  0  0  0  0  0
    0.0960    2.5862    0.0014 C   0  0  0  0  0  0  0  0  0  0  0  0
    2.7909   -2.8848    0.4752 C   0  0  0  0  0  0  0  0  0  0  0  0
    2.5495    2.9727    0.0325 C   0  0  0  0  0  0  0  0  0  0  0  0
    3.8585   -1.8467    0.7887 C   0  0  0  0  0  0  0  0  0  0  0  0
    3.4948    4.1603    0.0132 C   0  0  0  0  0  0  0  0  0  0  0  0
    6.2470   -1.5599    0.9704 C   0  0  0  0  0  0  0  0  0  0  0  0
    5.2642   -2.1430   -1.1493 C   0  0  0  0  0  0  0  0  0  0  0  0
    7.5969   -2.0393    0.4441 C   0  0  0  0  0  0  0  0  0  0  0  0
    6.6370   -2.6097   -1.6251 C   0  0  0  0  0  0  0  0  0  0  0  0
    5.7465    4.8330    0.0182 C   0  0  0  0  0  0  0  0  0  0  0  0
   -3.6793    0.0996   -1.4423 H   0  0  0  0  0  0  0  0  0  0  0  0
   -1.5622   -0.9198   -0.9944 H   0  0  0  0  0  0  0  0  0  0  0  0
   -3.2417   -2.4757   -0.9309 H   0  0  0  0  0  0  0  0  0  0  0  0
   -3.1311   -2.9590    0.7515 H   0  0  0  0  0  0  0  0  0  0  0  0
   -5.4934   -1.7205   -1.8579 H   0  0  0  0  0  0  0  0  0  0  0  0
   -4.1036    2.4010   -0.7964 H   0  0  0  0  0  0  0  0  0  0  0  0
   -4.0847    1.9970    0.9232 H   0  0  0  0  0  0  0  0  0  0  0  0
   -5.3141   -3.5037   -0.1819 H   0  0  0  0  0  0  0  0  0  0  0  0
   -5.4991   -2.3784    1.1307 H   0  0  0  0  0  0  0  0  0  0  0  0
   -3.0690    0.4112    2.3020 H   0  0  0  0  0  0  0  0  0  0  0  0
   -4.3677   -0.7788    2.3142 H   0  0  0  0  0  0  0  0  0  0  0  0
   -2.7281   -1.2967    2.5332 H   0  0  0  0  0  0  0  0  0  0  0  0
   -6.3013    1.4816    0.9380 H   0  0  0  0  0  0  0  0  0  0  0  0
   -6.1061   -0.1318    1.6402 H   0  0  0  0  0  0  0  0  0  0  0  0
   -5.6003    0.6486   -2.6021 H   0  0  0  0  0  0  0  0  0  0  0  0
   -6.1630    1.8856   -1.4706 H   0  0  0  0  0  0  0  0  0  0  0  0
   -7.2136    0.5421   -1.9106 H   0  0  0  0  0  0  0  0  0  0  0  0
   -0.4092   -0.9004    1.8305 H   0  0  0  0  0  0  0  0  0  0  0  0
   -1.0902   -2.3902    1.1621 H   0  0  0  0  0  0  0  0  0  0  0  0
   -7.3348   -2.7543   -1.0562 H   0  0  0  0  0  0  0  0  0  0  0  0
   -8.2526    0.4014    1.2872 H   0  0  0  0  0  0  0  0  0  0  0  0
    1.2199   -2.6988    1.8816 H   0  0  0  0  0  0  0  0  0  0  0  0
    1.0146    4.3866   -0.0360 H   0  0  0  0  0  0  0  0  0  0  0  0
    2.7119   -3.0880   -0.5967 H   0  0  0  0  0  0  0  0  0  0  0  0
    3.0111   -3.8311    0.9819 H   0  0  0  0  0  0  0  0  0  0  0  0
    3.8820   -1.7207    1.8798 H   0  0  0  0  0  0  0  0  0  0  0  0
    3.5914   -0.8664    0.3746 H   0  0  0  0  0  0  0  0  0  0  0  0
    3.2855    4.7817    0.8918 H   0  0  0  0  0  0  0  0  0  0  0  0
    3.3027    4.7401   -0.8972 H   0  0  0  0  0  0  0  0  0  0  0  0
    6.1419   -0.4833    0.7828 H   0  0  0  0  0  0  0  0  0  0  0  0
    6.2141   -1.7215    2.0539 H   0  0  0  0  0  0  0  0  0  0  0  0
    4.5105   -2.7376   -1.6737 H   0  0  0  0  0  0  0  0  0  0  0  0
    5.1225   -1.0913   -1.4311 H   0  0  0  0  0  0  0  0  0  0  0  0
    8.4024   -1.4482    0.8914 H   0  0  0  0  0  0  0  0  0  0  0  0
    7.7787   -3.0914    0.6955 H   0  0  0  0  0  0  0  0  0  0  0  0
    6.7856   -3.6814   -1.4446 H   0  0  0  0  0  0  0  0  0  0  0  0
    6.7365   -2.4385   -2.7018 H   0  0  0  0  0  0  0  0  0  0  0  0
    6.7657    4.4380    0.0370 H   0  0  0  0  0  0  0  0  0  0  0  0
    5.5984    5.4642    0.8997 H   0  0  0  0  0  0  0  0  0  0  0  0
    5.6151    5.4216   -0.8949 H   0  0  0  0  0  0  0  0  0  0  0  0
  1 24  1  0  0  0  0
  1 27  1  0  0  0  0
  2 17  1  0  0  0  0
  2 56  1  0  0  0  0
  3 22  1  0  0  0  0
  3 57  1  0  0  0  0
  4 26  2  0  0  0  0
  5 29  2  0  0  0  0
  6 31  1  0  0  0  0
  6 36  1  0  0  0  0
  7 34  1  0  0  0  0
  7 35  1  0  0  0  0
  8 21  1  0  0  0  0
  8 27  2  0  0  0  0
  9 26  1  0  0  0  0
  9 28  1  0  0  0  0
  9 58  1  0  0  0  0
 10 27  1  0  0  0  0
 10 29  1  0  0  0  0
 10 59  1  0  0  0  0
 11 30  1  0  0  0  0
 11 32  1  0  0  0  0
 11 33  1  0  0  0  0
 12 13  1  0  0  0  0
 12 15  1  0  0  0  0
 12 16  1  0  0  0  0
 12 20  1  0  0  0  0
 13 14  1  0  0  0  0
 13 18  1  0  0  0  0
 13 37  1  0  0  0  0
 14 17  1  0  0  0  0
 14 22  1  0  0  0  0
 14 23  1  0  0  0  0
 15 21  1  0  0  0  0
 15 25  1  0  0  0  0
 15 38  1  0  0  0  0
 16 19  1  0  0  0  0
 16 39  1  0  0  0  0
 16 40  1  0  0  0  0
 17 19  1  0  0  0  0
 17 41  1  0  0  0  0
 18 24  1  0  0  0  0
 18 42  1  0  0  0  0
 18 43  1  0  0  0  0
 19 44  1  0  0  0  0
 19 45  1  0  0  0  0
 20 46  1  0  0  0  0
 20 47  1  0  0  0  0
 20 48  1  0  0  0  0
 21 24  2  0  0  0  0
 22 49  1  0  0  0  0
 22 50  1  0  0  0  0
 23 51  1  0  0  0  0
 23 52  1  0  0  0  0
 23 53  1  0  0  0  0
 25 26  1  0  0  0  0
 25 54  1  0  0  0  0
 25 55  1  0  0  0  0
 28 30  1  0  0  0  0
 28 60  1  0  0  0  0
 28 61  1  0  0  0  0
 29 31  1  0  0  0  0
 30 62  1  0  0  0  0
 30 63  1  0  0  0  0
 31 64  1  0  0  0  0
 31 65  1  0  0  0  0
 32 34  1  0  0  0  0
 32 66  1  0  0  0  0
 32 67  1  0  0  0  0
 33 35  1  0  0  0  0
 33 68  1  0  0  0  0
 33 69  1  0  0  0  0
 34 70  1  0  0  0  0
 34 71  1  0  0  0  0
 35 72  1  0  0  0  0
 35 73  1  0  0  0  0
 36 74  1  0  0  0  0
 36 75  1  0  0  0  0
 36 76  1  0  0  0  0
M  END
> <PUBCHEM_COMPOUND_CID>
11883107

> <PUBCHEM_CONFORMER_RMSD>
1.2

> <PUBCHEM_CONFORMER_DIVERSEORDER>
1
10
3
4
11
16
8
12
13
15
6
9
7
14
5
2

> <PUBCHEM_MMFF94_PARTIAL_CHARGES>
33
1 -0.08
10 -0.49
11 -0.81
15 0.18
17 0.28
18 0.18
2 -0.68
21 0.05
22 0.28
24 -0.14
25 0.06
26 0.57
27 0.44
28 0.3
29 0.57
3 -0.68
30 0.27
31 0.34
32 0.27
33 0.27
34 0.28
35 0.28
36 0.28
4 -0.57
5 -0.57
56 0.4
57 0.4
58 0.37
59 0.37
6 -0.56
7 -0.56
8 -0.57
9 -0.73

> <PUBCHEM_EFFECTIVE_ROTOR_COUNT>
13.4

> <PUBCHEM_PHARMACOPHORE_FEATURES>
15
1 10 donor
1 11 cation
1 2 acceptor
1 2 donor
1 3 acceptor
1 3 donor
1 4 acceptor
1 5 acceptor
1 6 acceptor
1 7 acceptor
1 9 donor
5 1 8 21 24 27 rings
6 12 13 14 16 17 19 rings
6 12 13 15 18 21 24 rings
6 7 11 32 33 34 35 rings

> <PUBCHEM_HEAVY_ATOM_COUNT>
36

> <PUBCHEM_ATOM_DEF_STEREO_COUNT>
5

> <PUBCHEM_ATOM_UDEF_STEREO_COUNT>
0

> <PUBCHEM_BOND_DEF_STEREO_COUNT>
0

> <PUBCHEM_BOND_UDEF_STEREO_COUNT>
0

> <PUBCHEM_ISOTOPIC_ATOM_COUNT>
0

> <PUBCHEM_COMPONENT_COUNT>
1

> <PUBCHEM_CACTVS_TAUTO_COUNT>
6

> <PUBCHEM_CONFORMER_ID>
00B5526300000001

> <PUBCHEM_MMFF94_ENERGY>
95.9966

> <PUBCHEM_FEATURE_SELFOVERLAP>
76.277

> <PUBCHEM_SHAPE_FINGERPRINT>
10050765 1 18337954622904343091
10290309 65 17759818322238813472
11135926 11 18337385071733985005
11621639 179 17607510342775953085
12107698 1 18411981334645197202
12166972 35 18202280286477964162
12677640 9 18198063565066162888
12857493 111 18341048519317456652
13811026 1 18337942425091454696
14068700 675 18410855426232848504
14117953 113 18343298129193082967
14415361 349 17774705494993950911
15264996 44 18272377503683206420
15351339 4 18335146393567446440
15400415 2 17761211420498672056
15444296 7 17988352759370366862
15927050 60 18051692441317352326
16067689 302 18266462199476456767
16087824 20 18193274084669193213
18681886 176 18341041965186631778
18738133 686 18338496622508449024
19611394 137 18188505617654022810
20609170 92 18115010992041177125
20642791 35 18334571334893033387
20721686 56 18335421292009879632
21279426 13 18333722525355154045
21344244 246 18266171919615764215
21779490 94 18200860860391698616
21781055 127 16845031039430952795
22311459 1 18409448042533163594
23559900 14 18410282602186582707
24771750 20 18116448105087682134
249057 3 18412261723206620367
335352 9 18337665314592489455
4280585 95 18411417289570327551
59520647 208 18340486764008021832
6669772 16 18266741466676083516
9961470 85 18266737077409099432

> <PUBCHEM_SHAPE_MULTIPOLES>
689.57
20.25
5.5
1.14
8.24
6.67
-0.07
-11.05
-3.79
10.76
-0.12
-0.09
-0.61
0.71

> <PUBCHEM_SHAPE_SELFOVERLAP>
1421.412

> <PUBCHEM_SHAPE_VOLUME>
398.2

> <PUBCHEM_COORDINATE_TYPE>
2
5
10

$$$$
