45783481
  -OEChem-12032416263D

 52 54  0     1  0  0  0  0  0999 V2000
   -2.4708    0.3106   -2.0399 O   0  0  0  0  0  0  0  0  0  0  0  0
    7.3740   -0.9067    0.7225 O   0  0  0  0  0  0  0  0  0  0  0  0
   -4.3814    0.0283    0.8959 N   0  0  1  0  0  0  0  0  0  0  0  0
   -1.4797    0.7391   -0.0776 N   0  0  0  0  0  0  0  0  0  0  0  0
   -1.0963    0.1476   -2.2540 N   0  0  0  0  0  0  0  0  0  0  0  0
    3.0716   -0.0112   -1.6092 N   0  0  0  0  0  0  0  0  0  0  0  0
    4.9191    0.2304   -0.1246 N   0  0  0  0  0  0  0  0  0  0  0  0
   -4.0232    0.8947   -0.2447 C   0  0  1  0  0  0  0  0  0  0  0  0
   -4.2423    2.3294    0.2699 C   0  0  0  0  0  0  0  0  0  0  0  0
   -5.3663    0.7690    1.6844 C   0  0  0  0  0  0  0  0  0  0  0  0
   -4.7809    2.1667    1.6842 C   0  0  0  0  0  0  0  0  0  0  0  0
   -4.8765   -1.2807    0.4897 C   0  0  0  0  0  0  0  0  0  0  0  0
   -3.7391   -2.2675    0.1750 C   0  0  0  0  0  0  0  0  0  0  0  0
   -2.6096    0.6586   -0.7338 C   0  0  0  0  0  0  0  0  0  0  0  0
   -2.8653   -2.4617    1.4172 C   0  0  0  0  0  0  0  0  0  0  0  0
   -4.2560   -3.6251   -0.3078 C   0  0  0  0  0  0  0  0  0  0  0  0
   -0.5797    0.4173   -1.0514 C   0  0  0  0  0  0  0  0  0  0  0  0
    0.8300    0.3754   -0.7902 C   0  0  0  0  0  0  0  0  0  0  0  0
    1.3336    0.6634    0.4735 C   0  0  0  0  0  0  0  0  0  0  0  0
    1.7329    0.0466   -1.7884 C   0  0  0  0  0  0  0  0  0  0  0  0
    2.7052    0.6144    0.6970 C   0  0  0  0  0  0  0  0  0  0  0  0
    3.5241    0.2750   -0.3678 C   0  0  0  0  0  0  0  0  0  0  0  0
    5.4882    0.5178    1.1517 C   0  0  0  0  0  0  0  0  0  0  0  0
    7.0026    0.4187    1.0798 C   0  0  0  0  0  0  0  0  0  0  0  0
    8.7856   -1.0501    0.6487 C   0  0  0  0  0  0  0  0  0  0  0  0
   -4.7157    0.7407   -1.0842 H   0  0  0  0  0  0  0  0  0  0  0  0
   -3.3379    2.9473    0.2664 H   0  0  0  0  0  0  0  0  0  0  0  0
   -4.9935    2.8324   -0.3514 H   0  0  0  0  0  0  0  0  0  0  0  0
   -6.3537    0.7700    1.2054 H   0  0  0  0  0  0  0  0  0  0  0  0
   -5.4630    0.3741    2.7005 H   0  0  0  0  0  0  0  0  0  0  0  0
   -5.5211    2.9319    1.9358 H   0  0  0  0  0  0  0  0  0  0  0  0
   -3.9581    2.2370    2.4065 H   0  0  0  0  0  0  0  0  0  0  0  0
   -5.5640   -1.2045   -0.3629 H   0  0  0  0  0  0  0  0  0  0  0  0
   -5.4669   -1.7164    1.3082 H   0  0  0  0  0  0  0  0  0  0  0  0
   -3.1123   -1.8807   -0.6325 H   0  0  0  0  0  0  0  0  0  0  0  0
   -3.4509   -2.8417    2.2615 H   0  0  0  0  0  0  0  0  0  0  0  0
   -2.0654   -3.1826    1.2152 H   0  0  0  0  0  0  0  0  0  0  0  0
   -2.3846   -1.5289    1.7281 H   0  0  0  0  0  0  0  0  0  0  0  0
   -3.4257   -4.2989   -0.5439 H   0  0  0  0  0  0  0  0  0  0  0  0
   -4.8605   -3.5067   -1.2131 H   0  0  0  0  0  0  0  0  0  0  0  0
   -4.8785   -4.1058    0.4544 H   0  0  0  0  0  0  0  0  0  0  0  0
    0.6808    0.9279    1.3015 H   0  0  0  0  0  0  0  0  0  0  0  0
    1.4217   -0.1916   -2.8013 H   0  0  0  0  0  0  0  0  0  0  0  0
    3.0636    0.8428    1.6938 H   0  0  0  0  0  0  0  0  0  0  0  0
    5.5069   -0.0227   -0.9106 H   0  0  0  0  0  0  0  0  0  0  0  0
    5.2287    1.5307    1.4808 H   0  0  0  0  0  0  0  0  0  0  0  0
    5.1289   -0.2045    1.8948 H   0  0  0  0  0  0  0  0  0  0  0  0
    7.3946    1.1217    0.3346 H   0  0  0  0  0  0  0  0  0  0  0  0
    7.4317    0.6674    2.0574 H   0  0  0  0  0  0  0  0  0  0  0  0
    9.1994   -0.3858   -0.1161 H   0  0  0  0  0  0  0  0  0  0  0  0
    9.2443   -0.8396    1.6197 H   0  0  0  0  0  0  0  0  0  0  0  0
    9.0126   -2.0834    0.3726 H   0  0  0  0  0  0  0  0  0  0  0  0
  1  5  1  0  0  0  0
  1 14  1  0  0  0  0
  2 24  1  0  0  0  0
  2 25  1  0  0  0  0
  3  8  1  0  0  0  0
  3 10  1  0  0  0  0
  3 12  1  0  0  0  0
  4 14  2  0  0  0  0
  4 17  1  0  0  0  0
  5 17  2  0  0  0  0
  6 20  1  0  0  0  0
  6 22  2  0  0  0  0
  7 22  1  0  0  0  0
  7 23  1  0  0  0  0
  7 45  1  0  0  0  0
  8  9  1  0  0  0  0
  8 14  1  0  0  0  0
  8 26  1  0  0  0  0
  9 11  1  0  0  0  0
  9 27  1  0  0  0  0
  9 28  1  0  0  0  0
 10 11  1  0  0  0  0
 10 29  1  0  0  0  0
 10 30  1  0  0  0  0
 11 31  1  0  0  0  0
 11 32  1  0  0  0  0
 12 13  1  0  0  0  0
 12 33  1  0  0  0  0
 12 34  1  0  0  0  0
 13 15  1  0  0  0  0
 13 16  1  0  0  0  0
 13 35  1  0  0  0  0
 15 36  1  0  0  0  0
 15 37  1  0  0  0  0
 15 38  1  0  0  0  0
 16 39  1  0  0  0  0
 16 40  1  0  0  0  0
 16 41  1  0  0  0  0
 17 18  1  0  0  0  0
 18 19  1  0  0  0  0
 18 20  2  0  0  0  0
 19 21  2  0  0  0  0
 19 42  1  0  0  0  0
 20 43  1  0  0  0  0
 21 22  1  0  0  0  0
 21 44  1  0  0  0  0
 23 24  1  0  0  0  0
 23 46  1  0  0  0  0
 23 47  1  0  0  0  0
 24 48  1  0  0  0  0
 24 49  1  0  0  0  0
 25 50  1  0  0  0  0
 25 51  1  0  0  0  0
 25 52  1  0  0  0  0
M  END
> <PUBCHEM_COMPOUND_CID>
45783481

> <PUBCHEM_CONFORMER_RMSD>
1

> <PUBCHEM_CONFORMER_DIVERSEORDER>
1
54
53
58
35
51
66
40
63
71
55
75
3
30
23
32
79
52
48
70
73
20
45
41
43
61
34
2
72
14
78
39
10
74
12
76
38
42
46
28
26
68
60
59
5
29
37
47
44
64
19
67
11
31
62
21
16
49
18
9
65
17
57
77
13
56
25
33
4
15
27
50
8
22
69
36
24
6
7

> <PUBCHEM_MMFF94_PARTIAL_CHARGES>
24
1 -0.02
10 0.27
12 0.27
14 0.3
17 0.46
18 0.05
19 -0.15
2 -0.56
20 0.16
21 -0.15
22 0.41
23 0.37
24 0.28
25 0.28
3 -0.81
4 -0.57
42 0.15
43 0.15
44 0.15
45 0.4
5 -0.41
6 -0.62
7 -0.87
8 0.45

> <PUBCHEM_EFFECTIVE_ROTOR_COUNT>
9

> <PUBCHEM_PHARMACOPHORE_FEATURES>
9
1 2 acceptor
1 3 cation
1 7 donor
3 13 15 16 hydrophobe
3 4 5 17 cation
3 6 7 22 cation
5 1 4 5 14 17 rings
5 3 8 9 10 11 rings
6 6 18 19 20 21 22 rings

> <PUBCHEM_HEAVY_ATOM_COUNT>
25

> <PUBCHEM_ATOM_DEF_STEREO_COUNT>
1

> <PUBCHEM_ATOM_UDEF_STEREO_COUNT>
0

> <PUBCHEM_BOND_DEF_STEREO_COUNT>
0

> <PUBCHEM_BOND_UDEF_STEREO_COUNT>
0

> <PUBCHEM_ISOTOPIC_ATOM_COUNT>
0

> <PUBCHEM_COMPONENT_COUNT>
1

> <PUBCHEM_CACTVS_TAUTO_COUNT>
8

> <PUBCHEM_CONFORMER_ID>
02BA99B900000001

> <PUBCHEM_MMFF94_ENERGY>
50.7712

> <PUBCHEM_FEATURE_SELFOVERLAP>
45.671

> <PUBCHEM_SHAPE_FINGERPRINT>
10 15 17560798862184160432
10291535 26 11671786004834640935
10319926 262 18272099296316615438
11036077 4 18335422370336957395
11089746 13 12463561886164965584
11315181 36 18409164445863051405
11552529 35 18269557298832931791
12403259 118 18060425745906919277
12523318 42 18272094941557653371
12596602 18 18412822517254894528
12616971 3 17167870780789748756
12633257 1 18336560386431106809
13583140 156 17560806554322972151
13690498 29 11386378066642092273
13782708 43 17240471512756500472
14344974 204 18270399537594081982
14844126 61 18340491187972250787
14856354 85 18408609179484595876
15021287 119 17168150043863745724
15183329 4 16950277425938510986
15188451 53 18337386166639253159
15348495 7 18343300405435877544
15352257 5 18260264128092851746
15716309 27 17748828518629337512
17093844 174 17560792230337845872
17780758 139 18408603669294911873
17913733 40 17275393109782117694
18927931 339 15647053746454630241
20281389 69 16630518549385857240
21033648 29 17274555251714296253
21150785 3 10953747694817056824
21267235 1 15140971633859979452
23402539 116 15791726395204577565
23522609 53 17824290200899586556
23559900 14 18055944046206560967
2838139 119 11743836989171296378
312425 54 18411141299203504834
397830 11 18266729350858119824
4169191 19 13901329526189689370
445580 167 15647060370159403358
445580 204 12391517486113934330
484985 159 16588023563392038363
5104073 3 17918001529088478542
5364581 5 18129660953430619769
543368 44 12823299000454297163
5924683 9 18341053021054482439
6009941 240 18272933786903028240
602551 16 18336838579614843127
9953998 17 18407476665333658504

> <PUBCHEM_SHAPE_MULTIPOLES>
477.84
18.87
2.39
1.76
41.88
2.08
0.53
3.27
-10.2
-5.75
-0.76
-0.56
-0.22
-0.58

> <PUBCHEM_SHAPE_SELFOVERLAP>
992.635

> <PUBCHEM_SHAPE_VOLUME>
275.2

> <PUBCHEM_COORDINATE_TYPE>
2
5
10

$$$$
