75536550
  -OEChem-12032416303D

 43 45  0     1  0  0  0  0  0999 V2000
   -2.5522    1.8647    0.9023 F   0  0  0  0  0  0  0  0  0  0  0  0
    2.1484   -1.1411    1.3936 O   0  0  0  0  0  0  0  0  0  0  0  0
    0.8390   -2.8523   -1.4810 O   0  0  0  0  0  0  0  0  0  0  0  0
    4.6166    0.6074    1.1012 O   0  0  0  0  0  0  0  0  0  0  0  0
    3.6854   -0.2782   -0.8424 N   0  0  0  0  0  0  0  0  0  0  0  0
   -1.1488   -0.8392   -0.1127 N   0  0  0  0  0  0  0  0  0  0  0  0
    4.1306    2.0949   -0.6553 C   0  0  0  0  0  0  0  0  0  0  0  0
    3.4248    3.1897    0.0732 C   0  0  0  0  0  0  0  0  0  0  0  0
    2.8245    2.6026   -1.1691 C   0  0  0  0  0  0  0  0  0  0  0  0
    2.3224   -1.9847    0.2429 C   0  0  1  0  0  0  0  0  0  0  0  0
    1.1064   -1.7456   -0.6418 C   0  0  2  0  0  0  0  0  0  0  0  0
    0.0254   -1.5261    0.4003 C   0  0  1  0  0  0  0  0  0  0  0  0
    3.6370   -1.6546   -0.4414 C   0  0  0  0  0  0  0  0  0  0  0  0
    0.7751   -0.7162    1.4454 C   0  0  0  0  0  0  0  0  0  0  0  0
    4.1730    0.7385   -0.0336 C   0  0  0  0  0  0  0  0  0  0  0  0
   -2.2697   -0.9525    0.8128 C   0  0  0  0  0  0  0  0  0  0  0  0
   -3.4907   -0.2325    0.3053 C   0  0  0  0  0  0  0  0  0  0  0  0
   -3.5646    1.1583    0.3800 C   0  0  0  0  0  0  0  0  0  0  0  0
   -4.5491   -0.9588   -0.2403 C   0  0  0  0  0  0  0  0  0  0  0  0
   -4.6968    1.8230   -0.0910 C   0  0  0  0  0  0  0  0  0  0  0  0
   -5.6815   -0.2942   -0.7114 C   0  0  0  0  0  0  0  0  0  0  0  0
   -5.7554    1.0967   -0.6368 C   0  0  0  0  0  0  0  0  0  0  0  0
    5.0263    2.3734   -1.2005 H   0  0  0  0  0  0  0  0  0  0  0  0
    3.8383    4.1888    0.0092 H   0  0  0  0  0  0  0  0  0  0  0  0
    2.9415    2.9668    1.0166 H   0  0  0  0  0  0  0  0  0  0  0  0
    1.9336    1.9975   -1.0518 H   0  0  0  0  0  0  0  0  0  0  0  0
    2.8361    3.2060   -2.0687 H   0  0  0  0  0  0  0  0  0  0  0  0
    2.3561   -3.0246    0.5912 H   0  0  0  0  0  0  0  0  0  0  0  0
    1.2148   -0.8545   -1.2704 H   0  0  0  0  0  0  0  0  0  0  0  0
   -0.2567   -2.5070    0.8084 H   0  0  0  0  0  0  0  0  0  0  0  0
    0.7622    0.3583    1.2279 H   0  0  0  0  0  0  0  0  0  0  0  0
    0.3868   -0.8680    2.4570 H   0  0  0  0  0  0  0  0  0  0  0  0
    3.7785   -2.2699   -1.3355 H   0  0  0  0  0  0  0  0  0  0  0  0
    4.4703   -1.8420    0.2449 H   0  0  0  0  0  0  0  0  0  0  0  0
    3.3570   -0.0464   -1.7754 H   0  0  0  0  0  0  0  0  0  0  0  0
   -1.4146   -1.2558   -1.0055 H   0  0  0  0  0  0  0  0  0  0  0  0
   -2.0115   -0.5317    1.7930 H   0  0  0  0  0  0  0  0  0  0  0  0
   -2.5163   -2.0080    0.9869 H   0  0  0  0  0  0  0  0  0  0  0  0
    0.7242   -3.6393   -0.9219 H   0  0  0  0  0  0  0  0  0  0  0  0
   -4.5047   -2.0426   -0.3071 H   0  0  0  0  0  0  0  0  0  0  0  0
   -4.7540    2.9059   -0.0329 H   0  0  0  0  0  0  0  0  0  0  0  0
   -6.5054   -0.8596   -1.1368 H   0  0  0  0  0  0  0  0  0  0  0  0
   -6.6369    1.6142   -1.0037 H   0  0  0  0  0  0  0  0  0  0  0  0
  1 18  1  0  0  0  0
  2 10  1  0  0  0  0
  2 14  1  0  0  0  0
  3 11  1  0  0  0  0
  3 39  1  0  0  0  0
  4 15  2  0  0  0  0
  5 13  1  0  0  0  0
  5 15  1  0  0  0  0
  5 35  1  0  0  0  0
  6 12  1  0  0  0  0
  6 16  1  0  0  0  0
  6 36  1  0  0  0  0
  7  8  1  0  0  0  0
  7  9  1  0  0  0  0
  7 15  1  0  0  0  0
  7 23  1  0  0  0  0
  8  9  1  0  0  0  0
  8 24  1  0  0  0  0
  8 25  1  0  0  0  0
  9 26  1  0  0  0  0
  9 27  1  0  0  0  0
 10 11  1  0  0  0  0
 10 13  1  0  0  0  0
 10 28  1  0  0  0  0
 11 12  1  0  0  0  0
 11 29  1  0  0  0  0
 12 14  1  0  0  0  0
 12 30  1  0  0  0  0
 13 33  1  0  0  0  0
 13 34  1  0  0  0  0
 14 31  1  0  0  0  0
 14 32  1  0  0  0  0
 16 17  1  0  0  0  0
 16 37  1  0  0  0  0
 16 38  1  0  0  0  0
 17 18  1  0  0  0  0
 17 19  2  0  0  0  0
 18 20  2  0  0  0  0
 19 21  1  0  0  0  0
 19 40  1  0  0  0  0
 20 22  1  0  0  0  0
 20 41  1  0  0  0  0
 21 22  2  0  0  0  0
 21 42  1  0  0  0  0
 22 43  1  0  0  0  0
M  END
> <PUBCHEM_COMPOUND_CID>
75536550

> <PUBCHEM_CONFORMER_RMSD>
0.8

> <PUBCHEM_CONFORMER_DIVERSEORDER>
1
58
213
232
138
82
280
93
292
302
234
189
295
34
259
268
16
256
60
194
203
149
111
276
221
59
217
79
86
253
94
201
206
265
15
97
277
215
195
248
163
205
281
241
294
143
191
199
80
12
236
4
114
26
90
272
254
247
240
177
242
75
95
155
263
278
62
188
22
251
303
131
11
249
87
113
255
168
258
88
28
185
184
99
3
214
279
216
296
224
275
35
227
152
157
23
29
273
264
54
257
173
154
133
165
161
106
267
266
164
193
291
271
108
175
208
250
290
44
223
71
63
176
129
126
301
181
136
102
21
144
146
169
32
132
219
27
81
40
282
73
174
83
209
245
110
117
41
244
139
120
196
76
298
167
130
39
158
65
197
78
187
135
210
160
230
190
269
140
225
270
37
107
283
226
119
151
128
52
246
137
186
56
141
228
180
237
121
31
170
68
98
9
202
112
297
13
85
134
229
46
25
260
118
220
105
148
50
145
33
261
70
72
47
204
172
142
293
5
77
24
178
103
200
262
222
74
231
43
287
104
147
156
122
89
84
38
48
212
8
153
166
36
289
211
91
182
101
64
7
285
300
274
284
20
159
69
96
18
42
288
179
30
67
286
183
150
10
61
238
239
125
243
127
233
252
92
198
235
49
14
162
45
218
116
66
53
192
109
55
19
2
17
171
100
6
57
51
115
123
124
207
299

> <PUBCHEM_MMFF94_PARTIAL_CHARGES>
34
1 -0.19
10 0.28
11 0.28
12 0.27
13 0.3
14 0.28
15 0.63
16 0.41
17 -0.14
18 0.19
19 -0.15
2 -0.56
20 -0.15
21 -0.15
22 -0.15
23 0.1
24 0.1
25 0.1
26 0.1
27 0.1
3 -0.68
35 0.37
36 0.36
39 0.4
4 -0.57
40 0.15
41 0.15
42 0.15
43 0.15
5 -0.73
6 -0.9
7 -0.1
8 -0.2
9 -0.2

> <PUBCHEM_EFFECTIVE_ROTOR_COUNT>
8.6

> <PUBCHEM_PHARMACOPHORE_FEATURES>
9
1 2 acceptor
1 3 acceptor
1 3 donor
1 4 acceptor
1 5 donor
1 6 cation
1 6 donor
5 2 10 11 12 14 rings
6 17 18 19 20 21 22 rings

> <PUBCHEM_HEAVY_ATOM_COUNT>
22

> <PUBCHEM_ATOM_DEF_STEREO_COUNT>
3

> <PUBCHEM_ATOM_UDEF_STEREO_COUNT>
0

> <PUBCHEM_BOND_DEF_STEREO_COUNT>
0

> <PUBCHEM_BOND_UDEF_STEREO_COUNT>
0

> <PUBCHEM_ISOTOPIC_ATOM_COUNT>
0

> <PUBCHEM_COMPONENT_COUNT>
1

> <PUBCHEM_CACTVS_TAUTO_COUNT>
2

> <PUBCHEM_CONFORMER_ID>
048098A600000001

> <PUBCHEM_MMFF94_ENERGY>
42.803

> <PUBCHEM_FEATURE_SELFOVERLAP>
45.672

> <PUBCHEM_SHAPE_FINGERPRINT>
10763959 59 18334864905003804998
11089746 13 18113615655671060578
11796584 16 11383841415764580871
12403259 118 18263635328926097234
12596602 18 13118296870532558932
12633257 1 15719948176300036564
12670546 177 18340486673560007103
14251751 18 11023840435315767292
14251764 38 18409172103732166173
14251764 75 18192446383112792004
14528608 73 18411418423277767135
14848178 96 18259990400345332804
15142526 21 17968656154470911680
15238133 3 17894916278495807724
15961568 22 18259704501478734157
17844677 252 18338524049589163043
17959699 21 18407759235780055017
18681886 176 18272083873374242642
20715895 44 18410853252652466152
21033648 29 16226036778653783463
21315763 129 18335699420974944741
21315763 76 18409724058389831865
21475661 188 17968379060619591116
21503847 285 18334016073326554526
21623110 236 18411144628177816009
21709351 56 18341047411104624671
21860390 5 18410583859750731364
23227448 37 18337955700624383095
235170 7 15554457287857826536
23559900 14 18269274573593788251
245318 6 17751657660484181556
2838139 119 18337670935876835980
3117164 225 8429780295703836503
33382 64 10303811007891993935
3472631 163 18263359201716270557
34797466 226 18202008733223912215
474 4 18260830418707233634
67856867 119 18337382751786909523
7288768 16 17389379634936744040

> <PUBCHEM_SHAPE_MULTIPOLES>
417.91
12.77
3.16
1.15
11.2
1.32
-0.06
6.58
1.89
-3.29
0.65
-0.46
-0.24
-0.28

> <PUBCHEM_SHAPE_SELFOVERLAP>
874.317

> <PUBCHEM_SHAPE_VOLUME>
237.7

> <PUBCHEM_COORDINATE_TYPE>
2
5
10

$$$$
