11912967
  -OEChem-12032416283D

 52 56  0     1  0  0  0  0  0999 V2000
    0.2115   -1.0305    1.7744 O   0  0  0  0  0  0  0  0  0  0  0  0
    0.6456   -3.5111   -0.0343 O   0  0  0  0  0  0  0  0  0  0  0  0
    4.8809   -1.1335    1.2250 O   0  0  0  0  0  0  0  0  0  0  0  0
    6.0458    2.9282   -1.3172 O   0  0  0  0  0  0  0  0  0  0  0  0
   -3.8270    1.4029    1.5960 O   0  0  0  0  0  0  0  0  0  0  0  0
    2.8599   -0.6049    0.2763 N   0  0  0  0  0  0  0  0  0  0  0  0
   -1.9474   -2.0932   -0.9748 N   0  0  0  0  0  0  0  0  0  0  0  0
    4.6951    0.8712    0.0732 N   0  0  0  0  0  0  0  0  0  0  0  0
   -3.2219   -0.2415   -0.3018 N   0  0  0  0  0  0  0  0  0  0  0  0
   -3.3989   -1.1184   -2.5394 N   0  0  0  0  0  0  0  0  0  0  0  0
    1.0175   -2.1282   -0.1722 C   0  0  1  0  0  0  0  0  0  0  0  0
   -0.1167   -1.3004    0.3999 C   0  0  1  0  0  0  0  0  0  0  0  0
    2.1965   -1.8100    0.7211 C   0  0  2  0  0  0  0  0  0  0  0  0
   -1.3157   -2.2156    0.3208 C   0  0  2  0  0  0  0  0  0  0  0  0
    1.5164   -1.5581    2.0580 C   0  0  0  0  0  0  0  0  0  0  0  0
   -0.6941   -3.5918    0.4754 C   0  0  0  0  0  0  0  0  0  0  0  0
    4.1937   -0.3444    0.5681 C   0  0  0  0  0  0  0  0  0  0  0  0
   -2.8841   -1.1221   -1.2810 C   0  0  0  0  0  0  0  0  0  0  0  0
    6.0344    1.3075    0.4750 C   0  0  0  0  0  0  0  0  0  0  0  0
    3.9464    1.8617   -0.7135 C   0  0  0  0  0  0  0  0  0  0  0  0
    6.7999    1.8783   -0.7083 C   0  0  0  0  0  0  0  0  0  0  0  0
    4.8110    2.4304   -1.8335 C   0  0  0  0  0  0  0  0  0  0  0  0
   -4.1373    0.6919   -0.6351 C   0  0  0  0  0  0  0  0  0  0  0  0
   -4.3089   -0.1581   -2.8040 C   0  0  0  0  0  0  0  0  0  0  0  0
   -4.7203    0.7831   -1.8825 C   0  0  0  0  0  0  0  0  0  0  0  0
   -4.4749    1.6087    0.4211 C   0  0  0  0  0  0  0  0  0  0  0  0
   -5.3306    2.6784    0.5174 C   0  0  0  0  0  0  0  0  0  0  0  0
   -5.2015    3.1645    1.8402 C   0  0  0  0  0  0  0  0  0  0  0  0
   -4.2752    2.3551    2.4557 C   0  0  0  0  0  0  0  0  0  0  0  0
    1.1942   -1.9387   -1.2360 H   0  0  0  0  0  0  0  0  0  0  0  0
   -0.2374   -0.3354   -0.1026 H   0  0  0  0  0  0  0  0  0  0  0  0
    2.9216   -2.6266    0.7957 H   0  0  0  0  0  0  0  0  0  0  0  0
   -2.0445   -2.0587    1.1243 H   0  0  0  0  0  0  0  0  0  0  0  0
    1.3743   -2.4964    2.6054 H   0  0  0  0  0  0  0  0  0  0  0  0
    2.0545   -0.8608    2.7075 H   0  0  0  0  0  0  0  0  0  0  0  0
   -0.6203   -3.8701    1.5325 H   0  0  0  0  0  0  0  0  0  0  0  0
   -1.2339   -4.3856   -0.0503 H   0  0  0  0  0  0  0  0  0  0  0  0
    2.2716    0.1203   -0.1120 H   0  0  0  0  0  0  0  0  0  0  0  0
   -1.6646   -2.7109   -1.7272 H   0  0  0  0  0  0  0  0  0  0  0  0
    5.8879    2.0826    1.2368 H   0  0  0  0  0  0  0  0  0  0  0  0
    6.5982    0.4894    0.9328 H   0  0  0  0  0  0  0  0  0  0  0  0
    3.0392    1.4483   -1.1545 H   0  0  0  0  0  0  0  0  0  0  0  0
    3.6603    2.6561   -0.0147 H   0  0  0  0  0  0  0  0  0  0  0  0
    7.7526    2.2993   -0.3724 H   0  0  0  0  0  0  0  0  0  0  0  0
    7.0186    1.1061   -1.4554 H   0  0  0  0  0  0  0  0  0  0  0  0
    5.0192    1.6715   -2.5974 H   0  0  0  0  0  0  0  0  0  0  0  0
    4.2913    3.2603   -2.3226 H   0  0  0  0  0  0  0  0  0  0  0  0
   -4.7115   -0.1663   -3.8112 H   0  0  0  0  0  0  0  0  0  0  0  0
   -5.4546    1.5330   -2.1476 H   0  0  0  0  0  0  0  0  0  0  0  0
   -5.9733    3.0709   -0.2580 H   0  0  0  0  0  0  0  0  0  0  0  0
   -5.7188    4.0000    2.2890 H   0  0  0  0  0  0  0  0  0  0  0  0
   -3.8493    2.3264    3.4479 H   0  0  0  0  0  0  0  0  0  0  0  0
  1 12  1  0  0  0  0
  1 15  1  0  0  0  0
  2 11  1  0  0  0  0
  2 16  1  0  0  0  0
  3 17  2  0  0  0  0
  4 21  1  0  0  0  0
  4 22  1  0  0  0  0
  5 26  1  0  0  0  0
  5 29  1  0  0  0  0
  6 13  1  0  0  0  0
  6 17  1  0  0  0  0
  6 38  1  0  0  0  0
  7 14  1  0  0  0  0
  7 18  1  0  0  0  0
  7 39  1  0  0  0  0
  8 17  1  0  0  0  0
  8 19  1  0  0  0  0
  8 20  1  0  0  0  0
  9 18  1  0  0  0  0
  9 23  2  0  0  0  0
 10 18  2  0  0  0  0
 10 24  1  0  0  0  0
 11 12  1  0  0  0  0
 11 13  1  0  0  0  0
 11 30  1  0  0  0  0
 12 14  1  0  0  0  0
 12 31  1  0  0  0  0
 13 15  1  0  0  0  0
 13 32  1  0  0  0  0
 14 16  1  0  0  0  0
 14 33  1  0  0  0  0
 15 34  1  0  0  0  0
 15 35  1  0  0  0  0
 16 36  1  0  0  0  0
 16 37  1  0  0  0  0
 19 21  1  0  0  0  0
 19 40  1  0  0  0  0
 19 41  1  0  0  0  0
 20 22  1  0  0  0  0
 20 42  1  0  0  0  0
 20 43  1  0  0  0  0
 21 44  1  0  0  0  0
 21 45  1  0  0  0  0
 22 46  1  0  0  0  0
 22 47  1  0  0  0  0
 23 25  1  0  0  0  0
 23 26  1  0  0  0  0
 24 25  2  0  0  0  0
 24 48  1  0  0  0  0
 25 49  1  0  0  0  0
 26 27  2  0  0  0  0
 27 28  1  0  0  0  0
 27 50  1  0  0  0  0
 28 29  2  0  0  0  0
 28 51  1  0  0  0  0
 29 52  1  0  0  0  0
M  END
> <PUBCHEM_COMPOUND_CID>
11912967

> <PUBCHEM_CONFORMER_RMSD>
1

> <PUBCHEM_CONFORMER_DIVERSEORDER>
1
70
30
73
69
10
32
15
81
74
62
21
56
58
77
66
24
44
35
49
67
50
43
9
41
71
33
23
36
27
40
18
14
17
13
83
63
42
64
48
22
54
29
37
75
52
78
61
76
7
79
34
68
82
8
25
59
4
55
46
39
12
31
47
53
80
19
65
60
20
51
3
28
57
16
26
6
38
5
72
11
2
45

> <PUBCHEM_MMFF94_PARTIAL_CHARGES>
36
1 -0.56
10 -0.62
11 0.28
12 0.28
13 0.3
14 0.37
15 0.28
16 0.28
17 0.69
18 0.72
19 0.3
2 -0.56
20 0.3
21 0.28
22 0.28
23 0.36
24 0.16
25 -0.15
26 0.09
27 -0.15
28 -0.15
29 -0.01
3 -0.57
38 0.37
39 0.4
4 -0.56
48 0.15
49 0.15
5 -0.28
50 0.15
51 0.15
52 0.15
6 -0.73
7 -0.87
8 -0.66
9 -0.62

> <PUBCHEM_EFFECTIVE_ROTOR_COUNT>
8.4

> <PUBCHEM_PHARMACOPHORE_FEATURES>
14
1 1 acceptor
1 2 acceptor
1 3 acceptor
1 4 acceptor
1 5 acceptor
1 6 donor
1 7 donor
1 9 acceptor
4 7 9 10 18 cation
5 1 11 12 13 15 rings
5 2 11 12 14 16 rings
5 5 26 27 28 29 rings
6 4 8 19 20 21 22 rings
6 9 10 18 23 24 25 rings

> <PUBCHEM_HEAVY_ATOM_COUNT>
29

> <PUBCHEM_ATOM_DEF_STEREO_COUNT>
4

> <PUBCHEM_ATOM_UDEF_STEREO_COUNT>
0

> <PUBCHEM_BOND_DEF_STEREO_COUNT>
0

> <PUBCHEM_BOND_UDEF_STEREO_COUNT>
0

> <PUBCHEM_ISOTOPIC_ATOM_COUNT>
0

> <PUBCHEM_COMPONENT_COUNT>
1

> <PUBCHEM_CACTVS_TAUTO_COUNT>
6

> <PUBCHEM_CONFORMER_ID>
00B5C70700000001

> <PUBCHEM_MMFF94_ENERGY>
66.6087

> <PUBCHEM_FEATURE_SELFOVERLAP>
71.772

> <PUBCHEM_SHAPE_FINGERPRINT>
100830 2 18340215102340992608
10319926 262 14345792708348823400
11049842 53 16914523339075424775
11135609 201 18412268354535483403
1200032 147 17344651261495307873
12107183 9 18188193348536908778
12390115 104 18188215402576645334
12422481 6 17312823762329510076
131258 38 11679727846147305977
13590594 115 17472695828215832130
13627175 23 18410855447998010845
13828863 39 18336840714598652833
13885169 86 18335990812947187461
14114211 68 16126975068022641905
14187579 7 17845363521850047865
14251764 75 18334583459949894880
14790565 3 18411140207902165944
14840074 17 18261396615799063589
14848178 5 12247680482911487590
14950920 106 12757144706026516206
15021287 119 17975404720704064682
15163728 17 18341623619906931806
15357212 105 17844544214679212835
15513586 35 17027986676719645028
16120349 67 18272103681488695904
16991981 162 18125444356397055535
1768 23 18341342101695692081
17913733 40 17095238081962000050
21033648 29 16153704280585601303
21033650 10 17489594475735917050
21458453 9 16081954648651196833
21774942 28 18130787889511263736
24771750 20 16844174433630542359
249057 25 18267846359407413634
2748736 6 18409160043922922112
2838139 119 18273493498899468744
3459 110 16950856893971824105
3552219 110 18262800813197939895
3610482 184 18060139829912529397
38570 142 18270415887926642687
474 4 18336818694058960195
57724786 102 18334296427359336962
5937810 71 17824841168522103748
6034566 193 18408327691902765749
6058803 2 17983836927513497023
633830 44 18269553841105079903
6700243 42 16055729101901002383
7288768 16 18260557710107233067

> <PUBCHEM_SHAPE_MULTIPOLES>
542.55
15.97
4.2
2.32
13.79
0.51
0.53
-18.92
2.46
-0.13
-0.82
-3.02
-0.74
-5.29

> <PUBCHEM_SHAPE_SELFOVERLAP>
1178.732

> <PUBCHEM_SHAPE_VOLUME>
294.3

> <PUBCHEM_COORDINATE_TYPE>
2
5
10

$$$$
