7144133
  -OEChem-12032416113D

 50 53  0     1  0  0  0  0  0999 V2000
    6.1350   -2.1910   -0.6653 Cl  0  0  0  0  0  0  0  0  0  0  0  0
   -2.0763    2.8171    2.2509 O   0  0  0  0  0  0  0  0  0  0  0  0
   -3.7187   -1.0692   -0.9025 O   0  0  0  0  0  0  0  0  0  0  0  0
   -3.4326   -2.6095    1.2612 O   0  0  0  0  0  0  0  0  0  0  0  0
   -1.6982   -0.2284   -1.6821 N   0  0  0  0  0  0  0  0  0  0  0  0
   -0.8298    1.9531    0.4660 N   0  0  0  0  0  0  0  0  0  0  0  0
   -1.5900    2.2438   -1.9649 C   0  0  1  0  0  0  0  0  0  0  0  0
    0.4626    0.9883   -1.4628 C   0  0  2  0  0  0  0  0  0  0  0  0
   -0.1080    2.1397   -2.2890 C   0  0  0  0  0  0  0  0  0  0  0  0
   -2.3187    0.9357   -2.3143 C   0  0  0  0  0  0  0  0  0  0  0  0
   -1.7397    2.6042   -0.4864 C   0  0  0  0  0  0  0  0  0  0  0  0
   -0.2433   -0.3259   -1.8576 C   0  0  0  0  0  0  0  0  0  0  0  0
    0.3089    1.2409    0.0396 C   0  0  0  0  0  0  0  0  0  0  0  0
    1.2037    0.7853    0.9548 C   0  0  0  0  0  0  0  0  0  0  0  0
   -1.1058    2.1908    1.8243 C   0  0  0  0  0  0  0  0  0  0  0  0
   -2.4967   -1.1730   -1.0379 C   0  0  0  0  0  0  0  0  0  0  0  0
    0.9503    1.0086    2.3655 C   0  0  0  0  0  0  0  0  0  0  0  0
   -0.1325    1.6521    2.8011 C   0  0  0  0  0  0  0  0  0  0  0  0
    2.4228    0.0494    0.5537 C   0  0  0  0  0  0  0  0  0  0  0  0
   -1.7929   -2.3813   -0.4740 C   0  0  0  0  0  0  0  0  0  0  0  0
   -2.8046   -3.2942    0.1846 C   0  0  0  0  0  0  0  0  0  0  0  0
    2.3818   -1.3352    0.4216 C   0  0  0  0  0  0  0  0  0  0  0  0
    3.6026    0.7467    0.3121 C   0  0  0  0  0  0  0  0  0  0  0  0
    3.5316   -2.0291    0.0442 C   0  0  0  0  0  0  0  0  0  0  0  0
    4.7523    0.0528   -0.0655 C   0  0  0  0  0  0  0  0  0  0  0  0
    4.7167   -1.3350   -0.1993 C   0  0  0  0  0  0  0  0  0  0  0  0
   -4.3805   -3.4363    1.9222 C   0  0  0  0  0  0  0  0  0  0  0  0
   -2.0424    3.0442   -2.5634 H   0  0  0  0  0  0  0  0  0  0  0  0
    1.5209    0.9017   -1.7332 H   0  0  0  0  0  0  0  0  0  0  0  0
    0.4083    3.0792   -2.0557 H   0  0  0  0  0  0  0  0  0  0  0  0
    0.0368    1.9515   -3.3599 H   0  0  0  0  0  0  0  0  0  0  0  0
   -3.3771    1.0075   -2.0421 H   0  0  0  0  0  0  0  0  0  0  0  0
   -2.2782    0.7652   -3.3973 H   0  0  0  0  0  0  0  0  0  0  0  0
   -1.5619    3.6825   -0.3713 H   0  0  0  0  0  0  0  0  0  0  0  0
   -2.7726    2.4352   -0.1560 H   0  0  0  0  0  0  0  0  0  0  0  0
   -0.0705   -0.5347   -2.9210 H   0  0  0  0  0  0  0  0  0  0  0  0
    0.1717   -1.1695   -1.3080 H   0  0  0  0  0  0  0  0  0  0  0  0
    1.6676    0.6230    3.0841 H   0  0  0  0  0  0  0  0  0  0  0  0
   -0.3167    1.8093    3.8571 H   0  0  0  0  0  0  0  0  0  0  0  0
   -1.0721   -2.0402    0.2767 H   0  0  0  0  0  0  0  0  0  0  0  0
   -1.2753   -2.9151   -1.2770 H   0  0  0  0  0  0  0  0  0  0  0  0
   -2.2895   -4.1810    0.5724 H   0  0  0  0  0  0  0  0  0  0  0  0
   -3.5618   -3.6247   -0.5372 H   0  0  0  0  0  0  0  0  0  0  0  0
    1.4698   -1.8922    0.6186 H   0  0  0  0  0  0  0  0  0  0  0  0
    3.6447    1.8284    0.4120 H   0  0  0  0  0  0  0  0  0  0  0  0
    3.4896   -3.1108   -0.0541 H   0  0  0  0  0  0  0  0  0  0  0  0
    5.6686    0.6069   -0.2523 H   0  0  0  0  0  0  0  0  0  0  0  0
   -3.8911   -4.3185    2.3460 H   0  0  0  0  0  0  0  0  0  0  0  0
   -5.1729   -3.7396    1.2311 H   0  0  0  0  0  0  0  0  0  0  0  0
   -4.8295   -2.8616    2.7367 H   0  0  0  0  0  0  0  0  0  0  0  0
  1 26  1  0  0  0  0
  2 15  2  0  0  0  0
  3 16  2  0  0  0  0
  4 21  1  0  0  0  0
  4 27  1  0  0  0  0
  5 10  1  0  0  0  0
  5 12  1  0  0  0  0
  5 16  1  0  0  0  0
  6 11  1  0  0  0  0
  6 13  1  0  0  0  0
  6 15  1  0  0  0  0
  7  9  1  0  0  0  0
  7 10  1  0  0  0  0
  7 11  1  0  0  0  0
  7 28  1  0  0  0  0
  8  9  1  0  0  0  0
  8 12  1  0  0  0  0
  8 13  1  0  0  0  0
  8 29  1  0  0  0  0
  9 30  1  0  0  0  0
  9 31  1  0  0  0  0
 10 32  1  0  0  0  0
 10 33  1  0  0  0  0
 11 34  1  0  0  0  0
 11 35  1  0  0  0  0
 12 36  1  0  0  0  0
 12 37  1  0  0  0  0
 13 14  2  0  0  0  0
 14 17  1  0  0  0  0
 14 19  1  0  0  0  0
 15 18  1  0  0  0  0
 16 20  1  0  0  0  0
 17 18  2  0  0  0  0
 17 38  1  0  0  0  0
 18 39  1  0  0  0  0
 19 22  2  0  0  0  0
 19 23  1  0  0  0  0
 20 21  1  0  0  0  0
 20 40  1  0  0  0  0
 20 41  1  0  0  0  0
 21 42  1  0  0  0  0
 21 43  1  0  0  0  0
 22 24  1  0  0  0  0
 22 44  1  0  0  0  0
 23 25  2  0  0  0  0
 23 45  1  0  0  0  0
 24 26  2  0  0  0  0
 24 46  1  0  0  0  0
 25 26  1  0  0  0  0
 25 47  1  0  0  0  0
 27 48  1  0  0  0  0
 27 49  1  0  0  0  0
 27 50  1  0  0  0  0
M  END
> <PUBCHEM_COMPOUND_CID>
7144133

> <PUBCHEM_CONFORMER_RMSD>
0.8

> <PUBCHEM_CONFORMER_DIVERSEORDER>
1
6
2
9
5
3
8
7
4

> <PUBCHEM_MMFF94_PARTIAL_CHARGES>
31
1 -0.18
10 0.3
11 0.3
12 0.3
13 -0.03
14 -0.03
15 0.62
16 0.57
17 -0.15
18 -0.14
19 0.03
2 -0.57
20 0.06
21 0.28
22 -0.15
23 -0.15
24 -0.15
25 -0.15
26 0.18
27 0.28
3 -0.57
38 0.15
39 0.15
4 -0.56
44 0.15
45 0.15
46 0.15
47 0.15
5 -0.66
6 -0.47
8 0.14

> <PUBCHEM_EFFECTIVE_ROTOR_COUNT>
6

> <PUBCHEM_PHARMACOPHORE_FEATURES>
7
1 2 acceptor
1 3 acceptor
1 4 acceptor
6 19 22 23 24 25 26 rings
6 5 7 8 9 10 12 rings
6 6 13 14 15 17 18 rings
6 6 7 8 9 11 13 rings

> <PUBCHEM_HEAVY_ATOM_COUNT>
27

> <PUBCHEM_ATOM_DEF_STEREO_COUNT>
2

> <PUBCHEM_ATOM_UDEF_STEREO_COUNT>
0

> <PUBCHEM_BOND_DEF_STEREO_COUNT>
0

> <PUBCHEM_BOND_UDEF_STEREO_COUNT>
0

> <PUBCHEM_ISOTOPIC_ATOM_COUNT>
0

> <PUBCHEM_COMPONENT_COUNT>
1

> <PUBCHEM_CACTVS_TAUTO_COUNT>
1

> <PUBCHEM_CONFORMER_ID>
006D02C500000001

> <PUBCHEM_MMFF94_ENERGY>
74.4825

> <PUBCHEM_FEATURE_SELFOVERLAP>
37.095

> <PUBCHEM_SHAPE_FINGERPRINT>
10764073 3 14401579703680967934
107951 10 18049148978463240599
11582403 64 15796215508075986309
11725454 13 9150905987142632639
11954058 11 17903644325861333747
12156800 1 17696238851555282175
12633257 1 16844740862017011139
12788726 201 17558535916318282448
13103583 49 17417263167764638059
13135754 10 17986419739765022894
13965767 371 16054642878896602939
14022347 108 17679832003839214807
14251740 79 18339918195820645702
14787075 74 17915726584302813877
14844126 61 16556757683024317614
16752209 62 16700025168973052620
17909252 39 17824834583444986564
20775530 9 18262513826776258291
23466295 7 18334299729851850130
35225 105 17843426006415400827
3737641 26 18339928241860063710
4058900 60 17548423600499020129
469060 322 17895208687752658226
484985 159 18269840822108577210
4921388 177 18262792965637984262
57527585 103 17906746803555385711
58260988 114 18267883708939028706
6287921 2 17111568346454381115
6823239 73 16446711154825045875
9981440 41 16484994727810853862

> <PUBCHEM_SHAPE_MULTIPOLES>
529.95
8.29
3.96
2.61
11.4
2.23
-0.79
8.95
0.41
-4.64
-1.1
-2.09
-1.71
1.61

> <PUBCHEM_SHAPE_SELFOVERLAP>
1136.499

> <PUBCHEM_SHAPE_VOLUME>
291.5

> <PUBCHEM_COORDINATE_TYPE>
2
5
10

$$$$
