26744529
  -OEChem-12032416283D

 42 44  0     1  0  0  0  0  0999 V2000
   -1.6324    0.2807    0.6195 S   0  0  0  0  0  0  0  0  0  0  0  0
    6.1957   -2.2375   -0.8714 O   0  0  0  0  0  0  0  0  0  0  0  0
    2.2285    2.1426   -0.8009 O   0  0  0  0  0  0  0  0  0  0  0  0
   -1.5763    1.5334    1.3495 O   0  0  0  0  0  0  0  0  0  0  0  0
   -1.0216   -0.9171    1.1642 O   0  0  0  0  0  0  0  0  0  0  0  0
    4.0949   -0.1369    1.1149 N   0  0  1  0  0  0  0  0  0  0  0  0
    1.4234    0.0705   -0.5272 N   0  0  0  0  0  0  0  0  0  0  0  0
    0.8496    2.2269   -1.0319 N   0  0  0  0  0  0  0  0  0  0  0  0
    3.9239    0.4820   -0.2153 C   0  0  1  0  0  0  0  0  0  0  0  0
    4.4968   -0.5487   -1.2059 C   0  0  0  0  0  0  0  0  0  0  0  0
    5.0064   -1.6909   -0.3358 C   0  0  2  0  0  0  0  0  0  0  0  0
    5.2452   -1.0328    1.0097 C   0  0  0  0  0  0  0  0  0  0  0  0
    2.4825    0.8397   -0.5107 C   0  0  0  0  0  0  0  0  0  0  0  0
    4.2552    0.8380    2.1857 C   0  0  0  0  0  0  0  0  0  0  0  0
    0.4460    0.9658   -0.8517 C   0  0  0  0  0  0  0  0  0  0  0  0
   -0.9601    0.5719   -0.9932 C   0  0  0  0  0  0  0  0  0  0  0  0
   -3.3298   -0.0972    0.3080 C   0  0  0  0  0  0  0  0  0  0  0  0
   -3.7211   -1.4182    0.0897 C   0  0  0  0  0  0  0  0  0  0  0  0
   -4.2780    0.9252    0.2777 C   0  0  0  0  0  0  0  0  0  0  0  0
   -6.0091   -0.6941   -0.1894 C   0  0  0  0  0  0  0  0  0  0  0  0
   -5.0606   -1.7166   -0.1591 C   0  0  0  0  0  0  0  0  0  0  0  0
   -5.6177    0.6267    0.0289 C   0  0  0  0  0  0  0  0  0  0  0  0
   -7.4414   -1.0134   -0.4552 C   0  0  0  0  0  0  0  0  0  0  0  0
    4.5370    1.3910   -0.2950 H   0  0  0  0  0  0  0  0  0  0  0  0
    3.7593   -0.9199   -1.9267 H   0  0  0  0  0  0  0  0  0  0  0  0
    5.3164   -0.1032   -1.7838 H   0  0  0  0  0  0  0  0  0  0  0  0
    4.2516   -2.4826   -0.2536 H   0  0  0  0  0  0  0  0  0  0  0  0
    5.2689   -1.7728    1.8164 H   0  0  0  0  0  0  0  0  0  0  0  0
    6.2023   -0.4944    1.0159 H   0  0  0  0  0  0  0  0  0  0  0  0
    4.3623    0.3296    3.1503 H   0  0  0  0  0  0  0  0  0  0  0  0
    5.1313    1.4793    2.0373 H   0  0  0  0  0  0  0  0  0  0  0  0
    3.3697    1.4781    2.2619 H   0  0  0  0  0  0  0  0  0  0  0  0
    5.9887   -2.5723   -1.7607 H   0  0  0  0  0  0  0  0  0  0  0  0
   -1.0518   -0.3513   -1.5727 H   0  0  0  0  0  0  0  0  0  0  0  0
   -1.5543    1.3562   -1.4719 H   0  0  0  0  0  0  0  0  0  0  0  0
   -2.9982   -2.2289    0.1015 H   0  0  0  0  0  0  0  0  0  0  0  0
   -3.9933    1.9611    0.4386 H   0  0  0  0  0  0  0  0  0  0  0  0
   -5.3534   -2.7496   -0.3276 H   0  0  0  0  0  0  0  0  0  0  0  0
   -6.3472    1.4319    0.0079 H   0  0  0  0  0  0  0  0  0  0  0  0
   -7.5369   -1.8911   -1.1034 H   0  0  0  0  0  0  0  0  0  0  0  0
   -7.9435   -0.1836   -0.9641 H   0  0  0  0  0  0  0  0  0  0  0  0
   -7.9625   -1.2142    0.4862 H   0  0  0  0  0  0  0  0  0  0  0  0
  1  4  2  0  0  0  0
  1  5  2  0  0  0  0
  1 16  1  0  0  0  0
  1 17  1  0  0  0  0
  2 11  1  0  0  0  0
  2 33  1  0  0  0  0
  3  8  1  0  0  0  0
  3 13  1  0  0  0  0
  6  9  1  0  0  0  0
  6 12  1  0  0  0  0
  6 14  1  0  0  0  0
  7 13  2  0  0  0  0
  7 15  1  0  0  0  0
  8 15  2  0  0  0  0
  9 10  1  0  0  0  0
  9 13  1  0  0  0  0
  9 24  1  0  0  0  0
 10 11  1  0  0  0  0
 10 25  1  0  0  0  0
 10 26  1  0  0  0  0
 11 12  1  0  0  0  0
 11 27  1  0  0  0  0
 12 28  1  0  0  0  0
 12 29  1  0  0  0  0
 14 30  1  0  0  0  0
 14 31  1  0  0  0  0
 14 32  1  0  0  0  0
 15 16  1  0  0  0  0
 16 34  1  0  0  0  0
 16 35  1  0  0  0  0
 17 18  2  0  0  0  0
 17 19  1  0  0  0  0
 18 21  1  0  0  0  0
 18 36  1  0  0  0  0
 19 22  2  0  0  0  0
 19 37  1  0  0  0  0
 20 21  2  0  0  0  0
 20 22  1  0  0  0  0
 20 23  1  0  0  0  0
 21 38  1  0  0  0  0
 22 39  1  0  0  0  0
 23 40  1  0  0  0  0
 23 41  1  0  0  0  0
 23 42  1  0  0  0  0
M  END
> <PUBCHEM_COMPOUND_CID>
26744529

> <PUBCHEM_CONFORMER_RMSD>
0.8

> <PUBCHEM_CONFORMER_DIVERSEORDER>
1
78
85
10
76
95
37
63
54
77
30
71
91
39
73
46
8
36
27
45
19
83
57
87
40
41
67
47
56
24
66
94
59
60
79
81
44
17
25
23
58
49
52
93
14
2
92
89
51
32
28
88
50
86
18
11
82
65
80
69
31
61
6
33
5
9
34
16
62
26
35
21
4
72
20
3
12
43
74
22
38
55
48
29
70
42
15
7
53
64
84
13
68
90
75

> <PUBCHEM_MMFF94_PARTIAL_CHARGES>
27
1 1.2
11 0.28
12 0.27
13 0.3
14 0.27
15 0.34
16 0.29
17 -0.01
18 -0.15
19 -0.15
2 -0.68
20 -0.14
21 -0.15
22 -0.15
23 0.14
3 -0.02
33 0.4
36 0.15
37 0.15
38 0.15
39 0.15
4 -0.65
5 -0.65
6 -0.81
7 -0.57
8 -0.41
9 0.45

> <PUBCHEM_EFFECTIVE_ROTOR_COUNT>
5

> <PUBCHEM_PHARMACOPHORE_FEATURES>
9
1 2 acceptor
1 2 donor
1 4 acceptor
1 5 acceptor
1 6 cation
3 7 8 15 cation
5 3 7 8 13 15 rings
5 6 9 10 11 12 rings
6 17 18 19 20 21 22 rings

> <PUBCHEM_HEAVY_ATOM_COUNT>
23

> <PUBCHEM_ATOM_DEF_STEREO_COUNT>
2

> <PUBCHEM_ATOM_UDEF_STEREO_COUNT>
0

> <PUBCHEM_BOND_DEF_STEREO_COUNT>
0

> <PUBCHEM_BOND_UDEF_STEREO_COUNT>
0

> <PUBCHEM_ISOTOPIC_ATOM_COUNT>
0

> <PUBCHEM_COMPONENT_COUNT>
1

> <PUBCHEM_CACTVS_TAUTO_COUNT>
1

> <PUBCHEM_CONFORMER_ID>
019816D100000001

> <PUBCHEM_MMFF94_ENERGY>
34.6621

> <PUBCHEM_FEATURE_SELFOVERLAP>
45.689

> <PUBCHEM_SHAPE_FINGERPRINT>
10 15 14908175373857787490
106641 1 18202277027241175882
10692045 39 11599451218482529028
11069576 57 16081916046039101082
11719270 70 18131634482872178031
11724838 91 15051721019558701108
11796584 16 17822291339850938947
11858739 19 18409446994597319623
12166972 35 18413393146077415457
12236239 1 18411420618317330417
12403259 118 15195294083734851306
12516196 113 18334575750541542932
12596602 18 18060418010638696938
12730499 353 9943530738536855860
12895836 83 12324252684213884224
12895837 130 7924753684512787770
12916748 109 11530475632097587823
13533116 47 18342739641393982304
13583140 156 16987994982085276764
13668630 136 18187366536703037727
13862211 1 18040995124606492955
13914758 101 18261387833371087069
14211702 104 18263367065506704859
14251752 14 16950556658672916743
14251757 52 11746929885236324863
14341114 176 17203607082441721106
14341114 328 14405185088107583757
14366163 111 11674881099996485604
14787075 74 12679464196802665471
14848160 23 18060699489968338083
15183329 4 17603301544822768463
15188451 53 18201998811216416283
15348495 7 17632571690846897611
15420108 30 17688597056970147257
15788980 27 18131353033601408341
16752209 62 17241042107487996880
17349148 13 18411429418330806057
17492 89 18118694459184184739
17834072 8 17095241432278953211
17857418 61 18333730230120197039
18222031 100 18334298660715697124
190975 80 15769488850749541647
19377110 9 13110964202133692405
19489759 90 18202003209943422537
19784866 240 18335709329522571053
200 152 18342461456536235149
20028762 73 18342175570196361750
20397935 70 18273214209776313750
20567600 234 15338834309102764193
20645477 70 17967816085007084116
21150785 3 10809631463095738537
21267235 1 18187090568422643499
21285901 2 16009020644856260790
21521239 73 18114456868746396499
21792934 111 13542199238364142995
22061861 79 15285352907981167907
22079108 93 12391513092119544181
2215653 11 17312823783877984555
22224240 67 12967128307555255245
23016692 55 18114187410834673790
23402539 116 18412544310917269597
23522609 53 17824855293487950108
23559900 14 18336269058240321417
23569943 247 18045499716509453739
25122255 55 18341905094867934879
2916195 48 8934707882255385398
29717793 49 18260548939488335821
3004659 81 17822013112080208054
3411729 13 18116993502233359868
3472631 163 8358246047752033210
404807 14 17122002200901567639
4073 2 17678183908332954057
4325135 7 14405187282930902209
4340502 62 15841554067489107639
465052 167 18410018736512508318
5104073 3 17632584846331537521
5207 123 18334580131091394606
5283156 175 18341894100568847263
543368 44 8934997058445996271
559249 180 18410857634236246975
59682541 35 11815887982092150655
59682541 52 13912596135401781490
59755656 215 17530676598706485007
6913067 236 15769776832174580357
8988823 20 17703505584043371664
960060 61 16660366987107485614
9971528 1 17895194462647043765
9981440 41 16890618191166869345

> <PUBCHEM_SHAPE_MULTIPOLES>
438.76
17.31
1.9
1.32
9.31
0.08
0.44
9.43
-0.01
-1.13
-0.34
-1.74
-0.3
0.2

> <PUBCHEM_SHAPE_SELFOVERLAP>
918.783

> <PUBCHEM_SHAPE_VOLUME>
251.4

> <PUBCHEM_COORDINATE_TYPE>
2
5
10

$$$$
