38028941
  -OEChem-12032416253D

 73 75  0     1  0  0  0  0  0999 V2000
   -0.4394    3.7678   -0.3378 O   0  0  0  0  0  0  0  0  0  0  0  0
   -2.6168   -3.5911    0.6257 O   0  0  0  0  0  0  0  0  0  0  0  0
    0.1658   -2.7795   -0.4894 O   0  0  0  0  0  0  0  0  0  0  0  0
   -3.6809   -2.0359   -0.7358 N   0  0  0  0  0  0  0  0  0  0  0  0
    1.0351    1.9868   -0.5684 N   0  0  0  0  0  0  0  0  0  0  0  0
    3.6344    0.7748   -0.1752 N   0  0  0  0  0  0  0  0  0  0  0  0
    5.5213   -0.3803   -1.0015 N   0  0  0  0  0  0  0  0  0  0  0  0
   -3.0925    0.2422    1.1371 C   0  0  1  0  0  0  0  0  0  0  0  0
   -4.4558   -0.0602    0.4662 C   0  0  1  0  0  0  0  0  0  0  0  0
   -2.7420    1.7309    0.9920 C   0  0  0  0  0  0  0  0  0  0  0  0
   -2.6689    2.1713   -0.4822 C   0  0  2  0  0  0  0  0  0  0  0  0
   -3.0879   -0.1499    2.6179 C   0  0  0  0  0  0  0  0  0  0  0  0
   -3.8596    1.6759   -1.2776 C   0  0  0  0  0  0  0  0  0  0  0  0
   -4.6546    0.6870   -0.8317 C   0  0  0  0  0  0  0  0  0  0  0  0
   -1.3529    1.7234   -1.1278 C   0  0  0  0  0  0  0  0  0  0  0  0
   -4.6308   -1.5634    0.2221 C   0  0  0  0  0  0  0  0  0  0  0  0
   -1.6634   -0.4178    3.0931 C   0  0  0  0  0  0  0  0  0  0  0  0
   -3.7427    0.9412    3.4591 C   0  0  0  0  0  0  0  0  0  0  0  0
   -4.1433    2.3748   -2.5781 C   0  0  0  0  0  0  0  0  0  0  0  0
   -0.2198    2.5926   -0.6402 C   0  0  0  0  0  0  0  0  0  0  0  0
    2.1843    2.7634   -0.1105 C   0  0  0  0  0  0  0  0  0  0  0  0
    1.2921    0.5878   -0.9178 C   0  0  0  0  0  0  0  0  0  0  0  0
    3.1897    1.9014    0.6499 C   0  0  0  0  0  0  0  0  0  0  0  0
    2.7585    0.3226   -1.2589 C   0  0  0  0  0  0  0  0  0  0  0  0
   -2.7359   -3.0249   -0.4574 C   0  0  0  0  0  0  0  0  0  0  0  0
   -1.8580   -3.3304   -1.6607 C   0  0  0  0  0  0  0  0  0  0  0  0
    4.8728    0.1768    0.0457 C   0  0  0  0  0  0  0  0  0  0  0  0
   -0.4593   -3.7864   -1.2748 C   0  0  0  0  0  0  0  0  0  0  0  0
    5.3627    0.1935    1.3417 C   0  0  0  0  0  0  0  0  0  0  0  0
    6.5978   -0.3998    1.5781 C   0  0  0  0  0  0  0  0  0  0  0  0
    6.7188   -0.9475   -0.7333 C   0  0  0  0  0  0  0  0  0  0  0  0
    7.2953   -0.9832    0.5261 C   0  0  0  0  0  0  0  0  0  0  0  0
    1.4758   -3.1640   -0.0955 C   0  0  0  0  0  0  0  0  0  0  0  0
   -2.3146   -0.3407    0.6307 H   0  0  0  0  0  0  0  0  0  0  0  0
   -5.2696    0.2585    1.1297 H   0  0  0  0  0  0  0  0  0  0  0  0
   -1.8017    1.9715    1.4998 H   0  0  0  0  0  0  0  0  0  0  0  0
   -3.5174    2.3582    1.4508 H   0  0  0  0  0  0  0  0  0  0  0  0
   -2.7336    3.2679   -0.4821 H   0  0  0  0  0  0  0  0  0  0  0  0
   -3.6501   -1.0771    2.7692 H   0  0  0  0  0  0  0  0  0  0  0  0
   -5.5233    0.4041   -1.4231 H   0  0  0  0  0  0  0  0  0  0  0  0
   -1.3751    1.8371   -2.2175 H   0  0  0  0  0  0  0  0  0  0  0  0
   -1.1882    0.6661   -0.9162 H   0  0  0  0  0  0  0  0  0  0  0  0
   -5.6243   -1.7648   -0.1965 H   0  0  0  0  0  0  0  0  0  0  0  0
   -4.5609   -2.1393    1.1487 H   0  0  0  0  0  0  0  0  0  0  0  0
   -1.0250    0.4677    3.0148 H   0  0  0  0  0  0  0  0  0  0  0  0
   -1.2008   -1.2213    2.5097 H   0  0  0  0  0  0  0  0  0  0  0  0
   -1.6630   -0.7320    4.1426 H   0  0  0  0  0  0  0  0  0  0  0  0
   -3.1193    1.8353    3.5648 H   0  0  0  0  0  0  0  0  0  0  0  0
   -3.8979    0.5649    4.4779 H   0  0  0  0  0  0  0  0  0  0  0  0
   -4.7288    1.2302    3.0837 H   0  0  0  0  0  0  0  0  0  0  0  0
   -4.2473    3.4526   -2.4158 H   0  0  0  0  0  0  0  0  0  0  0  0
   -5.0719    2.0225   -3.0400 H   0  0  0  0  0  0  0  0  0  0  0  0
   -3.3366    2.2072   -3.2974 H   0  0  0  0  0  0  0  0  0  0  0  0
   -3.7435   -1.6767   -1.6841 H   0  0  0  0  0  0  0  0  0  0  0  0
    1.8500    3.5946    0.5194 H   0  0  0  0  0  0  0  0  0  0  0  0
    2.6499    3.1973   -1.0040 H   0  0  0  0  0  0  0  0  0  0  0  0
    0.6794    0.2958   -1.7758 H   0  0  0  0  0  0  0  0  0  0  0  0
    0.9841   -0.0132   -0.0543 H   0  0  0  0  0  0  0  0  0  0  0  0
    4.0345    2.5430    0.9294 H   0  0  0  0  0  0  0  0  0  0  0  0
    2.7257    1.5201    1.5680 H   0  0  0  0  0  0  0  0  0  0  0  0
    2.8851   -0.7511   -1.4403 H   0  0  0  0  0  0  0  0  0  0  0  0
    3.0325    0.8495   -2.1811 H   0  0  0  0  0  0  0  0  0  0  0  0
   -1.7741   -2.4245   -2.2734 H   0  0  0  0  0  0  0  0  0  0  0  0
   -2.3577   -4.1002   -2.2583 H   0  0  0  0  0  0  0  0  0  0  0  0
   -0.5127   -4.7176   -0.6985 H   0  0  0  0  0  0  0  0  0  0  0  0
    0.1308   -3.9669   -2.1806 H   0  0  0  0  0  0  0  0  0  0  0  0
    4.8269    0.6251    2.1798 H   0  0  0  0  0  0  0  0  0  0  0  0
    7.0144   -0.4118    2.5807 H   0  0  0  0  0  0  0  0  0  0  0  0
    7.2220   -1.3889   -1.5872 H   0  0  0  0  0  0  0  0  0  0  0  0
    8.2591   -1.4524    0.6873 H   0  0  0  0  0  0  0  0  0  0  0  0
    1.8998   -2.3670    0.5211 H   0  0  0  0  0  0  0  0  0  0  0  0
    2.1136   -3.3045   -0.9733 H   0  0  0  0  0  0  0  0  0  0  0  0
    1.4444   -4.0823    0.4989 H   0  0  0  0  0  0  0  0  0  0  0  0
  1 20  2  0  0  0  0
  2 25  2  0  0  0  0
  3 28  1  0  0  0  0
  3 33  1  0  0  0  0
  4 16  1  0  0  0  0
  4 25  1  0  0  0  0
  4 54  1  0  0  0  0
  5 20  1  0  0  0  0
  5 21  1  0  0  0  0
  5 22  1  0  0  0  0
  6 23  1  0  0  0  0
  6 24  1  0  0  0  0
  6 27  1  0  0  0  0
  7 27  1  0  0  0  0
  7 31  2  0  0  0  0
  8  9  1  0  0  0  0
  8 10  1  0  0  0  0
  8 12  1  0  0  0  0
  8 34  1  0  0  0  0
  9 14  1  0  0  0  0
  9 16  1  0  0  0  0
  9 35  1  0  0  0  0
 10 11  1  0  0  0  0
 10 36  1  0  0  0  0
 10 37  1  0  0  0  0
 11 13  1  0  0  0  0
 11 15  1  0  0  0  0
 11 38  1  0  0  0  0
 12 17  1  0  0  0  0
 12 18  1  0  0  0  0
 12 39  1  0  0  0  0
 13 14  2  0  0  0  0
 13 19  1  0  0  0  0
 14 40  1  0  0  0  0
 15 20  1  0  0  0  0
 15 41  1  0  0  0  0
 15 42  1  0  0  0  0
 16 43  1  0  0  0  0
 16 44  1  0  0  0  0
 17 45  1  0  0  0  0
 17 46  1  0  0  0  0
 17 47  1  0  0  0  0
 18 48  1  0  0  0  0
 18 49  1  0  0  0  0
 18 50  1  0  0  0  0
 19 51  1  0  0  0  0
 19 52  1  0  0  0  0
 19 53  1  0  0  0  0
 21 23  1  0  0  0  0
 21 55  1  0  0  0  0
 21 56  1  0  0  0  0
 22 24  1  0  0  0  0
 22 57  1  0  0  0  0
 22 58  1  0  0  0  0
 23 59  1  0  0  0  0
 23 60  1  0  0  0  0
 24 61  1  0  0  0  0
 24 62  1  0  0  0  0
 25 26  1  0  0  0  0
 26 28  1  0  0  0  0
 26 63  1  0  0  0  0
 26 64  1  0  0  0  0
 27 29  2  0  0  0  0
 28 65  1  0  0  0  0
 28 66  1  0  0  0  0
 29 30  1  0  0  0  0
 29 67  1  0  0  0  0
 30 32  2  0  0  0  0
 30 68  1  0  0  0  0
 31 32  1  0  0  0  0
 31 69  1  0  0  0  0
 32 70  1  0  0  0  0
 33 71  1  0  0  0  0
 33 72  1  0  0  0  0
 33 73  1  0  0  0  0
M  END
> <PUBCHEM_COMPOUND_CID>
38028941

> <PUBCHEM_CONFORMER_RMSD>
1.2

> <PUBCHEM_CONFORMER_DIVERSEORDER>
1
66
133
91
88
37
48
115
136
102
99
27
121
89
8
30
57
105
127
53
50
112
62
134
131
95
13
68
97
98
40
129
35
55
111
93
117
43
126
46
124
110
108
96
135
137
101
107
67
82
92
128
130
123
31
56
114
70
104
19
10
16
41
118
60
28
106
23
33
61
122
72
73
103
81
125
26
90
76
47
39
38
11
29
80
42
54
74
36
7
87
44
51
64
65
21
58
4
34
94
15
109
5
113
119
75
83
25
49
22
2
12
14
71
79
9
132
63
17
85
120
59
100
3
69
84
116
52
18
32
78
6
24
86
45
20
77

> <PUBCHEM_MMFF94_PARTIAL_CHARGES>
34
1 -0.57
11 0.14
13 -0.28
14 -0.29
15 0.06
16 0.3
19 0.14
2 -0.57
20 0.57
21 0.3
22 0.3
23 0.37
24 0.37
25 0.57
26 0.06
27 0.41
28 0.28
29 -0.15
3 -0.56
30 -0.15
31 0.16
32 -0.15
33 0.28
4 -0.73
40 0.15
5 -0.66
54 0.37
6 -0.84
67 0.15
68 0.15
69 0.15
7 -0.62
70 0.15
9 0.14

> <PUBCHEM_EFFECTIVE_ROTOR_COUNT>
13

> <PUBCHEM_PHARMACOPHORE_FEATURES>
10
1 1 acceptor
1 2 acceptor
1 3 acceptor
1 4 donor
1 6 cation
1 7 acceptor
3 12 17 18 hydrophobe
6 5 6 21 22 23 24 rings
6 7 27 29 30 31 32 rings
6 8 9 10 11 13 14 rings

> <PUBCHEM_HEAVY_ATOM_COUNT>
33

> <PUBCHEM_ATOM_DEF_STEREO_COUNT>
3

> <PUBCHEM_ATOM_UDEF_STEREO_COUNT>
0

> <PUBCHEM_BOND_DEF_STEREO_COUNT>
0

> <PUBCHEM_BOND_UDEF_STEREO_COUNT>
0

> <PUBCHEM_ISOTOPIC_ATOM_COUNT>
0

> <PUBCHEM_COMPONENT_COUNT>
1

> <PUBCHEM_CACTVS_TAUTO_COUNT>
2

> <PUBCHEM_CONFORMER_ID>
0244468D00000001

> <PUBCHEM_MMFF94_ENERGY>
86.2802

> <PUBCHEM_FEATURE_SELFOVERLAP>
50.747

> <PUBCHEM_SHAPE_FINGERPRINT>
107951 10 17168420447047971077
10864689 126 18125159330099375054
11524674 6 18272642433638550735
12104220 1 17846782880446230832
12156800 1 17479681330977637807
12422481 6 18122090812390590187
12522641 33 18044079174184170061
12596602 18 16773505604013731328
12633257 1 18200050528209919400
12655364 131 17700126591532659486
13947947 63 17129310749174400896
14040222 220 16878809195465427514
14068700 675 17916297424058091983
14114206 34 16950829375700120660
14117953 113 18411417298276073213
14279260 333 17677041357671719186
14725015 67 18263076781673148871
14950920 106 17918278679339311872
15001296 14 18118394279402808586
15183329 4 15140678064703685088
15799311 1 18341346556404556940
16112460 7 18270129031830930344
16114785 44 17842283566938681457
17627616 140 18189324672038146298
18603816 31 17750494248807241570
20764821 26 18339376256672715644
20775530 9 17623018206401948879
21796203 349 17901145002544475752
229767 44 18271525394286877078
23559900 14 17603589668198825076
238918 7 18202285792816448678
3383291 50 18410288125683544631
338550 245 18334295383850933582
373842 8 18120081794008934218
484985 159 18188477060500542703
5085150 59 18338502054723906919
508706 21 18187375323953080274

> <PUBCHEM_SHAPE_MULTIPOLES>
641.59
14.35
4.44
2.4
27.69
3.02
-2.04
1.54
-2.35
-3.31
2.15
-3.03
-0.4
0.53

> <PUBCHEM_SHAPE_SELFOVERLAP>
1316.031

> <PUBCHEM_SHAPE_VOLUME>
366.8

> <PUBCHEM_COORDINATE_TYPE>
2
5
10

$$$$
