7155625
  -OEChem-12032416113D

 60 64  0     1  0  0  0  0  0999 V2000
   -1.3479   -0.7213    2.0785 O   0  0  0  0  0  0  0  0  0  0  0  0
    2.8465   -1.2302   -2.0647 O   0  0  0  0  0  0  0  0  0  0  0  0
   -4.8451   -0.7100   -1.2103 O   0  0  0  0  0  0  0  0  0  0  0  0
    4.9686    5.4510    0.8410 O   0  0  0  0  0  0  0  0  0  0  0  0
    2.5408   -2.7839   -0.3768 N   0  0  0  0  0  0  0  0  0  0  0  0
   -0.4354   -2.4377    0.7816 N   0  0  0  0  0  0  0  0  0  0  0  0
    3.6840   -0.7635    0.0479 N   0  0  0  0  0  0  0  0  0  0  0  0
   -3.0804    0.0609    0.0944 N   0  0  0  0  0  0  0  0  0  0  0  0
   -6.5939    3.6098    0.4924 N   0  0  0  0  0  0  0  0  0  0  0  0
    1.4842   -3.9193    1.5970 C   0  0  1  0  0  0  0  0  0  0  0  0
    0.5509   -4.2622   -0.6481 C   0  0  2  0  0  0  0  0  0  0  0  0
    0.8967   -4.9663    0.6610 C   0  0  0  0  0  0  0  0  0  0  0  0
    2.7507   -3.2819    0.9923 C   0  0  0  0  0  0  0  0  0  0  0  0
    0.4070   -2.8712    1.9033 C   0  0  0  0  0  0  0  0  0  0  0  0
    1.8391   -3.7061   -1.2785 C   0  0  0  0  0  0  0  0  0  0  0  0
   -0.4436   -3.1382   -0.4283 C   0  0  0  0  0  0  0  0  0  0  0  0
   -1.3067   -2.7977   -1.4002 C   0  0  0  0  0  0  0  0  0  0  0  0
   -1.3057   -1.3555    1.0233 C   0  0  0  0  0  0  0  0  0  0  0  0
    3.0103   -1.5516   -0.8850 C   0  0  0  0  0  0  0  0  0  0  0  0
   -2.2336   -0.9913   -0.0940 C   0  0  0  0  0  0  0  0  0  0  0  0
   -2.2172   -1.7011   -1.2272 C   0  0  0  0  0  0  0  0  0  0  0  0
    3.8321    0.6454    0.0328 C   0  0  0  0  0  0  0  0  0  0  0  0
   -4.3427    0.1391   -0.4782 C   0  0  0  0  0  0  0  0  0  0  0  0
    3.1889    1.3986   -0.9455 C   0  0  0  0  0  0  0  0  0  0  0  0
    4.6186    1.2685    0.9977 C   0  0  0  0  0  0  0  0  0  0  0  0
   -5.1300    1.3531   -0.1390 C   0  0  0  0  0  0  0  0  0  0  0  0
    3.3333    2.7859   -0.9588 C   0  0  0  0  0  0  0  0  0  0  0  0
    4.7630    2.6558    0.9844 C   0  0  0  0  0  0  0  0  0  0  0  0
    4.1203    3.4145    0.0061 C   0  0  0  0  0  0  0  0  0  0  0  0
   -6.5027    1.2845   -0.1629 C   0  0  0  0  0  0  0  0  0  0  0  0
   -4.4628    2.5092    0.1893 C   0  0  0  0  0  0  0  0  0  0  0  0
    4.2719    4.8609   -0.0087 C   0  0  0  0  0  0  0  0  0  0  0  0
   -7.1906    2.4428    0.1615 C   0  0  0  0  0  0  0  0  0  0  0  0
   -5.2420    3.6126    0.4979 C   0  0  0  0  0  0  0  0  0  0  0  0
    3.5734    5.6961   -1.0763 C   0  0  0  0  0  0  0  0  0  0  0  0
    1.7747   -4.3949    2.5421 H   0  0  0  0  0  0  0  0  0  0  0  0
    0.1227   -5.0057   -1.3331 H   0  0  0  0  0  0  0  0  0  0  0  0
    1.6191   -5.7727    0.4858 H   0  0  0  0  0  0  0  0  0  0  0  0
    0.0039   -5.4248    1.1043 H   0  0  0  0  0  0  0  0  0  0  0  0
    3.5473   -4.0329    0.9276 H   0  0  0  0  0  0  0  0  0  0  0  0
    3.0980   -2.5006    1.6699 H   0  0  0  0  0  0  0  0  0  0  0  0
   -0.2849   -3.2857    2.6493 H   0  0  0  0  0  0  0  0  0  0  0  0
    0.8547   -1.9840    2.3686 H   0  0  0  0  0  0  0  0  0  0  0  0
    1.6162   -3.2207   -2.2349 H   0  0  0  0  0  0  0  0  0  0  0  0
    2.5359   -4.5255   -1.4951 H   0  0  0  0  0  0  0  0  0  0  0  0
   -1.3234   -3.3176   -2.3524 H   0  0  0  0  0  0  0  0  0  0  0  0
   -2.8258   -1.4686   -2.0932 H   0  0  0  0  0  0  0  0  0  0  0  0
    4.1595   -1.2270    0.8144 H   0  0  0  0  0  0  0  0  0  0  0  0
   -2.8570    0.6757    0.8724 H   0  0  0  0  0  0  0  0  0  0  0  0
    2.5374    0.9726   -1.6983 H   0  0  0  0  0  0  0  0  0  0  0  0
    5.1240    0.6882    1.7653 H   0  0  0  0  0  0  0  0  0  0  0  0
    2.8102    3.3394   -1.7325 H   0  0  0  0  0  0  0  0  0  0  0  0
    5.3816    3.1224    1.7465 H   0  0  0  0  0  0  0  0  0  0  0  0
   -7.0448    0.3805   -0.4143 H   0  0  0  0  0  0  0  0  0  0  0  0
   -3.3841    2.6088    0.1925 H   0  0  0  0  0  0  0  0  0  0  0  0
   -8.2755    2.4619    0.1650 H   0  0  0  0  0  0  0  0  0  0  0  0
   -4.7837    4.5607    0.7596 H   0  0  0  0  0  0  0  0  0  0  0  0
    3.8136    6.7524   -0.9182 H   0  0  0  0  0  0  0  0  0  0  0  0
    3.9301    5.4144   -2.0703 H   0  0  0  0  0  0  0  0  0  0  0  0
    2.4893    5.5811   -0.9970 H   0  0  0  0  0  0  0  0  0  0  0  0
  1 18  2  0  0  0  0
  2 19  2  0  0  0  0
  3 23  2  0  0  0  0
  4 32  2  0  0  0  0
  5 13  1  0  0  0  0
  5 15  1  0  0  0  0
  5 19  1  0  0  0  0
  6 14  1  0  0  0  0
  6 16  1  0  0  0  0
  6 18  1  0  0  0  0
  7 19  1  0  0  0  0
  7 22  1  0  0  0  0
  7 48  1  0  0  0  0
  8 20  1  0  0  0  0
  8 23  1  0  0  0  0
  8 49  1  0  0  0  0
  9 33  2  0  0  0  0
  9 34  1  0  0  0  0
 10 12  1  0  0  0  0
 10 13  1  0  0  0  0
 10 14  1  0  0  0  0
 10 36  1  0  0  0  0
 11 12  1  0  0  0  0
 11 15  1  0  0  0  0
 11 16  1  0  0  0  0
 11 37  1  0  0  0  0
 12 38  1  0  0  0  0
 12 39  1  0  0  0  0
 13 40  1  0  0  0  0
 13 41  1  0  0  0  0
 14 42  1  0  0  0  0
 14 43  1  0  0  0  0
 15 44  1  0  0  0  0
 15 45  1  0  0  0  0
 16 17  2  0  0  0  0
 17 21  1  0  0  0  0
 17 46  1  0  0  0  0
 18 20  1  0  0  0  0
 20 21  2  0  0  0  0
 21 47  1  0  0  0  0
 22 24  2  0  0  0  0
 22 25  1  0  0  0  0
 23 26  1  0  0  0  0
 24 27  1  0  0  0  0
 24 50  1  0  0  0  0
 25 28  2  0  0  0  0
 25 51  1  0  0  0  0
 26 30  2  0  0  0  0
 26 31  1  0  0  0  0
 27 29  2  0  0  0  0
 27 52  1  0  0  0  0
 28 29  1  0  0  0  0
 28 53  1  0  0  0  0
 29 32  1  0  0  0  0
 30 33  1  0  0  0  0
 30 54  1  0  0  0  0
 31 34  2  0  0  0  0
 31 55  1  0  0  0  0
 32 35  1  0  0  0  0
 33 56  1  0  0  0  0
 34 57  1  0  0  0  0
 35 58  1  0  0  0  0
 35 59  1  0  0  0  0
 35 60  1  0  0  0  0
M  END
> <PUBCHEM_COMPOUND_CID>
7155625

> <PUBCHEM_CONFORMER_RMSD>
1

> <PUBCHEM_CONFORMER_DIVERSEORDER>
2
23
22
18
12
13
16
27
25
20
14
9
10
4
11
29
24
26
5
15
28
3
17
21
19
8
6
7
1

> <PUBCHEM_MMFF94_PARTIAL_CHARGES>
45
1 -0.57
11 0.14
13 0.3
14 0.3
15 0.3
16 -0.03
17 -0.15
18 0.62
19 0.69
2 -0.57
20 0.12
21 -0.15
22 0.12
23 0.54
24 -0.15
25 -0.15
26 0.09
27 -0.15
28 -0.15
29 0.09
3 -0.57
30 -0.15
31 -0.15
32 0.42
33 0.16
34 0.16
35 0.06
4 -0.57
46 0.15
47 0.15
48 0.37
49 0.37
5 -0.66
50 0.15
51 0.15
52 0.15
53 0.15
54 0.15
55 0.15
56 0.15
57 0.15
6 -0.47
7 -0.55
8 -0.54
9 -0.62

> <PUBCHEM_EFFECTIVE_ROTOR_COUNT>
8

> <PUBCHEM_PHARMACOPHORE_FEATURES>
12
1 1 acceptor
1 2 acceptor
1 3 acceptor
1 4 acceptor
1 7 donor
1 8 donor
1 9 acceptor
6 22 24 25 27 28 29 rings
6 5 10 11 12 13 15 rings
6 6 10 11 12 14 16 rings
6 6 16 17 18 20 21 rings
6 9 26 30 31 33 34 rings

> <PUBCHEM_HEAVY_ATOM_COUNT>
35

> <PUBCHEM_ATOM_DEF_STEREO_COUNT>
2

> <PUBCHEM_ATOM_UDEF_STEREO_COUNT>
0

> <PUBCHEM_BOND_DEF_STEREO_COUNT>
0

> <PUBCHEM_BOND_UDEF_STEREO_COUNT>
0

> <PUBCHEM_ISOTOPIC_ATOM_COUNT>
0

> <PUBCHEM_COMPONENT_COUNT>
1

> <PUBCHEM_CACTVS_TAUTO_COUNT>
18

> <PUBCHEM_CONFORMER_ID>
006D2FA900000002

> <PUBCHEM_MMFF94_ENERGY>
111.8544

> <PUBCHEM_FEATURE_SELFOVERLAP>
62.453

> <PUBCHEM_SHAPE_FINGERPRINT>
10439779 11 17976811309930810424
10673678 19 18343303626830167251
10675989 125 18412548682323993680
10917259 69 18266461096213733060
10937287 8 18338233881208281058
11059845 2 18051948593583949304
11479125 193 18340212989643870897
11761917 142 17549253088187531560
12107183 9 18190439736780984752
12788726 201 17688295107567714738
13761468 95 17548735175249807596
13944108 23 18119260462911763964
14251764 75 18411983597998179121
14790565 3 18411135870359340353
14849402 71 18335416821112974082
15001296 14 18339360760937489817
15326921 28 17694209372814806840
15400415 2 18339079414204026613
15439362 3 18412265077934384776
155225 5 17619066570197050556
16988056 13 18196661696492972630
16992779 147 18267038184454980313
19053607 189 18341885337950126688
20715895 44 18342172241759470858
21591340 35 18410580565453136612
22122407 14 18194131716116585673
23569914 2 17317284430118678101
24204213 92 17629497294082077814
376196 1 18341334491441093262
44280116 191 18338811026203579324
4487111 67 17546448242166401688
4760202 170 17758947131547669445
5047190 92 18338519759022686569
508180 173 18196957490864547150
5109719 28 18337685169783713521
550186 72 18050850219853363487
56633871 153 9078022685895522959
57091435 61 18410570669758465169
5776283 40 18337973220318268948
5951187 136 18272376330297155302
6036956 94 17542504285309281669
6086070 43 18191605050595978475
6176135 31 18410848867412378857
6201320 215 17185877741108451332
6609424 69 17478318739338291798
9849439 229 18336830908544737908

> <PUBCHEM_SHAPE_MULTIPOLES>
671.9
14.33
9.04
1.48
22.25
4.89
-0.11
25.08
-0.6
-10.04
-0.48
-0.7
-1.04
-0.97

> <PUBCHEM_SHAPE_SELFOVERLAP>
1475.671

> <PUBCHEM_SHAPE_VOLUME>
352.8

> <PUBCHEM_COORDINATE_TYPE>
2
5
10

$$$$
