45360662
  -OEChem-12032416373D

 64 67  0     1  0  0  0  0  0999 V2000
    9.2868   -0.5641   -0.3445 F   0  0  0  0  0  0  0  0  0  0  0  0
   -0.4078   -2.0537    2.6973 O   0  0  0  0  0  0  0  0  0  0  0  0
   -4.0720    3.2682   -0.3182 O   0  0  0  0  0  0  0  0  0  0  0  0
   -5.1684   -3.5145    0.1389 O   0  0  0  0  0  0  0  0  0  0  0  0
   -0.4596    1.0283    0.7424 N   0  0  1  0  0  0  0  0  0  0  0  0
   -1.0751    0.0369    3.2942 N   0  0  0  0  0  0  0  0  0  0  0  0
    3.0554    0.3907    0.1311 N   0  0  0  0  0  0  0  0  0  0  0  0
   -2.7402    2.0221   -1.7544 N   0  0  0  0  0  0  0  0  0  0  0  0
   -0.4422   -0.4277    0.9318 C   0  0  1  0  0  0  0  0  0  0  0  0
    1.6121    0.4266   -0.0412 C   0  0  1  0  0  0  0  0  0  0  0  0
   -1.4470    1.7281    1.5567 C   0  0  1  0  0  0  0  0  0  0  0  0
    0.9245   -0.8706    0.3860 C   0  0  0  0  0  0  0  0  0  0  0  0
    0.9256    1.4883    0.8071 C   0  0  0  0  0  0  0  0  0  0  0  0
   -1.2239    1.4502    3.0350 C   0  0  0  0  0  0  0  0  0  0  0  0
   -0.6157   -0.8792    2.3791 C   0  0  0  0  0  0  0  0  0  0  0  0
   -1.4856    3.2317    1.2805 C   0  0  0  0  0  0  0  0  0  0  0  0
   -1.6660    3.5144   -0.2047 C   0  0  0  0  0  0  0  0  0  0  0  0
    3.6950   -0.3328   -0.9606 C   0  0  0  0  0  0  0  0  0  0  0  0
   -2.9660    2.9432   -0.7419 C   0  0  0  0  0  0  0  0  0  0  0  0
    5.1861   -0.3947   -0.7962 C   0  0  0  0  0  0  0  0  0  0  0  0
    5.9895    0.6084   -1.3386 C   0  0  0  0  0  0  0  0  0  0  0  0
    5.7681   -1.4548   -0.1013 C   0  0  0  0  0  0  0  0  0  0  0  0
   -3.8180    1.3369   -2.4276 C   0  0  0  0  0  0  0  0  0  0  0  0
    7.3747    0.5512   -1.1864 C   0  0  0  0  0  0  0  0  0  0  0  0
    7.1534   -1.5121    0.0510 C   0  0  0  0  0  0  0  0  0  0  0  0
    7.9567   -0.5091   -0.4915 C   0  0  0  0  0  0  0  0  0  0  0  0
   -4.1766    0.0479   -1.7463 C   0  0  0  0  0  0  0  0  0  0  0  0
   -3.3521   -1.0685   -1.8864 C   0  0  0  0  0  0  0  0  0  0  0  0
   -5.3344   -0.0330   -0.9727 C   0  0  0  0  0  0  0  0  0  0  0  0
   -3.6855   -2.2657   -1.2531 C   0  0  0  0  0  0  0  0  0  0  0  0
   -5.6680   -1.2301   -0.3395 C   0  0  0  0  0  0  0  0  0  0  0  0
   -4.8436   -2.3465   -0.4797 C   0  0  0  0  0  0  0  0  0  0  0  0
   -4.2804   -4.6160   -0.0463 C   0  0  0  0  0  0  0  0  0  0  0  0
   -1.2535   -0.8832    0.3542 H   0  0  0  0  0  0  0  0  0  0  0  0
    1.3625    0.6371   -1.0924 H   0  0  0  0  0  0  0  0  0  0  0  0
   -2.4309    1.3136    1.2955 H   0  0  0  0  0  0  0  0  0  0  0  0
    0.8116   -1.5421   -0.4729 H   0  0  0  0  0  0  0  0  0  0  0  0
    1.5167   -1.3976    1.1442 H   0  0  0  0  0  0  0  0  0  0  0  0
    1.3154    1.4864    1.8323 H   0  0  0  0  0  0  0  0  0  0  0  0
    1.0745    2.4842    0.3793 H   0  0  0  0  0  0  0  0  0  0  0  0
   -0.3251    1.9452    3.4189 H   0  0  0  0  0  0  0  0  0  0  0  0
   -2.0737    1.8014    3.6303 H   0  0  0  0  0  0  0  0  0  0  0  0
   -2.3160    3.6780    1.8426 H   0  0  0  0  0  0  0  0  0  0  0  0
   -0.5715    3.7235    1.6347 H   0  0  0  0  0  0  0  0  0  0  0  0
   -1.2069   -0.2811    4.2495 H   0  0  0  0  0  0  0  0  0  0  0  0
    3.4132    1.3462    0.1475 H   0  0  0  0  0  0  0  0  0  0  0  0
   -1.7181    4.6000   -0.3561 H   0  0  0  0  0  0  0  0  0  0  0  0
   -0.8080    3.1766   -0.7935 H   0  0  0  0  0  0  0  0  0  0  0  0
    3.3081   -1.3579   -1.0244 H   0  0  0  0  0  0  0  0  0  0  0  0
    3.4642    0.1394   -1.9249 H   0  0  0  0  0  0  0  0  0  0  0  0
   -1.7899    1.7894   -2.0271 H   0  0  0  0  0  0  0  0  0  0  0  0
    5.5482    1.4407   -1.8806 H   0  0  0  0  0  0  0  0  0  0  0  0
    5.1532   -2.2416    0.3277 H   0  0  0  0  0  0  0  0  0  0  0  0
   -4.6874    2.0016   -2.4906 H   0  0  0  0  0  0  0  0  0  0  0  0
   -3.4936    1.1382   -3.4555 H   0  0  0  0  0  0  0  0  0  0  0  0
    8.0005    1.3322   -1.6081 H   0  0  0  0  0  0  0  0  0  0  0  0
    7.6069   -2.3371    0.5924 H   0  0  0  0  0  0  0  0  0  0  0  0
   -2.4464   -1.0156   -2.4851 H   0  0  0  0  0  0  0  0  0  0  0  0
   -5.9849    0.8293   -0.8532 H   0  0  0  0  0  0  0  0  0  0  0  0
   -3.0000   -3.0928   -1.4029 H   0  0  0  0  0  0  0  0  0  0  0  0
   -6.5708   -1.2869    0.2624 H   0  0  0  0  0  0  0  0  0  0  0  0
   -4.6922   -5.4610    0.5151 H   0  0  0  0  0  0  0  0  0  0  0  0
   -3.2891   -4.4079    0.3707 H   0  0  0  0  0  0  0  0  0  0  0  0
   -4.2330   -4.9226   -1.0967 H   0  0  0  0  0  0  0  0  0  0  0  0
  1 26  1  0  0  0  0
  2 15  2  0  0  0  0
  3 19  2  0  0  0  0
  4 32  1  0  0  0  0
  4 33  1  0  0  0  0
  5  9  1  0  0  0  0
  5 11  1  0  0  0  0
  5 13  1  0  0  0  0
  6 14  1  0  0  0  0
  6 15  1  0  0  0  0
  6 45  1  0  0  0  0
  7 10  1  0  0  0  0
  7 18  1  0  0  0  0
  7 46  1  0  0  0  0
  8 19  1  0  0  0  0
  8 23  1  0  0  0  0
  8 51  1  0  0  0  0
  9 12  1  0  0  0  0
  9 15  1  0  0  0  0
  9 34  1  0  0  0  0
 10 12  1  0  0  0  0
 10 13  1  0  0  0  0
 10 35  1  0  0  0  0
 11 14  1  0  0  0  0
 11 16  1  0  0  0  0
 11 36  1  0  0  0  0
 12 37  1  0  0  0  0
 12 38  1  0  0  0  0
 13 39  1  0  0  0  0
 13 40  1  0  0  0  0
 14 41  1  0  0  0  0
 14 42  1  0  0  0  0
 16 17  1  0  0  0  0
 16 43  1  0  0  0  0
 16 44  1  0  0  0  0
 17 19  1  0  0  0  0
 17 47  1  0  0  0  0
 17 48  1  0  0  0  0
 18 20  1  0  0  0  0
 18 49  1  0  0  0  0
 18 50  1  0  0  0  0
 20 21  2  0  0  0  0
 20 22  1  0  0  0  0
 21 24  1  0  0  0  0
 21 52  1  0  0  0  0
 22 25  2  0  0  0  0
 22 53  1  0  0  0  0
 23 27  1  0  0  0  0
 23 54  1  0  0  0  0
 23 55  1  0  0  0  0
 24 26  2  0  0  0  0
 24 56  1  0  0  0  0
 25 26  1  0  0  0  0
 25 57  1  0  0  0  0
 27 28  2  0  0  0  0
 27 29  1  0  0  0  0
 28 30  1  0  0  0  0
 28 58  1  0  0  0  0
 29 31  2  0  0  0  0
 29 59  1  0  0  0  0
 30 32  2  0  0  0  0
 30 60  1  0  0  0  0
 31 32  1  0  0  0  0
 31 61  1  0  0  0  0
 33 62  1  0  0  0  0
 33 63  1  0  0  0  0
 33 64  1  0  0  0  0
M  END
> <PUBCHEM_COMPOUND_CID>
45360662

> <PUBCHEM_CONFORMER_RMSD>
1

> <PUBCHEM_CONFORMER_DIVERSEORDER>
1
124
166
20
126
158
170
55
36
79
180
90
104
156
109
49
160
122
71
91
50
60
121
38
174
110
157
111
137
35
148
27
87
56
96
28
85
40
84
73
81
100
162
21
80
161
134
151
127
58
177
29
113
116
37
145
150
75
164
57
11
112
59
114
99
120
66
178
97
63
118
30
147
168
144
74
14
24
173
70
140
47
182
12
52
64
179
33
132
78
155
48
131
43
171
95
175
141
154
94
89
86
53
51
31
115
102
133
62
117
129
4
34
25
181
16
41
123
159
176
54
119
83
103
172
139
149
9
146
130
68
65
98
152
6
92
15
138
45
13
169
142
108
23
72
19
18
128
5
143
39
153
77
8
107
125
44
165
82
135
10
61
106
136
22
7
101
93
17
67
42
105
163
76
46
167
26
88
32
69
3
2

> <PUBCHEM_MMFF94_PARTIAL_CHARGES>
42
1 -0.19
10 0.27
11 0.27
13 0.27
14 0.3
15 0.57
17 0.06
18 0.41
19 0.57
2 -0.57
20 -0.14
21 -0.15
22 -0.15
23 0.44
24 -0.15
25 -0.15
26 0.19
27 -0.14
28 -0.15
29 -0.15
3 -0.57
30 -0.15
31 -0.15
32 0.08
33 0.28
4 -0.36
45 0.37
46 0.36
5 -0.81
51 0.37
52 0.15
53 0.15
56 0.15
57 0.15
58 0.15
59 0.15
6 -0.73
60 0.15
61 0.15
7 -0.9
8 -0.73
9 0.33

> <PUBCHEM_EFFECTIVE_ROTOR_COUNT>
11.2

> <PUBCHEM_PHARMACOPHORE_FEATURES>
12
1 2 acceptor
1 3 acceptor
1 4 acceptor
1 5 cation
1 6 donor
1 7 cation
1 7 donor
1 8 donor
5 5 9 10 12 13 rings
6 20 21 22 24 25 26 rings
6 27 28 29 30 31 32 rings
6 5 6 9 11 14 15 rings

> <PUBCHEM_HEAVY_ATOM_COUNT>
33

> <PUBCHEM_ATOM_DEF_STEREO_COUNT>
3

> <PUBCHEM_ATOM_UDEF_STEREO_COUNT>
0

> <PUBCHEM_BOND_DEF_STEREO_COUNT>
0

> <PUBCHEM_BOND_UDEF_STEREO_COUNT>
0

> <PUBCHEM_ISOTOPIC_ATOM_COUNT>
0

> <PUBCHEM_COMPONENT_COUNT>
1

> <PUBCHEM_CACTVS_TAUTO_COUNT>
6

> <PUBCHEM_CONFORMER_ID>
02B4261600000001

> <PUBCHEM_MMFF94_ENERGY>
78.1354

> <PUBCHEM_FEATURE_SELFOVERLAP>
61.085

> <PUBCHEM_SHAPE_FINGERPRINT>
105312 117 16009036025318406672
10554248 39 17168435862023239502
10577160 103 18189054368967600764
10577160 183 16226037882935093400
10674148 151 18202559562911655129
10764073 3 11021903130219636361
11488393 25 16914502679839106440
12373685 5 17821721712299532370
12422481 6 9943526340880527040
12988421 55 12108066605272385805
13941219 33 13614527337647355052
14932701 244 18410017619572786037
15183329 4 16732976540557482414
15338160 23 9511454520313802218
17686467 74 18060134371905999288
20505436 4 17314217857870678309
2838139 119 16515405136492459868
4015057 19 18187091676255986140
44426699 300 18119826934681073435
484985 159 15410603754128163005
4938544 92 8790879683751726076
5080951 261 18131073701417837210
6009941 240 17989212529970668691
6086070 43 15357980114126475084
6287921 2 17403444669668475599
70634741 139 18343862221591577508
77296 10 18268989796214196566

> <PUBCHEM_SHAPE_MULTIPOLES>
634.32
18.78
4.05
2.47
47.88
0.61
-1.74
11.15
10.33
-8.69
-0.33
-2.17
-0.6
0.12

> <PUBCHEM_SHAPE_SELFOVERLAP>
1346.341

> <PUBCHEM_SHAPE_VOLUME>
355.6

> <PUBCHEM_COORDINATE_TYPE>
2
5
10

$$$$
