11886262
  -OEChem-12032416373D

 62 67  0     1  0  0  0  0  0999 V2000
   -1.8627    0.6763    1.7085 O   0  0  0  0  0  0  0  0  0  0  0  0
   -1.9248    3.2358   -0.1181 O   0  0  0  0  0  0  0  0  0  0  0  0
    2.7151    0.6939    0.3788 O   0  0  0  0  0  0  0  0  0  0  0  0
   -6.5088    1.4337    0.9865 O   0  0  0  0  0  0  0  0  0  0  0  0
   -4.5070    0.6601    0.1038 N   0  0  0  0  0  0  0  0  0  0  0  0
    0.7509    1.4395   -0.7257 N   0  0  0  0  0  0  0  0  0  0  0  0
   -6.4435   -0.5297   -0.2510 N   0  0  0  0  0  0  0  0  0  0  0  0
    0.3428    1.6091   -1.9911 N   0  0  0  0  0  0  0  0  0  0  0  0
    2.4326    0.8334   -1.9534 N   0  0  0  0  0  0  0  0  0  0  0  0
    1.3756    1.2372   -2.7374 N   0  0  0  0  0  0  0  0  0  0  0  0
    7.9249   -1.2436    0.2209 N   0  0  0  0  0  0  0  0  0  0  0  0
    8.9849   -0.4212    0.2174 N   0  0  0  0  0  0  0  0  0  0  0  0
    9.6235   -2.6168    0.1548 N   0  0  0  0  0  0  0  0  0  0  0  0
   -2.4368    1.9003   -0.2491 C   0  0  1  0  0  0  0  0  0  0  0  0
   -1.4228    0.9562    0.3671 C   0  0  1  0  0  0  0  0  0  0  0  0
   -3.6742    1.7276    0.6028 C   0  0  2  0  0  0  0  0  0  0  0  0
   -0.1302    1.7492    0.4033 C   0  0  2  0  0  0  0  0  0  0  0  0
   -3.0878    1.3793    1.9582 C   0  0  0  0  0  0  0  0  0  0  0  0
   -0.6158    3.1931    0.4661 C   0  0  0  0  0  0  0  0  0  0  0  0
   -7.8520   -0.8459   -0.1669 C   0  0  0  0  0  0  0  0  0  0  0  0
   -8.3321   -1.5631   -1.4332 C   0  0  0  0  0  0  0  0  0  0  0  0
   -8.1576   -1.6705    1.0881 C   0  0  0  0  0  0  0  0  0  0  0  0
   -5.8793    0.5981    0.3392 C   0  0  0  0  0  0  0  0  0  0  0  0
   -7.8077   -2.9958   -1.5284 C   0  0  0  0  0  0  0  0  0  0  0  0
   -7.6333   -3.1031    0.9887 C   0  0  0  0  0  0  0  0  0  0  0  0
   -8.1335   -3.7993   -0.2731 C   0  0  0  0  0  0  0  0  0  0  0  0
    2.0244    0.9671   -0.7125 C   0  0  0  0  0  0  0  0  0  0  0  0
    4.0157    0.2104    0.3391 C   0  0  0  0  0  0  0  0  0  0  0  0
    4.2475   -1.1646    0.3025 C   0  0  0  0  0  0  0  0  0  0  0  0
    5.0905    1.0994    0.3360 C   0  0  0  0  0  0  0  0  0  0  0  0
    5.5543   -1.6506    0.2627 C   0  0  0  0  0  0  0  0  0  0  0  0
    6.3973    0.6133    0.2963 C   0  0  0  0  0  0  0  0  0  0  0  0
    6.6292   -0.7616    0.2595 C   0  0  0  0  0  0  0  0  0  0  0  0
    8.3129   -2.5466    0.1833 C   0  0  0  0  0  0  0  0  0  0  0  0
    9.9878   -1.3009    0.1766 C   0  0  0  0  0  0  0  0  0  0  0  0
   -2.6006    1.7164   -1.3158 H   0  0  0  0  0  0  0  0  0  0  0  0
   -1.3544   -0.0025   -0.1570 H   0  0  0  0  0  0  0  0  0  0  0  0
   -4.2762    2.6401    0.6711 H   0  0  0  0  0  0  0  0  0  0  0  0
    0.4546    1.5288    1.3042 H   0  0  0  0  0  0  0  0  0  0  0  0
   -2.8350    2.2849    2.5206 H   0  0  0  0  0  0  0  0  0  0  0  0
   -3.7410    0.7590    2.5794 H   0  0  0  0  0  0  0  0  0  0  0  0
   -0.7162    3.5224    1.5061 H   0  0  0  0  0  0  0  0  0  0  0  0
    0.0369    3.8995   -0.0557 H   0  0  0  0  0  0  0  0  0  0  0  0
   -4.0674   -0.1141   -0.3851 H   0  0  0  0  0  0  0  0  0  0  0  0
   -8.3931    0.1052   -0.0882 H   0  0  0  0  0  0  0  0  0  0  0  0
   -8.0267   -1.0044   -2.3260 H   0  0  0  0  0  0  0  0  0  0  0  0
   -9.4293   -1.5889   -1.4339 H   0  0  0  0  0  0  0  0  0  0  0  0
   -9.2447   -1.7038    1.2355 H   0  0  0  0  0  0  0  0  0  0  0  0
   -7.7328   -1.1901    1.9776 H   0  0  0  0  0  0  0  0  0  0  0  0
   -6.7234   -2.9901   -1.6896 H   0  0  0  0  0  0  0  0  0  0  0  0
   -8.2508   -3.4881   -2.4018 H   0  0  0  0  0  0  0  0  0  0  0  0
   -7.9500   -3.6709    1.8710 H   0  0  0  0  0  0  0  0  0  0  0  0
   -6.5366   -3.0969    0.9933 H   0  0  0  0  0  0  0  0  0  0  0  0
   -5.8202   -1.1925   -0.7012 H   0  0  0  0  0  0  0  0  0  0  0  0
   -9.2190   -3.9419   -0.2040 H   0  0  0  0  0  0  0  0  0  0  0  0
   -7.6853   -4.7966   -0.3468 H   0  0  0  0  0  0  0  0  0  0  0  0
    3.4138   -1.8617    0.3056 H   0  0  0  0  0  0  0  0  0  0  0  0
    4.9159    2.1715    0.3653 H   0  0  0  0  0  0  0  0  0  0  0  0
    5.6749   -2.7284    0.2355 H   0  0  0  0  0  0  0  0  0  0  0  0
    7.2065    1.3388    0.2955 H   0  0  0  0  0  0  0  0  0  0  0  0
    7.6565   -3.4052    0.1775 H   0  0  0  0  0  0  0  0  0  0  0  0
   11.0164   -0.9728    0.1628 H   0  0  0  0  0  0  0  0  0  0  0  0
  1 15  1  0  0  0  0
  1 18  1  0  0  0  0
  2 14  1  0  0  0  0
  2 19  1  0  0  0  0
  3 27  1  0  0  0  0
  3 28  1  0  0  0  0
  4 23  2  0  0  0  0
  5 16  1  0  0  0  0
  5 23  1  0  0  0  0
  5 44  1  0  0  0  0
  6  8  1  0  0  0  0
  6 17  1  0  0  0  0
  6 27  1  0  0  0  0
  7 20  1  0  0  0  0
  7 23  1  0  0  0  0
  7 54  1  0  0  0  0
  8 10  2  0  0  0  0
  9 10  1  0  0  0  0
  9 27  2  0  0  0  0
 11 12  1  0  0  0  0
 11 33  1  0  0  0  0
 11 34  1  0  0  0  0
 12 35  2  0  0  0  0
 13 34  2  0  0  0  0
 13 35  1  0  0  0  0
 14 15  1  0  0  0  0
 14 16  1  0  0  0  0
 14 36  1  0  0  0  0
 15 17  1  0  0  0  0
 15 37  1  0  0  0  0
 16 18  1  0  0  0  0
 16 38  1  0  0  0  0
 17 19  1  0  0  0  0
 17 39  1  0  0  0  0
 18 40  1  0  0  0  0
 18 41  1  0  0  0  0
 19 42  1  0  0  0  0
 19 43  1  0  0  0  0
 20 21  1  0  0  0  0
 20 22  1  0  0  0  0
 20 45  1  0  0  0  0
 21 24  1  0  0  0  0
 21 46  1  0  0  0  0
 21 47  1  0  0  0  0
 22 25  1  0  0  0  0
 22 48  1  0  0  0  0
 22 49  1  0  0  0  0
 24 26  1  0  0  0  0
 24 50  1  0  0  0  0
 24 51  1  0  0  0  0
 25 26  1  0  0  0  0
 25 52  1  0  0  0  0
 25 53  1  0  0  0  0
 26 55  1  0  0  0  0
 26 56  1  0  0  0  0
 28 29  2  0  0  0  0
 28 30  1  0  0  0  0
 29 31  1  0  0  0  0
 29 57  1  0  0  0  0
 30 32  2  0  0  0  0
 30 58  1  0  0  0  0
 31 33  2  0  0  0  0
 31 59  1  0  0  0  0
 32 33  1  0  0  0  0
 32 60  1  0  0  0  0
 34 61  1  0  0  0  0
 35 62  1  0  0  0  0
M  END
> <PUBCHEM_COMPOUND_CID>
11886262

> <PUBCHEM_CONFORMER_RMSD>
1.2

> <PUBCHEM_CONFORMER_DIVERSEORDER>
1
125
149
24
138
33
86
88
32
39
97
28
41
49
85
8
94
151
61
42
115
70
134
10
9
116
71
117
55
118
40
38
122
25
109
96
119
56
67
27
84
126
74
142
98
7
81
53
87
35
26
114
23
132
110
18
80
69
58
76
100
101
136
22
103
147
29
128
6
156
17
112
68
43
73
104
52
63
106
16
131
46
59
44
37
143
95
92
121
5
30
99
79
3
91
54
14
82
129
133
130
50
4
72
48
127
47
12
34
31
111
150
75
60
66
89
154
157
57
2
124
62
141
78
140
13
105
137
135
107
64
146
15
11
155
139
36
90
120
153
145
123
144
77
65
152
21
148
108
51
20
83
19
93
113
102
45

> <PUBCHEM_MMFF94_PARTIAL_CHARGES>
37
1 -0.56
11 0.59
12 -0.71
13 -0.57
14 0.28
15 0.28
16 0.3
17 0.26
18 0.28
19 0.28
2 -0.56
20 0.3
23 0.69
27 0.25
28 0.08
29 -0.15
3 -0.15
30 -0.15
31 -0.15
32 -0.15
33 -0.02
34 0.04
35 0.37
4 -0.57
44 0.37
5 -0.73
54 0.37
57 0.15
58 0.15
59 0.15
6 0.31
60 0.15
61 0.15
62 0.15
7 -0.73
8 -0.42
9 -0.34

> <PUBCHEM_EFFECTIVE_ROTOR_COUNT>
10.4

> <PUBCHEM_PHARMACOPHORE_FEATURES>
14
1 1 acceptor
1 2 acceptor
1 4 acceptor
1 5 donor
1 7 donor
3 11 13 34 cation
3 12 13 35 cation
3 6 9 27 cation
5 1 14 15 16 18 rings
5 11 12 13 34 35 rings
5 2 14 15 17 19 rings
5 6 8 9 10 27 rings
6 20 21 22 24 25 26 rings
6 28 29 30 31 32 33 rings

> <PUBCHEM_HEAVY_ATOM_COUNT>
35

> <PUBCHEM_ATOM_DEF_STEREO_COUNT>
4

> <PUBCHEM_ATOM_UDEF_STEREO_COUNT>
0

> <PUBCHEM_BOND_DEF_STEREO_COUNT>
0

> <PUBCHEM_BOND_UDEF_STEREO_COUNT>
0

> <PUBCHEM_ISOTOPIC_ATOM_COUNT>
0

> <PUBCHEM_COMPONENT_COUNT>
1

> <PUBCHEM_CACTVS_TAUTO_COUNT>
3

> <PUBCHEM_CONFORMER_ID>
00B55EB600000001

> <PUBCHEM_MMFF94_ENERGY>
70.9012

> <PUBCHEM_FEATURE_SELFOVERLAP>
74.54

> <PUBCHEM_SHAPE_FINGERPRINT>
10100884 174 18410009961536334442
10190206 1 13912315755831655365
10258705 36 17986120600327199654
10674148 151 8358251532583597254
10883706 17 18188213229639990883
11135609 99 18411982502533534007
11374522 79 18263651813797011163
11386260 185 16371010758051180980
11456790 92 16200431368998487346
11497681 19 18334854975023851810
11828042 75 18114753745366192219
12013929 27 17823981337370012095
12013929 94 18342459232323411498
12838862 33 16081366376282742392
13383668 90 17822004299583114847
14068700 675 18333735701724701996
14202775 3 18200597987430237950
14415361 349 17894634729956638026
14671636 106 18411981369236985738
14918687 75 18410012144360148878
15183329 4 15574710292489814221
15198563 99 16009025034634085372
15347590 135 15985111799281369139
15461852 350 18334297539613318308
16728433 281 12541237950246131079
16992727 255 8286199461351288015
16994733 274 9655575205905475807
19303781 99 18129093597958636559
20105231 36 18130511822177778462
2026 5 18409448116291484147
20721686 146 8358274635497681963
212700 22 18335133215336937635
21987483 16 18128533967012621361
23528940 14 18338510847445797074
23576562 1 14997145707583904351
2835820 83 18339641265663697807
3178227 256 15626220221991333328
3711267 37 10231755625646828683
3986486 107 13912319092662963367
406291 66 18410854391235745219
4173938 188 18272926142589456426
4339292 15 17604142641812720234
437795 150 17168714158555730003
44389302 135 18269834217187556066
44802255 64 13407080297513775737
4760202 70 18261119599799818124
5385378 56 14620513369000261572
54039377 194 18335701658980311175
5718773 13 18411136957191762121
57303763 176 8934735396580787550
57303763 39 18272932769998339190
5937810 71 11097849680153317615
636775 72 9295287244849537667
6691757 9 15267049351284189205
6698420 124 12031775973435213660
9511036 111 18412826915085607739
9962374 69 18333169484054840712
9980921 7 10807940341709965427

> <PUBCHEM_SHAPE_MULTIPOLES>
651.98
34.38
3.71
1.45
18.8
1.51
0.67
41.67
-2.41
-5.13
0
-1.6
-0.34
-2.02

> <PUBCHEM_SHAPE_SELFOVERLAP>
1417.517

> <PUBCHEM_SHAPE_VOLUME>
355.3

> <PUBCHEM_COORDINATE_TYPE>
2
5
10

$$$$
