38029318
  -OEChem-12032416143D

 68 70  0     1  0  0  0  0  0999 V2000
   -3.5422    2.2558    1.4641 S   0  0  0  0  0  0  0  0  0  0  0  0
    0.8622   -3.7045   -0.4394 O   0  0  0  0  0  0  0  0  0  0  0  0
   -3.5357    2.2030    2.9136 O   0  0  0  0  0  0  0  0  0  0  0  0
   -4.4326    3.1675    0.7714 O   0  0  0  0  0  0  0  0  0  0  0  0
   -3.7615    0.6836    0.8455 N   0  0  0  0  0  0  0  0  0  0  0  0
    1.3712   -2.7578    1.6211 N   0  0  0  0  0  0  0  0  0  0  0  0
    3.0958    3.7625   -0.7148 N   0  0  0  0  0  0  0  0  0  0  0  0
    6.5858    1.8966   -1.2097 N   0  0  0  0  0  0  0  0  0  0  0  0
   -2.2254   -0.6830   -1.3345 C   0  0  1  0  0  0  0  0  0  0  0  0
   -3.7520   -0.8017   -1.0994 C   0  0  1  0  0  0  0  0  0  0  0  0
   -1.6019   -2.0746   -1.5212 C   0  0  0  0  0  0  0  0  0  0  0  0
   -1.8387   -2.9873   -0.3032 C   0  0  2  0  0  0  0  0  0  0  0  0
   -1.9032    0.1965   -2.5466 C   0  0  0  0  0  0  0  0  0  0  0  0
   -3.2817   -2.9487    0.1573 C   0  0  0  0  0  0  0  0  0  0  0  0
   -4.1255   -1.9716   -0.2196 C   0  0  0  0  0  0  0  0  0  0  0  0
   -4.3216    0.4896   -0.5011 C   0  0  0  0  0  0  0  0  0  0  0  0
   -0.8867   -2.6343    0.8449 C   0  0  0  0  0  0  0  0  0  0  0  0
   -0.3953    0.3794   -2.6857 C   0  0  0  0  0  0  0  0  0  0  0  0
   -2.4940   -0.4094   -3.8156 C   0  0  0  0  0  0  0  0  0  0  0  0
   -3.7461   -4.0850    1.0253 C   0  0  0  0  0  0  0  0  0  0  0  0
    0.5262   -3.1009    0.5759 C   0  0  0  0  0  0  0  0  0  0  0  0
   -1.9005    2.6286    0.9252 C   0  0  0  0  0  0  0  0  0  0  0  0
    2.7797   -3.0794    1.6352 C   0  0  0  0  0  0  0  0  0  0  0  0
   -1.6942    3.2403   -0.3114 C   0  0  0  0  0  0  0  0  0  0  0  0
   -0.8113    2.3113    1.7367 C   0  0  0  0  0  0  0  0  0  0  0  0
    3.6103   -1.9936    1.0144 C   0  0  0  0  0  0  0  0  0  0  0  0
   -0.3988    3.5345   -0.7364 C   0  0  0  0  0  0  0  0  0  0  0  0
    0.4842    2.6056    1.3116 C   0  0  0  0  0  0  0  0  0  0  0  0
    0.6905    3.2173    0.0752 C   0  0  0  0  0  0  0  0  0  0  0  0
    4.4076   -2.2737   -0.0954 C   0  0  0  0  0  0  0  0  0  0  0  0
    3.5847   -0.7049    1.5476 C   0  0  0  0  0  0  0  0  0  0  0  0
    5.1792   -1.2649   -0.6720 C   0  0  0  0  0  0  0  0  0  0  0  0
    4.3564    0.3038    0.9708 C   0  0  0  0  0  0  0  0  0  0  0  0
    5.1535    0.0239   -0.1390 C   0  0  0  0  0  0  0  0  0  0  0  0
    2.0179    3.5182   -0.3608 C   0  0  0  0  0  0  0  0  0  0  0  0
    5.9439    1.0572   -0.7299 C   0  0  0  0  0  0  0  0  0  0  0  0
   -1.7567   -0.2208   -0.4580 H   0  0  0  0  0  0  0  0  0  0  0  0
   -4.2847   -0.9865   -2.0356 H   0  0  0  0  0  0  0  0  0  0  0  0
   -0.5305   -2.0143   -1.7261 H   0  0  0  0  0  0  0  0  0  0  0  0
   -2.0529   -2.5845   -2.3809 H   0  0  0  0  0  0  0  0  0  0  0  0
   -1.6325   -4.0144   -0.6357 H   0  0  0  0  0  0  0  0  0  0  0  0
   -2.3391    1.1909   -2.4079 H   0  0  0  0  0  0  0  0  0  0  0  0
   -5.1635   -2.0199    0.1043 H   0  0  0  0  0  0  0  0  0  0  0  0
   -5.4120    0.4178   -0.4089 H   0  0  0  0  0  0  0  0  0  0  0  0
   -4.1068    1.3452   -1.1460 H   0  0  0  0  0  0  0  0  0  0  0  0
   -1.2002   -3.1256    1.7742 H   0  0  0  0  0  0  0  0  0  0  0  0
   -0.8724   -1.5574    1.0465 H   0  0  0  0  0  0  0  0  0  0  0  0
    0.1012   -0.5019   -3.1038 H   0  0  0  0  0  0  0  0  0  0  0  0
    0.0745    0.6189   -1.7268 H   0  0  0  0  0  0  0  0  0  0  0  0
   -0.1836    1.2085   -3.3708 H   0  0  0  0  0  0  0  0  0  0  0  0
   -2.0869   -1.3919   -4.0668 H   0  0  0  0  0  0  0  0  0  0  0  0
   -2.2415    0.2388   -4.6651 H   0  0  0  0  0  0  0  0  0  0  0  0
   -3.5840   -0.4641   -3.8125 H   0  0  0  0  0  0  0  0  0  0  0  0
   -3.5489   -5.0435    0.5343 H   0  0  0  0  0  0  0  0  0  0  0  0
   -4.8220   -4.0358    1.2253 H   0  0  0  0  0  0  0  0  0  0  0  0
   -3.2338   -4.0764    1.9914 H   0  0  0  0  0  0  0  0  0  0  0  0
   -3.8990   -0.0795    1.5190 H   0  0  0  0  0  0  0  0  0  0  0  0
    0.9964   -2.2448    2.4141 H   0  0  0  0  0  0  0  0  0  0  0  0
    2.9280   -4.0353    1.1199 H   0  0  0  0  0  0  0  0  0  0  0  0
    3.0794   -3.2192    2.6798 H   0  0  0  0  0  0  0  0  0  0  0  0
   -2.5268    3.4912   -0.9623 H   0  0  0  0  0  0  0  0  0  0  0  0
   -0.9496    1.8276    2.6995 H   0  0  0  0  0  0  0  0  0  0  0  0
   -0.2538    4.0087   -1.7042 H   0  0  0  0  0  0  0  0  0  0  0  0
    1.3235    2.3492    1.9538 H   0  0  0  0  0  0  0  0  0  0  0  0
    4.4369   -3.2727   -0.5221 H   0  0  0  0  0  0  0  0  0  0  0  0
    2.9709   -0.4731    2.4140 H   0  0  0  0  0  0  0  0  0  0  0  0
    5.7954   -1.4985   -1.5371 H   0  0  0  0  0  0  0  0  0  0  0  0
    4.3258    1.3033    1.3981 H   0  0  0  0  0  0  0  0  0  0  0  0
  1  3  2  0  0  0  0
  1  4  2  0  0  0  0
  1  5  1  0  0  0  0
  1 22  1  0  0  0  0
  2 21  2  0  0  0  0
  5 16  1  0  0  0  0
  5 57  1  0  0  0  0
  6 21  1  0  0  0  0
  6 23  1  0  0  0  0
  6 58  1  0  0  0  0
  7 35  3  0  0  0  0
  8 36  3  0  0  0  0
  9 10  1  0  0  0  0
  9 11  1  0  0  0  0
  9 13  1  0  0  0  0
  9 37  1  0  0  0  0
 10 15  1  0  0  0  0
 10 16  1  0  0  0  0
 10 38  1  0  0  0  0
 11 12  1  0  0  0  0
 11 39  1  0  0  0  0
 11 40  1  0  0  0  0
 12 14  1  0  0  0  0
 12 17  1  0  0  0  0
 12 41  1  0  0  0  0
 13 18  1  0  0  0  0
 13 19  1  0  0  0  0
 13 42  1  0  0  0  0
 14 15  2  0  0  0  0
 14 20  1  0  0  0  0
 15 43  1  0  0  0  0
 16 44  1  0  0  0  0
 16 45  1  0  0  0  0
 17 21  1  0  0  0  0
 17 46  1  0  0  0  0
 17 47  1  0  0  0  0
 18 48  1  0  0  0  0
 18 49  1  0  0  0  0
 18 50  1  0  0  0  0
 19 51  1  0  0  0  0
 19 52  1  0  0  0  0
 19 53  1  0  0  0  0
 20 54  1  0  0  0  0
 20 55  1  0  0  0  0
 20 56  1  0  0  0  0
 22 24  2  0  0  0  0
 22 25  1  0  0  0  0
 23 26  1  0  0  0  0
 23 59  1  0  0  0  0
 23 60  1  0  0  0  0
 24 27  1  0  0  0  0
 24 61  1  0  0  0  0
 25 28  2  0  0  0  0
 25 62  1  0  0  0  0
 26 30  2  0  0  0  0
 26 31  1  0  0  0  0
 27 29  2  0  0  0  0
 27 63  1  0  0  0  0
 28 29  1  0  0  0  0
 28 64  1  0  0  0  0
 29 35  1  0  0  0  0
 30 32  1  0  0  0  0
 30 65  1  0  0  0  0
 31 33  2  0  0  0  0
 31 66  1  0  0  0  0
 32 34  2  0  0  0  0
 32 67  1  0  0  0  0
 33 34  1  0  0  0  0
 33 68  1  0  0  0  0
 34 36  1  0  0  0  0
M  END
> <PUBCHEM_COMPOUND_CID>
38029318

> <PUBCHEM_CONFORMER_RMSD>
1.4

> <PUBCHEM_CONFORMER_DIVERSEORDER>
2
34
100
24
120
122
65
137
63
97
105
44
129
90
91
41
113
147
77
140
88
101
42
136
15
123
74
56
144
50
78
86
135
106
70
128
43
119
84
53
108
8
73
95
30
130
17
37
81
92
89
31
5
107
60
117
133
32
116
134
6
46
66
25
141
76
138
72
114
79
14
9
110
102
68
71
57
131
61
126
19
85
64
13
83
67
115
94
109
38
20
16
98
103
111
11
99
29
145
139
51
118
27
124
146
28
121
33
45
93
12
39
142
36
82
18
132
104
26
49
62
75
1
58
80
55
21
87
54
35
127
59
40
48
10
22
143
96
7
112
69
52
47
23
4
125
3

> <PUBCHEM_MMFF94_PARTIAL_CHARGES>
42
1 1.45
10 0.14
12 0.14
14 -0.28
15 -0.29
16 0.36
17 0.06
2 -0.57
20 0.14
21 0.57
22 -0.01
23 0.44
24 -0.15
25 -0.15
26 -0.14
27 -0.15
28 -0.15
29 0.07
3 -0.65
30 -0.15
31 -0.15
32 -0.15
33 -0.15
34 0.07
35 0.48
36 0.48
4 -0.65
43 0.15
5 -0.91
57 0.42
58 0.37
6 -0.73
61 0.15
62 0.15
63 0.15
64 0.15
65 0.15
66 0.15
67 0.15
68 0.15
7 -0.56
8 -0.56

> <PUBCHEM_EFFECTIVE_ROTOR_COUNT>
10.8

> <PUBCHEM_PHARMACOPHORE_FEATURES>
11
1 2 acceptor
1 3 acceptor
1 4 acceptor
1 5 donor
1 6 donor
1 7 acceptor
1 8 acceptor
3 13 18 19 hydrophobe
6 22 24 25 27 28 29 rings
6 26 30 31 32 33 34 rings
6 9 10 11 12 14 15 rings

> <PUBCHEM_HEAVY_ATOM_COUNT>
36

> <PUBCHEM_ATOM_DEF_STEREO_COUNT>
3

> <PUBCHEM_ATOM_UDEF_STEREO_COUNT>
0

> <PUBCHEM_BOND_DEF_STEREO_COUNT>
0

> <PUBCHEM_BOND_UDEF_STEREO_COUNT>
0

> <PUBCHEM_ISOTOPIC_ATOM_COUNT>
0

> <PUBCHEM_COMPONENT_COUNT>
1

> <PUBCHEM_CACTVS_TAUTO_COUNT>
2

> <PUBCHEM_CONFORMER_ID>
0244480600000002

> <PUBCHEM_MMFF94_ENERGY>
59.9837

> <PUBCHEM_FEATURE_SELFOVERLAP>
55.841

> <PUBCHEM_SHAPE_FINGERPRINT>
10190206 1 18190478215619862292
10305334 12 18341345430400750469
10670039 82 18341890737093009642
11136256 1 17763171450214090646
12156800 1 17910154361898234175
12788726 201 18343297055313738088
13615921 28 18271516619662702077
13761468 95 18118397350679478726
14040221 10 17981926125957922691
14279260 333 18125152729152489382
14395042 70 15550258081933010713
14840074 17 18267031548450861369
15001296 14 18335698398910313856
15297060 5 17988929912184823218
15351339 4 18120650494632888832
15406563 228 17825677909560603028
15968369 153 17916292999735310216
15975801 100 17612053486024494126
16067690 210 18201168671928078276
20764821 26 18120360219347056154
463206 1 18410015399317891352
469060 322 17530686510947607550
50150288 127 17845948341876771040

> <PUBCHEM_SHAPE_MULTIPOLES>
707.18
11.08
6.23
2.45
14.38
0.6
-1.41
-0.41
-0.58
-1.63
2.01
-1.94
0.36
-2.5

> <PUBCHEM_SHAPE_SELFOVERLAP>
1471.92

> <PUBCHEM_SHAPE_VOLUME>
401.4

> <PUBCHEM_COORDINATE_TYPE>
2
5
10

$$$$
