11885265
  -OEChem-12032416233D

 60 64  0     1  0  0  0  0  0999 V2000
   -8.8730    0.7525    0.7781 Cl  0  0  0  0  0  0  0  0  0  0  0  0
    3.6696    1.1203    2.2007 O   0  0  0  0  0  0  0  0  0  0  0  0
   -0.4427   -2.2648    1.6668 O   0  0  0  0  0  0  0  0  0  0  0  0
    3.9516   -0.2377    0.3365 N   0  0  0  0  0  0  0  0  0  0  0  0
    1.3111   -2.0331    0.1488 N   0  0  0  0  0  0  0  0  0  0  0  0
    3.7185   -2.6950    0.7191 C   0  0  1  0  0  0  0  0  0  0  0  0
    3.2024   -1.7511   -1.4915 C   0  0  2  0  0  0  0  0  0  0  0  0
    3.8602   -2.9311   -0.7795 C   0  0  0  0  0  0  0  0  0  0  0  0
    4.4098   -1.3822    1.1263 C   0  0  0  0  0  0  0  0  0  0  0  0
    3.9361   -0.4479   -1.1188 C   0  0  0  0  0  0  0  0  0  0  0  0
    2.2291   -2.6984    1.0836 C   0  0  0  0  0  0  0  0  0  0  0  0
    1.7351   -1.6395   -1.1225 C   0  0  0  0  0  0  0  0  0  0  0  0
    3.2771    2.1200    0.0966 C   0  0  0  0  0  0  0  0  0  0  0  0
    3.6507    0.9646    0.9769 C   0  0  0  0  0  0  0  0  0  0  0  0
    1.7701    2.1071   -0.1692 C   0  0  0  0  0  0  0  0  0  0  0  0
    3.7202    3.4339    0.7441 C   0  0  0  0  0  0  0  0  0  0  0  0
    0.8519   -1.1398   -2.0012 C   0  0  0  0  0  0  0  0  0  0  0  0
    1.3309    3.3200   -0.9851 C   0  0  0  0  0  0  0  0  0  0  0  0
    3.2762    4.6438   -0.0737 C   0  0  0  0  0  0  0  0  0  0  0  0
   -0.0316   -1.9096    0.5605 C   0  0  0  0  0  0  0  0  0  0  0  0
    1.7730    4.6269   -0.3335 C   0  0  0  0  0  0  0  0  0  0  0  0
   -0.9926   -1.3191   -0.4363 C   0  0  0  0  0  0  0  0  0  0  0  0
   -0.5293   -0.9781   -1.6468 C   0  0  0  0  0  0  0  0  0  0  0  0
   -2.3784   -1.1424   -0.0822 C   0  0  0  0  0  0  0  0  0  0  0  0
   -3.1393   -0.1642   -0.5887 C   0  0  0  0  0  0  0  0  0  0  0  0
   -4.5554    0.0622   -0.2506 C   0  0  0  0  0  0  0  0  0  0  0  0
   -5.2952   -0.9714    0.3005 C   0  0  0  0  0  0  0  0  0  0  0  0
   -5.1202    1.3045   -0.4910 C   0  0  0  0  0  0  0  0  0  0  0  0
   -6.6361   -0.7571    0.6198 C   0  0  0  0  0  0  0  0  0  0  0  0
   -6.4610    1.5188   -0.1716 C   0  0  0  0  0  0  0  0  0  0  0  0
   -7.2189    0.4879    0.3838 C   0  0  0  0  0  0  0  0  0  0  0  0
    4.2077   -3.5097    1.2672 H   0  0  0  0  0  0  0  0  0  0  0  0
    3.3012   -1.9072   -2.5737 H   0  0  0  0  0  0  0  0  0  0  0  0
    4.9186   -3.0059   -1.0575 H   0  0  0  0  0  0  0  0  0  0  0  0
    3.3839   -3.8761   -1.0691 H   0  0  0  0  0  0  0  0  0  0  0  0
    5.4907   -1.4654    0.9580 H   0  0  0  0  0  0  0  0  0  0  0  0
    4.2678   -1.1965    2.1962 H   0  0  0  0  0  0  0  0  0  0  0  0
    4.9834   -0.4989   -1.4414 H   0  0  0  0  0  0  0  0  0  0  0  0
    3.4754    0.3737   -1.6666 H   0  0  0  0  0  0  0  0  0  0  0  0
    1.8854   -3.7403    1.1426 H   0  0  0  0  0  0  0  0  0  0  0  0
    2.0774   -2.2744    2.0843 H   0  0  0  0  0  0  0  0  0  0  0  0
    3.8271    2.0809   -0.8477 H   0  0  0  0  0  0  0  0  0  0  0  0
    1.2231    2.0941    0.7829 H   0  0  0  0  0  0  0  0  0  0  0  0
    1.4773    1.2008   -0.6987 H   0  0  0  0  0  0  0  0  0  0  0  0
    4.8111    3.4491    0.8598 H   0  0  0  0  0  0  0  0  0  0  0  0
    3.3004    3.5286    1.7543 H   0  0  0  0  0  0  0  0  0  0  0  0
    1.1560   -0.8180   -2.9917 H   0  0  0  0  0  0  0  0  0  0  0  0
    0.2407    3.3137   -1.0962 H   0  0  0  0  0  0  0  0  0  0  0  0
    1.7552    3.2528   -1.9945 H   0  0  0  0  0  0  0  0  0  0  0  0
    3.8120    4.6536   -1.0309 H   0  0  0  0  0  0  0  0  0  0  0  0
    3.5488    5.5651    0.4534 H   0  0  0  0  0  0  0  0  0  0  0  0
    1.5003    5.4707   -0.9772 H   0  0  0  0  0  0  0  0  0  0  0  0
    1.2373    4.7613    0.6143 H   0  0  0  0  0  0  0  0  0  0  0  0
   -1.1630   -0.5718   -2.4289 H   0  0  0  0  0  0  0  0  0  0  0  0
   -2.7647   -1.8483    0.6458 H   0  0  0  0  0  0  0  0  0  0  0  0
   -2.7228    0.5644   -1.2807 H   0  0  0  0  0  0  0  0  0  0  0  0
   -4.8913   -1.9625    0.4805 H   0  0  0  0  0  0  0  0  0  0  0  0
   -4.5428    2.1182   -0.9218 H   0  0  0  0  0  0  0  0  0  0  0  0
   -7.2165   -1.5707    1.0474 H   0  0  0  0  0  0  0  0  0  0  0  0
   -6.9018    2.4942   -0.3607 H   0  0  0  0  0  0  0  0  0  0  0  0
  1 31  1  0  0  0  0
  2 14  2  0  0  0  0
  3 20  2  0  0  0  0
  4  9  1  0  0  0  0
  4 10  1  0  0  0  0
  4 14  1  0  0  0  0
  5 11  1  0  0  0  0
  5 12  1  0  0  0  0
  5 20  1  0  0  0  0
  6  8  1  0  0  0  0
  6  9  1  0  0  0  0
  6 11  1  0  0  0  0
  6 32  1  0  0  0  0
  7  8  1  0  0  0  0
  7 10  1  0  0  0  0
  7 12  1  0  0  0  0
  7 33  1  0  0  0  0
  8 34  1  0  0  0  0
  8 35  1  0  0  0  0
  9 36  1  0  0  0  0
  9 37  1  0  0  0  0
 10 38  1  0  0  0  0
 10 39  1  0  0  0  0
 11 40  1  0  0  0  0
 11 41  1  0  0  0  0
 12 17  2  0  0  0  0
 13 14  1  0  0  0  0
 13 15  1  0  0  0  0
 13 16  1  0  0  0  0
 13 42  1  0  0  0  0
 15 18  1  0  0  0  0
 15 43  1  0  0  0  0
 15 44  1  0  0  0  0
 16 19  1  0  0  0  0
 16 45  1  0  0  0  0
 16 46  1  0  0  0  0
 17 23  1  0  0  0  0
 17 47  1  0  0  0  0
 18 21  1  0  0  0  0
 18 48  1  0  0  0  0
 18 49  1  0  0  0  0
 19 21  1  0  0  0  0
 19 50  1  0  0  0  0
 19 51  1  0  0  0  0
 20 22  1  0  0  0  0
 21 52  1  0  0  0  0
 21 53  1  0  0  0  0
 22 23  2  0  0  0  0
 22 24  1  0  0  0  0
 23 54  1  0  0  0  0
 24 25  2  0  0  0  0
 24 55  1  0  0  0  0
 25 26  1  0  0  0  0
 25 56  1  0  0  0  0
 26 27  2  0  0  0  0
 26 28  1  0  0  0  0
 27 29  1  0  0  0  0
 27 57  1  0  0  0  0
 28 30  2  0  0  0  0
 28 58  1  0  0  0  0
 29 31  2  0  0  0  0
 29 59  1  0  0  0  0
 30 31  1  0  0  0  0
 30 60  1  0  0  0  0
M  END
> <PUBCHEM_COMPOUND_CID>
11885265

> <PUBCHEM_CONFORMER_RMSD>
0.8

> <PUBCHEM_CONFORMER_DIVERSEORDER>
1
10
14
4
16
11
15
7
3
12
8
13
5
9
6
2

> <PUBCHEM_MMFF94_PARTIAL_CHARGES>
32
1 -0.18
10 0.3
11 0.3
12 -0.03
13 0.06
14 0.57
17 -0.15
2 -0.57
20 0.62
22 0.01
23 -0.15
24 -0.15
25 -0.18
26 0.03
27 -0.15
28 -0.15
29 -0.15
3 -0.57
30 -0.15
31 0.18
4 -0.66
47 0.15
5 -0.47
54 0.15
55 0.15
56 0.15
57 0.15
58 0.15
59 0.15
60 0.15
7 0.14
9 0.3

> <PUBCHEM_EFFECTIVE_ROTOR_COUNT>
6.2

> <PUBCHEM_PHARMACOPHORE_FEATURES>
7
1 2 acceptor
1 3 acceptor
6 13 15 16 18 19 21 rings
6 26 27 28 29 30 31 rings
6 4 6 7 8 9 10 rings
6 5 12 17 20 22 23 rings
6 5 6 7 8 11 12 rings

> <PUBCHEM_HEAVY_ATOM_COUNT>
31

> <PUBCHEM_ATOM_DEF_STEREO_COUNT>
2

> <PUBCHEM_ATOM_UDEF_STEREO_COUNT>
0

> <PUBCHEM_BOND_DEF_STEREO_COUNT>
1

> <PUBCHEM_BOND_UDEF_STEREO_COUNT>
0

> <PUBCHEM_ISOTOPIC_ATOM_COUNT>
0

> <PUBCHEM_COMPONENT_COUNT>
1

> <PUBCHEM_CACTVS_TAUTO_COUNT>
1

> <PUBCHEM_CONFORMER_ID>
00B55AD100000001

> <PUBCHEM_MMFF94_ENERGY>
77.8559

> <PUBCHEM_FEATURE_SELFOVERLAP>
37.086

> <PUBCHEM_SHAPE_FINGERPRINT>
10165383 225 17894921741546749518
10483366 6 18338252552523381084
10673678 19 17845938536703687043
10675989 125 18271246148060966480
11456790 92 17968378923164625881
11578080 2 18189628304698116971
11966995 178 18271541861718757165
12107698 1 18342177714011847525
12166972 35 18201723895071407259
12539745 222 17170944857252896938
12633257 1 17752177695719881938
12788726 201 18047198449806395902
12925494 130 18264768942784016457
13150687 139 11239134828690022762
13617811 41 11455886958709852043
13785724 45 18269843008204161454
13944108 23 18409174320257376076
13965767 371 17844216676152196986
14849402 71 18335142011571812740
15183329 4 15770057233810017403
15348495 7 18334298682491525995
15419008 47 17968938578820388261
15420108 30 17985246703335756182
15475509 84 17684635546454762186
16760501 71 18410574015886161221
17844677 252 18340772551078929131
19301679 30 17833262026988826146
21315764 268 18336262358739913653
21475661 188 18337952402073428438
21641784 216 15698011717057018371
21716022 299 14619135641262940775
21792934 111 18041002801137714701
21859007 373 17604413104493518653
21860390 5 18341894099930446806
22122407 14 18340218410219489969
23559900 14 18341902874164225271
244849 19 17896058670654873243
249057 3 18060139804074855910
3044373 193 18342182172219770103
3411729 13 18340770445864504693
34797466 226 18131075905459136231
3493558 16 18338519767459114393
373842 8 18412262810092133849
394071 54 18342740715098843921
397830 11 18263655107936434091
474 4 18268141131818819286
4760202 170 18337373956955066693
5104073 3 18337124427786055347
5109719 28 18337118968576595729
513532 50 17917720119079505964
5265222 85 17688602970723668301
53794403 172 18263368151595172317
54076057 255 18336844043129697020
5776283 40 18191041182236961316
59682541 52 9655582881766264689
60111433 81 16987418996817131513
6086070 43 18336841843790540602
6609424 69 18269270171183817076
68570916 9 18272369815765748695

> <PUBCHEM_SHAPE_MULTIPOLES>
618.13
16.5
4.93
1.46
47.07
6.28
0.04
3.7
-4.33
-8.9
-0.05
-1.27
-0.54
0.55

> <PUBCHEM_SHAPE_SELFOVERLAP>
1331.936

> <PUBCHEM_SHAPE_VOLUME>
337.7

> <PUBCHEM_COORDINATE_TYPE>
2
5
10

$$$$
