38029756
  -OEChem-12032416243D

 58 59  0     1  0  0  0  0  0999 V2000
   -1.9656    1.2313    0.9216 S   0  0  0  0  0  0  0  0  0  0  0  0
   -6.0881    0.2579   -1.9400 F   0  0  0  0  0  0  0  0  0  0  0  0
    4.0036    1.4296    0.9787 O   0  0  0  0  0  0  0  0  0  0  0  0
    5.5618   -0.2569    0.7522 O   0  0  0  0  0  0  0  0  0  0  0  0
   -1.7200    2.2318   -0.0996 O   0  0  0  0  0  0  0  0  0  0  0  0
   -1.8292    1.5724    2.3246 O   0  0  0  0  0  0  0  0  0  0  0  0
   -1.0283   -0.1522    0.5897 N   0  0  0  0  0  0  0  0  0  0  0  0
    1.3474   -0.3929   -1.2206 C   0  0  1  0  0  0  0  0  0  0  0  0
    0.2364   -1.4586   -1.0481 C   0  0  1  0  0  0  0  0  0  0  0  0
    2.7353   -1.0435   -1.1172 C   0  0  0  0  0  0  0  0  0  0  0  0
    2.9463   -1.7545    0.2329 C   0  0  2  0  0  0  0  0  0  0  0  0
    1.2210    0.3500   -2.5543 C   0  0  0  0  0  0  0  0  0  0  0  0
    1.7619   -2.6244    0.6023 C   0  0  0  0  0  0  0  0  0  0  0  0
    0.5625   -2.4866    0.0097 C   0  0  0  0  0  0  0  0  0  0  0  0
   -1.1122   -0.8046   -0.7262 C   0  0  0  0  0  0  0  0  0  0  0  0
    3.2552   -0.7467    1.3456 C   0  0  0  0  0  0  0  0  0  0  0  0
    1.8804    1.7225   -2.4637 C   0  0  0  0  0  0  0  0  0  0  0  0
    1.8364   -0.4726   -3.6818 C   0  0  0  0  0  0  0  0  0  0  0  0
    1.9999   -3.6882    1.6376 C   0  0  0  0  0  0  0  0  0  0  0  0
    4.4261    0.1304    0.9900 C   0  0  0  0  0  0  0  0  0  0  0  0
   -3.6074    0.6157    0.6974 C   0  0  0  0  0  0  0  0  0  0  0  0
    5.0048    2.4000    0.6559 C   0  0  0  0  0  0  0  0  0  0  0  0
   -4.2121    0.6815   -0.5580 C   0  0  0  0  0  0  0  0  0  0  0  0
   -4.2983    0.0637    1.7762 C   0  0  0  0  0  0  0  0  0  0  0  0
    4.3820    3.7796    0.6855 C   0  0  0  0  0  0  0  0  0  0  0  0
   -5.5075    0.1952   -0.7345 C   0  0  0  0  0  0  0  0  0  0  0  0
   -5.5936   -0.4229    1.5996 C   0  0  0  0  0  0  0  0  0  0  0  0
   -6.1984   -0.3570    0.3443 C   0  0  0  0  0  0  0  0  0  0  0  0
    1.2606    0.3417   -0.4100 H   0  0  0  0  0  0  0  0  0  0  0  0
    0.1129   -2.0142   -1.9863 H   0  0  0  0  0  0  0  0  0  0  0  0
    3.5350   -0.3230   -1.3125 H   0  0  0  0  0  0  0  0  0  0  0  0
    2.8439   -1.8286   -1.8777 H   0  0  0  0  0  0  0  0  0  0  0  0
    3.8237   -2.4045    0.1070 H   0  0  0  0  0  0  0  0  0  0  0  0
    0.1680    0.5229   -2.7985 H   0  0  0  0  0  0  0  0  0  0  0  0
   -0.2396   -3.1704    0.2813 H   0  0  0  0  0  0  0  0  0  0  0  0
   -1.8988   -1.5675   -0.6843 H   0  0  0  0  0  0  0  0  0  0  0  0
   -1.3942   -0.0866   -1.4995 H   0  0  0  0  0  0  0  0  0  0  0  0
    3.5144   -1.2539    2.2826 H   0  0  0  0  0  0  0  0  0  0  0  0
    2.3770   -0.1289    1.5712 H   0  0  0  0  0  0  0  0  0  0  0  0
    2.9530    1.6564   -2.2568 H   0  0  0  0  0  0  0  0  0  0  0  0
    1.4201    2.3264   -1.6742 H   0  0  0  0  0  0  0  0  0  0  0  0
    1.7602    2.2677   -3.4064 H   0  0  0  0  0  0  0  0  0  0  0  0
    2.9309   -0.4934   -3.6521 H   0  0  0  0  0  0  0  0  0  0  0  0
    1.5739   -0.0160   -4.6443 H   0  0  0  0  0  0  0  0  0  0  0  0
    1.4563   -1.4979   -3.7133 H   0  0  0  0  0  0  0  0  0  0  0  0
    2.8244   -4.3397    1.3302 H   0  0  0  0  0  0  0  0  0  0  0  0
    1.1190   -4.3213    1.7886 H   0  0  0  0  0  0  0  0  0  0  0  0
    2.2514   -3.2391    2.6031 H   0  0  0  0  0  0  0  0  0  0  0  0
   -0.7899   -0.7599    1.3830 H   0  0  0  0  0  0  0  0  0  0  0  0
    5.8174    2.3444    1.3888 H   0  0  0  0  0  0  0  0  0  0  0  0
    5.4017    2.1949   -0.3446 H   0  0  0  0  0  0  0  0  0  0  0  0
   -3.6923    1.1049   -1.4125 H   0  0  0  0  0  0  0  0  0  0  0  0
   -3.8443   -0.0046    2.7607 H   0  0  0  0  0  0  0  0  0  0  0  0
    3.5553    3.8438   -0.0298 H   0  0  0  0  0  0  0  0  0  0  0  0
    3.9634    3.9922    1.6748 H   0  0  0  0  0  0  0  0  0  0  0  0
    5.1210    4.5478    0.4417 H   0  0  0  0  0  0  0  0  0  0  0  0
   -6.1310   -0.8546    2.4390 H   0  0  0  0  0  0  0  0  0  0  0  0
   -7.2067   -0.7360    0.2064 H   0  0  0  0  0  0  0  0  0  0  0  0
  1  5  2  0  0  0  0
  1  6  2  0  0  0  0
  1  7  1  0  0  0  0
  1 21  1  0  0  0  0
  2 26  1  0  0  0  0
  3 20  1  0  0  0  0
  3 22  1  0  0  0  0
  4 20  2  0  0  0  0
  7 15  1  0  0  0  0
  7 49  1  0  0  0  0
  8  9  1  0  0  0  0
  8 10  1  0  0  0  0
  8 12  1  0  0  0  0
  8 29  1  0  0  0  0
  9 14  1  0  0  0  0
  9 15  1  0  0  0  0
  9 30  1  0  0  0  0
 10 11  1  0  0  0  0
 10 31  1  0  0  0  0
 10 32  1  0  0  0  0
 11 13  1  0  0  0  0
 11 16  1  0  0  0  0
 11 33  1  0  0  0  0
 12 17  1  0  0  0  0
 12 18  1  0  0  0  0
 12 34  1  0  0  0  0
 13 14  2  0  0  0  0
 13 19  1  0  0  0  0
 14 35  1  0  0  0  0
 15 36  1  0  0  0  0
 15 37  1  0  0  0  0
 16 20  1  0  0  0  0
 16 38  1  0  0  0  0
 16 39  1  0  0  0  0
 17 40  1  0  0  0  0
 17 41  1  0  0  0  0
 17 42  1  0  0  0  0
 18 43  1  0  0  0  0
 18 44  1  0  0  0  0
 18 45  1  0  0  0  0
 19 46  1  0  0  0  0
 19 47  1  0  0  0  0
 19 48  1  0  0  0  0
 21 23  1  0  0  0  0
 21 24  2  0  0  0  0
 22 25  1  0  0  0  0
 22 50  1  0  0  0  0
 22 51  1  0  0  0  0
 23 26  2  0  0  0  0
 23 52  1  0  0  0  0
 24 27  1  0  0  0  0
 24 53  1  0  0  0  0
 25 54  1  0  0  0  0
 25 55  1  0  0  0  0
 25 56  1  0  0  0  0
 26 28  1  0  0  0  0
 27 28  2  0  0  0  0
 27 57  1  0  0  0  0
 28 58  1  0  0  0  0
M  END
> <PUBCHEM_COMPOUND_CID>
38029756

> <PUBCHEM_CONFORMER_RMSD>
1

> <PUBCHEM_CONFORMER_DIVERSEORDER>
1
21
262
65
235
218
245
51
171
242
174
196
73
22
233
166
111
76
94
29
142
113
163
78
31
225
158
128
194
241
38
95
137
52
102
202
90
14
50
179
234
153
209
149
143
81
108
214
205
236
63
190
139
4
182
243
211
172
184
260
258
72
201
101
212
250
67
39
87
248
216
58
187
180
259
162
61
207
33
48
89
210
132
80
129
117
249
104
247
199
86
19
77
71
253
75
231
244
17
9
229
200
60
100
134
150
47
20
252
69
62
43
138
246
18
141
197
112
169
12
186
170
25
222
164
198
189
118
237
13
221
175
7
122
147
59
70
36
119
32
238
152
84
206
176
126
16
83
167
255
183
105
177
15
27
254
130
91
116
53
226
24
230
57
261
256
219
215
144
114
26
257
54
79
208
35
66
82
204
240
165
232
192
55
41
28
223
160
195
8
99
191
133
115
136
98
11
121
178
173
127
34
251
168
74
10
68
2
217
88
154
44
224
93
181
228
40
120
3
193
157
23
124
110
92
5
151
64
188
156
45
213
148
227
125
103
30
161
155
96
239
159
46
106
42
97
85
135
6
56
146
203
131
140
145
220
123
37
49
109
185
107

> <PUBCHEM_MMFF94_PARTIAL_CHARGES>
28
1 1.45
11 0.14
13 -0.28
14 -0.29
15 0.36
16 0.06
19 0.14
2 -0.19
20 0.66
21 -0.01
22 0.28
23 -0.15
24 -0.15
26 0.19
27 -0.15
28 -0.15
3 -0.43
35 0.15
4 -0.57
49 0.42
5 -0.65
52 0.15
53 0.15
57 0.15
58 0.15
6 -0.65
7 -0.91
9 0.14

> <PUBCHEM_EFFECTIVE_ROTOR_COUNT>
9.8

> <PUBCHEM_PHARMACOPHORE_FEATURES>
7
1 4 acceptor
1 5 acceptor
1 6 acceptor
1 7 donor
3 12 17 18 hydrophobe
6 21 23 24 26 27 28 rings
6 8 9 10 11 13 14 rings

> <PUBCHEM_HEAVY_ATOM_COUNT>
28

> <PUBCHEM_ATOM_DEF_STEREO_COUNT>
3

> <PUBCHEM_ATOM_UDEF_STEREO_COUNT>
0

> <PUBCHEM_BOND_DEF_STEREO_COUNT>
0

> <PUBCHEM_BOND_UDEF_STEREO_COUNT>
0

> <PUBCHEM_ISOTOPIC_ATOM_COUNT>
0

> <PUBCHEM_COMPONENT_COUNT>
1

> <PUBCHEM_CACTVS_TAUTO_COUNT>
1

> <PUBCHEM_CONFORMER_ID>
024449BC00000001

> <PUBCHEM_MMFF94_ENERGY>
40.8142

> <PUBCHEM_FEATURE_SELFOVERLAP>
35.539

> <PUBCHEM_SHAPE_FINGERPRINT>
10165383 225 18186802492239447934
11112662 9 17989205979866026212
11405975 8 16515697615475731349
11578080 2 18267298738688546709
11796584 16 13551484626512869570
12107698 1 17917718942289874330
12422481 6 17385996316834237486
13224815 77 18059021571100594395
13583140 156 18191578666542338883
14341114 328 18060696203954418459
14787075 74 18060414733657686673
14840074 17 18059852909012693981
15163728 17 17202774824943039860
151778 21 12607117362423891461
15183329 4 7925913690321930619
17349148 13 17822869597362922379
19315092 285 18118388562617111827
19319366 153 18200860864627903130
20465049 17 12103844570398716020
20567600 234 18187079611011771885
21716022 299 14116145386158146332
23559900 14 17677343701477762963
25222932 49 18201709713332748991
345986 75 13190601846487419204
392239 28 18412262843638878914
4325135 7 17489864925884798581
5104073 3 16009331863372825301
6287921 2 16701193970865142125
6442390 28 15410598286217829943
8509985 295 14779265306465311200
9999458 23 18410011031699803690

> <PUBCHEM_SHAPE_MULTIPOLES>
544.34
12.94
3.15
2.6
14.62
0.23
-2.16
-4.74
4.02
-5.24
1.46
-0.82
-0.46
0.4

> <PUBCHEM_SHAPE_SELFOVERLAP>
1102.711

> <PUBCHEM_SHAPE_VOLUME>
319.9

> <PUBCHEM_COORDINATE_TYPE>
2
5
10

$$$$
