75368452
  -OEChem-12032416393D

 53 56  0     1  0  0  0  0  0999 V2000
   -4.8481   -0.2822   -1.6572 O   0  0  0  0  0  0  0  0  0  0  0  0
    1.3451   -3.1581   -0.3078 O   0  0  0  0  0  0  0  0  0  0  0  0
    6.2126    1.8920   -1.2930 O   0  0  0  0  0  0  0  0  0  0  0  0
   -0.5250   -1.7545   -0.0786 N   0  0  0  0  0  0  0  0  0  0  0  0
   -2.6564   -0.1641   -0.8988 N   0  0  0  0  0  0  0  0  0  0  0  0
    1.3068   -1.2968    1.1395 N   0  0  0  0  0  0  0  0  0  0  0  0
   -0.9186   -0.6440    0.7707 C   0  0  2  0  0  0  0  0  0  0  0  0
   -1.6079    0.4395   -0.0546 C   0  0  0  0  0  0  0  0  0  0  0  0
   -4.3917    1.3210    0.0154 C   0  0  0  0  0  0  0  0  0  0  0  0
    0.3878   -0.2105    1.4309 C   0  0  0  0  0  0  0  0  0  0  0  0
   -1.4888   -2.3394   -0.9932 C   0  0  0  0  0  0  0  0  0  0  0  0
   -2.1862   -1.2377   -1.7877 C   0  0  0  0  0  0  0  0  0  0  0  0
   -4.8659    0.7348    1.3500 C   0  0  0  0  0  0  0  0  0  0  0  0
   -5.5732    2.1120   -0.5485 C   0  0  0  0  0  0  0  0  0  0  0  0
   -3.9950    0.2225   -0.9231 C   0  0  0  0  0  0  0  0  0  0  0  0
   -6.2712    1.2844    1.5703 C   0  0  0  0  0  0  0  0  0  0  0  0
   -6.7911    1.5472    0.1685 C   0  0  0  0  0  0  0  0  0  0  0  0
    0.7786   -2.1941    0.1904 C   0  0  0  0  0  0  0  0  0  0  0  0
    2.6473   -1.3316    1.6809 C   0  0  0  0  0  0  0  0  0  0  0  0
    3.5948   -0.4758    0.8908 C   0  0  0  0  0  0  0  0  0  0  0  0
    4.0621   -0.9129   -0.3486 C   0  0  0  0  0  0  0  0  0  0  0  0
    4.0072    0.7571    1.3964 C   0  0  0  0  0  0  0  0  0  0  0  0
    4.9420   -0.1174   -1.0824 C   0  0  0  0  0  0  0  0  0  0  0  0
    4.8872    1.5527    0.6628 C   0  0  0  0  0  0  0  0  0  0  0  0
    5.3546    1.1154   -0.5766 C   0  0  0  0  0  0  0  0  0  0  0  0
    6.5933    3.1406   -0.7166 C   0  0  0  0  0  0  0  0  0  0  0  0
   -1.6105   -1.0502    1.5198 H   0  0  0  0  0  0  0  0  0  0  0  0
   -1.9724    1.2033    0.6292 H   0  0  0  0  0  0  0  0  0  0  0  0
   -0.9004    0.9221   -0.7401 H   0  0  0  0  0  0  0  0  0  0  0  0
   -3.5918    2.0510    0.1440 H   0  0  0  0  0  0  0  0  0  0  0  0
    0.7908    0.7122    1.0013 H   0  0  0  0  0  0  0  0  0  0  0  0
    0.2793   -0.0923    2.5132 H   0  0  0  0  0  0  0  0  0  0  0  0
   -0.9886   -3.0534   -1.6544 H   0  0  0  0  0  0  0  0  0  0  0  0
   -2.2152   -2.8877   -0.3828 H   0  0  0  0  0  0  0  0  0  0  0  0
   -1.4847   -0.7777   -2.4940 H   0  0  0  0  0  0  0  0  0  0  0  0
   -3.0121   -1.6596   -2.3685 H   0  0  0  0  0  0  0  0  0  0  0  0
   -4.2019    1.0226    2.1721 H   0  0  0  0  0  0  0  0  0  0  0  0
   -4.8922   -0.3615    1.3271 H   0  0  0  0  0  0  0  0  0  0  0  0
   -5.6784    2.0664   -1.6370 H   0  0  0  0  0  0  0  0  0  0  0  0
   -5.4636    3.1710   -0.2801 H   0  0  0  0  0  0  0  0  0  0  0  0
   -6.2200    2.2233    2.1346 H   0  0  0  0  0  0  0  0  0  0  0  0
   -6.9056    0.5895    2.1280 H   0  0  0  0  0  0  0  0  0  0  0  0
   -7.1154    0.6112   -0.3005 H   0  0  0  0  0  0  0  0  0  0  0  0
   -7.6348    2.2432    0.1628 H   0  0  0  0  0  0  0  0  0  0  0  0
    3.0062   -2.3679    1.6608 H   0  0  0  0  0  0  0  0  0  0  0  0
    2.6070   -1.0290    2.7335 H   0  0  0  0  0  0  0  0  0  0  0  0
    3.7556   -1.8730   -0.7535 H   0  0  0  0  0  0  0  0  0  0  0  0
    3.6480    1.1096    2.3597 H   0  0  0  0  0  0  0  0  0  0  0  0
    5.3037   -0.4637   -2.0467 H   0  0  0  0  0  0  0  0  0  0  0  0
    5.1662    2.4987    1.1141 H   0  0  0  0  0  0  0  0  0  0  0  0
    7.2779    3.6258   -1.4200 H   0  0  0  0  0  0  0  0  0  0  0  0
    7.1438    3.0004    0.2199 H   0  0  0  0  0  0  0  0  0  0  0  0
    5.7327    3.8075   -0.5966 H   0  0  0  0  0  0  0  0  0  0  0  0
  1 15  2  0  0  0  0
  2 18  2  0  0  0  0
  3 25  1  0  0  0  0
  3 26  1  0  0  0  0
  4  7  1  0  0  0  0
  4 11  1  0  0  0  0
  4 18  1  0  0  0  0
  5  8  1  0  0  0  0
  5 12  1  0  0  0  0
  5 15  1  0  0  0  0
  6 10  1  0  0  0  0
  6 18  1  0  0  0  0
  6 19  1  0  0  0  0
  7  8  1  0  0  0  0
  7 10  1  0  0  0  0
  7 27  1  0  0  0  0
  8 28  1  0  0  0  0
  8 29  1  0  0  0  0
  9 13  1  0  0  0  0
  9 14  1  0  0  0  0
  9 15  1  0  0  0  0
  9 30  1  0  0  0  0
 10 31  1  0  0  0  0
 10 32  1  0  0  0  0
 11 12  1  0  0  0  0
 11 33  1  0  0  0  0
 11 34  1  0  0  0  0
 12 35  1  0  0  0  0
 12 36  1  0  0  0  0
 13 16  1  0  0  0  0
 13 37  1  0  0  0  0
 13 38  1  0  0  0  0
 14 17  1  0  0  0  0
 14 39  1  0  0  0  0
 14 40  1  0  0  0  0
 16 17  1  0  0  0  0
 16 41  1  0  0  0  0
 16 42  1  0  0  0  0
 17 43  1  0  0  0  0
 17 44  1  0  0  0  0
 19 20  1  0  0  0  0
 19 45  1  0  0  0  0
 19 46  1  0  0  0  0
 20 21  2  0  0  0  0
 20 22  1  0  0  0  0
 21 23  1  0  0  0  0
 21 47  1  0  0  0  0
 22 24  2  0  0  0  0
 22 48  1  0  0  0  0
 23 25  2  0  0  0  0
 23 49  1  0  0  0  0
 24 25  1  0  0  0  0
 24 50  1  0  0  0  0
 26 51  1  0  0  0  0
 26 52  1  0  0  0  0
 26 53  1  0  0  0  0
M  END
> <PUBCHEM_COMPOUND_CID>
75368452

> <PUBCHEM_CONFORMER_RMSD>
0.8

> <PUBCHEM_CONFORMER_DIVERSEORDER>
1
54
35
41
72
14
70
18
87
11
9
78
43
61
59
62
86
53
21
64
45
33
92
13
75
71
17
84
77
95
25
82
80
10
30
40
74
58
22
44
69
88
5
89
63
27
46
83
81
55
93
48
24
65
36
15
90
56
50
57
66
39
79
76
23
38
60
91
31
16
32
96
67
7
97
94
6
49
3
20
52
73
29
42
12
68
34
37
19
51
47
8
2
28
85
26
4

> <PUBCHEM_MMFF94_PARTIAL_CHARGES>
26
1 -0.57
10 0.3
11 0.3
12 0.3
15 0.57
18 0.69
19 0.44
2 -0.57
20 -0.14
21 -0.15
22 -0.15
23 -0.15
24 -0.15
25 0.08
26 0.28
3 -0.36
4 -0.66
47 0.15
48 0.15
49 0.15
5 -0.66
50 0.15
6 -0.66
7 0.3
8 0.3
9 0.06

> <PUBCHEM_EFFECTIVE_ROTOR_COUNT>
7.2

> <PUBCHEM_PHARMACOPHORE_FEATURES>
7
1 1 acceptor
1 2 acceptor
1 3 acceptor
5 4 6 7 10 18 rings
5 9 13 14 16 17 rings
6 20 21 22 23 24 25 rings
6 4 5 7 8 11 12 rings

> <PUBCHEM_HEAVY_ATOM_COUNT>
26

> <PUBCHEM_ATOM_DEF_STEREO_COUNT>
1

> <PUBCHEM_ATOM_UDEF_STEREO_COUNT>
0

> <PUBCHEM_BOND_DEF_STEREO_COUNT>
0

> <PUBCHEM_BOND_UDEF_STEREO_COUNT>
0

> <PUBCHEM_ISOTOPIC_ATOM_COUNT>
0

> <PUBCHEM_COMPONENT_COUNT>
1

> <PUBCHEM_CACTVS_TAUTO_COUNT>
1

> <PUBCHEM_CONFORMER_ID>
047E080400000001

> <PUBCHEM_MMFF94_ENERGY>
71.4819

> <PUBCHEM_FEATURE_SELFOVERLAP>
35.621

> <PUBCHEM_SHAPE_FINGERPRINT>
10 15 16370728153619467436
10319926 262 13190881083970355898
10447042 23 9511451234764073858
10670039 82 17417250923023569073
10753850 27 9295282850955153133
11135609 201 17822572840972045120
11445158 3 17767958745252993311
11475781 23 17203320127028874800
11796584 16 13542168481507003845
12390115 104 18131350821888871323
12596602 18 17676489389859742817
12616971 3 18261938666446598618
12760667 363 10951778481654042204
12788726 201 18131073693145070208
12839892 36 13190336838372753393
12892183 10 14201662144785985010
12895836 83 18341050813024190508
12895837 130 18118974830765601612
13627167 48 18060422404111627616
13690498 29 17201348818265068975
13782708 43 12180106663243563696
13828863 39 18260268559870755627
13885169 86 18335426806511140756
13911852 28 9439413414834743028
13914758 101 9871754585896192963
13955234 65 17531800235081446978
14251764 75 18334579092105298468
14528608 73 18343292661229813473
14790565 3 18272646827480024713
14840074 17 18411420588189795045
14848178 5 10663816386371110916
15052358 14 15698002924694193781
15163728 17 18410577314337188142
15183329 4 16630529513846487577
15188451 53 8358263626762914632
15338160 23 18042131019282366611
15475509 8 15913334567839148449
15519825 34 13624099784468381056
15575132 122 18341048502654376729
15685185 35 18117288162511860172
17857418 61 8358248263933779449
18222031 100 10737290099883203210
18785283 64 15936990628797533908
19377110 9 16153712054481877235
19438510 23 18114178709537140648
20567600 234 15574726801942666839
20621476 91 14634875262347867993
21307412 95 14405191698083780860
21315764 119 16558759996340233364
21401589 2 17241041123877072288
22061861 79 12967120614883855337
22079108 93 17240205421624611451
2215653 11 14908177551495740885
23559900 14 17703503282226419902
249057 25 18192966349075349178
270888 7 18334295413947489076
2838139 119 18187357732209692940
3004659 81 17417810583317007750
3014063 24 9871754572463119468
312425 54 12974148649921595804
3472631 163 18411420639649807540
3729539 64 14045751391393118805
38570 142 17632304445539755491
392239 28 15140682492308415485
393628 194 17827362395560261388
397830 11 16660365878858217505
4058900 60 17915749670052502251
4258327 124 18340477895285521925
437795 70 15841282470921788977
5104073 3 17240758515044774874
531348 171 10879990247397632921
5718773 13 10375603572910975900
57724786 102 18040992965108160182
59682541 52 15123224378174283437
6034566 193 18411984693230488371
6443934 186 14346094034970377046
6712543 237 14273721967374558672
76465 3 9223228567941735267
7970288 3 10159703490881501476
8988823 20 8646472021404264194
960060 61 15195561325564443360

> <PUBCHEM_SHAPE_MULTIPOLES>
502.52
17.47
2.79
1.63
2.22
0.17
0.11
-17.4
-1.95
-2.25
-0.6
0.27
0.1
-1.99

> <PUBCHEM_SHAPE_SELFOVERLAP>
1069.266

> <PUBCHEM_SHAPE_VOLUME>
281.2

> <PUBCHEM_COORDINATE_TYPE>
2
5
10

$$$$
