51136607
  -OEChem-12032416143D

 66 69  0     1  0  0  0  0  0999 V2000
   -0.3998   -3.5397    0.7472 O   0  0  0  0  0  0  0  0  0  0  0  0
   -6.7201    1.7569    1.5460 O   0  0  0  0  0  0  0  0  0  0  0  0
   -6.7384   -0.3490    0.6823 O   0  0  0  0  0  0  0  0  0  0  0  0
    2.7074    2.0740    2.5941 O   0  0  0  0  0  0  0  0  0  0  0  0
    4.5594    2.7589    0.6429 O   0  0  0  0  0  0  0  0  0  0  0  0
   -1.8120   -2.0738   -0.3726 N   0  0  0  0  0  0  0  0  0  0  0  0
   -1.2449    2.1512   -1.9904 N   0  0  0  0  0  0  0  0  0  0  0  0
   -2.7202    0.2032   -0.7770 C   0  0  2  0  0  0  0  0  0  0  0  0
   -3.9953   -0.2072    0.0029 C   0  0  1  0  0  0  0  0  0  0  0  0
   -3.7012   -1.3220    1.0210 C   0  0  0  0  0  0  0  0  0  0  0  0
   -2.0584   -1.0442   -1.3903 C   0  0  0  0  0  0  0  0  0  0  0  0
   -3.0018   -2.5068    0.3596 C   0  0  0  0  0  0  0  0  0  0  0  0
   -1.7032    0.9884    0.0605 C   0  0  0  0  0  0  0  0  0  0  0  0
   -4.6903    0.9728    0.6817 C   0  0  0  0  0  0  0  0  0  0  0  0
   -0.7803    1.7640   -0.8484 C   0  0  0  0  0  0  0  0  0  0  0  0
   -0.5757   -2.6565   -0.0961 C   0  0  0  0  0  0  0  0  0  0  0  0
    0.6074    2.0368   -0.3947 C   0  0  0  0  0  0  0  0  0  0  0  0
   -6.1415    0.6833    0.9489 C   0  0  0  0  0  0  0  0  0  0  0  0
    0.6020   -2.1534   -0.8920 C   0  0  0  0  0  0  0  0  0  0  0  0
    1.5337    2.3998   -1.3806 C   0  0  0  0  0  0  0  0  0  0  0  0
    1.0760    2.4737   -2.8070 C   0  0  0  0  0  0  0  0  0  0  0  0
   -0.3681    2.9564   -2.8473 C   0  0  0  0  0  0  0  0  0  0  0  0
    0.9999    1.9298    0.9409 C   0  0  0  0  0  0  0  0  0  0  0  0
    2.8654    2.6305   -1.0247 C   0  0  0  0  0  0  0  0  0  0  0  0
    1.8471   -2.8956   -0.5184 C   0  0  0  0  0  0  0  0  0  0  0  0
    2.3284    2.1773    1.2889 C   0  0  0  0  0  0  0  0  0  0  0  0
    3.2593    2.5239    0.3092 C   0  0  0  0  0  0  0  0  0  0  0  0
    2.6578   -2.4233    0.5137 C   0  0  0  0  0  0  0  0  0  0  0  0
    2.1966   -4.0597   -1.2027 C   0  0  0  0  0  0  0  0  0  0  0  0
    3.8181   -3.1150    0.8616 C   0  0  0  0  0  0  0  0  0  0  0  0
    3.3568   -4.7515   -0.8550 C   0  0  0  0  0  0  0  0  0  0  0  0
    4.1676   -4.2790    0.1771 C   0  0  0  0  0  0  0  0  0  0  0  0
    3.1592    0.7961    3.0375 C   0  0  0  0  0  0  0  0  0  0  0  0
    4.9089    4.0997    0.9812 C   0  0  0  0  0  0  0  0  0  0  0  0
   -3.0845    0.8186   -1.6092 H   0  0  0  0  0  0  0  0  0  0  0  0
   -4.6833   -0.6301   -0.7444 H   0  0  0  0  0  0  0  0  0  0  0  0
   -3.0617   -0.9311    1.8227 H   0  0  0  0  0  0  0  0  0  0  0  0
   -4.6232   -1.6748    1.4954 H   0  0  0  0  0  0  0  0  0  0  0  0
   -1.1502   -0.7715   -1.9299 H   0  0  0  0  0  0  0  0  0  0  0  0
   -2.7322   -1.4935   -2.1309 H   0  0  0  0  0  0  0  0  0  0  0  0
   -2.7435   -3.2520    1.1186 H   0  0  0  0  0  0  0  0  0  0  0  0
   -3.6706   -2.9930   -0.3605 H   0  0  0  0  0  0  0  0  0  0  0  0
   -1.1440    0.3152    0.7158 H   0  0  0  0  0  0  0  0  0  0  0  0
   -2.1953    1.7352    0.6918 H   0  0  0  0  0  0  0  0  0  0  0  0
   -4.6560    1.8500    0.0247 H   0  0  0  0  0  0  0  0  0  0  0  0
   -4.2084    1.2208    1.6338 H   0  0  0  0  0  0  0  0  0  0  0  0
    0.4072   -2.2879   -1.9623 H   0  0  0  0  0  0  0  0  0  0  0  0
    0.7387   -1.0826   -0.7078 H   0  0  0  0  0  0  0  0  0  0  0  0
    1.1595    1.4765   -3.2554 H   0  0  0  0  0  0  0  0  0  0  0  0
    1.7049    3.1605   -3.3845 H   0  0  0  0  0  0  0  0  0  0  0  0
   -0.7370    2.8980   -3.8772 H   0  0  0  0  0  0  0  0  0  0  0  0
   -0.4390    4.0078   -2.5416 H   0  0  0  0  0  0  0  0  0  0  0  0
    0.2920    1.6725    1.7230 H   0  0  0  0  0  0  0  0  0  0  0  0
    3.5958    2.8937   -1.7858 H   0  0  0  0  0  0  0  0  0  0  0  0
   -7.6700    1.6020    1.7355 H   0  0  0  0  0  0  0  0  0  0  0  0
    2.3946   -1.5183    1.0534 H   0  0  0  0  0  0  0  0  0  0  0  0
    1.5725   -4.4393   -2.0074 H   0  0  0  0  0  0  0  0  0  0  0  0
    4.4491   -2.7468    1.6653 H   0  0  0  0  0  0  0  0  0  0  0  0
    3.6288   -5.6582   -1.3874 H   0  0  0  0  0  0  0  0  0  0  0  0
    5.0710   -4.8177    0.4480 H   0  0  0  0  0  0  0  0  0  0  0  0
    2.3319    0.0798    3.0311 H   0  0  0  0  0  0  0  0  0  0  0  0
    3.9791    0.4316    2.4104 H   0  0  0  0  0  0  0  0  0  0  0  0
    3.5234    0.8989    4.0633 H   0  0  0  0  0  0  0  0  0  0  0  0
    4.7316    4.7678    0.1324 H   0  0  0  0  0  0  0  0  0  0  0  0
    4.3391    4.4387    1.8521 H   0  0  0  0  0  0  0  0  0  0  0  0
    5.9736    4.1239    1.2290 H   0  0  0  0  0  0  0  0  0  0  0  0
  1 16  2  0  0  0  0
  2 18  1  0  0  0  0
  2 55  1  0  0  0  0
  3 18  2  0  0  0  0
  4 26  1  0  0  0  0
  4 33  1  0  0  0  0
  5 27  1  0  0  0  0
  5 34  1  0  0  0  0
  6 11  1  0  0  0  0
  6 12  1  0  0  0  0
  6 16  1  0  0  0  0
  7 15  2  0  0  0  0
  7 22  1  0  0  0  0
  8  9  1  0  0  0  0
  8 11  1  0  0  0  0
  8 13  1  0  0  0  0
  8 35  1  0  0  0  0
  9 10  1  0  0  0  0
  9 14  1  0  0  0  0
  9 36  1  0  0  0  0
 10 12  1  0  0  0  0
 10 37  1  0  0  0  0
 10 38  1  0  0  0  0
 11 39  1  0  0  0  0
 11 40  1  0  0  0  0
 12 41  1  0  0  0  0
 12 42  1  0  0  0  0
 13 15  1  0  0  0  0
 13 43  1  0  0  0  0
 13 44  1  0  0  0  0
 14 18  1  0  0  0  0
 14 45  1  0  0  0  0
 14 46  1  0  0  0  0
 15 17  1  0  0  0  0
 16 19  1  0  0  0  0
 17 20  1  0  0  0  0
 17 23  2  0  0  0  0
 19 25  1  0  0  0  0
 19 47  1  0  0  0  0
 19 48  1  0  0  0  0
 20 21  1  0  0  0  0
 20 24  2  0  0  0  0
 21 22  1  0  0  0  0
 21 49  1  0  0  0  0
 21 50  1  0  0  0  0
 22 51  1  0  0  0  0
 22 52  1  0  0  0  0
 23 26  1  0  0  0  0
 23 53  1  0  0  0  0
 24 27  1  0  0  0  0
 24 54  1  0  0  0  0
 25 28  2  0  0  0  0
 25 29  1  0  0  0  0
 26 27  2  0  0  0  0
 28 30  1  0  0  0  0
 28 56  1  0  0  0  0
 29 31  2  0  0  0  0
 29 57  1  0  0  0  0
 30 32  2  0  0  0  0
 30 58  1  0  0  0  0
 31 32  1  0  0  0  0
 31 59  1  0  0  0  0
 32 60  1  0  0  0  0
 33 61  1  0  0  0  0
 33 62  1  0  0  0  0
 33 63  1  0  0  0  0
 34 64  1  0  0  0  0
 34 65  1  0  0  0  0
 34 66  1  0  0  0  0
M  END
> <PUBCHEM_COMPOUND_CID>
51136607

> <PUBCHEM_CONFORMER_RMSD>
1

> <PUBCHEM_CONFORMER_DIVERSEORDER>
1
149
183
50
193
148
95
28
286
269
225
141
219
147
56
138
153
176
137
156
118
177
85
277
94
131
202
125
29
280
167
74
49
105
226
284
151
210
33
237
165
235
171
144
34
190
20
91
106
26
265
55
178
274
259
30
70
124
65
100
196
58
13
39
120
186
139
174
271
201
4
292
276
128
213
16
5
206
53
150
90
218
93
223
260
250
132
242
238
98
123
266
51
270
199
27
179
217
121
234
117
158
154
262
89
208
241
9
136
52
182
285
19
77
130
23
107
142
86
228
35
41
197
161
255
168
268
116
261
163
126
187
80
59
233
6
258
22
79
12
256
188
169
192
245
76
112
134
135
209
257
83
236
212
104
207
231
289
282
205
189
8
48
172
64
78
18
195
164
96
103
160
224
140
146
155
294
185
191
71
43
200
37
249
127
45
110
162
2
102
211
227
88
240
247
279
92
248
14
122
293
283
7
143
57
152
97
99
214
273
230
244
68
229
75
3
82
243
63
81
73
159
60
281
157
290
61
215
119
101
21
54
31
275
180
184
239
11
115
87
44
263
181
15
36
232
38
40
288
10
216
109
113
24
47
46
42
222
253
221
291
111
145
252
25
246
204
129
175
170
108
278
66
72
287
84
17
114
203
198
67
194
166
133
69
32
272
220
62
173
264
254
251
267

> <PUBCHEM_MMFF94_PARTIAL_CHARGES>
39
1 -0.57
11 0.3
12 0.3
13 0.06
14 0.06
15 0.3
16 0.57
17 0.09
18 0.66
19 0.2
2 -0.65
20 -0.14
21 0.14
22 0.25
23 -0.15
24 -0.15
25 -0.14
26 0.08
27 0.08
28 -0.15
29 -0.15
3 -0.57
30 -0.15
31 -0.15
32 -0.15
33 0.28
34 0.28
4 -0.36
5 -0.36
53 0.15
54 0.15
55 0.5
56 0.15
57 0.15
58 0.15
59 0.15
6 -0.66
60 0.15
7 -0.7

> <PUBCHEM_EFFECTIVE_ROTOR_COUNT>
10.6

> <PUBCHEM_PHARMACOPHORE_FEATURES>
11
1 1 acceptor
1 2 acceptor
1 3 acceptor
1 4 acceptor
1 5 acceptor
1 7 acceptor
3 2 3 18 anion
6 17 20 23 24 26 27 rings
6 25 28 29 30 31 32 rings
6 6 8 9 10 11 12 rings
6 7 15 17 20 21 22 rings

> <PUBCHEM_HEAVY_ATOM_COUNT>
34

> <PUBCHEM_ATOM_DEF_STEREO_COUNT>
2

> <PUBCHEM_ATOM_UDEF_STEREO_COUNT>
0

> <PUBCHEM_BOND_DEF_STEREO_COUNT>
0

> <PUBCHEM_BOND_UDEF_STEREO_COUNT>
0

> <PUBCHEM_ISOTOPIC_ATOM_COUNT>
0

> <PUBCHEM_COMPONENT_COUNT>
1

> <PUBCHEM_CACTVS_TAUTO_COUNT>
1

> <PUBCHEM_CONFORMER_ID>
030C485F00000001

> <PUBCHEM_MMFF94_ENERGY>
109.088

> <PUBCHEM_FEATURE_SELFOVERLAP>
55.912

> <PUBCHEM_SHAPE_FINGERPRINT>
10032420 55 17243585178713744867
11513181 2 18202002169960684847
12422481 6 18262216890085470336
12788726 201 16110050078792507620
13140716 1 18409452479650877715
14725015 67 18042963160574422371
14840074 17 17896586478970256076
14955137 171 17984148063259572783
15064986 96 18260830419181974835
15297060 5 18198068190760875136
15347590 135 17898569770498718722
15420108 30 18199463436324708798
15927050 60 18270966872101762263
17138139 8 11130076270956953392
20775530 9 18121491367799276358
21033648 29 17841991384238697592
23559900 14 18114478781774866583
3411729 13 18342183280094310361
469060 322 17539994782972431858
5171179 24 18192986020626549245
5265222 85 17977400643894412908
5385378 56 18340780320605923129
6287921 2 18341041969391609859

> <PUBCHEM_SHAPE_MULTIPOLES>
660.4
10.71
6.77
2.24
16.22
4.4
-0.16
-0.99
6.58
-11.35
-1.32
-1.04
-2.22
1.5

> <PUBCHEM_SHAPE_SELFOVERLAP>
1408.818

> <PUBCHEM_SHAPE_VOLUME>
363.6

> <PUBCHEM_COORDINATE_TYPE>
2
5
10

$$$$
