7051565
  -OEChem-12032416363D

 64 67  0     1  0  0  0  0  0999 V2000
   -9.2236   -1.7607   -0.9684 F   0  0  0  0  0  0  0  0  0  0  0  0
    0.3945    1.2167    2.1928 O   0  0  0  0  0  0  0  0  0  0  0  0
    5.7268   -3.2845    0.2213 O   0  0  0  0  0  0  0  0  0  0  0  0
   -1.4674    1.0983    0.8074 N   0  0  0  0  0  0  0  0  0  0  0  0
   -4.1431    0.1600    0.2249 N   0  0  0  0  0  0  0  0  0  0  0  0
    2.1097    1.7382    0.1247 C   0  0  2  0  0  0  0  0  0  0  0  0
    0.6339    2.1123    0.0067 C   0  0  1  0  0  0  0  0  0  0  0  0
    2.9397    2.4315   -0.9598 C   0  0  0  0  0  0  0  0  0  0  0  0
    2.2923    0.2163    0.0239 C   0  0  0  0  0  0  0  0  0  0  0  0
    4.4280    2.1511   -0.7571 C   0  0  0  0  0  0  0  0  0  0  0  0
    3.7347   -0.2076   -0.1063 C   0  0  0  0  0  0  0  0  0  0  0  0
    4.7335    0.6953   -0.5131 C   0  0  0  0  0  0  0  0  0  0  0  0
   -0.1466    1.4350    1.1063 C   0  0  0  0  0  0  0  0  0  0  0  0
    0.4341    3.6163    0.1029 C   0  0  0  0  0  0  0  0  0  0  0  0
    4.0735   -1.5488    0.1297 C   0  0  0  0  0  0  0  0  0  0  0  0
    6.0571    0.2467   -0.6401 C   0  0  0  0  0  0  0  0  0  0  0  0
   -2.2908    0.4448    1.8215 C   0  0  0  0  0  0  0  0  0  0  0  0
   -2.1055    1.3494   -0.4867 C   0  0  0  0  0  0  0  0  0  0  0  0
   -3.2943   -0.5260    1.2031 C   0  0  0  0  0  0  0  0  0  0  0  0
   -3.6313    1.3832   -0.3979 C   0  0  0  0  0  0  0  0  0  0  0  0
    5.3907   -1.9844   -0.0099 C   0  0  0  0  0  0  0  0  0  0  0  0
    6.3827   -1.0865   -0.3924 C   0  0  0  0  0  0  0  0  0  0  0  0
    3.0285   -2.5464    0.5268 C   0  0  0  0  0  0  0  0  0  0  0  0
    7.1633    1.1739   -1.0332 C   0  0  0  0  0  0  0  0  0  0  0  0
   -5.4156   -0.3212   -0.0736 C   0  0  0  0  0  0  0  0  0  0  0  0
   -5.7191   -1.7007    0.0066 C   0  0  0  0  0  0  0  0  0  0  0  0
   -6.4579    0.5496   -0.4701 C   0  0  0  0  0  0  0  0  0  0  0  0
    7.0980   -3.6388    0.0537 C   0  0  0  0  0  0  0  0  0  0  0  0
   -6.9934   -2.1825   -0.2929 C   0  0  0  0  0  0  0  0  0  0  0  0
   -7.7322    0.0678   -0.7696 C   0  0  0  0  0  0  0  0  0  0  0  0
   -8.0000   -1.2983   -0.6810 C   0  0  0  0  0  0  0  0  0  0  0  0
    2.4978    2.0676    1.1002 H   0  0  0  0  0  0  0  0  0  0  0  0
    0.2887    1.7656   -0.9727 H   0  0  0  0  0  0  0  0  0  0  0  0
    2.8080    3.5178   -0.9508 H   0  0  0  0  0  0  0  0  0  0  0  0
    2.6277    2.0777   -1.9514 H   0  0  0  0  0  0  0  0  0  0  0  0
    1.7514   -0.1638   -0.8527 H   0  0  0  0  0  0  0  0  0  0  0  0
    1.8645   -0.2561    0.9131 H   0  0  0  0  0  0  0  0  0  0  0  0
    4.7874    2.7270    0.1051 H   0  0  0  0  0  0  0  0  0  0  0  0
    4.9542    2.5138   -1.6473 H   0  0  0  0  0  0  0  0  0  0  0  0
   -0.6112    3.8766    0.3025 H   0  0  0  0  0  0  0  0  0  0  0  0
    0.7120    4.1196   -0.8284 H   0  0  0  0  0  0  0  0  0  0  0  0
    1.0253    4.0489    0.9182 H   0  0  0  0  0  0  0  0  0  0  0  0
   -2.8131    1.2406    2.3669 H   0  0  0  0  0  0  0  0  0  0  0  0
   -1.6546   -0.0808    2.5415 H   0  0  0  0  0  0  0  0  0  0  0  0
   -1.7849    0.5427   -1.1574 H   0  0  0  0  0  0  0  0  0  0  0  0
   -1.7641    2.2951   -0.9135 H   0  0  0  0  0  0  0  0  0  0  0  0
   -2.7618   -1.3467    0.7072 H   0  0  0  0  0  0  0  0  0  0  0  0
   -3.8987   -0.9509    2.0138 H   0  0  0  0  0  0  0  0  0  0  0  0
   -3.9530    2.2501    0.1921 H   0  0  0  0  0  0  0  0  0  0  0  0
   -4.0241    1.5009   -1.4152 H   0  0  0  0  0  0  0  0  0  0  0  0
    7.4228   -1.3686   -0.5133 H   0  0  0  0  0  0  0  0  0  0  0  0
    3.3735   -3.5823    0.4499 H   0  0  0  0  0  0  0  0  0  0  0  0
    2.7223   -2.3781    1.5646 H   0  0  0  0  0  0  0  0  0  0  0  0
    2.1517   -2.4767   -0.1258 H   0  0  0  0  0  0  0  0  0  0  0  0
    8.1483    0.7027   -0.9418 H   0  0  0  0  0  0  0  0  0  0  0  0
    7.0461    1.4856   -2.0762 H   0  0  0  0  0  0  0  0  0  0  0  0
    7.1788    2.0579   -0.3873 H   0  0  0  0  0  0  0  0  0  0  0  0
   -4.9559   -2.4207    0.2933 H   0  0  0  0  0  0  0  0  0  0  0  0
   -6.2902    1.6223   -0.5367 H   0  0  0  0  0  0  0  0  0  0  0  0
    7.7420   -3.1145    0.7680 H   0  0  0  0  0  0  0  0  0  0  0  0
    7.4265   -3.5076   -0.9830 H   0  0  0  0  0  0  0  0  0  0  0  0
    7.1828   -4.7073    0.2783 H   0  0  0  0  0  0  0  0  0  0  0  0
   -7.2019   -3.2462   -0.2269 H   0  0  0  0  0  0  0  0  0  0  0  0
   -8.5172    0.7560   -1.0689 H   0  0  0  0  0  0  0  0  0  0  0  0
  1 31  1  0  0  0  0
  2 13  2  0  0  0  0
  3 21  1  0  0  0  0
  3 28  1  0  0  0  0
  4 13  1  0  0  0  0
  4 17  1  0  0  0  0
  4 18  1  0  0  0  0
  5 19  1  0  0  0  0
  5 20  1  0  0  0  0
  5 25  1  0  0  0  0
  6  7  1  0  0  0  0
  6  8  1  0  0  0  0
  6  9  1  0  0  0  0
  6 32  1  0  0  0  0
  7 13  1  0  0  0  0
  7 14  1  0  0  0  0
  7 33  1  0  0  0  0
  8 10  1  0  0  0  0
  8 34  1  0  0  0  0
  8 35  1  0  0  0  0
  9 11  1  0  0  0  0
  9 36  1  0  0  0  0
  9 37  1  0  0  0  0
 10 12  1  0  0  0  0
 10 38  1  0  0  0  0
 10 39  1  0  0  0  0
 11 12  2  0  0  0  0
 11 15  1  0  0  0  0
 12 16  1  0  0  0  0
 14 40  1  0  0  0  0
 14 41  1  0  0  0  0
 14 42  1  0  0  0  0
 15 21  2  0  0  0  0
 15 23  1  0  0  0  0
 16 22  2  0  0  0  0
 16 24  1  0  0  0  0
 17 19  1  0  0  0  0
 17 43  1  0  0  0  0
 17 44  1  0  0  0  0
 18 20  1  0  0  0  0
 18 45  1  0  0  0  0
 18 46  1  0  0  0  0
 19 47  1  0  0  0  0
 19 48  1  0  0  0  0
 20 49  1  0  0  0  0
 20 50  1  0  0  0  0
 21 22  1  0  0  0  0
 22 51  1  0  0  0  0
 23 52  1  0  0  0  0
 23 53  1  0  0  0  0
 23 54  1  0  0  0  0
 24 55  1  0  0  0  0
 24 56  1  0  0  0  0
 24 57  1  0  0  0  0
 25 26  2  0  0  0  0
 25 27  1  0  0  0  0
 26 29  1  0  0  0  0
 26 58  1  0  0  0  0
 27 30  2  0  0  0  0
 27 59  1  0  0  0  0
 28 60  1  0  0  0  0
 28 61  1  0  0  0  0
 28 62  1  0  0  0  0
 29 31  2  0  0  0  0
 29 63  1  0  0  0  0
 30 31  1  0  0  0  0
 30 64  1  0  0  0  0
M  END
> <PUBCHEM_COMPOUND_CID>
7051565

> <PUBCHEM_CONFORMER_RMSD>
1

> <PUBCHEM_CONFORMER_DIVERSEORDER>
1
11
13
5
15
18
4
2
20
9
10
8
17
19
7
21
3
16
12
6
14

> <PUBCHEM_MMFF94_PARTIAL_CHARGES>
33
1 -0.19
10 0.14
11 -0.14
12 -0.14
13 0.57
15 -0.14
16 -0.14
17 0.3
18 0.3
19 0.37
2 -0.57
20 0.37
21 0.08
22 -0.15
23 0.14
24 0.14
25 0.1
26 -0.15
27 -0.15
28 0.28
29 -0.15
3 -0.36
30 -0.15
31 0.19
4 -0.66
5 -0.84
51 0.15
58 0.15
59 0.15
63 0.15
64 0.15
7 0.06
9 0.14

> <PUBCHEM_EFFECTIVE_ROTOR_COUNT>
7

> <PUBCHEM_PHARMACOPHORE_FEATURES>
8
1 14 hydrophobe
1 2 acceptor
1 3 acceptor
1 5 cation
6 11 12 15 16 21 22 rings
6 25 26 27 29 30 31 rings
6 4 5 17 18 19 20 rings
6 6 8 9 10 11 12 rings

> <PUBCHEM_HEAVY_ATOM_COUNT>
31

> <PUBCHEM_ATOM_DEF_STEREO_COUNT>
2

> <PUBCHEM_ATOM_UDEF_STEREO_COUNT>
0

> <PUBCHEM_BOND_DEF_STEREO_COUNT>
0

> <PUBCHEM_BOND_UDEF_STEREO_COUNT>
0

> <PUBCHEM_ISOTOPIC_ATOM_COUNT>
0

> <PUBCHEM_COMPONENT_COUNT>
1

> <PUBCHEM_CACTVS_TAUTO_COUNT>
1

> <PUBCHEM_CONFORMER_ID>
006B992D00000001

> <PUBCHEM_MMFF94_ENERGY>
108.6607

> <PUBCHEM_FEATURE_SELFOVERLAP>
40.618

> <PUBCHEM_SHAPE_FINGERPRINT>
10 15 11240000066308249429
10066227 49 18410291411338774863
10258705 36 18042698359262999747
10299344 5 18342742927523901021
10670039 82 16443053990330536677
10693767 8 18408318874282315730
117089 54 17914063001709318214
12144603 126 18272384065486256513
12522641 33 18193555795389206656
12539765 74 11241969256973912384
12838863 1 18187356581586226250
13248334 5 18124031488304299289
13668630 136 18060427914559150164
13782708 43 18341328964023463237
14068700 675 18338234843787253976
14347332 77 18410570670218044097
14931854 50 17821728295403007611
15064986 266 18041859310860846337
15082195 135 17749403593655790156
15119646 104 18412271609693353985
15183329 4 18333167272072830417
15198563 99 17023174986778017277
15320294 125 17632854244081654453
15352257 5 18411417341452618535
15483637 11 17975701902344956770
15510800 12 17988647324648189094
17134984 74 18334011717966381922
19301676 85 18261397706420629226
19315092 285 17988641861908354368
19841028 212 18410572860377091146
20028762 73 18269558248205970038
2026 5 18343862226262033623
20567600 247 18341611542627277931
208703 8 18340200774815071646
21033648 29 8790591569077258044
21344244 78 15195287546926495937
21521239 73 18260548918097856482
21639891 77 17131552739694856001
21641784 216 15357963544142453069
221357 26 18186800283545401485
22224240 67 11167943554782097341
23522609 53 18055385572005707441
23559900 14 18337105782916610129
23569943 247 18411419476167844931
2838139 119 11530765946248823403
3004659 81 18260827120177891433
3383291 50 15841554115704581903
397830 11 10087640442651663669
4046055 25 18260269607490355684
4098825 35 18260264123417874829
439807 62 18411981360578576799
45266715 3 17603586310230193314
46194498 28 17604148232853000348
5028188 123 17916323649814262356
5104073 3 12534810205068996421
513532 50 18261381300066824240
54039377 194 18343022147469306142
5718773 13 18411980222085325578
5874358 3 16557602288859963935
5951187 136 10737582583552385034
59682541 35 11743841400603349725
59682541 52 18259987106094802389
6695519 79 17114969123445498545
96874 4 18201715163424532743
9689198 14 7997682129760095963

> <PUBCHEM_SHAPE_MULTIPOLES>
608.99
24.66
3.58
1.14
30.93
1.09
0.45
19.32
-9.21
-5.34
-0.08
0.52
-0.31
-1.59

> <PUBCHEM_SHAPE_SELFOVERLAP>
1302.526

> <PUBCHEM_SHAPE_VOLUME>
341.2

> <PUBCHEM_COORDINATE_TYPE>
2
5
10

$$$$
