11884262
  -OEChem-12032416133D

 50 53  0     1  0  0  0  0  0999 V2000
    6.4825   -2.5079   -2.2763 Cl  0  0  0  0  0  0  0  0  0  0  0  0
   -3.4800   -0.7841    1.9296 O   0  0  0  0  0  0  0  0  0  0  0  0
   -0.1750    2.1047   -1.0137 O   0  0  0  0  0  0  0  0  0  0  0  0
   -6.4699   -1.6051   -0.5596 O   0  0  0  0  0  0  0  0  0  0  0  0
   -8.3465    0.0188   -0.3466 O   0  0  0  0  0  0  0  0  0  0  0  0
    4.4881    1.8171    1.1629 O   0  0  0  0  0  0  0  0  0  0  0  0
   -1.9249    0.6500   -0.5966 N   0  0  0  0  0  0  0  0  0  0  0  0
   -4.7382   -0.0530   -0.6877 N   0  0  0  0  0  0  0  0  0  0  0  0
   -1.2089   -0.6385    1.9688 N   0  0  0  0  0  0  0  0  0  0  0  0
   -2.3646   -0.6833   -0.2090 C   0  0  2  0  0  0  0  0  0  0  0  0
   -3.7020   -1.0750   -0.8497 C   0  0  0  0  0  0  0  0  0  0  0  0
   -2.9019    1.5127   -1.2627 C   0  0  0  0  0  0  0  0  0  0  0  0
   -4.2982    1.3441   -0.6823 C   0  0  0  0  0  0  0  0  0  0  0  0
   -2.4195   -0.6763    1.3105 C   0  0  0  0  0  0  0  0  0  0  0  0
   -0.5967    1.0585   -0.5181 C   0  0  0  0  0  0  0  0  0  0  0  0
    0.3740    0.2125    0.2265 C   0  0  0  0  0  0  0  0  0  0  0  0
    0.0786   -0.4692    1.4183 C   0  0  0  0  0  0  0  0  0  0  0  0
   -6.0753   -0.4420   -0.5582 C   0  0  0  0  0  0  0  0  0  0  0  0
    1.7062    0.2670   -0.2240 C   0  0  0  0  0  0  0  0  0  0  0  0
    1.1339   -1.0192    2.1670 C   0  0  0  0  0  0  0  0  0  0  0  0
    2.7344   -0.3266    0.5068 C   0  0  0  0  0  0  0  0  0  0  0  0
   -7.0911    0.6480   -0.4251 C   0  0  0  0  0  0  0  0  0  0  0  0
    2.4500   -0.9582    1.7104 C   0  0  0  0  0  0  0  0  0  0  0  0
    4.0970   -0.2641    0.0248 C   0  0  0  0  0  0  0  0  0  0  0  0
    4.9308    0.8024    0.3663 C   0  0  0  0  0  0  0  0  0  0  0  0
    4.5787   -1.2879   -0.7932 C   0  0  0  0  0  0  0  0  0  0  0  0
    6.2416    0.8450   -0.1084 C   0  0  0  0  0  0  0  0  0  0  0  0
    5.8897   -1.2453   -1.2678 C   0  0  0  0  0  0  0  0  0  0  0  0
    6.7210   -0.1787   -0.9255 C   0  0  0  0  0  0  0  0  0  0  0  0
    3.8862    2.9338    0.5128 C   0  0  0  0  0  0  0  0  0  0  0  0
   -1.6143   -1.4198   -0.5225 H   0  0  0  0  0  0  0  0  0  0  0  0
   -3.5697   -1.2059   -1.9310 H   0  0  0  0  0  0  0  0  0  0  0  0
   -4.0558   -2.0326   -0.4513 H   0  0  0  0  0  0  0  0  0  0  0  0
   -2.8914    1.2433   -2.3260 H   0  0  0  0  0  0  0  0  0  0  0  0
   -2.5877    2.5594   -1.1888 H   0  0  0  0  0  0  0  0  0  0  0  0
   -4.3218    1.6793    0.3613 H   0  0  0  0  0  0  0  0  0  0  0  0
   -5.0044    1.9608   -1.2447 H   0  0  0  0  0  0  0  0  0  0  0  0
   -1.2444   -0.8570    2.9617 H   0  0  0  0  0  0  0  0  0  0  0  0
    1.9454    0.7874   -1.1505 H   0  0  0  0  0  0  0  0  0  0  0  0
    0.9349   -1.5306    3.1071 H   0  0  0  0  0  0  0  0  0  0  0  0
   -7.0836    1.3102   -1.2939 H   0  0  0  0  0  0  0  0  0  0  0  0
   -6.9182    1.2186    0.4908 H   0  0  0  0  0  0  0  0  0  0  0  0
    3.2379   -1.4132    2.3059 H   0  0  0  0  0  0  0  0  0  0  0  0
    3.9330   -2.1217   -1.0628 H   0  0  0  0  0  0  0  0  0  0  0  0
   -8.5298   -0.3896   -1.2101 H   0  0  0  0  0  0  0  0  0  0  0  0
    6.8953    1.6723    0.1544 H   0  0  0  0  0  0  0  0  0  0  0  0
    7.7447   -0.1322   -1.2881 H   0  0  0  0  0  0  0  0  0  0  0  0
    4.6307    3.7289    0.4110 H   0  0  0  0  0  0  0  0  0  0  0  0
    3.0670    3.2979    1.1388 H   0  0  0  0  0  0  0  0  0  0  0  0
    3.4912    2.6828   -0.4770 H   0  0  0  0  0  0  0  0  0  0  0  0
  1 28  1  0  0  0  0
  2 14  2  0  0  0  0
  3 15  2  0  0  0  0
  4 18  2  0  0  0  0
  5 22  1  0  0  0  0
  5 45  1  0  0  0  0
  6 25  1  0  0  0  0
  6 30  1  0  0  0  0
  7 10  1  0  0  0  0
  7 12  1  0  0  0  0
  7 15  1  0  0  0  0
  8 11  1  0  0  0  0
  8 13  1  0  0  0  0
  8 18  1  0  0  0  0
  9 14  1  0  0  0  0
  9 17  1  0  0  0  0
  9 38  1  0  0  0  0
 10 11  1  0  0  0  0
 10 14  1  0  0  0  0
 10 31  1  0  0  0  0
 11 32  1  0  0  0  0
 11 33  1  0  0  0  0
 12 13  1  0  0  0  0
 12 34  1  0  0  0  0
 12 35  1  0  0  0  0
 13 36  1  0  0  0  0
 13 37  1  0  0  0  0
 15 16  1  0  0  0  0
 16 17  2  0  0  0  0
 16 19  1  0  0  0  0
 17 20  1  0  0  0  0
 18 22  1  0  0  0  0
 19 21  2  0  0  0  0
 19 39  1  0  0  0  0
 20 23  2  0  0  0  0
 20 40  1  0  0  0  0
 21 23  1  0  0  0  0
 21 24  1  0  0  0  0
 22 41  1  0  0  0  0
 22 42  1  0  0  0  0
 23 43  1  0  0  0  0
 24 25  2  0  0  0  0
 24 26  1  0  0  0  0
 25 27  1  0  0  0  0
 26 28  2  0  0  0  0
 26 44  1  0  0  0  0
 27 29  2  0  0  0  0
 27 46  1  0  0  0  0
 28 29  1  0  0  0  0
 29 47  1  0  0  0  0
 30 48  1  0  0  0  0
 30 49  1  0  0  0  0
 30 50  1  0  0  0  0
M  END
> <PUBCHEM_COMPOUND_CID>
11884262

> <PUBCHEM_CONFORMER_RMSD>
0.8

> <PUBCHEM_CONFORMER_DIVERSEORDER>
1
11
21
23
10
17
20
12
14
9
5
4
19
8
22
6
7
2
24
16
15
3
13
18

> <PUBCHEM_MMFF94_PARTIAL_CHARGES>
36
1 -0.18
10 0.36
11 0.3
12 0.3
13 0.3
14 0.57
15 0.54
16 0.09
17 0.12
18 0.57
19 -0.15
2 -0.57
20 -0.15
22 0.34
23 -0.15
25 0.08
26 -0.15
27 -0.15
28 0.18
29 -0.15
3 -0.57
30 0.28
38 0.37
39 0.15
4 -0.57
40 0.15
43 0.15
44 0.15
45 0.4
46 0.15
47 0.15
5 -0.68
6 -0.36
7 -0.66
8 -0.66
9 -0.55

> <PUBCHEM_EFFECTIVE_ROTOR_COUNT>
5

> <PUBCHEM_PHARMACOPHORE_FEATURES>
11
1 2 acceptor
1 3 acceptor
1 4 acceptor
1 5 acceptor
1 5 donor
1 6 acceptor
1 9 donor
6 16 17 19 20 21 23 rings
6 24 25 26 27 28 29 rings
6 7 8 10 11 12 13 rings
7 7 9 10 14 15 16 17 rings

> <PUBCHEM_HEAVY_ATOM_COUNT>
30

> <PUBCHEM_ATOM_DEF_STEREO_COUNT>
1

> <PUBCHEM_ATOM_UDEF_STEREO_COUNT>
0

> <PUBCHEM_BOND_DEF_STEREO_COUNT>
0

> <PUBCHEM_BOND_UDEF_STEREO_COUNT>
0

> <PUBCHEM_ISOTOPIC_ATOM_COUNT>
0

> <PUBCHEM_COMPONENT_COUNT>
1

> <PUBCHEM_CACTVS_TAUTO_COUNT>
3

> <PUBCHEM_CONFORMER_ID>
00B556E600000001

> <PUBCHEM_MMFF94_ENERGY>
111.9199

> <PUBCHEM_FEATURE_SELFOVERLAP>
55.872

> <PUBCHEM_SHAPE_FINGERPRINT>
10 15 14201120102722733307
10670039 82 17023187059872666862
10906281 52 16515692104478835387
11409948 35 17560242389231741959
11607047 74 17695893811980923933
12166972 35 17632576071581813904
13533116 47 17604415319841964346
13540713 5 17316470705155107096
13782708 43 17418082252735578615
13914758 101 17632303337327514257
14114211 68 16805892792709564794
14294032 229 16660922163138759013
14767858 380 17312823766671832887
14931854 50 17676200243781219415
15082195 135 17313395513166721310
15131766 46 13119154550434088110
15183329 4 18272933791319424923
16728300 4 15696603134770430238
17844677 252 18201723933673852396
1813 80 15123510337302488976
18608769 82 17023191561051166499
19319366 153 16226316054523018531
19841028 212 17418097560258010830
20105231 36 18260275140204369235
21033648 29 17895753040830010448
21267235 1 18260832609836938901
21344244 181 18411986845094318246
22061861 79 18131071515701574134
221357 26 18411136922932542800
23198884 109 18272371958410603745
23516275 100 17971463237807499852
23516275 137 17559978574723482055
23559900 14 17346023576138895475
23569914 152 17400906510857057214
23569917 315 16588021273736711298
23569943 247 18048036277086902762
3004659 81 17704070686107866714
34797466 226 18412542132872789852
3633792 109 18059577962565004203
4093350 32 18201152256494520368
4098825 35 18059577936605439225
4340502 62 13117995574598450969
439807 62 17132117922297631103
46194498 28 18342173376195515028
465052 167 15195284269803111934
53794403 172 17532377654684989716
54039377 194 16486703451218396606
57527295 17 18048329843187179114
5758199 1 17313384501097304105
59755656 215 18040152911832574690
6081469 158 17275384279671825681
70251023 43 18131072581106560632

> <PUBCHEM_SHAPE_MULTIPOLES>
574.97
19.26
1.99
1.76
12.15
0.45
-0.83
-4.91
8.28
-3.12
0.76
-0.39
-0.49
2.09

> <PUBCHEM_SHAPE_SELFOVERLAP>
1248.402

> <PUBCHEM_SHAPE_VOLUME>
311.6

> <PUBCHEM_COORDINATE_TYPE>
2
5
10

$$$$
