26745105
  -OEChem-12032416403D

 59 63  0     1  0  0  0  0  0999 V2000
   -3.5136    1.2944    1.0693 O   0  0  0  0  0  0  0  0  0  0  0  0
    0.0144    1.7189    1.4130 O   0  0  0  0  0  0  0  0  0  0  0  0
   -6.1240   -0.3946    1.3502 O   0  0  0  0  0  0  0  0  0  0  0  0
   -7.0670   -0.5390   -0.7095 O   0  0  0  0  0  0  0  0  0  0  0  0
   -2.1040   -0.3054    0.1283 N   0  0  0  0  0  0  0  0  0  0  0  0
   -0.9187   -3.5312   -1.3233 N   0  0  0  0  0  0  0  0  0  0  0  0
   -0.4735   -4.0712    0.7985 N   0  0  0  0  0  0  0  0  0  0  0  0
    1.2313   -0.0490    0.7725 N   0  0  0  0  0  0  0  0  0  0  0  0
    1.3045    2.2039    1.1634 N   0  0  0  0  0  0  0  0  0  0  0  0
   -5.0248    1.8069   -1.1478 C   0  0  0  0  0  0  0  0  0  0  0  0
   -1.2433   -0.3892    1.3582 C   0  0  1  0  0  0  0  0  0  0  0  0
   -3.9226    0.7299   -1.1947 C   0  0  0  0  0  0  0  0  0  0  0  0
   -1.1082   -1.8598    1.8589 C   0  0  0  0  0  0  0  0  0  0  0  0
   -1.7098   -1.1235   -1.0523 C   0  0  0  0  0  0  0  0  0  0  0  0
   -3.1681    0.6062    0.1058 C   0  0  0  0  0  0  0  0  0  0  0  0
   -1.2121   -2.4290   -0.5772 C   0  0  0  0  0  0  0  0  0  0  0  0
   -0.9276   -2.7849    0.7183 C   0  0  0  0  0  0  0  0  0  0  0  0
   -6.0666    1.5576   -0.0311 C   0  0  0  0  0  0  0  0  0  0  0  0
   -5.7145    1.8323   -2.5271 C   0  0  0  0  0  0  0  0  0  0  0  0
   -4.3959    3.1977   -0.9146 C   0  0  0  0  0  0  0  0  0  0  0  0
    0.0582    0.3848    1.1591 C   0  0  0  0  0  0  0  0  0  0  0  0
   -0.4788   -4.4940   -0.4499 C   0  0  0  0  0  0  0  0  0  0  0  0
   -6.4753    0.1117    0.1422 C   0  0  0  0  0  0  0  0  0  0  0  0
    1.9631    1.1026    0.7902 C   0  0  0  0  0  0  0  0  0  0  0  0
    3.3515    1.1185    0.4307 C   0  0  0  0  0  0  0  0  0  0  0  0
    3.9866   -0.0639    0.0498 C   0  0  0  0  0  0  0  0  0  0  0  0
    4.0643    2.3135    0.4613 C   0  0  0  0  0  0  0  0  0  0  0  0
    5.3453   -0.0652   -0.3057 C   0  0  0  0  0  0  0  0  0  0  0  0
    6.0700    1.1500   -0.2745 C   0  0  0  0  0  0  0  0  0  0  0  0
    5.4146    2.3307    0.1113 C   0  0  0  0  0  0  0  0  0  0  0  0
    6.0006   -1.2459   -0.6915 C   0  0  0  0  0  0  0  0  0  0  0  0
    7.4288    1.1487   -0.6298 C   0  0  0  0  0  0  0  0  0  0  0  0
    7.3511   -1.2288   -1.0413 C   0  0  0  0  0  0  0  0  0  0  0  0
    8.0638   -0.0338   -1.0105 C   0  0  0  0  0  0  0  0  0  0  0  0
   -1.7611    0.1434    2.1676 H   0  0  0  0  0  0  0  0  0  0  0  0
   -4.3659   -0.2424   -1.4365 H   0  0  0  0  0  0  0  0  0  0  0  0
   -3.2032    0.9765   -1.9860 H   0  0  0  0  0  0  0  0  0  0  0  0
   -2.0325   -2.1446    2.3768 H   0  0  0  0  0  0  0  0  0  0  0  0
   -0.2825   -1.9533    2.5726 H   0  0  0  0  0  0  0  0  0  0  0  0
   -0.9214   -0.5744   -1.5781 H   0  0  0  0  0  0  0  0  0  0  0  0
   -2.5456   -1.2692   -1.7382 H   0  0  0  0  0  0  0  0  0  0  0  0
   -6.9865    2.1222   -0.2351 H   0  0  0  0  0  0  0  0  0  0  0  0
   -5.7344    1.9418    0.9400 H   0  0  0  0  0  0  0  0  0  0  0  0
   -6.1596    0.8627   -2.7731 H   0  0  0  0  0  0  0  0  0  0  0  0
   -5.0004    2.0772   -3.3220 H   0  0  0  0  0  0  0  0  0  0  0  0
   -6.5131    2.5821   -2.5591 H   0  0  0  0  0  0  0  0  0  0  0  0
   -3.9696    3.3340    0.0819 H   0  0  0  0  0  0  0  0  0  0  0  0
   -3.6021    3.3965   -1.6441 H   0  0  0  0  0  0  0  0  0  0  0  0
   -5.1511    3.9840   -1.0365 H   0  0  0  0  0  0  0  0  0  0  0  0
   -1.0054   -3.6257   -2.3266 H   0  0  0  0  0  0  0  0  0  0  0  0
   -0.1793   -5.4756   -0.7886 H   0  0  0  0  0  0  0  0  0  0  0  0
   -6.3963   -1.3319    1.4476 H   0  0  0  0  0  0  0  0  0  0  0  0
    3.4369   -1.0037    0.0226 H   0  0  0  0  0  0  0  0  0  0  0  0
    3.6032    3.2540    0.7525 H   0  0  0  0  0  0  0  0  0  0  0  0
    5.9525    3.2761    0.1423 H   0  0  0  0  0  0  0  0  0  0  0  0
    5.4637   -2.1917   -0.7229 H   0  0  0  0  0  0  0  0  0  0  0  0
    8.0055    2.0712   -0.6130 H   0  0  0  0  0  0  0  0  0  0  0  0
    7.8461   -2.1489   -1.3378 H   0  0  0  0  0  0  0  0  0  0  0  0
    9.1152   -0.0212   -1.2829 H   0  0  0  0  0  0  0  0  0  0  0  0
  1 15  2  0  0  0  0
  2  9  1  0  0  0  0
  2 21  1  0  0  0  0
  3 23  1  0  0  0  0
  3 52  1  0  0  0  0
  4 23  2  0  0  0  0
  5 11  1  0  0  0  0
  5 14  1  0  0  0  0
  5 15  1  0  0  0  0
  6 16  1  0  0  0  0
  6 22  1  0  0  0  0
  6 50  1  0  0  0  0
  7 17  1  0  0  0  0
  7 22  2  0  0  0  0
  8 21  2  0  0  0  0
  8 24  1  0  0  0  0
  9 24  2  0  0  0  0
 10 12  1  0  0  0  0
 10 18  1  0  0  0  0
 10 19  1  0  0  0  0
 10 20  1  0  0  0  0
 11 13  1  0  0  0  0
 11 21  1  0  0  0  0
 11 35  1  0  0  0  0
 12 15  1  0  0  0  0
 12 36  1  0  0  0  0
 12 37  1  0  0  0  0
 13 17  1  0  0  0  0
 13 38  1  0  0  0  0
 13 39  1  0  0  0  0
 14 16  1  0  0  0  0
 14 40  1  0  0  0  0
 14 41  1  0  0  0  0
 16 17  2  0  0  0  0
 18 23  1  0  0  0  0
 18 42  1  0  0  0  0
 18 43  1  0  0  0  0
 19 44  1  0  0  0  0
 19 45  1  0  0  0  0
 19 46  1  0  0  0  0
 20 47  1  0  0  0  0
 20 48  1  0  0  0  0
 20 49  1  0  0  0  0
 22 51  1  0  0  0  0
 24 25  1  0  0  0  0
 25 26  2  0  0  0  0
 25 27  1  0  0  0  0
 26 28  1  0  0  0  0
 26 53  1  0  0  0  0
 27 30  2  0  0  0  0
 27 54  1  0  0  0  0
 28 29  1  0  0  0  0
 28 31  2  0  0  0  0
 29 30  1  0  0  0  0
 29 32  2  0  0  0  0
 30 55  1  0  0  0  0
 31 33  1  0  0  0  0
 31 56  1  0  0  0  0
 32 34  1  0  0  0  0
 32 57  1  0  0  0  0
 33 34  2  0  0  0  0
 33 58  1  0  0  0  0
 34 59  1  0  0  0  0
M  END
> <PUBCHEM_COMPOUND_CID>
26745105

> <PUBCHEM_CONFORMER_RMSD>
1

> <PUBCHEM_CONFORMER_DIVERSEORDER>
1
94
95
67
78
54
34
52
130
142
32
26
109
122
84
47
25
99
51
138
81
96
74
27
88
128
49
79
106
125
70
110
126
131
28
23
11
29
111
93
129
98
66
86
87
103
4
145
72
136
60
127
22
19
121
144
42
113
36
71
146
100
115
80
13
92
35
132
24
85
140
75
137
133
139
20
55
112
105
37
102
116
16
83
38
56
118
123
59
108
101
149
5
120
90
148
15
141
41
53
45
30
9
18
147
97
82
57
31
143
77
2
10
63
58
89
12
50
150
135
40
8
39
65
6
76
7
69
68
107
61
117
43
21
48
46
44
64
73
104
119
124
17
62
114
3
14
33
134
91

> <PUBCHEM_MMFF94_PARTIAL_CHARGES>
39
1 -0.57
11 0.48
12 0.06
13 0.18
14 0.48
15 0.57
16 -0.33
17 0.05
18 0.06
2 -0.02
21 0.3
22 0.04
23 0.66
24 0.46
25 0.05
26 -0.15
27 -0.15
3 -0.65
30 -0.15
31 -0.15
32 -0.15
33 -0.15
34 -0.15
4 -0.57
5 -0.66
50 0.27
51 0.15
52 0.5
53 0.15
54 0.15
55 0.15
56 0.15
57 0.15
58 0.15
59 0.15
6 0.03
7 -0.57
8 -0.57
9 -0.41

> <PUBCHEM_EFFECTIVE_ROTOR_COUNT>
7.8

> <PUBCHEM_PHARMACOPHORE_FEATURES>
13
1 1 acceptor
1 3 acceptor
1 4 acceptor
1 6 donor
3 10 19 20 hydrophobe
3 3 4 23 anion
3 6 7 22 cation
3 8 9 24 cation
5 2 8 9 21 24 rings
5 6 7 16 17 22 rings
6 25 26 27 28 29 30 rings
6 28 29 31 32 33 34 rings
6 5 11 13 14 16 17 rings

> <PUBCHEM_HEAVY_ATOM_COUNT>
34

> <PUBCHEM_ATOM_DEF_STEREO_COUNT>
1

> <PUBCHEM_ATOM_UDEF_STEREO_COUNT>
0

> <PUBCHEM_BOND_DEF_STEREO_COUNT>
0

> <PUBCHEM_BOND_UDEF_STEREO_COUNT>
0

> <PUBCHEM_ISOTOPIC_ATOM_COUNT>
0

> <PUBCHEM_COMPONENT_COUNT>
1

> <PUBCHEM_CACTVS_TAUTO_COUNT>
2

> <PUBCHEM_CONFORMER_ID>
0198191100000001

> <PUBCHEM_MMFF94_ENERGY>
82.9564

> <PUBCHEM_FEATURE_SELFOVERLAP>
66.159

> <PUBCHEM_SHAPE_FINGERPRINT>
10 15 9223227430476904916
10369192 42 18260266331104677861
10391435 84 18273215336107232562
10670039 82 18114739343839044797
107951 10 17967535674739625882
10835480 77 18271804688074322648
11135609 201 13045950148925545868
11200772 48 18411980269635706846
11991303 11 18336264651725383759
12218070 45 12180429940683883529
12788726 201 17988081080808013176
14068700 675 12967125025640980762
14117953 113 18267861676268652270
14856354 85 16153714240604451888
15064986 266 18194126437238125806
15119646 104 16630532799865812500
15183329 4 18201433658156080652
15274700 21 18041568060412632363
15849732 13 18040438806024580637
15927050 60 18411414033679902339
16628084 112 18195246620659431478
17980427 23 12973882556113984319
18608769 82 18337956796178932883
19301676 85 18199478684208137790
19315092 285 13829574143082858062
19958102 18 18341606074674922495
20721686 146 15936959722872320031
21344244 246 18129945572518693151
21458453 9 11169917194800451598
22393880 68 18337105787411745194
23559900 14 18201438138614131376
23576562 1 18042689579446941221
24771293 8 12035448324865275363
249057 3 18410014356094271916
27425 322 17459196330019644066
3383291 50 18273496779785510610
340366 18 18261960751147407196
3729539 64 18270963444875816402
4015057 19 17417808495762409936
4058900 60 18262799536853693939
4073 2 18269273646708624976
4098825 35 18413107290175488486
4173938 306 18058430077053168968
4408954 64 15941230470695316395
44802255 64 18113905965754026374
4874694 18 18272366504419439496
50009960 94 10734148885859153653
513202 73 18046639077070486163
5265222 85 18408887369075393892
57527306 92 16805319985568874517
58260988 521 18264226832323431491
59755656 520 18343865541548744591
6523845 18 18342453768813716369
6669772 16 18343024367376651847

> <PUBCHEM_SHAPE_MULTIPOLES>
651.32
20.16
3.99
1.54
16.27
4.33
0.17
-10.2
8.52
-2.01
0.5
-1.48
-0.11
2.11

> <PUBCHEM_SHAPE_SELFOVERLAP>
1432.971

> <PUBCHEM_SHAPE_VOLUME>
350.2

> <PUBCHEM_COORDINATE_TYPE>
2
5
10

$$$$
