51137133
  -OEChem-12032416243D

 54 57  0     1  0  0  0  0  0999 V2000
    5.9356    1.1172   -0.0596 S   0  0  0  0  0  0  0  0  0  0  0  0
    0.8622   -1.5372   -1.1527 O   0  0  0  0  0  0  0  0  0  0  0  0
    6.7195    1.2420   -1.2797 O   0  0  0  0  0  0  0  0  0  0  0  0
    5.6092    2.3033    0.7173 O   0  0  0  0  0  0  0  0  0  0  0  0
   -3.3243   -0.6923    0.8644 N   0  0  1  0  0  0  0  0  0  0  0  0
    0.9034   -0.1979    0.6751 N   0  0  0  0  0  0  0  0  0  0  0  0
   -5.2006    0.7079    0.1190 C   0  0  0  0  0  0  0  0  0  0  0  0
   -4.2141    0.3957    1.2426 C   0  0  0  0  0  0  0  0  0  0  0  0
   -1.2436   -1.4250    0.0684 C   0  0  2  0  0  0  0  0  0  0  0  0
   -2.2180   -0.2405    0.0178 C   0  0  0  0  0  0  0  0  0  0  0  0
   -6.0774   -0.5139   -0.1874 C   0  0  0  0  0  0  0  0  0  0  0  0
   -6.0646    1.9240    0.4787 C   0  0  0  0  0  0  0  0  0  0  0  0
   -2.6830   -1.3156    2.0221 C   0  0  0  0  0  0  0  0  0  0  0  0
   -1.5711   -2.1425    1.3897 C   0  0  0  0  0  0  0  0  0  0  0  0
   -7.1086   -0.2099   -1.2719 C   0  0  0  0  0  0  0  0  0  0  0  0
   -7.0959    2.2239   -0.6068 C   0  0  0  0  0  0  0  0  0  0  0  0
   -7.9596    1.0048   -0.9148 C   0  0  0  0  0  0  0  0  0  0  0  0
    0.2004   -1.0072   -0.0863 C   0  0  0  0  0  0  0  0  0  0  0  0
    2.1363   -0.1850    0.0693 C   0  0  0  0  0  0  0  0  0  0  0  0
    2.1150   -1.0038   -1.0502 C   0  0  0  0  0  0  0  0  0  0  0  0
    3.3234    0.4864    0.3952 C   0  0  0  0  0  0  0  0  0  0  0  0
    3.1972   -1.2188   -1.8946 C   0  0  0  0  0  0  0  0  0  0  0  0
    4.4381    0.2943   -0.4340 C   0  0  0  0  0  0  0  0  0  0  0  0
    4.3737   -0.5418   -1.5555 C   0  0  0  0  0  0  0  0  0  0  0  0
    6.8040   -0.0133    1.0029 C   0  0  0  0  0  0  0  0  0  0  0  0
    8.1428    0.5451    1.4308 C   0  0  0  0  0  0  0  0  0  0  0  0
   -4.6421    0.9666   -0.7909 H   0  0  0  0  0  0  0  0  0  0  0  0
   -3.6522    1.2939    1.5305 H   0  0  0  0  0  0  0  0  0  0  0  0
   -4.7934    0.1032    2.1294 H   0  0  0  0  0  0  0  0  0  0  0  0
   -1.4890   -2.1146   -0.7520 H   0  0  0  0  0  0  0  0  0  0  0  0
   -1.7505    0.6721    0.4109 H   0  0  0  0  0  0  0  0  0  0  0  0
   -2.5374   -0.0449   -1.0113 H   0  0  0  0  0  0  0  0  0  0  0  0
   -6.5989   -0.8388    0.7222 H   0  0  0  0  0  0  0  0  0  0  0  0
   -5.4657   -1.3594   -0.5227 H   0  0  0  0  0  0  0  0  0  0  0  0
   -6.5838    1.7457    1.4292 H   0  0  0  0  0  0  0  0  0  0  0  0
   -5.4286    2.8053    0.6248 H   0  0  0  0  0  0  0  0  0  0  0  0
   -3.3756   -1.9439    2.5910 H   0  0  0  0  0  0  0  0  0  0  0  0
   -2.2517   -0.5658    2.6979 H   0  0  0  0  0  0  0  0  0  0  0  0
   -0.7102   -2.2322    2.0606 H   0  0  0  0  0  0  0  0  0  0  0  0
   -1.9320   -3.1559    1.1736 H   0  0  0  0  0  0  0  0  0  0  0  0
   -6.5943   -0.0285   -2.2237 H   0  0  0  0  0  0  0  0  0  0  0  0
   -7.7556   -1.0819   -1.4198 H   0  0  0  0  0  0  0  0  0  0  0  0
   -6.5810    2.5468   -1.5200 H   0  0  0  0  0  0  0  0  0  0  0  0
   -7.7337    3.0564   -0.2888 H   0  0  0  0  0  0  0  0  0  0  0  0
   -8.6404    1.2344   -1.7422 H   0  0  0  0  0  0  0  0  0  0  0  0
   -8.5830    0.7698   -0.0433 H   0  0  0  0  0  0  0  0  0  0  0  0
    3.3623    1.1260    1.2704 H   0  0  0  0  0  0  0  0  0  0  0  0
    3.1372   -1.8688   -2.7585 H   0  0  0  0  0  0  0  0  0  0  0  0
    5.2465   -0.6890   -2.1875 H   0  0  0  0  0  0  0  0  0  0  0  0
    6.9409   -0.9494    0.4532 H   0  0  0  0  0  0  0  0  0  0  0  0
    6.1730   -0.2000    1.8770 H   0  0  0  0  0  0  0  0  0  0  0  0
    8.6589   -0.1638    2.0854 H   0  0  0  0  0  0  0  0  0  0  0  0
    8.0231    1.4867    1.9763 H   0  0  0  0  0  0  0  0  0  0  0  0
    8.7858    0.7399    0.5666 H   0  0  0  0  0  0  0  0  0  0  0  0
  1  3  2  0  0  0  0
  1  4  2  0  0  0  0
  1 23  1  0  0  0  0
  1 25  1  0  0  0  0
  2 18  1  0  0  0  0
  2 20  1  0  0  0  0
  5  8  1  0  0  0  0
  5 10  1  0  0  0  0
  5 13  1  0  0  0  0
  6 18  2  0  0  0  0
  6 19  1  0  0  0  0
  7  8  1  0  0  0  0
  7 11  1  0  0  0  0
  7 12  1  0  0  0  0
  7 27  1  0  0  0  0
  8 28  1  0  0  0  0
  8 29  1  0  0  0  0
  9 10  1  0  0  0  0
  9 14  1  0  0  0  0
  9 18  1  0  0  0  0
  9 30  1  0  0  0  0
 10 31  1  0  0  0  0
 10 32  1  0  0  0  0
 11 15  1  0  0  0  0
 11 33  1  0  0  0  0
 11 34  1  0  0  0  0
 12 16  1  0  0  0  0
 12 35  1  0  0  0  0
 12 36  1  0  0  0  0
 13 14  1  0  0  0  0
 13 37  1  0  0  0  0
 13 38  1  0  0  0  0
 14 39  1  0  0  0  0
 14 40  1  0  0  0  0
 15 17  1  0  0  0  0
 15 41  1  0  0  0  0
 15 42  1  0  0  0  0
 16 17  1  0  0  0  0
 16 43  1  0  0  0  0
 16 44  1  0  0  0  0
 17 45  1  0  0  0  0
 17 46  1  0  0  0  0
 19 20  2  0  0  0  0
 19 21  1  0  0  0  0
 20 22  1  0  0  0  0
 21 23  2  0  0  0  0
 21 47  1  0  0  0  0
 22 24  2  0  0  0  0
 22 48  1  0  0  0  0
 23 24  1  0  0  0  0
 24 49  1  0  0  0  0
 25 26  1  0  0  0  0
 25 50  1  0  0  0  0
 25 51  1  0  0  0  0
 26 52  1  0  0  0  0
 26 53  1  0  0  0  0
 26 54  1  0  0  0  0
M  END
> <PUBCHEM_COMPOUND_CID>
51137133

> <PUBCHEM_CONFORMER_RMSD>
0.8

> <PUBCHEM_CONFORMER_DIVERSEORDER>
1
163
143
61
59
144
67
90
150
101
94
158
25
142
15
83
58
108
164
34
69
100
137
110
121
46
122
68
135
140
54
152
11
37
70
112
45
3
141
116
62
66
133
130
16
155
107
22
52
20
86
39
56
95
57
157
156
129
10
28
160
9
74
6
159
120
78
113
81
147
106
114
73
117
63
149
84
35
136
103
80
49
89
118
14
111
7
60
131
123
82
18
162
151
148
98
13
8
124
91
43
77
17
88
41
125
55
2
40
51
138
132
36
76
161
32
165
92
53
50
115
27
146
4
38
21
127
134
85
126
12
145
44
64
93
71
96
153
24
102
128
5
30
87
97
104
109
139
75
105
48
119
154
47
29
42
23
99
19
79
65
72
31
33
26

> <PUBCHEM_MMFF94_PARTIAL_CHARGES>
21
1 1.2
10 0.27
13 0.27
18 0.3
19 0.23
2 -0.28
20 0.14
21 -0.15
22 -0.15
23 -0.01
24 -0.15
25 0.11
3 -0.65
4 -0.65
47 0.15
48 0.15
49 0.15
5 -0.81
6 -0.57
8 0.27
9 0.18

> <PUBCHEM_EFFECTIVE_ROTOR_COUNT>
7.2

> <PUBCHEM_PHARMACOPHORE_FEATURES>
7
1 3 acceptor
1 4 acceptor
1 5 cation
5 2 6 18 19 20 rings
5 5 9 10 13 14 rings
6 19 20 21 22 23 24 rings
6 7 11 12 15 16 17 rings

> <PUBCHEM_HEAVY_ATOM_COUNT>
26

> <PUBCHEM_ATOM_DEF_STEREO_COUNT>
1

> <PUBCHEM_ATOM_UDEF_STEREO_COUNT>
0

> <PUBCHEM_BOND_DEF_STEREO_COUNT>
0

> <PUBCHEM_BOND_UDEF_STEREO_COUNT>
0

> <PUBCHEM_ISOTOPIC_ATOM_COUNT>
0

> <PUBCHEM_COMPONENT_COUNT>
1

> <PUBCHEM_CACTVS_TAUTO_COUNT>
1

> <PUBCHEM_CONFORMER_ID>
030C4A6D00000001

> <PUBCHEM_MMFF94_ENERGY>
28.2561

> <PUBCHEM_FEATURE_SELFOVERLAP>
35.658

> <PUBCHEM_SHAPE_FINGERPRINT>
10 15 15864073177985559676
10076449 9 16056594413842910271
10299344 5 9871748013963168753
10595046 47 16415488103638949515
10693767 8 15625122832378108972
11089746 13 18113900489575563927
11181472 205 17894918387103230276
11475781 23 18410297986495764511
11524674 6 12901551247773389113
12236239 1 15936416679417276186
12373685 5 18341037571514403870
12616971 3 14635156771378673538
12778500 126 17967809441151580928
1361 4 11383843657585159052
13673619 4 9079114449386673595
13685833 64 8070028861254716892
13782708 43 9583524178746156884
14123256 34 12031781470966913197
14251764 30 10303812073434084879
14347424 109 17821725049309642800
14556957 393 16128389193883011993
14767858 380 15770058328425459615
15003188 100 17846495967186569265
15142383 8 18186519908976545672
15183329 4 17060341799563490463
15238133 3 17386016082437088356
15301273 46 14996276999040263866
15348495 7 12540996113537795165
15352257 5 9223230749790552349
15461852 350 18335424612057048639
1577012 14 16009042712603761198
18335252 114 17846785118335454468
18335252 98 17632578284260202159
18365409 1 14188994753106813348
18643901 69 10159702421049100745
195137 95 17822565015526054437
20105231 36 13190337951165169056
20157964 124 18060142016082681046
2026 5 11743022199706015716
20554085 129 18340757191869970306
21033648 29 18042140812066010763
21130935 74 15719682060342479632
21150785 3 14333407857013794800
21267235 1 10231753401122060259
21403212 168 16588016892938471147
21521239 73 15123520194457875812
21585481 151 13623535644951138464
21591340 7 17240479226428145211
21774942 28 18339360751772665825
23081809 10 15984833584100368627
23559900 14 17970089788716856678
246663 6 8214142971262243400
2748736 6 18113341907836342437
2767999 5 17748828497623694399
2838139 119 18410291432623603209
3004659 81 13614515251772563131
3103668 31 16341714339364436887
312425 54 17095520760231062952
335352 9 17489317395718551884
4107672 100 12391528455740204683
445580 167 14620792721344911402
465052 167 11746933201124650320
5283384 27 18060135466589812040
5385378 56 17386000620492052427
5470011 282 15123510293862445221
5937810 71 17988364755404883729
6058803 2 15721952633094926006
9980921 7 17202753947629637104
999808 66 8286206045747220977

> <PUBCHEM_SHAPE_MULTIPOLES>
511.35
24.21
1.89
1.59
4.29
0.35
0.06
15.26
0.82
1.21
-0.24
-0.84
-0.48
1.4

> <PUBCHEM_SHAPE_SELFOVERLAP>
1073.051

> <PUBCHEM_SHAPE_VOLUME>
291

> <PUBCHEM_COORDINATE_TYPE>
2
5
10

$$$$
