44716812
  -OEChem-12032416173D

 68 73  0     1  0  0  0  0  0999 V2000
   -0.6835    2.3522   -1.1993 O   0  0  0  0  0  0  0  0  0  0  0  0
   -2.2405   -0.1913   -1.9201 O   0  0  0  0  0  0  0  0  0  0  0  0
    1.2752    0.4907   -1.8312 O   0  0  0  0  0  0  0  0  0  0  0  0
    2.3059   -0.3286    0.0384 O   0  0  0  0  0  0  0  0  0  0  0  0
    8.7484    0.6757    0.2173 O   0  0  0  0  0  0  0  0  0  0  0  0
   -9.5110   -3.2728   -0.8743 O   0  0  0  0  0  0  0  0  0  0  0  0
   -3.3004    2.3673    0.4792 N   0  0  0  0  0  0  0  0  0  0  0  0
   -5.1821    1.0177    0.6662 N   0  0  0  0  0  0  0  0  0  0  0  0
   -4.5605    2.5468    2.4221 N   0  0  0  0  0  0  0  0  0  0  0  0
    3.5057    0.7701   -1.6449 N   0  0  0  0  0  0  0  0  0  0  0  0
   -2.1668    0.5716   -0.6972 C   0  0  1  0  0  0  0  0  0  0  0  0
   -0.7379    1.0612   -0.5709 C   0  0  1  0  0  0  0  0  0  0  0  0
   -2.9773    1.8396   -0.8291 C   0  0  2  0  0  0  0  0  0  0  0  0
    0.0333    0.0255   -1.3534 C   0  0  1  0  0  0  0  0  0  0  0  0
   -2.0131    2.7672   -1.5480 C   0  0  0  0  0  0  0  0  0  0  0  0
   -0.9230   -0.3013   -2.4781 C   0  0  0  0  0  0  0  0  0  0  0  0
   -4.3962    1.9600    1.2211 C   0  0  0  0  0  0  0  0  0  0  0  0
    2.3777    0.2551   -1.0361 C   0  0  0  0  0  0  0  0  0  0  0  0
   -6.2378    0.6422    1.4177 C   0  0  0  0  0  0  0  0  0  0  0  0
   -5.6353    2.1243    3.1198 C   0  0  0  0  0  0  0  0  0  0  0  0
   -6.5169    1.1658    2.6636 C   0  0  0  0  0  0  0  0  0  0  0  0
    4.8376    0.7452   -1.1729 C   0  0  0  0  0  0  0  0  0  0  0  0
   -7.0826   -0.3678    0.8266 C   0  0  0  0  0  0  0  0  0  0  0  0
    5.8578    1.3209   -1.9304 C   0  0  0  0  0  0  0  0  0  0  0  0
    5.1318    0.1453    0.0517 C   0  0  0  0  0  0  0  0  0  0  0  0
   -8.4293   -0.0967    0.5841 C   0  0  0  0  0  0  0  0  0  0  0  0
   -6.5521   -1.6154    0.4978 C   0  0  0  0  0  0  0  0  0  0  0  0
    7.1719    1.2972   -1.4633 C   0  0  0  0  0  0  0  0  0  0  0  0
    6.4460    0.1214    0.5187 C   0  0  0  0  0  0  0  0  0  0  0  0
    7.4660    0.6973   -0.2387 C   0  0  0  0  0  0  0  0  0  0  0  0
   -9.2454   -1.0728    0.0124 C   0  0  0  0  0  0  0  0  0  0  0  0
   -7.3683   -2.5915   -0.0737 C   0  0  0  0  0  0  0  0  0  0  0  0
   -8.7149   -2.3204   -0.3164 C   0  0  0  0  0  0  0  0  0  0  0  0
    9.2250   -0.5139    0.7420 C   0  0  0  0  0  0  0  0  0  0  0  0
   -8.9035   -4.5259   -1.1856 C   0  0  0  0  0  0  0  0  0  0  0  0
    8.9822   -1.7160    0.0772 C   0  0  0  0  0  0  0  0  0  0  0  0
    9.9462   -0.5105    1.9360 C   0  0  0  0  0  0  0  0  0  0  0  0
    9.4608   -2.9147    0.6064 C   0  0  0  0  0  0  0  0  0  0  0  0
   10.4248   -1.7092    2.4651 C   0  0  0  0  0  0  0  0  0  0  0  0
   10.1823   -2.9112    1.8002 C   0  0  0  0  0  0  0  0  0  0  0  0
   -2.4677   -0.0902    0.1212 H   0  0  0  0  0  0  0  0  0  0  0  0
   -0.3944    1.1789    0.4609 H   0  0  0  0  0  0  0  0  0  0  0  0
   -3.8819    1.7243   -1.4371 H   0  0  0  0  0  0  0  0  0  0  0  0
    0.1435   -0.8833   -0.7457 H   0  0  0  0  0  0  0  0  0  0  0  0
   -2.1402    3.8241   -1.2939 H   0  0  0  0  0  0  0  0  0  0  0  0
   -2.1079    2.6629   -2.6346 H   0  0  0  0  0  0  0  0  0  0  0  0
   -0.8342    0.3986   -3.3166 H   0  0  0  0  0  0  0  0  0  0  0  0
   -0.7739   -1.3115   -2.8713 H   0  0  0  0  0  0  0  0  0  0  0  0
   -2.6758    3.0367    0.9144 H   0  0  0  0  0  0  0  0  0  0  0  0
    3.3638    1.2239   -2.5441 H   0  0  0  0  0  0  0  0  0  0  0  0
   -5.7721    2.5924    4.0888 H   0  0  0  0  0  0  0  0  0  0  0  0
   -7.3644    0.8548    3.2620 H   0  0  0  0  0  0  0  0  0  0  0  0
    5.6421    1.7915   -2.8862 H   0  0  0  0  0  0  0  0  0  0  0  0
    4.3947   -0.3151    0.6948 H   0  0  0  0  0  0  0  0  0  0  0  0
   -8.8615    0.8710    0.8279 H   0  0  0  0  0  0  0  0  0  0  0  0
   -5.5052   -1.8452    0.6825 H   0  0  0  0  0  0  0  0  0  0  0  0
    7.9623    1.7473   -2.0576 H   0  0  0  0  0  0  0  0  0  0  0  0
    6.6435   -0.3316    1.4868 H   0  0  0  0  0  0  0  0  0  0  0  0
  -10.2933   -0.8555   -0.1755 H   0  0  0  0  0  0  0  0  0  0  0  0
   -6.8918   -3.5384   -0.3039 H   0  0  0  0  0  0  0  0  0  0  0  0
   -9.6807   -5.1625   -1.6211 H   0  0  0  0  0  0  0  0  0  0  0  0
   -8.5428   -5.0331   -0.2843 H   0  0  0  0  0  0  0  0  0  0  0  0
   -8.1193   -4.4159   -1.9423 H   0  0  0  0  0  0  0  0  0  0  0  0
    8.4422   -1.7453   -0.8654 H   0  0  0  0  0  0  0  0  0  0  0  0
   10.1375    0.4228    2.4583 H   0  0  0  0  0  0  0  0  0  0  0  0
    9.2762   -3.8502    0.0864 H   0  0  0  0  0  0  0  0  0  0  0  0
   10.9864   -1.7066    3.3947 H   0  0  0  0  0  0  0  0  0  0  0  0
   10.5559   -3.8444    2.2115 H   0  0  0  0  0  0  0  0  0  0  0  0
  1 12  1  0  0  0  0
  1 15  1  0  0  0  0
  2 11  1  0  0  0  0
  2 16  1  0  0  0  0
  3 14  1  0  0  0  0
  3 18  1  0  0  0  0
  4 18  2  0  0  0  0
  5 30  1  0  0  0  0
  5 34  1  0  0  0  0
  6 33  1  0  0  0  0
  6 35  1  0  0  0  0
  7 13  1  0  0  0  0
  7 17  1  0  0  0  0
  7 49  1  0  0  0  0
  8 17  1  0  0  0  0
  8 19  2  0  0  0  0
  9 17  2  0  0  0  0
  9 20  1  0  0  0  0
 10 18  1  0  0  0  0
 10 22  1  0  0  0  0
 10 50  1  0  0  0  0
 11 12  1  0  0  0  0
 11 13  1  0  0  0  0
 11 41  1  0  0  0  0
 12 14  1  0  0  0  0
 12 42  1  0  0  0  0
 13 15  1  0  0  0  0
 13 43  1  0  0  0  0
 14 16  1  0  0  0  0
 14 44  1  0  0  0  0
 15 45  1  0  0  0  0
 15 46  1  0  0  0  0
 16 47  1  0  0  0  0
 16 48  1  0  0  0  0
 19 21  1  0  0  0  0
 19 23  1  0  0  0  0
 20 21  2  0  0  0  0
 20 51  1  0  0  0  0
 21 52  1  0  0  0  0
 22 24  2  0  0  0  0
 22 25  1  0  0  0  0
 23 26  2  0  0  0  0
 23 27  1  0  0  0  0
 24 28  1  0  0  0  0
 24 53  1  0  0  0  0
 25 29  2  0  0  0  0
 25 54  1  0  0  0  0
 26 31  1  0  0  0  0
 26 55  1  0  0  0  0
 27 32  2  0  0  0  0
 27 56  1  0  0  0  0
 28 30  2  0  0  0  0
 28 57  1  0  0  0  0
 29 30  1  0  0  0  0
 29 58  1  0  0  0  0
 31 33  2  0  0  0  0
 31 59  1  0  0  0  0
 32 33  1  0  0  0  0
 32 60  1  0  0  0  0
 34 36  2  0  0  0  0
 34 37  1  0  0  0  0
 35 61  1  0  0  0  0
 35 62  1  0  0  0  0
 35 63  1  0  0  0  0
 36 38  1  0  0  0  0
 36 64  1  0  0  0  0
 37 39  2  0  0  0  0
 37 65  1  0  0  0  0
 38 40  2  0  0  0  0
 38 66  1  0  0  0  0
 39 40  1  0  0  0  0
 39 67  1  0  0  0  0
 40 68  1  0  0  0  0
M  END
> <PUBCHEM_COMPOUND_CID>
44716812

> <PUBCHEM_CONFORMER_RMSD>
1.2

> <PUBCHEM_CONFORMER_DIVERSEORDER>
1
44
27
67
78
84
55
61
59
54
12
69
10
86
38
87
85
53
18
41
29
93
45
25
58
42
15
76
90
68
28
32
9
62
48
11
30
75
46
66
5
34
39
63
95
36
79
24
7
81
73
50
74
43
37
22
40
49
17
88
92
83
21
89
60
51
56
8
35
20
23
77
57
72
64
47
16
19
33
4
14
52
2
6
96
82
65
13
80
71
26
31
91
94
3
70

> <PUBCHEM_MMFF94_PARTIAL_CHARGES>
56
1 -0.56
10 -0.55
11 0.28
12 0.28
13 0.37
14 0.28
15 0.28
16 0.28
17 0.72
18 0.78
19 0.31
2 -0.56
20 0.16
21 -0.15
22 0.12
24 -0.15
25 -0.15
26 -0.15
27 -0.15
28 -0.15
29 -0.15
3 -0.43
30 0.08
31 -0.15
32 -0.15
33 0.08
34 0.08
35 0.28
36 -0.15
37 -0.15
38 -0.15
39 -0.15
4 -0.57
40 -0.15
49 0.4
5 -0.17
50 0.37
51 0.15
52 0.15
53 0.15
54 0.15
55 0.15
56 0.15
57 0.15
58 0.15
59 0.15
6 -0.36
60 0.15
64 0.15
65 0.15
66 0.15
67 0.15
68 0.15
7 -0.87
8 -0.62
9 -0.62

> <PUBCHEM_EFFECTIVE_ROTOR_COUNT>
11.2

> <PUBCHEM_PHARMACOPHORE_FEATURES>
15
1 1 acceptor
1 10 donor
1 2 acceptor
1 4 acceptor
1 5 acceptor
1 6 acceptor
1 7 donor
1 8 acceptor
4 7 8 9 17 cation
5 1 11 12 13 15 rings
5 2 11 12 14 16 rings
6 22 24 25 28 29 30 rings
6 23 26 27 31 32 33 rings
6 34 36 37 38 39 40 rings
6 8 9 17 19 20 21 rings

> <PUBCHEM_HEAVY_ATOM_COUNT>
40

> <PUBCHEM_ATOM_DEF_STEREO_COUNT>
4

> <PUBCHEM_ATOM_UDEF_STEREO_COUNT>
0

> <PUBCHEM_BOND_DEF_STEREO_COUNT>
0

> <PUBCHEM_BOND_UDEF_STEREO_COUNT>
0

> <PUBCHEM_ISOTOPIC_ATOM_COUNT>
0

> <PUBCHEM_COMPONENT_COUNT>
1

> <PUBCHEM_CACTVS_TAUTO_COUNT>
6

> <PUBCHEM_CONFORMER_ID>
02AA530C00000001

> <PUBCHEM_MMFF94_ENERGY>
148.6502

> <PUBCHEM_FEATURE_SELFOVERLAP>
76.842

> <PUBCHEM_SHAPE_FINGERPRINT>
10100884 174 18199466748530964767
10625338 86 15554450673618220834
10952577 141 7997706294275452835
11408170 108 17530688675589987147
11408170 132 7853570193855802270
11456790 92 17775564230933940800
11672396 167 13334998493241416256
12098696 120 15626225685047568672
13008946 119 15482665767513320174
13383668 254 12031500042676291494
13740195 50 17632856442888657027
16991971 28 15357707370944552908
16992727 255 11169902914904740567
16993089 31 16370728094096294442
1768 4 14548738400161869905
17852330 31 18412256269367671152
19302320 297 16845283965681056072
20156587 128 9079124363215372800
21033648 29 16056592146105524348
21792965 270 16343414124532812504
21792965 39 17846224311650303926
21867018 265 11602826800035054210
21895431 317 17676759870116250346
25025965 108 18113332003245937411
3711267 37 13686304573415608170
4339292 15 16370720410341630246
437795 160 17917994983537090491
4403749 210 17489597715170224621
44575985 377 15912751908592191959
45270241 37 11600013150724580844
4616759 239 17989495121380764835
474113 269 17603584140316640420
57676310 115 11386905794022250415
9962374 69 18113058238410489614

> <PUBCHEM_SHAPE_MULTIPOLES>
768.04
43.4
3.53
2.5
49.15
3.13
-1.12
40.15
-19.87
-6.25
0.16
-0.52
-0.94
-8.68

> <PUBCHEM_SHAPE_SELFOVERLAP>
1693.582

> <PUBCHEM_SHAPE_VOLUME>
411.5

> <PUBCHEM_COORDINATE_TYPE>
2
5
10

$$$$
