26742482
  -OEChem-12032416213D

 64 68  0     1  0  0  0  0  0999 V2000
   -5.7543    0.0106    2.2196 O   0  0  0  0  0  0  0  0  0  0  0  0
   -5.7587    2.2987   -0.4888 O   0  0  0  0  0  0  0  0  0  0  0  0
   -1.9482   -2.4065    1.4484 N   0  0  2  0  0  0  0  0  0  0  0  0
   -3.9996    0.6881    0.8605 N   0  0  0  0  0  0  0  0  0  0  0  0
    0.3197   -0.5295   -2.0380 N   0  0  0  0  0  0  0  0  0  0  0  0
    2.4011    0.6839   -1.9798 N   0  0  0  0  0  0  0  0  0  0  0  0
    7.8054    1.1939    1.2876 N   0  0  0  0  0  0  0  0  0  0  0  0
   -1.5805   -2.4739   -1.1290 C   0  0  2  0  0  0  0  0  0  0  0  0
   -0.2301   -2.2537   -0.3926 C   0  0  2  0  0  0  0  0  0  0  0  0
   -2.9054   -1.4902    0.7743 C   0  0  2  0  0  0  0  0  0  0  0  0
   -2.5687   -1.3589   -0.7266 C   0  0  0  0  0  0  0  0  0  0  0  0
   -2.1611   -3.8052   -0.6056 C   0  0  0  0  0  0  0  0  0  0  0  0
   -0.5544   -2.0235    1.1111 C   0  0  0  0  0  0  0  0  0  0  0  0
   -2.1897   -3.7753    0.9326 C   0  0  0  0  0  0  0  0  0  0  0  0
   -2.9884   -0.1256    1.4616 C   0  0  0  0  0  0  0  0  0  0  0  0
    0.7265   -1.2061   -0.9439 C   0  0  0  0  0  0  0  0  0  0  0  0
    1.9395   -0.9971   -0.3201 C   0  0  0  0  0  0  0  0  0  0  0  0
    2.7441   -0.0300   -0.8876 C   0  0  0  0  0  0  0  0  0  0  0  0
    1.1933    0.3873   -2.4963 C   0  0  0  0  0  0  0  0  0  0  0  0
   -5.3246    0.6929    1.2931 C   0  0  0  0  0  0  0  0  0  0  0  0
    4.0385    0.2833   -0.3311 C   0  0  0  0  0  0  0  0  0  0  0  0
    0.7798    1.1547   -3.7063 C   0  0  0  0  0  0  0  0  0  0  0  0
   -6.2588    1.5744    0.5467 C   0  0  0  0  0  0  0  0  0  0  0  0
    4.1406    0.7445    0.9813 C   0  0  0  0  0  0  0  0  0  0  0  0
    5.1876    0.1241   -1.1057 C   0  0  0  0  0  0  0  0  0  0  0  0
   -7.6040    1.8171    0.7011 C   0  0  0  0  0  0  0  0  0  0  0  0
    5.3915    1.0470    1.5191 C   0  0  0  0  0  0  0  0  0  0  0  0
    6.4386    0.4266   -0.5680 C   0  0  0  0  0  0  0  0  0  0  0  0
    6.5405    0.8880    0.7443 C   0  0  0  0  0  0  0  0  0  0  0  0
   -7.9529    2.7502   -0.3042 C   0  0  0  0  0  0  0  0  0  0  0  0
   -6.7959    3.0114   -1.0011 C   0  0  0  0  0  0  0  0  0  0  0  0
    7.9225    1.6742    2.6501 C   0  0  0  0  0  0  0  0  0  0  0  0
    9.0060    1.0247    0.4932 C   0  0  0  0  0  0  0  0  0  0  0  0
   -1.4544   -2.5132   -2.2161 H   0  0  0  0  0  0  0  0  0  0  0  0
    0.3246   -3.2013   -0.4748 H   0  0  0  0  0  0  0  0  0  0  0  0
   -3.9071   -1.9377    0.8575 H   0  0  0  0  0  0  0  0  0  0  0  0
   -2.1386   -0.3790   -0.9617 H   0  0  0  0  0  0  0  0  0  0  0  0
   -3.4892   -1.4534   -1.3161 H   0  0  0  0  0  0  0  0  0  0  0  0
   -1.5531   -4.6498   -0.9501 H   0  0  0  0  0  0  0  0  0  0  0  0
   -3.1738   -3.9512   -1.0006 H   0  0  0  0  0  0  0  0  0  0  0  0
    0.1340   -2.6217    1.7231 H   0  0  0  0  0  0  0  0  0  0  0  0
   -0.3702   -0.9865    1.4144 H   0  0  0  0  0  0  0  0  0  0  0  0
   -3.1561   -4.1473    1.2946 H   0  0  0  0  0  0  0  0  0  0  0  0
   -1.4387   -4.4640    1.3404 H   0  0  0  0  0  0  0  0  0  0  0  0
   -2.0495    0.4314    1.3818 H   0  0  0  0  0  0  0  0  0  0  0  0
   -3.2136   -0.2499    2.5272 H   0  0  0  0  0  0  0  0  0  0  0  0
   -3.7368    1.2801    0.0776 H   0  0  0  0  0  0  0  0  0  0  0  0
    2.2423   -1.5655    0.5514 H   0  0  0  0  0  0  0  0  0  0  0  0
   -0.3090    1.2595   -3.7466 H   0  0  0  0  0  0  0  0  0  0  0  0
    1.2169    2.1581   -3.6983 H   0  0  0  0  0  0  0  0  0  0  0  0
    1.1156    0.6326   -4.6071 H   0  0  0  0  0  0  0  0  0  0  0  0
    3.2563    0.8803    1.5999 H   0  0  0  0  0  0  0  0  0  0  0  0
    5.1279   -0.2380   -2.1296 H   0  0  0  0  0  0  0  0  0  0  0  0
   -8.2559    1.3787    1.4432 H   0  0  0  0  0  0  0  0  0  0  0  0
    5.4180    1.4034    2.5440 H   0  0  0  0  0  0  0  0  0  0  0  0
    7.3020    0.2855   -1.2106 H   0  0  0  0  0  0  0  0  0  0  0  0
   -8.9257    3.1789   -0.4969 H   0  0  0  0  0  0  0  0  0  0  0  0
   -6.5568    3.6456   -1.8422 H   0  0  0  0  0  0  0  0  0  0  0  0
    8.9658    1.8687    2.9226 H   0  0  0  0  0  0  0  0  0  0  0  0
    7.5470    0.9333    3.3647 H   0  0  0  0  0  0  0  0  0  0  0  0
    7.3850    2.6196    2.7843 H   0  0  0  0  0  0  0  0  0  0  0  0
    9.9054    1.3013    1.0548 H   0  0  0  0  0  0  0  0  0  0  0  0
    8.9858    1.6646   -0.3960 H   0  0  0  0  0  0  0  0  0  0  0  0
    9.1369   -0.0204    0.1912 H   0  0  0  0  0  0  0  0  0  0  0  0
  1 20  2  0  0  0  0
  2 23  1  0  0  0  0
  2 31  1  0  0  0  0
  3 10  1  0  0  0  0
  3 13  1  0  0  0  0
  3 14  1  0  0  0  0
  4 15  1  0  0  0  0
  4 20  1  0  0  0  0
  4 47  1  0  0  0  0
  5 16  2  0  0  0  0
  5 19  1  0  0  0  0
  6 18  1  0  0  0  0
  6 19  2  0  0  0  0
  7 29  1  0  0  0  0
  7 32  1  0  0  0  0
  7 33  1  0  0  0  0
  8  9  1  0  0  0  0
  8 11  1  0  0  0  0
  8 12  1  0  0  0  0
  8 34  1  0  0  0  0
  9 13  1  0  0  0  0
  9 16  1  0  0  0  0
  9 35  1  0  0  0  0
 10 11  1  0  0  0  0
 10 15  1  0  0  0  0
 10 36  1  0  0  0  0
 11 37  1  0  0  0  0
 11 38  1  0  0  0  0
 12 14  1  0  0  0  0
 12 39  1  0  0  0  0
 12 40  1  0  0  0  0
 13 41  1  0  0  0  0
 13 42  1  0  0  0  0
 14 43  1  0  0  0  0
 14 44  1  0  0  0  0
 15 45  1  0  0  0  0
 15 46  1  0  0  0  0
 16 17  1  0  0  0  0
 17 18  2  0  0  0  0
 17 48  1  0  0  0  0
 18 21  1  0  0  0  0
 19 22  1  0  0  0  0
 20 23  1  0  0  0  0
 21 24  2  0  0  0  0
 21 25  1  0  0  0  0
 22 49  1  0  0  0  0
 22 50  1  0  0  0  0
 22 51  1  0  0  0  0
 23 26  2  0  0  0  0
 24 27  1  0  0  0  0
 24 52  1  0  0  0  0
 25 28  2  0  0  0  0
 25 53  1  0  0  0  0
 26 30  1  0  0  0  0
 26 54  1  0  0  0  0
 27 29  2  0  0  0  0
 27 55  1  0  0  0  0
 28 29  1  0  0  0  0
 28 56  1  0  0  0  0
 30 31  2  0  0  0  0
 30 57  1  0  0  0  0
 31 58  1  0  0  0  0
 32 59  1  0  0  0  0
 32 60  1  0  0  0  0
 32 61  1  0  0  0  0
 33 62  1  0  0  0  0
 33 63  1  0  0  0  0
 33 64  1  0  0  0  0
M  END
> <PUBCHEM_COMPOUND_CID>
26742482

> <PUBCHEM_CONFORMER_RMSD>
1

> <PUBCHEM_CONFORMER_DIVERSEORDER>
1
65
36
29
81
52
78
23
32
45
72
43
16
76
56
69
54
91
11
59
21
27
63
13
41
57
42
93
68
88
4
90
53
9
83
51
89
87
73
15
26
66
40
10
34
47
77
14
62
60
75
50
25
92
44
18
22
19
61
46
24
85
8
86
39
79
6
35
55
3
38
48
70
17
80
64
5
82
58
84
31
67
74
2
12
30
49
71
33
20
28
7
37

> <PUBCHEM_MMFF94_PARTIAL_CHARGES>
38
1 -0.57
10 0.27
13 0.27
14 0.27
15 0.3
16 0.17
17 -0.15
18 0.31
19 0.48
2 -0.28
20 0.71
22 0.14
23 0.05
24 -0.15
25 -0.15
26 -0.15
27 -0.15
28 -0.15
29 0.1
3 -0.81
30 -0.15
31 -0.01
32 0.37
33 0.37
4 -0.73
47 0.37
48 0.15
5 -0.62
52 0.15
53 0.15
54 0.15
55 0.15
56 0.15
57 0.15
58 0.15
6 -0.62
7 -0.84
9 0.14

> <PUBCHEM_EFFECTIVE_ROTOR_COUNT>
8.2

> <PUBCHEM_PHARMACOPHORE_FEATURES>
11
1 1 acceptor
1 2 acceptor
1 3 cation
1 4 donor
1 5 acceptor
1 7 cation
3 5 6 19 cation
5 2 23 26 30 31 rings
6 21 24 25 27 28 29 rings
6 5 6 16 17 18 19 rings
8 3 8 9 10 11 12 13 14 rings

> <PUBCHEM_HEAVY_ATOM_COUNT>
33

> <PUBCHEM_ATOM_DEF_STEREO_COUNT>
3

> <PUBCHEM_ATOM_UDEF_STEREO_COUNT>
0

> <PUBCHEM_BOND_DEF_STEREO_COUNT>
0

> <PUBCHEM_BOND_UDEF_STEREO_COUNT>
0

> <PUBCHEM_ISOTOPIC_ATOM_COUNT>
0

> <PUBCHEM_COMPONENT_COUNT>
1

> <PUBCHEM_CACTVS_TAUTO_COUNT>
2

> <PUBCHEM_CONFORMER_ID>
01980ED200000001

> <PUBCHEM_MMFF94_ENERGY>
97.0646

> <PUBCHEM_FEATURE_SELFOVERLAP>
55.822

> <PUBCHEM_SHAPE_FINGERPRINT>
10190108 129 16371005162367955496
10305334 12 16732991929482963577
10554248 39 15195022543909149900
10939801 23 17386021588559561964
11374522 165 18043805390919210565
11399510 152 16012164303741524705
11973864 196 14907031938443209464
12107183 9 17240771708640884356
12403259 118 17822308898415670763
13103583 49 16443355307364934395
13150687 139 17988087682141273999
13540713 5 17388837540748420255
13911987 19 14764355959168955330
14040221 275 14057832739850411549
14040221 310 12463575092921109399
14767858 380 13614524047454109333
14950920 106 16372152081570412195
15350500 185 18341888572381837721
15669420 48 16630522952070064421
15684973 49 18265623271630028934
15721738 202 11169921588958624886
19246450 95 17022894615380942765
19315958 150 18408889504011574482
20567600 254 18340772555299738017
21033648 29 18335424547342018583
21304303 282 18342171207300990391
21344244 246 10591463037208295098
21585481 104 15553620487148753681
21859007 373 18116439145938993711
23522609 53 16879092891166648686
2838139 119 17346328046328109433
393628 179 18271799103931328185
393628 194 17846226561485355121
397638 26 18335139782357224633
4330586 98 13757489202571879045
4366758 6 18410011005745240485
4461854 278 13190347859528510608
4938544 92 18270398412169107638
5104073 3 17751082633725541070
5372103 7 17632294549803808345
54039377 194 8142082074405112152
54728670 133 16806144580735059172
58083652 198 16371280160227983620
6009941 240 18343301505237590810
6058803 2 17026865157463166774
6086070 43 16486965233353355442
636775 8 8790886302750146584
6691757 9 18041265647580428351
6695519 79 18050320045222822547
6697151 62 17057271873005440822
999808 66 13117996703905518800

> <PUBCHEM_SHAPE_MULTIPOLES>
642.48
23.51
3.53
2.47
12.75
2.53
1.33
-27.55
-11.81
-7.31
-0.22
1.67
-0.77
2.38

> <PUBCHEM_SHAPE_SELFOVERLAP>
1395.124

> <PUBCHEM_SHAPE_VOLUME>
347.3

> <PUBCHEM_COORDINATE_TYPE>
2
5
10

$$$$
