26744148
  -OEChem-12032416213D

 47 50  0     1  0  0  0  0  0999 V2000
   -4.1041   -4.8566    0.3223 F   0  0  0  0  0  0  0  0  0  0  0  0
   -3.6228    3.6511    2.2197 O   0  0  0  0  0  0  0  0  0  0  0  0
    0.6656    2.8377   -1.4460 O   0  0  0  0  0  0  0  0  0  0  0  0
    6.3552   -1.8427    0.6069 O   0  0  0  0  0  0  0  0  0  0  0  0
   -2.2859    1.1913   -0.0014 N   0  0  1  0  0  0  0  0  0  0  0  0
    0.6987    1.1005   -0.0327 N   0  0  0  0  0  0  0  0  0  0  0  0
    1.9783    2.3495   -1.4598 N   0  0  0  0  0  0  0  0  0  0  0  0
   -1.4871    2.3725   -0.3864 C   0  0  1  0  0  0  0  0  0  0  0  0
   -1.7258    3.3939    0.7412 C   0  0  0  0  0  0  0  0  0  0  0  0
   -2.7066    2.7138    1.6883 C   0  0  2  0  0  0  0  0  0  0  0  0
   -3.3965    1.6887    0.8084 C   0  0  0  0  0  0  0  0  0  0  0  0
   -2.7460    0.4120   -1.1433 C   0  0  0  0  0  0  0  0  0  0  0  0
   -0.0212    2.0467   -0.5806 C   0  0  0  0  0  0  0  0  0  0  0  0
   -3.1091   -0.9958   -0.7518 C   0  0  0  0  0  0  0  0  0  0  0  0
   -2.1420   -2.0005   -0.7867 C   0  0  0  0  0  0  0  0  0  0  0  0
   -4.4119   -1.2954   -0.3539 C   0  0  0  0  0  0  0  0  0  0  0  0
    1.9178    1.3262   -0.6024 C   0  0  0  0  0  0  0  0  0  0  0  0
    3.0569    0.5113   -0.2922 C   0  0  0  0  0  0  0  0  0  0  0  0
   -2.4781   -3.3048   -0.4242 C   0  0  0  0  0  0  0  0  0  0  0  0
   -4.7481   -2.5996    0.0086 C   0  0  0  0  0  0  0  0  0  0  0  0
   -3.7811   -3.6043   -0.0266 C   0  0  0  0  0  0  0  0  0  0  0  0
    2.9349   -0.5435    0.6124 C   0  0  0  0  0  0  0  0  0  0  0  0
    4.2869    0.7747   -0.8947 C   0  0  0  0  0  0  0  0  0  0  0  0
    4.0431   -1.3346    0.9149 C   0  0  0  0  0  0  0  0  0  0  0  0
    5.3954   -0.0163   -0.5922 C   0  0  0  0  0  0  0  0  0  0  0  0
    5.2734   -1.0710    0.3125 C   0  0  0  0  0  0  0  0  0  0  0  0
    6.1602   -2.9046    1.5399 C   0  0  0  0  0  0  0  0  0  0  0  0
   -1.8755    2.8061   -1.3189 H   0  0  0  0  0  0  0  0  0  0  0  0
   -0.8107    3.6707    1.2772 H   0  0  0  0  0  0  0  0  0  0  0  0
   -2.1538    4.3175    0.3319 H   0  0  0  0  0  0  0  0  0  0  0  0
   -2.1738    2.2242    2.5127 H   0  0  0  0  0  0  0  0  0  0  0  0
   -4.1852    2.1620    0.2087 H   0  0  0  0  0  0  0  0  0  0  0  0
   -3.8582    0.9100    1.4237 H   0  0  0  0  0  0  0  0  0  0  0  0
   -3.5848    0.8950   -1.6632 H   0  0  0  0  0  0  0  0  0  0  0  0
   -1.9507    0.3423   -1.8986 H   0  0  0  0  0  0  0  0  0  0  0  0
   -3.1089    4.3182    2.7062 H   0  0  0  0  0  0  0  0  0  0  0  0
   -1.1224   -1.7800   -1.0915 H   0  0  0  0  0  0  0  0  0  0  0  0
   -5.1770   -0.5241   -0.3274 H   0  0  0  0  0  0  0  0  0  0  0  0
   -1.7254   -4.0872   -0.4506 H   0  0  0  0  0  0  0  0  0  0  0  0
   -5.7627   -2.8335    0.3172 H   0  0  0  0  0  0  0  0  0  0  0  0
    1.9893   -0.7733    1.0974 H   0  0  0  0  0  0  0  0  0  0  0  0
    4.4203    1.5875   -1.6041 H   0  0  0  0  0  0  0  0  0  0  0  0
    3.8786   -2.1371    1.6257 H   0  0  0  0  0  0  0  0  0  0  0  0
    6.3513    0.1934   -1.0645 H   0  0  0  0  0  0  0  0  0  0  0  0
    7.1227   -3.4137    1.6558 H   0  0  0  0  0  0  0  0  0  0  0  0
    5.4494   -3.6471    1.1616 H   0  0  0  0  0  0  0  0  0  0  0  0
    5.8781   -2.5254    2.5279 H   0  0  0  0  0  0  0  0  0  0  0  0
  1 21  1  0  0  0  0
  2 10  1  0  0  0  0
  2 36  1  0  0  0  0
  3  7  1  0  0  0  0
  3 13  1  0  0  0  0
  4 26  1  0  0  0  0
  4 27  1  0  0  0  0
  5  8  1  0  0  0  0
  5 11  1  0  0  0  0
  5 12  1  0  0  0  0
  6 13  2  0  0  0  0
  6 17  1  0  0  0  0
  7 17  2  0  0  0  0
  8  9  1  0  0  0  0
  8 13  1  0  0  0  0
  8 28  1  0  0  0  0
  9 10  1  0  0  0  0
  9 29  1  0  0  0  0
  9 30  1  0  0  0  0
 10 11  1  0  0  0  0
 10 31  1  0  0  0  0
 11 32  1  0  0  0  0
 11 33  1  0  0  0  0
 12 14  1  0  0  0  0
 12 34  1  0  0  0  0
 12 35  1  0  0  0  0
 14 15  2  0  0  0  0
 14 16  1  0  0  0  0
 15 19  1  0  0  0  0
 15 37  1  0  0  0  0
 16 20  2  0  0  0  0
 16 38  1  0  0  0  0
 17 18  1  0  0  0  0
 18 22  2  0  0  0  0
 18 23  1  0  0  0  0
 19 21  2  0  0  0  0
 19 39  1  0  0  0  0
 20 21  1  0  0  0  0
 20 40  1  0  0  0  0
 22 24  1  0  0  0  0
 22 41  1  0  0  0  0
 23 25  2  0  0  0  0
 23 42  1  0  0  0  0
 24 26  2  0  0  0  0
 24 43  1  0  0  0  0
 25 26  1  0  0  0  0
 25 44  1  0  0  0  0
 27 45  1  0  0  0  0
 27 46  1  0  0  0  0
 27 47  1  0  0  0  0
M  END
> <PUBCHEM_COMPOUND_CID>
26744148

> <PUBCHEM_CONFORMER_RMSD>
0.8

> <PUBCHEM_CONFORMER_DIVERSEORDER>
1
23
21
40
47
38
50
31
15
37
9
30
28
52
27
48
39
22
17
6
44
13
35
49
19
51
7
4
5
34
45
36
24
33
20
3
10
18
8
16
14
32
12
46
2
42
41
43
26
25
29
11

> <PUBCHEM_MMFF94_PARTIAL_CHARGES>
35
1 -0.19
10 0.28
11 0.27
12 0.41
13 0.3
14 -0.14
15 -0.15
16 -0.15
17 0.46
18 0.05
19 -0.15
2 -0.68
20 -0.15
21 0.19
22 -0.15
23 -0.15
24 -0.15
25 -0.15
26 0.08
27 0.28
3 -0.02
36 0.4
37 0.15
38 0.15
39 0.15
4 -0.36
40 0.15
41 0.15
42 0.15
43 0.15
44 0.15
5 -0.81
6 -0.57
7 -0.41
8 0.45

> <PUBCHEM_EFFECTIVE_ROTOR_COUNT>
6

> <PUBCHEM_PHARMACOPHORE_FEATURES>
9
1 2 acceptor
1 2 donor
1 4 acceptor
1 5 cation
3 6 7 17 cation
5 3 6 7 13 17 rings
5 5 8 9 10 11 rings
6 14 15 16 19 20 21 rings
6 18 22 23 24 25 26 rings

> <PUBCHEM_HEAVY_ATOM_COUNT>
27

> <PUBCHEM_ATOM_DEF_STEREO_COUNT>
2

> <PUBCHEM_ATOM_UDEF_STEREO_COUNT>
0

> <PUBCHEM_BOND_DEF_STEREO_COUNT>
0

> <PUBCHEM_BOND_UDEF_STEREO_COUNT>
0

> <PUBCHEM_ISOTOPIC_ATOM_COUNT>
0

> <PUBCHEM_COMPONENT_COUNT>
1

> <PUBCHEM_CACTVS_TAUTO_COUNT>
1

> <PUBCHEM_CONFORMER_ID>
0198155400000001

> <PUBCHEM_MMFF94_ENERGY>
68.0437

> <PUBCHEM_FEATURE_SELFOVERLAP>
45.672

> <PUBCHEM_SHAPE_FINGERPRINT>
10319688 45 18263353703958080684
10319688 67 17703518679984369657
10483366 6 18117536480799423693
10622 236 18334284405440134550
10928967 22 17970068851320383634
11036077 4 18270679745142885369
11315621 246 18263651680383506286
114674 6 16467554759739538399
11552529 35 18341891870700222480
12107183 9 18196952152700278667
12174731 88 18117265970299537450
12760667 363 18341608265773226103
12788726 201 18127149660598965669
13009979 54 18411422842546205724
13631057 29 18267026235850512204
14844126 61 18272645749390433675
14866123 147 18412547609504672963
15250474 111 18335419033242541130
15537594 2 17969515822772876028
15705408 1 11392481455851330049
15728490 83 18333171665197432659
15842332 3 18191049934636518349
16728300 4 18190203315974520131
17492 89 18263358268806702814
17780758 139 18343013355264581736
17909252 39 18194123138803320202
20775530 9 18265889353321871095
21033648 29 16199866164182356120
229767 44 18267587905560657939
23559900 14 18265038310084493293
312425 54 18128524969794536786
345986 75 17769955780965815075
4435113 14 17700710467163386294
484985 159 18189886544149221455
508706 21 18200884963209677814
5104073 3 18272362050132406104
5486654 36 18411702066986479256
563151 248 18266757791540496273
6677587 24 15875859135725098831
6679774 75 17685816478036382243
7970288 3 18335133241344091810
79837 15 18056495954115893113
88748 71 18189334756948028207
9981440 41 16055753119068438141

> <PUBCHEM_SHAPE_MULTIPOLES>
515.82
13.21
5.48
1.37
17.88
2.36
-0.39
12.22
-3.2
-7.58
-1.5
-0.03
-0.97
-3.79

> <PUBCHEM_SHAPE_SELFOVERLAP>
1122.165

> <PUBCHEM_SHAPE_VOLUME>
285

> <PUBCHEM_COORDINATE_TYPE>
2
5
10

$$$$
