7675197
  -OEChem-12032416133D

 49 52  0     1  0  0  0  0  0999 V2000
   -1.0369   -1.4971    1.5648 O   0  0  0  0  0  0  0  0  0  0  0  0
   -3.3791    2.4042    0.8319 O   0  0  0  0  0  0  0  0  0  0  0  0
    3.1646    2.7862   -1.3864 O   0  0  0  0  0  0  0  0  0  0  0  0
    5.9227   -2.6167    0.1499 O   0  0  0  0  0  0  0  0  0  0  0  0
   -1.0983    1.8796    0.7780 N   0  0  0  0  0  0  0  0  0  0  0  0
    1.2405    1.6488   -0.7038 N   0  0  0  0  0  0  0  0  0  0  0  0
   -2.5388    0.2783    1.3294 N   0  0  0  0  0  0  0  0  0  0  0  0
   -0.2515    0.7285    1.0072 C   0  0  2  0  0  0  0  0  0  0  0  0
    0.5652    0.4214   -0.2386 C   0  0  0  0  0  0  0  0  0  0  0  0
   -0.5028    3.1025    0.2667 C   0  0  0  0  0  0  0  0  0  0  0  0
    0.3423    2.7831   -0.9669 C   0  0  0  0  0  0  0  0  0  0  0  0
   -1.2962   -0.3233    1.3347 C   0  0  0  0  0  0  0  0  0  0  0  0
   -2.4539    1.6149    0.9734 C   0  0  0  0  0  0  0  0  0  0  0  0
   -3.7751   -0.4243    1.6094 C   0  0  0  0  0  0  0  0  0  0  0  0
    2.6080    1.7789   -0.9521 C   0  0  0  0  0  0  0  0  0  0  0  0
   -4.3922   -0.9934    0.3646 C   0  0  0  0  0  0  0  0  0  0  0  0
    3.4754    0.6296   -0.6642 C   0  0  0  0  0  0  0  0  0  0  0  0
   -5.2935   -0.2290   -0.3672 C   0  0  0  0  0  0  0  0  0  0  0  0
   -4.0560   -2.2787   -0.0441 C   0  0  0  0  0  0  0  0  0  0  0  0
    3.7192   -0.3196   -1.6535 C   0  0  0  0  0  0  0  0  0  0  0  0
    4.0499    0.4940    0.5973 C   0  0  0  0  0  0  0  0  0  0  0  0
   -5.8668   -0.7573   -1.5238 C   0  0  0  0  0  0  0  0  0  0  0  0
   -4.6292   -2.8070   -1.2009 C   0  0  0  0  0  0  0  0  0  0  0  0
    4.5428   -1.4116   -1.3796 C   0  0  0  0  0  0  0  0  0  0  0  0
    4.8737   -0.5978    0.8711 C   0  0  0  0  0  0  0  0  0  0  0  0
    5.1201   -1.5507   -0.1174 C   0  0  0  0  0  0  0  0  0  0  0  0
   -5.5346   -2.0462   -1.9407 C   0  0  0  0  0  0  0  0  0  0  0  0
    6.4804   -2.6973    1.4608 C   0  0  0  0  0  0  0  0  0  0  0  0
    0.3745    0.9291    1.8829 H   0  0  0  0  0  0  0  0  0  0  0  0
    1.2703   -0.3868   -0.0327 H   0  0  0  0  0  0  0  0  0  0  0  0
   -0.0768    0.0805   -1.0609 H   0  0  0  0  0  0  0  0  0  0  0  0
    0.1267    3.5114    1.0648 H   0  0  0  0  0  0  0  0  0  0  0  0
   -1.2845    3.8308    0.0309 H   0  0  0  0  0  0  0  0  0  0  0  0
   -0.3021    2.4892   -1.8041 H   0  0  0  0  0  0  0  0  0  0  0  0
    0.9067    3.6684   -1.2756 H   0  0  0  0  0  0  0  0  0  0  0  0
   -4.4744    0.2719    2.0881 H   0  0  0  0  0  0  0  0  0  0  0  0
   -3.5751   -1.2268    2.3298 H   0  0  0  0  0  0  0  0  0  0  0  0
   -5.5626    0.7752   -0.0523 H   0  0  0  0  0  0  0  0  0  0  0  0
   -3.3537   -2.8819    0.5240 H   0  0  0  0  0  0  0  0  0  0  0  0
    3.2737   -0.2205   -2.6397 H   0  0  0  0  0  0  0  0  0  0  0  0
    3.8621    1.2311    1.3737 H   0  0  0  0  0  0  0  0  0  0  0  0
   -6.5721   -0.1653   -2.0997 H   0  0  0  0  0  0  0  0  0  0  0  0
   -4.3709   -3.8107   -1.5253 H   0  0  0  0  0  0  0  0  0  0  0  0
    4.7307   -2.1509   -2.1535 H   0  0  0  0  0  0  0  0  0  0  0  0
    5.2888   -0.6446    1.8721 H   0  0  0  0  0  0  0  0  0  0  0  0
   -5.9810   -2.4576   -2.8412 H   0  0  0  0  0  0  0  0  0  0  0  0
    7.0912   -3.6053    1.4969 H   0  0  0  0  0  0  0  0  0  0  0  0
    5.7017   -2.8053    2.2234 H   0  0  0  0  0  0  0  0  0  0  0  0
    7.1487   -1.8542    1.6663 H   0  0  0  0  0  0  0  0  0  0  0  0
  1 12  2  0  0  0  0
  2 13  2  0  0  0  0
  3 15  2  0  0  0  0
  4 26  1  0  0  0  0
  4 28  1  0  0  0  0
  5  8  1  0  0  0  0
  5 10  1  0  0  0  0
  5 13  1  0  0  0  0
  6  9  1  0  0  0  0
  6 11  1  0  0  0  0
  6 15  1  0  0  0  0
  7 12  1  0  0  0  0
  7 13  1  0  0  0  0
  7 14  1  0  0  0  0
  8  9  1  0  0  0  0
  8 12  1  0  0  0  0
  8 29  1  0  0  0  0
  9 30  1  0  0  0  0
  9 31  1  0  0  0  0
 10 11  1  0  0  0  0
 10 32  1  0  0  0  0
 10 33  1  0  0  0  0
 11 34  1  0  0  0  0
 11 35  1  0  0  0  0
 14 16  1  0  0  0  0
 14 36  1  0  0  0  0
 14 37  1  0  0  0  0
 15 17  1  0  0  0  0
 16 18  2  0  0  0  0
 16 19  1  0  0  0  0
 17 20  2  0  0  0  0
 17 21  1  0  0  0  0
 18 22  1  0  0  0  0
 18 38  1  0  0  0  0
 19 23  2  0  0  0  0
 19 39  1  0  0  0  0
 20 24  1  0  0  0  0
 20 40  1  0  0  0  0
 21 25  2  0  0  0  0
 21 41  1  0  0  0  0
 22 27  2  0  0  0  0
 22 42  1  0  0  0  0
 23 27  1  0  0  0  0
 23 43  1  0  0  0  0
 24 26  2  0  0  0  0
 24 44  1  0  0  0  0
 25 26  1  0  0  0  0
 25 45  1  0  0  0  0
 27 46  1  0  0  0  0
 28 47  1  0  0  0  0
 28 48  1  0  0  0  0
 28 49  1  0  0  0  0
M  END
> <PUBCHEM_COMPOUND_CID>
7675197

> <PUBCHEM_CONFORMER_RMSD>
0.8

> <PUBCHEM_CONFORMER_DIVERSEORDER>
1
8
63
52
39
6
36
58
20
54
61
21
49
15
14
37
33
16
55
50
48
62
57
40
45
7
46
26
51
44
13
53
60
42
10
24
28
41
30
59
27
35
47
38
23
43
29
34
19
22
56
18
31
25
12
11
3
17
32
2
9
4
5

> <PUBCHEM_MMFF94_PARTIAL_CHARGES>
37
1 -0.57
10 0.3
11 0.3
12 0.57
13 0.69
14 0.44
15 0.54
16 -0.14
17 0.09
18 -0.15
19 -0.15
2 -0.57
20 -0.15
21 -0.15
22 -0.15
23 -0.15
24 -0.15
25 -0.15
26 0.08
27 -0.15
28 0.28
3 -0.57
38 0.15
39 0.15
4 -0.36
40 0.15
41 0.15
42 0.15
43 0.15
44 0.15
45 0.15
46 0.15
5 -0.66
6 -0.66
7 -0.42
8 0.36
9 0.3

> <PUBCHEM_EFFECTIVE_ROTOR_COUNT>
6

> <PUBCHEM_PHARMACOPHORE_FEATURES>
8
1 1 acceptor
1 2 acceptor
1 3 acceptor
1 4 acceptor
5 5 7 8 12 13 rings
6 16 18 19 22 23 27 rings
6 17 20 21 24 25 26 rings
6 5 6 8 9 10 11 rings

> <PUBCHEM_HEAVY_ATOM_COUNT>
28

> <PUBCHEM_ATOM_DEF_STEREO_COUNT>
1

> <PUBCHEM_ATOM_UDEF_STEREO_COUNT>
0

> <PUBCHEM_BOND_DEF_STEREO_COUNT>
0

> <PUBCHEM_BOND_UDEF_STEREO_COUNT>
0

> <PUBCHEM_ISOTOPIC_ATOM_COUNT>
0

> <PUBCHEM_COMPONENT_COUNT>
1

> <PUBCHEM_CACTVS_TAUTO_COUNT>
1

> <PUBCHEM_CONFORMER_ID>
00751D3D00000001

> <PUBCHEM_MMFF94_ENERGY>
77.7286

> <PUBCHEM_FEATURE_SELFOVERLAP>
40.715

> <PUBCHEM_SHAPE_FINGERPRINT>
10622 236 18409167714153887094
10693767 8 18267855254833420303
11135926 11 17825691077566036460
11211813 140 18262784182209240138
12422481 6 17275114902921695447
13533116 47 18411980299684692656
13583140 156 16630239200022442568
13782708 43 17917431978545984686
13828863 39 9367351457278743719
13885169 86 10807636927138544474
14251751 18 17988922279648071019
14251764 75 9511452347445693026
14429115 67 18271809059632831966
1454969 45 18338239379721332380
14848178 5 18060138777698282983
14950920 106 12390698328317851143
15052358 14 17531239543995660967
15163728 17 13262669331898086489
15183329 4 16732696138726256471
15188451 53 18130781235720204878
15420108 30 17688874138036935137
16120349 67 12252176316847700823
16126227 98 10303228280100029818
17349148 13 18339939172060604499
17857418 61 18272091603750742934
18222031 100 18411707577951369644
19315092 285 17988921193511845802
19377110 9 12607393386617708672
19438510 23 8502360128021706502
20028762 73 18272650130500461742
21458453 9 12031208689538388295
23536364 44 18187634787813009213
23559900 14 18187652461091794112
255183 313 17772212846668349393
312425 54 16988295161417948739
312425 83 15431181234121123830
3459 83 18334575746346503557
3729539 64 17240755138699976299
38570 142 9078837437181170202
392239 28 14189567546665515733
4098825 35 10953739968065597976
4280585 95 18343010099996070759
437795 139 16413489351057210495
4394409 98 18263071155044692415
439807 62 18055349391681085207
445580 204 8214133063358721758
46194498 28 15938681759517591917
463206 1 18271531995735824899
5085150 59 17989201504747818727
57307002 182 15625638601788852426
6034566 193 11167641227538282314

> <PUBCHEM_SHAPE_MULTIPOLES>
537.81
15.24
3.53
1.75
3.77
0.69
-0.13
-14.92
-2.46
0.85
-0.49
-0.45
-0.4
-3.04

> <PUBCHEM_SHAPE_SELFOVERLAP>
1169.811

> <PUBCHEM_SHAPE_VOLUME>
293.2

> <PUBCHEM_COORDINATE_TYPE>
2
5
10

$$$$
