45361017
  -OEChem-12032416233D

 60 63  0     1  0  0  0  0  0999 V2000
   -7.7814   -1.3391   -1.4198 S   0  0  0  0  0  0  0  0  0  0  0  0
    2.1221   -1.6099   -0.6345 O   0  0  0  0  0  0  0  0  0  0  0  0
   -4.4208    0.7791   -1.5228 O   0  0  0  0  0  0  0  0  0  0  0  0
    3.7369    0.3655    0.2504 N   0  0  1  0  0  0  0  0  0  0  0  0
    0.4535    1.8710   -0.3360 N   0  0  1  0  0  0  0  0  0  0  0  0
    0.2737   -0.8836    0.5024 N   0  0  0  0  0  0  0  0  0  0  0  0
   -5.5899    1.1356    0.4507 N   0  0  0  0  0  0  0  0  0  0  0  0
    1.7811    1.8017    0.3139 C   0  0  1  0  0  0  0  0  0  0  0  0
    2.3377    0.4041    0.7155 C   0  0  1  0  0  0  0  0  0  0  0  0
    2.9273    2.3688   -0.5442 C   0  0  0  0  0  0  0  0  0  0  0  0
    4.1655    1.7476    0.0669 C   0  0  0  0  0  0  0  0  0  0  0  0
   -0.6752    1.4043    0.5168 C   0  0  2  0  0  0  0  0  0  0  0  0
    1.5954   -0.7848    0.1108 C   0  0  0  0  0  0  0  0  0  0  0  0
   -0.3970    0.1139    1.3123 C   0  0  0  0  0  0  0  0  0  0  0  0
    4.6226   -0.3693    1.1444 C   0  0  0  0  0  0  0  0  0  0  0  0
   -1.9339    1.1581   -0.3414 C   0  0  0  0  0  0  0  0  0  0  0  0
    0.1861    3.2299   -0.8371 C   0  0  0  0  0  0  0  0  0  0  0  0
   -3.1897    1.2717    0.5029 C   0  0  0  0  0  0  0  0  0  0  0  0
    5.8694   -0.8348    0.4407 C   0  0  0  0  0  0  0  0  0  0  0  0
   -4.4420    1.0317   -0.3212 C   0  0  0  0  0  0  0  0  0  0  0  0
    5.8930   -2.0816   -0.1842 C   0  0  0  0  0  0  0  0  0  0  0  0
    7.0009   -0.0195    0.4134 C   0  0  0  0  0  0  0  0  0  0  0  0
    7.0480   -2.5133   -0.8364 C   0  0  0  0  0  0  0  0  0  0  0  0
    8.1559   -0.4511   -0.2388 C   0  0  0  0  0  0  0  0  0  0  0  0
    8.1795   -1.6980   -0.8636 C   0  0  0  0  0  0  0  0  0  0  0  0
   -6.9104    0.9506   -0.1028 C   0  0  0  0  0  0  0  0  0  0  0  0
   -7.3671   -0.4802    0.0025 C   0  0  0  0  0  0  0  0  0  0  0  0
   -7.5130   -1.2525    1.1339 C   0  0  0  0  0  0  0  0  0  0  0  0
   -7.9709   -2.5668    0.8290 C   0  0  0  0  0  0  0  0  0  0  0  0
   -8.1574   -2.7490   -0.5236 C   0  0  0  0  0  0  0  0  0  0  0  0
    1.7477    2.4108    1.2306 H   0  0  0  0  0  0  0  0  0  0  0  0
    2.3049    0.3139    1.8095 H   0  0  0  0  0  0  0  0  0  0  0  0
    2.8276    2.0560   -1.5923 H   0  0  0  0  0  0  0  0  0  0  0  0
    2.9740    3.4622   -0.5110 H   0  0  0  0  0  0  0  0  0  0  0  0
    4.4062    2.2423    1.0164 H   0  0  0  0  0  0  0  0  0  0  0  0
    5.0184    1.8389   -0.6119 H   0  0  0  0  0  0  0  0  0  0  0  0
   -0.8950    2.1901    1.2533 H   0  0  0  0  0  0  0  0  0  0  0  0
   -1.3083   -0.3534    1.6950 H   0  0  0  0  0  0  0  0  0  0  0  0
    0.2165    0.3343    2.1918 H   0  0  0  0  0  0  0  0  0  0  0  0
    4.1140   -1.2657    1.5262 H   0  0  0  0  0  0  0  0  0  0  0  0
    4.8799    0.2102    2.0416 H   0  0  0  0  0  0  0  0  0  0  0  0
   -2.0346    1.8643   -1.1689 H   0  0  0  0  0  0  0  0  0  0  0  0
   -1.8847    0.1722   -0.8227 H   0  0  0  0  0  0  0  0  0  0  0  0
   -0.2714   -1.6662    0.1537 H   0  0  0  0  0  0  0  0  0  0  0  0
    0.2224    3.9679   -0.0272 H   0  0  0  0  0  0  0  0  0  0  0  0
    0.9164    3.5202   -1.5994 H   0  0  0  0  0  0  0  0  0  0  0  0
   -0.7776    3.3378   -1.3377 H   0  0  0  0  0  0  0  0  0  0  0  0
   -3.1954    0.5487    1.3244 H   0  0  0  0  0  0  0  0  0  0  0  0
   -3.2621    2.2757    0.9386 H   0  0  0  0  0  0  0  0  0  0  0  0
    5.0180   -2.7261   -0.1722 H   0  0  0  0  0  0  0  0  0  0  0  0
    6.9988    0.9518    0.9006 H   0  0  0  0  0  0  0  0  0  0  0  0
    7.0663   -3.4839   -1.3234 H   0  0  0  0  0  0  0  0  0  0  0  0
    9.0373    0.1831   -0.2591 H   0  0  0  0  0  0  0  0  0  0  0  0
   -5.5095    1.3328    1.4442 H   0  0  0  0  0  0  0  0  0  0  0  0
    9.0789   -2.0340   -1.3713 H   0  0  0  0  0  0  0  0  0  0  0  0
   -6.9173    1.3059   -1.1394 H   0  0  0  0  0  0  0  0  0  0  0  0
   -7.5920    1.5891    0.4704 H   0  0  0  0  0  0  0  0  0  0  0  0
   -7.3036   -0.8959    2.1344 H   0  0  0  0  0  0  0  0  0  0  0  0
   -8.1542   -3.3394    1.5644 H   0  0  0  0  0  0  0  0  0  0  0  0
   -8.4967   -3.6425   -1.0284 H   0  0  0  0  0  0  0  0  0  0  0  0
  1 27  1  0  0  0  0
  1 30  1  0  0  0  0
  2 13  2  0  0  0  0
  3 20  2  0  0  0  0
  4  9  1  0  0  0  0
  4 11  1  0  0  0  0
  4 15  1  0  0  0  0
  5  8  1  0  0  0  0
  5 12  1  0  0  0  0
  5 17  1  0  0  0  0
  6 13  1  0  0  0  0
  6 14  1  0  0  0  0
  6 44  1  0  0  0  0
  7 20  1  0  0  0  0
  7 26  1  0  0  0  0
  7 54  1  0  0  0  0
  8  9  1  0  0  0  0
  8 10  1  0  0  0  0
  8 31  1  0  0  0  0
  9 13  1  0  0  0  0
  9 32  1  0  0  0  0
 10 11  1  0  0  0  0
 10 33  1  0  0  0  0
 10 34  1  0  0  0  0
 11 35  1  0  0  0  0
 11 36  1  0  0  0  0
 12 14  1  0  0  0  0
 12 16  1  0  0  0  0
 12 37  1  0  0  0  0
 14 38  1  0  0  0  0
 14 39  1  0  0  0  0
 15 19  1  0  0  0  0
 15 40  1  0  0  0  0
 15 41  1  0  0  0  0
 16 18  1  0  0  0  0
 16 42  1  0  0  0  0
 16 43  1  0  0  0  0
 17 45  1  0  0  0  0
 17 46  1  0  0  0  0
 17 47  1  0  0  0  0
 18 20  1  0  0  0  0
 18 48  1  0  0  0  0
 18 49  1  0  0  0  0
 19 21  2  0  0  0  0
 19 22  1  0  0  0  0
 21 23  1  0  0  0  0
 21 50  1  0  0  0  0
 22 24  2  0  0  0  0
 22 51  1  0  0  0  0
 23 25  2  0  0  0  0
 23 52  1  0  0  0  0
 24 25  1  0  0  0  0
 24 53  1  0  0  0  0
 25 55  1  0  0  0  0
 26 27  1  0  0  0  0
 26 56  1  0  0  0  0
 26 57  1  0  0  0  0
 27 28  2  0  0  0  0
 28 29  1  0  0  0  0
 28 58  1  0  0  0  0
 29 30  2  0  0  0  0
 29 59  1  0  0  0  0
 30 60  1  0  0  0  0
M  END
> <PUBCHEM_COMPOUND_CID>
45361017

> <PUBCHEM_CONFORMER_RMSD>
1.2

> <PUBCHEM_CONFORMER_DIVERSEORDER>
2
171
181
37
139
107
104
187
183
170
182
73
111
99
23
44
136
52
86
53
119
196
129
74
110
92
1
76
167
147
185
186
177
46
59
190
71
153
180
3
184
145
113
17
39
160
105
102
88
178
142
16
132
121
130
94
72
143
31
123
67
149
70
100
75
198
159
49
135
150
43
133
80
175
54
117
5
90
172
148
158
116
11
106
197
27
122
137
162
124
98
194
10
77
82
85
144
112
140
166
19
191
47
189
51
141
114
131
8
45
56
35
127
69
161
65
156
155
50
115
152
101
15
179
163
58
48
176
21
40
36
78
62
154
26
14
25
4
97
64
91
134
68
95
22
103
89
193
81
41
174
195
96
108
165
28
168
93
9
13
61
146
55
169
38
151
34
7
57
138
29
20
109
60
24
164
79
30
84
33
66
63
157
126
87
192
128
12
83
6
32
188
18
125
118
42
173
120

> <PUBCHEM_MMFF94_PARTIAL_CHARGES>
38
1 -0.08
11 0.27
12 0.27
13 0.57
14 0.3
15 0.41
17 0.27
18 0.06
19 -0.14
2 -0.57
20 0.57
21 -0.15
22 -0.15
23 -0.15
24 -0.15
25 -0.15
26 0.48
27 -0.14
28 -0.15
29 -0.15
3 -0.57
30 -0.11
4 -0.81
44 0.37
5 -0.81
50 0.15
51 0.15
52 0.15
53 0.15
54 0.37
55 0.15
58 0.15
59 0.15
6 -0.73
60 0.15
7 -0.73
8 0.27
9 0.33

> <PUBCHEM_EFFECTIVE_ROTOR_COUNT>
9.4

> <PUBCHEM_PHARMACOPHORE_FEATURES>
10
1 2 acceptor
1 3 acceptor
1 4 cation
1 5 cation
1 6 donor
1 7 donor
5 1 27 28 29 30 rings
5 4 8 9 10 11 rings
6 19 21 22 23 24 25 rings
7 5 6 8 9 12 13 14 rings

> <PUBCHEM_HEAVY_ATOM_COUNT>
30

> <PUBCHEM_ATOM_DEF_STEREO_COUNT>
3

> <PUBCHEM_ATOM_UDEF_STEREO_COUNT>
0

> <PUBCHEM_BOND_DEF_STEREO_COUNT>
0

> <PUBCHEM_BOND_UDEF_STEREO_COUNT>
0

> <PUBCHEM_ISOTOPIC_ATOM_COUNT>
0

> <PUBCHEM_COMPONENT_COUNT>
1

> <PUBCHEM_CACTVS_TAUTO_COUNT>
6

> <PUBCHEM_CONFORMER_ID>
02B4277900000002

> <PUBCHEM_MMFF94_ENERGY>
70.2348

> <PUBCHEM_FEATURE_SELFOVERLAP>
50.783

> <PUBCHEM_SHAPE_FINGERPRINT>
10740516 88 18058743390317178766
11135609 99 18342739649936515807
11386260 185 17095528443469100796
11621639 148 18339916121984743760
11963148 33 18334849481323668611
12539765 74 7853573543381745312
12592606 108 18412262835127857111
12645989 146 18260268568867294541
13668630 136 18409445873473802601
13782708 43 18260260880975808161
13811026 1 18334575767378209200
14178184 131 17988357182955450463
14202775 3 18200035028860592782
150020 25 18040989666525869271
15461852 350 16950281810983990479
16991971 28 18408888433915825980
16994733 274 9727630596804568133
1754908 1 16630520752240148707
1818759 1 17989211438711547606
2026 5 18410294670565318475
21130935 74 18200594679718922114
21150785 3 16225769601327593664
21267235 1 18411139121264688977
21781051 124 18271535268300347382
21781055 127 11887679524391340920
23569917 315 18342747307800660942
23569943 247 17908146473889992090
23576562 1 15069198912671742615
2747138 104 18342733005326885392
335352 9 18334017198919196468
4340502 62 14620789380425221380
4461854 278 17989210369297242975
4625314 4 18407757045885187661
484989 97 18041286568640252027
54039377 194 18342176674424326223
5937810 71 12252174144602058343
6328613 192 8430320143338836877
636775 72 9583518720676595691
999808 66 18343863325646469319

> <PUBCHEM_SHAPE_MULTIPOLES>
589.57
28.74
3.02
1.1
20.98
0.02
-0.05
25.14
-3.26
0.57
-0.7
0.83
0.18
0.93

> <PUBCHEM_SHAPE_SELFOVERLAP>
1230.828

> <PUBCHEM_SHAPE_VOLUME>
334.5

> <PUBCHEM_COORDINATE_TYPE>
2
5
10

$$$$
