40777374
  -OEChem-12032416283D

 53 56  0     1  0  0  0  0  0999 V2000
    0.8369   -1.7357   -1.5155 O   0  0  0  0  0  0  0  0  0  0  0  0
   -0.2509    3.5108    0.1775 O   0  0  0  0  0  0  0  0  0  0  0  0
   -2.5262   -3.9826   -0.5182 O   0  0  0  0  0  0  0  0  0  0  0  0
    5.7169    0.3355   -0.3086 N   0  0  0  0  0  0  0  0  0  0  0  0
    0.8492   -3.0568    0.3965 N   0  0  0  0  0  0  0  0  0  0  0  0
    1.0758    3.4121    0.5790 N   0  0  0  0  0  0  0  0  0  0  0  0
    2.7928    0.0155   -0.5406 C   0  0  1  0  0  0  0  0  0  0  0  0
    3.4471    1.1593    0.2704 C   0  0  2  0  0  0  0  0  0  0  0  0
    3.7806   -0.4653   -1.6168 C   0  0  0  0  0  0  0  0  0  0  0  0
    4.8427    0.7659    0.7831 C   0  0  0  0  0  0  0  0  0  0  0  0
    5.1555   -0.7987   -1.0394 C   0  0  0  0  0  0  0  0  0  0  0  0
    2.5714    1.6540    1.4224 C   0  0  0  0  0  0  0  0  0  0  0  0
    2.3067   -1.1587    0.3173 C   0  0  0  0  0  0  0  0  0  0  0  0
    1.2369    2.1327    0.9285 C   0  0  0  0  0  0  0  0  0  0  0  0
    1.2584   -1.9903   -0.3906 C   0  0  0  0  0  0  0  0  0  0  0  0
    0.0579    1.3837    0.7706 C   0  0  0  0  0  0  0  0  0  0  0  0
   -0.8465    2.2966    0.2961 C   0  0  0  0  0  0  0  0  0  0  0  0
   -0.1455   -4.0149   -0.0284 C   0  0  0  0  0  0  0  0  0  0  0  0
   -2.2281    2.2425   -0.0847 C   0  0  0  0  0  0  0  0  0  0  0  0
   -1.5373   -3.5711    0.3183 C   0  0  0  0  0  0  0  0  0  0  0  0
   -2.9284    1.0394    0.0014 C   0  0  0  0  0  0  0  0  0  0  0  0
   -2.8712    3.3928   -0.5412 C   0  0  0  0  0  0  0  0  0  0  0  0
   -2.0542   -2.8076    1.3391 C   0  0  0  0  0  0  0  0  0  0  0  0
   -4.2723    0.9865   -0.3690 C   0  0  0  0  0  0  0  0  0  0  0  0
   -4.2149    3.3401   -0.9116 C   0  0  0  0  0  0  0  0  0  0  0  0
   -3.4505   -2.7463    1.1157 C   0  0  0  0  0  0  0  0  0  0  0  0
   -3.6872   -3.4765   -0.0259 C   0  0  0  0  0  0  0  0  0  0  0  0
   -4.9155    2.1369   -0.8255 C   0  0  0  0  0  0  0  0  0  0  0  0
    1.9364    0.4367   -1.0824 H   0  0  0  0  0  0  0  0  0  0  0  0
    3.5874    2.0020   -0.4248 H   0  0  0  0  0  0  0  0  0  0  0  0
    3.3898   -1.3377   -2.1521 H   0  0  0  0  0  0  0  0  0  0  0  0
    3.8959    0.3276   -2.3685 H   0  0  0  0  0  0  0  0  0  0  0  0
    5.3074    1.6294    1.2730 H   0  0  0  0  0  0  0  0  0  0  0  0
    4.7704   -0.0258    1.5391 H   0  0  0  0  0  0  0  0  0  0  0  0
    5.8319   -1.0486   -1.8645 H   0  0  0  0  0  0  0  0  0  0  0  0
    5.1128   -1.6832   -0.3947 H   0  0  0  0  0  0  0  0  0  0  0  0
    3.0776    2.4930    1.9200 H   0  0  0  0  0  0  0  0  0  0  0  0
    2.4410    0.8988    2.2045 H   0  0  0  0  0  0  0  0  0  0  0  0
    1.8467   -0.8338    1.2524 H   0  0  0  0  0  0  0  0  0  0  0  0
    3.1346   -1.8176    0.6003 H   0  0  0  0  0  0  0  0  0  0  0  0
    6.6270    0.0758    0.0705 H   0  0  0  0  0  0  0  0  0  0  0  0
   -0.1177    0.3407    0.9842 H   0  0  0  0  0  0  0  0  0  0  0  0
    1.2475   -3.1707    1.3242 H   0  0  0  0  0  0  0  0  0  0  0  0
    0.0722   -4.9624    0.4747 H   0  0  0  0  0  0  0  0  0  0  0  0
   -0.0565   -4.1661   -1.1096 H   0  0  0  0  0  0  0  0  0  0  0  0
   -2.4519    0.1285    0.3512 H   0  0  0  0  0  0  0  0  0  0  0  0
   -2.3600    4.3486   -0.6225 H   0  0  0  0  0  0  0  0  0  0  0  0
   -1.4991   -2.3497    2.1453 H   0  0  0  0  0  0  0  0  0  0  0  0
   -4.8181    0.0499   -0.3029 H   0  0  0  0  0  0  0  0  0  0  0  0
   -4.7164    4.2356   -1.2672 H   0  0  0  0  0  0  0  0  0  0  0  0
   -4.1913   -2.2328    1.7112 H   0  0  0  0  0  0  0  0  0  0  0  0
   -4.5777   -3.7176   -0.5878 H   0  0  0  0  0  0  0  0  0  0  0  0
   -5.9617    2.0958   -1.1141 H   0  0  0  0  0  0  0  0  0  0  0  0
  1 15  2  0  0  0  0
  2  6  1  0  0  0  0
  2 17  1  0  0  0  0
  3 20  1  0  0  0  0
  3 27  1  0  0  0  0
  4 10  1  0  0  0  0
  4 11  1  0  0  0  0
  4 41  1  0  0  0  0
  5 15  1  0  0  0  0
  5 18  1  0  0  0  0
  5 43  1  0  0  0  0
  6 14  2  0  0  0  0
  7  8  1  0  0  0  0
  7  9  1  0  0  0  0
  7 13  1  0  0  0  0
  7 29  1  0  0  0  0
  8 10  1  0  0  0  0
  8 12  1  0  0  0  0
  8 30  1  0  0  0  0
  9 11  1  0  0  0  0
  9 31  1  0  0  0  0
  9 32  1  0  0  0  0
 10 33  1  0  0  0  0
 10 34  1  0  0  0  0
 11 35  1  0  0  0  0
 11 36  1  0  0  0  0
 12 14  1  0  0  0  0
 12 37  1  0  0  0  0
 12 38  1  0  0  0  0
 13 15  1  0  0  0  0
 13 39  1  0  0  0  0
 13 40  1  0  0  0  0
 14 16  1  0  0  0  0
 16 17  2  0  0  0  0
 16 42  1  0  0  0  0
 17 19  1  0  0  0  0
 18 20  1  0  0  0  0
 18 44  1  0  0  0  0
 18 45  1  0  0  0  0
 19 21  2  0  0  0  0
 19 22  1  0  0  0  0
 20 23  2  0  0  0  0
 21 24  1  0  0  0  0
 21 46  1  0  0  0  0
 22 25  2  0  0  0  0
 22 47  1  0  0  0  0
 23 26  1  0  0  0  0
 23 48  1  0  0  0  0
 24 28  2  0  0  0  0
 24 49  1  0  0  0  0
 25 28  1  0  0  0  0
 25 50  1  0  0  0  0
 26 27  2  0  0  0  0
 26 51  1  0  0  0  0
 27 52  1  0  0  0  0
 28 53  1  0  0  0  0
M  END
> <PUBCHEM_COMPOUND_CID>
40777374

> <PUBCHEM_CONFORMER_RMSD>
1.2

> <PUBCHEM_CONFORMER_DIVERSEORDER>
4
5
39
62
77
90
86
52
75
88
31
23
53
41
19
56
78
18
80
9
14
79
13
85
73
22
66
20
28
74
58
45
7
84
43
57
82
70
59
49
76
40
36
93
1
12
50
15
17
38
54
32
27
71
92
91
26
83
72
55
44
67
2
48
25
87
69
51
33
11
89
35
8
6
24
63
16
47
21
68
60
46
34
3
65
30
42
64
81
10
61
29
37

> <PUBCHEM_MMFF94_PARTIAL_CHARGES>
36
1 -0.57
10 0.27
11 0.27
12 0.18
13 0.06
14 0.11
15 0.57
16 -0.15
17 0.09
18 0.48
19 0.05
2 -0.02
20 -0.04
21 -0.15
22 -0.15
23 -0.15
24 -0.15
25 -0.15
26 -0.15
27 -0.01
28 -0.15
3 -0.28
4 -0.9
41 0.36
42 0.15
43 0.37
46 0.15
47 0.15
48 0.15
49 0.15
5 -0.73
50 0.15
51 0.15
52 0.15
53 0.15
6 -0.41

> <PUBCHEM_EFFECTIVE_ROTOR_COUNT>
9.2

> <PUBCHEM_PHARMACOPHORE_FEATURES>
10
1 1 acceptor
1 3 acceptor
1 4 cation
1 4 donor
1 5 donor
1 6 acceptor
5 2 6 14 16 17 rings
5 3 20 23 26 27 rings
6 19 21 22 24 25 28 rings
6 4 7 8 9 10 11 rings

> <PUBCHEM_HEAVY_ATOM_COUNT>
28

> <PUBCHEM_ATOM_DEF_STEREO_COUNT>
2

> <PUBCHEM_ATOM_UDEF_STEREO_COUNT>
0

> <PUBCHEM_BOND_DEF_STEREO_COUNT>
0

> <PUBCHEM_BOND_UDEF_STEREO_COUNT>
0

> <PUBCHEM_ISOTOPIC_ATOM_COUNT>
0

> <PUBCHEM_COMPONENT_COUNT>
1

> <PUBCHEM_CACTVS_TAUTO_COUNT>
2

> <PUBCHEM_CONFORMER_ID>
026E369E00000004

> <PUBCHEM_MMFF94_ENERGY>
38.3579

> <PUBCHEM_FEATURE_SELFOVERLAP>
50.747

> <PUBCHEM_SHAPE_FINGERPRINT>
10688039 33 18119533390492072282
108634 29 18343028761597141942
11135609 187 18193833748529586393
12156800 1 18192683791661015626
12293681 25 17558857013212746918
12645989 146 18127979809074422918
12788726 201 17972328566695361790
13122387 1 18122345684070557563
13402501 40 18412549825243554499
138480 1 17041476116702674971
14363568 33 16748203960188765153
14725015 67 18193827361480350155
15927050 60 18340478956073527549
15968369 26 17830712293792833809
16067689 391 17412770318656844510
16993438 75 18335146396775568291
17627616 140 18191579753596956315
19930381 70 17833826067762576785
20739085 24 17042315615395301320
20764821 26 18265052629763797575
20775438 99 18057019364136320103
21304304 249 18122330286929449242
21796203 349 16754693805865405331
22393880 68 17910394983673981572
23516275 137 16988294070996870829
23559900 14 17401471659759652673
238 59 17687197387220421539
3052486 1 18334856164655784026
3298306 158 18266169540188083941
4058900 60 18048886186410274125
463206 1 18341890783926147845
508706 21 18339076094378013635
5171179 24 18057036024250559490
59755656 520 18188208702659623190
6376802 137 16769004027685684050

> <PUBCHEM_SHAPE_MULTIPOLES>
543.68
9.88
6.33
1.2
4.68
4.21
0.05
-3.45
2.5
-7.61
-0.47
0.51
0.06
2.29

> <PUBCHEM_SHAPE_SELFOVERLAP>
1166.272

> <PUBCHEM_SHAPE_VOLUME>
299.1

> <PUBCHEM_COORDINATE_TYPE>
2
5
10

$$$$
