38028701
  -OEChem-12032416243D

 57 58  0     1  0  0  0  0  0999 V2000
    2.7742    2.8127   -1.9971 F   0  0  0  0  0  0  0  0  0  0  0  0
   -3.9368    1.0557   -0.4834 O   0  0  0  0  0  0  0  0  0  0  0  0
    2.6215   -1.5396    1.9740 O   0  0  0  0  0  0  0  0  0  0  0  0
    1.9239   -1.8459   -0.2181 N   0  0  0  0  0  0  0  0  0  0  0  0
   -2.3476    2.7510   -0.5174 N   0  0  0  0  0  0  0  0  0  0  0  0
   -0.9698   -2.0319    0.5789 C   0  0  1  0  0  0  0  0  0  0  0  0
   -0.2242   -2.9890   -0.3843 C   0  0  1  0  0  0  0  0  0  0  0  0
   -2.3139   -1.6009   -0.0276 C   0  0  0  0  0  0  0  0  0  0  0  0
   -2.1404   -0.8912   -1.3837 C   0  0  2  0  0  0  0  0  0  0  0  0
   -1.2016   -2.6724    1.9510 C   0  0  0  0  0  0  0  0  0  0  0  0
   -1.1967   -1.6461   -2.2976 C   0  0  0  0  0  0  0  0  0  0  0  0
   -0.3571   -2.5895   -1.8351 C   0  0  0  0  0  0  0  0  0  0  0  0
    1.2606   -3.0961   -0.0181 C   0  0  0  0  0  0  0  0  0  0  0  0
   -1.6782    0.5578   -1.1936 C   0  0  0  0  0  0  0  0  0  0  0  0
   -1.3625   -1.5965    3.0202 C   0  0  0  0  0  0  0  0  0  0  0  0
   -2.4237   -3.5843    1.9128 C   0  0  0  0  0  0  0  0  0  0  0  0
   -1.2721   -1.3239   -3.7642 C   0  0  0  0  0  0  0  0  0  0  0  0
   -2.7931    1.4495   -0.6953 C   0  0  0  0  0  0  0  0  0  0  0  0
    2.5632   -1.1534    0.8097 C   0  0  0  0  0  0  0  0  0  0  0  0
    3.1837    0.1459    0.4440 C   0  0  0  0  0  0  0  0  0  0  0  0
   -3.2001    3.8199   -0.0502 C   0  0  0  0  0  0  0  0  0  0  0  0
    2.6776    0.8839   -0.6261 C   0  0  0  0  0  0  0  0  0  0  0  0
    4.2723    0.6281    1.1709 C   0  0  0  0  0  0  0  0  0  0  0  0
   -3.1716    3.9174    1.4088 C   0  0  0  0  0  0  0  0  0  0  0  0
    3.2601    2.1039   -0.9695 C   0  0  0  0  0  0  0  0  0  0  0  0
    4.8549    1.8481    0.8274 C   0  0  0  0  0  0  0  0  0  0  0  0
    4.3487    2.5862   -0.2426 C   0  0  0  0  0  0  0  0  0  0  0  0
   -3.1511    4.0004    2.6063 C   0  0  0  0  0  0  0  0  0  0  0  0
   -0.3603   -1.1322    0.7222 H   0  0  0  0  0  0  0  0  0  0  0  0
   -0.6524   -3.9962   -0.3046 H   0  0  0  0  0  0  0  0  0  0  0  0
   -2.8727   -0.9646    0.6657 H   0  0  0  0  0  0  0  0  0  0  0  0
   -2.9456   -2.4754   -0.2304 H   0  0  0  0  0  0  0  0  0  0  0  0
   -3.1277   -0.8907   -1.8668 H   0  0  0  0  0  0  0  0  0  0  0  0
   -0.3364   -3.2776    2.2408 H   0  0  0  0  0  0  0  0  0  0  0  0
    0.2647   -3.1327   -2.5442 H   0  0  0  0  0  0  0  0  0  0  0  0
    1.7588   -3.8228   -0.6714 H   0  0  0  0  0  0  0  0  0  0  0  0
    1.4040   -3.4507    1.0061 H   0  0  0  0  0  0  0  0  0  0  0  0
   -1.3436    0.9872   -2.1459 H   0  0  0  0  0  0  0  0  0  0  0  0
   -0.8324    0.6282   -0.5010 H   0  0  0  0  0  0  0  0  0  0  0  0
   -2.2305   -0.9554    2.8387 H   0  0  0  0  0  0  0  0  0  0  0  0
   -0.4737   -0.9581    3.0699 H   0  0  0  0  0  0  0  0  0  0  0  0
   -1.4927   -2.0547    4.0068 H   0  0  0  0  0  0  0  0  0  0  0  0
   -3.3698   -3.0346    1.8704 H   0  0  0  0  0  0  0  0  0  0  0  0
   -2.4626   -4.1719    2.8385 H   0  0  0  0  0  0  0  0  0  0  0  0
   -2.3876   -4.3056    1.0911 H   0  0  0  0  0  0  0  0  0  0  0  0
   -2.2984   -1.4414   -4.1269 H   0  0  0  0  0  0  0  0  0  0  0  0
   -0.6363   -1.9849   -4.3631 H   0  0  0  0  0  0  0  0  0  0  0  0
   -0.9493   -0.2971   -3.9579 H   0  0  0  0  0  0  0  0  0  0  0  0
    1.9977   -1.5087   -1.1723 H   0  0  0  0  0  0  0  0  0  0  0  0
   -1.3739    2.9724   -0.7056 H   0  0  0  0  0  0  0  0  0  0  0  0
   -2.8367    4.7465   -0.5056 H   0  0  0  0  0  0  0  0  0  0  0  0
   -4.2217    3.6453   -0.4033 H   0  0  0  0  0  0  0  0  0  0  0  0
    1.8152    0.5565   -1.1993 H   0  0  0  0  0  0  0  0  0  0  0  0
    4.6833    0.0656    2.0049 H   0  0  0  0  0  0  0  0  0  0  0  0
    5.7032    2.2232    1.3925 H   0  0  0  0  0  0  0  0  0  0  0  0
    4.8021    3.5360   -0.5103 H   0  0  0  0  0  0  0  0  0  0  0  0
   -3.1328    4.0736    3.6685 H   0  0  0  0  0  0  0  0  0  0  0  0
  1 25  1  0  0  0  0
  2 18  2  0  0  0  0
  3 19  2  0  0  0  0
  4 13  1  0  0  0  0
  4 19  1  0  0  0  0
  4 49  1  0  0  0  0
  5 18  1  0  0  0  0
  5 21  1  0  0  0  0
  5 50  1  0  0  0  0
  6  7  1  0  0  0  0
  6  8  1  0  0  0  0
  6 10  1  0  0  0  0
  6 29  1  0  0  0  0
  7 12  1  0  0  0  0
  7 13  1  0  0  0  0
  7 30  1  0  0  0  0
  8  9  1  0  0  0  0
  8 31  1  0  0  0  0
  8 32  1  0  0  0  0
  9 11  1  0  0  0  0
  9 14  1  0  0  0  0
  9 33  1  0  0  0  0
 10 15  1  0  0  0  0
 10 16  1  0  0  0  0
 10 34  1  0  0  0  0
 11 12  2  0  0  0  0
 11 17  1  0  0  0  0
 12 35  1  0  0  0  0
 13 36  1  0  0  0  0
 13 37  1  0  0  0  0
 14 18  1  0  0  0  0
 14 38  1  0  0  0  0
 14 39  1  0  0  0  0
 15 40  1  0  0  0  0
 15 41  1  0  0  0  0
 15 42  1  0  0  0  0
 16 43  1  0  0  0  0
 16 44  1  0  0  0  0
 16 45  1  0  0  0  0
 17 46  1  0  0  0  0
 17 47  1  0  0  0  0
 17 48  1  0  0  0  0
 19 20  1  0  0  0  0
 20 22  2  0  0  0  0
 20 23  1  0  0  0  0
 21 24  1  0  0  0  0
 21 51  1  0  0  0  0
 21 52  1  0  0  0  0
 22 25  1  0  0  0  0
 22 53  1  0  0  0  0
 23 26  2  0  0  0  0
 23 54  1  0  0  0  0
 24 28  3  0  0  0  0
 25 27  2  0  0  0  0
 26 27  1  0  0  0  0
 26 55  1  0  0  0  0
 27 56  1  0  0  0  0
 28 57  1  0  0  0  0
M  END
> <PUBCHEM_COMPOUND_CID>
38028701

> <PUBCHEM_CONFORMER_RMSD>
1.2

> <PUBCHEM_CONFORMER_DIVERSEORDER>
1
35
39
101
4
77
53
21
26
65
7
55
19
113
58
57
25
112
118
62
93
99
82
90
109
38
102
72
8
20
48
85
54
103
70
108
74
97
110
33
6
56
29
10
94
28
24
83
75
115
41
91
79
37
14
9
76
5
16
34
49
3
116
42
92
2
30
59
11
81
63
18
67
17
111
105
40
15
69
13
32
27
51
98
52
78
104
117
61
50
64
73
12
60
96
36
71
22
95
46
44
100
86
31
89
84
23
80
43
106
47
45
88
107
68
114
87
66

> <PUBCHEM_MMFF94_PARTIAL_CHARGES>
31
1 -0.19
11 -0.28
12 -0.29
13 0.3
14 0.06
17 0.14
18 0.57
19 0.54
2 -0.57
20 0.09
21 0.5
22 -0.15
23 -0.15
24 -0.2
25 0.19
26 -0.15
27 -0.15
28 -0.18
3 -0.57
35 0.15
4 -0.73
49 0.37
5 -0.73
50 0.37
53 0.15
54 0.15
55 0.15
56 0.15
57 0.18
7 0.14
9 0.14

> <PUBCHEM_EFFECTIVE_ROTOR_COUNT>
9.8

> <PUBCHEM_PHARMACOPHORE_FEATURES>
8
1 2 acceptor
1 28 hydrophobe
1 3 acceptor
1 4 donor
1 5 donor
3 10 15 16 hydrophobe
6 20 22 23 25 26 27 rings
6 6 7 8 9 11 12 rings

> <PUBCHEM_HEAVY_ATOM_COUNT>
28

> <PUBCHEM_ATOM_DEF_STEREO_COUNT>
3

> <PUBCHEM_ATOM_UDEF_STEREO_COUNT>
0

> <PUBCHEM_BOND_DEF_STEREO_COUNT>
0

> <PUBCHEM_BOND_UDEF_STEREO_COUNT>
0

> <PUBCHEM_ISOTOPIC_ATOM_COUNT>
0

> <PUBCHEM_COMPONENT_COUNT>
1

> <PUBCHEM_CACTVS_TAUTO_COUNT>
4

> <PUBCHEM_CONFORMER_ID>
0244459D00000001

> <PUBCHEM_MMFF94_ENERGY>
53.9954

> <PUBCHEM_FEATURE_SELFOVERLAP>
40.596

> <PUBCHEM_SHAPE_FINGERPRINT>
11221954 11 18338518538608006671
12156800 1 17032819970662731509
12788726 201 18270111443781610669
13761468 95 17773058529633397536
13965767 371 17047632342214738643
14787075 74 18043793481196224255
15664445 248 16546016820157438039
21475661 188 17975122150557600901
21716022 299 14402358033675958749
21860390 5 17550953589759903351
3493558 16 18187082892925838519
469060 322 15285639949388306427
50150288 127 17470775372091313196
7288768 16 18113889446966726155

> <PUBCHEM_SHAPE_MULTIPOLES>
547.25
7.71
5.9
2.95
8.6
4.4
-0.41
8.24
1.59
-5.49
2.29
-2.06
-1.29
-1.5

> <PUBCHEM_SHAPE_SELFOVERLAP>
1127.392

> <PUBCHEM_SHAPE_VOLUME>
313.4

> <PUBCHEM_COORDINATE_TYPE>
2
5
10

$$$$
