11885041
  -OEChem-12032416133D

 84 87  0     1  0  0  0  0  0999 V2000
   -1.3837    3.1584   -0.6400 S   0  0  0  0  0  0  0  0  0  0  0  0
   -7.5349   -1.7149   -0.4388 O   0  0  0  0  0  0  0  0  0  0  0  0
   -7.8841    0.4247    0.5833 O   0  0  0  0  0  0  0  0  0  0  0  0
    0.5250   -1.8212   -0.9617 O   0  0  0  0  0  0  0  0  0  0  0  0
    2.8941    1.3228   -0.4239 O   0  0  0  0  0  0  0  0  0  0  0  0
    7.3116   -2.7845   -1.0688 O   0  0  0  0  0  0  0  0  0  0  0  0
   -0.0467    0.9720   -0.2866 N   0  0  0  0  0  0  0  0  0  0  0  0
    1.1925   -2.6744    1.0944 N   0  0  0  0  0  0  0  0  0  0  0  0
    1.2321    2.9784   -0.6723 N   0  0  0  0  0  0  0  0  0  0  0  0
    4.8386   -2.8580    0.3384 N   0  0  0  0  0  0  0  0  0  0  0  0
   -3.3835   -0.7858    0.5158 C   0  0  2  0  0  0  0  0  0  0  0  0
   -4.2104    0.1701   -0.4526 C   0  0  1  0  0  0  0  0  0  0  0  0
   -5.7784   -0.0023   -0.4610 C   0  0  1  0  0  0  0  0  0  0  0  0
   -1.8547   -0.7543    0.0519 C   0  0  1  0  0  0  0  0  0  0  0  0
   -3.9067   -2.2390    0.3762 C   0  0  0  0  0  0  0  0  0  0  0  0
   -6.1268   -1.5146   -0.5589 C   0  0  1  0  0  0  0  0  0  0  0  0
   -3.7430    1.6494   -0.3268 C   0  0  0  0  0  0  0  0  0  0  0  0
   -5.4192   -2.3636    0.4913 C   0  0  0  0  0  0  0  0  0  0  0  0
   -3.4792   -0.3638    2.0027 C   0  0  0  0  0  0  0  0  0  0  0  0
   -1.3899    0.6592   -0.1872 C   0  0  0  0  0  0  0  0  0  0  0  0
   -6.5013    0.6530    0.7366 C   0  0  0  0  0  0  0  0  0  0  0  0
   -6.3577    0.6887   -1.7278 C   0  0  0  0  0  0  0  0  0  0  0  0
   -2.2540    1.7192   -0.3725 C   0  0  0  0  0  0  0  0  0  0  0  0
   -0.8921   -1.5136    0.9750 C   0  0  0  0  0  0  0  0  0  0  0  0
    0.3331   -2.0020    0.2376 C   0  0  0  0  0  0  0  0  0  0  0  0
    0.0755    2.2613   -0.5166 C   0  0  0  0  0  0  0  0  0  0  0  0
    2.4440   -3.2539    0.6631 C   0  0  0  0  0  0  0  0  0  0  0  0
    2.5459    2.4839   -0.6191 C   0  0  0  0  0  0  0  0  0  0  0  0
    3.5856   -2.2556    0.7887 C   0  0  0  0  0  0  0  0  0  0  0  0
    3.5931    3.5710   -0.8302 C   0  0  0  0  0  0  0  0  0  0  0  0
    4.1429    4.2027    0.4712 C   0  0  0  0  0  0  0  0  0  0  0  0
    4.8902   -2.9199   -1.1288 C   0  0  0  0  0  0  0  0  0  0  0  0
    5.9927   -2.1067    0.8516 C   0  0  0  0  0  0  0  0  0  0  0  0
    4.7834    3.1370    1.3763 C   0  0  0  0  0  0  0  0  0  0  0  0
    5.2269    5.2273    0.0825 C   0  0  0  0  0  0  0  0  0  0  0  0
    3.0407    4.9358    1.2530 C   0  0  0  0  0  0  0  0  0  0  0  0
    6.2109   -3.5409   -1.5745 C   0  0  0  0  0  0  0  0  0  0  0  0
    7.2877   -2.7459    0.3586 C   0  0  0  0  0  0  0  0  0  0  0  0
   -3.9020   -0.1473   -1.4641 H   0  0  0  0  0  0  0  0  0  0  0  0
   -1.8354   -1.2318   -0.9394 H   0  0  0  0  0  0  0  0  0  0  0  0
   -3.6041   -2.6464   -0.5975 H   0  0  0  0  0  0  0  0  0  0  0  0
   -3.4551   -2.8903    1.1330 H   0  0  0  0  0  0  0  0  0  0  0  0
   -5.8406   -1.8822   -1.5534 H   0  0  0  0  0  0  0  0  0  0  0  0
   -4.0926    2.0920    0.6119 H   0  0  0  0  0  0  0  0  0  0  0  0
   -4.1565    2.2461   -1.1467 H   0  0  0  0  0  0  0  0  0  0  0  0
   -5.7039   -3.4153    0.3576 H   0  0  0  0  0  0  0  0  0  0  0  0
   -5.7652   -2.1038    1.4978 H   0  0  0  0  0  0  0  0  0  0  0  0
   -3.1216    0.6552    2.1741 H   0  0  0  0  0  0  0  0  0  0  0  0
   -4.4898   -0.4309    2.4000 H   0  0  0  0  0  0  0  0  0  0  0  0
   -2.8778   -1.0210    2.6405 H   0  0  0  0  0  0  0  0  0  0  0  0
   -6.2109    0.2280    1.6940 H   0  0  0  0  0  0  0  0  0  0  0  0
   -6.3343    1.7339    0.7710 H   0  0  0  0  0  0  0  0  0  0  0  0
   -7.4183    0.4598   -1.8805 H   0  0  0  0  0  0  0  0  0  0  0  0
   -6.2696    1.7788   -1.6738 H   0  0  0  0  0  0  0  0  0  0  0  0
   -5.8310    0.3577   -2.6305 H   0  0  0  0  0  0  0  0  0  0  0  0
   -1.3679   -2.4068    1.3922 H   0  0  0  0  0  0  0  0  0  0  0  0
   -0.5693   -0.8858    1.8151 H   0  0  0  0  0  0  0  0  0  0  0  0
   -7.7082   -2.6648   -0.5524 H   0  0  0  0  0  0  0  0  0  0  0  0
   -8.3329    0.8481    1.3347 H   0  0  0  0  0  0  0  0  0  0  0  0
    0.9460   -2.7636    2.0761 H   0  0  0  0  0  0  0  0  0  0  0  0
    1.0987    3.9721   -0.8408 H   0  0  0  0  0  0  0  0  0  0  0  0
    2.3089   -3.6025   -0.3648 H   0  0  0  0  0  0  0  0  0  0  0  0
    2.6256   -4.1306    1.2949 H   0  0  0  0  0  0  0  0  0  0  0  0
    3.3630   -1.3288    0.2450 H   0  0  0  0  0  0  0  0  0  0  0  0
    3.6613   -1.9766    1.8485 H   0  0  0  0  0  0  0  0  0  0  0  0
    4.4113    3.1155   -1.4040 H   0  0  0  0  0  0  0  0  0  0  0  0
    3.1718    4.3507   -1.4780 H   0  0  0  0  0  0  0  0  0  0  0  0
    4.0803   -3.5314   -1.5372 H   0  0  0  0  0  0  0  0  0  0  0  0
    4.8024   -1.9122   -1.5560 H   0  0  0  0  0  0  0  0  0  0  0  0
    5.9467   -1.0633    0.5129 H   0  0  0  0  0  0  0  0  0  0  0  0
    5.9940   -2.1090    1.9476 H   0  0  0  0  0  0  0  0  0  0  0  0
    5.5484    2.5677    0.8367 H   0  0  0  0  0  0  0  0  0  0  0  0
    4.0403    2.4279    1.7559 H   0  0  0  0  0  0  0  0  0  0  0  0
    5.2646    3.5973    2.2469 H   0  0  0  0  0  0  0  0  0  0  0  0
    6.0469    4.7480   -0.4643 H   0  0  0  0  0  0  0  0  0  0  0  0
    4.8145    6.0159   -0.5569 H   0  0  0  0  0  0  0  0  0  0  0  0
    5.6559    5.7086    0.9687 H   0  0  0  0  0  0  0  0  0  0  0  0
    2.2809    4.2418    1.6270 H   0  0  0  0  0  0  0  0  0  0  0  0
    2.5388    5.6802    0.6249 H   0  0  0  0  0  0  0  0  0  0  0  0
    3.4555    5.4599    2.1217 H   0  0  0  0  0  0  0  0  0  0  0  0
    6.3002   -4.5832   -1.2448 H   0  0  0  0  0  0  0  0  0  0  0  0
    6.2768   -3.5326   -2.6672 H   0  0  0  0  0  0  0  0  0  0  0  0
    8.1458   -2.1523    0.6896 H   0  0  0  0  0  0  0  0  0  0  0  0
    7.4143   -3.7610    0.7544 H   0  0  0  0  0  0  0  0  0  0  0  0
  1 23  1  0  0  0  0
  1 26  1  0  0  0  0
  2 16  1  0  0  0  0
  2 58  1  0  0  0  0
  3 21  1  0  0  0  0
  3 59  1  0  0  0  0
  4 25  2  0  0  0  0
  5 28  2  0  0  0  0
  6 37  1  0  0  0  0
  6 38  1  0  0  0  0
  7 20  1  0  0  0  0
  7 26  2  0  0  0  0
  8 25  1  0  0  0  0
  8 27  1  0  0  0  0
  8 60  1  0  0  0  0
  9 26  1  0  0  0  0
  9 28  1  0  0  0  0
  9 61  1  0  0  0  0
 10 29  1  0  0  0  0
 10 32  1  0  0  0  0
 10 33  1  0  0  0  0
 11 12  1  0  0  0  0
 11 14  1  0  0  0  0
 11 15  1  0  0  0  0
 11 19  1  0  0  0  0
 12 13  1  0  0  0  0
 12 17  1  0  0  0  0
 12 39  1  0  0  0  0
 13 16  1  0  0  0  0
 13 21  1  0  0  0  0
 13 22  1  0  0  0  0
 14 20  1  0  0  0  0
 14 24  1  0  0  0  0
 14 40  1  0  0  0  0
 15 18  1  0  0  0  0
 15 41  1  0  0  0  0
 15 42  1  0  0  0  0
 16 18  1  0  0  0  0
 16 43  1  0  0  0  0
 17 23  1  0  0  0  0
 17 44  1  0  0  0  0
 17 45  1  0  0  0  0
 18 46  1  0  0  0  0
 18 47  1  0  0  0  0
 19 48  1  0  0  0  0
 19 49  1  0  0  0  0
 19 50  1  0  0  0  0
 20 23  2  0  0  0  0
 21 51  1  0  0  0  0
 21 52  1  0  0  0  0
 22 53  1  0  0  0  0
 22 54  1  0  0  0  0
 22 55  1  0  0  0  0
 24 25  1  0  0  0  0
 24 56  1  0  0  0  0
 24 57  1  0  0  0  0
 27 29  1  0  0  0  0
 27 62  1  0  0  0  0
 27 63  1  0  0  0  0
 28 30  1  0  0  0  0
 29 64  1  0  0  0  0
 29 65  1  0  0  0  0
 30 31  1  0  0  0  0
 30 66  1  0  0  0  0
 30 67  1  0  0  0  0
 31 34  1  0  0  0  0
 31 35  1  0  0  0  0
 31 36  1  0  0  0  0
 32 37  1  0  0  0  0
 32 68  1  0  0  0  0
 32 69  1  0  0  0  0
 33 38  1  0  0  0  0
 33 70  1  0  0  0  0
 33 71  1  0  0  0  0
 34 72  1  0  0  0  0
 34 73  1  0  0  0  0
 34 74  1  0  0  0  0
 35 75  1  0  0  0  0
 35 76  1  0  0  0  0
 35 77  1  0  0  0  0
 36 78  1  0  0  0  0
 36 79  1  0  0  0  0
 36 80  1  0  0  0  0
 37 81  1  0  0  0  0
 37 82  1  0  0  0  0
 38 83  1  0  0  0  0
 38 84  1  0  0  0  0
M  END
> <PUBCHEM_COMPOUND_CID>
11885041

> <PUBCHEM_CONFORMER_RMSD>
1.2

> <PUBCHEM_CONFORMER_DIVERSEORDER>
1
11
3
13
23
30
14
34
9
17
25
31
24
37
10
38
27
15
32
12
7
18
26
33
22
39
29
16
8
20
36
35
21
28
19
2
5
4
6

> <PUBCHEM_MMFF94_PARTIAL_CHARGES>
31
1 -0.08
10 -0.81
14 0.18
16 0.28
17 0.18
2 -0.68
20 0.05
21 0.28
23 -0.14
24 0.06
25 0.57
26 0.44
27 0.3
28 0.57
29 0.27
3 -0.68
30 0.06
32 0.27
33 0.27
37 0.28
38 0.28
4 -0.57
5 -0.57
58 0.4
59 0.4
6 -0.56
60 0.37
61 0.37
7 -0.57
8 -0.73
9 -0.49

> <PUBCHEM_EFFECTIVE_ROTOR_COUNT>
13.4

> <PUBCHEM_PHARMACOPHORE_FEATURES>
15
1 10 cation
1 2 acceptor
1 2 donor
1 3 acceptor
1 3 donor
1 4 acceptor
1 5 acceptor
1 6 acceptor
1 8 donor
1 9 donor
4 31 34 35 36 hydrophobe
5 1 7 20 23 26 rings
6 11 12 13 15 16 18 rings
6 11 12 14 17 20 23 rings
6 6 10 32 33 37 38 rings

> <PUBCHEM_HEAVY_ATOM_COUNT>
38

> <PUBCHEM_ATOM_DEF_STEREO_COUNT>
5

> <PUBCHEM_ATOM_UDEF_STEREO_COUNT>
0

> <PUBCHEM_BOND_DEF_STEREO_COUNT>
0

> <PUBCHEM_BOND_UDEF_STEREO_COUNT>
0

> <PUBCHEM_ISOTOPIC_ATOM_COUNT>
0

> <PUBCHEM_COMPONENT_COUNT>
1

> <PUBCHEM_CACTVS_TAUTO_COUNT>
6

> <PUBCHEM_CONFORMER_ID>
00B559F100000001

> <PUBCHEM_MMFF94_ENERGY>
103.4926

> <PUBCHEM_FEATURE_SELFOVERLAP>
76.268

> <PUBCHEM_SHAPE_FINGERPRINT>
10032420 55 17531804624442557394
10050765 1 18266178512269926331
10290309 65 18048887582833814344
12166972 35 18272650104350141666
12677640 9 18124877854659694104
12857493 111 18340767026997151732
12977781 61 17678474158012520243
14068700 675 18338798914410439768
14117953 113 18340765932550430063
14415361 349 17988344989559238807
14725015 67 18187920652151181778
15064986 96 18189049957555543096
15264996 44 18341902909493810164
15351339 4 18261684697384255148
15400415 2 17833267902066139348
15927050 60 18123188176223474830
15968369 26 17897172540184219854
16067689 302 18193277614868663739
19611394 137 18187379700477698642
20642791 35 18260822670876654995
20721686 56 18333453148889931074
21130935 74 18340208608987770177
21344244 246 18264481966207608503
21779490 94 18272354391958148408
22311459 1 18336827485630629619
23559900 14 18336538340158267851
24771750 20 18115324382924684342
249999 5 18339359781658436144
335352 9 18262794053161554503
4017518 198 18052264191943730028
4144715 1 18187931754557518971
5171179 24 18409446947300178520
5385378 56 18336267942155564113
5776283 40 18263092166768028252
59520647 208 18411417345642175256
6669772 16 18266458896276756796
6700243 42 17698455325711929694
9961470 85 18265892634982749506

> <PUBCHEM_SHAPE_MULTIPOLES>
736.6
19.68
6.79
1.29
6.09
5.89
-0.06
-10.83
1.69
-17.4
-0.29
-0.27
-0.14
2.31

> <PUBCHEM_SHAPE_SELFOVERLAP>
1515.547

> <PUBCHEM_SHAPE_VOLUME>
427.6

> <PUBCHEM_COORDINATE_TYPE>
2
5
10

$$$$
