71694323
  -OEChem-12032416273D

 50 52  0     1  0  0  0  0  0999 V2000
   -6.4477   -1.8409    1.1806 F   0  0  0  0  0  0  0  0  0  0  0  0
   -7.8372   -0.4710    0.1965 F   0  0  0  0  0  0  0  0  0  0  0  0
   -6.0282   -1.0968   -0.8577 F   0  0  0  0  0  0  0  0  0  0  0  0
    1.9666   -2.4706   -1.4126 O   0  0  0  0  0  0  0  0  0  0  0  0
    4.9731    1.4082   -0.5728 O   0  0  0  0  0  0  0  0  0  0  0  0
   -5.8579    0.3517    0.9041 O   0  0  0  0  0  0  0  0  0  0  0  0
    3.6127   -0.4575   -0.2871 N   0  0  0  0  0  0  0  0  0  0  0  0
    0.3573    0.1535   -0.7832 N   0  0  0  0  0  0  0  0  0  0  0  0
    1.5364    2.0262   -0.9686 N   0  0  0  0  0  0  0  0  0  0  0  0
    2.7703   -0.1402   -1.4585 C   0  0  1  0  0  0  0  0  0  0  0  0
    5.3824    0.0905    1.3526 C   0  0  0  0  0  0  0  0  0  0  0  0
    3.2153   -1.6425    0.4842 C   0  0  0  0  0  0  0  0  0  0  0  0
    2.4258   -1.4116   -2.2536 C   0  0  0  0  0  0  0  0  0  0  0  0
    4.6430    0.4139    0.0787 C   0  0  0  0  0  0  0  0  0  0  0  0
    2.9484   -2.8204   -0.4392 C   0  0  0  0  0  0  0  0  0  0  0  0
    1.5696    0.7161   -1.0713 C   0  0  0  0  0  0  0  0  0  0  0  0
    6.0133   -1.2930    1.1911 C   0  0  0  0  0  0  0  0  0  0  0  0
    6.4638    1.1489    1.5773 C   0  0  0  0  0  0  0  0  0  0  0  0
    4.3871    0.0927    2.5141 C   0  0  0  0  0  0  0  0  0  0  0  0
   -0.5037    1.1695   -0.4773 C   0  0  0  0  0  0  0  0  0  0  0  0
    0.2468    2.3153   -0.5987 C   0  0  0  0  0  0  0  0  0  0  0  0
   -1.8820    0.9596   -0.1207 C   0  0  0  0  0  0  0  0  0  0  0  0
   -2.8363    1.9315   -0.4217 C   0  0  0  0  0  0  0  0  0  0  0  0
   -2.2639   -0.2162    0.5255 C   0  0  0  0  0  0  0  0  0  0  0  0
   -4.1722    1.7277   -0.0765 C   0  0  0  0  0  0  0  0  0  0  0  0
   -3.5998   -0.4199    0.8708 C   0  0  0  0  0  0  0  0  0  0  0  0
   -4.5539    0.5519    0.5698 C   0  0  0  0  0  0  0  0  0  0  0  0
   -6.5292   -0.7765    0.3543 C   0  0  0  0  0  0  0  0  0  0  0  0
    3.3587    0.4960   -2.1336 H   0  0  0  0  0  0  0  0  0  0  0  0
    2.2807   -1.3665    0.9885 H   0  0  0  0  0  0  0  0  0  0  0  0
    3.8834   -1.9984    1.2493 H   0  0  0  0  0  0  0  0  0  0  0  0
    1.6523   -1.2127   -3.0034 H   0  0  0  0  0  0  0  0  0  0  0  0
    3.3125   -1.7678   -2.7933 H   0  0  0  0  0  0  0  0  0  0  0  0
    3.8631   -3.1529   -0.9443 H   0  0  0  0  0  0  0  0  0  0  0  0
    2.5582   -3.6662    0.1358 H   0  0  0  0  0  0  0  0  0  0  0  0
    7.1088   -1.2032    1.1857 H   0  0  0  0  0  0  0  0  0  0  0  0
    5.7934   -1.8021    0.2468 H   0  0  0  0  0  0  0  0  0  0  0  0
    5.8088   -1.9682    2.0299 H   0  0  0  0  0  0  0  0  0  0  0  0
    7.1713    1.1937    0.7405 H   0  0  0  0  0  0  0  0  0  0  0  0
    6.0296    2.1490    1.6956 H   0  0  0  0  0  0  0  0  0  0  0  0
    7.0429    0.9335    2.4829 H   0  0  0  0  0  0  0  0  0  0  0  0
    3.4885    0.6815    2.2934 H   0  0  0  0  0  0  0  0  0  0  0  0
    4.0687   -0.8907    2.8689 H   0  0  0  0  0  0  0  0  0  0  0  0
    4.8404    0.5587    3.3990 H   0  0  0  0  0  0  0  0  0  0  0  0
    0.1426   -0.8349   -0.8011 H   0  0  0  0  0  0  0  0  0  0  0  0
   -0.0659    3.3375   -0.4379 H   0  0  0  0  0  0  0  0  0  0  0  0
   -2.5661    2.8537   -0.9302 H   0  0  0  0  0  0  0  0  0  0  0  0
   -1.5424   -0.9870    0.7849 H   0  0  0  0  0  0  0  0  0  0  0  0
   -4.9117    2.4871   -0.3153 H   0  0  0  0  0  0  0  0  0  0  0  0
   -3.8822   -1.3362    1.3818 H   0  0  0  0  0  0  0  0  0  0  0  0
  1 28  1  0  0  0  0
  2 28  1  0  0  0  0
  3 28  1  0  0  0  0
  4 13  1  0  0  0  0
  4 15  1  0  0  0  0
  5 14  2  0  0  0  0
  6 27  1  0  0  0  0
  6 28  1  0  0  0  0
  7 10  1  0  0  0  0
  7 12  1  0  0  0  0
  7 14  1  0  0  0  0
  8 16  1  0  0  0  0
  8 20  1  0  0  0  0
  8 45  1  0  0  0  0
  9 16  2  0  0  0  0
  9 21  1  0  0  0  0
 10 13  1  0  0  0  0
 10 16  1  0  0  0  0
 10 29  1  0  0  0  0
 11 14  1  0  0  0  0
 11 17  1  0  0  0  0
 11 18  1  0  0  0  0
 11 19  1  0  0  0  0
 12 15  1  0  0  0  0
 12 30  1  0  0  0  0
 12 31  1  0  0  0  0
 13 32  1  0  0  0  0
 13 33  1  0  0  0  0
 15 34  1  0  0  0  0
 15 35  1  0  0  0  0
 17 36  1  0  0  0  0
 17 37  1  0  0  0  0
 17 38  1  0  0  0  0
 18 39  1  0  0  0  0
 18 40  1  0  0  0  0
 18 41  1  0  0  0  0
 19 42  1  0  0  0  0
 19 43  1  0  0  0  0
 19 44  1  0  0  0  0
 20 21  2  0  0  0  0
 20 22  1  0  0  0  0
 21 46  1  0  0  0  0
 22 23  2  0  0  0  0
 22 24  1  0  0  0  0
 23 25  1  0  0  0  0
 23 47  1  0  0  0  0
 24 26  2  0  0  0  0
 24 48  1  0  0  0  0
 25 27  2  0  0  0  0
 25 49  1  0  0  0  0
 26 27  1  0  0  0  0
 26 50  1  0  0  0  0
M  END
> <PUBCHEM_COMPOUND_CID>
71694323

> <PUBCHEM_CONFORMER_RMSD>
0.8

> <PUBCHEM_CONFORMER_DIVERSEORDER>
13
49
77
16
12
17
97
2
55
124
37
63
108
94
81
112
25
8
22
60
29
35
85
32
64
111
102
84
127
21
4
74
66
6
72
61
9
131
19
46
87
24
125
23
86
5
119
128
52
93
44
15
89
115
50
31
73
95
10
14
80
98
62
100
78
117
109
120
130
129
96
47
42
68
123
114
69
59
41
48
107
11
30
1
38
106
90
18
92
88
113
65
3
101
40
33
26
7
110
126
67
121
57
82
36
105
58
28
27
53
75
79
91
51
20
99
76
122
43
54
39
104
103
45
70
83
71
56
116
34
118

> <PUBCHEM_MMFF94_PARTIAL_CHARGES>
31
1 -0.34
10 0.48
11 0.06
12 0.3
13 0.28
14 0.57
15 0.28
16 0.01
2 -0.34
20 -0.2
21 0.08
22 0.05
23 -0.15
24 -0.15
25 -0.15
26 -0.15
27 0.08
28 1.3
3 -0.34
4 -0.56
45 0.27
46 0.15
47 0.15
48 0.15
49 0.15
5 -0.57
50 0.15
6 -0.36
7 -0.66
8 0.03
9 -0.57

> <PUBCHEM_EFFECTIVE_ROTOR_COUNT>
7.2

> <PUBCHEM_PHARMACOPHORE_FEATURES>
9
1 4 acceptor
1 5 acceptor
1 6 acceptor
1 8 donor
3 8 9 16 cation
4 11 17 18 19 hydrophobe
5 8 9 16 20 21 rings
6 22 23 24 25 26 27 rings
6 4 7 10 12 13 15 rings

> <PUBCHEM_HEAVY_ATOM_COUNT>
28

> <PUBCHEM_ATOM_DEF_STEREO_COUNT>
1

> <PUBCHEM_ATOM_UDEF_STEREO_COUNT>
0

> <PUBCHEM_BOND_DEF_STEREO_COUNT>
0

> <PUBCHEM_BOND_UDEF_STEREO_COUNT>
0

> <PUBCHEM_ISOTOPIC_ATOM_COUNT>
0

> <PUBCHEM_COMPONENT_COUNT>
1

> <PUBCHEM_CACTVS_TAUTO_COUNT>
2

> <PUBCHEM_CONFORMER_ID>
0445F7F30000000D

> <PUBCHEM_MMFF94_ENERGY>
89.1422

> <PUBCHEM_FEATURE_SELFOVERLAP>
45.671

> <PUBCHEM_SHAPE_FINGERPRINT>
10 15 18202560709309136080
10165383 225 17846497067811007064
10378564 45 11241973680905673382
11443803 9 17970366987102996972
11595378 159 15912775968576665409
11720765 8 11386370331696363158
12516196 113 18341895190514964857
12596602 18 17131840841568174203
12730499 353 17489592247233407518
12892183 10 17916871201117956413
13533116 47 17417822690492029735
13782708 43 16299248933289613651
13914758 101 15936401213999490901
14211702 104 17895205445379332867
14251740 57 18268999700008055798
146900 427 16988838376117554938
15119646 104 17168140101383668801
15183329 4 11458419120417616749
15188451 53 17458337525143535352
15419008 42 18046616816612725981
15510800 12 17895492357489429571
16992610 120 18269002059174560484
17349148 13 15719681944331187920
17857418 61 18113339726076968497
19377110 9 17775003492561537773
1979834 28 18272652325285771388
20028762 73 17967529052322094242
20567600 234 17988920106558273128
20567600 9 9079119951355551799
21197605 99 18337957886668226250
21304304 249 18040996216135367530
21315764 119 14418128513742107971
22061861 79 14273458084973392075
22079108 93 16988840596710599036
22149856 69 18199770101932787971
22224240 67 18202278139368738528
22956985 138 18048315540762097454
23559900 14 18120383051445923804
29717793 49 14417853648229617661
3004659 81 17603879879043056910
32027 91 17832420899880816695
3383291 50 17967257511852652947
340366 18 12613049296364761440
427121 178 17988920068683970798
4339292 15 13335279925484329640
4340502 62 17632294575425412302
437795 51 16773793748620972354
439807 62 16806178790830222483
465052 167 18260546719496879504
5104073 3 17986679173206785329
54076057 127 16056606452129462278
54076057 255 12679458707592225762
58260988 587 16630532847695729548
59682541 35 18340483465335800408
59682541 52 13479134583867449258
6004065 56 18339077202790552537
6081469 158 14418125198554824352
633830 44 8934420875133885529
8988823 20 17530685433264335156
9862260 156 8862951563315058596

> <PUBCHEM_SHAPE_MULTIPOLES>
521.85
17.91
2.32
1.69
20.24
0.56
0.13
4.09
8.91
-0.66
-0.65
-2.37
0.32
1.13

> <PUBCHEM_SHAPE_SELFOVERLAP>
1118.362

> <PUBCHEM_SHAPE_VOLUME>
291.8

> <PUBCHEM_COORDINATE_TYPE>
2
5
10

$$$$
