45784173
  -OEChem-12032416283D

 47 50  0     1  0  0  0  0  0999 V2000
    8.2845    1.7431   -0.3891 Cl  0  0  0  0  0  0  0  0  0  0  0  0
    3.5457   -1.5307    0.3285 O   0  0  0  0  0  0  0  0  0  0  0  0
   -0.9611   -0.2425   -0.2501 N   0  0  1  0  0  0  0  0  0  0  0  0
    3.1826    0.6929    0.0826 N   0  0  0  0  0  0  0  0  0  0  0  0
   -7.3219   -0.0263    0.3381 N   0  0  0  0  0  0  0  0  0  0  0  0
    1.2006   -0.8731    0.4048 C   0  0  1  0  0  0  0  0  0  0  0  0
    0.4761   -0.2116    1.5901 C   0  0  0  0  0  0  0  0  0  0  0  0
    0.3629   -0.4931   -0.8236 C   0  0  0  0  0  0  0  0  0  0  0  0
   -0.7048    0.5236    0.9695 C   0  0  0  0  0  0  0  0  0  0  0  0
   -1.8412    0.4608   -1.1715 C   0  0  0  0  0  0  0  0  0  0  0  0
    2.6580   -0.4993    0.2627 C   0  0  0  0  0  0  0  0  0  0  0  0
   -3.2876    0.3321   -0.7738 C   0  0  0  0  0  0  0  0  0  0  0  0
    4.5315    0.4391    0.0228 C   0  0  0  0  0  0  0  0  0  0  0  0
    4.7577   -0.9211    0.1729 C   0  0  0  0  0  0  0  0  0  0  0  0
   -3.9751   -0.8570   -1.0170 C   0  0  0  0  0  0  0  0  0  0  0  0
   -3.9400    1.4020   -0.1613 C   0  0  0  0  0  0  0  0  0  0  0  0
   -5.3150   -0.9761   -0.6480 C   0  0  0  0  0  0  0  0  0  0  0  0
   -5.2799    1.2831    0.2077 C   0  0  0  0  0  0  0  0  0  0  0  0
   -5.9673    0.0941   -0.0357 C   0  0  0  0  0  0  0  0  0  0  0  0
    5.6294    1.2931   -0.1549 C   0  0  0  0  0  0  0  0  0  0  0  0
    6.0106   -1.5213    0.1617 C   0  0  0  0  0  0  0  0  0  0  0  0
    6.9110    0.7238   -0.1719 C   0  0  0  0  0  0  0  0  0  0  0  0
    7.0952   -0.6556   -0.0165 C   0  0  0  0  0  0  0  0  0  0  0  0
   -8.0451   -1.2576    0.0903 C   0  0  0  0  0  0  0  0  0  0  0  0
   -8.0065    1.0773    0.9818 C   0  0  0  0  0  0  0  0  0  0  0  0
    1.1399   -1.9617    0.5457 H   0  0  0  0  0  0  0  0  0  0  0  0
    0.1174   -0.9887    2.2766 H   0  0  0  0  0  0  0  0  0  0  0  0
    1.1134    0.4700    2.1634 H   0  0  0  0  0  0  0  0  0  0  0  0
    0.3406   -1.3071   -1.5563 H   0  0  0  0  0  0  0  0  0  0  0  0
    0.7618    0.4031   -1.3174 H   0  0  0  0  0  0  0  0  0  0  0  0
   -0.4187    1.5604    0.7506 H   0  0  0  0  0  0  0  0  0  0  0  0
   -1.5621    0.5328    1.6499 H   0  0  0  0  0  0  0  0  0  0  0  0
   -1.5584    1.5157   -1.2901 H   0  0  0  0  0  0  0  0  0  0  0  0
   -1.7507    0.0261   -2.1772 H   0  0  0  0  0  0  0  0  0  0  0  0
   -3.4771   -1.6975   -1.4934 H   0  0  0  0  0  0  0  0  0  0  0  0
   -3.4149    2.3331    0.0352 H   0  0  0  0  0  0  0  0  0  0  0  0
   -5.8053   -1.9214   -0.8584 H   0  0  0  0  0  0  0  0  0  0  0  0
   -5.7421    2.1435    0.6813 H   0  0  0  0  0  0  0  0  0  0  0  0
    5.4827    2.3620   -0.2752 H   0  0  0  0  0  0  0  0  0  0  0  0
    6.1421   -2.5893    0.2826 H   0  0  0  0  0  0  0  0  0  0  0  0
    8.0979   -1.0785   -0.0327 H   0  0  0  0  0  0  0  0  0  0  0  0
   -8.0858   -1.4843   -0.9809 H   0  0  0  0  0  0  0  0  0  0  0  0
   -7.5912   -2.0981    0.6269 H   0  0  0  0  0  0  0  0  0  0  0  0
   -9.0837   -1.1934    0.4339 H   0  0  0  0  0  0  0  0  0  0  0  0
   -7.5318    1.3359    1.9349 H   0  0  0  0  0  0  0  0  0  0  0  0
   -8.0327    1.9597    0.3328 H   0  0  0  0  0  0  0  0  0  0  0  0
   -9.0489    0.8289    1.2108 H   0  0  0  0  0  0  0  0  0  0  0  0
  1 22  1  0  0  0  0
  2 11  1  0  0  0  0
  2 14  1  0  0  0  0
  3  8  1  0  0  0  0
  3  9  1  0  0  0  0
  3 10  1  0  0  0  0
  4 11  2  0  0  0  0
  4 13  1  0  0  0  0
  5 19  1  0  0  0  0
  5 24  1  0  0  0  0
  5 25  1  0  0  0  0
  6  7  1  0  0  0  0
  6  8  1  0  0  0  0
  6 11  1  0  0  0  0
  6 26  1  0  0  0  0
  7  9  1  0  0  0  0
  7 27  1  0  0  0  0
  7 28  1  0  0  0  0
  8 29  1  0  0  0  0
  8 30  1  0  0  0  0
  9 31  1  0  0  0  0
  9 32  1  0  0  0  0
 10 12  1  0  0  0  0
 10 33  1  0  0  0  0
 10 34  1  0  0  0  0
 12 15  2  0  0  0  0
 12 16  1  0  0  0  0
 13 14  2  0  0  0  0
 13 20  1  0  0  0  0
 14 21  1  0  0  0  0
 15 17  1  0  0  0  0
 15 35  1  0  0  0  0
 16 18  2  0  0  0  0
 16 36  1  0  0  0  0
 17 19  2  0  0  0  0
 17 37  1  0  0  0  0
 18 19  1  0  0  0  0
 18 38  1  0  0  0  0
 20 22  2  0  0  0  0
 20 39  1  0  0  0  0
 21 23  2  0  0  0  0
 21 40  1  0  0  0  0
 22 23  1  0  0  0  0
 23 41  1  0  0  0  0
 24 42  1  0  0  0  0
 24 43  1  0  0  0  0
 24 44  1  0  0  0  0
 25 45  1  0  0  0  0
 25 46  1  0  0  0  0
 25 47  1  0  0  0  0
M  END
> <PUBCHEM_COMPOUND_CID>
45784173

> <PUBCHEM_CONFORMER_RMSD>
0.8

> <PUBCHEM_CONFORMER_DIVERSEORDER>
1
35
5
7
33
52
53
26
29
36
43
41
32
2
10
50
47
17
25
22
21
49
40
24
31
9
34
18
28
39
51
45
27
13
30
20
11
46
48
38
23
16
19
44
4
6
42
14
8
37
3
12
15

> <PUBCHEM_MMFF94_PARTIAL_CHARGES>
31
1 -0.18
10 0.41
11 0.3
12 -0.14
13 0.23
14 0.14
15 -0.15
16 -0.15
17 -0.15
18 -0.15
19 0.1
2 -0.28
20 -0.15
21 -0.15
22 0.18
23 -0.15
24 0.37
25 0.37
3 -0.81
35 0.15
36 0.15
37 0.15
38 0.15
39 0.15
4 -0.57
40 0.15
41 0.15
5 -0.84
6 0.18
8 0.27
9 0.27

> <PUBCHEM_EFFECTIVE_ROTOR_COUNT>
5

> <PUBCHEM_PHARMACOPHORE_FEATURES>
6
1 3 cation
1 5 cation
5 2 4 11 13 14 rings
5 3 6 7 8 9 rings
6 12 15 16 17 18 19 rings
6 13 14 20 21 22 23 rings

> <PUBCHEM_HEAVY_ATOM_COUNT>
25

> <PUBCHEM_ATOM_DEF_STEREO_COUNT>
1

> <PUBCHEM_ATOM_UDEF_STEREO_COUNT>
0

> <PUBCHEM_BOND_DEF_STEREO_COUNT>
0

> <PUBCHEM_BOND_UDEF_STEREO_COUNT>
0

> <PUBCHEM_ISOTOPIC_ATOM_COUNT>
0

> <PUBCHEM_COMPONENT_COUNT>
1

> <PUBCHEM_CACTVS_TAUTO_COUNT>
1

> <PUBCHEM_CONFORMER_ID>
02BA9C6D00000001

> <PUBCHEM_MMFF94_ENERGY>
67.5905

> <PUBCHEM_FEATURE_SELFOVERLAP>
30.567

> <PUBCHEM_SHAPE_FINGERPRINT>
10 15 18272936020866147079
10299344 5 18343863325182148095
10595046 47 18410290277071367000
106641 1 17458348558724640457
10670039 82 11023833843243133555
10883706 142 18186796994496537128
11315181 36 18410293610857571113
11638347 137 15864064357030199096
11646440 116 16950567670826989732
11724838 91 17822010934494898142
12166972 35 18334013887341825004
12236239 1 18272649035319743094
12516196 113 16660362571459093141
12730499 353 17894910699001188914
12838862 33 15936682744937331451
13073987 5 16660915578494690845
13533116 47 16805875183754776786
14123256 10 16732983120072424347
14170010 4 18040435508275810740
14251764 18 18131630093325468879
14251764 46 17385443219651713859
14347424 109 9079112246785693790
14671636 106 18338797944381580599
14849402 71 18335706095471174404
14856354 85 17703791449003900311
14933364 13 18413388730639616100
15183329 4 15985106309969779768
15419008 47 15791725317368130365
15690457 1 11169911701743397328
15716309 27 18409728448310313615
15728490 51 18187928434690236403
1577012 14 18272926133413692542
18006028 8 10807937067821142018
18335252 98 18409732871736439786
19489759 90 10881402024427076183
20157964 124 18333731317522363386
20735858 18 15285357318785902280
21033648 29 18115019849133789256
21095086 128 18409728461142688799
21150785 3 18272089413950268848
21267235 1 18413390921083363164
21521721 280 18333450958314081522
21792961 116 17418094256694013741
21795232 338 18128255782514180579
220451 1 17561075904137651230
22224240 67 16805322201755706794
23035841 295 18343299258626842067
23516275 137 18058469637259584047
23536379 177 18341328920725468074
23569943 247 17171229612867353938
23576562 1 16557603387844790705
2747138 104 17095532781232912445
28498 318 11383839259775225232
3004659 81 16845569842677166192
335352 9 17418370295197182557
34797466 226 18412547600666760382
4073 2 18259989296660427658
4325135 7 18408040719257010101
5265222 85 17988638670215266710
5283156 175 17203331083801708750
5758199 1 18260267451568791866
59682541 35 17168147866267976993
6394761 36 12823300099860306521
67123 10 18409449202479508895

> <PUBCHEM_SHAPE_MULTIPOLES>
495.55
26.24
1.49
0.99
4.16
0.1
-0.08
3.84
-0.63
-0.92
0.01
0.66
0.01
-1.07

> <PUBCHEM_SHAPE_SELFOVERLAP>
1066.858

> <PUBCHEM_SHAPE_VOLUME>
278

> <PUBCHEM_COORDINATE_TYPE>
2
5
10

$$$$
