71693989
  -OEChem-12032416293D

 47 49  0     1  0  0  0  0  0999 V2000
    2.0135   -4.5234   -0.4632 F   0  0  0  0  0  0  0  0  0  0  0  0
    3.7633   -4.3693    0.8089 F   0  0  0  0  0  0  0  0  0  0  0  0
    3.9081   -3.8621   -1.3005 F   0  0  0  0  0  0  0  0  0  0  0  0
    1.1352    4.6298   -1.0709 O   0  0  0  0  0  0  0  0  0  0  0  0
    3.6007    3.4759   -0.7110 O   0  0  0  0  0  0  0  0  0  0  0  0
   -0.6570    0.3699   -1.3721 O   0  0  0  0  0  0  0  0  0  0  0  0
   -3.3203    0.2042   -1.0159 O   0  0  0  0  0  0  0  0  0  0  0  0
   -0.4822    2.2192    0.0279 N   0  0  0  0  0  0  0  0  0  0  0  0
    1.9594   -2.1053    1.1657 N   0  0  0  0  0  0  0  0  0  0  0  0
    1.7075    1.6782    1.0515 C   0  0  2  0  0  0  0  0  0  0  0  0
    0.9430    2.4036   -0.0788 C   0  0  2  0  0  0  0  0  0  0  0  0
    1.3441    3.8668    0.1025 C   0  0  1  0  0  0  0  0  0  0  0  0
    2.9038    2.5974    1.4099 C   0  0  0  0  0  0  0  0  0  0  0  0
    2.8264    3.7792    0.4453 C   0  0  1  0  0  0  0  0  0  0  0  0
    2.0968    0.2608    0.6884 C   0  0  0  0  0  0  0  0  0  0  0  0
    2.9155    0.0003   -0.4049 C   0  0  0  0  0  0  0  0  0  0  0  0
    1.6492   -0.8172    1.4350 C   0  0  0  0  0  0  0  0  0  0  0  0
   -1.1666    1.2088   -0.6341 C   0  0  0  0  0  0  0  0  0  0  0  0
    3.2566   -1.3119   -0.7138 C   0  0  0  0  0  0  0  0  0  0  0  0
   -2.6514    1.2489   -0.3418 C   0  0  0  0  0  0  0  0  0  0  0  0
    2.7572   -2.3196    0.0954 C   0  0  0  0  0  0  0  0  0  0  0  0
    3.1019   -3.7401   -0.2065 C   0  0  0  0  0  0  0  0  0  0  0  0
   -4.4524   -0.3021   -0.4219 C   0  0  0  0  0  0  0  0  0  0  0  0
   -5.2476    0.5193    0.3773 C   0  0  0  0  0  0  0  0  0  0  0  0
   -4.8055   -1.6370   -0.6187 C   0  0  0  0  0  0  0  0  0  0  0  0
   -6.3961    0.0057    0.9797 C   0  0  0  0  0  0  0  0  0  0  0  0
   -5.9540   -2.1507   -0.0162 C   0  0  0  0  0  0  0  0  0  0  0  0
   -6.7492   -1.3293    0.7830 C   0  0  0  0  0  0  0  0  0  0  0  0
    1.0649    1.6338    1.9433 H   0  0  0  0  0  0  0  0  0  0  0  0
    1.2458    2.0623   -1.0764 H   0  0  0  0  0  0  0  0  0  0  0  0
    0.7845    4.3278    0.9263 H   0  0  0  0  0  0  0  0  0  0  0  0
    2.7646    2.9606    2.4359 H   0  0  0  0  0  0  0  0  0  0  0  0
    3.8694    2.0825    1.3687 H   0  0  0  0  0  0  0  0  0  0  0  0
    3.2100    4.7101    0.8734 H   0  0  0  0  0  0  0  0  0  0  0  0
   -0.9975    2.8275    0.6580 H   0  0  0  0  0  0  0  0  0  0  0  0
    1.4986    5.5173   -0.9105 H   0  0  0  0  0  0  0  0  0  0  0  0
    4.5274    3.3930   -0.4285 H   0  0  0  0  0  0  0  0  0  0  0  0
    3.3005    0.8026   -1.0263 H   0  0  0  0  0  0  0  0  0  0  0  0
    1.0069   -0.6810    2.2994 H   0  0  0  0  0  0  0  0  0  0  0  0
    3.8955   -1.5160   -1.5660 H   0  0  0  0  0  0  0  0  0  0  0  0
   -2.7500    1.1639    0.7487 H   0  0  0  0  0  0  0  0  0  0  0  0
   -3.0462    2.2140   -0.6791 H   0  0  0  0  0  0  0  0  0  0  0  0
   -5.0216    1.5700    0.5332 H   0  0  0  0  0  0  0  0  0  0  0  0
   -4.1897   -2.2813   -1.2401 H   0  0  0  0  0  0  0  0  0  0  0  0
   -7.0190    0.6464    1.5971 H   0  0  0  0  0  0  0  0  0  0  0  0
   -6.2292   -3.1901   -0.1696 H   0  0  0  0  0  0  0  0  0  0  0  0
   -7.6442   -1.7289    1.2509 H   0  0  0  0  0  0  0  0  0  0  0  0
  1 22  1  0  0  0  0
  2 22  1  0  0  0  0
  3 22  1  0  0  0  0
  4 12  1  0  0  0  0
  4 36  1  0  0  0  0
  5 14  1  0  0  0  0
  5 37  1  0  0  0  0
  6 18  2  0  0  0  0
  7 20  1  0  0  0  0
  7 23  1  0  0  0  0
  8 11  1  0  0  0  0
  8 18  1  0  0  0  0
  8 35  1  0  0  0  0
  9 17  1  0  0  0  0
  9 21  2  0  0  0  0
 10 11  1  0  0  0  0
 10 13  1  0  0  0  0
 10 15  1  0  0  0  0
 10 29  1  0  0  0  0
 11 12  1  0  0  0  0
 11 30  1  0  0  0  0
 12 14  1  0  0  0  0
 12 31  1  0  0  0  0
 13 14  1  0  0  0  0
 13 32  1  0  0  0  0
 13 33  1  0  0  0  0
 14 34  1  0  0  0  0
 15 16  1  0  0  0  0
 15 17  2  0  0  0  0
 16 19  2  0  0  0  0
 16 38  1  0  0  0  0
 17 39  1  0  0  0  0
 18 20  1  0  0  0  0
 19 21  1  0  0  0  0
 19 40  1  0  0  0  0
 20 41  1  0  0  0  0
 20 42  1  0  0  0  0
 21 22  1  0  0  0  0
 23 24  2  0  0  0  0
 23 25  1  0  0  0  0
 24 26  1  0  0  0  0
 24 43  1  0  0  0  0
 25 27  2  0  0  0  0
 25 44  1  0  0  0  0
 26 28  2  0  0  0  0
 26 45  1  0  0  0  0
 27 28  1  0  0  0  0
 27 46  1  0  0  0  0
 28 47  1  0  0  0  0
M  END
> <PUBCHEM_COMPOUND_CID>
71693989

> <PUBCHEM_CONFORMER_RMSD>
1

> <PUBCHEM_CONFORMER_DIVERSEORDER>
1
90
91
89
94
101
85
86
52
9
49
88
31
95
2
48
93
68
87
11
40
80
64
78
10
14
56
41
66
57
21
23
92
61
33
8
67
79
84
30
37
3
71
100
36
12
28
63
39
20
74
26
72
24
70
44
35
83
75
15
19
38
81
42
7
17
62
97
99
18
51
29
25
54
47
22
55
5
27
13
16
73
59
50
77
82
60
32
46
58
4
45
43
96
34
98
65
69
76
6
53

> <PUBCHEM_MMFF94_PARTIAL_CHARGES>
38
1 -0.34
10 0.14
11 0.3
12 0.28
14 0.28
15 -0.14
16 -0.15
17 0.16
18 0.57
19 -0.15
2 -0.34
20 0.34
21 0.17
22 1.16
23 0.08
24 -0.15
25 -0.15
26 -0.15
27 -0.15
28 -0.15
3 -0.34
35 0.37
36 0.4
37 0.4
38 0.15
39 0.15
4 -0.68
40 0.15
43 0.15
44 0.15
45 0.15
46 0.15
47 0.15
5 -0.68
6 -0.57
7 -0.36
8 -0.73
9 -0.62

> <PUBCHEM_EFFECTIVE_ROTOR_COUNT>
8

> <PUBCHEM_PHARMACOPHORE_FEATURES>
11
1 4 acceptor
1 4 donor
1 5 acceptor
1 5 donor
1 6 acceptor
1 7 acceptor
1 8 donor
1 9 acceptor
5 10 11 12 13 14 rings
6 23 24 25 26 27 28 rings
6 9 15 16 17 19 21 rings

> <PUBCHEM_HEAVY_ATOM_COUNT>
28

> <PUBCHEM_ATOM_DEF_STEREO_COUNT>
4

> <PUBCHEM_ATOM_UDEF_STEREO_COUNT>
0

> <PUBCHEM_BOND_DEF_STEREO_COUNT>
0

> <PUBCHEM_BOND_UDEF_STEREO_COUNT>
0

> <PUBCHEM_ISOTOPIC_ATOM_COUNT>
0

> <PUBCHEM_COMPONENT_COUNT>
1

> <PUBCHEM_CACTVS_TAUTO_COUNT>
2

> <PUBCHEM_CONFORMER_ID>
0445F6A500000001

> <PUBCHEM_MMFF94_ENERGY>
75.1488

> <PUBCHEM_FEATURE_SELFOVERLAP>
55.841

> <PUBCHEM_SHAPE_FINGERPRINT>
10169797 241 18114189665339421299
10319688 140 18409731776445848335
10483366 6 18338250361846914532
10928967 22 18114460051291153339
11070050 100 17630023091634315528
114674 6 18259981591483518747
11488393 25 18334582364753898912
12107183 9 18127140676123696249
13533116 47 18341896333772272537
13692114 37 17764296641149914690
13785724 45 18127140684238467487
13955234 65 18342174522192225193
14863182 85 18265048214237276060
15250474 111 18128243696581497231
17492 89 18411980248424620929
17818456 19 17988650641001459233
17859628 70 18410855490419799209
19319366 153 18056473096104887929
1979834 28 18340194310466999649
20028762 73 18196927979980524288
20775438 99 18263634242484786619
20775530 9 18265607676386927367
21049683 271 18409736140971254876
21133410 32 16374150899163316130
21197605 99 17757271853319245907
21304303 282 11028093449397970864
21344244 181 18197511812614007156
21360442 43 16971403132896323358
21365058 27 18049169061646478812
21716022 299 18267046993543499060
2260408 40 18059566971200382090
22849339 104 17116925717223807414
23379529 103 17910114612087231750
23466295 7 17621601610028243570
23559900 14 18338505353733543653
239999 70 18114455768691345993
3117164 225 18269843021833160713
3178227 256 18339078293754547992
3421961 26 18412260623272512233
3737641 26 18411699842193094927
4461854 278 17326072027273476979
5309563 4 18268147544221375207
613672 6 17978484482600664159
6442390 28 17979068619775358648
7970288 3 18050286964308781531
9658208 31 17621882419491700312

> <PUBCHEM_SHAPE_MULTIPOLES>
520.97
12.81
6.29
1.19
30.38
2.93
0.12
5.73
1.76
-11.94
-0.82
-0.32
-0.02
0.41

> <PUBCHEM_SHAPE_SELFOVERLAP>
1116.12

> <PUBCHEM_SHAPE_VOLUME>
288.6

> <PUBCHEM_COORDINATE_TYPE>
2
5
10

$$$$
