56774094
  -OEChem-12032416403D

 48 50  0     1  0  0  0  0  0999 V2000
    4.3423   -0.9487   -1.2668 O   0  0  0  0  0  0  0  0  0  0  0  0
    6.4690   -1.5692    0.7668 O   0  0  0  0  0  0  0  0  0  0  0  0
   -2.1568   -0.2140    0.2994 N   0  0  0  0  0  0  0  0  0  0  0  0
    3.0603   -0.4410   -1.4384 N   0  0  0  0  0  0  0  0  0  0  0  0
   -6.3647   -2.0525    0.0773 N   0  0  0  0  0  0  0  0  0  0  0  0
   -0.5334    1.6527    0.4954 C   0  0  0  0  0  0  0  0  0  0  0  0
    0.9084    1.1039    0.4659 C   0  0  1  0  0  0  0  0  0  0  0  0
   -0.9695    0.2647    1.0088 C   0  0  2  0  0  0  0  0  0  0  0  0
    0.2886   -0.3014    0.3180 C   0  0  0  0  0  0  0  0  0  0  0  0
    1.7845    1.5302   -0.6900 C   0  0  0  0  0  0  0  0  0  0  0  0
   -1.1396    1.9752   -0.8598 C   0  0  0  0  0  0  0  0  0  0  0  0
   -0.7179    2.8327    1.4254 C   0  0  0  0  0  0  0  0  0  0  0  0
    3.0405    0.6934   -0.7328 C   0  0  0  0  0  0  0  0  0  0  0  0
   -3.3286   -0.0646    1.1549 C   0  0  0  0  0  0  0  0  0  0  0  0
    4.2693    0.9503   -0.1007 C   0  0  0  0  0  0  0  0  0  0  0  0
   -4.5977   -0.4424    0.4384 C   0  0  0  0  0  0  0  0  0  0  0  0
    5.0528   -0.1115   -0.4684 C   0  0  0  0  0  0  0  0  0  0  0  0
   -5.1762    0.4124   -0.4935 C   0  0  0  0  0  0  0  0  0  0  0  0
   -5.2257   -1.6525    0.6858 C   0  0  0  0  0  0  0  0  0  0  0  0
    6.4392   -0.4990   -0.1814 C   0  0  0  0  0  0  0  0  0  0  0  0
   -6.3481    0.0361   -1.1402 C   0  0  0  0  0  0  0  0  0  0  0  0
   -6.8976   -1.1954   -0.8222 C   0  0  0  0  0  0  0  0  0  0  0  0
    7.8008   -1.9592    1.0582 C   0  0  0  0  0  0  0  0  0  0  0  0
    1.4240    1.2234    1.4314 H   0  0  0  0  0  0  0  0  0  0  0  0
   -0.9545    0.1265    2.0972 H   0  0  0  0  0  0  0  0  0  0  0  0
    0.1567   -0.6428   -0.7168 H   0  0  0  0  0  0  0  0  0  0  0  0
    0.8009   -1.0948    0.8718 H   0  0  0  0  0  0  0  0  0  0  0  0
    2.0615    2.5858   -0.5807 H   0  0  0  0  0  0  0  0  0  0  0  0
    1.2816    1.4358   -1.6591 H   0  0  0  0  0  0  0  0  0  0  0  0
   -0.6670    2.8665   -1.2911 H   0  0  0  0  0  0  0  0  0  0  0  0
   -1.0307    1.1763   -1.6017 H   0  0  0  0  0  0  0  0  0  0  0  0
   -2.2076    2.2111   -0.7786 H   0  0  0  0  0  0  0  0  0  0  0  0
   -0.3199    2.6227    2.4244 H   0  0  0  0  0  0  0  0  0  0  0  0
   -0.2030    3.7223    1.0465 H   0  0  0  0  0  0  0  0  0  0  0  0
   -1.7780    3.0819    1.5454 H   0  0  0  0  0  0  0  0  0  0  0  0
   -2.0884   -1.1920    0.0154 H   0  0  0  0  0  0  0  0  0  0  0  0
   -3.4276    0.9736    1.4980 H   0  0  0  0  0  0  0  0  0  0  0  0
   -3.2208   -0.6797    2.0578 H   0  0  0  0  0  0  0  0  0  0  0  0
    4.5457    1.7830    0.5290 H   0  0  0  0  0  0  0  0  0  0  0  0
   -4.7238    1.3732   -0.7224 H   0  0  0  0  0  0  0  0  0  0  0  0
   -4.8226   -2.3635    1.4003 H   0  0  0  0  0  0  0  0  0  0  0  0
    6.9910    0.3574    0.2241 H   0  0  0  0  0  0  0  0  0  0  0  0
    6.9343   -0.8186   -1.1061 H   0  0  0  0  0  0  0  0  0  0  0  0
   -6.8167    0.6864   -1.8699 H   0  0  0  0  0  0  0  0  0  0  0  0
   -7.8111   -1.5355   -1.2988 H   0  0  0  0  0  0  0  0  0  0  0  0
    7.7700   -2.7765    1.7837 H   0  0  0  0  0  0  0  0  0  0  0  0
    8.3591   -1.1263    1.4967 H   0  0  0  0  0  0  0  0  0  0  0  0
    8.3044   -2.3157    0.1544 H   0  0  0  0  0  0  0  0  0  0  0  0
  1  4  1  0  0  0  0
  1 17  1  0  0  0  0
  2 20  1  0  0  0  0
  2 23  1  0  0  0  0
  3  8  1  0  0  0  0
  3 14  1  0  0  0  0
  3 36  1  0  0  0  0
  4 13  2  0  0  0  0
  5 19  1  0  0  0  0
  5 22  2  0  0  0  0
  6  7  1  0  0  0  0
  6  8  1  0  0  0  0
  6 11  1  0  0  0  0
  6 12  1  0  0  0  0
  7  9  1  0  0  0  0
  7 10  1  0  0  0  0
  7 24  1  0  0  0  0
  8  9  1  0  0  0  0
  8 25  1  0  0  0  0
  9 26  1  0  0  0  0
  9 27  1  0  0  0  0
 10 13  1  0  0  0  0
 10 28  1  0  0  0  0
 10 29  1  0  0  0  0
 11 30  1  0  0  0  0
 11 31  1  0  0  0  0
 11 32  1  0  0  0  0
 12 33  1  0  0  0  0
 12 34  1  0  0  0  0
 12 35  1  0  0  0  0
 13 15  1  0  0  0  0
 14 16  1  0  0  0  0
 14 37  1  0  0  0  0
 14 38  1  0  0  0  0
 15 17  2  0  0  0  0
 15 39  1  0  0  0  0
 16 18  1  0  0  0  0
 16 19  2  0  0  0  0
 17 20  1  0  0  0  0
 18 21  2  0  0  0  0
 18 40  1  0  0  0  0
 19 41  1  0  0  0  0
 20 42  1  0  0  0  0
 20 43  1  0  0  0  0
 21 22  1  0  0  0  0
 21 44  1  0  0  0  0
 22 45  1  0  0  0  0
 23 46  1  0  0  0  0
 23 47  1  0  0  0  0
 23 48  1  0  0  0  0
M  END
> <PUBCHEM_COMPOUND_CID>
56774094

> <PUBCHEM_CONFORMER_RMSD>
0.8

> <PUBCHEM_CONFORMER_DIVERSEORDER>
2
77
121
193
204
195
150
144
192
186
168
174
16
183
153
80
96
136
134
137
165
66
148
126
202
111
152
163
187
103
138
190
140
131
141
171
120
157
88
158
60
104
143
24
61
167
73
30
102
160
76
101
172
194
18
44
67
177
169
71
142
114
189
51
105
132
149
55
159
147
198
28
8
181
43
106
97
166
41
176
83
9
68
85
42
57
58
162
10
200
118
122
39
116
23
54
49
196
98
7
56
78
164
205
52
129
199
139
40
38
6
170
112
123
29
92
184
93
151
108
145
178
20
95
94
130
146
12
99
156
46
90
69
47
34
89
109
175
180
128
13
53
124
21
48
100
45
188
15
64
203
107
197
84
91
86
3
87
1
75
185
74
26
127
135
37
63
33
173
50
154
206
182
81
31
72
110
70
19
11
35
62
79
25
179
17
161
191
32
36
82
22
113
59
119
125
14
117
133
4
115
155
65
5
201
27

> <PUBCHEM_MMFF94_PARTIAL_CHARGES>
24
1 -0.02
10 0.18
13 0.11
14 0.41
15 -0.15
16 -0.14
17 -0.04
18 -0.15
19 0.16
2 -0.56
20 0.46
21 -0.15
22 0.16
23 0.28
3 -0.84
36 0.36
39 0.15
4 -0.41
40 0.15
41 0.15
44 0.15
45 0.15
5 -0.62
8 0.21

> <PUBCHEM_EFFECTIVE_ROTOR_COUNT>
7.8

> <PUBCHEM_PHARMACOPHORE_FEATURES>
9
1 2 acceptor
1 3 cation
1 3 donor
1 4 acceptor
1 5 acceptor
3 6 11 12 hydrophobe
4 6 7 8 9 rings
5 1 4 13 15 17 rings
6 5 16 18 19 21 22 rings

> <PUBCHEM_HEAVY_ATOM_COUNT>
23

> <PUBCHEM_ATOM_DEF_STEREO_COUNT>
2

> <PUBCHEM_ATOM_UDEF_STEREO_COUNT>
0

> <PUBCHEM_BOND_DEF_STEREO_COUNT>
0

> <PUBCHEM_BOND_UDEF_STEREO_COUNT>
0

> <PUBCHEM_ISOTOPIC_ATOM_COUNT>
0

> <PUBCHEM_COMPONENT_COUNT>
1

> <PUBCHEM_CACTVS_TAUTO_COUNT>
1

> <PUBCHEM_CONFORMER_ID>
03624DCE00000002

> <PUBCHEM_MMFF94_ENERGY>
54.6428

> <PUBCHEM_FEATURE_SELFOVERLAP>
45.671

> <PUBCHEM_SHAPE_FINGERPRINT>
10 15 10807935972957604183
10369192 42 8646771097219829219
106641 1 12967122835445062511
10670039 82 15864343628371994181
10753850 27 18411702097024571099
11724838 91 13542454376305839536
12166972 35 18041001752237266948
12516196 113 17561368395990098049
12596602 18 13829861187988845615
12670543 26 17530964691826625281
12760667 363 18410015411869970593
12892183 10 14835582249174993777
12954195 1 17822284640108509413
13177829 20 14117794730207522806
13668630 136 18343306976472271671
13685833 64 18200881772507541827
13862211 1 18411984667212719434
13914758 101 16805318851960861916
14020679 6 12823001028429257390
14251752 14 17676201360066423735
14251764 18 13110957643555100771
14848160 23 18341896311453618317
14849402 71 11815599917945258506
14933364 13 9295293841259524935
15183329 4 16298382448626798194
15188451 53 18409727331998410586
16126227 98 10663804296397050610
17093844 174 15841556259003979787
17492 89 17843132411458154486
20028762 73 18201442471740579110
2026 5 18410291419897801319
21033648 29 11098146616194486900
21304304 249 18336548231990644534
21315764 119 16370445544639554586
21623969 137 17846502529943693943
21637258 2 18201436995419236705
22079108 93 15267338514346687350
22224240 67 14692568818994569916
22393880 68 18262227946038022075
23198884 109 16660645167965567133
23402539 116 17988935461551607473
23559900 14 18114464577405772640
2838139 119 14490469803223352783
293599 30 10953737828559973857
3004659 81 17749104500358564794
3009799 131 18113900489364937660
3014063 24 18334012749454903962
3633792 109 17095527288602379868
4340502 62 14549027584562705324
474113 269 18042112181851484722
5718773 13 18335419028989830442
5758199 1 12679459798597782084
59682541 35 13182731576768258063
59682541 52 14129049289155160130
5969126 39 18202560649116796897
59755656 215 16877657938134465882
59755656 520 12468359059376006305
6438161 24 18335696165326833795
9689198 14 10303812112015086986

> <PUBCHEM_SHAPE_MULTIPOLES>
446.65
20.01
2.17
1.25
6.84
0.54
0
-16.64
-1.55
0.16
0.6
0.01
0.13
-0.78

> <PUBCHEM_SHAPE_SELFOVERLAP>
936.735

> <PUBCHEM_SHAPE_VOLUME>
255

> <PUBCHEM_COORDINATE_TYPE>
2
5
10

$$$$
