75536439
  -OEChem-12032416343D

 48 50  0     1  0  0  0  0  0999 V2000
    2.4977    0.2687    0.6975 O   0  0  0  0  0  0  0  0  0  0  0  0
    5.2691    1.1204    1.2287 O   0  0  0  0  0  0  0  0  0  0  0  0
   -1.4176   -2.2639   -0.8181 O   0  0  0  0  0  0  0  0  0  0  0  0
   -3.5786   -0.2360    0.0486 N   0  0  0  0  0  0  0  0  0  0  0  0
   -5.1411    2.2021   -0.0711 N   0  0  0  0  0  0  0  0  0  0  0  0
    0.8629    2.3254   -0.4053 N   0  0  0  0  0  0  0  0  0  0  0  0
   -0.0533   -2.4572   -0.9983 N   0  0  0  0  0  0  0  0  0  0  0  0
    2.6740   -0.7652   -0.2740 C   0  0  1  0  0  0  0  0  0  0  0  0
    4.1589   -1.0062   -0.5413 C   0  0  0  0  0  0  0  0  0  0  0  0
    4.5586    1.4118    0.0223 C   0  0  2  0  0  0  0  0  0  0  0  0
    3.0646    1.5379    0.3469 C   0  0  1  0  0  0  0  0  0  0  0  0
    4.8453    0.2877   -0.9696 C   0  0  0  0  0  0  0  0  0  0  0  0
    2.0095   -2.0238    0.2706 C   0  0  0  0  0  0  0  0  0  0  0  0
    2.2663    2.2076   -0.7698 C   0  0  0  0  0  0  0  0  0  0  0  0
    0.5134   -1.9774    0.1124 C   0  0  0  0  0  0  0  0  0  0  0  0
   -5.0467   -0.2721    0.0520 C   0  0  0  0  0  0  0  0  0  0  0  0
   -3.0912    1.0105    0.6529 C   0  0  0  0  0  0  0  0  0  0  0  0
   -3.0287   -1.3992    0.7418 C   0  0  0  0  0  0  0  0  0  0  0  0
   -5.6205    0.9523   -0.6654 C   0  0  0  0  0  0  0  0  0  0  0  0
   -3.6767    2.2274   -0.0679 C   0  0  0  0  0  0  0  0  0  0  0  0
   -1.6317   -1.6773    0.3873 C   0  0  0  0  0  0  0  0  0  0  0  0
   -0.4341   -1.4734    1.0200 C   0  0  0  0  0  0  0  0  0  0  0  0
    2.1830   -0.4742   -1.2103 H   0  0  0  0  0  0  0  0  0  0  0  0
    4.2927   -1.7704   -1.3153 H   0  0  0  0  0  0  0  0  0  0  0  0
    4.6436   -1.3773    0.3707 H   0  0  0  0  0  0  0  0  0  0  0  0
    4.9484    2.3635   -0.3555 H   0  0  0  0  0  0  0  0  0  0  0  0
    2.9677    2.1526    1.2515 H   0  0  0  0  0  0  0  0  0  0  0  0
    5.9240    0.1089   -1.0483 H   0  0  0  0  0  0  0  0  0  0  0  0
    4.4894    0.5733   -1.9663 H   0  0  0  0  0  0  0  0  0  0  0  0
    2.2483   -2.1573    1.3334 H   0  0  0  0  0  0  0  0  0  0  0  0
    2.3812   -2.9112   -0.2579 H   0  0  0  0  0  0  0  0  0  0  0  0
    2.3354    1.6505   -1.7089 H   0  0  0  0  0  0  0  0  0  0  0  0
    2.6676    3.2089   -0.9607 H   0  0  0  0  0  0  0  0  0  0  0  0
   -5.4001   -1.1702   -0.4692 H   0  0  0  0  0  0  0  0  0  0  0  0
   -5.4334   -0.3144    1.0792 H   0  0  0  0  0  0  0  0  0  0  0  0
   -3.3513    1.0581    1.7191 H   0  0  0  0  0  0  0  0  0  0  0  0
   -1.9997    1.0734    0.5800 H   0  0  0  0  0  0  0  0  0  0  0  0
   -3.6043   -2.2948    0.4687 H   0  0  0  0  0  0  0  0  0  0  0  0
   -3.1378   -1.3024    1.8302 H   0  0  0  0  0  0  0  0  0  0  0  0
   -5.3633    0.9226   -1.7320 H   0  0  0  0  0  0  0  0  0  0  0  0
   -6.7138    0.9278   -0.5998 H   0  0  0  0  0  0  0  0  0  0  0  0
   -3.3415    3.1400    0.4372 H   0  0  0  0  0  0  0  0  0  0  0  0
   -3.3008    2.2756   -1.0979 H   0  0  0  0  0  0  0  0  0  0  0  0
    6.2167    1.0914    1.0121 H   0  0  0  0  0  0  0  0  0  0  0  0
   -0.2722   -1.0267    1.9899 H   0  0  0  0  0  0  0  0  0  0  0  0
   -5.4944    2.9928   -0.6089 H   0  0  0  0  0  0  0  0  0  0  0  0
    0.3413    2.7258   -1.1839 H   0  0  0  0  0  0  0  0  0  0  0  0
    0.4706    1.3986   -0.2444 H   0  0  0  0  0  0  0  0  0  0  0  0
  1  8  1  0  0  0  0
  1 11  1  0  0  0  0
  2 10  1  0  0  0  0
  2 44  1  0  0  0  0
  3  7  1  0  0  0  0
  3 21  1  0  0  0  0
  4 16  1  0  0  0  0
  4 17  1  0  0  0  0
  4 18  1  0  0  0  0
  5 19  1  0  0  0  0
  5 20  1  0  0  0  0
  5 46  1  0  0  0  0
  6 14  1  0  0  0  0
  6 47  1  0  0  0  0
  6 48  1  0  0  0  0
  7 15  2  0  0  0  0
  8  9  1  0  0  0  0
  8 13  1  0  0  0  0
  8 23  1  0  0  0  0
  9 12  1  0  0  0  0
  9 24  1  0  0  0  0
  9 25  1  0  0  0  0
 10 11  1  0  0  0  0
 10 12  1  0  0  0  0
 10 26  1  0  0  0  0
 11 14  1  0  0  0  0
 11 27  1  0  0  0  0
 12 28  1  0  0  0  0
 12 29  1  0  0  0  0
 13 15  1  0  0  0  0
 13 30  1  0  0  0  0
 13 31  1  0  0  0  0
 14 32  1  0  0  0  0
 14 33  1  0  0  0  0
 15 22  1  0  0  0  0
 16 19  1  0  0  0  0
 16 34  1  0  0  0  0
 16 35  1  0  0  0  0
 17 20  1  0  0  0  0
 17 36  1  0  0  0  0
 17 37  1  0  0  0  0
 18 21  1  0  0  0  0
 18 38  1  0  0  0  0
 18 39  1  0  0  0  0
 19 40  1  0  0  0  0
 19 41  1  0  0  0  0
 20 42  1  0  0  0  0
 20 43  1  0  0  0  0
 21 22  2  0  0  0  0
 22 45  1  0  0  0  0
M  END
> <PUBCHEM_COMPOUND_CID>
75536439

> <PUBCHEM_CONFORMER_RMSD>
1

> <PUBCHEM_CONFORMER_DIVERSEORDER>
1
100
48
94
93
21
47
50
96
95
90
97
17
81
49
4
87
20
38
91
79
92
46
70
78
51
35
80
63
77
27
85
39
61
9
57
24
11
5
56
72
53
98
82
84
15
14
62
43
19
6
83
101
32
34
7
37
28
45
52
36
73
44
3
29
86
66
16
65
69
41
75
64
68
8
2
55
76
88
30
31
42
25
60
59
12
74
54
33
18
102
67
10
26
58
99
71
13
40
23
22
89

> <PUBCHEM_MMFF94_PARTIAL_CHARGES>
25
1 -0.56
10 0.28
11 0.28
13 0.18
14 0.27
15 0.11
16 0.27
17 0.27
18 0.45
19 0.27
2 -0.68
20 0.27
21 -0.04
22 -0.15
3 -0.02
4 -0.81
44 0.4
45 0.15
46 0.36
47 0.36
48 0.36
5 -0.9
6 -0.99
7 -0.41
8 0.28

> <PUBCHEM_EFFECTIVE_ROTOR_COUNT>
7.4

> <PUBCHEM_PHARMACOPHORE_FEATURES>
12
1 1 acceptor
1 2 acceptor
1 2 donor
1 4 cation
1 5 cation
1 5 donor
1 6 cation
1 6 donor
1 7 acceptor
5 3 7 15 21 22 rings
6 1 8 9 10 11 12 rings
6 4 5 16 17 19 20 rings

> <PUBCHEM_HEAVY_ATOM_COUNT>
22

> <PUBCHEM_ATOM_DEF_STEREO_COUNT>
3

> <PUBCHEM_ATOM_UDEF_STEREO_COUNT>
0

> <PUBCHEM_BOND_DEF_STEREO_COUNT>
0

> <PUBCHEM_BOND_UDEF_STEREO_COUNT>
0

> <PUBCHEM_ISOTOPIC_ATOM_COUNT>
0

> <PUBCHEM_COMPONENT_COUNT>
1

> <PUBCHEM_CACTVS_TAUTO_COUNT>
1

> <PUBCHEM_CONFORMER_ID>
0480983700000001

> <PUBCHEM_MMFF94_ENERGY>
27.7693

> <PUBCHEM_FEATURE_SELFOVERLAP>
60.9

> <PUBCHEM_SHAPE_FINGERPRINT>
10498660 4 18412830170221743441
11370993 70 18411417327977028745
12011746 2 18410018706320889740
12422481 6 18190441797953654760
12596602 18 13623824821009549125
12633257 1 16153428384639467946
13103583 49 12252188416440324271
13402501 40 18408886217876627757
13878862 14 17751899355969246367
14251751 93 18408884074787836049
14251764 38 18409174333052158669
14466204 15 18336259124423921920
14739800 52 18262784225042057218
14790565 3 17974017438331760108
15196674 1 18410013217210253817
15210252 30 17822871861164519020
15238133 3 17894912958195716554
1601671 61 18333734615492880900
16760501 71 18266191552344116121
17093844 170 18410293575981153904
17834072 32 18411421674768541499
19078846 21 18187638172209853722
21033648 29 18201151143744154152
21421861 104 17823119178487721138
21475661 188 18260268559580637855
22113638 7 18338233881314114205
22289505 5 18341901766631900694
23227448 37 18411701023778911679
23559900 14 18124874560651672219
2838139 119 18411694361920300767
338550 245 18261679258748260348
351380 180 18410012152169153655
3680242 22 18187926123506935424
474 4 18334295349311762131
508706 21 18259985964044938917
5104073 3 18114748131811007739
6328613 192 18261403282184075012
7832392 63 18339079393071094158
9981440 41 18334015003927788587

> <PUBCHEM_SHAPE_MULTIPOLES>
415.22
12.27
3.06
0.96
4.83
0.14
-0.03
6.99
0.58
0.51
0.29
-0.39
-0.1
0.49

> <PUBCHEM_SHAPE_SELFOVERLAP>
854.047

> <PUBCHEM_SHAPE_VOLUME>
238.2

> <PUBCHEM_COORDINATE_TYPE>
2
5
10

$$$$
