7674736
  -OEChem-12032416213D

 54 57  0     1  0  0  0  0  0999 V2000
    4.3559   -1.7671   -0.1186 S   0  0  0  0  0  0  0  0  0  0  0  0
   -6.2666   -1.1633   -1.5942 F   0  0  0  0  0  0  0  0  0  0  0  0
   -8.2734   -1.0519   -0.7364 F   0  0  0  0  0  0  0  0  0  0  0  0
   -6.9218   -2.6422   -0.0883 F   0  0  0  0  0  0  0  0  0  0  0  0
    4.2591   -2.4205   -1.4057 O   0  0  0  0  0  0  0  0  0  0  0  0
    3.8053   -2.3626    1.0795 O   0  0  0  0  0  0  0  0  0  0  0  0
   -0.8760    0.9179   -1.7401 O   0  0  0  0  0  0  0  0  0  0  0  0
   -6.5249   -0.4899    0.5761 O   0  0  0  0  0  0  0  0  0  0  0  0
    3.7595   -0.1701   -0.2647 N   0  0  2  0  0  0  0  0  0  0  0  0
    1.0525    1.4365   -0.5355 N   0  0  0  0  0  0  0  0  0  0  0  0
    3.3145    1.8494   -1.6638 C   0  0  1  0  0  0  0  0  0  0  0  0
    3.1264    1.9954    0.7804 C   0  0  2  0  0  0  0  0  0  0  0  0
    3.5899    2.7467   -0.4645 C   0  0  0  0  0  0  0  0  0  0  0  0
    4.0905    0.5279   -1.5398 C   0  0  0  0  0  0  0  0  0  0  0  0
    3.9446    0.7005    0.9348 C   0  0  0  0  0  0  0  0  0  0  0  0
    1.8013    1.6310   -1.7849 C   0  0  0  0  0  0  0  0  0  0  0  0
    1.6445    1.6776    0.7064 C   0  0  0  0  0  0  0  0  0  0  0  0
    0.9096    1.6069    1.8277 C   0  0  0  0  0  0  0  0  0  0  0  0
   -0.3106    1.1027   -0.6609 C   0  0  0  0  0  0  0  0  0  0  0  0
    6.0663   -1.4056    0.1852 C   0  0  0  0  0  0  0  0  0  0  0  0
   -1.0999    0.9953    0.6162 C   0  0  0  0  0  0  0  0  0  0  0  0
   -0.4810    1.2544    1.7778 C   0  0  0  0  0  0  0  0  0  0  0  0
    6.8778   -2.6781    0.3630 C   0  0  0  0  0  0  0  0  0  0  0  0
   -2.5209    0.6066    0.6051 C   0  0  0  0  0  0  0  0  0  0  0  0
    8.3394   -2.3709    0.6430 C   0  0  0  0  0  0  0  0  0  0  0  0
   -3.5119    1.5840    0.5097 C   0  0  0  0  0  0  0  0  0  0  0  0
   -2.8768   -0.7400    0.6907 C   0  0  0  0  0  0  0  0  0  0  0  0
   -4.8573    1.2155    0.4999 C   0  0  0  0  0  0  0  0  0  0  0  0
   -4.2221   -1.1084    0.6807 C   0  0  0  0  0  0  0  0  0  0  0  0
   -5.2123   -0.1307    0.5854 C   0  0  0  0  0  0  0  0  0  0  0  0
   -6.9818   -1.3470   -0.4642 C   0  0  0  0  0  0  0  0  0  0  0  0
    3.6606    2.3477   -2.5781 H   0  0  0  0  0  0  0  0  0  0  0  0
    3.3222    2.6323    1.6532 H   0  0  0  0  0  0  0  0  0  0  0  0
    4.6593    2.9811   -0.3975 H   0  0  0  0  0  0  0  0  0  0  0  0
    3.0578    3.7011   -0.5649 H   0  0  0  0  0  0  0  0  0  0  0  0
    5.1646    0.7393   -1.5793 H   0  0  0  0  0  0  0  0  0  0  0  0
    3.8372   -0.1110   -2.3924 H   0  0  0  0  0  0  0  0  0  0  0  0
    3.6257    0.1662    1.8366 H   0  0  0  0  0  0  0  0  0  0  0  0
    4.9993    0.9717    1.0485 H   0  0  0  0  0  0  0  0  0  0  0  0
    1.5855    0.7903   -2.4562 H   0  0  0  0  0  0  0  0  0  0  0  0
    1.3572    2.5168   -2.2596 H   0  0  0  0  0  0  0  0  0  0  0  0
    1.3462    1.7825    2.8053 H   0  0  0  0  0  0  0  0  0  0  0  0
    6.4572   -0.8309   -0.6579 H   0  0  0  0  0  0  0  0  0  0  0  0
    6.1410   -0.8170    1.1021 H   0  0  0  0  0  0  0  0  0  0  0  0
   -1.0038    1.1902    2.7276 H   0  0  0  0  0  0  0  0  0  0  0  0
    6.8063   -3.2992   -0.5376 H   0  0  0  0  0  0  0  0  0  0  0  0
    6.4712   -3.2736    1.1888 H   0  0  0  0  0  0  0  0  0  0  0  0
    8.4486   -1.7836    1.5603 H   0  0  0  0  0  0  0  0  0  0  0  0
    8.7869   -1.8070   -0.1818 H   0  0  0  0  0  0  0  0  0  0  0  0
    8.9053   -3.2998    0.7654 H   0  0  0  0  0  0  0  0  0  0  0  0
   -3.2510    2.6374    0.4413 H   0  0  0  0  0  0  0  0  0  0  0  0
   -2.1164   -1.5136    0.7663 H   0  0  0  0  0  0  0  0  0  0  0  0
   -5.6243    1.9815    0.4249 H   0  0  0  0  0  0  0  0  0  0  0  0
   -4.4848   -2.1600    0.7547 H   0  0  0  0  0  0  0  0  0  0  0  0
  1  5  2  0  0  0  0
  1  6  2  0  0  0  0
  1  9  1  0  0  0  0
  1 20  1  0  0  0  0
  2 31  1  0  0  0  0
  3 31  1  0  0  0  0
  4 31  1  0  0  0  0
  7 19  2  0  0  0  0
  8 30  1  0  0  0  0
  8 31  1  0  0  0  0
  9 14  1  0  0  0  0
  9 15  1  0  0  0  0
 10 16  1  0  0  0  0
 10 17  1  0  0  0  0
 10 19  1  0  0  0  0
 11 13  1  0  0  0  0
 11 14  1  0  0  0  0
 11 16  1  0  0  0  0
 11 32  1  0  0  0  0
 12 13  1  0  0  0  0
 12 15  1  0  0  0  0
 12 17  1  0  0  0  0
 12 33  1  0  0  0  0
 13 34  1  0  0  0  0
 13 35  1  0  0  0  0
 14 36  1  0  0  0  0
 14 37  1  0  0  0  0
 15 38  1  0  0  0  0
 15 39  1  0  0  0  0
 16 40  1  0  0  0  0
 16 41  1  0  0  0  0
 17 18  2  0  0  0  0
 18 22  1  0  0  0  0
 18 42  1  0  0  0  0
 19 21  1  0  0  0  0
 20 23  1  0  0  0  0
 20 43  1  0  0  0  0
 20 44  1  0  0  0  0
 21 22  2  0  0  0  0
 21 24  1  0  0  0  0
 22 45  1  0  0  0  0
 23 25  1  0  0  0  0
 23 46  1  0  0  0  0
 23 47  1  0  0  0  0
 24 26  2  0  0  0  0
 24 27  1  0  0  0  0
 25 48  1  0  0  0  0
 25 49  1  0  0  0  0
 25 50  1  0  0  0  0
 26 28  1  0  0  0  0
 26 51  1  0  0  0  0
 27 29  2  0  0  0  0
 27 52  1  0  0  0  0
 28 30  2  0  0  0  0
 28 53  1  0  0  0  0
 29 30  1  0  0  0  0
 29 54  1  0  0  0  0
M  END
> <PUBCHEM_COMPOUND_CID>
7674736

> <PUBCHEM_CONFORMER_RMSD>
1

> <PUBCHEM_CONFORMER_DIVERSEORDER>
1
5
9
11
10
6
8
12
7
3
2
4

> <PUBCHEM_MMFF94_PARTIAL_CHARGES>
33
1 1.33
10 -0.47
12 0.14
14 0.36
15 0.36
16 0.3
17 -0.03
18 -0.15
19 0.62
2 -0.34
20 0.11
21 -0.01
22 -0.15
24 0.03
26 -0.15
27 -0.15
28 -0.15
29 -0.15
3 -0.34
30 0.08
31 1.3
4 -0.34
42 0.15
45 0.15
5 -0.65
51 0.15
52 0.15
53 0.15
54 0.15
6 -0.65
7 -0.57
8 -0.36
9 -0.85

> <PUBCHEM_EFFECTIVE_ROTOR_COUNT>
7

> <PUBCHEM_PHARMACOPHORE_FEATURES>
9
1 25 hydrophobe
1 5 acceptor
1 6 acceptor
1 7 acceptor
1 8 acceptor
6 10 11 12 13 16 17 rings
6 10 17 18 19 21 22 rings
6 24 26 27 28 29 30 rings
6 9 11 12 13 14 15 rings

> <PUBCHEM_HEAVY_ATOM_COUNT>
31

> <PUBCHEM_ATOM_DEF_STEREO_COUNT>
2

> <PUBCHEM_ATOM_UDEF_STEREO_COUNT>
0

> <PUBCHEM_BOND_DEF_STEREO_COUNT>
0

> <PUBCHEM_BOND_UDEF_STEREO_COUNT>
0

> <PUBCHEM_ISOTOPIC_ATOM_COUNT>
0

> <PUBCHEM_COMPONENT_COUNT>
1

> <PUBCHEM_CACTVS_TAUTO_COUNT>
1

> <PUBCHEM_CONFORMER_ID>
00751B7000000001

> <PUBCHEM_MMFF94_ENERGY>
76.5758

> <PUBCHEM_FEATURE_SELFOVERLAP>
47.273

> <PUBCHEM_SHAPE_FINGERPRINT>
10 15 9583520937042497375
10670039 82 14418135076135716278
11135609 99 18272649065274270742
11719270 70 16415489259649726077
11796584 16 18272104802322244333
12107183 9 18121228575545656057
12120059 9 18119790440834146578
12522641 33 17968948621440603444
12633257 1 14835823047054183194
13533116 47 18411421743145308865
13782708 43 17988928916242675941
14068700 675 18338237064485793288
14251751 18 18336830797413521608
14347332 77 18342177752719755601
14931854 50 15430321274752906434
15183329 4 17603584128111999109
15475509 35 18130784564219639458
15510800 12 18339935852246999138
16994733 274 8718532905613565662
17857418 61 18343867731892232359
19784866 240 18337117761480022472
1979834 28 14764359240118099749
19958102 18 18187641432174752023
20028762 73 18272373044600512774
2026 5 18336544919616259395
20567600 247 18335986393483537650
21033648 29 14476690658895042097
21344244 78 14979962501320793953
21360443 89 18336821980716926514
21641784 216 14707197804370472527
22061861 79 18040713693170188639
23522609 53 17912961463136546777
23559900 14 18114471161701316280
23569914 152 16666230536875020071
23569943 247 18337674123043828755
2838139 119 9006470807725591754
29717793 49 17968093162032462797
3004659 81 18333731308230750928
34797466 226 17458627882387083053
376196 1 15941216215588402060
3886686 26 16622953668420222518
4066623 53 15719395023747001046
4112364 45 15697420227224964186
4169191 19 8718831972998367091
439807 62 18413672422536798299
465052 167 17704077312699137449
474113 269 18131061611654832191
508180 173 11459007363966838206
5718773 13 18413670197021260370
59682541 52 17894632565076049831
6438161 24 18410571786165392018
8988823 20 18200875183358225496

> <PUBCHEM_SHAPE_MULTIPOLES>
586.55
20.23
3.06
1.56
15.85
0.91
-0.3
21.04
-1.33
-3.77
-0.11
-0.49
-0.55
-1.74

> <PUBCHEM_SHAPE_SELFOVERLAP>
1250.841

> <PUBCHEM_SHAPE_VOLUME>
329.9

> <PUBCHEM_COORDINATE_TYPE>
2
5
10

$$$$
