11942816
  -OEChem-12032416223D

 54 58  0     1  0  0  0  0  0999 V2000
    2.2215    1.7632    1.3923 O   0  0  0  0  0  0  0  0  0  0  0  0
   -2.6084    0.8693    2.5695 O   0  0  0  0  0  0  0  0  0  0  0  0
   -2.6481    1.7573    0.4288 N   0  0  0  0  0  0  0  0  0  0  0  0
    0.4475    2.0578   -0.0929 N   0  0  0  0  0  0  0  0  0  0  0  0
   -2.6840   -5.6438   -1.2019 N   0  0  0  0  0  0  0  0  0  0  0  0
   -1.3399    3.8638    0.2370 C   0  0  1  0  0  0  0  0  0  0  0  0
   -1.4828    2.3338   -1.6865 C   0  0  2  0  0  0  0  0  0  0  0  0
   -1.4773    3.8068   -1.2807 C   0  0  0  0  0  0  0  0  0  0  0  0
   -2.5176    3.1341    0.9094 C   0  0  0  0  0  0  0  0  0  0  0  0
    0.0147    3.2618    0.6320 C   0  0  0  0  0  0  0  0  0  0  0  0
   -2.6890    1.6229   -1.0379 C   0  0  0  0  0  0  0  0  0  0  0  0
   -0.2002    1.6453   -1.2601 C   0  0  0  0  0  0  0  0  0  0  0  0
    0.2852    0.6170   -1.9738 C   0  0  0  0  0  0  0  0  0  0  0  0
    1.6024    1.4099    0.3872 C   0  0  0  0  0  0  0  0  0  0  0  0
   -2.6435    0.6937    1.3506 C   0  0  0  0  0  0  0  0  0  0  0  0
    2.0945    0.2310   -0.4082 C   0  0  0  0  0  0  0  0  0  0  0  0
    1.4475   -0.1014   -1.5351 C   0  0  0  0  0  0  0  0  0  0  0  0
   -2.6520   -0.6571    0.8062 C   0  0  0  0  0  0  0  0  0  0  0  0
    3.2528   -0.5605    0.0392 C   0  0  0  0  0  0  0  0  0  0  0  0
    4.5513   -0.2435   -0.3652 C   0  0  0  0  0  0  0  0  0  0  0  0
   -1.4483   -1.3034    0.5371 C   0  0  0  0  0  0  0  0  0  0  0  0
   -3.8641   -1.2964    0.5588 C   0  0  0  0  0  0  0  0  0  0  0  0
    3.0368   -1.6495    0.8862 C   0  0  0  0  0  0  0  0  0  0  0  0
    5.6288   -1.0122    0.0752 C   0  0  0  0  0  0  0  0  0  0  0  0
   -1.4567   -2.5977    0.0169 C   0  0  0  0  0  0  0  0  0  0  0  0
   -3.8726   -2.5907    0.0388 C   0  0  0  0  0  0  0  0  0  0  0  0
    4.8231    0.9139   -1.2715 C   0  0  0  0  0  0  0  0  0  0  0  0
    4.1143   -2.4182    1.3267 C   0  0  0  0  0  0  0  0  0  0  0  0
   -2.6688   -3.2413   -0.2321 C   0  0  0  0  0  0  0  0  0  0  0  0
    5.4103   -2.0995    0.9212 C   0  0  0  0  0  0  0  0  0  0  0  0
   -2.6772   -4.5663   -0.7670 C   0  0  0  0  0  0  0  0  0  0  0  0
   -1.3639    4.9090    0.5692 H   0  0  0  0  0  0  0  0  0  0  0  0
   -1.5915    2.2783   -2.7774 H   0  0  0  0  0  0  0  0  0  0  0  0
   -0.6498    4.3409   -1.7642 H   0  0  0  0  0  0  0  0  0  0  0  0
   -2.4057    4.2958   -1.5997 H   0  0  0  0  0  0  0  0  0  0  0  0
   -2.4035    3.1601    1.9980 H   0  0  0  0  0  0  0  0  0  0  0  0
   -3.4586    3.6448    0.6714 H   0  0  0  0  0  0  0  0  0  0  0  0
    0.7977    4.0111    0.4521 H   0  0  0  0  0  0  0  0  0  0  0  0
    0.0408    3.0509    1.7085 H   0  0  0  0  0  0  0  0  0  0  0  0
   -3.6239    2.0892   -1.3726 H   0  0  0  0  0  0  0  0  0  0  0  0
   -2.7288    0.5770   -1.3513 H   0  0  0  0  0  0  0  0  0  0  0  0
   -0.2081    0.2674   -2.8747 H   0  0  0  0  0  0  0  0  0  0  0  0
    1.7597   -0.9455   -2.1432 H   0  0  0  0  0  0  0  0  0  0  0  0
   -0.5013   -0.8217    0.7548 H   0  0  0  0  0  0  0  0  0  0  0  0
   -4.8073   -0.7979    0.7661 H   0  0  0  0  0  0  0  0  0  0  0  0
    2.0334   -1.9121    1.2133 H   0  0  0  0  0  0  0  0  0  0  0  0
    6.6451   -0.7791   -0.2309 H   0  0  0  0  0  0  0  0  0  0  0  0
   -0.5097   -3.0931   -0.1837 H   0  0  0  0  0  0  0  0  0  0  0  0
   -4.8255   -3.0790   -0.1505 H   0  0  0  0  0  0  0  0  0  0  0  0
    4.4521    1.8461   -0.8329 H   0  0  0  0  0  0  0  0  0  0  0  0
    5.8962    1.0490   -1.4468 H   0  0  0  0  0  0  0  0  0  0  0  0
    4.3533    0.7577   -2.2480 H   0  0  0  0  0  0  0  0  0  0  0  0
    3.9442   -3.2647    1.9854 H   0  0  0  0  0  0  0  0  0  0  0  0
    6.2491   -2.6982    1.2641 H   0  0  0  0  0  0  0  0  0  0  0  0
  1 14  2  0  0  0  0
  2 15  2  0  0  0  0
  3  9  1  0  0  0  0
  3 11  1  0  0  0  0
  3 15  1  0  0  0  0
  4 10  1  0  0  0  0
  4 12  1  0  0  0  0
  4 14  1  0  0  0  0
  5 31  3  0  0  0  0
  6  8  1  0  0  0  0
  6  9  1  0  0  0  0
  6 10  1  0  0  0  0
  6 32  1  0  0  0  0
  7  8  1  0  0  0  0
  7 11  1  0  0  0  0
  7 12  1  0  0  0  0
  7 33  1  0  0  0  0
  8 34  1  0  0  0  0
  8 35  1  0  0  0  0
  9 36  1  0  0  0  0
  9 37  1  0  0  0  0
 10 38  1  0  0  0  0
 10 39  1  0  0  0  0
 11 40  1  0  0  0  0
 11 41  1  0  0  0  0
 12 13  2  0  0  0  0
 13 17  1  0  0  0  0
 13 42  1  0  0  0  0
 14 16  1  0  0  0  0
 15 18  1  0  0  0  0
 16 17  2  0  0  0  0
 16 19  1  0  0  0  0
 17 43  1  0  0  0  0
 18 21  2  0  0  0  0
 18 22  1  0  0  0  0
 19 20  1  0  0  0  0
 19 23  2  0  0  0  0
 20 24  2  0  0  0  0
 20 27  1  0  0  0  0
 21 25  1  0  0  0  0
 21 44  1  0  0  0  0
 22 26  2  0  0  0  0
 22 45  1  0  0  0  0
 23 28  1  0  0  0  0
 23 46  1  0  0  0  0
 24 30  1  0  0  0  0
 24 47  1  0  0  0  0
 25 29  2  0  0  0  0
 25 48  1  0  0  0  0
 26 29  1  0  0  0  0
 26 49  1  0  0  0  0
 27 50  1  0  0  0  0
 27 51  1  0  0  0  0
 27 52  1  0  0  0  0
 28 30  2  0  0  0  0
 28 53  1  0  0  0  0
 29 31  1  0  0  0  0
 30 54  1  0  0  0  0
M  END
> <PUBCHEM_COMPOUND_CID>
11942816

> <PUBCHEM_CONFORMER_RMSD>
0.8

> <PUBCHEM_CONFORMER_DIVERSEORDER>
1
2
5
4
3

> <PUBCHEM_MMFF94_PARTIAL_CHARGES>
39
1 -0.57
10 0.3
11 0.3
12 -0.03
13 -0.15
14 0.62
15 0.54
16 -0.01
17 -0.15
18 0.09
19 0.03
2 -0.57
20 -0.14
21 -0.15
22 -0.15
23 -0.15
24 -0.15
25 -0.15
26 -0.15
27 0.14
28 -0.15
29 0.07
3 -0.66
30 -0.15
31 0.48
4 -0.47
42 0.15
43 0.15
44 0.15
45 0.15
46 0.15
47 0.15
48 0.15
49 0.15
5 -0.56
53 0.15
54 0.15
7 0.14
9 0.3

> <PUBCHEM_EFFECTIVE_ROTOR_COUNT>
4

> <PUBCHEM_PHARMACOPHORE_FEATURES>
8
1 1 acceptor
1 2 acceptor
1 5 acceptor
6 18 21 22 25 26 29 rings
6 19 20 23 24 28 30 rings
6 3 6 7 8 9 11 rings
6 4 12 13 14 16 17 rings
6 4 6 7 8 10 12 rings

> <PUBCHEM_HEAVY_ATOM_COUNT>
31

> <PUBCHEM_ATOM_DEF_STEREO_COUNT>
2

> <PUBCHEM_ATOM_UDEF_STEREO_COUNT>
0

> <PUBCHEM_BOND_DEF_STEREO_COUNT>
0

> <PUBCHEM_BOND_UDEF_STEREO_COUNT>
0

> <PUBCHEM_ISOTOPIC_ATOM_COUNT>
0

> <PUBCHEM_COMPONENT_COUNT>
1

> <PUBCHEM_CACTVS_TAUTO_COUNT>
1

> <PUBCHEM_CONFORMER_ID>
00B63BA000000001

> <PUBCHEM_MMFF94_ENERGY>
90.2213

> <PUBCHEM_FEATURE_SELFOVERLAP>
42.195

> <PUBCHEM_SHAPE_FINGERPRINT>
10483366 6 18264469743004543005
11014199 57 18266742570161340842
11049842 53 16820270878659150980
11552529 35 18410572881777483252
12156800 1 17538795366648181073
12422481 6 17539442854295827361
12633257 1 18129957688383636177
12788726 201 18335150790696072838
13004483 165 18335699459830168923
13631057 29 18335986441419183348
14068700 675 18055353792919847263
14100547 121 18265612087334229298
14844126 61 18335699407979539906
16728300 4 17607521332890323203
19319366 153 16743173557174562477
20775438 99 17476869931274369503
20775530 9 18123753320625739163
21421861 104 17404611225572082435
3027735 51 18197481940746905967
3380486 145 18262804098209565801
35225 105 18190722168654440181
4017518 198 17763169255649631286
4409770 3 18263074431745334877
463206 1 18190465054632720523
469060 322 18191021420828538424
484985 159 18263629702297705166
5265222 85 17976839587994422364
9981440 41 17832984949472284633

> <PUBCHEM_SHAPE_MULTIPOLES>
611.28
9.1
5.98
1.65
13.67
4.4
-0.01
6.23
-1.59
-7.48
1.43
-0.36
-0.46
-1.65

> <PUBCHEM_SHAPE_SELFOVERLAP>
1354.925

> <PUBCHEM_SHAPE_VOLUME>
320

> <PUBCHEM_COORDINATE_TYPE>
2
5
10

$$$$
