26762149
  -OEChem-12032416343D

 57 59  0     1  0  0  0  0  0999 V2000
   -2.6401    3.6381   -0.7319 O   0  0  0  0  0  0  0  0  0  0  0  0
    3.9183   -0.3960    2.2023 O   0  0  0  0  0  0  0  0  0  0  0  0
   -2.8607   -2.5057   -0.3777 O   0  0  0  0  0  0  0  0  0  0  0  0
    0.1748    1.3864   -0.4881 N   0  0  1  0  0  0  0  0  0  0  0  0
   -1.0369    3.5072    0.8831 N   0  0  0  0  0  0  0  0  0  0  0  0
   -2.9732   -0.1968   -0.5974 N   0  0  0  0  0  0  0  0  0  0  0  0
    4.8337   -1.0139    0.1731 N   0  0  0  0  0  0  0  0  0  0  0  0
   -4.7804   -1.3538    0.2319 N   0  0  0  0  0  0  0  0  0  0  0  0
   -0.7300    2.2618   -1.2334 C   0  0  1  0  0  0  0  0  0  0  0  0
    0.9728    2.1103    0.4995 C   0  0  1  0  0  0  0  0  0  0  0  0
   -1.6128    0.0072   -1.1458 C   0  0  1  0  0  0  0  0  0  0  0  0
   -1.5738    1.2624   -2.0189 C   0  0  0  0  0  0  0  0  0  0  0  0
   -0.6239    0.2595   -0.0088 C   0  0  0  0  0  0  0  0  0  0  0  0
    0.0915    2.8451    1.5038 C   0  0  0  0  0  0  0  0  0  0  0  0
    1.9804    1.2054    1.2100 C   0  0  0  0  0  0  0  0  0  0  0  0
   -1.5723    3.1637   -0.3381 C   0  0  0  0  0  0  0  0  0  0  0  0
    2.9219    0.5106    0.2380 C   0  0  0  0  0  0  0  0  0  0  0  0
    3.9291   -0.3383    0.9716 C   0  0  0  0  0  0  0  0  0  0  0  0
   -3.4807   -1.4498   -0.2590 C   0  0  0  0  0  0  0  0  0  0  0  0
    5.8727   -1.8691    0.7281 C   0  0  0  0  0  0  0  0  0  0  0  0
    4.8976   -0.9913   -1.2849 C   0  0  0  0  0  0  0  0  0  0  0  0
    6.4045   -2.6458   -0.4665 C   0  0  0  0  0  0  0  0  0  0  0  0
    6.2219   -1.6640   -1.6171 C   0  0  0  0  0  0  0  0  0  0  0  0
   -5.5430   -2.5038    0.6571 C   0  0  0  0  0  0  0  0  0  0  0  0
   -6.3014   -3.1012   -0.5210 C   0  0  0  0  0  0  0  0  0  0  0  0
   -6.4901   -2.1283    1.7899 C   0  0  0  0  0  0  0  0  0  0  0  0
   -0.1720    2.9132   -1.9164 H   0  0  0  0  0  0  0  0  0  0  0  0
    1.5507    2.8677   -0.0494 H   0  0  0  0  0  0  0  0  0  0  0  0
   -1.3357   -0.8782   -1.7295 H   0  0  0  0  0  0  0  0  0  0  0  0
   -2.5684    1.6340   -2.2861 H   0  0  0  0  0  0  0  0  0  0  0  0
   -1.0545    1.0180   -2.9551 H   0  0  0  0  0  0  0  0  0  0  0  0
   -1.1491    0.4831    0.9270 H   0  0  0  0  0  0  0  0  0  0  0  0
   -0.0053   -0.6279    0.1608 H   0  0  0  0  0  0  0  0  0  0  0  0
   -0.3208    2.1651    2.2578 H   0  0  0  0  0  0  0  0  0  0  0  0
    0.6654    3.6120    2.0353 H   0  0  0  0  0  0  0  0  0  0  0  0
    1.4611    0.4600    1.8267 H   0  0  0  0  0  0  0  0  0  0  0  0
    2.5677    1.8163    1.9091 H   0  0  0  0  0  0  0  0  0  0  0  0
   -1.5678    4.1545    1.4577 H   0  0  0  0  0  0  0  0  0  0  0  0
   -3.5335    0.6236   -0.3867 H   0  0  0  0  0  0  0  0  0  0  0  0
    2.3692   -0.1369   -0.4504 H   0  0  0  0  0  0  0  0  0  0  0  0
    3.4595    1.2643   -0.3481 H   0  0  0  0  0  0  0  0  0  0  0  0
    5.4695   -2.5129    1.5154 H   0  0  0  0  0  0  0  0  0  0  0  0
    6.6418   -1.2199    1.1610 H   0  0  0  0  0  0  0  0  0  0  0  0
    4.8402    0.0296   -1.6708 H   0  0  0  0  0  0  0  0  0  0  0  0
    4.0480   -1.5680   -1.6662 H   0  0  0  0  0  0  0  0  0  0  0  0
    5.7897   -3.5372   -0.6396 H   0  0  0  0  0  0  0  0  0  0  0  0
    7.4422   -2.9639   -0.3349 H   0  0  0  0  0  0  0  0  0  0  0  0
    7.0321   -0.9249   -1.6046 H   0  0  0  0  0  0  0  0  0  0  0  0
    6.2144   -2.1487   -2.5971 H   0  0  0  0  0  0  0  0  0  0  0  0
   -5.2350   -0.4456    0.2202 H   0  0  0  0  0  0  0  0  0  0  0  0
   -4.8413   -3.2589    1.0316 H   0  0  0  0  0  0  0  0  0  0  0  0
   -7.0048   -2.3777   -0.9481 H   0  0  0  0  0  0  0  0  0  0  0  0
   -5.6135   -3.4011   -1.3191 H   0  0  0  0  0  0  0  0  0  0  0  0
   -6.8674   -3.9868   -0.2138 H   0  0  0  0  0  0  0  0  0  0  0  0
   -7.2124   -1.3689    1.4699 H   0  0  0  0  0  0  0  0  0  0  0  0
   -5.9343   -1.7166    2.6394 H   0  0  0  0  0  0  0  0  0  0  0  0
   -7.0473   -3.0029    2.1412 H   0  0  0  0  0  0  0  0  0  0  0  0
  1 16  2  0  0  0  0
  2 18  2  0  0  0  0
  3 19  2  0  0  0  0
  4  9  1  0  0  0  0
  4 10  1  0  0  0  0
  4 13  1  0  0  0  0
  5 14  1  0  0  0  0
  5 16  1  0  0  0  0
  5 38  1  0  0  0  0
  6 11  1  0  0  0  0
  6 19  1  0  0  0  0
  6 39  1  0  0  0  0
  7 18  1  0  0  0  0
  7 20  1  0  0  0  0
  7 21  1  0  0  0  0
  8 19  1  0  0  0  0
  8 24  1  0  0  0  0
  8 50  1  0  0  0  0
  9 12  1  0  0  0  0
  9 16  1  0  0  0  0
  9 27  1  0  0  0  0
 10 14  1  0  0  0  0
 10 15  1  0  0  0  0
 10 28  1  0  0  0  0
 11 12  1  0  0  0  0
 11 13  1  0  0  0  0
 11 29  1  0  0  0  0
 12 30  1  0  0  0  0
 12 31  1  0  0  0  0
 13 32  1  0  0  0  0
 13 33  1  0  0  0  0
 14 34  1  0  0  0  0
 14 35  1  0  0  0  0
 15 17  1  0  0  0  0
 15 36  1  0  0  0  0
 15 37  1  0  0  0  0
 17 18  1  0  0  0  0
 17 40  1  0  0  0  0
 17 41  1  0  0  0  0
 20 22  1  0  0  0  0
 20 42  1  0  0  0  0
 20 43  1  0  0  0  0
 21 23  1  0  0  0  0
 21 44  1  0  0  0  0
 21 45  1  0  0  0  0
 22 23  1  0  0  0  0
 22 46  1  0  0  0  0
 22 47  1  0  0  0  0
 23 48  1  0  0  0  0
 23 49  1  0  0  0  0
 24 25  1  0  0  0  0
 24 26  1  0  0  0  0
 24 51  1  0  0  0  0
 25 52  1  0  0  0  0
 25 53  1  0  0  0  0
 25 54  1  0  0  0  0
 26 55  1  0  0  0  0
 26 56  1  0  0  0  0
 26 57  1  0  0  0  0
M  END
> <PUBCHEM_COMPOUND_CID>
26762149

> <PUBCHEM_CONFORMER_RMSD>
1.2

> <PUBCHEM_CONFORMER_DIVERSEORDER>
3
100
41
46
61
98
107
118
38
52
75
58
55
77
25
94
132
138
43
13
70
6
22
80
109
33
111
141
86
11
114
28
112
76
19
99
36
92
113
26
31
131
56
88
29
73
106
93
78
133
125
37
137
81
72
119
87
1
117
59
48
8
129
69
95
101
16
84
20
54
83
30
14
67
47
57
10
24
127
121
102
60
63
35
116
108
136
9
134
40
39
42
23
85
135
68
50
34
15
21
110
74
65
82
124
142
4
5
89
140
53
79
130
45
2
66
122
7
91
12
128
64
139
71
27
97
17
44
32
90
126
51
120
49
18
62
115
105
103
104
123
96

> <PUBCHEM_MMFF94_PARTIAL_CHARGES>
23
1 -0.57
10 0.27
11 0.3
13 0.27
14 0.3
16 0.57
17 0.06
18 0.57
19 0.69
2 -0.57
20 0.3
21 0.3
24 0.3
3 -0.57
38 0.37
39 0.37
4 -0.81
5 -0.73
50 0.37
6 -0.73
7 -0.66
8 -0.73
9 0.33

> <PUBCHEM_EFFECTIVE_ROTOR_COUNT>
10.2

> <PUBCHEM_PHARMACOPHORE_FEATURES>
11
1 1 acceptor
1 2 acceptor
1 3 acceptor
1 4 cation
1 5 donor
1 6 donor
1 8 donor
3 24 25 26 hydrophobe
5 4 9 11 12 13 rings
5 7 20 21 22 23 rings
6 4 5 9 10 14 16 rings

> <PUBCHEM_HEAVY_ATOM_COUNT>
26

> <PUBCHEM_ATOM_DEF_STEREO_COUNT>
3

> <PUBCHEM_ATOM_UDEF_STEREO_COUNT>
0

> <PUBCHEM_BOND_DEF_STEREO_COUNT>
0

> <PUBCHEM_BOND_UDEF_STEREO_COUNT>
0

> <PUBCHEM_ISOTOPIC_ATOM_COUNT>
0

> <PUBCHEM_COMPONENT_COUNT>
1

> <PUBCHEM_CACTVS_TAUTO_COUNT>
9

> <PUBCHEM_CONFORMER_ID>
01985BA500000003

> <PUBCHEM_MMFF94_ENERGY>
47.5161

> <PUBCHEM_FEATURE_SELFOVERLAP>
56.098

> <PUBCHEM_SHAPE_FINGERPRINT>
10692045 39 15841287998734693623
10764073 3 17774736264118169497
107951 10 17839174108872649724
10928967 22 18335968844406272810
11135609 12 18272645741238232408
11135609 127 10014493133827590931
11809386 21 18189327979621406642
11954058 11 18196090173806271519
11961588 58 8286200522213445717
11991303 11 17824816746820814237
12107183 9 18201449125034855923
12403259 118 10807349946171483034
12633257 1 14979665612001888308
12760667 363 18343013372312426495
13135754 10 18059023773775544520
13533116 47 18051689143019904187
13540713 4 18268970081956144272
13631057 29 18334011666911973250
13673619 4 18413392046686697546
13757389 114 17972041335867240428
13911852 28 18340482374245308255
14251764 30 18411421730139327955
14866123 147 18339642222965579609
14955137 171 18264495151593910811
15042514 8 18412263896270194001
16120349 189 10087633802157275706
17492 89 18411133620160500196
1813 80 17822283643354083301
21304304 249 18341615876835621689
21401589 2 9367345980926312471
21585481 104 15213846122167248583
21682296 61 18338233877652201335
23466295 7 18340769239078999208
23559900 14 17487027013887203072
2748736 6 10015589384805172635
3380486 145 17130679782827444448
3737641 26 18337949116249646640
4073 2 18057593271632318770
4107672 100 17458622260327290037
437815 12 18411136974234637299
484985 159 18340205164102303945
4921388 177 18197775501851348892
56633871 153 17988357169558637559
57527585 21 14996853078714107820
58260988 114 18268438944740179176
7918774 8 18410011065368770167
8217 86 18334579049197589654

> <PUBCHEM_SHAPE_MULTIPOLES>
492.55
15.82
4.56
1.68
3.89
2.34
0.13
-24.33
1.19
-4.39
0.11
0.46
0.19
2.05

> <PUBCHEM_SHAPE_SELFOVERLAP>
1010.182

> <PUBCHEM_SHAPE_VOLUME>
285

> <PUBCHEM_COORDINATE_TYPE>
2
5
10

$$$$
