11886267
  -OEChem-12032416413D

 60 65  0     1  0  0  0  0  0999 V2000
   -1.2795   -2.9179    0.9346 O   0  0  0  0  0  0  0  0  0  0  0  0
   -0.8034   -1.8185   -1.9734 O   0  0  0  0  0  0  0  0  0  0  0  0
    3.4735   -0.7956   -0.1331 O   0  0  0  0  0  0  0  0  0  0  0  0
   -5.3359   -1.5553    0.4283 O   0  0  0  0  0  0  0  0  0  0  0  0
  -10.3875    2.5484    0.4757 O   0  0  0  0  0  0  0  0  0  0  0  0
    1.3208   -0.9211    0.8588 N   0  0  0  0  0  0  0  0  0  0  0  0
   -3.6814   -1.0785   -1.1146 N   0  0  0  0  0  0  0  0  0  0  0  0
    0.6950   -0.3805    1.9135 N   0  0  0  0  0  0  0  0  0  0  0  0
    2.7893    0.3741    1.7908 N   0  0  0  0  0  0  0  0  0  0  0  0
    1.5982    0.4104    2.4799 N   0  0  0  0  0  0  0  0  0  0  0  0
   -5.5158    0.2991   -0.9999 N   0  0  0  0  0  0  0  0  0  0  0  0
    8.6513    1.2297   -0.2370 N   0  0  0  0  0  0  0  0  0  0  0  0
    9.6616    0.6198    0.4013 N   0  0  0  0  0  0  0  0  0  0  0  0
   10.3663    2.5112   -0.6750 N   0  0  0  0  0  0  0  0  0  0  0  0
   -0.6119   -1.2720   -0.6557 C   0  0  1  0  0  0  0  0  0  0  0  0
   -1.7532   -1.7735    0.2075 C   0  0  1  0  0  0  0  0  0  0  0  0
    0.6353   -1.8648   -0.0280 C   0  0  2  0  0  0  0  0  0  0  0  0
   -2.8180   -2.1863   -0.7837 C   0  0  2  0  0  0  0  0  0  0  0  0
    0.1111   -3.1250    0.6516 C   0  0  0  0  0  0  0  0  0  0  0  0
   -1.9942   -2.6182   -1.9826 C   0  0  0  0  0  0  0  0  0  0  0  0
    2.5955   -0.4561    0.7921 C   0  0  0  0  0  0  0  0  0  0  0  0
   -4.9016   -0.8395   -0.4710 C   0  0  0  0  0  0  0  0  0  0  0  0
   -6.7533    0.8716   -0.6239 C   0  0  0  0  0  0  0  0  0  0  0  0
    4.7660   -0.2900   -0.1587 C   0  0  0  0  0  0  0  0  0  0  0  0
    5.7884   -0.9541    0.5190 C   0  0  0  0  0  0  0  0  0  0  0  0
    5.0424    0.8824   -0.8625 C   0  0  0  0  0  0  0  0  0  0  0  0
   -7.5128    0.2874    0.3898 C   0  0  0  0  0  0  0  0  0  0  0  0
   -7.2150    2.0198   -1.2676 C   0  0  0  0  0  0  0  0  0  0  0  0
    7.0871   -0.4460    0.4930 C   0  0  0  0  0  0  0  0  0  0  0  0
    6.3411    1.3904   -0.8883 C   0  0  0  0  0  0  0  0  0  0  0  0
   -8.7337    0.8513    0.7599 C   0  0  0  0  0  0  0  0  0  0  0  0
   -8.4358    2.5837   -0.8977 C   0  0  0  0  0  0  0  0  0  0  0  0
    7.3635    0.7263   -0.2106 C   0  0  0  0  0  0  0  0  0  0  0  0
   -9.1952    1.9995    0.1162 C   0  0  0  0  0  0  0  0  0  0  0  0
    9.0783    2.3530   -0.8740 C   0  0  0  0  0  0  0  0  0  0  0  0
  -11.1125    1.9002    1.5198 C   0  0  0  0  0  0  0  0  0  0  0  0
   10.6765    1.4345    0.1054 C   0  0  0  0  0  0  0  0  0  0  0  0
   -0.5971   -0.1820   -0.7572 H   0  0  0  0  0  0  0  0  0  0  0  0
   -2.0889   -1.0352    0.9429 H   0  0  0  0  0  0  0  0  0  0  0  0
    1.3744   -2.1484   -0.7866 H   0  0  0  0  0  0  0  0  0  0  0  0
   -3.4345   -3.0163   -0.4224 H   0  0  0  0  0  0  0  0  0  0  0  0
    0.1778   -3.9849   -0.0239 H   0  0  0  0  0  0  0  0  0  0  0  0
    0.6359   -3.3753    1.5785 H   0  0  0  0  0  0  0  0  0  0  0  0
   -1.6846   -3.6649   -1.8894 H   0  0  0  0  0  0  0  0  0  0  0  0
   -2.5080   -2.4941   -2.9407 H   0  0  0  0  0  0  0  0  0  0  0  0
   -3.3592   -0.4033   -1.8015 H   0  0  0  0  0  0  0  0  0  0  0  0
   -5.0204    0.7798   -1.7466 H   0  0  0  0  0  0  0  0  0  0  0  0
    5.5793   -1.8682    1.0681 H   0  0  0  0  0  0  0  0  0  0  0  0
    4.2499    1.4034   -1.3929 H   0  0  0  0  0  0  0  0  0  0  0  0
   -7.2220   -0.6006    0.9331 H   0  0  0  0  0  0  0  0  0  0  0  0
   -6.6331    2.4848   -2.0594 H   0  0  0  0  0  0  0  0  0  0  0  0
    7.8549   -0.9934    1.0336 H   0  0  0  0  0  0  0  0  0  0  0  0
    6.4978    2.3045   -1.4513 H   0  0  0  0  0  0  0  0  0  0  0  0
   -9.2736    0.3473    1.5544 H   0  0  0  0  0  0  0  0  0  0  0  0
   -8.7905    3.4778   -1.4031 H   0  0  0  0  0  0  0  0  0  0  0  0
    8.4652    3.0238   -1.4589 H   0  0  0  0  0  0  0  0  0  0  0  0
  -11.4098    0.8856    1.2333 H   0  0  0  0  0  0  0  0  0  0  0  0
  -10.5603    1.9198    2.4655 H   0  0  0  0  0  0  0  0  0  0  0  0
  -12.0339    2.4709    1.6759 H   0  0  0  0  0  0  0  0  0  0  0  0
   11.6736    1.2371    0.4696 H   0  0  0  0  0  0  0  0  0  0  0  0
  1 16  1  0  0  0  0
  1 19  1  0  0  0  0
  2 15  1  0  0  0  0
  2 20  1  0  0  0  0
  3 21  1  0  0  0  0
  3 24  1  0  0  0  0
  4 22  2  0  0  0  0
  5 34  1  0  0  0  0
  5 36  1  0  0  0  0
  6  8  1  0  0  0  0
  6 17  1  0  0  0  0
  6 21  1  0  0  0  0
  7 18  1  0  0  0  0
  7 22  1  0  0  0  0
  7 46  1  0  0  0  0
  8 10  2  0  0  0  0
  9 10  1  0  0  0  0
  9 21  2  0  0  0  0
 11 22  1  0  0  0  0
 11 23  1  0  0  0  0
 11 47  1  0  0  0  0
 12 13  1  0  0  0  0
 12 33  1  0  0  0  0
 12 35  1  0  0  0  0
 13 37  2  0  0  0  0
 14 35  2  0  0  0  0
 14 37  1  0  0  0  0
 15 16  1  0  0  0  0
 15 17  1  0  0  0  0
 15 38  1  0  0  0  0
 16 18  1  0  0  0  0
 16 39  1  0  0  0  0
 17 19  1  0  0  0  0
 17 40  1  0  0  0  0
 18 20  1  0  0  0  0
 18 41  1  0  0  0  0
 19 42  1  0  0  0  0
 19 43  1  0  0  0  0
 20 44  1  0  0  0  0
 20 45  1  0  0  0  0
 23 27  2  0  0  0  0
 23 28  1  0  0  0  0
 24 25  2  0  0  0  0
 24 26  1  0  0  0  0
 25 29  1  0  0  0  0
 25 48  1  0  0  0  0
 26 30  2  0  0  0  0
 26 49  1  0  0  0  0
 27 31  1  0  0  0  0
 27 50  1  0  0  0  0
 28 32  2  0  0  0  0
 28 51  1  0  0  0  0
 29 33  2  0  0  0  0
 29 52  1  0  0  0  0
 30 33  1  0  0  0  0
 30 53  1  0  0  0  0
 31 34  2  0  0  0  0
 31 54  1  0  0  0  0
 32 34  1  0  0  0  0
 32 55  1  0  0  0  0
 35 56  1  0  0  0  0
 36 57  1  0  0  0  0
 36 58  1  0  0  0  0
 36 59  1  0  0  0  0
 37 60  1  0  0  0  0
M  END
> <PUBCHEM_COMPOUND_CID>
11886267

> <PUBCHEM_CONFORMER_RMSD>
1.2

> <PUBCHEM_CONFORMER_DIVERSEORDER>
1
121
63
53
79
128
34
159
122
136
42
109
30
24
52
6
33
160
56
9
77
115
152
88
171
151
127
35
124
155
87
41
76
22
166
3
170
168
117
59
100
51
92
31
173
43
119
23
89
8
99
98
29
164
55
83
40
143
20
150
125
91
7
95
81
67
36
13
123
21
142
110
138
10
62
112
94
145
163
104
146
131
148
12
108
140
107
167
114
120
144
165
66
65
54
27
78
130
102
48
18
70
113
106
14
118
45
156
19
132
82
147
101
46
105
85
75
139
161
149
153
154
162
37
96
103
57
169
47
126
86
49
84
64
39
32
71
26
60
16
28
134
129
38
50
116
97
141
74
158
157
73
80
93
44
4
11
111
69
172
5
137
15
68
25
61
2
17
72
90
135
58
133

> <PUBCHEM_MMFF94_PARTIAL_CHARGES>
48
1 -0.56
11 -0.55
12 0.59
13 -0.71
14 -0.57
15 0.28
16 0.28
17 0.26
18 0.3
19 0.28
2 -0.56
20 0.28
21 0.25
22 0.69
23 0.12
24 0.08
25 -0.15
26 -0.15
27 -0.15
28 -0.15
29 -0.15
3 -0.15
30 -0.15
31 -0.15
32 -0.15
33 -0.02
34 0.08
35 0.04
36 0.28
37 0.37
4 -0.57
46 0.37
47 0.37
48 0.15
49 0.15
5 -0.36
50 0.15
51 0.15
52 0.15
53 0.15
54 0.15
55 0.15
56 0.15
6 0.31
60 0.15
7 -0.73
8 -0.42
9 -0.34

> <PUBCHEM_EFFECTIVE_ROTOR_COUNT>
10.2

> <PUBCHEM_PHARMACOPHORE_FEATURES>
15
1 1 acceptor
1 11 donor
1 2 acceptor
1 4 acceptor
1 5 acceptor
1 7 donor
3 12 14 35 cation
3 13 14 37 cation
3 6 9 21 cation
5 1 15 16 17 19 rings
5 12 13 14 35 37 rings
5 2 15 16 18 20 rings
5 6 8 9 10 21 rings
6 23 27 28 31 32 34 rings
6 24 25 26 29 30 33 rings

> <PUBCHEM_HEAVY_ATOM_COUNT>
37

> <PUBCHEM_ATOM_DEF_STEREO_COUNT>
4

> <PUBCHEM_ATOM_UDEF_STEREO_COUNT>
0

> <PUBCHEM_BOND_DEF_STEREO_COUNT>
0

> <PUBCHEM_BOND_UDEF_STEREO_COUNT>
0

> <PUBCHEM_ISOTOPIC_ATOM_COUNT>
0

> <PUBCHEM_COMPONENT_COUNT>
1

> <PUBCHEM_CACTVS_TAUTO_COUNT>
3

> <PUBCHEM_CONFORMER_ID>
00B55EBB00000001

> <PUBCHEM_MMFF94_ENERGY>
107.2649

> <PUBCHEM_FEATURE_SELFOVERLAP>
79.617

> <PUBCHEM_SHAPE_FINGERPRINT>
10 15 18040998402842751003
10162869 55 11959728283945336506
10190206 1 17632583721335105057
10952577 141 18342739620267117447
11135609 99 9439394744327018848
11181472 205 18409448077867886380
11411753 3 16700031980343330386
11607047 141 18041836187622465138
11621639 179 17988075591634164341
11621639 336 18263922129525922948
12838862 33 16415474966157054038
12838863 1 8646763396707840385
13383668 1 9871754572326106200
13530399 1 18262240032119036148
14117953 113 15626227940300933932
14201967 126 18410011027268868517
14202775 3 8430052971073740448
15183329 4 17060339625714517866
15198563 99 15554458370125912675
15347590 135 14923937933983430749
15350500 16 9439401329081556805
15706992 2 18113626676561975165
16087824 20 18412826867355735897
19302320 297 18040437702656225580
19315958 150 18411140212677162006
20105231 36 8285934493221422792
20505436 4 18335976511102387011
20721686 146 18341331094543507605
212700 22 8935000382434958345
21360443 89 8862946061556748620
21781055 127 18409437091125753674
21895431 317 10663833957774201908
23528940 14 9079126540495345076
23576562 1 16701157837547802469
24771293 8 18259702315688358463
2851757 41 10447918491467005717
3711267 37 18335430066375702204
3986486 107 17275100639678209029
3991529 128 18410017628875396657
4339292 15 9799694787896392430
44426699 302 18337950091994012066
474113 269 11240000048943763932
4760202 170 16988555867051278848
54039377 194 9511457823576124065
636783 210 15553870214433867632
6698420 124 17677050261185902472
9689198 14 18259987059219362119
9953998 17 16950285114093396763

> <PUBCHEM_SHAPE_MULTIPOLES>
687.27
40.65
3.15
1.52
0.79
0.58
0.23
-48.44
1.31
2.75
-0.64
0.99
0.19
-2.06

> <PUBCHEM_SHAPE_SELFOVERLAP>
1512.474

> <PUBCHEM_SHAPE_VOLUME>
371.4

> <PUBCHEM_COORDINATE_TYPE>
2
5
10

$$$$
