56775489
  -OEChem-12032416273D

 48 51  0     0  0  0  0  0  0999 V2000
    6.9570    3.0570    0.6141 F   0  0  0  0  0  0  0  0  0  0  0  0
   -2.0817   -3.8776    1.1671 O   0  0  0  0  0  0  0  0  0  0  0  0
    3.1850   -1.9342    0.0597 O   0  0  0  0  0  0  0  0  0  0  0  0
   -6.5050    1.1471    0.5761 O   0  0  0  0  0  0  0  0  0  0  0  0
   -1.5621   -1.0315    0.2824 N   0  0  0  0  0  0  0  0  0  0  0  0
    2.0917   -2.7421   -0.2283 N   0  0  0  0  0  0  0  0  0  0  0  0
   -1.1452   -2.3888   -0.0421 C   0  0  0  0  0  0  0  0  0  0  0  0
   -0.8452   -3.1333    1.2539 C   0  0  0  0  0  0  0  0  0  0  0  0
   -2.3816   -3.2779   -0.1138 C   0  0  0  0  0  0  0  0  0  0  0  0
   -0.1235   -2.4431   -1.1857 C   0  0  0  0  0  0  0  0  0  0  0  0
   -2.0941   -0.3791   -0.9117 C   0  0  0  0  0  0  0  0  0  0  0  0
    1.1825   -1.9180   -0.7567 C   0  0  0  0  0  0  0  0  0  0  0  0
   -3.0549    0.7270   -0.5653 C   0  0  0  0  0  0  0  0  0  0  0  0
    1.6415   -0.5913   -0.8265 C   0  0  0  0  0  0  0  0  0  0  0  0
    2.9048   -0.6557   -0.3010 C   0  0  0  0  0  0  0  0  0  0  0  0
   -4.3508    0.4210   -0.1497 C   0  0  0  0  0  0  0  0  0  0  0  0
   -2.6488    2.0582   -0.6605 C   0  0  0  0  0  0  0  0  0  0  0  0
    3.9535    0.3058   -0.0632 C   0  0  0  0  0  0  0  0  0  0  0  0
   -5.2406    1.4462    0.1707 C   0  0  0  0  0  0  0  0  0  0  0  0
   -3.5389    3.0833   -0.3402 C   0  0  0  0  0  0  0  0  0  0  0  0
   -4.8348    2.7774    0.0752 C   0  0  0  0  0  0  0  0  0  0  0  0
    3.7620    1.6452   -0.4026 C   0  0  0  0  0  0  0  0  0  0  0  0
    5.1595   -0.1039    0.5055 C   0  0  0  0  0  0  0  0  0  0  0  0
    4.7765    2.5746   -0.1739 C   0  0  0  0  0  0  0  0  0  0  0  0
    6.1740    0.8254    0.7343 C   0  0  0  0  0  0  0  0  0  0  0  0
    5.9825    2.1647    0.3946 C   0  0  0  0  0  0  0  0  0  0  0  0
   -7.3633    2.2435    0.8878 C   0  0  0  0  0  0  0  0  0  0  0  0
   -0.7955   -2.5446    2.1761 H   0  0  0  0  0  0  0  0  0  0  0  0
    0.0046   -3.8227    1.2335 H   0  0  0  0  0  0  0  0  0  0  0  0
   -2.3703   -4.0356   -0.9048 H   0  0  0  0  0  0  0  0  0  0  0  0
   -3.3684   -2.8049   -0.1010 H   0  0  0  0  0  0  0  0  0  0  0  0
   -0.4698   -1.9421   -2.0959 H   0  0  0  0  0  0  0  0  0  0  0  0
    0.0068   -3.4922   -1.4881 H   0  0  0  0  0  0  0  0  0  0  0  0
   -0.8416   -0.4458    0.7028 H   0  0  0  0  0  0  0  0  0  0  0  0
   -2.6357   -1.0714   -1.5705 H   0  0  0  0  0  0  0  0  0  0  0  0
   -1.2804    0.0361   -1.5178 H   0  0  0  0  0  0  0  0  0  0  0  0
    1.1272    0.2789   -1.2067 H   0  0  0  0  0  0  0  0  0  0  0  0
   -4.6747   -0.6139   -0.0743 H   0  0  0  0  0  0  0  0  0  0  0  0
   -1.6416    2.3114   -0.9805 H   0  0  0  0  0  0  0  0  0  0  0  0
   -3.2216    4.1195   -0.4142 H   0  0  0  0  0  0  0  0  0  0  0  0
   -5.4741    3.6220    0.3085 H   0  0  0  0  0  0  0  0  0  0  0  0
    2.8333    1.9940   -0.8468 H   0  0  0  0  0  0  0  0  0  0  0  0
    5.3458   -1.1381    0.7832 H   0  0  0  0  0  0  0  0  0  0  0  0
    4.6281    3.6175   -0.4380 H   0  0  0  0  0  0  0  0  0  0  0  0
    7.1134    0.5072    1.1767 H   0  0  0  0  0  0  0  0  0  0  0  0
   -8.3276    1.8229    1.1915 H   0  0  0  0  0  0  0  0  0  0  0  0
   -7.5504    2.8704    0.0093 H   0  0  0  0  0  0  0  0  0  0  0  0
   -6.9849    2.8218    1.7375 H   0  0  0  0  0  0  0  0  0  0  0  0
  1 26  1  0  0  0  0
  2  8  1  0  0  0  0
  2  9  1  0  0  0  0
  3  6  1  0  0  0  0
  3 15  1  0  0  0  0
  4 19  1  0  0  0  0
  4 27  1  0  0  0  0
  5  7  1  0  0  0  0
  5 11  1  0  0  0  0
  5 34  1  0  0  0  0
  6 12  2  0  0  0  0
  7  8  1  0  0  0  0
  7  9  1  0  0  0  0
  7 10  1  0  0  0  0
  8 28  1  0  0  0  0
  8 29  1  0  0  0  0
  9 30  1  0  0  0  0
  9 31  1  0  0  0  0
 10 12  1  0  0  0  0
 10 32  1  0  0  0  0
 10 33  1  0  0  0  0
 11 13  1  0  0  0  0
 11 35  1  0  0  0  0
 11 36  1  0  0  0  0
 12 14  1  0  0  0  0
 13 16  2  0  0  0  0
 13 17  1  0  0  0  0
 14 15  2  0  0  0  0
 14 37  1  0  0  0  0
 15 18  1  0  0  0  0
 16 19  1  0  0  0  0
 16 38  1  0  0  0  0
 17 20  2  0  0  0  0
 17 39  1  0  0  0  0
 18 22  2  0  0  0  0
 18 23  1  0  0  0  0
 19 21  2  0  0  0  0
 20 21  1  0  0  0  0
 20 40  1  0  0  0  0
 21 41  1  0  0  0  0
 22 24  1  0  0  0  0
 22 42  1  0  0  0  0
 23 25  2  0  0  0  0
 23 43  1  0  0  0  0
 24 26  2  0  0  0  0
 24 44  1  0  0  0  0
 25 26  1  0  0  0  0
 25 45  1  0  0  0  0
 27 46  1  0  0  0  0
 27 47  1  0  0  0  0
 27 48  1  0  0  0  0
M  END
> <PUBCHEM_COMPOUND_CID>
56775489

> <PUBCHEM_CONFORMER_RMSD>
1

> <PUBCHEM_CONFORMER_DIVERSEORDER>
1
80
146
83
88
27
113
107
136
14
131
32
161
90
93
156
40
109
160
57
105
79
71
170
55
106
143
108
155
126
145
74
36
141
59
42
112
162
158
69
35
97
41
151
154
87
25
114
96
159
144
82
129
43
157
132
66
118
103
164
37
124
120
94
119
148
51
122
28
12
167
95
67
16
99
48
140
169
152
34
24
65
62
125
85
101
102
168
89
147
30
81
123
33
137
128
8
47
115
61
38
46
104
127
73
22
165
44
78
63
86
17
138
100
98
166
9
134
163
39
133
23
54
116
21
149
72
130
56
76
15
135
111
29
75
19
52
10
64
4
11
150
121
60
110
142
31
117
68
58
2
84
50
153
77
20
7
70
139
18
49
5
91
6
13
3
92
45
26
53

> <PUBCHEM_MMFF94_PARTIAL_CHARGES>
37
1 -0.19
10 0.18
11 0.41
12 0.11
13 -0.14
14 -0.15
15 0.09
16 -0.15
17 -0.15
18 0.05
19 0.08
2 -0.52
20 -0.15
21 -0.15
22 -0.15
23 -0.15
24 -0.15
25 -0.15
26 0.19
27 0.28
3 -0.02
34 0.36
37 0.15
38 0.15
39 0.15
4 -0.36
40 0.15
41 0.15
42 0.15
43 0.15
44 0.15
45 0.15
5 -0.84
6 -0.41
7 0.21
8 0.26
9 0.26

> <PUBCHEM_EFFECTIVE_ROTOR_COUNT>
7.8

> <PUBCHEM_PHARMACOPHORE_FEATURES>
9
1 2 acceptor
1 4 acceptor
1 5 cation
1 5 donor
1 6 acceptor
4 2 7 8 9 rings
5 3 6 12 14 15 rings
6 13 16 17 19 20 21 rings
6 18 22 23 24 25 26 rings

> <PUBCHEM_HEAVY_ATOM_COUNT>
27

> <PUBCHEM_ATOM_DEF_STEREO_COUNT>
0

> <PUBCHEM_ATOM_UDEF_STEREO_COUNT>
0

> <PUBCHEM_BOND_DEF_STEREO_COUNT>
0

> <PUBCHEM_BOND_UDEF_STEREO_COUNT>
0

> <PUBCHEM_ISOTOPIC_ATOM_COUNT>
0

> <PUBCHEM_COMPONENT_COUNT>
1

> <PUBCHEM_CACTVS_TAUTO_COUNT>
1

> <PUBCHEM_CONFORMER_ID>
0362534100000001

> <PUBCHEM_MMFF94_ENERGY>
73.7613

> <PUBCHEM_FEATURE_SELFOVERLAP>
45.672

> <PUBCHEM_SHAPE_FINGERPRINT>
10050765 1 18412262835287126270
10074138 170 17822582710859899123
10693767 8 8213560161871286017
12107183 9 18262503803187278970
12788726 201 18191289680064324291
12895837 130 18059571463747151540
12925494 130 18339918333038033864
13383665 225 18117862077252408110
13540713 4 18269857409430731646
13726171 33 18267585887311625640
14251764 75 18413110545644797120
14294032 229 17988361606175393239
14347329 18 18342728663795171248
14395042 24 18043818800307573283
14565420 104 18263085418815042579
14849402 71 18121503449278802162
15142526 21 18263928731269497355
15338160 23 18264771141305923678
15475509 35 16517089506733736146
15510800 12 12180385939149293000
15519825 34 16588597533919993273
15776043 110 17751064831239367042
16126227 98 18341614836825333929
16760501 71 18410294700782524597
18393751 57 18260553303644489947
19246450 95 17466186810169310752
19438510 23 18410570704144629802
20642791 13 18335985388847039855
21315764 268 18189613830905826885
21365058 113 17052756071006730103
21401589 2 18409164411603390563
21521721 280 18341902840653013977
21987483 16 18113905940733582603
22224240 67 18336267860767008337
23559900 14 18341612565188989550
2838139 119 18340480080484696614
3246875 12 18411139134966865721
5104073 3 18115853257345803882
5171179 24 17413576591217820753
5969126 39 18055063530983550415
6700243 42 17479211942328341838
7288768 16 18259702302602833251
7808743 9 18411131463374605306
9981440 41 18410571816383637594

> <PUBCHEM_SHAPE_MULTIPOLES>
520.8
16.71
4.85
0.97
2.08
2.16
-0.04
-20.92
-4.83
-1.49
-0.75
-0.22
0.36
0.57

> <PUBCHEM_SHAPE_SELFOVERLAP>
1132.305

> <PUBCHEM_SHAPE_VOLUME>
287.4

> <PUBCHEM_COORDINATE_TYPE>
2
5
10

$$$$
