45361481
  -OEChem-12032416313D

 72 75  0     1  0  0  0  0  0999 V2000
    0.2830   -0.3107    1.9682 O   0  0  0  0  0  0  0  0  0  0  0  0
    4.4442    2.2056    0.0296 O   0  0  0  0  0  0  0  0  0  0  0  0
   -5.6223   -1.7701   -1.2964 O   0  0  0  0  0  0  0  0  0  0  0  0
   -4.7499   -0.0327   -0.0155 N   0  0  0  0  0  0  0  0  0  0  0  0
    4.7248   -0.0268    0.6080 N   0  0  0  0  0  0  0  0  0  0  0  0
   -0.8731    1.3661   -1.2609 C   0  0  1  0  0  0  0  0  0  0  0  0
   -0.9176    0.3980   -0.0322 C   0  0  2  0  0  0  0  0  0  0  0  0
   -2.3639    0.3350    0.5778 C   0  0  1  0  0  0  0  0  0  0  0  0
    0.2209    0.7177    0.9789 C   0  0  2  0  0  0  0  0  0  0  0  0
    0.5325    1.3181   -1.9051 C   0  0  0  0  0  0  0  0  0  0  0  0
    1.6137    0.7710    0.3088 C   0  0  1  0  0  0  0  0  0  0  0  0
   -1.8924    0.8848   -2.3193 C   0  0  0  0  0  0  0  0  0  0  0  0
   -3.3912   -0.0772   -0.5138 C   0  0  2  0  0  0  0  0  0  0  0  0
    1.6465    1.6691   -0.9277 C   0  0  0  0  0  0  0  0  0  0  0  0
   -3.3108    0.7784   -1.7778 C   0  0  0  0  0  0  0  0  0  0  0  0
   -1.1935    2.8323   -0.8739 C   0  0  0  0  0  0  0  0  0  0  0  0
    2.7023    1.2150    1.2936 C   0  0  2  0  0  0  0  0  0  0  0  0
   -2.4862   -0.6230    1.7749 C   0  0  0  0  0  0  0  0  0  0  0  0
    2.4258    2.6102    1.8233 C   0  0  0  0  0  0  0  0  0  0  0  0
    4.0337    1.1841    0.5863 C   0  0  0  0  0  0  0  0  0  0  0  0
   -7.0655   -0.6637    0.1961 C   0  0  0  0  0  0  0  0  0  0  0  0
   -5.7411   -0.8866   -0.4554 C   0  0  0  0  0  0  0  0  0  0  0  0
   -7.7458   -1.8132    0.8797 C   0  0  0  0  0  0  0  0  0  0  0  0
   -7.1577   -0.6979    1.6935 C   0  0  0  0  0  0  0  0  0  0  0  0
    6.0422   -0.1258   -0.0224 C   0  0  0  0  0  0  0  0  0  0  0  0
    4.2631   -1.2573    1.2609 C   0  0  0  0  0  0  0  0  0  0  0  0
    6.0779   -1.2686   -1.0343 C   0  0  0  0  0  0  0  0  0  0  0  0
    4.2629   -2.4256    0.2764 C   0  0  0  0  0  0  0  0  0  0  0  0
    5.6356   -2.5926   -0.3929 C   0  0  0  0  0  0  0  0  0  0  0  0
    5.6022   -3.7139   -1.4286 C   0  0  0  0  0  0  0  0  0  0  0  0
   -0.7140   -0.6183   -0.4063 H   0  0  0  0  0  0  0  0  0  0  0  0
   -2.6334    1.3299    0.9544 H   0  0  0  0  0  0  0  0  0  0  0  0
   -0.0305    1.6477    1.4929 H   0  0  0  0  0  0  0  0  0  0  0  0
    0.5805    1.9997   -2.7641 H   0  0  0  0  0  0  0  0  0  0  0  0
    0.7217    0.3118   -2.3029 H   0  0  0  0  0  0  0  0  0  0  0  0
    1.8557   -0.2473   -0.0272 H   0  0  0  0  0  0  0  0  0  0  0  0
   -1.5920   -0.1012   -2.6988 H   0  0  0  0  0  0  0  0  0  0  0  0
   -1.8895    1.5599   -3.1845 H   0  0  0  0  0  0  0  0  0  0  0  0
   -3.1802   -1.1164   -0.8021 H   0  0  0  0  0  0  0  0  0  0  0  0
    2.5865    1.5433   -1.4764 H   0  0  0  0  0  0  0  0  0  0  0  0
    1.5686    2.7311   -0.6869 H   0  0  0  0  0  0  0  0  0  0  0  0
   -3.7161    1.7790   -1.5837 H   0  0  0  0  0  0  0  0  0  0  0  0
   -3.9551    0.3507   -2.5570 H   0  0  0  0  0  0  0  0  0  0  0  0
   -0.5155    3.2209   -0.1089 H   0  0  0  0  0  0  0  0  0  0  0  0
   -2.2060    2.9562   -0.4815 H   0  0  0  0  0  0  0  0  0  0  0  0
   -1.1080    3.4886   -1.7480 H   0  0  0  0  0  0  0  0  0  0  0  0
    2.7240    0.5821    2.1831 H   0  0  0  0  0  0  0  0  0  0  0  0
   -1.9719   -0.2242    2.6537 H   0  0  0  0  0  0  0  0  0  0  0  0
   -3.5271   -0.7607    2.0843 H   0  0  0  0  0  0  0  0  0  0  0  0
   -2.0781   -1.6106    1.5369 H   0  0  0  0  0  0  0  0  0  0  0  0
   -4.9897    0.7001    0.6463 H   0  0  0  0  0  0  0  0  0  0  0  0
    0.4646   -1.1530    1.5175 H   0  0  0  0  0  0  0  0  0  0  0  0
    2.3650    3.3880    1.0585 H   0  0  0  0  0  0  0  0  0  0  0  0
    3.2469    2.9158    2.4854 H   0  0  0  0  0  0  0  0  0  0  0  0
    1.5210    2.6565    2.4351 H   0  0  0  0  0  0  0  0  0  0  0  0
   -7.7112    0.0356   -0.3257 H   0  0  0  0  0  0  0  0  0  0  0  0
   -8.8252   -1.8732    0.8127 H   0  0  0  0  0  0  0  0  0  0  0  0
   -7.2457   -2.7735    0.9095 H   0  0  0  0  0  0  0  0  0  0  0  0
   -6.2715   -0.9209    2.2749 H   0  0  0  0  0  0  0  0  0  0  0  0
   -7.8417   -0.0072    2.1716 H   0  0  0  0  0  0  0  0  0  0  0  0
    6.3097    0.8132   -0.5171 H   0  0  0  0  0  0  0  0  0  0  0  0
    6.7751   -0.2959    0.7752 H   0  0  0  0  0  0  0  0  0  0  0  0
    4.9496   -1.4588    2.0918 H   0  0  0  0  0  0  0  0  0  0  0  0
    3.2629   -1.1815    1.6824 H   0  0  0  0  0  0  0  0  0  0  0  0
    7.0911   -1.3661   -1.4410 H   0  0  0  0  0  0  0  0  0  0  0  0
    5.4139   -1.0264   -1.8742 H   0  0  0  0  0  0  0  0  0  0  0  0
    3.4980   -2.2504   -0.4912 H   0  0  0  0  0  0  0  0  0  0  0  0
    3.9868   -3.3470    0.8024 H   0  0  0  0  0  0  0  0  0  0  0  0
    6.3671   -2.8655    0.3793 H   0  0  0  0  0  0  0  0  0  0  0  0
    4.8862   -3.4970   -2.2285 H   0  0  0  0  0  0  0  0  0  0  0  0
    5.3136   -4.6625   -0.9639 H   0  0  0  0  0  0  0  0  0  0  0  0
    6.5885   -3.8499   -1.8846 H   0  0  0  0  0  0  0  0  0  0  0  0
  1  9  1  0  0  0  0
  1 52  1  0  0  0  0
  2 20  2  0  0  0  0
  3 22  2  0  0  0  0
  4 13  1  0  0  0  0
  4 22  1  0  0  0  0
  4 51  1  0  0  0  0
  5 20  1  0  0  0  0
  5 25  1  0  0  0  0
  5 26  1  0  0  0  0
  6  7  1  0  0  0  0
  6 10  1  0  0  0  0
  6 12  1  0  0  0  0
  6 16  1  0  0  0  0
  7  8  1  0  0  0  0
  7  9  1  0  0  0  0
  7 31  1  0  0  0  0
  8 13  1  0  0  0  0
  8 18  1  0  0  0  0
  8 32  1  0  0  0  0
  9 11  1  0  0  0  0
  9 33  1  0  0  0  0
 10 14  1  0  0  0  0
 10 34  1  0  0  0  0
 10 35  1  0  0  0  0
 11 14  1  0  0  0  0
 11 17  1  0  0  0  0
 11 36  1  0  0  0  0
 12 15  1  0  0  0  0
 12 37  1  0  0  0  0
 12 38  1  0  0  0  0
 13 15  1  0  0  0  0
 13 39  1  0  0  0  0
 14 40  1  0  0  0  0
 14 41  1  0  0  0  0
 15 42  1  0  0  0  0
 15 43  1  0  0  0  0
 16 44  1  0  0  0  0
 16 45  1  0  0  0  0
 16 46  1  0  0  0  0
 17 19  1  0  0  0  0
 17 20  1  0  0  0  0
 17 47  1  0  0  0  0
 18 48  1  0  0  0  0
 18 49  1  0  0  0  0
 18 50  1  0  0  0  0
 19 53  1  0  0  0  0
 19 54  1  0  0  0  0
 19 55  1  0  0  0  0
 21 22  1  0  0  0  0
 21 23  1  0  0  0  0
 21 24  1  0  0  0  0
 21 56  1  0  0  0  0
 23 24  1  0  0  0  0
 23 57  1  0  0  0  0
 23 58  1  0  0  0  0
 24 59  1  0  0  0  0
 24 60  1  0  0  0  0
 25 27  1  0  0  0  0
 25 61  1  0  0  0  0
 25 62  1  0  0  0  0
 26 28  1  0  0  0  0
 26 63  1  0  0  0  0
 26 64  1  0  0  0  0
 27 29  1  0  0  0  0
 27 65  1  0  0  0  0
 27 66  1  0  0  0  0
 28 29  1  0  0  0  0
 28 67  1  0  0  0  0
 28 68  1  0  0  0  0
 29 30  1  0  0  0  0
 29 69  1  0  0  0  0
 30 70  1  0  0  0  0
 30 71  1  0  0  0  0
 30 72  1  0  0  0  0
M  END
> <PUBCHEM_COMPOUND_CID>
45361481

> <PUBCHEM_CONFORMER_RMSD>
1

> <PUBCHEM_CONFORMER_DIVERSEORDER>
1
8
30
60
26
55
37
17
58
52
51
67
53
43
38
21
47
48
22
36
66
44
63
18
45
50
33
56
10
61
59
41
14
12
62
54
27
31
46
39
20
57
65
19
64
4
32
68
34
13
35
24
28
6
40
15
9
49
5
29
42
25
3
23
16
7
11
2

> <PUBCHEM_MMFF94_PARTIAL_CHARGES>
22
1 -0.68
13 0.3
17 0.06
2 -0.57
20 0.57
21 -0.1
22 0.63
23 -0.2
24 -0.2
25 0.3
26 0.3
3 -0.57
4 -0.73
5 -0.66
51 0.37
52 0.4
56 0.1
57 0.1
58 0.1
59 0.1
60 0.1
9 0.28

> <PUBCHEM_EFFECTIVE_ROTOR_COUNT>
9.4

> <PUBCHEM_PHARMACOPHORE_FEATURES>
9
1 1 acceptor
1 1 donor
1 19 hydrophobe
1 2 acceptor
1 3 acceptor
1 4 donor
6 5 25 26 27 28 29 rings
6 6 7 8 12 13 15 rings
6 6 7 9 10 11 14 rings

> <PUBCHEM_HEAVY_ATOM_COUNT>
30

> <PUBCHEM_ATOM_DEF_STEREO_COUNT>
6

> <PUBCHEM_ATOM_UDEF_STEREO_COUNT>
1

> <PUBCHEM_BOND_DEF_STEREO_COUNT>
0

> <PUBCHEM_BOND_UDEF_STEREO_COUNT>
0

> <PUBCHEM_ISOTOPIC_ATOM_COUNT>
0

> <PUBCHEM_COMPONENT_COUNT>
1

> <PUBCHEM_CACTVS_TAUTO_COUNT>
2

> <PUBCHEM_CONFORMER_ID>
02B4294900000001

> <PUBCHEM_MMFF94_ENERGY>
81.5418

> <PUBCHEM_FEATURE_SELFOVERLAP>
45.685

> <PUBCHEM_SHAPE_FINGERPRINT>
10 15 15051732018721955307
10006869 2 12966864376987133373
10673678 19 11819282152458175418
117089 54 17771074791809289326
11961588 58 13045950104957715268
12166972 35 18335140929599244041
12422481 6 14620792708391528333
12623949 98 18412547591792145238
131258 43 18188793685948377652
13533116 47 18272368698045194496
13617811 41 16515404070823501359
13673619 4 18410011013997701332
13685833 64 18408604759836796875
13782708 43 18409721859714488963
14123256 34 17676490570975423739
14251764 30 18342173349839745862
14556957 393 14201394946217822463
14767858 380 15140679176677811957
14955137 171 18188211004883360625
15238133 3 15267060401770622465
15350500 55 9871450025328530062
15352257 5 18408324410595698603
15475509 35 18131346402362138762
15510800 12 18335700495398011114
15669420 48 18114470024462787566
16728300 4 17488183686290176870
16994733 274 8358260311539103887
17349148 13 16415185776944287012
2026 5 18043243553731688450
20505436 4 16771818008643133536
20554085 129 12823298975037973743
20715895 44 8214138569348104510
21150785 3 13334735752373310899
21267235 1 17240483641759935825
21344244 181 18333455343476418586
21641784 216 15791721967325177317
21781051 124 16154006728589239243
22033318 11 17488767621970733201
2303208 19 18261104171607117685
23559900 14 17531529909233129069
23569943 247 18337951182620287019
25269216 80 17023193690795899487
2838139 119 7997696419375142511
33382 64 18343017783539225182
34797466 226 17749111127619982484
3886686 26 15978945536008885030
4093350 32 18189055459520016036
4340502 62 17417819478082936391
437815 12 18041285434948155593
46194498 28 18187080664006721204
465052 167 18060417998128250190
513202 73 18342455894543271269
58260988 647 18341057324189824234
59755656 215 17821727238946691115
86090 222 18260266343662954554
9831232 110 18334012770048753135

> <PUBCHEM_SHAPE_MULTIPOLES>
589.82
18.53
2.96
1.95
16.97
1.01
-0.17
16.76
1.59
-4.37
-0.65
0.65
-0.34
2.61

> <PUBCHEM_SHAPE_SELFOVERLAP>
1217.078

> <PUBCHEM_SHAPE_VOLUME>
335.3

> <PUBCHEM_COORDINATE_TYPE>
2
5
10

$$$$
