45361547
  -OEChem-12032416203D

 69 72  0     1  0  0  0  0  0999 V2000
    0.4169   -2.3077   -1.4334 O   0  0  0  0  0  0  0  0  0  0  0  0
    5.3051   -2.2439    0.7284 O   0  0  0  0  0  0  0  0  0  0  0  0
   -4.9164    2.0057   -1.1411 O   0  0  0  0  0  0  0  0  0  0  0  0
   -4.1668    0.1659    0.0542 N   0  0  0  0  0  0  0  0  0  0  0  0
    4.7818   -1.1663   -1.2577 N   0  0  0  0  0  0  0  0  0  0  0  0
   -6.7247   -0.5915    0.4083 N   0  0  0  0  0  0  0  0  0  0  0  0
   -8.8790    0.8682   -0.6381 N   0  0  0  0  0  0  0  0  0  0  0  0
    7.0008    0.7762    0.2867 N   0  0  0  0  0  0  0  0  0  0  0  0
   -0.0226    0.4293    1.1916 C   0  0  1  0  0  0  0  0  0  0  0  0
   -0.3619   -0.4529   -0.0556 C   0  0  2  0  0  0  0  0  0  0  0  0
   -1.8889   -0.8207   -0.0815 C   0  0  1  0  0  0  0  0  0  0  0  0
    0.6175   -1.6557   -0.1785 C   0  0  2  0  0  0  0  0  0  0  0  0
    1.4598    0.8667    1.1264 C   0  0  0  0  0  0  0  0  0  0  0  0
   -0.8922    1.7073    1.1568 C   0  0  0  0  0  0  0  0  0  0  0  0
    2.1011   -1.2210   -0.1383 C   0  0  1  0  0  0  0  0  0  0  0  0
   -2.7544    0.4701   -0.0404 C   0  0  2  0  0  0  0  0  0  0  0  0
    2.4236   -0.3097    1.0458 C   0  0  0  0  0  0  0  0  0  0  0  0
   -2.3846    1.4134    1.1041 C   0  0  0  0  0  0  0  0  0  0  0  0
   -0.2635   -0.3153    2.5293 C   0  0  0  0  0  0  0  0  0  0  0  0
    3.0475   -2.4278   -0.1288 C   0  0  2  0  0  0  0  0  0  0  0  0
   -2.2983   -1.6655   -1.2998 C   0  0  0  0  0  0  0  0  0  0  0  0
    2.7682   -3.3042    1.0871 C   0  0  0  0  0  0  0  0  0  0  0  0
    4.4968   -1.9520   -0.1505 C   0  0  0  0  0  0  0  0  0  0  0  0
   -5.1375    0.9734   -0.5133 C   0  0  0  0  0  0  0  0  0  0  0  0
   -6.5424    0.5377   -0.3047 C   0  0  0  0  0  0  0  0  0  0  0  0
    6.0880   -0.5976   -1.4969 C   0  0  0  0  0  0  0  0  0  0  0  0
   -7.6005    1.2546   -0.8186 C   0  0  0  0  0  0  0  0  0  0  0  0
    6.2477    0.7408   -0.8354 C   0  0  0  0  0  0  0  0  0  0  0  0
   -8.0032   -0.9780    0.5888 C   0  0  0  0  0  0  0  0  0  0  0  0
    5.6320    1.8504   -1.3919 C   0  0  0  0  0  0  0  0  0  0  0  0
   -9.0613   -0.2611    0.0749 C   0  0  0  0  0  0  0  0  0  0  0  0
    5.8006    3.0753   -0.7558 C   0  0  0  0  0  0  0  0  0  0  0  0
    7.1421    1.9841    0.8771 C   0  0  0  0  0  0  0  0  0  0  0  0
    6.5686    3.1519    0.4008 C   0  0  0  0  0  0  0  0  0  0  0  0
   -0.1956    0.1663   -0.9518 H   0  0  0  0  0  0  0  0  0  0  0  0
   -2.1226   -1.4271    0.8028 H   0  0  0  0  0  0  0  0  0  0  0  0
    0.3649   -2.3724    0.6047 H   0  0  0  0  0  0  0  0  0  0  0  0
    1.6181    1.5076    0.2484 H   0  0  0  0  0  0  0  0  0  0  0  0
    1.7142    1.4794    2.0010 H   0  0  0  0  0  0  0  0  0  0  0  0
   -0.6818    2.3343    2.0326 H   0  0  0  0  0  0  0  0  0  0  0  0
   -0.6269    2.3100    0.2777 H   0  0  0  0  0  0  0  0  0  0  0  0
    2.2767   -0.6380   -1.0523 H   0  0  0  0  0  0  0  0  0  0  0  0
   -2.5937    1.0122   -0.9826 H   0  0  0  0  0  0  0  0  0  0  0  0
    2.4000   -0.8361    2.0022 H   0  0  0  0  0  0  0  0  0  0  0  0
    3.4346    0.1041    0.9554 H   0  0  0  0  0  0  0  0  0  0  0  0
   -2.9273    2.3613    0.9944 H   0  0  0  0  0  0  0  0  0  0  0  0
   -2.7206    0.9965    2.0614 H   0  0  0  0  0  0  0  0  0  0  0  0
   -1.3112   -0.5870    2.6811 H   0  0  0  0  0  0  0  0  0  0  0  0
    0.0285    0.3141    3.3782 H   0  0  0  0  0  0  0  0  0  0  0  0
    0.3101   -1.2435    2.6013 H   0  0  0  0  0  0  0  0  0  0  0  0
    2.8984   -3.0314   -1.0333 H   0  0  0  0  0  0  0  0  0  0  0  0
   -1.9023   -2.6822   -1.2263 H   0  0  0  0  0  0  0  0  0  0  0  0
   -1.9513   -1.2110   -2.2334 H   0  0  0  0  0  0  0  0  0  0  0  0
   -3.3847   -1.7806   -1.3714 H   0  0  0  0  0  0  0  0  0  0  0  0
   -4.4513   -0.6387    0.6060 H   0  0  0  0  0  0  0  0  0  0  0  0
    0.5843   -1.6614   -2.1403 H   0  0  0  0  0  0  0  0  0  0  0  0
    2.9173   -2.8024    2.0459 H   0  0  0  0  0  0  0  0  0  0  0  0
    3.4704   -4.1484    1.0886 H   0  0  0  0  0  0  0  0  0  0  0  0
    1.7744   -3.7569    1.0718 H   0  0  0  0  0  0  0  0  0  0  0  0
    4.0727   -1.0150   -1.9678 H   0  0  0  0  0  0  0  0  0  0  0  0
    6.8527   -1.2923   -1.1307 H   0  0  0  0  0  0  0  0  0  0  0  0
    6.2217   -0.5047   -2.5803 H   0  0  0  0  0  0  0  0  0  0  0  0
   -7.4725    2.1636   -1.3943 H   0  0  0  0  0  0  0  0  0  0  0  0
   -8.1504   -1.8852    1.1615 H   0  0  0  0  0  0  0  0  0  0  0  0
    5.0344    1.7796   -2.2944 H   0  0  0  0  0  0  0  0  0  0  0  0
  -10.0883   -0.5724    0.2204 H   0  0  0  0  0  0  0  0  0  0  0  0
    5.3339    3.9684   -1.1604 H   0  0  0  0  0  0  0  0  0  0  0  0
    7.7498    1.9902    1.7759 H   0  0  0  0  0  0  0  0  0  0  0  0
    6.7133    4.0960    0.9134 H   0  0  0  0  0  0  0  0  0  0  0  0
  1 12  1  0  0  0  0
  1 56  1  0  0  0  0
  2 23  2  0  0  0  0
  3 24  2  0  0  0  0
  4 16  1  0  0  0  0
  4 24  1  0  0  0  0
  4 55  1  0  0  0  0
  5 23  1  0  0  0  0
  5 26  1  0  0  0  0
  5 60  1  0  0  0  0
  6 25  2  0  0  0  0
  6 29  1  0  0  0  0
  7 27  2  0  0  0  0
  7 31  1  0  0  0  0
  8 28  1  0  0  0  0
  8 33  2  0  0  0  0
  9 10  1  0  0  0  0
  9 13  1  0  0  0  0
  9 14  1  0  0  0  0
  9 19  1  0  0  0  0
 10 11  1  0  0  0  0
 10 12  1  0  0  0  0
 10 35  1  0  0  0  0
 11 16  1  0  0  0  0
 11 21  1  0  0  0  0
 11 36  1  0  0  0  0
 12 15  1  0  0  0  0
 12 37  1  0  0  0  0
 13 17  1  0  0  0  0
 13 38  1  0  0  0  0
 13 39  1  0  0  0  0
 14 18  1  0  0  0  0
 14 40  1  0  0  0  0
 14 41  1  0  0  0  0
 15 17  1  0  0  0  0
 15 20  1  0  0  0  0
 15 42  1  0  0  0  0
 16 18  1  0  0  0  0
 16 43  1  0  0  0  0
 17 44  1  0  0  0  0
 17 45  1  0  0  0  0
 18 46  1  0  0  0  0
 18 47  1  0  0  0  0
 19 48  1  0  0  0  0
 19 49  1  0  0  0  0
 19 50  1  0  0  0  0
 20 22  1  0  0  0  0
 20 23  1  0  0  0  0
 20 51  1  0  0  0  0
 21 52  1  0  0  0  0
 21 53  1  0  0  0  0
 21 54  1  0  0  0  0
 22 57  1  0  0  0  0
 22 58  1  0  0  0  0
 22 59  1  0  0  0  0
 24 25  1  0  0  0  0
 25 27  1  0  0  0  0
 26 28  1  0  0  0  0
 26 61  1  0  0  0  0
 26 62  1  0  0  0  0
 27 63  1  0  0  0  0
 28 30  2  0  0  0  0
 29 31  2  0  0  0  0
 29 64  1  0  0  0  0
 30 32  1  0  0  0  0
 30 65  1  0  0  0  0
 31 66  1  0  0  0  0
 32 34  2  0  0  0  0
 32 67  1  0  0  0  0
 33 34  1  0  0  0  0
 33 68  1  0  0  0  0
 34 69  1  0  0  0  0
M  END
> <PUBCHEM_COMPOUND_CID>
45361547

> <PUBCHEM_CONFORMER_RMSD>
1.2

> <PUBCHEM_CONFORMER_DIVERSEORDER>
1
39
41
70
96
67
58
73
46
77
55
84
60
87
91
21
90
36
69
6
85
59
72
68
98
2
51
74
25
23
22
52
35
81
66
88
53
5
9
92
44
99
34
27
33
40
75
30
24
11
61
43
80
45
20
78
54
65
83
28
16
63
71
95
48
3
93
62
89
64
10
57
38
47
56
82
4
7
26
12
13
37
18
79
76
100
29
17
97
19
42
50
94
32
14
31
49
15
86
8

> <PUBCHEM_MMFF94_PARTIAL_CHARGES>
33
1 -0.68
12 0.28
16 0.3
2 -0.57
20 0.06
23 0.57
24 0.54
25 0.4
26 0.44
27 0.16
28 0.17
29 0.16
3 -0.57
30 -0.15
31 0.16
32 -0.15
33 0.16
34 -0.15
4 -0.73
5 -0.73
55 0.37
56 0.4
6 -0.62
60 0.37
63 0.15
64 0.15
65 0.15
66 0.15
67 0.15
68 0.15
69 0.15
7 -0.62
8 -0.62

> <PUBCHEM_EFFECTIVE_ROTOR_COUNT>
9.6

> <PUBCHEM_PHARMACOPHORE_FEATURES>
14
1 1 acceptor
1 1 donor
1 2 acceptor
1 22 hydrophobe
1 3 acceptor
1 4 donor
1 5 donor
1 6 acceptor
1 7 acceptor
1 8 acceptor
6 6 7 25 27 29 31 rings
6 8 28 30 32 33 34 rings
6 9 10 11 14 16 18 rings
6 9 10 12 13 15 17 rings

> <PUBCHEM_HEAVY_ATOM_COUNT>
34

> <PUBCHEM_ATOM_DEF_STEREO_COUNT>
6

> <PUBCHEM_ATOM_UDEF_STEREO_COUNT>
1

> <PUBCHEM_BOND_DEF_STEREO_COUNT>
0

> <PUBCHEM_BOND_UDEF_STEREO_COUNT>
0

> <PUBCHEM_ISOTOPIC_ATOM_COUNT>
0

> <PUBCHEM_COMPONENT_COUNT>
1

> <PUBCHEM_CACTVS_TAUTO_COUNT>
4

> <PUBCHEM_CONFORMER_ID>
02B4298B00000001

> <PUBCHEM_MMFF94_ENERGY>
97.3316

> <PUBCHEM_FEATURE_SELFOVERLAP>
71.068

> <PUBCHEM_SHAPE_FINGERPRINT>
10533779 47 10015587250913029653
10673678 19 18411985758482650526
10677351 14 18342730829160048541
10816530 90 18131344246188212872
10906281 52 17774453698056183203
11007060 377 18334585624913807329
11135609 187 18197217160508866064
11211813 74 18410290303026462757
13150687 139 18059586802203870582
13165053 68 18118127107237354119
13617811 41 16343706530338564080
13947947 19 17703500078580996959
14117953 113 18409738383382579348
14251757 52 18408039615218390765
14675020 138 15429753964911710506
150020 25 18336273391698662982
15183329 4 17203326706770955333
15361156 5 18341610443754174711
15840311 113 18409451379969919422
15890870 6 18336269042099916348
16120349 18 18335698347301751229
16992787 43 18130791187196697673
16994733 274 17676487207868922813
17324776 126 15262043111718207956
17686467 74 18113339726773443789
18608769 82 18339361972065500291
19319366 153 18412258407381429406
20157964 124 18408887330763351996
20554085 129 16515402971407001272
20715895 44 18410011079287406604
21049683 118 17895186758308937698
21049683 271 18272369789421244041
21150785 3 18408325475889363133
21267235 1 17774721957239182523
21521721 280 18411424998989086235
21781055 127 15267080155242770547
22149856 69 17346043246999622515
23522609 53 17630912450544193497
23569914 2 17099697727031993452
3044373 193 17313105246418101900
34797466 226 17988649575453365734
3552219 110 17846510218711159665
4073 2 18260550039670500467
4098825 35 18334856134633288675
4149490 64 18260546719312809570
44317340 157 18342458153869980126
4625314 4 18336267851518230175
5109719 28 18188501266909829144
5265222 85 18411981378091158247

> <PUBCHEM_SHAPE_MULTIPOLES>
657.19
25.05
3.06
1.47
33.44
0.21
0.31
-11.92
-5.5
-6.19
-0.08
-0.81
0.01
0.34

> <PUBCHEM_SHAPE_SELFOVERLAP>
1391.512

> <PUBCHEM_SHAPE_VOLUME>
361.9

> <PUBCHEM_COORDINATE_TYPE>
2
5
10

$$$$
