75536497
  -OEChem-12032416343D

 40 41  0     1  0  0  0  0  0999 V2000
    1.4246    1.3010    0.2778 O   0  0  0  0  0  0  0  0  0  0  0  0
    0.6608   -1.9561   -1.0312 O   0  0  0  0  0  0  0  0  0  0  0  0
   -5.6222   -0.3511    0.6490 O   0  0  0  0  0  0  0  0  0  0  0  0
    5.0338   -1.3653    0.5518 O   0  0  0  0  0  0  0  0  0  0  0  0
   -1.7607    0.0453   -0.9503 N   0  0  0  0  0  0  0  0  0  0  0  0
    4.1824    0.6587   -0.2259 N   0  0  0  0  0  0  0  0  0  0  0  0
   -0.5148    0.0162   -0.2017 C   0  0  1  0  0  0  0  0  0  0  0  0
    0.6560   -0.5423   -0.9892 C   0  0  1  0  0  0  0  0  0  0  0  0
    1.8328    0.0060   -0.1936 C   0  0  1  0  0  0  0  0  0  0  0  0
   -2.9015    0.2635   -0.0642 C   0  0  0  0  0  0  0  0  0  0  0  0
   -0.0046    1.4036    0.1522 C   0  0  0  0  0  0  0  0  0  0  0  0
   -4.0984    0.7951   -0.8580 C   0  0  0  0  0  0  0  0  0  0  0  0
   -3.2878   -1.0270    0.6651 C   0  0  0  0  0  0  0  0  0  0  0  0
    3.1039    0.1356   -1.0139 C   0  0  0  0  0  0  0  0  0  0  0  0
   -5.3242    0.9062    0.0419 C   0  0  0  0  0  0  0  0  0  0  0  0
   -4.5585   -0.8148    1.4806 C   0  0  0  0  0  0  0  0  0  0  0  0
    5.0633   -0.1387    0.4959 C   0  0  0  0  0  0  0  0  0  0  0  0
    6.1151    0.6641    1.2136 C   0  0  0  0  0  0  0  0  0  0  0  0
   -0.6104   -0.5862    0.7100 H   0  0  0  0  0  0  0  0  0  0  0  0
    0.6599   -0.1579   -2.0168 H   0  0  0  0  0  0  0  0  0  0  0  0
    2.0283   -0.6163    0.6897 H   0  0  0  0  0  0  0  0  0  0  0  0
   -2.6585    1.0303    0.6835 H   0  0  0  0  0  0  0  0  0  0  0  0
   -0.2072    2.1360   -0.6378 H   0  0  0  0  0  0  0  0  0  0  0  0
   -0.4217    1.7835    1.0897 H   0  0  0  0  0  0  0  0  0  0  0  0
   -1.8830   -0.8285   -1.4611 H   0  0  0  0  0  0  0  0  0  0  0  0
   -4.3264    0.1046   -1.6808 H   0  0  0  0  0  0  0  0  0  0  0  0
   -3.8688    1.7714   -1.3004 H   0  0  0  0  0  0  0  0  0  0  0  0
   -2.4945   -1.3771    1.3329 H   0  0  0  0  0  0  0  0  0  0  0  0
   -3.4734   -1.8212   -0.0702 H   0  0  0  0  0  0  0  0  0  0  0  0
    3.3969   -0.8353   -1.4275 H   0  0  0  0  0  0  0  0  0  0  0  0
    2.9588    0.8381   -1.8419 H   0  0  0  0  0  0  0  0  0  0  0  0
   -5.1801    1.6631    0.8218 H   0  0  0  0  0  0  0  0  0  0  0  0
   -6.1947    1.2044   -0.5510 H   0  0  0  0  0  0  0  0  0  0  0  0
   -4.8755   -1.7619    1.9287 H   0  0  0  0  0  0  0  0  0  0  0  0
   -4.3951   -0.1009    2.2965 H   0  0  0  0  0  0  0  0  0  0  0  0
    0.6548   -2.2894   -0.1179 H   0  0  0  0  0  0  0  0  0  0  0  0
    4.2992    1.6676   -0.1977 H   0  0  0  0  0  0  0  0  0  0  0  0
    5.6576    1.5083    1.7374 H   0  0  0  0  0  0  0  0  0  0  0  0
    6.6237    0.0322    1.9470 H   0  0  0  0  0  0  0  0  0  0  0  0
    6.8450    1.0365    0.4898 H   0  0  0  0  0  0  0  0  0  0  0  0
  1  9  1  0  0  0  0
  1 11  1  0  0  0  0
  2  8  1  0  0  0  0
  2 36  1  0  0  0  0
  3 15  1  0  0  0  0
  3 16  1  0  0  0  0
  4 17  2  0  0  0  0
  5  7  1  0  0  0  0
  5 10  1  0  0  0  0
  5 25  1  0  0  0  0
  6 14  1  0  0  0  0
  6 17  1  0  0  0  0
  6 37  1  0  0  0  0
  7  8  1  0  0  0  0
  7 11  1  0  0  0  0
  7 19  1  0  0  0  0
  8  9  1  0  0  0  0
  8 20  1  0  0  0  0
  9 14  1  0  0  0  0
  9 21  1  0  0  0  0
 10 12  1  0  0  0  0
 10 13  1  0  0  0  0
 10 22  1  0  0  0  0
 11 23  1  0  0  0  0
 11 24  1  0  0  0  0
 12 15  1  0  0  0  0
 12 26  1  0  0  0  0
 12 27  1  0  0  0  0
 13 16  1  0  0  0  0
 13 28  1  0  0  0  0
 13 29  1  0  0  0  0
 14 30  1  0  0  0  0
 14 31  1  0  0  0  0
 15 32  1  0  0  0  0
 15 33  1  0  0  0  0
 16 34  1  0  0  0  0
 16 35  1  0  0  0  0
 17 18  1  0  0  0  0
 18 38  1  0  0  0  0
 18 39  1  0  0  0  0
 18 40  1  0  0  0  0
M  END
> <PUBCHEM_COMPOUND_CID>
75536497

> <PUBCHEM_CONFORMER_RMSD>
0.8

> <PUBCHEM_CONFORMER_DIVERSEORDER>
1
63
26
74
46
72
77
13
91
82
47
94
56
48
19
29
64
69
61
86
90
73
25
89
50
70
20
28
44
95
57
85
76
51
54
15
55
71
68
38
14
83
27
52
93
45
39
92
40
35
41
79
88
2
66
43
53
10
78
23
84
42
37
3
31
12
32
81
9
30
16
6
67
8
18
87
33
58
65
21
75
59
22
36
60
34
62
49
11
24
5
17
7
80
4

> <PUBCHEM_MMFF94_PARTIAL_CHARGES>
19
1 -0.56
10 0.27
11 0.28
14 0.3
15 0.28
16 0.28
17 0.57
18 0.06
2 -0.68
25 0.36
3 -0.56
36 0.4
37 0.37
4 -0.57
5 -0.9
6 -0.73
7 0.27
8 0.28
9 0.28

> <PUBCHEM_EFFECTIVE_ROTOR_COUNT>
7.2

> <PUBCHEM_PHARMACOPHORE_FEATURES>
10
1 1 acceptor
1 2 acceptor
1 2 donor
1 3 acceptor
1 4 acceptor
1 5 cation
1 5 donor
1 6 donor
5 1 7 8 9 11 rings
6 3 10 12 13 15 16 rings

> <PUBCHEM_HEAVY_ATOM_COUNT>
18

> <PUBCHEM_ATOM_DEF_STEREO_COUNT>
3

> <PUBCHEM_ATOM_UDEF_STEREO_COUNT>
0

> <PUBCHEM_BOND_DEF_STEREO_COUNT>
0

> <PUBCHEM_BOND_UDEF_STEREO_COUNT>
0

> <PUBCHEM_ISOTOPIC_ATOM_COUNT>
0

> <PUBCHEM_COMPONENT_COUNT>
1

> <PUBCHEM_CACTVS_TAUTO_COUNT>
2

> <PUBCHEM_CONFORMER_ID>
0480987100000001

> <PUBCHEM_MMFF94_ENERGY>
27.0118

> <PUBCHEM_FEATURE_SELFOVERLAP>
50.747

> <PUBCHEM_SHAPE_FINGERPRINT>
11128504 68 13190345668904784006
11401426 45 17847057787568638957
117890 112 14764630811195007656
11796584 16 17458344138939614387
12236239 1 15213022661198425437
12507557 5 17917996105193357497
12596602 18 17703790340248859898
12670543 26 7925644305714957858
13167823 11 17167863079734064834
13288520 33 16298385764658016279
13533116 47 17417813895079593398
13675066 3 18408036317126450366
14123238 8 13830131689181254532
14350574 20 8142076564368187901
14528608 73 12607400005647413768
15048467 5 14979956973639854152
15348495 7 18335137652332891064
15788980 27 18260547826880809430
17834072 33 16081091484831188364
17834072 8 9511461139301296314
17834076 25 14979958077631143324
17844677 252 16950285096032709292
1813 80 14707209881660765750
18785283 64 18266462203275584428
200 152 12757149104378773957
20279233 1 18409460180642816431
20281389 69 15052016749589915962
21267235 1 11963398431946510021
21637258 2 16443336615714598642
22224240 67 18202562904021749275
23035841 295 14923944552949806273
23402539 116 16660359281740991061
23402655 69 8214153923776877819
23536379 177 17095241414978024564
23557571 272 17531527585892828981
23559900 14 13046240410840646932
23590187 198 16081089285844869011
26918003 58 18260548922129157313
2767999 5 16702299053197045184
2916195 48 16917063382348227954
300161 21 15339120113348519357
351380 3 14706924051185842025
4072396 5 18343297033638603998
4340502 62 17967530169092263754
441001 317 13398633848888239771
465052 167 18187088347513283142
5104073 3 18198348544655818819
5374978 207 18201997716791001192
542803 24 12319741349529703005
7495541 125 17895201050984255749
9971528 1 16271939202854017804

> <PUBCHEM_SHAPE_MULTIPOLES>
336.99
14.01
1.3
1.15
4.76
0.21
-0.02
0.4
-5.43
-0.19
-0.01
0.16
0.19
0.82

> <PUBCHEM_SHAPE_SELFOVERLAP>
676.486

> <PUBCHEM_SHAPE_VOLUME>
198.5

> <PUBCHEM_COORDINATE_TYPE>
2
5
10

$$$$
