75366994
  -OEChem-12032416393D

 45 47  0     1  0  0  0  0  0999 V2000
    3.0636    0.3655    0.7336 O   0  0  0  0  0  0  0  0  0  0  0  0
    5.8049    1.1956    1.4297 O   0  0  0  0  0  0  0  0  0  0  0  0
   -0.7750   -2.1443   -1.0007 O   0  0  0  0  0  0  0  0  0  0  0  0
   -2.8955   -0.1216   -0.3258 O   0  0  0  0  0  0  0  0  0  0  0  0
    1.5224    2.4265   -0.4892 N   0  0  0  0  0  0  0  0  0  0  0  0
    0.5959   -2.3527   -1.0930 N   0  0  0  0  0  0  0  0  0  0  0  0
    3.2897   -0.6799   -0.2151 C   0  0  1  0  0  0  0  0  0  0  0  0
    5.1745    1.4816    0.1782 C   0  0  2  0  0  0  0  0  0  0  0  0
    3.6643    1.6255    0.4071 C   0  0  1  0  0  0  0  0  0  0  0  0
    4.7859   -0.9380   -0.3863 C   0  0  0  0  0  0  0  0  0  0  0  0
    5.5110    0.3448   -0.7830 C   0  0  0  0  0  0  0  0  0  0  0  0
    2.5795   -1.9264    0.2987 C   0  0  0  0  0  0  0  0  0  0  0  0
    2.9446    2.2915   -0.7637 C   0  0  0  0  0  0  0  0  0  0  0  0
    1.0967   -1.8672    0.0465 C   0  0  0  0  0  0  0  0  0  0  0  0
    0.0995   -1.3449    0.8881 C   0  0  0  0  0  0  0  0  0  0  0  0
   -1.0582   -1.5435    0.1833 C   0  0  0  0  0  0  0  0  0  0  0  0
   -2.4716   -1.2483    0.4467 C   0  0  0  0  0  0  0  0  0  0  0  0
   -4.1788    0.3044   -0.1279 C   0  0  0  0  0  0  0  0  0  0  0  0
   -4.9986   -0.3536    0.7890 C   0  0  0  0  0  0  0  0  0  0  0  0
   -4.6689    1.3973   -0.8427 C   0  0  0  0  0  0  0  0  0  0  0  0
   -6.3086    0.0813    0.9911 C   0  0  0  0  0  0  0  0  0  0  0  0
   -5.9786    1.8322   -0.6407 C   0  0  0  0  0  0  0  0  0  0  0  0
   -6.7986    1.1742    0.2761 C   0  0  0  0  0  0  0  0  0  0  0  0
    2.8614   -0.3937   -1.1831 H   0  0  0  0  0  0  0  0  0  0  0  0
    5.5970    2.4256   -0.1834 H   0  0  0  0  0  0  0  0  0  0  0  0
    3.5174    2.2504    1.2979 H   0  0  0  0  0  0  0  0  0  0  0  0
    4.9600   -1.7113   -1.1431 H   0  0  0  0  0  0  0  0  0  0  0  0
    5.2087   -1.3045    0.5578 H   0  0  0  0  0  0  0  0  0  0  0  0
    6.5906    0.1547   -0.7922 H   0  0  0  0  0  0  0  0  0  0  0  0
    5.2213    0.6237   -1.8028 H   0  0  0  0  0  0  0  0  0  0  0  0
    2.7498   -2.0515    1.3756 H   0  0  0  0  0  0  0  0  0  0  0  0
    2.9744   -2.8227   -0.1969 H   0  0  0  0  0  0  0  0  0  0  0  0
    3.0667    1.7244   -1.6913 H   0  0  0  0  0  0  0  0  0  0  0  0
    3.3674    3.2870   -0.9385 H   0  0  0  0  0  0  0  0  0  0  0  0
    6.7638    1.1551    1.2732 H   0  0  0  0  0  0  0  0  0  0  0  0
    1.1111    1.5052   -0.3451 H   0  0  0  0  0  0  0  0  0  0  0  0
    1.0552    2.8247   -1.3027 H   0  0  0  0  0  0  0  0  0  0  0  0
    0.2053   -0.8904    1.8620 H   0  0  0  0  0  0  0  0  0  0  0  0
   -3.0657   -2.1330    0.1842 H   0  0  0  0  0  0  0  0  0  0  0  0
   -2.5691   -1.0328    1.5186 H   0  0  0  0  0  0  0  0  0  0  0  0
   -4.6914   -1.2123    1.3756 H   0  0  0  0  0  0  0  0  0  0  0  0
   -4.0348    1.9138   -1.5581 H   0  0  0  0  0  0  0  0  0  0  0  0
   -6.9485   -0.4311    1.7037 H   0  0  0  0  0  0  0  0  0  0  0  0
   -6.3603    2.6832   -1.1974 H   0  0  0  0  0  0  0  0  0  0  0  0
   -7.8186    1.5126    0.4330 H   0  0  0  0  0  0  0  0  0  0  0  0
  1  7  1  0  0  0  0
  1  9  1  0  0  0  0
  2  8  1  0  0  0  0
  2 35  1  0  0  0  0
  3  6  1  0  0  0  0
  3 16  1  0  0  0  0
  4 17  1  0  0  0  0
  4 18  1  0  0  0  0
  5 13  1  0  0  0  0
  5 36  1  0  0  0  0
  5 37  1  0  0  0  0
  6 14  2  0  0  0  0
  7 10  1  0  0  0  0
  7 12  1  0  0  0  0
  7 24  1  0  0  0  0
  8  9  1  0  0  0  0
  8 11  1  0  0  0  0
  8 25  1  0  0  0  0
  9 13  1  0  0  0  0
  9 26  1  0  0  0  0
 10 11  1  0  0  0  0
 10 27  1  0  0  0  0
 10 28  1  0  0  0  0
 11 29  1  0  0  0  0
 11 30  1  0  0  0  0
 12 14  1  0  0  0  0
 12 31  1  0  0  0  0
 12 32  1  0  0  0  0
 13 33  1  0  0  0  0
 13 34  1  0  0  0  0
 14 15  1  0  0  0  0
 15 16  2  0  0  0  0
 15 38  1  0  0  0  0
 16 17  1  0  0  0  0
 17 39  1  0  0  0  0
 17 40  1  0  0  0  0
 18 19  2  0  0  0  0
 18 20  1  0  0  0  0
 19 21  1  0  0  0  0
 19 41  1  0  0  0  0
 20 22  2  0  0  0  0
 20 42  1  0  0  0  0
 21 23  2  0  0  0  0
 21 43  1  0  0  0  0
 22 23  1  0  0  0  0
 22 44  1  0  0  0  0
 23 45  1  0  0  0  0
M  END
> <PUBCHEM_COMPOUND_CID>
75366994

> <PUBCHEM_CONFORMER_RMSD>
1.2

> <PUBCHEM_CONFORMER_DIVERSEORDER>
1
56
9
65
24
57
39
11
62
42
22
69
35
68
31
58
25
14
36
30
28
75
5
2
27
45
60
13
61
23
51
12
55
33
21
71
26
43
37
19
66
70
20
18
7
49
44
59
76
74
50
54
64
8
52
73
29
72
15
48
10
17
41
53
16
32
38
46
63
4
67
40
6
77
34
3
47

> <PUBCHEM_MMFF94_PARTIAL_CHARGES>
30
1 -0.56
12 0.18
13 0.27
14 0.11
15 -0.15
16 -0.04
17 0.46
18 0.08
19 -0.15
2 -0.68
20 -0.15
21 -0.15
22 -0.15
23 -0.15
3 -0.02
35 0.4
36 0.36
37 0.36
38 0.15
4 -0.36
41 0.15
42 0.15
43 0.15
44 0.15
45 0.15
5 -0.99
6 -0.41
7 0.28
8 0.28
9 0.28

> <PUBCHEM_EFFECTIVE_ROTOR_COUNT>
7.2

> <PUBCHEM_PHARMACOPHORE_FEATURES>
10
1 1 acceptor
1 2 acceptor
1 2 donor
1 4 acceptor
1 5 cation
1 5 donor
1 6 acceptor
5 3 6 14 15 16 rings
6 1 7 8 9 10 11 rings
6 18 19 20 21 22 23 rings

> <PUBCHEM_HEAVY_ATOM_COUNT>
23

> <PUBCHEM_ATOM_DEF_STEREO_COUNT>
3

> <PUBCHEM_ATOM_UDEF_STEREO_COUNT>
0

> <PUBCHEM_BOND_DEF_STEREO_COUNT>
0

> <PUBCHEM_BOND_UDEF_STEREO_COUNT>
0

> <PUBCHEM_ISOTOPIC_ATOM_COUNT>
0

> <PUBCHEM_COMPONENT_COUNT>
1

> <PUBCHEM_CACTVS_TAUTO_COUNT>
1

> <PUBCHEM_CONFORMER_ID>
047E025200000001

> <PUBCHEM_MMFF94_ENERGY>
47.7455

> <PUBCHEM_FEATURE_SELFOVERLAP>
50.748

> <PUBCHEM_SHAPE_FINGERPRINT>
10 15 17967536800215677113
10411042 1 17763466111009924998
10447042 23 9655578487450335312
10763959 59 18335146371068846988
11595378 159 16081641189232180005
11646440 116 18343028808451775433
11796584 16 11239995629670407871
12403259 118 18262797513681660234
12596602 18 13551472557538781837
12633257 1 16226046742566400998
12730499 353 18409738330561102642
12838862 33 18339344336777042496
13402501 40 18334012778944649109
14251751 18 10952044559510574489
14464042 87 17988932136825044529
15081414 286 18411706469628657340
15183329 4 11815904431732478211
15238133 3 17968097560337001532
15961568 22 18260831471433735589
16760501 71 18335706052879164391
17810953 82 18410295826127259772
18335252 114 18343015549797483533
19784866 240 9295288365556387923
20715895 44 18342737425253985768
21033648 29 18270955868896066898
21033650 10 14692302707717874363
21298829 104 18343303677900718344
21475661 188 18260831526898531590
21774942 28 17060063597262579232
22289505 5 18413110533361203902
22849339 104 15266762417625085021
23227448 37 18410574028681782391
23559900 14 18267585693837896235
2838139 119 18411691093291913580
2916195 48 18260830372011427419
34797466 226 18059861623933477871
3680242 22 18187359896625316528
4325135 7 18341612646982791631
5104073 3 17895760582939898819
513532 50 18060431196436105422
57724786 102 17749954504868127892
59682541 35 18260561026575982907
59682541 52 17203061707515717636
59755656 215 18409732828712901020

> <PUBCHEM_SHAPE_MULTIPOLES>
439.89
17.12
2.67
1.02
14.79
0.18
-0.05
9.92
-1.92
-1.4
0.49
-0.15
-0.01
0.96

> <PUBCHEM_SHAPE_SELFOVERLAP>
925.906

> <PUBCHEM_SHAPE_VOLUME>
247.9

> <PUBCHEM_COORDINATE_TYPE>
2
5
10

$$$$
