25390790
  -OEChem-12032416173D

 56 59  0     1  0  0  0  0  0999 V2000
    2.6807   -0.8542    1.4400 O   0  0  0  0  0  0  0  0  0  0  0  0
    0.7710    1.4838    0.8920 O   0  0  0  0  0  0  0  0  0  0  0  0
    4.3079    1.1535    0.4290 O   0  0  0  0  0  0  0  0  0  0  0  0
    6.8559    1.1589    0.9499 O   0  0  0  0  0  0  0  0  0  0  0  0
   -7.0357    2.7518   -0.0854 O   0  0  0  0  0  0  0  0  0  0  0  0
   -0.0848   -2.0745    0.7124 N   0  0  0  0  0  0  0  0  0  0  0  0
   -2.2002   -1.2565    0.2093 N   0  0  0  0  0  0  0  0  0  0  0  0
   -1.5352   -3.4823   -0.4318 N   0  0  0  0  0  0  0  0  0  0  0  0
    7.5644    0.3513   -1.1088 N   0  0  0  0  0  0  0  0  0  0  0  0
    0.8265    0.1466    0.3520 C   0  0  1  0  0  0  0  0  0  0  0  0
    2.2931   -0.2108    0.2150 C   0  0  1  0  0  0  0  0  0  0  0  0
    0.3025   -0.8428    1.3662 C   0  0  2  0  0  0  0  0  0  0  0  0
    2.9467    1.1417    0.0628 C   0  0  1  0  0  0  0  0  0  0  0  0
    1.5158   -1.0743    2.2501 C   0  0  0  0  0  0  0  0  0  0  0  0
    2.1049    2.0067    0.9736 C   0  0  0  0  0  0  0  0  0  0  0  0
    5.1522    0.7412   -0.6430 C   0  0  0  0  0  0  0  0  0  0  0  0
   -1.3282   -2.2803    0.1392 C   0  0  0  0  0  0  0  0  0  0  0  0
    6.5983    0.7728   -0.1944 C   0  0  0  0  0  0  0  0  0  0  0  0
   -3.3998   -1.4903   -0.3622 C   0  0  0  0  0  0  0  0  0  0  0  0
   -2.7552   -3.6479   -0.9838 C   0  0  0  0  0  0  0  0  0  0  0  0
   -3.7366   -2.6779   -0.9791 C   0  0  0  0  0  0  0  0  0  0  0  0
   -4.3373   -0.3954   -0.2892 C   0  0  0  0  0  0  0  0  0  0  0  0
    8.9693    0.3554   -0.7194 C   0  0  0  0  0  0  0  0  0  0  0  0
    7.2974   -0.1271   -2.4631 C   0  0  0  0  0  0  0  0  0  0  0  0
   -5.5609   -0.5664    0.3584 C   0  0  0  0  0  0  0  0  0  0  0  0
   -4.0202    0.8336   -0.8679 C   0  0  0  0  0  0  0  0  0  0  0  0
   -6.4675    0.4913    0.4271 C   0  0  0  0  0  0  0  0  0  0  0  0
   -4.9268    1.8913   -0.7991 C   0  0  0  0  0  0  0  0  0  0  0  0
   -6.1505    1.7202   -0.1517 C   0  0  0  0  0  0  0  0  0  0  0  0
   -6.6477    3.9807   -0.6982 C   0  0  0  0  0  0  0  0  0  0  0  0
    0.2960    0.1570   -0.6053 H   0  0  0  0  0  0  0  0  0  0  0  0
    2.5062   -0.9015   -0.6059 H   0  0  0  0  0  0  0  0  0  0  0  0
   -0.5174   -0.4532    1.9805 H   0  0  0  0  0  0  0  0  0  0  0  0
    2.8100    1.5049   -0.9656 H   0  0  0  0  0  0  0  0  0  0  0  0
    1.5492   -0.3442    3.0663 H   0  0  0  0  0  0  0  0  0  0  0  0
    1.5630   -2.0769    2.6864 H   0  0  0  0  0  0  0  0  0  0  0  0
    2.4394    1.9625    2.0162 H   0  0  0  0  0  0  0  0  0  0  0  0
    2.1066    3.0574    0.6682 H   0  0  0  0  0  0  0  0  0  0  0  0
    0.5936   -2.8215    0.6154 H   0  0  0  0  0  0  0  0  0  0  0  0
    5.0333    1.4287   -1.4874 H   0  0  0  0  0  0  0  0  0  0  0  0
    4.8947   -0.2815   -0.9366 H   0  0  0  0  0  0  0  0  0  0  0  0
   -2.9273   -4.6138   -1.4464 H   0  0  0  0  0  0  0  0  0  0  0  0
   -4.7008   -2.8550   -1.4394 H   0  0  0  0  0  0  0  0  0  0  0  0
    9.3555   -0.6660   -0.7853 H   0  0  0  0  0  0  0  0  0  0  0  0
    9.1099    0.7214    0.3007 H   0  0  0  0  0  0  0  0  0  0  0  0
    9.5234    1.0014   -1.4065 H   0  0  0  0  0  0  0  0  0  0  0  0
    7.8673    0.4845   -3.1690 H   0  0  0  0  0  0  0  0  0  0  0  0
    6.2418   -0.0733   -2.7294 H   0  0  0  0  0  0  0  0  0  0  0  0
    7.6267   -1.1679   -2.5351 H   0  0  0  0  0  0  0  0  0  0  0  0
   -5.8256   -1.5146    0.8207 H   0  0  0  0  0  0  0  0  0  0  0  0
   -3.0722    0.9838   -1.3794 H   0  0  0  0  0  0  0  0  0  0  0  0
   -7.4187    0.3526    0.9336 H   0  0  0  0  0  0  0  0  0  0  0  0
   -4.6172    2.8179   -1.2702 H   0  0  0  0  0  0  0  0  0  0  0  0
   -7.4691    4.6893   -0.5498 H   0  0  0  0  0  0  0  0  0  0  0  0
   -6.5153    3.8669   -1.7796 H   0  0  0  0  0  0  0  0  0  0  0  0
   -5.7636    4.4100   -0.2146 H   0  0  0  0  0  0  0  0  0  0  0  0
  1 11  1  0  0  0  0
  1 14  1  0  0  0  0
  2 10  1  0  0  0  0
  2 15  1  0  0  0  0
  3 13  1  0  0  0  0
  3 16  1  0  0  0  0
  4 18  2  0  0  0  0
  5 29  1  0  0  0  0
  5 30  1  0  0  0  0
  6 12  1  0  0  0  0
  6 17  1  0  0  0  0
  6 39  1  0  0  0  0
  7 17  1  0  0  0  0
  7 19  2  0  0  0  0
  8 17  2  0  0  0  0
  8 20  1  0  0  0  0
  9 18  1  0  0  0  0
  9 23  1  0  0  0  0
  9 24  1  0  0  0  0
 10 11  1  0  0  0  0
 10 12  1  0  0  0  0
 10 31  1  0  0  0  0
 11 13  1  0  0  0  0
 11 32  1  0  0  0  0
 12 14  1  0  0  0  0
 12 33  1  0  0  0  0
 13 15  1  0  0  0  0
 13 34  1  0  0  0  0
 14 35  1  0  0  0  0
 14 36  1  0  0  0  0
 15 37  1  0  0  0  0
 15 38  1  0  0  0  0
 16 18  1  0  0  0  0
 16 40  1  0  0  0  0
 16 41  1  0  0  0  0
 19 21  1  0  0  0  0
 19 22  1  0  0  0  0
 20 21  2  0  0  0  0
 20 42  1  0  0  0  0
 21 43  1  0  0  0  0
 22 25  2  0  0  0  0
 22 26  1  0  0  0  0
 23 44  1  0  0  0  0
 23 45  1  0  0  0  0
 23 46  1  0  0  0  0
 24 47  1  0  0  0  0
 24 48  1  0  0  0  0
 24 49  1  0  0  0  0
 25 27  1  0  0  0  0
 25 50  1  0  0  0  0
 26 28  2  0  0  0  0
 26 51  1  0  0  0  0
 27 29  2  0  0  0  0
 27 52  1  0  0  0  0
 28 29  1  0  0  0  0
 28 53  1  0  0  0  0
 30 54  1  0  0  0  0
 30 55  1  0  0  0  0
 30 56  1  0  0  0  0
M  END
> <PUBCHEM_COMPOUND_CID>
25390790

> <PUBCHEM_CONFORMER_RMSD>
1

> <PUBCHEM_CONFORMER_DIVERSEORDER>
1
67
80
65
18
32
54
42
74
63
47
10
14
29
35
52
73
56
46
38
41
7
21
61
51
11
53
9
72
15
45
55
23
78
75
20
16
68
13
70
31
49
22
36
43
79
76
48
62
25
12
17
66
69
77
28
64
58
71
50
39
60
5
4
57
26
34
3
27
40
19
81
8
37
24
44
6
33
59
30
2

> <PUBCHEM_MMFF94_PARTIAL_CHARGES>
36
1 -0.56
10 0.28
11 0.28
12 0.37
13 0.28
14 0.28
15 0.28
16 0.34
17 0.72
18 0.57
19 0.31
2 -0.56
20 0.16
21 -0.15
23 0.3
24 0.3
25 -0.15
26 -0.15
27 -0.15
28 -0.15
29 0.08
3 -0.56
30 0.28
39 0.4
4 -0.57
42 0.15
43 0.15
5 -0.36
50 0.15
51 0.15
52 0.15
53 0.15
6 -0.87
7 -0.62
8 -0.62
9 -0.66

> <PUBCHEM_EFFECTIVE_ROTOR_COUNT>
9.2

> <PUBCHEM_PHARMACOPHORE_FEATURES>
12
1 1 acceptor
1 2 acceptor
1 3 acceptor
1 4 acceptor
1 5 acceptor
1 6 donor
1 7 acceptor
4 6 7 8 17 cation
5 1 10 11 12 14 rings
5 2 10 11 13 15 rings
6 22 25 26 27 28 29 rings
6 7 8 17 19 20 21 rings

> <PUBCHEM_HEAVY_ATOM_COUNT>
30

> <PUBCHEM_ATOM_DEF_STEREO_COUNT>
4

> <PUBCHEM_ATOM_UDEF_STEREO_COUNT>
0

> <PUBCHEM_BOND_DEF_STEREO_COUNT>
0

> <PUBCHEM_BOND_UDEF_STEREO_COUNT>
0

> <PUBCHEM_ISOTOPIC_ATOM_COUNT>
0

> <PUBCHEM_COMPONENT_COUNT>
1

> <PUBCHEM_CACTVS_TAUTO_COUNT>
3

> <PUBCHEM_CONFORMER_ID>
01836EC600000001

> <PUBCHEM_MMFF94_ENERGY>
105.747

> <PUBCHEM_FEATURE_SELFOVERLAP>
61.63

> <PUBCHEM_SHAPE_FINGERPRINT>
10 15 10737284684667609324
10165383 225 18272655645765158779
10369192 42 18410573964610434757
10670039 82 18410849997626269175
10864689 126 18341043034786742097
10917259 69 18339642223008492136
11088757 655 9511452312747929157
11200772 48 18410860975066954946
11211813 128 11097855190459364344
11475781 23 18343580759779681272
1200032 147 18262241006632740601
12120059 9 17060330822044398814
13944108 23 17836078971446777689
14294032 229 17968375629173623412
14856354 85 16878229765643064611
15052358 14 18343868827077257478
15183329 4 18343587343669062642
15230672 131 18411135814752307654
15297060 5 18272373045021888889
15350500 55 17604138217886103877
15419008 91 17917417783821360416
15475509 8 18186243940053047676
15728490 51 9727632796070883952
15890870 6 18411416169143038749
16992727 255 18335707139411575108
1768 4 14273745109744188638
21315764 119 18341902896303232302
21756936 100 18040435525102486003
22393880 68 18270955873022573066
23389318 12 13470684872222343056
23522609 53 17749114409106670524
23559900 14 17631729499531667346
3009799 131 17988927799456285640
3610482 184 17896895433052223046
38570 142 18040436598527551930
44880568 143 18340490092697398940
474113 269 14692300470002496276
508180 173 18340770428880055592
5265222 85 18338241590837822188
57527295 17 18260543476781254258
57676310 115 18263088712786433172
5911458 16 17749398061378924180
59521270 166 18410014347825889758
59682541 35 10881687935978494380
5969126 39 14836133134749703082
6009941 240 18202285822981010918
6703917 75 17531260494630152483
7808743 9 18410848885324665435
9980921 52 14116127738027095556

> <PUBCHEM_SHAPE_MULTIPOLES>
568.12
22.7
3.61
1.45
29.24
0.72
-0.01
-16.51
9.32
-8.53
0.9
2.14
0.31
0.3

> <PUBCHEM_SHAPE_SELFOVERLAP>
1218.401

> <PUBCHEM_SHAPE_VOLUME>
315.7

> <PUBCHEM_COORDINATE_TYPE>
2
5
10

$$$$
