26744948
  -OEChem-12032416353D

 57 61  0     1  0  0  0  0  0999 V2000
    1.4843   -2.3438    2.0449 O   0  0  0  0  0  0  0  0  0  0  0  0
    6.9470    2.1319   -0.8912 O   0  0  0  0  0  0  0  0  0  0  0  0
   -2.3258    5.3557   -1.1656 O   0  0  0  0  0  0  0  0  0  0  0  0
   -1.5855   -1.6217    0.4469 N   0  0  1  0  0  0  0  0  0  0  0  0
   -3.8834   -4.0159   -1.3006 N   0  0  0  0  0  0  0  0  0  0  0  0
   -2.0015   -5.0452   -1.9309 N   0  0  0  0  0  0  0  0  0  0  0  0
    1.5909   -1.2452    0.0959 N   0  0  0  0  0  0  0  0  0  0  0  0
    2.7183   -1.6812    2.0383 N   0  0  0  0  0  0  0  0  0  0  0  0
   -4.0323    4.2625    0.0392 N   0  0  0  0  0  0  0  0  0  0  0  0
   -0.4942   -2.6405    0.6243 C   0  0  1  0  0  0  0  0  0  0  0  0
   -0.3818   -3.6186   -0.5988 C   0  0  0  0  0  0  0  0  0  0  0  0
   -2.9280   -2.2532    0.2889 C   0  0  0  0  0  0  0  0  0  0  0  0
   -2.8618   -3.3795   -0.6641 C   0  0  0  0  0  0  0  0  0  0  0  0
   -1.7230   -4.0309   -1.0597 C   0  0  0  0  0  0  0  0  0  0  0  0
   -1.6550   -0.6760    1.5690 C   0  0  0  0  0  0  0  0  0  0  0  0
    0.8846   -2.0342    0.8656 C   0  0  0  0  0  0  0  0  0  0  0  0
   -2.2844    0.6303    1.1633 C   0  0  0  0  0  0  0  0  0  0  0  0
   -3.3141   -5.0130   -2.0538 C   0  0  0  0  0  0  0  0  0  0  0  0
   -1.5516    1.5568    0.4213 C   0  0  0  0  0  0  0  0  0  0  0  0
   -3.5997    0.9144    1.5303 C   0  0  0  0  0  0  0  0  0  0  0  0
    2.7072   -1.0557    0.8575 C   0  0  0  0  0  0  0  0  0  0  0  0
   -2.1342    2.7674    0.0467 C   0  0  0  0  0  0  0  0  0  0  0  0
   -4.1823    2.1251    1.1557 C   0  0  0  0  0  0  0  0  0  0  0  0
   -3.4495    3.0516    0.4139 C   0  0  0  0  0  0  0  0  0  0  0  0
    3.7953   -0.2361    0.4082 C   0  0  0  0  0  0  0  0  0  0  0  0
    3.7291    0.3917   -0.8356 C   0  0  0  0  0  0  0  0  0  0  0  0
    4.9205   -0.0679    1.2152 C   0  0  0  0  0  0  0  0  0  0  0  0
    4.7881    1.1874   -1.2726 C   0  0  0  0  0  0  0  0  0  0  0  0
    5.9795    0.7278    0.7784 C   0  0  0  0  0  0  0  0  0  0  0  0
    5.9133    1.3553   -0.4655 C   0  0  0  0  0  0  0  0  0  0  0  0
   -3.4594    5.3066   -0.6993 C   0  0  0  0  0  0  0  0  0  0  0  0
   -4.4242    6.4495   -0.8929 C   0  0  0  0  0  0  0  0  0  0  0  0
    6.8136    2.7446   -2.1729 C   0  0  0  0  0  0  0  0  0  0  0  0
   -0.7486   -3.2433    1.5095 H   0  0  0  0  0  0  0  0  0  0  0  0
    0.2103   -4.4975   -0.3175 H   0  0  0  0  0  0  0  0  0  0  0  0
    0.1353   -3.1283   -1.4336 H   0  0  0  0  0  0  0  0  0  0  0  0
   -3.6456   -1.5148   -0.0852 H   0  0  0  0  0  0  0  0  0  0  0  0
   -3.2972   -2.6375    1.2487 H   0  0  0  0  0  0  0  0  0  0  0  0
   -0.6592   -0.4123    1.9458 H   0  0  0  0  0  0  0  0  0  0  0  0
   -2.1661   -1.1097    2.4396 H   0  0  0  0  0  0  0  0  0  0  0  0
   -4.8700   -3.8033   -1.2324 H   0  0  0  0  0  0  0  0  0  0  0  0
   -3.9106   -5.6752   -2.6651 H   0  0  0  0  0  0  0  0  0  0  0  0
   -0.5257    1.3457    0.1301 H   0  0  0  0  0  0  0  0  0  0  0  0
   -4.1818    0.2013    2.1080 H   0  0  0  0  0  0  0  0  0  0  0  0
   -1.5047    3.4338   -0.5262 H   0  0  0  0  0  0  0  0  0  0  0  0
   -5.2083    2.3332    1.4486 H   0  0  0  0  0  0  0  0  0  0  0  0
   -4.9941    4.3947    0.3455 H   0  0  0  0  0  0  0  0  0  0  0  0
    2.8654    0.2797   -1.4865 H   0  0  0  0  0  0  0  0  0  0  0  0
    5.0080   -0.5410    2.1901 H   0  0  0  0  0  0  0  0  0  0  0  0
    4.6715    1.6457   -2.2487 H   0  0  0  0  0  0  0  0  0  0  0  0
    6.8537    0.8553    1.4111 H   0  0  0  0  0  0  0  0  0  0  0  0
   -4.7479    6.8311    0.0796 H   0  0  0  0  0  0  0  0  0  0  0  0
   -5.2945    6.1061   -1.4591 H   0  0  0  0  0  0  0  0  0  0  0  0
   -3.9362    7.2572   -1.4454 H   0  0  0  0  0  0  0  0  0  0  0  0
    7.7254    3.3242   -2.3505 H   0  0  0  0  0  0  0  0  0  0  0  0
    5.9765    3.4505   -2.1962 H   0  0  0  0  0  0  0  0  0  0  0  0
    6.7492    1.9975   -2.9712 H   0  0  0  0  0  0  0  0  0  0  0  0
  1  8  1  0  0  0  0
  1 16  1  0  0  0  0
  2 30  1  0  0  0  0
  2 33  1  0  0  0  0
  3 31  2  0  0  0  0
  4 10  1  0  0  0  0
  4 12  1  0  0  0  0
  4 15  1  0  0  0  0
  5 13  1  0  0  0  0
  5 18  1  0  0  0  0
  5 41  1  0  0  0  0
  6 14  1  0  0  0  0
  6 18  2  0  0  0  0
  7 16  2  0  0  0  0
  7 21  1  0  0  0  0
  8 21  2  0  0  0  0
  9 24  1  0  0  0  0
  9 31  1  0  0  0  0
  9 47  1  0  0  0  0
 10 11  1  0  0  0  0
 10 16  1  0  0  0  0
 10 34  1  0  0  0  0
 11 14  1  0  0  0  0
 11 35  1  0  0  0  0
 11 36  1  0  0  0  0
 12 13  1  0  0  0  0
 12 37  1  0  0  0  0
 12 38  1  0  0  0  0
 13 14  2  0  0  0  0
 15 17  1  0  0  0  0
 15 39  1  0  0  0  0
 15 40  1  0  0  0  0
 17 19  2  0  0  0  0
 17 20  1  0  0  0  0
 18 42  1  0  0  0  0
 19 22  1  0  0  0  0
 19 43  1  0  0  0  0
 20 23  2  0  0  0  0
 20 44  1  0  0  0  0
 21 25  1  0  0  0  0
 22 24  2  0  0  0  0
 22 45  1  0  0  0  0
 23 24  1  0  0  0  0
 23 46  1  0  0  0  0
 25 26  2  0  0  0  0
 25 27  1  0  0  0  0
 26 28  1  0  0  0  0
 26 48  1  0  0  0  0
 27 29  2  0  0  0  0
 27 49  1  0  0  0  0
 28 30  2  0  0  0  0
 28 50  1  0  0  0  0
 29 30  1  0  0  0  0
 29 51  1  0  0  0  0
 31 32  1  0  0  0  0
 32 52  1  0  0  0  0
 32 53  1  0  0  0  0
 32 54  1  0  0  0  0
 33 55  1  0  0  0  0
 33 56  1  0  0  0  0
 33 57  1  0  0  0  0
M  END
> <PUBCHEM_COMPOUND_CID>
26744948

> <PUBCHEM_CONFORMER_RMSD>
1

> <PUBCHEM_CONFORMER_DIVERSEORDER>
1
29
48
23
38
8
44
7
20
45
28
43
17
41
47
35
46
14
55
40
11
32
27
34
24
36
54
26
9
50
37
12
21
52
15
39
53
30
4
18
42
22
5
13
33
31
51
10
49
3
56
16
19
6
25
2

> <PUBCHEM_MMFF94_PARTIAL_CHARGES>
44
1 -0.02
10 0.45
11 0.18
12 0.45
13 -0.33
14 0.05
15 0.41
16 0.3
17 -0.14
18 0.04
19 -0.15
2 -0.36
20 -0.15
21 0.46
22 -0.15
23 -0.15
24 0.12
25 0.05
26 -0.15
27 -0.15
28 -0.15
29 -0.15
3 -0.57
30 0.08
31 0.57
32 0.06
33 0.28
4 -0.81
41 0.27
42 0.15
43 0.15
44 0.15
45 0.15
46 0.15
47 0.37
48 0.15
49 0.15
5 0.03
50 0.15
51 0.15
6 -0.57
7 -0.57
8 -0.41
9 -0.55

> <PUBCHEM_EFFECTIVE_ROTOR_COUNT>
7.8

> <PUBCHEM_PHARMACOPHORE_FEATURES>
12
1 2 acceptor
1 3 acceptor
1 4 cation
1 5 donor
1 9 donor
3 5 6 18 cation
3 7 8 21 cation
5 1 7 8 16 21 rings
5 5 6 13 14 18 rings
6 17 19 20 22 23 24 rings
6 25 26 27 28 29 30 rings
6 4 10 11 12 13 14 rings

> <PUBCHEM_HEAVY_ATOM_COUNT>
33

> <PUBCHEM_ATOM_DEF_STEREO_COUNT>
1

> <PUBCHEM_ATOM_UDEF_STEREO_COUNT>
0

> <PUBCHEM_BOND_DEF_STEREO_COUNT>
0

> <PUBCHEM_BOND_UDEF_STEREO_COUNT>
0

> <PUBCHEM_ISOTOPIC_ATOM_COUNT>
0

> <PUBCHEM_COMPONENT_COUNT>
1

> <PUBCHEM_CACTVS_TAUTO_COUNT>
4

> <PUBCHEM_CONFORMER_ID>
0198187400000001

> <PUBCHEM_MMFF94_ENERGY>
89.1725

> <PUBCHEM_FEATURE_SELFOVERLAP>
60.997

> <PUBCHEM_SHAPE_FINGERPRINT>
10673678 19 17905605502454865377
10871710 139 18337396044763431715
10937287 8 18196370321152453113
11386260 185 16536782644803734149
11477941 20 18054508286221758036
11513181 2 18195810661022596919
12788726 201 18339066207316443059
13540713 5 18334563647651147314
13782708 43 17059225915864014574
14040221 178 17833266420734413717
14068700 675 18121209050765895710
14068700 686 18122352285910305073
14114211 80 18128833944772240673
14294032 229 18343312482746835491
14556957 393 18120378919481806358
15064981 113 18201997712522739766
15198563 99 18269834388436894487
15448158 71 18261675866261926560
15705408 1 17332500876071446415
16992828 155 18335145292843041725
17980427 26 17604426280825922530
19309040 13 17768249008070699469
21033650 10 18194706928402284874
21641784 216 18267865180038500830
21716022 299 17189821676204385503
21792964 463 17894631469891265879
23191077 185 18408600336643007098
23576562 1 17764306137861326295
249057 25 18189042257517924986
24941158 1 17112957579690787341
3388396 114 17688318206281686732
3610482 184 18117298019777295950
376196 1 17901391087179960905
4066623 53 17910090736516286623
44249763 50 18272929466672642456
5219985 13 18265617585024133249
550186 72 18334862689002140449
57591035 28 18121480609380896157
6036956 94 18041853907634395381
6058803 2 18261938683985515186
6608658 132 18266180706770776710
7808743 9 18410859854354589744

> <PUBCHEM_SHAPE_MULTIPOLES>
631.63
13.52
9.34
1.85
26.94
5.46
-0.18
15.24
-3.94
-19.41
-6.9
0.52
-0.98
-3.78

> <PUBCHEM_SHAPE_SELFOVERLAP>
1383.477

> <PUBCHEM_SHAPE_VOLUME>
342.6

> <PUBCHEM_COORDINATE_TYPE>
2
5
10

$$$$
