11884355
  -OEChem-12032416373D

 39 41  0     1  0  0  0  0  0999 V2000
   -4.0628   -1.2506   -0.7727 O   0  0  0  0  0  0  0  0  0  0  0  0
   -4.1065    1.5939    0.3413 O   0  0  0  0  0  0  0  0  0  0  0  0
   -6.2442   -1.2158    0.9471 O   0  0  0  0  0  0  0  0  0  0  0  0
    0.2375    1.5851   -0.4729 O   0  0  0  0  0  0  0  0  0  0  0  0
    6.5573    0.4272    0.4441 O   0  0  0  0  0  0  0  0  0  0  0  0
   -1.0969   -0.2917   -0.6802 N   0  0  0  0  0  0  0  0  0  0  0  0
    1.1603   -0.5700   -0.3526 N   0  0  0  0  0  0  0  0  0  0  0  0
   -3.1171    0.5471    0.4455 C   0  0  1  0  0  0  0  0  0  0  0  0
   -3.8752   -0.7594    0.5662 C   0  0  1  0  0  0  0  0  0  0  0  0
   -2.3627    0.4172   -0.8601 C   0  0  2  0  0  0  0  0  0  0  0  0
   -5.1800   -0.3229    1.1878 C   0  0  1  0  0  0  0  0  0  0  0  0
   -3.3180   -0.4312   -1.6871 C   0  0  0  0  0  0  0  0  0  0  0  0
   -5.4087    1.0231    0.5376 C   0  0  0  0  0  0  0  0  0  0  0  0
    0.1284    0.3615   -0.4968 C   0  0  0  0  0  0  0  0  0  0  0  0
    2.5369   -0.3161   -0.1500 C   0  0  0  0  0  0  0  0  0  0  0  0
    3.4132   -1.3822   -0.0304 C   0  0  0  0  0  0  0  0  0  0  0  0
    2.9804    0.9942   -0.0739 C   0  0  0  0  0  0  0  0  0  0  0  0
    4.7704   -1.1314    0.1711 C   0  0  0  0  0  0  0  0  0  0  0  0
    4.3376    1.2452    0.1274 C   0  0  0  0  0  0  0  0  0  0  0  0
    5.2328    0.1824    0.2498 C   0  0  0  0  0  0  0  0  0  0  0  0
    7.4172   -0.7056    0.5588 C   0  0  0  0  0  0  0  0  0  0  0  0
   -2.4887    0.7666    1.3144 H   0  0  0  0  0  0  0  0  0  0  0  0
   -3.3527   -1.5336    1.1352 H   0  0  0  0  0  0  0  0  0  0  0  0
   -2.1659    1.3784   -1.3454 H   0  0  0  0  0  0  0  0  0  0  0  0
   -5.0547   -0.1963    2.2692 H   0  0  0  0  0  0  0  0  0  0  0  0
   -4.0409    0.2006   -2.2150 H   0  0  0  0  0  0  0  0  0  0  0  0
   -2.8195   -1.0697   -2.4230 H   0  0  0  0  0  0  0  0  0  0  0  0
   -5.9082    0.9416   -0.4342 H   0  0  0  0  0  0  0  0  0  0  0  0
   -6.0092    1.6890    1.1646 H   0  0  0  0  0  0  0  0  0  0  0  0
   -1.1170   -1.3053   -0.6201 H   0  0  0  0  0  0  0  0  0  0  0  0
   -6.3036   -1.3612   -0.0126 H   0  0  0  0  0  0  0  0  0  0  0  0
    0.8976   -1.5513   -0.3993 H   0  0  0  0  0  0  0  0  0  0  0  0
    3.0624   -2.4089   -0.0903 H   0  0  0  0  0  0  0  0  0  0  0  0
    2.3524    1.8686   -0.1583 H   0  0  0  0  0  0  0  0  0  0  0  0
    5.4101   -2.0030    0.2576 H   0  0  0  0  0  0  0  0  0  0  0  0
    4.6933    2.2704    0.1879 H   0  0  0  0  0  0  0  0  0  0  0  0
    7.1692   -1.3118    1.4367 H   0  0  0  0  0  0  0  0  0  0  0  0
    8.4333   -0.3262    0.7091 H   0  0  0  0  0  0  0  0  0  0  0  0
    7.4298   -1.2963   -0.3636 H   0  0  0  0  0  0  0  0  0  0  0  0
  1  9  1  0  0  0  0
  1 12  1  0  0  0  0
  2  8  1  0  0  0  0
  2 13  1  0  0  0  0
  3 11  1  0  0  0  0
  3 31  1  0  0  0  0
  4 14  2  0  0  0  0
  5 20  1  0  0  0  0
  5 21  1  0  0  0  0
  6 10  1  0  0  0  0
  6 14  1  0  0  0  0
  6 30  1  0  0  0  0
  7 14  1  0  0  0  0
  7 15  1  0  0  0  0
  7 32  1  0  0  0  0
  8  9  1  0  0  0  0
  8 10  1  0  0  0  0
  8 22  1  0  0  0  0
  9 11  1  0  0  0  0
  9 23  1  0  0  0  0
 10 12  1  0  0  0  0
 10 24  1  0  0  0  0
 11 13  1  0  0  0  0
 11 25  1  0  0  0  0
 12 26  1  0  0  0  0
 12 27  1  0  0  0  0
 13 28  1  0  0  0  0
 13 29  1  0  0  0  0
 15 16  2  0  0  0  0
 15 17  1  0  0  0  0
 16 18  1  0  0  0  0
 16 33  1  0  0  0  0
 17 19  2  0  0  0  0
 17 34  1  0  0  0  0
 18 20  2  0  0  0  0
 18 35  1  0  0  0  0
 19 20  1  0  0  0  0
 19 36  1  0  0  0  0
 21 37  1  0  0  0  0
 21 38  1  0  0  0  0
 21 39  1  0  0  0  0
M  END
> <PUBCHEM_COMPOUND_CID>
11884355

> <PUBCHEM_CONFORMER_RMSD>
0.8

> <PUBCHEM_CONFORMER_DIVERSEORDER>
2
15
8
5
16
4
12
20
6
19
14
1
18
13
17
3
10
9
11
7

> <PUBCHEM_MMFF94_PARTIAL_CHARGES>
28
1 -0.56
10 0.3
11 0.28
12 0.28
13 0.28
14 0.69
15 0.12
16 -0.15
17 -0.15
18 -0.15
19 -0.15
2 -0.56
20 0.08
21 0.28
3 -0.68
30 0.37
31 0.4
32 0.37
33 0.15
34 0.15
35 0.15
36 0.15
4 -0.57
5 -0.36
6 -0.73
7 -0.55
8 0.28
9 0.28

> <PUBCHEM_EFFECTIVE_ROTOR_COUNT>
6.2

> <PUBCHEM_PHARMACOPHORE_FEATURES>
11
1 1 acceptor
1 2 acceptor
1 3 acceptor
1 3 donor
1 4 acceptor
1 5 acceptor
1 6 donor
1 7 donor
5 1 8 9 10 12 rings
5 2 8 9 11 13 rings
6 15 16 17 18 19 20 rings

> <PUBCHEM_HEAVY_ATOM_COUNT>
21

> <PUBCHEM_ATOM_DEF_STEREO_COUNT>
4

> <PUBCHEM_ATOM_UDEF_STEREO_COUNT>
0

> <PUBCHEM_BOND_DEF_STEREO_COUNT>
0

> <PUBCHEM_BOND_UDEF_STEREO_COUNT>
0

> <PUBCHEM_ISOTOPIC_ATOM_COUNT>
0

> <PUBCHEM_COMPONENT_COUNT>
1

> <PUBCHEM_CACTVS_TAUTO_COUNT>
3

> <PUBCHEM_CONFORMER_ID>
00B5574300000002

> <PUBCHEM_MMFF94_ENERGY>
71.2283

> <PUBCHEM_FEATURE_SELFOVERLAP>
56.598

> <PUBCHEM_SHAPE_FINGERPRINT>
10 15 18201721777256975904
10354089 29 18272090500645469016
106641 1 18201721790574537427
11089746 13 16343695534705263104
11315181 36 18040156232137602533
12091667 2 18273210898034534868
12107183 9 17691408507758336625
12166972 35 16443069396283028604
12236239 1 17847057796838828004
12507557 5 16487254395830590761
12596602 18 18412830174516756643
12616971 3 18272929457813500540
13288520 33 14779547885617869127
13668630 136 12901547927520393800
1420 363 17894912923667348458
14251764 18 18131631209526309926
14341114 176 18202007599004230062
14849402 71 18199746028763413616
15048467 5 16917066655297930144
15183329 4 9223237347318709244
15348495 7 18201153368816749170
15716309 27 18113337518142063882
17093844 174 18342448236173340849
17780758 139 18335421266498538425
17834072 8 9223231845159602578
17844677 252 16588024610688656364
1813 80 17676498215241887868
18222031 100 15213300845956023838
18927931 339 15068343402161669283
19489759 90 14692567719635883509
20281389 69 15769777935769912882
20645477 56 16630526215802117213
21150785 3 9799683801396514024
21267235 1 18409732829851993902
21623969 137 18334861610595596802
220451 1 17561081415234618230
22224240 67 18060416928027720327
23035841 295 17603868897033201002
23402539 116 18272645749379747828
23402655 69 8790887389191930748
23522609 53 17824291265977687828
23559900 14 12036025632614857823
26918003 58 18334014990546539569
29717793 49 12757146862326886522
300161 21 17346875637441543926
3004659 81 8790885173125871710
3545911 37 16702306745256573398
4073 2 18187369869724234570
465052 167 17967526853920816994
5104073 3 18265042540970028720
5385378 56 15625680327174684311
542803 24 17203608194505921782
5758199 1 18343579677605808232
5924683 9 18130503150005837415
59682541 35 18262238927873681568

> <PUBCHEM_SHAPE_MULTIPOLES>
392.86
18.01
1.38
1.02
10.99
0.12
-0.17
-2.41
5.79
-0.15
0.05
-1.3
-0.13
-0.1

> <PUBCHEM_SHAPE_SELFOVERLAP>
839.068

> <PUBCHEM_SHAPE_VOLUME>
219.1

> <PUBCHEM_COORDINATE_TYPE>
2
5
10

$$$$
