11865735
  -OEChem-12032416123D

 63 66  0     1  0  0  0  0  0999 V2000
    2.7087    1.0573    2.5953 F   0  0  0  0  0  0  0  0  0  0  0  0
    6.7449    1.6766    0.2058 F   0  0  0  0  0  0  0  0  0  0  0  0
   -2.9748   -0.1106    1.3071 O   0  0  0  0  0  0  0  0  0  0  0  0
   -5.9268    0.8562    1.0243 O   0  0  0  0  0  0  0  0  0  0  0  0
    0.6627    2.7555   -1.7097 O   0  0  0  0  0  0  0  0  0  0  0  0
   -4.0961   -3.5817   -0.2908 O   0  0  0  0  0  0  0  0  0  0  0  0
   -4.1049    1.9404    0.0956 N   0  0  0  0  0  0  0  0  0  0  0  0
   -0.9713    2.2872   -0.1422 N   0  0  0  0  0  0  0  0  0  0  0  0
   -2.6136   -1.2968   -0.6631 N   0  0  0  0  0  0  0  0  0  0  0  0
    1.2311    1.9449    0.4188 N   0  0  0  0  0  0  0  0  0  0  0  0
    1.8948   -1.0044   -1.8206 N   0  0  0  0  0  0  0  0  0  0  0  0
   -2.7143   -4.1512    1.4536 N   0  0  0  0  0  0  0  0  0  0  0  0
   -2.1003    2.6554   -0.9594 C   0  0  1  0  0  0  0  0  0  0  0  0
   -3.6853    0.8425   -0.7630 C   0  0  1  0  0  0  0  0  0  0  0  0
   -2.6670    1.4550   -1.7222 C   0  0  0  0  0  0  0  0  0  0  0  0
   -3.2800    3.1297   -0.1164 C   0  0  0  0  0  0  0  0  0  0  0  0
   -3.0664   -0.2255    0.0877 C   0  0  0  0  0  0  0  0  0  0  0  0
   -5.2552    1.8773    0.8674 C   0  0  0  0  0  0  0  0  0  0  0  0
   -1.9573   -2.4467   -0.0840 C   0  0  2  0  0  0  0  0  0  0  0  0
   -0.9872   -3.1153   -1.0645 C   0  0  0  0  0  0  0  0  0  0  0  0
    0.3553    2.3657   -0.5858 C   0  0  0  0  0  0  0  0  0  0  0  0
   -5.6559    3.1636    1.5447 C   0  0  0  0  0  0  0  0  0  0  0  0
    0.3334   -2.3915   -1.1641 C   0  0  0  0  0  0  0  0  0  0  0  0
   -3.0482   -3.4231    0.3309 C   0  0  0  0  0  0  0  0  0  0  0  0
    1.4631   -2.6427   -0.3690 C   0  0  0  0  0  0  0  0  0  0  0  0
    0.6016   -1.3943   -2.0450 C   0  0  0  0  0  0  0  0  0  0  0  0
    2.4455   -1.7498   -0.8025 C   0  0  0  0  0  0  0  0  0  0  0  0
    1.7706   -3.5328    0.6791 C   0  0  0  0  0  0  0  0  0  0  0  0
    2.6428    1.8756    0.3666 C   0  0  0  0  0  0  0  0  0  0  0  0
    3.7251   -1.7023   -0.2379 C   0  0  0  0  0  0  0  0  0  0  0  0
    3.0465   -3.4967    1.2534 C   0  0  0  0  0  0  0  0  0  0  0  0
    4.0071   -2.5946    0.8004 C   0  0  0  0  0  0  0  0  0  0  0  0
    3.3440    1.4270    1.4741 C   0  0  0  0  0  0  0  0  0  0  0  0
    3.2957    2.2585   -0.7939 C   0  0  0  0  0  0  0  0  0  0  0  0
    4.7361    1.3594    1.4196 C   0  0  0  0  0  0  0  0  0  0  0  0
    4.6878    2.1909   -0.8483 C   0  0  0  0  0  0  0  0  0  0  0  0
    5.4080    1.7414    0.2585 C   0  0  0  0  0  0  0  0  0  0  0  0
   -1.7754    3.4414   -1.6498 H   0  0  0  0  0  0  0  0  0  0  0  0
   -4.5515    0.4212   -1.2857 H   0  0  0  0  0  0  0  0  0  0  0  0
   -3.2027    1.8268   -2.6056 H   0  0  0  0  0  0  0  0  0  0  0  0
   -1.8904    0.7700   -2.0738 H   0  0  0  0  0  0  0  0  0  0  0  0
   -3.8891    3.8494   -0.6748 H   0  0  0  0  0  0  0  0  0  0  0  0
   -2.9931    3.5748    0.8410 H   0  0  0  0  0  0  0  0  0  0  0  0
   -1.1479    1.8932    0.7769 H   0  0  0  0  0  0  0  0  0  0  0  0
   -2.8208   -1.3214   -1.6576 H   0  0  0  0  0  0  0  0  0  0  0  0
   -1.4258   -2.1150    0.8174 H   0  0  0  0  0  0  0  0  0  0  0  0
   -1.4395   -3.1873   -2.0630 H   0  0  0  0  0  0  0  0  0  0  0  0
   -0.7920   -4.1505   -0.7546 H   0  0  0  0  0  0  0  0  0  0  0  0
   -5.7961    3.9563    0.8054 H   0  0  0  0  0  0  0  0  0  0  0  0
   -4.8938    3.4578    2.2710 H   0  0  0  0  0  0  0  0  0  0  0  0
   -6.6018    3.0171    2.0745 H   0  0  0  0  0  0  0  0  0  0  0  0
    0.8122    1.6496    1.2972 H   0  0  0  0  0  0  0  0  0  0  0  0
    0.0080   -0.9171   -2.8120 H   0  0  0  0  0  0  0  0  0  0  0  0
    2.3760   -0.2751   -2.3284 H   0  0  0  0  0  0  0  0  0  0  0  0
    1.0330   -4.2411    1.0456 H   0  0  0  0  0  0  0  0  0  0  0  0
   -1.8337   -4.0264    1.9428 H   0  0  0  0  0  0  0  0  0  0  0  0
   -3.3485   -4.8483    1.8296 H   0  0  0  0  0  0  0  0  0  0  0  0
    4.4802   -1.0174   -0.6051 H   0  0  0  0  0  0  0  0  0  0  0  0
    3.2895   -4.1812    2.0618 H   0  0  0  0  0  0  0  0  0  0  0  0
    4.9933   -2.5864    1.2575 H   0  0  0  0  0  0  0  0  0  0  0  0
    2.8120    2.6148   -1.6910 H   0  0  0  0  0  0  0  0  0  0  0  0
    5.2968    1.0081    2.2806 H   0  0  0  0  0  0  0  0  0  0  0  0
    5.2126    2.4868   -1.7520 H   0  0  0  0  0  0  0  0  0  0  0  0
  1 33  1  0  0  0  0
  2 37  1  0  0  0  0
  3 17  2  0  0  0  0
  4 18  2  0  0  0  0
  5 21  2  0  0  0  0
  6 24  2  0  0  0  0
  7 14  1  0  0  0  0
  7 16  1  0  0  0  0
  7 18  1  0  0  0  0
  8 13  1  0  0  0  0
  8 21  1  0  0  0  0
  8 44  1  0  0  0  0
  9 17  1  0  0  0  0
  9 19  1  0  0  0  0
  9 45  1  0  0  0  0
 10 21  1  0  0  0  0
 10 29  1  0  0  0  0
 10 52  1  0  0  0  0
 11 26  1  0  0  0  0
 11 27  1  0  0  0  0
 11 54  1  0  0  0  0
 12 24  1  0  0  0  0
 12 56  1  0  0  0  0
 12 57  1  0  0  0  0
 13 15  1  0  0  0  0
 13 16  1  0  0  0  0
 13 38  1  0  0  0  0
 14 15  1  0  0  0  0
 14 17  1  0  0  0  0
 14 39  1  0  0  0  0
 15 40  1  0  0  0  0
 15 41  1  0  0  0  0
 16 42  1  0  0  0  0
 16 43  1  0  0  0  0
 18 22  1  0  0  0  0
 19 20  1  0  0  0  0
 19 24  1  0  0  0  0
 19 46  1  0  0  0  0
 20 23  1  0  0  0  0
 20 47  1  0  0  0  0
 20 48  1  0  0  0  0
 22 49  1  0  0  0  0
 22 50  1  0  0  0  0
 22 51  1  0  0  0  0
 23 25  1  0  0  0  0
 23 26  2  0  0  0  0
 25 27  1  0  0  0  0
 25 28  2  0  0  0  0
 26 53  1  0  0  0  0
 27 30  2  0  0  0  0
 28 31  1  0  0  0  0
 28 55  1  0  0  0  0
 29 33  2  0  0  0  0
 29 34  1  0  0  0  0
 30 32  1  0  0  0  0
 30 58  1  0  0  0  0
 31 32  2  0  0  0  0
 31 59  1  0  0  0  0
 32 60  1  0  0  0  0
 33 35  1  0  0  0  0
 34 36  2  0  0  0  0
 34 61  1  0  0  0  0
 35 37  2  0  0  0  0
 35 62  1  0  0  0  0
 36 37  1  0  0  0  0
 36 63  1  0  0  0  0
M  END
> <PUBCHEM_COMPOUND_CID>
11865735

> <PUBCHEM_CONFORMER_RMSD>
1.2

> <PUBCHEM_CONFORMER_DIVERSEORDER>
1
121
109
143
46
225
72
98
220
130
205
244
94
240
2
48
34
234
212
106
169
216
89
112
224
242
179
152
103
6
93
261
105
148
260
135
40
25
229
149
166
228
38
252
163
153
96
241
182
120
20
44
237
186
201
17
193
157
141
133
85
150
194
70
90
174
23
262
187
49
266
101
115
4
221
227
196
195
264
69
137
9
131
51
77
156
233
208
239
83
92
54
16
61
31
132
45
204
95
175
71
243
207
210
170
198
219
222
42
29
145
78
202
251
33
218
217
108
185
39
200
265
147
67
249
134
53
3
102
257
68
41
97
139
117
73
99
114
209
245
171
28
181
11
111
255
232
155
172
161
199
127
124
223
247
62
184
79
50
123
27
26
125
140
178
82
159
164
64
248
154
7
84
180
214
235
81
57
238
192
165
58
37
52
107
188
104
18
253
119
177
138
76
43
87
190
47
22
116
144
160
168
56
151
250
206
167
35
8
246
158
197
75
254
24
136
13
128
129
59
21
191
215
86
259
183
176
256
110
36
32
122
66
63
30
100
226
142
14
146
88
74
118
12
211
5
162
236
189
126
213
55
173
230
203
91
15
231
113
263
258
65
80
19
60
10

> <PUBCHEM_MMFF94_PARTIAL_CHARGES>
49
1 -0.19
10 -0.55
11 0.03
12 -0.8
13 0.3
14 0.36
16 0.3
17 0.57
18 0.57
19 0.36
2 -0.19
20 0.18
21 0.69
22 0.06
23 -0.18
24 0.57
26 -0.3
27 -0.15
28 -0.15
29 0.12
3 -0.57
30 -0.15
31 -0.15
32 -0.15
33 0.19
34 -0.15
35 -0.15
36 -0.15
37 0.19
4 -0.57
44 0.37
45 0.37
5 -0.57
52 0.37
53 0.15
54 0.27
55 0.15
56 0.37
57 0.37
58 0.15
59 0.15
6 -0.57
60 0.15
61 0.15
62 0.15
63 0.15
7 -0.66
8 -0.73
9 -0.73

> <PUBCHEM_EFFECTIVE_ROTOR_COUNT>
12

> <PUBCHEM_PHARMACOPHORE_FEATURES>
14
1 10 donor
1 11 cation
1 11 donor
1 12 donor
1 3 acceptor
1 4 acceptor
1 5 acceptor
1 6 acceptor
1 8 donor
1 9 donor
5 11 23 25 26 27 rings
5 7 13 14 15 16 rings
6 25 27 28 30 31 32 rings
6 29 33 34 35 36 37 rings

> <PUBCHEM_HEAVY_ATOM_COUNT>
37

> <PUBCHEM_ATOM_DEF_STEREO_COUNT>
3

> <PUBCHEM_ATOM_UDEF_STEREO_COUNT>
0

> <PUBCHEM_BOND_DEF_STEREO_COUNT>
0

> <PUBCHEM_BOND_UDEF_STEREO_COUNT>
0

> <PUBCHEM_ISOTOPIC_ATOM_COUNT>
0

> <PUBCHEM_COMPONENT_COUNT>
1

> <PUBCHEM_CACTVS_TAUTO_COUNT>
12

> <PUBCHEM_CONFORMER_ID>
00B50E8700000001

> <PUBCHEM_MMFF94_ENERGY>
82.3758

> <PUBCHEM_FEATURE_SELFOVERLAP>
71.193

> <PUBCHEM_SHAPE_FINGERPRINT>
11513181 2 18060415820348321078
12156800 1 17098940249440041890
12422481 6 18196341824930726706
12633257 1 18268987583778407559
12788726 201 17833282195605693260
13140716 1 18412260614614350318
13402501 40 18122345670810881933
14725015 67 17900824847292100745
14790565 3 18192712478634139380
15420108 30 18201433688041387231
16112460 7 18199755743187418728
17809404 112 11891867490465573096
20764821 26 18336539443437153710
3052486 1 18264210391014250108
338550 245 18335137618622063916
392239 28 18195810657408084921
4144715 1 18339651130802689138
469060 322 18119819268026474635
508706 21 18340490066040858958

> <PUBCHEM_SHAPE_MULTIPOLES>
693.53
11.83
5.95
1.69
1.77
4
0.1
-8.16
4.65
1.1
0.61
-0.22
-0.16
-0.46

> <PUBCHEM_SHAPE_SELFOVERLAP>
1502.441

> <PUBCHEM_SHAPE_VOLUME>
380.8

> <PUBCHEM_COORDINATE_TYPE>
2
5
10

$$$$
