26743324
  -OEChem-12032416183D

 72 75  0     1  0  0  0  0  0999 V2000
    4.7212    1.9675   -1.4365 O   0  0  0  0  0  0  0  0  0  0  0  0
   -2.8860    0.0384   -1.9021 O   0  0  0  0  0  0  0  0  0  0  0  0
    7.4494   -3.6455   -0.9874 O   0  0  0  0  0  0  0  0  0  0  0  0
    0.5813    3.6719    1.4196 N   0  0  0  0  0  0  0  0  0  0  0  0
    5.5778    0.5098    0.1568 N   0  0  0  0  0  0  0  0  0  0  0  0
   -1.5167    0.2484   -2.0115 N   0  0  0  0  0  0  0  0  0  0  0  0
    8.2286   -3.9115    1.1612 N   0  0  0  0  0  0  0  0  0  0  0  0
    2.2418    2.1605   -0.4948 C   0  0  1  0  0  0  0  0  0  0  0  0
    0.7515    1.8320   -0.2392 C   0  0  2  0  0  0  0  0  0  0  0  0
    2.4996    3.6337   -0.1362 C   0  0  0  0  0  0  0  0  0  0  0  0
    0.3104    2.2553    1.1720 C   0  0  0  0  0  0  0  0  0  0  0  0
    3.2195    1.2398    0.2452 C   0  0  0  0  0  0  0  0  0  0  0  0
    1.9990    3.9896    1.2630 C   0  0  0  0  0  0  0  0  0  0  0  0
    0.4102    0.3626   -0.4906 C   0  0  0  0  0  0  0  0  0  0  0  0
    4.5696    1.2775   -0.4251 C   0  0  0  0  0  0  0  0  0  0  0  0
    7.2946   -1.7908    0.5103 C   0  0  0  0  0  0  0  0  0  0  0  0
    5.4275   -0.3202    1.3585 C   0  0  0  0  0  0  0  0  0  0  0  0
    6.9273    0.5271   -0.4114 C   0  0  0  0  0  0  0  0  0  0  0  0
    5.8760   -1.7544    1.0849 C   0  0  0  0  0  0  0  0  0  0  0  0
    7.4064   -0.8886   -0.7217 C   0  0  0  0  0  0  0  0  0  0  0  0
   -1.0554    0.1797   -0.7594 C   0  0  0  0  0  0  0  0  0  0  0  0
    7.6611   -3.1934    0.1352 C   0  0  0  0  0  0  0  0  0  0  0  0
   -2.0774   -0.0690    0.1730 C   0  0  0  0  0  0  0  0  0  0  0  0
   -3.2077   -0.1494   -0.5966 C   0  0  0  0  0  0  0  0  0  0  0  0
   -4.5971   -0.3797   -0.3262 C   0  0  0  0  0  0  0  0  0  0  0  0
   -8.7450   -1.0653    0.4820 C   0  0  0  0  0  0  0  0  0  0  0  0
   -7.3000   -0.8261    0.2003 C   0  0  0  0  0  0  0  0  0  0  0  0
   -5.0279   -0.5839    0.9847 C   0  0  0  0  0  0  0  0  0  0  0  0
   -5.5180   -0.3986   -1.3738 C   0  0  0  0  0  0  0  0  0  0  0  0
   -6.3793   -0.8072    1.2480 C   0  0  0  0  0  0  0  0  0  0  0  0
   -6.8694   -0.6218   -1.1107 C   0  0  0  0  0  0  0  0  0  0  0  0
   -9.3241    0.0273    1.4332 C   0  0  0  0  0  0  0  0  0  0  0  0
   -8.9665   -2.4500    1.1661 C   0  0  0  0  0  0  0  0  0  0  0  0
   -9.6822   -1.0656   -0.7711 C   0  0  0  0  0  0  0  0  0  0  0  0
    2.3905    2.0483   -1.5778 H   0  0  0  0  0  0  0  0  0  0  0  0
    0.1777    2.4438   -0.9532 H   0  0  0  0  0  0  0  0  0  0  0  0
    1.9817    4.2685   -0.8680 H   0  0  0  0  0  0  0  0  0  0  0  0
    3.5622    3.8877   -0.2139 H   0  0  0  0  0  0  0  0  0  0  0  0
   -0.7665    2.1097    1.2961 H   0  0  0  0  0  0  0  0  0  0  0  0
    0.8043    1.6421    1.9360 H   0  0  0  0  0  0  0  0  0  0  0  0
    2.8833    0.2001    0.1966 H   0  0  0  0  0  0  0  0  0  0  0  0
    3.3198    1.5218    1.2966 H   0  0  0  0  0  0  0  0  0  0  0  0
    2.5895    3.4866    2.0366 H   0  0  0  0  0  0  0  0  0  0  0  0
    2.1326    5.0656    1.4211 H   0  0  0  0  0  0  0  0  0  0  0  0
    0.6958   -0.2644    0.3630 H   0  0  0  0  0  0  0  0  0  0  0  0
    0.9682   -0.0113   -1.3590 H   0  0  0  0  0  0  0  0  0  0  0  0
    0.2843    3.9120    2.3649 H   0  0  0  0  0  0  0  0  0  0  0  0
    7.9988   -1.4264    1.2703 H   0  0  0  0  0  0  0  0  0  0  0  0
    6.0482    0.1306    2.1421 H   0  0  0  0  0  0  0  0  0  0  0  0
    4.4011   -0.3317    1.7283 H   0  0  0  0  0  0  0  0  0  0  0  0
    6.9606    1.1361   -1.3202 H   0  0  0  0  0  0  0  0  0  0  0  0
    7.5862    1.0024    0.3249 H   0  0  0  0  0  0  0  0  0  0  0  0
    5.8256   -2.3387    2.0115 H   0  0  0  0  0  0  0  0  0  0  0  0
    5.1773   -2.2245    0.3800 H   0  0  0  0  0  0  0  0  0  0  0  0
    6.7988   -1.2877   -1.5448 H   0  0  0  0  0  0  0  0  0  0  0  0
    8.4426   -0.8595   -1.0795 H   0  0  0  0  0  0  0  0  0  0  0  0
   -1.9938   -0.1757    1.2447 H   0  0  0  0  0  0  0  0  0  0  0  0
    8.3806   -3.5172    2.0840 H   0  0  0  0  0  0  0  0  0  0  0  0
    8.5139   -4.8759    1.0266 H   0  0  0  0  0  0  0  0  0  0  0  0
   -4.3343   -0.5746    1.8214 H   0  0  0  0  0  0  0  0  0  0  0  0
   -5.2207   -0.2434   -2.4079 H   0  0  0  0  0  0  0  0  0  0  0  0
   -6.6875   -0.9632    2.2778 H   0  0  0  0  0  0  0  0  0  0  0  0
   -7.5419   -0.6264   -1.9613 H   0  0  0  0  0  0  0  0  0  0  0  0
  -10.3930   -0.1309    1.6182 H   0  0  0  0  0  0  0  0  0  0  0  0
   -8.8242    0.0280    2.4080 H   0  0  0  0  0  0  0  0  0  0  0  0
   -9.2020    1.0264    0.9983 H   0  0  0  0  0  0  0  0  0  0  0  0
  -10.0308   -2.6394    1.3476 H   0  0  0  0  0  0  0  0  0  0  0  0
   -8.5827   -3.2611    0.5361 H   0  0  0  0  0  0  0  0  0  0  0  0
   -8.4575   -2.5143    2.1341 H   0  0  0  0  0  0  0  0  0  0  0  0
  -10.7252   -1.2475   -0.4841 H   0  0  0  0  0  0  0  0  0  0  0  0
   -9.6572   -0.1012   -1.2918 H   0  0  0  0  0  0  0  0  0  0  0  0
   -9.4037   -1.8533   -1.4810 H   0  0  0  0  0  0  0  0  0  0  0  0
  1 15  2  0  0  0  0
  2  6  1  0  0  0  0
  2 24  1  0  0  0  0
  3 22  2  0  0  0  0
  4 11  1  0  0  0  0
  4 13  1  0  0  0  0
  4 47  1  0  0  0  0
  5 15  1  0  0  0  0
  5 17  1  0  0  0  0
  5 18  1  0  0  0  0
  6 21  2  0  0  0  0
  7 22  1  0  0  0  0
  7 58  1  0  0  0  0
  7 59  1  0  0  0  0
  8  9  1  0  0  0  0
  8 10  1  0  0  0  0
  8 12  1  0  0  0  0
  8 35  1  0  0  0  0
  9 11  1  0  0  0  0
  9 14  1  0  0  0  0
  9 36  1  0  0  0  0
 10 13  1  0  0  0  0
 10 37  1  0  0  0  0
 10 38  1  0  0  0  0
 11 39  1  0  0  0  0
 11 40  1  0  0  0  0
 12 15  1  0  0  0  0
 12 41  1  0  0  0  0
 12 42  1  0  0  0  0
 13 43  1  0  0  0  0
 13 44  1  0  0  0  0
 14 21  1  0  0  0  0
 14 45  1  0  0  0  0
 14 46  1  0  0  0  0
 16 19  1  0  0  0  0
 16 20  1  0  0  0  0
 16 22  1  0  0  0  0
 16 48  1  0  0  0  0
 17 19  1  0  0  0  0
 17 49  1  0  0  0  0
 17 50  1  0  0  0  0
 18 20  1  0  0  0  0
 18 51  1  0  0  0  0
 18 52  1  0  0  0  0
 19 53  1  0  0  0  0
 19 54  1  0  0  0  0
 20 55  1  0  0  0  0
 20 56  1  0  0  0  0
 21 23  1  0  0  0  0
 23 24  2  0  0  0  0
 23 57  1  0  0  0  0
 24 25  1  0  0  0  0
 25 28  2  0  0  0  0
 25 29  1  0  0  0  0
 26 27  1  0  0  0  0
 26 32  1  0  0  0  0
 26 33  1  0  0  0  0
 26 34  1  0  0  0  0
 27 30  2  0  0  0  0
 27 31  1  0  0  0  0
 28 30  1  0  0  0  0
 28 60  1  0  0  0  0
 29 31  2  0  0  0  0
 29 61  1  0  0  0  0
 30 62  1  0  0  0  0
 31 63  1  0  0  0  0
 32 64  1  0  0  0  0
 32 65  1  0  0  0  0
 32 66  1  0  0  0  0
 33 67  1  0  0  0  0
 33 68  1  0  0  0  0
 33 69  1  0  0  0  0
 34 70  1  0  0  0  0
 34 71  1  0  0  0  0
 34 72  1  0  0  0  0
M  END
> <PUBCHEM_COMPOUND_CID>
26743324

> <PUBCHEM_CONFORMER_RMSD>
1.2

> <PUBCHEM_CONFORMER_DIVERSEORDER>
1
33
115
95
67
3
68
6
97
94
90
52
135
2
98
44
47
72
122
8
132
66
121
100
14
60
104
74
58
125
63
11
73
5
53
36
7
134
69
43
109
113
76
54
108
110
112
119
114
50
42
124
99
35
24
62
23
117
107
136
118
70
71
89
20
38
123
19
111
30
78
77
57
32
29
82
61
137
10
18
46
131
21
16
17
49
34
75
31
56
9
92
116
87
51
91
129
105
127
45
138
120
15
85
101
55
96
37
64
39
126
103
28
80
81
13
83
26
12
86
128
130
65
25
40
106
4
48
133
93
27
84
41
102
22
88
79
59

> <PUBCHEM_MMFF94_PARTIAL_CHARGES>
34
1 -0.57
11 0.27
12 0.06
13 0.27
14 0.18
15 0.57
16 0.06
17 0.3
18 0.3
2 -0.02
21 0.11
22 0.57
23 -0.15
24 0.09
25 0.05
26 0.14
27 -0.14
28 -0.15
29 -0.15
3 -0.57
30 -0.15
31 -0.15
4 -0.9
47 0.36
5 -0.66
57 0.15
58 0.37
59 0.37
6 -0.41
60 0.15
61 0.15
62 0.15
63 0.15
7 -0.8

> <PUBCHEM_EFFECTIVE_ROTOR_COUNT>
10.4

> <PUBCHEM_PHARMACOPHORE_FEATURES>
11
1 1 acceptor
1 3 acceptor
1 4 cation
1 4 donor
1 6 acceptor
1 7 donor
4 26 32 33 34 hydrophobe
5 2 6 21 23 24 rings
6 25 27 28 29 30 31 rings
6 4 8 9 10 11 13 rings
6 5 16 17 18 19 20 rings

> <PUBCHEM_HEAVY_ATOM_COUNT>
34

> <PUBCHEM_ATOM_DEF_STEREO_COUNT>
2

> <PUBCHEM_ATOM_UDEF_STEREO_COUNT>
0

> <PUBCHEM_BOND_DEF_STEREO_COUNT>
0

> <PUBCHEM_BOND_UDEF_STEREO_COUNT>
0

> <PUBCHEM_ISOTOPIC_ATOM_COUNT>
0

> <PUBCHEM_COMPONENT_COUNT>
1

> <PUBCHEM_CACTVS_TAUTO_COUNT>
2

> <PUBCHEM_CONFORMER_ID>
0198121C00000001

> <PUBCHEM_MMFF94_ENERGY>
77.0688

> <PUBCHEM_FEATURE_SELFOVERLAP>
55.821

> <PUBCHEM_SHAPE_FINGERPRINT>
10258705 36 18040442122236180339
10533779 47 18335148626633728627
11146346 77 17894633677648304386
11409948 35 18333729105224121151
11456790 92 18059862787769317033
11578821 258 9511192832938272435
11638347 137 18334861671473919931
117089 54 18053386501569799030
11761917 87 18335427863526549251
12013929 2 18261107462443376079
12133447 93 16081355364075896111
12144603 126 18060140998534491564
12592606 108 18410856572931113915
13553644 42 17896592899535186362
13673619 4 18113613482391222308
13782708 43 18187356670809367487
14040221 304 11314024682037051034
14202775 3 18187651366914994107
14216079 64 18410856547372345614
14347424 109 17917429886285164120
14359421 15 17531523166931365682
14675020 138 16200437974420714332
15131766 46 17695061502800755693
15198563 99 16732973198909280493
15301273 46 17385999620582018117
15320294 125 17632577162445446373
15419008 145 18131357380499475737
15684393 108 18260271850448785990
1577012 14 17273699960991983925
17134984 74 17458338625256543714
17686467 74 12247679379954374259
19301679 30 18201445714582487060
19841028 212 18334292055346419626
20105231 36 15864072096656231801
2026 5 18260544485518501507
20771845 140 17346600764262526286
208703 8 18338794521075647256
20982279 24 17822307781734977691
21130935 74 18194120940165114827
21344244 181 17822010921763185626
21360443 126 7925911474145907145
21362857 166 14779816136801895314
21365058 113 17603586343730374580
23569943 247 18412255134747997735
3178227 256 18411418444462446551
34797466 226 16443343234191046092
3918712 181 8357960162303372038
406291 66 18338796715846652946
437795 160 15123502649753920159
439807 62 18186522103378007166
45270241 37 18041851739398246988
45377200 153 16516538845213933819
474113 269 18342175557790597961
5372103 7 10159693603840035254
54583773 228 8358244940135826025
58260988 647 18259705592779988288
59520757 100 18124876754963593088
6057620 51 11025789904292686781
6058803 2 16984040292205871117
6201320 215 18200879466865323017

> <PUBCHEM_SHAPE_MULTIPOLES>
662.17
32.76
3.96
1.5
31.08
0.82
0.1
-33.9
-4.93
-11.25
-1.42
1.03
0.09
-0.25

> <PUBCHEM_SHAPE_SELFOVERLAP>
1398.224

> <PUBCHEM_SHAPE_VOLUME>
369.2

> <PUBCHEM_COORDINATE_TYPE>
2
5
10

$$$$
