7049410
  -OEChem-12032416123D

 67 68  0     1  0  0  0  0  0999 V2000
    1.1766    4.6283   -1.9549 S   0  0  0  0  0  0  0  0  0  0  0  0
    1.5178    0.4996   -1.0553 O   0  0  0  0  0  0  0  0  0  0  0  0
    3.5438    2.7958   -0.4665 O   0  0  0  0  0  0  0  0  0  0  0  0
   -2.6930    0.1834    2.5141 O   0  0  0  0  0  0  0  0  0  0  0  0
    3.4320   -3.9068   -1.3825 O   0  0  0  0  0  0  0  0  0  0  0  0
    4.3854   -2.5120    0.1761 O   0  0  0  0  0  0  0  0  0  0  0  0
    1.5481    2.4955    0.6672 N   0  0  0  0  0  0  0  0  0  0  0  0
   -1.2545    1.0533    0.9142 N   0  0  0  0  0  0  0  0  0  0  0  0
   -3.0122   -0.2820    0.2620 N   0  0  0  0  0  0  0  0  0  0  0  0
    2.0593   -1.1102    0.5367 N   0  0  0  0  0  0  0  0  0  0  0  0
   -0.3949    1.7682    1.8239 C   0  0  1  0  0  0  0  0  0  0  0  0
    1.8659    1.1811    1.2059 C   0  0  1  0  0  0  0  0  0  0  0  0
    0.7991    0.9179    2.2664 C   0  0  0  0  0  0  0  0  0  0  0  0
    0.2567    2.9760    1.1580 C   0  0  0  0  0  0  0  0  0  0  0  0
   -4.1865   -1.1125    0.4115 C   0  0  0  0  0  0  0  0  0  0  0  0
   -4.2347   -2.1981   -0.6691 C   0  0  0  0  0  0  0  0  0  0  0  0
   -5.4640   -0.2663    0.4061 C   0  0  0  0  0  0  0  0  0  0  0  0
   -4.5603   -1.6330   -2.0517 C   0  0  0  0  0  0  0  0  0  0  0  0
   -5.7876    0.2955   -0.9783 C   0  0  0  0  0  0  0  0  0  0  0  0
    1.7977    0.1758    0.0959 C   0  0  0  0  0  0  0  0  0  0  0  0
   -5.8412   -0.8045   -2.0341 C   0  0  0  0  0  0  0  0  0  0  0  0
    2.4629    3.2337   -0.0685 C   0  0  0  0  0  0  0  0  0  0  0  0
   -2.3529    0.3061    1.3382 C   0  0  0  0  0  0  0  0  0  0  0  0
    2.0339   -2.2643   -0.3325 C   0  0  2  0  0  0  0  0  0  0  0  0
    0.9826   -3.3082    0.1028 C   0  0  0  0  0  0  0  0  0  0  0  0
    2.0525    4.6500   -0.3843 C   0  0  0  0  0  0  0  0  0  0  0  0
    3.4156   -2.8941   -0.4708 C   0  0  0  0  0  0  0  0  0  0  0  0
    1.3806   -3.9808    1.4200 C   0  0  0  0  0  0  0  0  0  0  0  0
   -0.4324   -2.7309    0.2175 C   0  0  0  0  0  0  0  0  0  0  0  0
    0.8078    6.3948   -2.0937 C   0  0  0  0  0  0  0  0  0  0  0  0
    4.6956   -4.5514   -1.5741 C   0  0  0  0  0  0  0  0  0  0  0  0
   -0.9974    2.0768    2.6853 H   0  0  0  0  0  0  0  0  0  0  0  0
    2.8794    1.1800    1.6228 H   0  0  0  0  0  0  0  0  0  0  0  0
    1.1631    1.3055    3.2271 H   0  0  0  0  0  0  0  0  0  0  0  0
    0.5409   -0.1345    2.4150 H   0  0  0  0  0  0  0  0  0  0  0  0
    0.4617    3.7523    1.9040 H   0  0  0  0  0  0  0  0  0  0  0  0
   -0.3406    3.4046    0.3491 H   0  0  0  0  0  0  0  0  0  0  0  0
   -4.1102   -1.6070    1.3879 H   0  0  0  0  0  0  0  0  0  0  0  0
   -3.2833   -2.7387   -0.7143 H   0  0  0  0  0  0  0  0  0  0  0  0
   -5.0039   -2.9334   -0.4000 H   0  0  0  0  0  0  0  0  0  0  0  0
   -5.3820    0.5600    1.1223 H   0  0  0  0  0  0  0  0  0  0  0  0
   -6.3044   -0.8896    0.7375 H   0  0  0  0  0  0  0  0  0  0  0  0
   -1.0144    1.0383   -0.0725 H   0  0  0  0  0  0  0  0  0  0  0  0
   -3.7285   -1.0163   -2.4117 H   0  0  0  0  0  0  0  0  0  0  0  0
   -4.6695   -2.4579   -2.7653 H   0  0  0  0  0  0  0  0  0  0  0  0
   -5.0324    1.0386   -1.2618 H   0  0  0  0  0  0  0  0  0  0  0  0
   -6.7497    0.8192   -0.9452 H   0  0  0  0  0  0  0  0  0  0  0  0
   -6.0068   -0.3602   -3.0220 H   0  0  0  0  0  0  0  0  0  0  0  0
   -6.6965   -1.4611   -1.8323 H   0  0  0  0  0  0  0  0  0  0  0  0
   -2.6886   -0.0570   -0.6735 H   0  0  0  0  0  0  0  0  0  0  0  0
    2.3470   -1.2521    1.5005 H   0  0  0  0  0  0  0  0  0  0  0  0
    1.7699   -1.9141   -1.3389 H   0  0  0  0  0  0  0  0  0  0  0  0
    0.9459   -4.0958   -0.6617 H   0  0  0  0  0  0  0  0  0  0  0  0
    1.4452    5.0955    0.4057 H   0  0  0  0  0  0  0  0  0  0  0  0
    2.9620    5.2532   -0.4779 H   0  0  0  0  0  0  0  0  0  0  0  0
    0.6385   -4.7366    1.7006 H   0  0  0  0  0  0  0  0  0  0  0  0
    2.3446   -4.4929    1.3419 H   0  0  0  0  0  0  0  0  0  0  0  0
    1.4413   -3.2596    2.2417 H   0  0  0  0  0  0  0  0  0  0  0  0
   -1.1585   -3.5295    0.4022 H   0  0  0  0  0  0  0  0  0  0  0  0
   -0.7181   -2.2216   -0.7084 H   0  0  0  0  0  0  0  0  0  0  0  0
   -0.5075   -2.0175    1.0431 H   0  0  0  0  0  0  0  0  0  0  0  0
    0.1862    6.7200   -1.2553 H   0  0  0  0  0  0  0  0  0  0  0  0
    1.7332    6.9761   -2.1143 H   0  0  0  0  0  0  0  0  0  0  0  0
    0.2615    6.5767   -3.0229 H   0  0  0  0  0  0  0  0  0  0  0  0
    5.4358   -3.8331   -1.9391 H   0  0  0  0  0  0  0  0  0  0  0  0
    5.0306   -5.0123   -0.6400 H   0  0  0  0  0  0  0  0  0  0  0  0
    4.5668   -5.3351   -2.3254 H   0  0  0  0  0  0  0  0  0  0  0  0
  1 26  1  0  0  0  0
  1 30  1  0  0  0  0
  2 20  2  0  0  0  0
  3 22  2  0  0  0  0
  4 23  2  0  0  0  0
  5 27  1  0  0  0  0
  5 31  1  0  0  0  0
  6 27  2  0  0  0  0
  7 12  1  0  0  0  0
  7 14  1  0  0  0  0
  7 22  1  0  0  0  0
  8 11  1  0  0  0  0
  8 23  1  0  0  0  0
  8 43  1  0  0  0  0
  9 15  1  0  0  0  0
  9 23  1  0  0  0  0
  9 50  1  0  0  0  0
 10 20  1  0  0  0  0
 10 24  1  0  0  0  0
 10 51  1  0  0  0  0
 11 13  1  0  0  0  0
 11 14  1  0  0  0  0
 11 32  1  0  0  0  0
 12 13  1  0  0  0  0
 12 20  1  0  0  0  0
 12 33  1  0  0  0  0
 13 34  1  0  0  0  0
 13 35  1  0  0  0  0
 14 36  1  0  0  0  0
 14 37  1  0  0  0  0
 15 16  1  0  0  0  0
 15 17  1  0  0  0  0
 15 38  1  0  0  0  0
 16 18  1  0  0  0  0
 16 39  1  0  0  0  0
 16 40  1  0  0  0  0
 17 19  1  0  0  0  0
 17 41  1  0  0  0  0
 17 42  1  0  0  0  0
 18 21  1  0  0  0  0
 18 44  1  0  0  0  0
 18 45  1  0  0  0  0
 19 21  1  0  0  0  0
 19 46  1  0  0  0  0
 19 47  1  0  0  0  0
 21 48  1  0  0  0  0
 21 49  1  0  0  0  0
 22 26  1  0  0  0  0
 24 25  1  0  0  0  0
 24 27  1  0  0  0  0
 24 52  1  0  0  0  0
 25 28  1  0  0  0  0
 25 29  1  0  0  0  0
 25 53  1  0  0  0  0
 26 54  1  0  0  0  0
 26 55  1  0  0  0  0
 28 56  1  0  0  0  0
 28 57  1  0  0  0  0
 28 58  1  0  0  0  0
 29 59  1  0  0  0  0
 29 60  1  0  0  0  0
 29 61  1  0  0  0  0
 30 62  1  0  0  0  0
 30 63  1  0  0  0  0
 30 64  1  0  0  0  0
 31 65  1  0  0  0  0
 31 66  1  0  0  0  0
 31 67  1  0  0  0  0
M  END
> <PUBCHEM_COMPOUND_CID>
7049410

> <PUBCHEM_CONFORMER_RMSD>
1.2

> <PUBCHEM_CONFORMER_DIVERSEORDER>
1
32
17
5
14
26
7
11
29
22
10
25
21
30
9
24
27
8
4
12
20
6
3
18
19
13
2
23
15
31
28
16

> <PUBCHEM_MMFF94_PARTIAL_CHARGES>
25
1 -0.46
10 -0.73
11 0.3
12 0.36
14 0.3
15 0.3
2 -0.57
20 0.57
22 0.57
23 0.69
24 0.36
26 0.29
27 0.66
3 -0.57
30 0.23
31 0.28
4 -0.57
43 0.37
5 -0.43
50 0.37
51 0.37
6 -0.57
7 -0.66
8 -0.73
9 -0.73

> <PUBCHEM_EFFECTIVE_ROTOR_COUNT>
15.2

> <PUBCHEM_PHARMACOPHORE_FEATURES>
11
1 10 donor
1 2 acceptor
1 3 acceptor
1 30 hydrophobe
1 4 acceptor
1 6 acceptor
1 8 donor
1 9 donor
3 25 28 29 hydrophobe
5 7 11 12 13 14 rings
6 15 16 17 18 19 21 rings

> <PUBCHEM_HEAVY_ATOM_COUNT>
31

> <PUBCHEM_ATOM_DEF_STEREO_COUNT>
3

> <PUBCHEM_ATOM_UDEF_STEREO_COUNT>
0

> <PUBCHEM_BOND_DEF_STEREO_COUNT>
0

> <PUBCHEM_BOND_UDEF_STEREO_COUNT>
0

> <PUBCHEM_ISOTOPIC_ATOM_COUNT>
0

> <PUBCHEM_COMPONENT_COUNT>
1

> <PUBCHEM_CACTVS_TAUTO_COUNT>
6

> <PUBCHEM_CONFORMER_ID>
006B90C200000001

> <PUBCHEM_MMFF94_ENERGY>
53.9454

> <PUBCHEM_FEATURE_SELFOVERLAP>
55.872

> <PUBCHEM_SHAPE_FINGERPRINT>
11069576 57 18201150048590757935
11315621 246 17480883934821991014
12788726 201 17394739371395042936
13004483 165 17616255784251462570
14114206 34 17827376391966478882
14114211 68 18051143784904374431
14114211 80 17260212393107967707
14674994 50 17696477282370116561
16988056 13 18335974307435128141
16989713 51 17696199106535503262
19319366 153 17841990280188885533
20775530 9 18196088846408292883
23559900 14 18201705242403383443
238 59 18338237179980684795
3103668 31 17834396713664286447
4280585 95 18196645207676277450
46194498 28 18260819424071205277
5223283 242 18190722160903198357

> <PUBCHEM_SHAPE_MULTIPOLES>
592.54
10.03
8.17
2.16
17.96
4.54
-0.05
-5.06
5.4
-14.44
5.4
0.74
0.96
-0.02

> <PUBCHEM_SHAPE_SELFOVERLAP>
1179.542

> <PUBCHEM_SHAPE_VOLUME>
354.2

> <PUBCHEM_COORDINATE_TYPE>
2
5
10

$$$$
