7142689
  -OEChem-12032416113D

 61 65  0     1  0  0  0  0  0999 V2000
   -0.0925    2.9511    1.1983 O   0  0  0  0  0  0  0  0  0  0  0  0
   -4.0254   -0.1193    2.5656 O   0  0  0  0  0  0  0  0  0  0  0  0
    2.3334   -0.7008   -0.8717 O   0  0  0  0  0  0  0  0  0  0  0  0
   -1.8887   -5.2095   -0.3743 O   0  0  0  0  0  0  0  0  0  0  0  0
    8.6277   -0.5385    0.1323 O   0  0  0  0  0  0  0  0  0  0  0  0
    7.3364   -1.5711   -1.4276 O   0  0  0  0  0  0  0  0  0  0  0  0
   -4.4192    0.6065    0.3764 N   0  0  0  0  0  0  0  0  0  0  0  0
   -1.8066    2.2936   -0.2470 N   0  0  0  0  0  0  0  0  0  0  0  0
    1.7896    1.4237   -0.0964 N   0  0  0  0  0  0  0  0  0  0  0  0
   -4.2322    3.0654    0.0407 C   0  0  1  0  0  0  0  0  0  0  0  0
   -3.6439    1.5323   -1.7937 C   0  0  2  0  0  0  0  0  0  0  0  0
   -4.3274    2.8593   -1.4672 C   0  0  0  0  0  0  0  0  0  0  0  0
   -4.9319    1.9139    0.7853 C   0  0  0  0  0  0  0  0  0  0  0  0
   -2.7539    3.1907    0.4298 C   0  0  0  0  0  0  0  0  0  0  0  0
   -4.3803    0.3822   -1.0778 C   0  0  0  0  0  0  0  0  0  0  0  0
   -2.1877    1.5497   -1.3685 C   0  0  0  0  0  0  0  0  0  0  0  0
   -1.2775    0.8260   -2.0416 C   0  0  0  0  0  0  0  0  0  0  0  0
   -0.4790    2.3000    0.2266 C   0  0  0  0  0  0  0  0  0  0  0  0
   -3.9953   -0.3012    1.3497 C   0  0  0  0  0  0  0  0  0  0  0  0
    0.4986    1.4589   -0.5344 C   0  0  0  0  0  0  0  0  0  0  0  0
    0.0918    0.7808   -1.6127 C   0  0  0  0  0  0  0  0  0  0  0  0
   -3.4447   -1.5838    0.8997 C   0  0  0  0  0  0  0  0  0  0  0  0
   -2.0787   -1.7048    0.6579 C   0  0  0  0  0  0  0  0  0  0  0  0
   -4.2908   -2.6747    0.7162 C   0  0  0  0  0  0  0  0  0  0  0  0
    2.6346    0.3398   -0.2923 C   0  0  0  0  0  0  0  0  0  0  0  0
   -1.5553   -2.9247    0.2295 C   0  0  0  0  0  0  0  0  0  0  0  0
   -3.7673   -3.8947    0.2880 C   0  0  0  0  0  0  0  0  0  0  0  0
   -2.3995   -4.0197    0.0447 C   0  0  0  0  0  0  0  0  0  0  0  0
    4.0146    0.4949    0.2366 C   0  0  0  0  0  0  0  0  0  0  0  0
    5.0395   -0.2104   -0.3589 C   0  0  0  0  0  0  0  0  0  0  0  0
    4.2263    1.3401    1.3060 C   0  0  0  0  0  0  0  0  0  0  0  0
    6.3349   -0.0639    0.1374 C   0  0  0  0  0  0  0  0  0  0  0  0
    5.5215    1.4866    1.8023 C   0  0  0  0  0  0  0  0  0  0  0  0
   -0.4819   -5.2671   -0.6058 C   0  0  0  0  0  0  0  0  0  0  0  0
    6.5758    0.7847    1.2179 C   0  0  0  0  0  0  0  0  0  0  0  0
    7.4348   -0.7959   -0.4708 C   0  0  0  0  0  0  0  0  0  0  0  0
   -4.7417    3.9967    0.3174 H   0  0  0  0  0  0  0  0  0  0  0  0
   -3.7131    1.3682   -2.8768 H   0  0  0  0  0  0  0  0  0  0  0  0
   -5.3769    2.8384   -1.7853 H   0  0  0  0  0  0  0  0  0  0  0  0
   -3.8457    3.6875   -2.0019 H   0  0  0  0  0  0  0  0  0  0  0  0
   -4.8332    2.0478    1.8678 H   0  0  0  0  0  0  0  0  0  0  0  0
   -6.0046    1.9195    0.5564 H   0  0  0  0  0  0  0  0  0  0  0  0
   -2.6311    3.0756    1.5141 H   0  0  0  0  0  0  0  0  0  0  0  0
   -2.4145    4.2087    0.1946 H   0  0  0  0  0  0  0  0  0  0  0  0
   -3.9216   -0.5771   -1.3293 H   0  0  0  0  0  0  0  0  0  0  0  0
   -5.4221    0.3340   -1.4182 H   0  0  0  0  0  0  0  0  0  0  0  0
   -1.5515    0.2326   -2.9077 H   0  0  0  0  0  0  0  0  0  0  0  0
    0.7468    0.1992   -2.2498 H   0  0  0  0  0  0  0  0  0  0  0  0
    2.0570    2.1852    0.5175 H   0  0  0  0  0  0  0  0  0  0  0  0
   -1.4122   -0.8606    0.8094 H   0  0  0  0  0  0  0  0  0  0  0  0
   -5.3579   -2.5871    0.9024 H   0  0  0  0  0  0  0  0  0  0  0  0
   -0.4842   -2.9518    0.0606 H   0  0  0  0  0  0  0  0  0  0  0  0
   -4.4299   -4.7439    0.1452 H   0  0  0  0  0  0  0  0  0  0  0  0
    4.8490   -0.8661   -1.2042 H   0  0  0  0  0  0  0  0  0  0  0  0
    3.4361    1.8728    1.8228 H   0  0  0  0  0  0  0  0  0  0  0  0
    5.7078    2.1394    2.6502 H   0  0  0  0  0  0  0  0  0  0  0  0
    7.5678    0.9267    1.6377 H   0  0  0  0  0  0  0  0  0  0  0  0
    0.0847   -5.0908    0.3148 H   0  0  0  0  0  0  0  0  0  0  0  0
   -0.2497   -6.2855   -0.9341 H   0  0  0  0  0  0  0  0  0  0  0  0
   -0.1793   -4.5934   -1.4147 H   0  0  0  0  0  0  0  0  0  0  0  0
    9.3627   -1.0363   -0.2854 H   0  0  0  0  0  0  0  0  0  0  0  0
  1 18  2  0  0  0  0
  2 19  2  0  0  0  0
  3 25  2  0  0  0  0
  4 28  1  0  0  0  0
  4 34  1  0  0  0  0
  5 36  1  0  0  0  0
  5 61  1  0  0  0  0
  6 36  2  0  0  0  0
  7 13  1  0  0  0  0
  7 15  1  0  0  0  0
  7 19  1  0  0  0  0
  8 14  1  0  0  0  0
  8 16  1  0  0  0  0
  8 18  1  0  0  0  0
  9 20  1  0  0  0  0
  9 25  1  0  0  0  0
  9 49  1  0  0  0  0
 10 12  1  0  0  0  0
 10 13  1  0  0  0  0
 10 14  1  0  0  0  0
 10 37  1  0  0  0  0
 11 12  1  0  0  0  0
 11 15  1  0  0  0  0
 11 16  1  0  0  0  0
 11 38  1  0  0  0  0
 12 39  1  0  0  0  0
 12 40  1  0  0  0  0
 13 41  1  0  0  0  0
 13 42  1  0  0  0  0
 14 43  1  0  0  0  0
 14 44  1  0  0  0  0
 15 45  1  0  0  0  0
 15 46  1  0  0  0  0
 16 17  2  0  0  0  0
 17 21  1  0  0  0  0
 17 47  1  0  0  0  0
 18 20  1  0  0  0  0
 19 22  1  0  0  0  0
 20 21  2  0  0  0  0
 21 48  1  0  0  0  0
 22 23  2  0  0  0  0
 22 24  1  0  0  0  0
 23 26  1  0  0  0  0
 23 50  1  0  0  0  0
 24 27  2  0  0  0  0
 24 51  1  0  0  0  0
 25 29  1  0  0  0  0
 26 28  2  0  0  0  0
 26 52  1  0  0  0  0
 27 28  1  0  0  0  0
 27 53  1  0  0  0  0
 29 30  2  0  0  0  0
 29 31  1  0  0  0  0
 30 32  1  0  0  0  0
 30 54  1  0  0  0  0
 31 33  2  0  0  0  0
 31 55  1  0  0  0  0
 32 35  2  0  0  0  0
 32 36  1  0  0  0  0
 33 35  1  0  0  0  0
 33 56  1  0  0  0  0
 34 58  1  0  0  0  0
 34 59  1  0  0  0  0
 34 60  1  0  0  0  0
 35 57  1  0  0  0  0
M  END
> <PUBCHEM_COMPOUND_CID>
7142689

> <PUBCHEM_CONFORMER_RMSD>
1

> <PUBCHEM_CONFORMER_DIVERSEORDER>
1
4
18
22
6
12
24
19
15
21
16
2
25
17
11
20
3
10
13
23
9
14
8
7
5

> <PUBCHEM_MMFF94_PARTIAL_CHARGES>
46
1 -0.57
11 0.14
13 0.3
14 0.3
15 0.3
16 -0.03
17 -0.15
18 0.62
19 0.54
2 -0.57
20 0.12
21 -0.15
22 0.09
23 -0.15
24 -0.15
25 0.54
26 -0.15
27 -0.15
28 0.08
29 0.09
3 -0.57
30 -0.15
31 -0.15
32 0.09
33 -0.15
34 0.28
35 -0.15
36 0.63
4 -0.36
47 0.15
48 0.15
49 0.37
5 -0.65
50 0.15
51 0.15
52 0.15
53 0.15
54 0.15
55 0.15
56 0.15
57 0.15
6 -0.57
61 0.5
7 -0.66
8 -0.47
9 -0.54

> <PUBCHEM_EFFECTIVE_ROTOR_COUNT>
8

> <PUBCHEM_PHARMACOPHORE_FEATURES>
13
1 1 acceptor
1 2 acceptor
1 3 acceptor
1 4 acceptor
1 5 acceptor
1 6 acceptor
1 9 donor
3 5 6 36 anion
6 22 23 24 26 27 28 rings
6 29 30 31 32 33 35 rings
6 7 10 11 12 13 15 rings
6 8 10 11 12 14 16 rings
6 8 16 17 18 20 21 rings

> <PUBCHEM_HEAVY_ATOM_COUNT>
36

> <PUBCHEM_ATOM_DEF_STEREO_COUNT>
2

> <PUBCHEM_ATOM_UDEF_STEREO_COUNT>
0

> <PUBCHEM_BOND_DEF_STEREO_COUNT>
0

> <PUBCHEM_BOND_UDEF_STEREO_COUNT>
0

> <PUBCHEM_ISOTOPIC_ATOM_COUNT>
0

> <PUBCHEM_COMPONENT_COUNT>
1

> <PUBCHEM_CACTVS_TAUTO_COUNT>
2

> <PUBCHEM_CONFORMER_ID>
006CFD2100000001

> <PUBCHEM_MMFF94_ENERGY>
123.2218

> <PUBCHEM_FEATURE_SELFOVERLAP>
67.614

> <PUBCHEM_SHAPE_FINGERPRINT>
10290309 65 18119243965557030255
10483366 6 18264468746736336223
10675989 125 17181075640852679981
10940486 97 18186803586465092524
11524674 6 18336540539091514829
12522641 33 18189886523597824229
12633257 1 18127152942365508097
12643181 29 18408880708029283154
14114206 34 15937231422303218365
14844126 61 18263077863825157147
14856354 85 16371017303333179122
14950920 106 17988371471720112072
15021287 119 16805330989480639700
15183329 4 15285358427504844800
15230672 131 18262797338395629178
15320294 125 18040157318347934935
15352257 5 18260830342136612410
15361156 5 18116443720664719410
19611394 137 18272367624994941384
20771845 165 17463403916027322581
20775530 9 17545615903706094839
23516275 137 17827939338162964994
23559900 14 18411415086463217992
244849 19 17774179923971477718
249057 3 17822008684038459589
25223398 141 18409171043671407262
3383291 50 18410570721715382099
397830 11 18340760564057555224
4017518 198 18337950095761043247
4073 2 18412818093770764816
4409770 3 18334852827650739911
44802255 64 16805874101380722503
45266715 3 18269547239708301951
484985 159 18261663861838902751
5080951 261 17897135062336641324
6609424 69 11479691363280962183

> <PUBCHEM_SHAPE_MULTIPOLES>
690.7
16.86
5.5
1.64
43.22
8.17
-0.05
0
-2.06
-8.88
0.39
-0.58
-0.62
2.44

> <PUBCHEM_SHAPE_SELFOVERLAP>
1525.288

> <PUBCHEM_SHAPE_VOLUME>
364.1

> <PUBCHEM_COORDINATE_TYPE>
2
5
10

$$$$
