11912055
  -OEChem-12032416113D

 50 51  0     1  0  0  0  0  0999 V2000
   -2.1064   -2.4087    1.2586 O   0  0  0  0  0  0  0  0  0  0  0  0
    4.0627    1.0565    1.1237 O   0  0  0  0  0  0  0  0  0  0  0  0
   -0.9260   -0.6605    0.2485 N   0  0  0  0  0  0  0  0  0  0  0  0
    4.3261   -0.0399   -0.9085 N   0  0  0  0  0  0  0  0  0  0  0  0
   -5.0959   -0.8002   -1.5454 N   0  0  0  0  0  0  0  0  0  0  0  0
    1.2401    1.2617    0.6261 C   0  0  1  0  0  0  0  0  0  0  0  0
   -0.1695    1.6892    0.1409 C   0  0  2  0  0  0  0  0  0  0  0  0
    1.1331   -0.0422    1.4411 C   0  0  0  0  0  0  0  0  0  0  0  0
   -0.8877    0.5451   -0.5908 C   0  0  0  0  0  0  0  0  0  0  0  0
    0.3812   -1.1416    0.6931 C   0  0  0  0  0  0  0  0  0  0  0  0
   -0.1507    2.9512   -0.7201 C   0  0  0  0  0  0  0  0  0  0  0  0
    2.2705    1.1175   -0.5000 C   0  0  0  0  0  0  0  0  0  0  0  0
    0.5834    4.0770   -0.0231 C   0  0  0  0  0  0  0  0  0  0  0  0
   -2.0765   -1.3746    0.5929 C   0  0  0  0  0  0  0  0  0  0  0  0
    3.6368    0.7262    0.0202 C   0  0  0  0  0  0  0  0  0  0  0  0
   -3.3748   -0.8565    0.1437 C   0  0  0  0  0  0  0  0  0  0  0  0
    5.6583   -0.5504   -0.6784 C   0  0  0  0  0  0  0  0  0  0  0  0
   -4.0969    0.0293    0.9299 C   0  0  0  0  0  0  0  0  0  0  0  0
   -3.9077   -1.2392   -1.0730 C   0  0  0  0  0  0  0  0  0  0  0  0
    5.6476   -1.9270   -0.0246 C   0  0  0  0  0  0  0  0  0  0  0  0
   -5.3236    0.5031    0.4781 C   0  0  0  0  0  0  0  0  0  0  0  0
    4.9506   -2.9777   -0.8772 C   0  0  0  0  0  0  0  0  0  0  0  0
   -5.7747    0.0618   -0.7555 C   0  0  0  0  0  0  0  0  0  0  0  0
    1.6116    2.0220    1.3260 H   0  0  0  0  0  0  0  0  0  0  0  0
   -0.7595    1.9131    1.0426 H   0  0  0  0  0  0  0  0  0  0  0  0
    2.1081   -0.4210    1.7612 H   0  0  0  0  0  0  0  0  0  0  0  0
    0.5817    0.1815    2.3649 H   0  0  0  0  0  0  0  0  0  0  0  0
   -0.3724    0.2779   -1.5207 H   0  0  0  0  0  0  0  0  0  0  0  0
   -1.8938    0.8657   -0.8707 H   0  0  0  0  0  0  0  0  0  0  0  0
    0.9353   -1.4699   -0.1931 H   0  0  0  0  0  0  0  0  0  0  0  0
    0.2688   -2.0143    1.3445 H   0  0  0  0  0  0  0  0  0  0  0  0
   -1.1829    3.2684   -0.9142 H   0  0  0  0  0  0  0  0  0  0  0  0
    0.3026    2.7607   -1.6995 H   0  0  0  0  0  0  0  0  0  0  0  0
    2.4116    2.0602   -1.0382 H   0  0  0  0  0  0  0  0  0  0  0  0
    1.9301    0.3830   -1.2377 H   0  0  0  0  0  0  0  0  0  0  0  0
    0.4458    5.0075   -0.5849 H   0  0  0  0  0  0  0  0  0  0  0  0
    1.6609    3.9086    0.0449 H   0  0  0  0  0  0  0  0  0  0  0  0
    0.1929    4.2430    0.9864 H   0  0  0  0  0  0  0  0  0  0  0  0
    3.8915   -0.2572   -1.8005 H   0  0  0  0  0  0  0  0  0  0  0  0
    6.2045    0.1551   -0.0429 H   0  0  0  0  0  0  0  0  0  0  0  0
    6.1632   -0.5903   -1.6494 H   0  0  0  0  0  0  0  0  0  0  0  0
   -3.7155    0.3580    1.8927 H   0  0  0  0  0  0  0  0  0  0  0  0
   -3.3851   -1.9291   -1.7284 H   0  0  0  0  0  0  0  0  0  0  0  0
    6.6812   -2.2432    0.1568 H   0  0  0  0  0  0  0  0  0  0  0  0
    5.1497   -1.8740    0.9509 H   0  0  0  0  0  0  0  0  0  0  0  0
   -5.9077    1.1963    1.0722 H   0  0  0  0  0  0  0  0  0  0  0  0
    5.0192   -3.9584   -0.3955 H   0  0  0  0  0  0  0  0  0  0  0  0
    3.8893   -2.7458   -1.0111 H   0  0  0  0  0  0  0  0  0  0  0  0
    5.4155   -3.0524   -1.8654 H   0  0  0  0  0  0  0  0  0  0  0  0
   -6.7251    0.4018   -1.1533 H   0  0  0  0  0  0  0  0  0  0  0  0
  1 14  2  0  0  0  0
  2 15  2  0  0  0  0
  3  9  1  0  0  0  0
  3 10  1  0  0  0  0
  3 14  1  0  0  0  0
  4 15  1  0  0  0  0
  4 17  1  0  0  0  0
  4 39  1  0  0  0  0
  5 19  1  0  0  0  0
  5 23  2  0  0  0  0
  6  7  1  0  0  0  0
  6  8  1  0  0  0  0
  6 12  1  0  0  0  0
  6 24  1  0  0  0  0
  7  9  1  0  0  0  0
  7 11  1  0  0  0  0
  7 25  1  0  0  0  0
  8 10  1  0  0  0  0
  8 26  1  0  0  0  0
  8 27  1  0  0  0  0
  9 28  1  0  0  0  0
  9 29  1  0  0  0  0
 10 30  1  0  0  0  0
 10 31  1  0  0  0  0
 11 13  1  0  0  0  0
 11 32  1  0  0  0  0
 11 33  1  0  0  0  0
 12 15  1  0  0  0  0
 12 34  1  0  0  0  0
 12 35  1  0  0  0  0
 13 36  1  0  0  0  0
 13 37  1  0  0  0  0
 13 38  1  0  0  0  0
 14 16  1  0  0  0  0
 16 18  1  0  0  0  0
 16 19  2  0  0  0  0
 17 20  1  0  0  0  0
 17 40  1  0  0  0  0
 17 41  1  0  0  0  0
 18 21  2  0  0  0  0
 18 42  1  0  0  0  0
 19 43  1  0  0  0  0
 20 22  1  0  0  0  0
 20 44  1  0  0  0  0
 20 45  1  0  0  0  0
 21 23  1  0  0  0  0
 21 46  1  0  0  0  0
 22 47  1  0  0  0  0
 22 48  1  0  0  0  0
 22 49  1  0  0  0  0
 23 50  1  0  0  0  0
M  END
> <PUBCHEM_COMPOUND_CID>
11912055

> <PUBCHEM_CONFORMER_RMSD>
1

> <PUBCHEM_CONFORMER_DIVERSEORDER>
1
290
285
99
237
89
204
251
10
94
37
202
92
193
241
156
71
152
155
181
275
262
283
166
159
244
56
232
210
277
220
146
44
267
253
120
79
151
100
184
126
135
263
264
236
203
77
81
109
178
239
240
238
226
201
180
137
257
150
63
167
161
177
105
189
281
141
132
154
254
51
144
279
288
138
69
21
256
153
140
70
129
291
86
163
249
265
216
246
148
259
260
40
23
136
66
14
175
215
115
273
194
284
286
33
22
276
250
158
29
272
113
131
185
188
186
280
160
252
170
287
149
207
209
68
258
221
128
142
266
242
90
39
110
42
75
101
190
41
255
28
17
74
245
219
6
143
164
173
84
289
214
179
108
19
88
60
114
116
217
57
54
165
32
124
145
72
169
227
171
168
134
183
187
218
76
127
46
191
61
27
212
261
198
197
103
85
162
119
91
176
271
59
96
65
228
172
199
50
195
58
95
36
130
157
97
270
53
104
118
43
83
139
121
18
93
45
222
213
73
20
206
112
234
62
87
47
107
64
205
26
225
235
98
15
80
211
55
111
67
5
147
52
248
192
282
200
13
125
25
224
78
230
117
269
82
30
3
35
233
11
122
48
34
196
4
38
274
268
9
133
106
223
102
31
123
231
247
208
24
49
243
182
229
8
7
2
174
278
16
12

> <PUBCHEM_MMFF94_PARTIAL_CHARGES>
21
1 -0.57
10 0.3
12 0.06
14 0.54
15 0.57
16 0.09
17 0.3
18 -0.15
19 0.16
2 -0.57
21 -0.15
23 0.16
3 -0.66
39 0.37
4 -0.73
42 0.15
43 0.15
46 0.15
5 -0.62
50 0.15
9 0.3

> <PUBCHEM_EFFECTIVE_ROTOR_COUNT>
9.2

> <PUBCHEM_PHARMACOPHORE_FEATURES>
8
1 1 acceptor
1 13 hydrophobe
1 2 acceptor
1 22 hydrophobe
1 4 donor
1 5 acceptor
6 3 6 7 8 9 10 rings
6 5 16 18 19 21 23 rings

> <PUBCHEM_HEAVY_ATOM_COUNT>
23

> <PUBCHEM_ATOM_DEF_STEREO_COUNT>
2

> <PUBCHEM_ATOM_UDEF_STEREO_COUNT>
0

> <PUBCHEM_BOND_DEF_STEREO_COUNT>
0

> <PUBCHEM_BOND_UDEF_STEREO_COUNT>
0

> <PUBCHEM_ISOTOPIC_ATOM_COUNT>
0

> <PUBCHEM_COMPONENT_COUNT>
1

> <PUBCHEM_CACTVS_TAUTO_COUNT>
2

> <PUBCHEM_CONFORMER_ID>
00B5C37700000001

> <PUBCHEM_MMFF94_ENERGY>
48.0702

> <PUBCHEM_FEATURE_SELFOVERLAP>
40.596

> <PUBCHEM_SHAPE_FINGERPRINT>
10693767 8 18342442747395749127
12011746 2 18187358836053224189
12553582 1 18260821618425031713
12596602 18 15195563503155586462
12670543 26 18333729096090614487
12760667 363 18339927017809838382
12788726 201 18187642441085729312
12954195 1 18265333898112884852
13134695 92 17917151735555033745
13533116 47 18059856160571430018
13583140 156 16484997227054597465
14022347 108 18040990765568414672
14341114 328 11963384146336586199
14347329 18 16589404459601654389
14347332 77 18192991522416442378
14508225 48 18335143077188296356
146900 427 8935008074377481046
14866123 147 18123195593225676808
14955137 171 18188507855615897753
15099037 51 18261672661836144631
15183329 4 18412546496185152582
15475509 8 18410297969405624117
1601671 61 18260823821780151569
17492 89 18053098720921260039
17857418 61 18201440246894310470
19784866 140 18187081715777608818
21279426 13 18335415712794848397
21285901 2 18271251516980011334
21478907 32 18338518513386848444
21641784 216 17168422653938553580
22079108 93 8862939468359936378
2215653 11 18410293605713615758
23175994 123 18334577966480761149
23402539 116 18342458127535719109
23536364 44 18189324680701466821
23559900 14 18263369243265626636
23569943 247 18268993081564283659
3004659 81 18041000640188539278
314173 85 18409727383053124224
3459 83 18341616992729870851
463206 1 18411138060956854510
5207 123 18411983550906143052
59755656 215 18260547771394803290
633830 44 17241045543140099698
70251023 43 17689717884736884563
8988823 20 17489583481241897658
960060 61 18411423938321866790
9971528 1 18341889744427939600
9981440 41 16972225052086632561

> <PUBCHEM_SHAPE_MULTIPOLES>
446.65
13.04
3.18
1.2
2.01
2.31
0.02
-8.01
-3.48
2.45
-0.34
-0.46
-0.27
0.55

> <PUBCHEM_SHAPE_SELFOVERLAP>
910.982

> <PUBCHEM_SHAPE_VOLUME>
255.6

> <PUBCHEM_COORDINATE_TYPE>
2
5
10

$$$$
