25389060
  -OEChem-12032416163D

 65 69  0     1  0  0  0  0  0999 V2000
    3.3731   -2.4427   -1.3142 O   0  0  0  0  0  0  0  0  0  0  0  0
    7.0021    2.3493    0.6649 O   0  0  0  0  0  0  0  0  0  0  0  0
   -1.0342   -3.3444   -0.4862 N   0  0  2  0  0  0  0  0  0  0  0  0
   -4.8346   -0.4949   -0.1830 N   0  0  0  0  0  0  0  0  0  0  0  0
    1.7281   -0.8418   -0.9732 N   0  0  0  0  0  0  0  0  0  0  0  0
   -5.2419    0.7674   -0.3996 N   0  0  0  0  0  0  0  0  0  0  0  0
   -1.7348   -1.9452    1.5957 C   0  0  2  0  0  0  0  0  0  0  0  0
   -2.8578   -1.9222    0.5221 C   0  0  2  0  0  0  0  0  0  0  0  0
    0.0511   -2.3956   -0.1227 C   0  0  2  0  0  0  0  0  0  0  0  0
   -0.4240   -1.4187    0.9742 C   0  0  0  0  0  0  0  0  0  0  0  0
   -2.2899   -2.6009   -0.7571 C   0  0  0  0  0  0  0  0  0  0  0  0
   -1.5000   -3.4262    1.9627 C   0  0  0  0  0  0  0  0  0  0  0  0
   -1.2660   -4.2361    0.6754 C   0  0  0  0  0  0  0  0  0  0  0  0
   -3.5347   -0.5932    0.2186 C   0  0  0  0  0  0  0  0  0  0  0  0
    0.6116   -1.6572   -1.3401 C   0  0  0  0  0  0  0  0  0  0  0  0
   -3.0586    0.6941    0.2678 C   0  0  0  0  0  0  0  0  0  0  0  0
   -4.1988    2.9958   -0.2463 C   0  0  0  0  0  0  0  0  0  0  0  0
   -4.1527    1.4892   -0.1225 C   0  0  0  0  0  0  0  0  0  0  0  0
   -3.9112    3.7063    1.0884 C   0  0  0  0  0  0  0  0  0  0  0  0
   -3.1938    3.5853   -1.2577 C   0  0  0  0  0  0  0  0  0  0  0  0
   -3.1398    4.9589    0.7014 C   0  0  0  0  0  0  0  0  0  0  0  0
   -2.2667    4.4826   -0.4460 C   0  0  0  0  0  0  0  0  0  0  0  0
   -5.7648   -1.5809   -0.3871 C   0  0  0  0  0  0  0  0  0  0  0  0
    3.0425   -1.3054   -0.9890 C   0  0  0  0  0  0  0  0  0  0  0  0
    4.0868   -0.3422   -0.5546 C   0  0  0  0  0  0  0  0  0  0  0  0
    5.2791   -0.8089   -0.0012 C   0  0  0  0  0  0  0  0  0  0  0  0
    3.8743    1.0289   -0.6982 C   0  0  0  0  0  0  0  0  0  0  0  0
    6.2587    0.0954    0.4088 C   0  0  0  0  0  0  0  0  0  0  0  0
    4.8538    1.9332   -0.2882 C   0  0  0  0  0  0  0  0  0  0  0  0
    6.0460    1.4664    0.2653 C   0  0  0  0  0  0  0  0  0  0  0  0
    8.1971    1.8036    1.2217 C   0  0  0  0  0  0  0  0  0  0  0  0
   -2.0101   -1.3612    2.4803 H   0  0  0  0  0  0  0  0  0  0  0  0
   -3.6491   -2.5775    0.9163 H   0  0  0  0  0  0  0  0  0  0  0  0
    0.8838   -2.9859    0.2883 H   0  0  0  0  0  0  0  0  0  0  0  0
   -0.5517   -0.4091    0.5816 H   0  0  0  0  0  0  0  0  0  0  0  0
    0.3450   -1.3538    1.7546 H   0  0  0  0  0  0  0  0  0  0  0  0
   -3.0360   -3.3029   -1.1524 H   0  0  0  0  0  0  0  0  0  0  0  0
   -2.1363   -1.8754   -1.5644 H   0  0  0  0  0  0  0  0  0  0  0  0
   -2.3641   -3.8288    2.5040 H   0  0  0  0  0  0  0  0  0  0  0  0
   -0.6320   -3.5123    2.6275 H   0  0  0  0  0  0  0  0  0  0  0  0
   -0.4094   -4.9083    0.8088 H   0  0  0  0  0  0  0  0  0  0  0  0
   -2.1243   -4.8904    0.4764 H   0  0  0  0  0  0  0  0  0  0  0  0
   -0.1294   -0.9901   -1.7917 H   0  0  0  0  0  0  0  0  0  0  0  0
    0.9271   -2.3742   -2.1070 H   0  0  0  0  0  0  0  0  0  0  0  0
   -2.0754    1.0351    0.5507 H   0  0  0  0  0  0  0  0  0  0  0  0
   -5.2072    3.2822   -0.5777 H   0  0  0  0  0  0  0  0  0  0  0  0
   -3.2969    3.0911    1.7570 H   0  0  0  0  0  0  0  0  0  0  0  0
   -4.8337    3.9481    1.6268 H   0  0  0  0  0  0  0  0  0  0  0  0
   -3.7369    4.1949   -1.9908 H   0  0  0  0  0  0  0  0  0  0  0  0
   -2.6330    2.8294   -1.8172 H   0  0  0  0  0  0  0  0  0  0  0  0
    1.5191    0.0912   -0.6348 H   0  0  0  0  0  0  0  0  0  0  0  0
   -2.5536    5.3593    1.5333 H   0  0  0  0  0  0  0  0  0  0  0  0
   -3.8292    5.7392    0.3581 H   0  0  0  0  0  0  0  0  0  0  0  0
   -1.8671    5.3104   -1.0387 H   0  0  0  0  0  0  0  0  0  0  0  0
   -1.4221    3.8987   -0.0611 H   0  0  0  0  0  0  0  0  0  0  0  0
   -5.9703   -2.0462    0.5799 H   0  0  0  0  0  0  0  0  0  0  0  0
   -6.6933   -1.1896   -0.8121 H   0  0  0  0  0  0  0  0  0  0  0  0
   -5.3226   -2.2984   -1.0815 H   0  0  0  0  0  0  0  0  0  0  0  0
    5.4604   -1.8734    0.1230 H   0  0  0  0  0  0  0  0  0  0  0  0
    2.9740    1.4327   -1.1515 H   0  0  0  0  0  0  0  0  0  0  0  0
    7.1603   -0.3349    0.8312 H   0  0  0  0  0  0  0  0  0  0  0  0
    4.6858    3.0001   -0.4083 H   0  0  0  0  0  0  0  0  0  0  0  0
    8.8455    2.6461    1.4839 H   0  0  0  0  0  0  0  0  0  0  0  0
    8.7415    1.1970    0.4902 H   0  0  0  0  0  0  0  0  0  0  0  0
    7.9954    1.2553    2.1481 H   0  0  0  0  0  0  0  0  0  0  0  0
  1 24  2  0  0  0  0
  2 30  1  0  0  0  0
  2 31  1  0  0  0  0
  3  9  1  0  0  0  0
  3 11  1  0  0  0  0
  3 13  1  0  0  0  0
  4  6  1  0  0  0  0
  4 14  1  0  0  0  0
  4 23  1  0  0  0  0
  5 15  1  0  0  0  0
  5 24  1  0  0  0  0
  5 51  1  0  0  0  0
  6 18  2  0  0  0  0
  7  8  1  0  0  0  0
  7 10  1  0  0  0  0
  7 12  1  0  0  0  0
  7 32  1  0  0  0  0
  8 11  1  0  0  0  0
  8 14  1  0  0  0  0
  8 33  1  0  0  0  0
  9 10  1  0  0  0  0
  9 15  1  0  0  0  0
  9 34  1  0  0  0  0
 10 35  1  0  0  0  0
 10 36  1  0  0  0  0
 11 37  1  0  0  0  0
 11 38  1  0  0  0  0
 12 13  1  0  0  0  0
 12 39  1  0  0  0  0
 12 40  1  0  0  0  0
 13 41  1  0  0  0  0
 13 42  1  0  0  0  0
 14 16  2  0  0  0  0
 15 43  1  0  0  0  0
 15 44  1  0  0  0  0
 16 18  1  0  0  0  0
 16 45  1  0  0  0  0
 17 18  1  0  0  0  0
 17 19  1  0  0  0  0
 17 20  1  0  0  0  0
 17 46  1  0  0  0  0
 19 21  1  0  0  0  0
 19 47  1  0  0  0  0
 19 48  1  0  0  0  0
 20 22  1  0  0  0  0
 20 49  1  0  0  0  0
 20 50  1  0  0  0  0
 21 22  1  0  0  0  0
 21 52  1  0  0  0  0
 21 53  1  0  0  0  0
 22 54  1  0  0  0  0
 22 55  1  0  0  0  0
 23 56  1  0  0  0  0
 23 57  1  0  0  0  0
 23 58  1  0  0  0  0
 24 25  1  0  0  0  0
 25 26  2  0  0  0  0
 25 27  1  0  0  0  0
 26 28  1  0  0  0  0
 26 59  1  0  0  0  0
 27 29  2  0  0  0  0
 27 60  1  0  0  0  0
 28 30  2  0  0  0  0
 28 61  1  0  0  0  0
 29 30  1  0  0  0  0
 29 62  1  0  0  0  0
 31 63  1  0  0  0  0
 31 64  1  0  0  0  0
 31 65  1  0  0  0  0
M  END
> <PUBCHEM_COMPOUND_CID>
25389060

> <PUBCHEM_CONFORMER_RMSD>
1

> <PUBCHEM_CONFORMER_DIVERSEORDER>
1
44
56
48
15
69
58
27
41
75
64
7
61
19
37
28
62
54
20
5
32
33
51
65
26
59
24
18
49
68
72
14
46
45
73
34
35
50
60
43
8
17
40
67
3
13
25
70
23
71
6
2
47
74
31
39
55
16
21
76
11
4
63
9
53
66
52
77
57
12
42
30
36
38
22
10
29

> <PUBCHEM_MMFF94_PARTIAL_CHARGES>
30
1 -0.57
11 0.27
13 0.27
14 -0.33
15 0.3
16 -0.15
17 0.18
18 0.11
2 -0.36
23 0.26
24 0.54
25 0.09
26 -0.15
27 -0.15
28 -0.15
29 -0.15
3 -0.81
30 0.08
31 0.28
4 0.31
45 0.15
5 -0.73
51 0.37
59 0.15
6 -0.71
60 0.15
61 0.15
62 0.15
8 0.18
9 0.27

> <PUBCHEM_EFFECTIVE_ROTOR_COUNT>
9.2

> <PUBCHEM_PHARMACOPHORE_FEATURES>
9
1 1 acceptor
1 2 acceptor
1 3 cation
1 5 donor
1 6 acceptor
5 17 19 20 21 22 rings
5 4 6 14 16 18 rings
6 25 26 27 28 29 30 rings
8 3 7 8 9 10 11 12 13 rings

> <PUBCHEM_HEAVY_ATOM_COUNT>
31

> <PUBCHEM_ATOM_DEF_STEREO_COUNT>
3

> <PUBCHEM_ATOM_UDEF_STEREO_COUNT>
0

> <PUBCHEM_BOND_DEF_STEREO_COUNT>
0

> <PUBCHEM_BOND_UDEF_STEREO_COUNT>
0

> <PUBCHEM_ISOTOPIC_ATOM_COUNT>
0

> <PUBCHEM_COMPONENT_COUNT>
1

> <PUBCHEM_CACTVS_TAUTO_COUNT>
2

> <PUBCHEM_CONFORMER_ID>
0183680400000001

> <PUBCHEM_MMFF94_ENERGY>
80.4649

> <PUBCHEM_FEATURE_SELFOVERLAP>
45.672

> <PUBCHEM_SHAPE_FINGERPRINT>
100830 39 18410291437076845484
10087517 78 18411133671066962317
10256941 240 16809243987828570964
10291535 26 18338236080321415379
10883706 163 18334572473339630340
10951579 204 18267604454956334828
11135609 201 18340494357451789785
11476731 118 17980757461510626344
11621639 148 18339653360343675963
12107183 9 18189324681466630562
13402501 40 18342176691192829344
13911987 19 16702026399872742095
14251764 38 18411144601864452868
14251764 75 17982740666938483305
14739800 52 18189047616534927531
14932701 244 18202291269126318161
15119646 57 17274551906161951481
15274700 208 16843312661739945760
15347590 135 17968387831307093459
15419008 145 18335405878111310736
155225 5 18412545384000210632
15968369 153 18199752625205003996
16067690 210 18117541037095079840
16728433 281 18270138850744120404
16992779 147 17620778088862769401
18393751 57 18335996311201704459
19309040 13 16628853764043197617
20771845 165 18201169796972438766
20771845 38 14780085580989563059
21033648 144 18202014243424651926
21133410 221 17984682674676443280
21859007 373 18342461435557147926
23522609 53 17386583474420870660
2838139 119 18269554953221736134
3525247 154 18060413625910728896
373842 8 18192151722744563004
376196 1 18196940967672126855
3918712 181 18337942390494956381
4144715 1 18336837454982764842
4197921 191 18114466751291980500
437795 96 18198332065035888552
44249763 50 17702934981017293862
4756261 7 17983327871226418713
508180 173 17762925176974090294
5283173 99 18341054021349033906
57527306 92 18336535127997757591
5951187 136 17194328067360311613
6371009 1 18334292076262015349
6371380 46 18190750735089542454
6679774 75 14437860769994274043
9981440 41 18188218611117760531

> <PUBCHEM_SHAPE_MULTIPOLES>
606.3
16.6
6.4
1.29
32.11
4.34
0.22
13.55
2.37
-8.26
1.07
0.11
-0.47
1.55

> <PUBCHEM_SHAPE_SELFOVERLAP>
1301.058

> <PUBCHEM_SHAPE_VOLUME>
334.1

> <PUBCHEM_COORDINATE_TYPE>
2
5
10

$$$$
