28962235
  -OEChem-12032416143D

 48 49  0     1  0  0  0  0  0999 V2000
   -3.0806   -0.1452   -0.7475 O   0  0  0  0  0  0  0  0  0  0  0  0
   -2.7496    1.9414    1.3751 O   0  0  0  0  0  0  0  0  0  0  0  0
   -5.7532    0.6019   -1.1985 O   0  0  0  0  0  0  0  0  0  0  0  0
   -0.0102   -3.3315    0.0046 O   0  0  0  0  0  0  0  0  0  0  0  0
   -0.0499    1.4966    0.5175 N   0  0  1  0  0  0  0  0  0  0  0  0
   -2.0330   -2.3905    0.6648 N   0  0  0  0  0  0  0  0  0  0  0  0
    4.4369    1.4375   -0.1221 N   0  0  0  0  0  0  0  0  0  0  0  0
   -1.1854    1.2395   -0.3509 C   0  0  1  0  0  0  0  0  0  0  0  0
   -1.6764   -0.2125   -0.4131 C   0  0  1  0  0  0  0  0  0  0  0  0
   -2.4495    2.0147   -0.0126 C   0  0  1  0  0  0  0  0  0  0  0  0
   -3.4810    1.2368   -0.8210 C   0  0  2  0  0  0  0  0  0  0  0  0
   -1.5557   -1.0304    0.8679 C   0  0  0  0  0  0  0  0  0  0  0  0
   -4.9168    1.3678   -0.3465 C   0  0  0  0  0  0  0  0  0  0  0  0
    1.1982    1.0491   -0.1089 C   0  0  0  0  0  0  0  0  0  0  0  0
    0.0391    2.9213    0.8525 C   0  0  0  0  0  0  0  0  0  0  0  0
    2.3088    0.8967    0.9307 C   0  0  0  0  0  0  0  0  0  0  0  0
    3.6046    0.4578    0.2962 C   0  0  0  0  0  0  0  0  0  0  0  0
   -1.2105   -3.4165    0.2504 C   0  0  0  0  0  0  0  0  0  0  0  0
    3.8764   -0.8954    0.1750 C   0  0  0  0  0  0  0  0  0  0  0  0
   -1.9523   -4.7221    0.1448 C   0  0  0  0  0  0  0  0  0  0  0  0
    5.0802   -1.2670   -0.4133 C   0  0  0  0  0  0  0  0  0  0  0  0
    5.5974    1.0380   -0.6890 C   0  0  0  0  0  0  0  0  0  0  0  0
    5.9627   -0.2880   -0.8561 C   0  0  0  0  0  0  0  0  0  0  0  0
   -0.9273    1.5377   -1.3803 H   0  0  0  0  0  0  0  0  0  0  0  0
   -1.1704   -0.7421   -1.2295 H   0  0  0  0  0  0  0  0  0  0  0  0
   -2.4141    3.0683   -0.3100 H   0  0  0  0  0  0  0  0  0  0  0  0
   -3.4150    1.5093   -1.8822 H   0  0  0  0  0  0  0  0  0  0  0  0
   -2.1745   -0.6130    1.6683 H   0  0  0  0  0  0  0  0  0  0  0  0
   -0.5189   -1.0803    1.2144 H   0  0  0  0  0  0  0  0  0  0  0  0
   -5.2457    2.4111   -0.3719 H   0  0  0  0  0  0  0  0  0  0  0  0
   -5.0406    0.9692    0.6654 H   0  0  0  0  0  0  0  0  0  0  0  0
    1.0542    0.0677   -0.5800 H   0  0  0  0  0  0  0  0  0  0  0  0
    1.5059    1.7301   -0.9143 H   0  0  0  0  0  0  0  0  0  0  0  0
    0.9261    3.1482    1.4510 H   0  0  0  0  0  0  0  0  0  0  0  0
   -0.7876    3.2628    1.4808 H   0  0  0  0  0  0  0  0  0  0  0  0
    0.0820    3.5519   -0.0440 H   0  0  0  0  0  0  0  0  0  0  0  0
   -3.4988    2.5370    1.5459 H   0  0  0  0  0  0  0  0  0  0  0  0
    2.0126    0.1757    1.7039 H   0  0  0  0  0  0  0  0  0  0  0  0
    2.5117    1.8359    1.4557 H   0  0  0  0  0  0  0  0  0  0  0  0
   -3.0171   -2.5760    0.8354 H   0  0  0  0  0  0  0  0  0  0  0  0
   -6.6643    0.7066   -0.8752 H   0  0  0  0  0  0  0  0  0  0  0  0
    3.1803   -1.6516    0.5218 H   0  0  0  0  0  0  0  0  0  0  0  0
   -1.3124   -5.4722   -0.3282 H   0  0  0  0  0  0  0  0  0  0  0  0
   -2.2311   -5.0673    1.1443 H   0  0  0  0  0  0  0  0  0  0  0  0
   -2.8531   -4.5968   -0.4630 H   0  0  0  0  0  0  0  0  0  0  0  0
    5.3300   -2.3176   -0.5269 H   0  0  0  0  0  0  0  0  0  0  0  0
    6.2505    1.8398   -1.0176 H   0  0  0  0  0  0  0  0  0  0  0  0
    6.9065   -0.5545   -1.3178 H   0  0  0  0  0  0  0  0  0  0  0  0
  1  9  1  0  0  0  0
  1 11  1  0  0  0  0
  2 10  1  0  0  0  0
  2 37  1  0  0  0  0
  3 13  1  0  0  0  0
  3 41  1  0  0  0  0
  4 18  2  0  0  0  0
  5  8  1  0  0  0  0
  5 14  1  0  0  0  0
  5 15  1  0  0  0  0
  6 12  1  0  0  0  0
  6 18  1  0  0  0  0
  6 40  1  0  0  0  0
  7 17  1  0  0  0  0
  7 22  2  0  0  0  0
  8  9  1  0  0  0  0
  8 10  1  0  0  0  0
  8 24  1  0  0  0  0
  9 12  1  0  0  0  0
  9 25  1  0  0  0  0
 10 11  1  0  0  0  0
 10 26  1  0  0  0  0
 11 13  1  0  0  0  0
 11 27  1  0  0  0  0
 12 28  1  0  0  0  0
 12 29  1  0  0  0  0
 13 30  1  0  0  0  0
 13 31  1  0  0  0  0
 14 16  1  0  0  0  0
 14 32  1  0  0  0  0
 14 33  1  0  0  0  0
 15 34  1  0  0  0  0
 15 35  1  0  0  0  0
 15 36  1  0  0  0  0
 16 17  1  0  0  0  0
 16 38  1  0  0  0  0
 16 39  1  0  0  0  0
 17 19  2  0  0  0  0
 18 20  1  0  0  0  0
 19 21  1  0  0  0  0
 19 42  1  0  0  0  0
 20 43  1  0  0  0  0
 20 44  1  0  0  0  0
 20 45  1  0  0  0  0
 21 23  2  0  0  0  0
 21 46  1  0  0  0  0
 22 23  1  0  0  0  0
 22 47  1  0  0  0  0
 23 48  1  0  0  0  0
M  END
> <PUBCHEM_COMPOUND_CID>
28962235

> <PUBCHEM_CONFORMER_RMSD>
1

> <PUBCHEM_CONFORMER_DIVERSEORDER>
1
42
53
43
11
45
4
69
62
33
77
61
78
60
48
10
46
63
50
36
20
13
15
7
72
71
68
19
59
9
12
3
16
32
24
28
52
44
73
70
75
17
56
76
30
8
27
14
37
79
74
2
49
41
25
22
26
47
65
39
64
51
5
31
6
35
34
55
21
67
38
23
29
54
58
40
18
57
66

> <PUBCHEM_MMFF94_PARTIAL_CHARGES>
30
1 -0.56
10 0.28
11 0.28
12 0.3
13 0.28
14 0.27
15 0.27
16 0.14
17 0.17
18 0.57
19 -0.15
2 -0.68
20 0.06
21 -0.15
22 0.16
23 -0.15
3 -0.68
37 0.4
4 -0.57
40 0.37
41 0.4
42 0.15
46 0.15
47 0.15
48 0.15
5 -0.81
6 -0.73
7 -0.62
8 0.27
9 0.28

> <PUBCHEM_EFFECTIVE_ROTOR_COUNT>
9

> <PUBCHEM_PHARMACOPHORE_FEATURES>
11
1 1 acceptor
1 2 acceptor
1 2 donor
1 3 acceptor
1 3 donor
1 4 acceptor
1 5 cation
1 6 donor
1 7 acceptor
5 1 8 9 10 11 rings
6 7 17 19 21 22 23 rings

> <PUBCHEM_HEAVY_ATOM_COUNT>
23

> <PUBCHEM_ATOM_DEF_STEREO_COUNT>
4

> <PUBCHEM_ATOM_UDEF_STEREO_COUNT>
0

> <PUBCHEM_BOND_DEF_STEREO_COUNT>
0

> <PUBCHEM_BOND_UDEF_STEREO_COUNT>
0

> <PUBCHEM_ISOTOPIC_ATOM_COUNT>
0

> <PUBCHEM_COMPONENT_COUNT>
1

> <PUBCHEM_CACTVS_TAUTO_COUNT>
4

> <PUBCHEM_CONFORMER_ID>
01B9EDBB00000001

> <PUBCHEM_MMFF94_ENERGY>
55.689

> <PUBCHEM_FEATURE_SELFOVERLAP>
55.827

> <PUBCHEM_SHAPE_FINGERPRINT>
10366900 7 17917994958379203408
10616163 171 18338803411610866558
10906281 52 18130525066453743901
11036077 3 18339367375144596505
11135609 187 18337386042006229569
12555020 224 18410570660883726532
12643181 29 18409452458608590566
12788726 201 18128816352738897616
13402501 40 18341896290058117734
13631057 29 18194969775942010204
13785724 45 17543365203135804843
138480 1 17112975163097375306
14251757 5 18337393841471341954
14790565 3 18339082558319969329
14866123 147 18411139181964430747
15664445 248 17193201063889486639
15927050 60 18411978036569906111
22849339 104 18338252538741667198
23559900 14 18341044220614089880
266924 87 18048869694094703173
283562 15 18198341758497506985
3004659 81 18335980870936342500
3383291 50 18412821391425356131
340366 18 18040438823304982300
4058900 60 17970908856760835953
5309563 4 17617660294667031762
58260988 521 18115890580522019835
59025328 239 16548589788872566847
6138700 20 18269833125294411759
9709674 26 18198051676347747400

> <PUBCHEM_SHAPE_MULTIPOLES>
434.91
11.72
4.22
0.98
11.48
6.4
-0.05
-2.92
4.33
-3.94
-0.82
-0.32
-0.28
0.52

> <PUBCHEM_SHAPE_SELFOVERLAP>
889.833

> <PUBCHEM_SHAPE_VOLUME>
250.8

> <PUBCHEM_COORDINATE_TYPE>
2
5
10

$$$$
