11867216
  -OEChem-12032416403D

 55 59  0     1  0  0  0  0  0999 V2000
   -2.8693    1.5081   -0.9165 S   0  0  0  0  0  0  0  0  0  0  0  0
   -0.1632   -5.1585    0.8749 F   0  0  0  0  0  0  0  0  0  0  0  0
   -0.1952    3.1102   -1.0558 O   0  0  0  0  0  0  0  0  0  0  0  0
    2.7738   -0.8625   -2.5556 O   0  0  0  0  0  0  0  0  0  0  0  0
   -3.5468    2.5754   -1.6283 O   0  0  0  0  0  0  0  0  0  0  0  0
   -1.8513    0.7171   -1.5820 O   0  0  0  0  0  0  0  0  0  0  0  0
    3.5402   -0.1557   -0.4609 N   0  0  0  0  0  0  0  0  0  0  0  0
    1.4670    2.1299    0.2728 N   0  0  0  0  0  0  0  0  0  0  0  0
   -2.2649    2.0954    0.5514 N   0  0  0  0  0  0  0  0  0  0  0  0
    3.9639    2.2898   -0.2712 C   0  0  1  0  0  0  0  0  0  0  0  0
    3.2204    1.0197    1.7031 C   0  0  2  0  0  0  0  0  0  0  0  0
    4.1572    2.1316    1.2331 C   0  0  0  0  0  0  0  0  0  0  0  0
    4.2985    0.9742   -0.9974 C   0  0  0  0  0  0  0  0  0  0  0  0
    2.5246    2.7472   -0.5388 C   0  0  0  0  0  0  0  0  0  0  0  0
    3.5955   -0.3016    1.0028 C   0  0  0  0  0  0  0  0  0  0  0  0
    1.7726    1.3627    1.4054 C   0  0  0  0  0  0  0  0  0  0  0  0
    0.7910    0.9008    2.2016 C   0  0  0  0  0  0  0  0  0  0  0  0
    0.1360    2.4309   -0.0850 C   0  0  0  0  0  0  0  0  0  0  0  0
    2.8239   -0.9793   -1.3324 C   0  0  0  0  0  0  0  0  0  0  0  0
   -0.9025    1.8732    0.8174 C   0  0  0  0  0  0  0  0  0  0  0  0
   -0.5908    1.1611    1.9008 C   0  0  0  0  0  0  0  0  0  0  0  0
    2.0403   -2.0755   -0.7534 C   0  0  0  0  0  0  0  0  0  0  0  0
    0.7143   -1.8609   -0.3866 C   0  0  0  0  0  0  0  0  0  0  0  0
    2.6262   -3.3260   -0.5733 C   0  0  0  0  0  0  0  0  0  0  0  0
   -4.1111    0.3901   -0.3368 C   0  0  0  0  0  0  0  0  0  0  0  0
   -0.0309   -2.9036    0.1640 C   0  0  0  0  0  0  0  0  0  0  0  0
    1.8811   -4.3688   -0.0228 C   0  0  0  0  0  0  0  0  0  0  0  0
    0.5523   -4.1576    0.3459 C   0  0  0  0  0  0  0  0  0  0  0  0
   -5.3988    0.8561   -0.1378 C   0  0  0  0  0  0  0  0  0  0  0  0
   -3.7712   -0.9289   -0.0933 C   0  0  0  0  0  0  0  0  0  0  0  0
   -6.3781   -0.0255    0.3198 C   0  0  0  0  0  0  0  0  0  0  0  0
   -4.7506   -1.8104    0.3642 C   0  0  0  0  0  0  0  0  0  0  0  0
   -6.0541   -1.3586    0.5707 C   0  0  0  0  0  0  0  0  0  0  0  0
    4.6465    3.0603   -0.6506 H   0  0  0  0  0  0  0  0  0  0  0  0
    3.3570    0.8907    2.7846 H   0  0  0  0  0  0  0  0  0  0  0  0
    3.9361    3.0726    1.7524 H   0  0  0  0  0  0  0  0  0  0  0  0
    5.1994    1.8762    1.4602 H   0  0  0  0  0  0  0  0  0  0  0  0
    5.3606    0.7348   -0.8641 H   0  0  0  0  0  0  0  0  0  0  0  0
    4.1255    1.0812   -2.0735 H   0  0  0  0  0  0  0  0  0  0  0  0
    2.2711    2.6199   -1.5988 H   0  0  0  0  0  0  0  0  0  0  0  0
    2.4564    3.8255   -0.3402 H   0  0  0  0  0  0  0  0  0  0  0  0
    4.6265   -0.5802    1.2539 H   0  0  0  0  0  0  0  0  0  0  0  0
    2.9549   -1.1135    1.3553 H   0  0  0  0  0  0  0  0  0  0  0  0
    1.0059    0.2933    3.0744 H   0  0  0  0  0  0  0  0  0  0  0  0
   -1.3385    0.7476    2.5692 H   0  0  0  0  0  0  0  0  0  0  0  0
   -2.8664    1.9114    1.3669 H   0  0  0  0  0  0  0  0  0  0  0  0
    0.2499   -0.8904   -0.5299 H   0  0  0  0  0  0  0  0  0  0  0  0
    3.6608   -3.5004   -0.8568 H   0  0  0  0  0  0  0  0  0  0  0  0
   -1.0628   -2.7429    0.4572 H   0  0  0  0  0  0  0  0  0  0  0  0
    2.3350   -5.3450    0.1192 H   0  0  0  0  0  0  0  0  0  0  0  0
   -5.6687    1.8917   -0.3200 H   0  0  0  0  0  0  0  0  0  0  0  0
   -2.7627   -1.2948   -0.2471 H   0  0  0  0  0  0  0  0  0  0  0  0
   -7.3925    0.3265    0.4826 H   0  0  0  0  0  0  0  0  0  0  0  0
   -4.4979   -2.8484    0.5604 H   0  0  0  0  0  0  0  0  0  0  0  0
   -6.8164   -2.0449    0.9277 H   0  0  0  0  0  0  0  0  0  0  0  0
  1  5  2  0  0  0  0
  1  6  2  0  0  0  0
  1  9  1  0  0  0  0
  1 25  1  0  0  0  0
  2 28  1  0  0  0  0
  3 18  2  0  0  0  0
  4 19  2  0  0  0  0
  7 13  1  0  0  0  0
  7 15  1  0  0  0  0
  7 19  1  0  0  0  0
  8 14  1  0  0  0  0
  8 16  1  0  0  0  0
  8 18  1  0  0  0  0
  9 20  1  0  0  0  0
  9 46  1  0  0  0  0
 10 12  1  0  0  0  0
 10 13  1  0  0  0  0
 10 14  1  0  0  0  0
 10 34  1  0  0  0  0
 11 12  1  0  0  0  0
 11 15  1  0  0  0  0
 11 16  1  0  0  0  0
 11 35  1  0  0  0  0
 12 36  1  0  0  0  0
 12 37  1  0  0  0  0
 13 38  1  0  0  0  0
 13 39  1  0  0  0  0
 14 40  1  0  0  0  0
 14 41  1  0  0  0  0
 15 42  1  0  0  0  0
 15 43  1  0  0  0  0
 16 17  2  0  0  0  0
 17 21  1  0  0  0  0
 17 44  1  0  0  0  0
 18 20  1  0  0  0  0
 19 22  1  0  0  0  0
 20 21  2  0  0  0  0
 21 45  1  0  0  0  0
 22 23  2  0  0  0  0
 22 24  1  0  0  0  0
 23 26  1  0  0  0  0
 23 47  1  0  0  0  0
 24 27  2  0  0  0  0
 24 48  1  0  0  0  0
 25 29  2  0  0  0  0
 25 30  1  0  0  0  0
 26 28  2  0  0  0  0
 26 49  1  0  0  0  0
 27 28  1  0  0  0  0
 27 50  1  0  0  0  0
 29 31  1  0  0  0  0
 29 51  1  0  0  0  0
 30 32  2  0  0  0  0
 30 52  1  0  0  0  0
 31 33  2  0  0  0  0
 31 53  1  0  0  0  0
 32 33  1  0  0  0  0
 32 54  1  0  0  0  0
 33 55  1  0  0  0  0
M  END
> <PUBCHEM_COMPOUND_CID>
11867216

> <PUBCHEM_CONFORMER_RMSD>
0.8

> <PUBCHEM_CONFORMER_DIVERSEORDER>
1
23
21
29
9
30
27
32
3
24
2
33
11
10
13
16
15
26
22
6
12
14
31
5
8
28
18
4
7
17
25
20
19

> <PUBCHEM_MMFF94_PARTIAL_CHARGES>
43
1 1.45
11 0.14
13 0.3
14 0.3
15 0.3
16 -0.03
17 -0.15
18 0.62
19 0.54
2 -0.19
20 0.21
21 -0.15
22 0.09
23 -0.15
24 -0.15
25 -0.01
26 -0.15
27 -0.15
28 0.19
29 -0.15
3 -0.57
30 -0.15
31 -0.15
32 -0.15
33 -0.15
4 -0.57
44 0.15
45 0.15
46 0.42
47 0.15
48 0.15
49 0.15
5 -0.65
50 0.15
51 0.15
52 0.15
53 0.15
54 0.15
55 0.15
6 -0.65
7 -0.66
8 -0.47
9 -0.75

> <PUBCHEM_EFFECTIVE_ROTOR_COUNT>
6

> <PUBCHEM_PHARMACOPHORE_FEATURES>
10
1 3 acceptor
1 4 acceptor
1 5 acceptor
1 6 acceptor
1 9 donor
6 22 23 24 26 27 28 rings
6 25 29 30 31 32 33 rings
6 7 10 11 12 13 15 rings
6 8 10 11 12 14 16 rings
6 8 16 17 18 20 21 rings

> <PUBCHEM_HEAVY_ATOM_COUNT>
33

> <PUBCHEM_ATOM_DEF_STEREO_COUNT>
2

> <PUBCHEM_ATOM_UDEF_STEREO_COUNT>
0

> <PUBCHEM_BOND_DEF_STEREO_COUNT>
0

> <PUBCHEM_BOND_UDEF_STEREO_COUNT>
0

> <PUBCHEM_ISOTOPIC_ATOM_COUNT>
0

> <PUBCHEM_COMPONENT_COUNT>
1

> <PUBCHEM_CACTVS_TAUTO_COUNT>
1

> <PUBCHEM_CONFORMER_ID>
00B5145000000001

> <PUBCHEM_MMFF94_ENERGY>
82.7862

> <PUBCHEM_FEATURE_SELFOVERLAP>
52.349

> <PUBCHEM_SHAPE_FINGERPRINT>
10316853 100 18265339589361458723
11488393 25 18335705992343928547
13402501 40 18340488971056456091
1361 2 18337113478996708049
13617811 41 18187083958547460685
13726171 33 17762067935703246240
14659021 117 16823047115386377122
15264996 163 16892031600141324387
17093844 170 18341333400344709520
17349148 13 13840261464471025021
17909252 39 18056487149106427486
19319366 153 18271799142342849471
20764821 26 18193833975592861695
20775438 99 17541055859418171749
20775530 9 17981040812875764375
23559900 14 18120365463407211551
238 59 18264500498706173434
3298306 158 18341324570050327739
3737641 26 18342462504550297515
392239 28 18413673495862202763
4280585 95 17687451378485328802
4340502 62 17988357191365841744
463206 1 18129657651106612127
484989 97 18338815497438074790
508706 21 18123190375215451955
5265222 85 18122067760525905268
6433294 58 18339360739130408967
86090 222 18341055224145988675

> <PUBCHEM_SHAPE_MULTIPOLES>
637.28
10.66
5.23
1.65
16.4
6.7
0.03
-1.76
-0.28
-2.86
0.11
-0.99
-0.59
1.53

> <PUBCHEM_SHAPE_SELFOVERLAP>
1392.807

> <PUBCHEM_SHAPE_VOLUME>
347.8

> <PUBCHEM_COORDINATE_TYPE>
2
5
10

$$$$
