28962742
  -OEChem-12032416283D

 75 78  0     1  0  0  0  0  0999 V2000
   -1.4384   -1.2830   -1.3373 O   0  0  0  0  0  0  0  0  0  0  0  0
   -5.8645    1.3598   -0.3601 O   0  0  0  0  0  0  0  0  0  0  0  0
    4.7637   -0.2544    1.5027 O   0  0  0  0  0  0  0  0  0  0  0  0
    3.5764    0.5097   -0.3478 N   0  0  0  0  0  0  0  0  0  0  0  0
   -5.7736   -0.8742    0.2218 N   0  0  0  0  0  0  0  0  0  0  0  0
   -0.4086    1.8905    0.5185 C   0  0  1  0  0  0  0  0  0  0  0  0
   -0.2707    0.4536   -0.0859 C   0  0  2  0  0  0  0  0  0  0  0  0
    1.1368    0.2619   -0.7567 C   0  0  1  0  0  0  0  0  0  0  0  0
   -1.4921    0.0995   -0.9824 C   0  0  2  0  0  0  0  0  0  0  0  0
   -1.7570    2.0079    1.2676 C   0  0  0  0  0  0  0  0  0  0  0  0
   -2.8425    0.3186   -0.2612 C   0  0  1  0  0  0  0  0  0  0  0  0
    0.7228    2.1150    1.5481 C   0  0  0  0  0  0  0  0  0  0  0  0
    2.2669    0.5635    0.2674 C   0  0  2  0  0  0  0  0  0  0  0  0
   -2.9575    1.7003    0.3824 C   0  0  0  0  0  0  0  0  0  0  0  0
    2.1130    1.9167    0.9611 C   0  0  0  0  0  0  0  0  0  0  0  0
   -0.3418    2.9987   -0.5628 C   0  0  0  0  0  0  0  0  0  0  0  0
   -4.0329    0.0903   -1.2007 C   0  0  2  0  0  0  0  0  0  0  0  0
    1.3514   -1.1417   -1.3478 C   0  0  0  0  0  0  0  0  0  0  0  0
   -4.0049    1.0619   -2.3665 C   0  0  0  0  0  0  0  0  0  0  0  0
   -5.3076    0.2621   -0.4140 C   0  0  0  0  0  0  0  0  0  0  0  0
    4.7120    0.1036    0.3289 C   0  0  0  0  0  0  0  0  0  0  0  0
    5.9295    0.1177   -0.5492 C   0  0  0  0  0  0  0  0  0  0  0  0
   -6.9869   -0.8724    1.0260 C   0  0  0  0  0  0  0  0  0  0  0  0
   -5.1654   -2.2008    0.1947 C   0  0  0  0  0  0  0  0  0  0  0  0
    7.1881    0.4350    0.2610 C   0  0  0  0  0  0  0  0  0  0  0  0
    6.0382   -1.1995   -1.3201 C   0  0  0  0  0  0  0  0  0  0  0  0
   -7.2967   -2.3444    1.2504 C   0  0  0  0  0  0  0  0  0  0  0  0
   -5.9137   -2.9830    1.2647 C   0  0  0  0  0  0  0  0  0  0  0  0
    7.6873   -0.7442    1.0954 C   0  0  0  0  0  0  0  0  0  0  0  0
    6.5347   -2.3585   -0.4575 C   0  0  0  0  0  0  0  0  0  0  0  0
    7.8341   -2.0102    0.2594 C   0  0  0  0  0  0  0  0  0  0  0  0
   -0.2938   -0.2602    0.7533 H   0  0  0  0  0  0  0  0  0  0  0  0
    1.2281    0.9635   -1.5956 H   0  0  0  0  0  0  0  0  0  0  0  0
   -1.4145    0.6753   -1.9069 H   0  0  0  0  0  0  0  0  0  0  0  0
   -1.8708    3.0149    1.6897 H   0  0  0  0  0  0  0  0  0  0  0  0
   -1.7662    1.3165    2.1211 H   0  0  0  0  0  0  0  0  0  0  0  0
   -2.8973   -0.4115    0.5567 H   0  0  0  0  0  0  0  0  0  0  0  0
    0.5998    1.4191    2.3889 H   0  0  0  0  0  0  0  0  0  0  0  0
    0.6548    3.1244    1.9736 H   0  0  0  0  0  0  0  0  0  0  0  0
    2.2360   -0.2134    1.0440 H   0  0  0  0  0  0  0  0  0  0  0  0
   -3.8393    1.7573    1.0301 H   0  0  0  0  0  0  0  0  0  0  0  0
   -3.0587    2.5046   -0.3489 H   0  0  0  0  0  0  0  0  0  0  0  0
    2.3461    2.7289    0.2617 H   0  0  0  0  0  0  0  0  0  0  0  0
    2.8529    2.0068    1.7670 H   0  0  0  0  0  0  0  0  0  0  0  0
    0.6189    3.0266   -1.0833 H   0  0  0  0  0  0  0  0  0  0  0  0
   -0.4879    3.9868   -0.1108 H   0  0  0  0  0  0  0  0  0  0  0  0
   -1.1079    2.8781   -1.3338 H   0  0  0  0  0  0  0  0  0  0  0  0
   -3.9941   -0.9159   -1.6300 H   0  0  0  0  0  0  0  0  0  0  0  0
    1.1162   -1.9214   -0.6160 H   0  0  0  0  0  0  0  0  0  0  0  0
    2.3849   -1.2950   -1.6740 H   0  0  0  0  0  0  0  0  0  0  0  0
    0.7392   -1.2915   -2.2416 H   0  0  0  0  0  0  0  0  0  0  0  0
    3.6588    0.8354   -1.3066 H   0  0  0  0  0  0  0  0  0  0  0  0
   -1.4634   -1.8064   -0.5182 H   0  0  0  0  0  0  0  0  0  0  0  0
   -4.0383    2.1168   -2.0844 H   0  0  0  0  0  0  0  0  0  0  0  0
   -4.8918    0.8993   -2.9932 H   0  0  0  0  0  0  0  0  0  0  0  0
   -3.1462    0.9060   -3.0244 H   0  0  0  0  0  0  0  0  0  0  0  0
    5.8055    0.9306   -1.2779 H   0  0  0  0  0  0  0  0  0  0  0  0
   -7.7924   -0.3355    0.5164 H   0  0  0  0  0  0  0  0  0  0  0  0
   -6.7605   -0.3603    1.9677 H   0  0  0  0  0  0  0  0  0  0  0  0
   -4.0918   -2.1739    0.3846 H   0  0  0  0  0  0  0  0  0  0  0  0
   -5.3425   -2.6284   -0.7984 H   0  0  0  0  0  0  0  0  0  0  0  0
    7.0181    1.2970    0.9175 H   0  0  0  0  0  0  0  0  0  0  0  0
    7.9856    0.7260   -0.4352 H   0  0  0  0  0  0  0  0  0  0  0  0
    6.7407   -1.0604   -2.1522 H   0  0  0  0  0  0  0  0  0  0  0  0
    5.0751   -1.4717   -1.7681 H   0  0  0  0  0  0  0  0  0  0  0  0
   -7.8780   -2.7391    0.4084 H   0  0  0  0  0  0  0  0  0  0  0  0
   -7.8601   -2.5213    2.1705 H   0  0  0  0  0  0  0  0  0  0  0  0
   -5.4437   -2.8250    2.2429 H   0  0  0  0  0  0  0  0  0  0  0  0
   -5.9359   -4.0575    1.0636 H   0  0  0  0  0  0  0  0  0  0  0  0
    7.0219   -0.9381    1.9424 H   0  0  0  0  0  0  0  0  0  0  0  0
    8.6605   -0.4864    1.5303 H   0  0  0  0  0  0  0  0  0  0  0  0
    6.6897   -3.2418   -1.0878 H   0  0  0  0  0  0  0  0  0  0  0  0
    5.7687   -2.6281    0.2794 H   0  0  0  0  0  0  0  0  0  0  0  0
    8.6335   -1.8712   -0.4788 H   0  0  0  0  0  0  0  0  0  0  0  0
    8.1359   -2.8442    0.9029 H   0  0  0  0  0  0  0  0  0  0  0  0
  1  9  1  0  0  0  0
  1 53  1  0  0  0  0
  2 20  2  0  0  0  0
  3 21  2  0  0  0  0
  4 13  1  0  0  0  0
  4 21  1  0  0  0  0
  4 52  1  0  0  0  0
  5 20  1  0  0  0  0
  5 23  1  0  0  0  0
  5 24  1  0  0  0  0
  6  7  1  0  0  0  0
  6 10  1  0  0  0  0
  6 12  1  0  0  0  0
  6 16  1  0  0  0  0
  7  8  1  0  0  0  0
  7  9  1  0  0  0  0
  7 32  1  0  0  0  0
  8 13  1  0  0  0  0
  8 18  1  0  0  0  0
  8 33  1  0  0  0  0
  9 11  1  0  0  0  0
  9 34  1  0  0  0  0
 10 14  1  0  0  0  0
 10 35  1  0  0  0  0
 10 36  1  0  0  0  0
 11 14  1  0  0  0  0
 11 17  1  0  0  0  0
 11 37  1  0  0  0  0
 12 15  1  0  0  0  0
 12 38  1  0  0  0  0
 12 39  1  0  0  0  0
 13 15  1  0  0  0  0
 13 40  1  0  0  0  0
 14 41  1  0  0  0  0
 14 42  1  0  0  0  0
 15 43  1  0  0  0  0
 15 44  1  0  0  0  0
 16 45  1  0  0  0  0
 16 46  1  0  0  0  0
 16 47  1  0  0  0  0
 17 19  1  0  0  0  0
 17 20  1  0  0  0  0
 17 48  1  0  0  0  0
 18 49  1  0  0  0  0
 18 50  1  0  0  0  0
 18 51  1  0  0  0  0
 19 54  1  0  0  0  0
 19 55  1  0  0  0  0
 19 56  1  0  0  0  0
 21 22  1  0  0  0  0
 22 25  1  0  0  0  0
 22 26  1  0  0  0  0
 22 57  1  0  0  0  0
 23 27  1  0  0  0  0
 23 58  1  0  0  0  0
 23 59  1  0  0  0  0
 24 28  1  0  0  0  0
 24 60  1  0  0  0  0
 24 61  1  0  0  0  0
 25 29  1  0  0  0  0
 25 62  1  0  0  0  0
 25 63  1  0  0  0  0
 26 30  1  0  0  0  0
 26 64  1  0  0  0  0
 26 65  1  0  0  0  0
 27 28  1  0  0  0  0
 27 66  1  0  0  0  0
 27 67  1  0  0  0  0
 28 68  1  0  0  0  0
 28 69  1  0  0  0  0
 29 31  1  0  0  0  0
 29 70  1  0  0  0  0
 29 71  1  0  0  0  0
 30 31  1  0  0  0  0
 30 72  1  0  0  0  0
 30 73  1  0  0  0  0
 31 74  1  0  0  0  0
 31 75  1  0  0  0  0
M  END
> <PUBCHEM_COMPOUND_CID>
28962742

> <PUBCHEM_CONFORMER_RMSD>
1

> <PUBCHEM_CONFORMER_DIVERSEORDER>
1
36
58
37
40
75
50
69
48
28
67
15
29
51
42
44
35
33
63
68
74
60
61
64
21
77
18
17
78
11
76
79
20
81
27
49
80
4
73
24
26
46
39
32
12
53
16
2
7
62
38
54
43
56
52
5
8
59
30
66
6
23
14
10
22
65
3
9
31
34
45
13
72
47
70
71
57
19
25
55
41

> <PUBCHEM_MMFF94_PARTIAL_CHARGES>
15
1 -0.68
13 0.3
17 0.06
2 -0.57
20 0.57
21 0.57
22 0.06
23 0.3
24 0.3
3 -0.57
4 -0.73
5 -0.66
52 0.37
53 0.4
9 0.28

> <PUBCHEM_EFFECTIVE_ROTOR_COUNT>
9.8

> <PUBCHEM_PHARMACOPHORE_FEATURES>
10
1 1 acceptor
1 1 donor
1 19 hydrophobe
1 2 acceptor
1 3 acceptor
1 4 donor
5 5 23 24 27 28 rings
6 22 25 26 29 30 31 rings
6 6 7 8 12 13 15 rings
6 6 7 9 10 11 14 rings

> <PUBCHEM_HEAVY_ATOM_COUNT>
31

> <PUBCHEM_ATOM_DEF_STEREO_COUNT>
7

> <PUBCHEM_ATOM_UDEF_STEREO_COUNT>
0

> <PUBCHEM_BOND_DEF_STEREO_COUNT>
0

> <PUBCHEM_BOND_UDEF_STEREO_COUNT>
0

> <PUBCHEM_ISOTOPIC_ATOM_COUNT>
0

> <PUBCHEM_COMPONENT_COUNT>
1

> <PUBCHEM_CACTVS_TAUTO_COUNT>
2

> <PUBCHEM_CONFORMER_ID>
01B9EFB600000001

> <PUBCHEM_MMFF94_ENERGY>
79.9497

> <PUBCHEM_FEATURE_SELFOVERLAP>
50.761

> <PUBCHEM_SHAPE_FINGERPRINT>
10554248 39 12179831811000493352
11387372 6 18188772889775381931
11646440 116 17489591173064146704
117089 54 17172099649252260227
11756154 5 18411415154713073291
11963148 33 18335132086093159898
12035758 1 17561086925113065646
12166972 35 17894917359772830788
12236239 1 18408603626872986836
13668630 136 18259984851727348326
13673619 4 18187365476151869373
13685833 64 18343584045065380104
13690498 29 17603577552648983509
13782708 43 18260261992718268367
13911987 19 12252174191582440673
14028597 1 15913057482003152122
14068700 675 17676487241885815764
14344974 204 18193280908713389267
14400156 162 18410020944584751587
14767858 380 14056997234786435767
14849402 71 16414627310667756808
14955137 171 18342177816796150705
15131766 46 10878833586951263186
15183329 4 17489585650147621686
15352257 5 18333452040693890826
15419008 91 18190158192452645220
15510800 12 18201731609286988494
16994733 274 11743838049748689054
18335252 98 18411140264675087784
18608769 82 18408603686132435330
18643901 69 17967252018900326783
19841028 212 18042963174108664914
20505436 4 16155380959390263909
20982279 24 18267322970978608722
21033650 10 17023180462539863853
21150785 3 16298386885422979930
21267235 1 18273219694634180012
21424621 283 10952048948851210476
21781051 124 18340781398748859326
21792961 116 18336819802154871429
22122407 14 12823006594949920594
22149856 69 17489321745892707458
22223350 30 17129847559656677419
23522609 53 17702406089543581824
23559900 14 18130491029133354816
23569943 247 17059496210228607582
23576562 1 8357955746475397139
24771750 20 17901393612996381732
2747138 104 18201722851563198568
3178227 256 18059861687709101458
335352 9 17917703609067295669
3383291 50 18341893004424577674
392239 28 16128651963944357889
4107672 100 17676481710315753773
4149490 64 18187642536403126354
4169191 19 7997977890019767639
4339292 15 18187917435294926167
437795 83 11530750505963545359
44880568 143 17458060435476602196
465052 167 18342178886342864044
5104073 3 17631461059612121778
58083652 198 16845280662070444617
5937810 71 11098117965428517287
6009941 240 18340207393691893049
6058803 2 14275947289284491405
636775 8 18410865339539912782
6376802 90 18045498608654972933
6691757 9 14908178677758108327
8863177 126 18265334096034607179
9896288 288 18129670677774193225
999808 66 18412546522239734459

> <PUBCHEM_SHAPE_MULTIPOLES>
610.4
22.38
2.83
1.53
15.81
0.4
0.27
18.42
-4.44
-2.25
-0.79
-0.84
-0.07
2.35

> <PUBCHEM_SHAPE_SELFOVERLAP>
1266.74

> <PUBCHEM_SHAPE_VOLUME>
344.2

> <PUBCHEM_COORDINATE_TYPE>
2
5
10

$$$$
