11913349
  -OEChem-12032416163D

 49 53  0     1  0  0  0  0  0999 V2000
    3.2815    3.4699   -1.4664 F   0  0  0  0  0  0  0  0  0  0  0  0
   -1.2480    0.4073   -1.9493 O   0  0  0  0  0  0  0  0  0  0  0  0
   -2.6899   -2.3024   -1.5119 O   0  0  0  0  0  0  0  0  0  0  0  0
   -5.8619    0.1809    0.3851 O   0  0  0  0  0  0  0  0  0  0  0  0
   -3.8014    1.0009   -0.3273 N   0  0  0  0  0  0  0  0  0  0  0  0
    0.0685   -2.4575   -0.1030 N   0  0  0  0  0  0  0  0  0  0  0  0
    1.9458   -1.0697    0.1339 N   0  0  0  0  0  0  0  0  0  0  0  0
    1.5314   -2.8660    1.6858 N   0  0  0  0  0  0  0  0  0  0  0  0
   -2.6161   -1.1005   -0.7250 C   0  0  1  0  0  0  0  0  0  0  0  0
   -1.2111   -0.5514   -0.8770 C   0  0  1  0  0  0  0  0  0  0  0  0
   -3.5006   -0.0274   -1.3213 C   0  0  2  0  0  0  0  0  0  0  0  0
   -0.3888   -1.7524   -1.2804 C   0  0  2  0  0  0  0  0  0  0  0  0
   -5.0556    2.1504    1.3874 C   0  0  0  0  0  0  0  0  0  0  0  0
   -2.6023    0.5520   -2.4033 C   0  0  0  0  0  0  0  0  0  0  0  0
   -1.3903   -2.5990   -2.0450 C   0  0  0  0  0  0  0  0  0  0  0  0
   -5.2725    1.8530    2.8316 C   0  0  0  0  0  0  0  0  0  0  0  0
   -3.9433    2.3620    2.3564 C   0  0  0  0  0  0  0  0  0  0  0  0
   -4.9575    1.0064    0.4336 C   0  0  0  0  0  0  0  0  0  0  0  0
    1.2160   -2.1210    0.5931 C   0  0  0  0  0  0  0  0  0  0  0  0
    3.0580   -0.7694    0.8361 C   0  0  0  0  0  0  0  0  0  0  0  0
    2.6564   -2.5107    2.3403 C   0  0  0  0  0  0  0  0  0  0  0  0
    3.4666   -1.4613    1.9580 C   0  0  0  0  0  0  0  0  0  0  0  0
    3.8171    0.3501    0.3324 C   0  0  0  0  0  0  0  0  0  0  0  0
    3.1705    1.3914   -0.3372 C   0  0  0  0  0  0  0  0  0  0  0  0
    5.2014    0.3964    0.5129 C   0  0  0  0  0  0  0  0  0  0  0  0
    3.9043    2.4732   -0.8238 C   0  0  0  0  0  0  0  0  0  0  0  0
    5.9352    1.4781    0.0264 C   0  0  0  0  0  0  0  0  0  0  0  0
    5.2867    2.5166   -0.6419 C   0  0  0  0  0  0  0  0  0  0  0  0
   -2.8632   -1.3665    0.3079 H   0  0  0  0  0  0  0  0  0  0  0  0
   -0.8585   -0.0274    0.0170 H   0  0  0  0  0  0  0  0  0  0  0  0
   -4.4378   -0.4109   -1.7367 H   0  0  0  0  0  0  0  0  0  0  0  0
    0.4530   -1.5100   -1.9391 H   0  0  0  0  0  0  0  0  0  0  0  0
   -5.5519    3.0306    0.9927 H   0  0  0  0  0  0  0  0  0  0  0  0
   -2.7999    1.6052   -2.6258 H   0  0  0  0  0  0  0  0  0  0  0  0
   -2.6951   -0.0192   -3.3336 H   0  0  0  0  0  0  0  0  0  0  0  0
   -1.4062   -2.3226   -3.1051 H   0  0  0  0  0  0  0  0  0  0  0  0
   -1.2079   -3.6759   -1.9751 H   0  0  0  0  0  0  0  0  0  0  0  0
   -5.8973    2.5310    3.4002 H   0  0  0  0  0  0  0  0  0  0  0  0
   -5.3275    0.8203    3.1540 H   0  0  0  0  0  0  0  0  0  0  0  0
   -3.1110    1.6688    2.3757 H   0  0  0  0  0  0  0  0  0  0  0  0
   -3.6764    3.3824    2.6041 H   0  0  0  0  0  0  0  0  0  0  0  0
   -3.1079    1.7272   -0.1717 H   0  0  0  0  0  0  0  0  0  0  0  0
   -0.4953   -3.2088    0.2782 H   0  0  0  0  0  0  0  0  0  0  0  0
    2.8929   -3.1094    3.2134 H   0  0  0  0  0  0  0  0  0  0  0  0
    4.3431   -1.2159    2.5436 H   0  0  0  0  0  0  0  0  0  0  0  0
    2.0935    1.3940   -0.4875 H   0  0  0  0  0  0  0  0  0  0  0  0
    5.7505   -0.4022    1.0049 H   0  0  0  0  0  0  0  0  0  0  0  0
    7.0123    1.5097    0.1624 H   0  0  0  0  0  0  0  0  0  0  0  0
    5.8579    3.3584   -1.0221 H   0  0  0  0  0  0  0  0  0  0  0  0
  1 26  1  0  0  0  0
  2 10  1  0  0  0  0
  2 14  1  0  0  0  0
  3  9  1  0  0  0  0
  3 15  1  0  0  0  0
  4 18  2  0  0  0  0
  5 11  1  0  0  0  0
  5 18  1  0  0  0  0
  5 42  1  0  0  0  0
  6 12  1  0  0  0  0
  6 19  1  0  0  0  0
  6 43  1  0  0  0  0
  7 19  1  0  0  0  0
  7 20  2  0  0  0  0
  8 19  2  0  0  0  0
  8 21  1  0  0  0  0
  9 10  1  0  0  0  0
  9 11  1  0  0  0  0
  9 29  1  0  0  0  0
 10 12  1  0  0  0  0
 10 30  1  0  0  0  0
 11 14  1  0  0  0  0
 11 31  1  0  0  0  0
 12 15  1  0  0  0  0
 12 32  1  0  0  0  0
 13 16  1  0  0  0  0
 13 17  1  0  0  0  0
 13 18  1  0  0  0  0
 13 33  1  0  0  0  0
 14 34  1  0  0  0  0
 14 35  1  0  0  0  0
 15 36  1  0  0  0  0
 15 37  1  0  0  0  0
 16 17  1  0  0  0  0
 16 38  1  0  0  0  0
 16 39  1  0  0  0  0
 17 40  1  0  0  0  0
 17 41  1  0  0  0  0
 20 22  1  0  0  0  0
 20 23  1  0  0  0  0
 21 22  2  0  0  0  0
 21 44  1  0  0  0  0
 22 45  1  0  0  0  0
 23 24  2  0  0  0  0
 23 25  1  0  0  0  0
 24 26  1  0  0  0  0
 24 46  1  0  0  0  0
 25 27  2  0  0  0  0
 25 47  1  0  0  0  0
 26 28  2  0  0  0  0
 27 28  1  0  0  0  0
 27 48  1  0  0  0  0
 28 49  1  0  0  0  0
M  END
> <PUBCHEM_COMPOUND_CID>
11913349

> <PUBCHEM_CONFORMER_RMSD>
1

> <PUBCHEM_CONFORMER_DIVERSEORDER>
1
46
44
87
92
144
193
153
143
57
214
21
141
77
130
116
152
160
207
78
183
64
51
181
132
58
197
15
203
211
134
45
5
170
88
67
174
107
102
189
161
66
182
83
175
81
204
6
76
219
118
23
109
156
111
73
155
54
47
19
43
89
97
200
176
140
217
208
14
195
105
91
39
108
216
84
163
41
201
37
62
55
115
40
139
75
74
124
31
206
172
191
68
198
104
110
85
215
126
133
158
162
199
205
8
90
120
65
17
33
71
167
148
137
103
169
114
164
113
53
121
157
123
60
180
63
142
196
69
10
179
129
212
210
32
112
168
147
145
166
93
131
125
12
184
11
138
56
159
220
178
94
20
213
38
61
13
59
177
146
127
25
165
101
18
218
22
136
117
106
154
48
96
79
192
149
50
209
95
2
86
7
3
190
135
34
72
202
49
70
29
98
27
194
52
9
119
185
186
151
150
188
171
100
16
128
24
187
173
35
4
122
99
26
82
80
28
36
42
30

> <PUBCHEM_MMFF94_PARTIAL_CHARGES>
40
1 -0.19
10 0.28
11 0.3
12 0.37
13 -0.1
14 0.28
15 0.28
16 -0.2
17 -0.2
18 0.63
19 0.72
2 -0.56
20 0.31
21 0.16
22 -0.15
24 -0.15
25 -0.15
26 0.19
27 -0.15
28 -0.15
3 -0.56
33 0.1
38 0.1
39 0.1
4 -0.57
40 0.1
41 0.1
42 0.37
43 0.4
44 0.15
45 0.15
46 0.15
47 0.15
48 0.15
49 0.15
5 -0.73
6 -0.87
7 -0.62
8 -0.62
9 0.28

> <PUBCHEM_EFFECTIVE_ROTOR_COUNT>
7.8

> <PUBCHEM_PHARMACOPHORE_FEATURES>
11
1 2 acceptor
1 3 acceptor
1 4 acceptor
1 5 donor
1 6 donor
1 7 acceptor
4 6 7 8 19 cation
5 2 9 10 11 14 rings
5 3 9 10 12 15 rings
6 23 24 25 26 27 28 rings
6 7 8 19 20 21 22 rings

> <PUBCHEM_HEAVY_ATOM_COUNT>
28

> <PUBCHEM_ATOM_DEF_STEREO_COUNT>
4

> <PUBCHEM_ATOM_UDEF_STEREO_COUNT>
0

> <PUBCHEM_BOND_DEF_STEREO_COUNT>
0

> <PUBCHEM_BOND_UDEF_STEREO_COUNT>
0

> <PUBCHEM_ISOTOPIC_ATOM_COUNT>
0

> <PUBCHEM_COMPONENT_COUNT>
1

> <PUBCHEM_CACTVS_TAUTO_COUNT>
6

> <PUBCHEM_CONFORMER_ID>
00B5C88500000001

> <PUBCHEM_MMFF94_ENERGY>
78.6214

> <PUBCHEM_FEATURE_SELFOVERLAP>
56.531

> <PUBCHEM_SHAPE_FINGERPRINT>
10615611 76 18413390917178812113
10670039 82 17561079172850369337
10674148 151 18272945912592983884
10906281 52 18116434929357469804
10917259 128 17917416658809201712
11049842 53 17631727150053499470
12596602 18 18408324372230630571
13583140 156 17460860805503049815
13617811 41 16915353702503175991
13782708 43 15937248881345336010
13828863 39 18336559286497395217
14114211 68 16772688607087331547
14251757 17 14476963354868922049
14347329 18 17346601858856271936
14765038 42 18335989774240686244
14840074 17 18408329877783195877
14848178 5 14562827521228667995
14950920 106 17895476895685726641
15021287 119 18119798115286505986
15163728 17 17703802379421589295
15183329 4 14189300339554396287
15297060 5 17346329162808662057
15475509 8 18269843004753660958
16067690 210 17489585692459946344
16112460 7 18265054820208577212
16120349 67 17489041374152957593
16991981 162 17772196563671316957
19304671 126 14332834930030908643
21033650 10 16845565435497492251
21315763 87 17240777159766728227
21458453 9 16661789836283901193
21756936 100 17846494846526808135
21987440 362 15406110951557691642
23398203 216 17540551531125719512
312425 83 15553582145484812264
3459 110 17603874446030694937
38570 142 18337123319098871742
392239 28 17676204705788068179
437795 70 13757805758872398323
4408954 87 17750820889745226835
469060 322 16951118616199229479
46939830 39 16045655036716683331
474 4 17969482948982689046
50150288 127 17261643884064439937
5081480 168 17842845417268925998
5252454 2 18336251440453122540
57724786 102 18269274573361380851
6608658 132 17489011692357265325
7808743 9 17989205941137525635

> <PUBCHEM_SHAPE_MULTIPOLES>
531.42
13.61
3.72
2.53
2.02
0.09
-0.77
12.5
-4.23
-1.21
-0.33
1.92
-0.12
-5.69

> <PUBCHEM_SHAPE_SELFOVERLAP>
1161.787

> <PUBCHEM_SHAPE_VOLUME>
289.7

> <PUBCHEM_COORDINATE_TYPE>
2
5
10

$$$$
