28990637
  -OEChem-12032416113D

 47 51  0     1  0  0  0  0  0999 V2000
    2.1648   -2.5019   -1.0361 S   0  0  0  0  0  0  0  0  0  0  0  0
   -1.8593    1.2027   -1.7615 O   0  0  0  0  0  0  0  0  0  0  0  0
    2.9214    0.5595   -0.3883 N   0  0  2  0  0  0  0  0  0  0  0  0
   -0.0973    1.5847   -0.2827 N   0  0  0  0  0  0  0  0  0  0  0  0
   -5.7911   -0.4238    0.6370 N   0  0  0  0  0  0  0  0  0  0  0  0
    2.0350    2.8333   -0.9631 C   0  0  1  0  0  0  0  0  0  0  0  0
    1.7978    1.9910    1.3237 C   0  0  2  0  0  0  0  0  0  0  0  0
    2.0846    3.2449    0.5023 C   0  0  0  0  0  0  0  0  0  0  0  0
    3.0901    1.7418   -1.2419 C   0  0  0  0  0  0  0  0  0  0  0  0
    2.8805    0.9259    1.0354 C   0  0  0  0  0  0  0  0  0  0  0  0
    0.6097    2.3753   -1.3005 C   0  0  0  0  0  0  0  0  0  0  0  0
    0.4180    1.4438    1.0079 C   0  0  0  0  0  0  0  0  0  0  0  0
    3.9688   -0.4261   -0.6448 C   0  0  0  0  0  0  0  0  0  0  0  0
   -0.2961    0.8131    1.9535 C   0  0  0  0  0  0  0  0  0  0  0  0
   -1.3575    1.0692   -0.6439 C   0  0  0  0  0  0  0  0  0  0  0  0
   -2.1199    0.3367    0.4277 C   0  0  0  0  0  0  0  0  0  0  0  0
   -1.5808    0.2476    1.6528 C   0  0  0  0  0  0  0  0  0  0  0  0
    3.5361   -1.8153   -0.2743 C   0  0  0  0  0  0  0  0  0  0  0  0
   -3.4278   -0.2813    0.1476 C   0  0  0  0  0  0  0  0  0  0  0  0
    4.1048   -2.6753    0.6392 C   0  0  0  0  0  0  0  0  0  0  0  0
    3.4057   -3.9145    0.7145 C   0  0  0  0  0  0  0  0  0  0  0  0
   -3.5619   -1.2672   -0.8237 C   0  0  0  0  0  0  0  0  0  0  0  0
    2.3293   -3.9543   -0.1441 C   0  0  0  0  0  0  0  0  0  0  0  0
   -4.5628    0.1019    0.8438 C   0  0  0  0  0  0  0  0  0  0  0  0
   -4.8094   -1.8320   -1.0655 C   0  0  0  0  0  0  0  0  0  0  0  0
   -5.8825   -1.3796   -0.3148 C   0  0  0  0  0  0  0  0  0  0  0  0
    2.2781    3.6967   -1.5949 H   0  0  0  0  0  0  0  0  0  0  0  0
    1.8537    2.2602    2.3867 H   0  0  0  0  0  0  0  0  0  0  0  0
    1.3484    4.0307    0.7125 H   0  0  0  0  0  0  0  0  0  0  0  0
    3.0715    3.6520    0.7539 H   0  0  0  0  0  0  0  0  0  0  0  0
    3.0153    1.4481   -2.2965 H   0  0  0  0  0  0  0  0  0  0  0  0
    4.0907    2.1724   -1.0990 H   0  0  0  0  0  0  0  0  0  0  0  0
    3.8548    1.3162    1.3604 H   0  0  0  0  0  0  0  0  0  0  0  0
    2.6732    0.0395    1.6480 H   0  0  0  0  0  0  0  0  0  0  0  0
   -0.0125    3.2654   -1.4671 H   0  0  0  0  0  0  0  0  0  0  0  0
    0.5970    1.8182   -2.2458 H   0  0  0  0  0  0  0  0  0  0  0  0
    4.9054   -0.1620   -0.1362 H   0  0  0  0  0  0  0  0  0  0  0  0
    4.2120   -0.4528   -1.7168 H   0  0  0  0  0  0  0  0  0  0  0  0
    0.0839    0.6843    2.9616 H   0  0  0  0  0  0  0  0  0  0  0  0
   -2.0817   -0.2747    2.4628 H   0  0  0  0  0  0  0  0  0  0  0  0
    4.9798   -2.4311    1.2280 H   0  0  0  0  0  0  0  0  0  0  0  0
    3.6782   -4.7349    1.3656 H   0  0  0  0  0  0  0  0  0  0  0  0
   -2.7046   -1.6100   -1.3974 H   0  0  0  0  0  0  0  0  0  0  0  0
    1.6313   -4.7666   -0.2900 H   0  0  0  0  0  0  0  0  0  0  0  0
   -4.5302    0.8697    1.6114 H   0  0  0  0  0  0  0  0  0  0  0  0
   -4.9374   -2.6027   -1.8170 H   0  0  0  0  0  0  0  0  0  0  0  0
   -6.8765   -1.7881   -0.4647 H   0  0  0  0  0  0  0  0  0  0  0  0
  1 18  1  0  0  0  0
  1 23  1  0  0  0  0
  2 15  2  0  0  0  0
  3  9  1  0  0  0  0
  3 10  1  0  0  0  0
  3 13  1  0  0  0  0
  4 11  1  0  0  0  0
  4 12  1  0  0  0  0
  4 15  1  0  0  0  0
  5 24  1  0  0  0  0
  5 26  2  0  0  0  0
  6  8  1  0  0  0  0
  6  9  1  0  0  0  0
  6 11  1  0  0  0  0
  6 27  1  0  0  0  0
  7  8  1  0  0  0  0
  7 10  1  0  0  0  0
  7 12  1  0  0  0  0
  7 28  1  0  0  0  0
  8 29  1  0  0  0  0
  8 30  1  0  0  0  0
  9 31  1  0  0  0  0
  9 32  1  0  0  0  0
 10 33  1  0  0  0  0
 10 34  1  0  0  0  0
 11 35  1  0  0  0  0
 11 36  1  0  0  0  0
 12 14  2  0  0  0  0
 13 18  1  0  0  0  0
 13 37  1  0  0  0  0
 13 38  1  0  0  0  0
 14 17  1  0  0  0  0
 14 39  1  0  0  0  0
 15 16  1  0  0  0  0
 16 17  2  0  0  0  0
 16 19  1  0  0  0  0
 17 40  1  0  0  0  0
 18 20  2  0  0  0  0
 19 22  1  0  0  0  0
 19 24  2  0  0  0  0
 20 21  1  0  0  0  0
 20 41  1  0  0  0  0
 21 23  2  0  0  0  0
 21 42  1  0  0  0  0
 22 25  2  0  0  0  0
 22 43  1  0  0  0  0
 23 44  1  0  0  0  0
 24 45  1  0  0  0  0
 25 26  1  0  0  0  0
 25 46  1  0  0  0  0
 26 47  1  0  0  0  0
M  END
> <PUBCHEM_COMPOUND_CID>
28990637

> <PUBCHEM_CONFORMER_RMSD>
0.8

> <PUBCHEM_CONFORMER_DIVERSEORDER>
1
19
16
10
15
9
20
6
17
11
18
12
13
5
2
14
4
7
3
8

> <PUBCHEM_MMFF94_PARTIAL_CHARGES>
33
1 -0.08
10 0.27
11 0.3
12 -0.03
13 0.45
14 -0.15
15 0.62
16 -0.01
17 -0.15
18 -0.14
19 0.03
2 -0.57
20 -0.15
21 -0.15
22 -0.15
23 -0.11
24 0.16
25 -0.15
26 0.16
3 -0.81
39 0.15
4 -0.47
40 0.15
41 0.15
42 0.15
43 0.15
44 0.15
45 0.15
46 0.15
47 0.15
5 -0.62
7 0.14
9 0.27

> <PUBCHEM_EFFECTIVE_ROTOR_COUNT>
4

> <PUBCHEM_PHARMACOPHORE_FEATURES>
8
1 2 acceptor
1 3 cation
1 5 acceptor
5 1 18 20 21 23 rings
6 3 6 7 8 9 10 rings
6 4 12 14 15 16 17 rings
6 4 6 7 8 11 12 rings
6 5 19 22 24 25 26 rings

> <PUBCHEM_HEAVY_ATOM_COUNT>
26

> <PUBCHEM_ATOM_DEF_STEREO_COUNT>
2

> <PUBCHEM_ATOM_UDEF_STEREO_COUNT>
0

> <PUBCHEM_BOND_DEF_STEREO_COUNT>
0

> <PUBCHEM_BOND_UDEF_STEREO_COUNT>
0

> <PUBCHEM_ISOTOPIC_ATOM_COUNT>
0

> <PUBCHEM_COMPONENT_COUNT>
1

> <PUBCHEM_CACTVS_TAUTO_COUNT>
3

> <PUBCHEM_CONFORMER_ID>
01BA5CAD00000001

> <PUBCHEM_MMFF94_ENERGY>
64.0185

> <PUBCHEM_FEATURE_SELFOVERLAP>
42.151

> <PUBCHEM_SHAPE_FINGERPRINT>
114674 6 18335136514219577730
11796584 16 17703238420287821661
12107183 9 18126858092823779673
12293681 25 17975941346982029812
13150687 139 17825128128060943892
13533116 47 18343022242031802571
13583140 156 17631718478793856465
1361 2 18191588755446917143
13631057 29 18121225277902049446
13911987 19 17971504972800208628
14117953 113 17912083846202843823
14863182 85 18338229475162594840
15250474 111 18129936901406801967
15475509 35 18059287786048388419
15664445 248 16805326625466949428
15848702 151 18334294284228425009
17138139 8 17700133489176122094
17492 54 18116453569008742790
17818456 19 17914910746622334841
1813 80 18335698287151272619
18681886 176 15697168502685638336
20645477 70 18187929542121574017
20775530 9 18267018350058694934
21285901 2 17676203584812179716
21421861 104 18058748939123793363
22224240 67 18128246978068471272
23559900 14 18188496898684937217
23569914 152 17541338430117938671
238 59 18262809582856149698
25222932 49 16914523635263754143
3004659 81 18059863874021450535
345986 75 17917150511620612843
4340502 62 17844525728623668752
463206 1 18341894146679812147
5309563 4 18339079272732914558
56633871 153 17693106162518413027
59682541 52 18265592404421940999
6433294 58 18411419552601789615

> <PUBCHEM_SHAPE_MULTIPOLES>
518.1
10.3
4.39
1.54
14.63
2.65
0.16
7.92
-0.55
-6.4
-0.29
0.04
-0.57
-0.97

> <PUBCHEM_SHAPE_SELFOVERLAP>
1130.121

> <PUBCHEM_SHAPE_VOLUME>
282

> <PUBCHEM_COORDINATE_TYPE>
2
5
10

$$$$
