7144252
  -OEChem-12032416283D

 59 63  0     1  0  0  0  0  0999 V2000
    4.3868   -0.9280   -2.3700 O   0  0  0  0  0  0  0  0  0  0  0  0
   -4.5425   -2.1010   -1.6467 O   0  0  0  0  0  0  0  0  0  0  0  0
   -2.7082    4.7641    0.9715 O   0  0  0  0  0  0  0  0  0  0  0  0
    1.1096   -2.0720    1.2092 N   0  0  2  0  0  0  0  0  0  0  0  0
    3.0772   -0.2843   -0.5382 N   0  0  0  0  0  0  0  0  0  0  0  0
    3.4191   -1.3065    1.7901 C   0  0  1  0  0  0  0  0  0  0  0  0
    1.6604    0.3580    1.4348 C   0  0  2  0  0  0  0  0  0  0  0  0
    2.8832    0.0259    2.2865 C   0  0  0  0  0  0  0  0  0  0  0  0
    2.3436   -2.4027    1.9308 C   0  0  0  0  0  0  0  0  0  0  0  0
    0.5975   -0.7533    1.6073 C   0  0  0  0  0  0  0  0  0  0  0  0
    3.8911   -1.1319    0.3447 C   0  0  0  0  0  0  0  0  0  0  0  0
    2.0381    0.5262   -0.0397 C   0  0  0  0  0  0  0  0  0  0  0  0
    0.0966   -3.1067    1.4026 C   0  0  0  0  0  0  0  0  0  0  0  0
    1.4049    1.3990   -0.8658 C   0  0  0  0  0  0  0  0  0  0  0  0
    3.4777   -0.2534   -1.8857 C   0  0  0  0  0  0  0  0  0  0  0  0
    1.7876    1.4555   -2.2639 C   0  0  0  0  0  0  0  0  0  0  0  0
    2.7475    0.6822   -2.7709 C   0  0  0  0  0  0  0  0  0  0  0  0
   -1.1414   -2.8387    0.5887 C   0  0  0  0  0  0  0  0  0  0  0  0
    0.3228    2.2838   -0.3820 C   0  0  0  0  0  0  0  0  0  0  0  0
   -1.0162   -2.4494   -0.7372 C   0  0  0  0  0  0  0  0  0  0  0  0
   -2.3898   -2.9842    1.1770 C   0  0  0  0  0  0  0  0  0  0  0  0
   -0.9965    1.8426   -0.4134 C   0  0  0  0  0  0  0  0  0  0  0  0
    0.6318    3.5519    0.1005 C   0  0  0  0  0  0  0  0  0  0  0  0
   -2.1635   -2.2003   -1.4907 C   0  0  0  0  0  0  0  0  0  0  0  0
   -3.5369   -2.7353    0.4234 C   0  0  0  0  0  0  0  0  0  0  0  0
   -2.0166    2.6776    0.0423 C   0  0  0  0  0  0  0  0  0  0  0  0
   -0.3884    4.3868    0.5564 C   0  0  0  0  0  0  0  0  0  0  0  0
   -3.4238   -2.3433   -0.9104 C   0  0  0  0  0  0  0  0  0  0  0  0
   -1.7127    3.9496    0.5272 C   0  0  0  0  0  0  0  0  0  0  0  0
   -5.7993   -2.2662   -0.9917 C   0  0  0  0  0  0  0  0  0  0  0  0
   -4.0396    4.2539    0.9130 C   0  0  0  0  0  0  0  0  0  0  0  0
    4.2790   -1.6072    2.4015 H   0  0  0  0  0  0  0  0  0  0  0  0
    1.2456    1.2898    1.8355 H   0  0  0  0  0  0  0  0  0  0  0  0
    3.6450    0.8111    2.2039 H   0  0  0  0  0  0  0  0  0  0  0  0
    2.6060   -0.0430    3.3455 H   0  0  0  0  0  0  0  0  0  0  0  0
    2.7512   -3.3463    1.5469 H   0  0  0  0  0  0  0  0  0  0  0  0
    2.1335   -2.5559    2.9982 H   0  0  0  0  0  0  0  0  0  0  0  0
    0.2815   -0.7738    2.6601 H   0  0  0  0  0  0  0  0  0  0  0  0
   -0.2847   -0.4698    1.0284 H   0  0  0  0  0  0  0  0  0  0  0  0
    4.8875   -0.6685    0.3591 H   0  0  0  0  0  0  0  0  0  0  0  0
    4.0241   -2.1101   -0.1350 H   0  0  0  0  0  0  0  0  0  0  0  0
   -0.1577   -3.1992    2.4671 H   0  0  0  0  0  0  0  0  0  0  0  0
    0.4891   -4.0811    1.0834 H   0  0  0  0  0  0  0  0  0  0  0  0
    1.2597    2.1472   -2.9139 H   0  0  0  0  0  0  0  0  0  0  0  0
    3.0235    0.7276   -3.8176 H   0  0  0  0  0  0  0  0  0  0  0  0
   -0.0448   -2.3439   -1.2123 H   0  0  0  0  0  0  0  0  0  0  0  0
   -2.4901   -3.2897    2.2147 H   0  0  0  0  0  0  0  0  0  0  0  0
   -1.2497    0.8582   -0.7973 H   0  0  0  0  0  0  0  0  0  0  0  0
    1.6593    3.9056    0.1297 H   0  0  0  0  0  0  0  0  0  0  0  0
   -2.0689   -1.8968   -2.5298 H   0  0  0  0  0  0  0  0  0  0  0  0
   -4.4838   -2.8655    0.9362 H   0  0  0  0  0  0  0  0  0  0  0  0
   -3.0226    2.2754   -0.0103 H   0  0  0  0  0  0  0  0  0  0  0  0
   -0.1455    5.3766    0.9331 H   0  0  0  0  0  0  0  0  0  0  0  0
   -5.9169   -1.5597   -0.1630 H   0  0  0  0  0  0  0  0  0  0  0  0
   -5.9563   -3.3038   -0.6781 H   0  0  0  0  0  0  0  0  0  0  0  0
   -6.5788   -2.0322   -1.7242 H   0  0  0  0  0  0  0  0  0  0  0  0
   -4.7016    5.0326    1.3057 H   0  0  0  0  0  0  0  0  0  0  0  0
   -4.1625    3.3757    1.5558 H   0  0  0  0  0  0  0  0  0  0  0  0
   -4.3512    4.0599   -0.1189 H   0  0  0  0  0  0  0  0  0  0  0  0
  1 15  2  0  0  0  0
  2 28  1  0  0  0  0
  2 30  1  0  0  0  0
  3 29  1  0  0  0  0
  3 31  1  0  0  0  0
  4  9  1  0  0  0  0
  4 10  1  0  0  0  0
  4 13  1  0  0  0  0
  5 11  1  0  0  0  0
  5 12  1  0  0  0  0
  5 15  1  0  0  0  0
  6  8  1  0  0  0  0
  6  9  1  0  0  0  0
  6 11  1  0  0  0  0
  6 32  1  0  0  0  0
  7  8  1  0  0  0  0
  7 10  1  0  0  0  0
  7 12  1  0  0  0  0
  7 33  1  0  0  0  0
  8 34  1  0  0  0  0
  8 35  1  0  0  0  0
  9 36  1  0  0  0  0
  9 37  1  0  0  0  0
 10 38  1  0  0  0  0
 10 39  1  0  0  0  0
 11 40  1  0  0  0  0
 11 41  1  0  0  0  0
 12 14  2  0  0  0  0
 13 18  1  0  0  0  0
 13 42  1  0  0  0  0
 13 43  1  0  0  0  0
 14 16  1  0  0  0  0
 14 19  1  0  0  0  0
 15 17  1  0  0  0  0
 16 17  2  0  0  0  0
 16 44  1  0  0  0  0
 17 45  1  0  0  0  0
 18 20  2  0  0  0  0
 18 21  1  0  0  0  0
 19 22  2  0  0  0  0
 19 23  1  0  0  0  0
 20 24  1  0  0  0  0
 20 46  1  0  0  0  0
 21 25  2  0  0  0  0
 21 47  1  0  0  0  0
 22 26  1  0  0  0  0
 22 48  1  0  0  0  0
 23 27  2  0  0  0  0
 23 49  1  0  0  0  0
 24 28  2  0  0  0  0
 24 50  1  0  0  0  0
 25 28  1  0  0  0  0
 25 51  1  0  0  0  0
 26 29  2  0  0  0  0
 26 52  1  0  0  0  0
 27 29  1  0  0  0  0
 27 53  1  0  0  0  0
 30 54  1  0  0  0  0
 30 55  1  0  0  0  0
 30 56  1  0  0  0  0
 31 57  1  0  0  0  0
 31 58  1  0  0  0  0
 31 59  1  0  0  0  0
M  END
> <PUBCHEM_COMPOUND_CID>
7144252

> <PUBCHEM_CONFORMER_RMSD>
0.8

> <PUBCHEM_CONFORMER_DIVERSEORDER>
1
3
2

> <PUBCHEM_MMFF94_PARTIAL_CHARGES>
39
1 -0.57
10 0.27
11 0.3
12 -0.03
13 0.41
14 -0.03
15 0.62
16 -0.15
17 -0.14
18 -0.14
19 0.03
2 -0.36
20 -0.15
21 -0.15
22 -0.15
23 -0.15
24 -0.15
25 -0.15
26 -0.15
27 -0.15
28 0.08
29 0.08
3 -0.36
30 0.28
31 0.28
4 -0.81
44 0.15
45 0.15
46 0.15
47 0.15
48 0.15
49 0.15
5 -0.47
50 0.15
51 0.15
52 0.15
53 0.15
7 0.14
9 0.27

> <PUBCHEM_EFFECTIVE_ROTOR_COUNT>
6

> <PUBCHEM_PHARMACOPHORE_FEATURES>
9
1 1 acceptor
1 2 acceptor
1 3 acceptor
1 4 cation
6 18 20 21 24 25 28 rings
6 19 22 23 26 27 29 rings
6 4 6 7 8 9 10 rings
6 5 12 14 15 16 17 rings
6 5 6 7 8 11 12 rings

> <PUBCHEM_HEAVY_ATOM_COUNT>
31

> <PUBCHEM_ATOM_DEF_STEREO_COUNT>
2

> <PUBCHEM_ATOM_UDEF_STEREO_COUNT>
0

> <PUBCHEM_BOND_DEF_STEREO_COUNT>
0

> <PUBCHEM_BOND_UDEF_STEREO_COUNT>
0

> <PUBCHEM_ISOTOPIC_ATOM_COUNT>
0

> <PUBCHEM_COMPONENT_COUNT>
1

> <PUBCHEM_CACTVS_TAUTO_COUNT>
1

> <PUBCHEM_CONFORMER_ID>
006D033C00000001

> <PUBCHEM_MMFF94_ENERGY>
109.2015

> <PUBCHEM_FEATURE_SELFOVERLAP>
47.222

> <PUBCHEM_SHAPE_FINGERPRINT>
10006869 2 17835207393738585128
10064457 181 17764007083408698018
10764073 3 17468441126681246312
11513181 2 17409908260072618935
11578080 2 17559979713178893496
11828532 37 16414923080256158699
12156800 1 18197221352001204398
12293681 160 17898865809692600508
12788726 201 18337680805384348846
14114206 34 18118993483386289285
14537116 161 18267024037354920743
14863182 85 17545327380229213208
15238133 3 18115291367664326439
17980427 23 17190627579229825330
21860390 5 17766263654625100052
23419403 2 16989126435827847446
3052486 1 18337669724358266407
35225 105 17916008071631162899
376196 1 16756342558069008281
5081480 168 17695945449491249279
513532 50 17912076454189320591
57527573 199 17686322575206889464
6287921 2 17185874991705558081
66674814 147 16236964648449281439

> <PUBCHEM_SHAPE_MULTIPOLES>
610.4
7.7
6.48
2.36
6.61
8.67
0.86
-5.21
2.92
7.03
-2.74
-2.26
-0.82
-2.5

> <PUBCHEM_SHAPE_SELFOVERLAP>
1338.536

> <PUBCHEM_SHAPE_VOLUME>
324.2

> <PUBCHEM_COORDINATE_TYPE>
2
5
10

$$$$
