51137450
  -OEChem-12032416243D

 49 52  0     1  0  0  0  0  0999 V2000
    2.0471    0.5927    0.8365 O   0  0  0  0  0  0  0  0  0  0  0  0
    4.9502   -0.5857   -1.8067 O   0  0  0  0  0  0  0  0  0  0  0  0
   -5.7480   -3.5420   -1.0108 O   0  0  0  0  0  0  0  0  0  0  0  0
   -6.3089   -3.1455    1.1559 O   0  0  0  0  0  0  0  0  0  0  0  0
   -2.0938    2.5087    0.2612 N   0  0  1  0  0  0  0  0  0  0  0  0
    2.2196    2.3073   -0.5901 N   0  0  0  0  0  0  0  0  0  0  0  0
    3.3561    1.5304   -0.7165 N   0  0  0  0  0  0  0  0  0  0  0  0
    0.1355    2.1224    0.8781 C   0  0  1  0  0  0  0  0  0  0  0  0
   -0.1422    3.6357    0.8727 C   0  0  0  0  0  0  0  0  0  0  0  0
   -1.0354    1.5098    0.0979 C   0  0  0  0  0  0  0  0  0  0  0  0
   -1.4281    3.7976    0.0725 C   0  0  0  0  0  0  0  0  0  0  0  0
   -3.1929    2.3107   -0.6721 C   0  0  0  0  0  0  0  0  0  0  0  0
    1.4845    1.7224    0.3266 C   0  0  0  0  0  0  0  0  0  0  0  0
   -3.8694    0.9813   -0.4676 C   0  0  0  0  0  0  0  0  0  0  0  0
   -4.4347    0.6689    0.7689 C   0  0  0  0  0  0  0  0  0  0  0  0
   -3.9305    0.0617   -1.5147 C   0  0  0  0  0  0  0  0  0  0  0  0
    3.2121    0.5416    0.1345 C   0  0  0  0  0  0  0  0  0  0  0  0
   -5.0612   -0.5629    0.9579 C   0  0  0  0  0  0  0  0  0  0  0  0
   -4.5570   -1.1699   -1.3256 C   0  0  0  0  0  0  0  0  0  0  0  0
    4.0764   -0.5633    0.4329 C   0  0  0  0  0  0  0  0  0  0  0  0
   -5.1224   -1.4823   -0.0893 C   0  0  0  0  0  0  0  0  0  0  0  0
    4.9192   -1.0961   -0.5425 C   0  0  0  0  0  0  0  0  0  0  0  0
    4.0655   -1.1065    1.7175 C   0  0  0  0  0  0  0  0  0  0  0  0
   -5.7765   -2.7664    0.1076 C   0  0  0  0  0  0  0  0  0  0  0  0
    5.7512   -2.1721   -0.2332 C   0  0  0  0  0  0  0  0  0  0  0  0
    4.8975   -2.1826    2.0269 C   0  0  0  0  0  0  0  0  0  0  0  0
    5.7403   -2.7154    1.0516 C   0  0  0  0  0  0  0  0  0  0  0  0
    5.8458   -1.2005   -2.7302 C   0  0  0  0  0  0  0  0  0  0  0  0
    0.0873    1.7803    1.9217 H   0  0  0  0  0  0  0  0  0  0  0  0
   -0.2982    3.9781    1.9036 H   0  0  0  0  0  0  0  0  0  0  0  0
    0.6694    4.2342    0.4467 H   0  0  0  0  0  0  0  0  0  0  0  0
   -0.7693    1.3684   -0.9587 H   0  0  0  0  0  0  0  0  0  0  0  0
   -1.3046    0.5347    0.5186 H   0  0  0  0  0  0  0  0  0  0  0  0
   -2.0306    4.6321    0.4446 H   0  0  0  0  0  0  0  0  0  0  0  0
   -1.1872    3.9813   -0.9825 H   0  0  0  0  0  0  0  0  0  0  0  0
   -2.8492    2.4060   -1.7109 H   0  0  0  0  0  0  0  0  0  0  0  0
   -3.9494    3.0932   -0.5267 H   0  0  0  0  0  0  0  0  0  0  0  0
   -4.4000    1.3773    1.5924 H   0  0  0  0  0  0  0  0  0  0  0  0
   -3.4935    0.2909   -2.4830 H   0  0  0  0  0  0  0  0  0  0  0  0
   -5.4967   -0.7867    1.9283 H   0  0  0  0  0  0  0  0  0  0  0  0
   -4.5818   -1.8561   -2.1674 H   0  0  0  0  0  0  0  0  0  0  0  0
    3.4257   -0.7077    2.5012 H   0  0  0  0  0  0  0  0  0  0  0  0
    6.4325   -2.6403   -0.9348 H   0  0  0  0  0  0  0  0  0  0  0  0
    4.8906   -2.6046    3.0277 H   0  0  0  0  0  0  0  0  0  0  0  0
    6.3880   -3.5531    1.2939 H   0  0  0  0  0  0  0  0  0  0  0  0
    6.8900   -1.0853   -2.4199 H   0  0  0  0  0  0  0  0  0  0  0  0
    5.5771   -2.2452   -2.9209 H   0  0  0  0  0  0  0  0  0  0  0  0
    5.7396   -0.6691   -3.6819 H   0  0  0  0  0  0  0  0  0  0  0  0
   -6.1915   -4.4052   -0.8677 H   0  0  0  0  0  0  0  0  0  0  0  0
  1 13  1  0  0  0  0
  1 17  1  0  0  0  0
  2 22  1  0  0  0  0
  2 28  1  0  0  0  0
  3 24  1  0  0  0  0
  3 49  1  0  0  0  0
  4 24  2  0  0  0  0
  5 10  1  0  0  0  0
  5 11  1  0  0  0  0
  5 12  1  0  0  0  0
  6  7  1  0  0  0  0
  6 13  2  0  0  0  0
  7 17  2  0  0  0  0
  8  9  1  0  0  0  0
  8 10  1  0  0  0  0
  8 13  1  0  0  0  0
  8 29  1  0  0  0  0
  9 11  1  0  0  0  0
  9 30  1  0  0  0  0
  9 31  1  0  0  0  0
 10 32  1  0  0  0  0
 10 33  1  0  0  0  0
 11 34  1  0  0  0  0
 11 35  1  0  0  0  0
 12 14  1  0  0  0  0
 12 36  1  0  0  0  0
 12 37  1  0  0  0  0
 14 15  2  0  0  0  0
 14 16  1  0  0  0  0
 15 18  1  0  0  0  0
 15 38  1  0  0  0  0
 16 19  2  0  0  0  0
 16 39  1  0  0  0  0
 17 20  1  0  0  0  0
 18 21  2  0  0  0  0
 18 40  1  0  0  0  0
 19 21  1  0  0  0  0
 19 41  1  0  0  0  0
 20 22  1  0  0  0  0
 20 23  2  0  0  0  0
 21 24  1  0  0  0  0
 22 25  2  0  0  0  0
 23 26  1  0  0  0  0
 23 42  1  0  0  0  0
 25 27  1  0  0  0  0
 25 43  1  0  0  0  0
 26 27  2  0  0  0  0
 26 44  1  0  0  0  0
 27 45  1  0  0  0  0
 28 46  1  0  0  0  0
 28 47  1  0  0  0  0
 28 48  1  0  0  0  0
M  END
> <PUBCHEM_COMPOUND_CID>
51137450

> <PUBCHEM_CONFORMER_RMSD>
0.8

> <PUBCHEM_CONFORMER_DIVERSEORDER>
12
19
123
67
153
96
191
122
91
14
103
156
200
42
149
126
102
55
9
24
76
190
26
88
185
23
60
160
49
51
128
186
15
197
95
10
183
204
131
134
120
195
71
77
177
193
20
139
3
59
168
62
125
85
72
70
106
137
166
199
113
63
44
22
138
28
97
86
114
132
161
141
182
5
8
36
184
118
64
107
89
79
170
192
147
203
135
37
6
105
33
73
158
165
66
61
142
163
171
201
35
169
80
75
25
40
100
43
180
78
155
90
116
198
74
150
119
34
176
136
124
68
194
94
41
45
27
173
175
157
181
152
99
189
29
53
179
112
196
38
110
98
54
111
21
188
52
127
47
81
121
187
58
172
30
140
87
108
178
17
104
146
167
129
16
164
13
4
162
56
148
117
202
18
57
93
2
143
130
46
92
82
39
84
133
1
83
48
174
50
151
69
159
115
65
32
144
7
154
101
31
145
11
109

> <PUBCHEM_MMFF94_PARTIAL_CHARGES>
36
1 -0.28
10 0.27
11 0.27
12 0.41
13 0.3
14 -0.14
15 -0.15
16 -0.15
17 0.43
18 -0.15
19 -0.15
2 -0.36
20 0.05
21 0.09
22 0.08
23 -0.15
24 0.63
25 -0.15
26 -0.15
27 -0.15
28 0.28
3 -0.65
38 0.15
39 0.15
4 -0.57
40 0.15
41 0.15
42 0.15
43 0.15
44 0.15
45 0.15
49 0.5
5 -0.81
6 -0.34
7 -0.34
8 0.18

> <PUBCHEM_EFFECTIVE_ROTOR_COUNT>
7

> <PUBCHEM_PHARMACOPHORE_FEATURES>
9
1 2 acceptor
1 3 acceptor
1 4 acceptor
1 5 cation
3 3 4 24 anion
5 1 6 7 13 17 rings
5 5 8 9 10 11 rings
6 14 15 16 18 19 21 rings
6 20 22 23 25 26 27 rings

> <PUBCHEM_HEAVY_ATOM_COUNT>
28

> <PUBCHEM_ATOM_DEF_STEREO_COUNT>
1

> <PUBCHEM_ATOM_UDEF_STEREO_COUNT>
0

> <PUBCHEM_BOND_DEF_STEREO_COUNT>
0

> <PUBCHEM_BOND_UDEF_STEREO_COUNT>
0

> <PUBCHEM_ISOTOPIC_ATOM_COUNT>
0

> <PUBCHEM_COMPONENT_COUNT>
1

> <PUBCHEM_CACTVS_TAUTO_COUNT>
1

> <PUBCHEM_CONFORMER_ID>
030C4BAA0000000C

> <PUBCHEM_MMFF94_ENERGY>
78.0272

> <PUBCHEM_FEATURE_SELFOVERLAP>
45.73

> <PUBCHEM_SHAPE_FINGERPRINT>
10074138 170 17344073961666599193
10169797 241 18272649091249588482
10622 236 17969773086760905730
10904742 38 13038362303017908203
10928967 22 18341607153044503703
10981352 41 17846210107486164439
117089 54 18410298025203847411
11763715 3 18263103083494311596
11796584 16 18340201869662440776
11809386 21 18264764368127030793
12107183 9 18271539671601999865
12166972 35 17894915152438961951
12422481 6 17131835352209365917
12975358 362 10663276599778957539
13383661 66 17988661669966005918
1361 4 18410575046726460590
1361 87 17823420581933765755
13690498 29 18040716931565402605
13911852 28 18339636862999335839
14211702 104 18410567396845816194
14251764 30 18410858793471280399
14347332 77 18334294236598812209
14420673 8 18412549799937818441
14480069 147 17894917291411692995
14848178 5 18337658750637866312
14866123 147 18340486665508714713
14951699 99 11743835902111709570
15250474 111 18116710708194397666
15320291 9 17408225324003124127
15510800 12 18131347488693284199
15530120 55 17240772778098902310
15684393 108 17604160289063556711
15728490 83 18264770969887715875
16120349 189 9943808880966533003
17138139 8 18113896031568479034
17492 89 18409443687467694464
18393751 57 11527956681914745709
19246450 95 12318066660630392678
19319366 153 17833268996923682204
193927 3 18201720613685218796
19841028 212 18055906844055287727
20691028 202 8646502842437811615
20775438 99 17760630861168216579
20843269 155 18337101289932250258
21585481 104 16370997469913009679
21599406 157 16298390162425680459
21968339 14 15574720201480013436
22950370 63 18412268371779077721
229767 8 18190467258542047131
2835820 82 17907008832007097231
2838139 119 7853564695653727336
312425 54 15985098583307933342
3383291 50 17916573251622450021
3459 39 8574421003050450126
376196 1 9006791907702121921
3862424 121 17532952695187555323
4015057 19 16588887680605063244
439807 62 18187365433096759835
44062 13 18335413522625615645
4756326 101 15122954977331409091
484985 159 18339641128018496545
50009960 94 18045750504450573906
5104073 3 18131349722002905809
56633871 153 17987798652580970167
6431902 208 18339350890395716410
7808743 9 9006761116606290400
7918774 8 18272934916294628359
7970288 3 18410851092595224123
9980921 52 17555433374707358647

> <PUBCHEM_SHAPE_MULTIPOLES>
537.81
17.89
4.56
1.71
1.07
0.7
-0.61
-21.36
-1.9
-4.71
0.81
2.42
-0.92
-0.67

> <PUBCHEM_SHAPE_SELFOVERLAP>
1173.259

> <PUBCHEM_SHAPE_VOLUME>
294

> <PUBCHEM_COORDINATE_TYPE>
2
5
10

$$$$
