11885944
  -OEChem-12032416123D

 42 44  0     1  0  0  0  0  0999 V2000
    1.2675   -0.5408   -1.0423 O   0  0  0  0  0  0  0  0  0  0  0  0
    1.1722   -2.8763    0.9426 O   0  0  0  0  0  0  0  0  0  0  0  0
    3.8257   -0.6492    0.0304 O   0  0  0  0  0  0  0  0  0  0  0  0
   -3.3463   -1.8172   -1.0685 O   0  0  0  0  0  0  0  0  0  0  0  0
    3.4108    1.4834    0.7750 O   0  0  0  0  0  0  0  0  0  0  0  0
   -1.6528   -0.7097    0.0648 N   0  0  0  0  0  0  0  0  0  0  0  0
    5.1424    1.0400   -0.7038 N   0  0  0  0  0  0  0  0  0  0  0  0
   -3.3451    1.2555    0.5945 N   0  0  0  0  0  0  0  0  0  0  0  0
    0.4460   -1.6304    0.8970 C   0  0  1  0  0  0  0  0  0  0  0  0
    1.4103   -0.5782    0.3875 C   0  0  1  0  0  0  0  0  0  0  0  0
   -0.6216   -1.6908   -0.1704 C   0  0  2  0  0  0  0  0  0  0  0  0
    2.7508   -1.1362    0.8015 C   0  0  1  0  0  0  0  0  0  0  0  0
    0.1649   -1.3746   -1.4309 C   0  0  0  0  0  0  0  0  0  0  0  0
    2.5474   -2.6234    0.6193 C   0  0  0  0  0  0  0  0  0  0  0  0
   -2.9476   -0.8589   -0.4118 C   0  0  0  0  0  0  0  0  0  0  0  0
    4.0696    0.7038    0.0947 C   0  0  0  0  0  0  0  0  0  0  0  0
   -3.8852    0.2525   -0.1071 C   0  0  0  0  0  0  0  0  0  0  0  0
    5.6439    2.3873   -0.8478 C   0  0  0  0  0  0  0  0  0  0  0  0
   -5.1792    0.1706   -0.5476 C   0  0  0  0  0  0  0  0  0  0  0  0
   -6.0146    1.2371   -0.2344 C   0  0  0  0  0  0  0  0  0  0  0  0
    4.8448    3.3688   -0.0156 C   0  0  0  0  0  0  0  0  0  0  0  0
   -4.1870    2.2739    0.8802 C   0  0  0  0  0  0  0  0  0  0  0  0
   -5.5168    2.3128    0.4928 C   0  0  0  0  0  0  0  0  0  0  0  0
    0.0725   -1.4267    1.9057 H   0  0  0  0  0  0  0  0  0  0  0  0
    1.1877    0.4209    0.7714 H   0  0  0  0  0  0  0  0  0  0  0  0
   -1.0871   -2.6791   -0.2513 H   0  0  0  0  0  0  0  0  0  0  0  0
    2.9301   -0.9357    1.8665 H   0  0  0  0  0  0  0  0  0  0  0  0
   -0.4192   -0.8644   -2.2029 H   0  0  0  0  0  0  0  0  0  0  0  0
    0.5884   -2.2864   -1.8663 H   0  0  0  0  0  0  0  0  0  0  0  0
    3.1932   -3.2147    1.2754 H   0  0  0  0  0  0  0  0  0  0  0  0
    2.7344   -2.9463   -0.4110 H   0  0  0  0  0  0  0  0  0  0  0  0
   -1.4064    0.1440    0.5583 H   0  0  0  0  0  0  0  0  0  0  0  0
    5.6062    0.2988   -1.2200 H   0  0  0  0  0  0  0  0  0  0  0  0
    5.5958    2.6460   -1.9100 H   0  0  0  0  0  0  0  0  0  0  0  0
    6.6951    2.3829   -0.5441 H   0  0  0  0  0  0  0  0  0  0  0  0
   -5.5655   -0.6687   -1.1138 H   0  0  0  0  0  0  0  0  0  0  0  0
   -7.0517    1.2303   -0.5561 H   0  0  0  0  0  0  0  0  0  0  0  0
    5.2704    4.3691   -0.1657 H   0  0  0  0  0  0  0  0  0  0  0  0
    4.9234    3.1787    1.0597 H   0  0  0  0  0  0  0  0  0  0  0  0
    3.8005    3.4473   -0.3354 H   0  0  0  0  0  0  0  0  0  0  0  0
   -3.7503    3.0881    1.4491 H   0  0  0  0  0  0  0  0  0  0  0  0
   -6.1497    3.1548    0.7483 H   0  0  0  0  0  0  0  0  0  0  0  0
  1 10  1  0  0  0  0
  1 13  1  0  0  0  0
  2  9  1  0  0  0  0
  2 14  1  0  0  0  0
  3 12  1  0  0  0  0
  3 16  1  0  0  0  0
  4 15  2  0  0  0  0
  5 16  2  0  0  0  0
  6 11  1  0  0  0  0
  6 15  1  0  0  0  0
  6 32  1  0  0  0  0
  7 16  1  0  0  0  0
  7 18  1  0  0  0  0
  7 33  1  0  0  0  0
  8 17  1  0  0  0  0
  8 22  2  0  0  0  0
  9 10  1  0  0  0  0
  9 11  1  0  0  0  0
  9 24  1  0  0  0  0
 10 12  1  0  0  0  0
 10 25  1  0  0  0  0
 11 13  1  0  0  0  0
 11 26  1  0  0  0  0
 12 14  1  0  0  0  0
 12 27  1  0  0  0  0
 13 28  1  0  0  0  0
 13 29  1  0  0  0  0
 14 30  1  0  0  0  0
 14 31  1  0  0  0  0
 15 17  1  0  0  0  0
 17 19  2  0  0  0  0
 18 21  1  0  0  0  0
 18 34  1  0  0  0  0
 18 35  1  0  0  0  0
 19 20  1  0  0  0  0
 19 36  1  0  0  0  0
 20 23  2  0  0  0  0
 20 37  1  0  0  0  0
 21 38  1  0  0  0  0
 21 39  1  0  0  0  0
 21 40  1  0  0  0  0
 22 23  1  0  0  0  0
 22 41  1  0  0  0  0
 23 42  1  0  0  0  0
M  END
> <PUBCHEM_COMPOUND_CID>
11885944

> <PUBCHEM_CONFORMER_RMSD>
0.8

> <PUBCHEM_CONFORMER_DIVERSEORDER>
1
28
21
10
34
47
24
8
44
42
16
36
37
41
27
32
43
4
13
23
19
29
12
31
20
38
26
33
40
17
7
30
14
46
11
3
9
35
45
18
22
2
6
15
25
39
5

> <PUBCHEM_MMFF94_PARTIAL_CHARGES>
28
1 -0.56
10 0.28
11 0.3
12 0.28
13 0.28
14 0.28
15 0.54
16 0.78
17 0.4
18 0.3
19 -0.15
2 -0.56
20 -0.15
22 0.16
23 -0.15
3 -0.43
32 0.37
33 0.37
36 0.15
37 0.15
4 -0.57
41 0.15
42 0.15
5 -0.57
6 -0.73
7 -0.73
8 -0.62
9 0.28

> <PUBCHEM_EFFECTIVE_ROTOR_COUNT>
8.2

> <PUBCHEM_PHARMACOPHORE_FEATURES>
10
1 1 acceptor
1 2 acceptor
1 4 acceptor
1 5 acceptor
1 6 donor
1 7 donor
1 8 acceptor
5 1 9 10 11 13 rings
5 2 9 10 12 14 rings
6 8 17 19 20 22 23 rings

> <PUBCHEM_HEAVY_ATOM_COUNT>
23

> <PUBCHEM_ATOM_DEF_STEREO_COUNT>
4

> <PUBCHEM_ATOM_UDEF_STEREO_COUNT>
0

> <PUBCHEM_BOND_DEF_STEREO_COUNT>
0

> <PUBCHEM_BOND_UDEF_STEREO_COUNT>
0

> <PUBCHEM_ISOTOPIC_ATOM_COUNT>
0

> <PUBCHEM_COMPONENT_COUNT>
1

> <PUBCHEM_CACTVS_TAUTO_COUNT>
4

> <PUBCHEM_CONFORMER_ID>
00B55D7800000001

> <PUBCHEM_MMFF94_ENERGY>
61.7673

> <PUBCHEM_FEATURE_SELFOVERLAP>
51.464

> <PUBCHEM_SHAPE_FINGERPRINT>
10670039 82 17417539011986242760
10759866 29 18342456998001661339
12390115 104 18188502396654695206
12596602 18 17822009809413966081
12788726 201 17488466274143745121
13590594 115 17832429700790532794
13878862 14 18044350782734466253
13885169 86 18189344626582817172
13955234 65 17896314723293624882
14251764 75 18342186535659006793
14257110 125 18409731785035789328
14347332 77 9439403528099446707
14528608 73 18413106160588708709
14739800 52 18200573874559646232
14790565 3 18408888472745196028
14840074 17 17894634785258430413
14848178 96 18409162233997287008
14849402 71 18260829259741427026
15142526 21 18260546761781765442
15163728 17 18059308598847539847
15183329 4 18059868242483206340
15342168 16 18334011696322454351
1768 23 17773616931248095313
17959699 21 18342457036508394569
20567600 9 18410580574169743300
21304253 335 18334018328100268892
21315764 268 18045778997184526077
21344244 181 13038894569440091373
21503847 285 18337955576007170714
23559900 14 17416403152277295351
23845131 108 18041278845809428178
245318 6 17823715245995627732
268830 7 18261098648078948631
270888 7 18409167731355102156
2838139 119 18271804670313853708
316301 35 10809930504014422837
3472631 163 18342458102230106773
38570 142 18336841835437209638
445580 204 18341050834932193260
44802255 64 17201088243295416556
474 4 18260267464284732587
5104073 3 17894908546594878618
57724786 102 18268432326438305109
6034566 193 17607264313515463380
633830 44 18410570682644016878
636775 72 17907295813042229824
7288768 16 17895755213455409562
7808743 9 18343017800761214459
7970288 3 10015322212407167724

> <PUBCHEM_SHAPE_MULTIPOLES>
429.04
14.14
3.42
1.05
4.79
1.14
0.12
14.35
1.12
-3.01
-0.47
-0.1
-0.21
-1.93

> <PUBCHEM_SHAPE_SELFOVERLAP>
915.667

> <PUBCHEM_SHAPE_VOLUME>
237

> <PUBCHEM_COORDINATE_TYPE>
2
5
10

$$$$
