51137966
  -OEChem-12032416223D

 52 55  0     1  0  0  0  0  0999 V2000
   -5.2334   -1.2257   -1.4752 O   0  0  0  0  0  0  0  0  0  0  0  0
   -2.2375    0.8338    1.8778 O   0  0  0  0  0  0  0  0  0  0  0  0
    0.0728    0.9837    0.7174 N   0  0  0  0  0  0  0  0  0  0  0  0
   -3.1081   -0.5874    0.2614 N   0  0  0  0  0  0  0  0  0  0  0  0
    3.0667   -3.0784    0.5170 N   0  0  0  0  0  0  0  0  0  0  0  0
    1.1005    1.2957   -0.2850 C   0  0  2  0  0  0  0  0  0  0  0  0
   -0.6822   -0.2333    0.4557 C   0  0  1  0  0  0  0  0  0  0  0  0
    2.2480    0.2875   -0.4032 C   0  0  0  0  0  0  0  0  0  0  0  0
   -0.1209   -1.4204    1.2361 C   0  0  0  0  0  0  0  0  0  0  0  0
    1.5908    2.7068    0.0864 C   0  0  0  0  0  0  0  0  0  0  0  0
    2.2272   -1.0426    0.1073 C   0  0  0  0  0  0  0  0  0  0  0  0
    1.2509   -1.8276    0.8134 C   0  0  0  0  0  0  0  0  0  0  0  0
    0.6121    3.8090   -0.3301 C   0  0  0  0  0  0  0  0  0  0  0  0
   -2.0720    0.0559    0.9349 C   0  0  0  0  0  0  0  0  0  0  0  0
    3.3401   -1.8706   -0.0803 C   0  0  0  0  0  0  0  0  0  0  0  0
    1.8125   -3.0658    1.0517 C   0  0  0  0  0  0  0  0  0  0  0  0
    3.4021    0.6564   -1.1403 C   0  0  0  0  0  0  0  0  0  0  0  0
   -2.9424   -1.6112   -0.7761 C   0  0  0  0  0  0  0  0  0  0  0  0
   -4.4959   -0.3572    0.6618 C   0  0  0  0  0  0  0  0  0  0  0  0
    4.4869   -1.4726   -0.7693 C   0  0  0  0  0  0  0  0  0  0  0  0
    1.2067    5.1733    0.0274 C   0  0  0  0  0  0  0  0  0  0  0  0
   -0.7612    3.6561    0.3251 C   0  0  0  0  0  0  0  0  0  0  0  0
    4.4936   -0.1932   -1.3099 C   0  0  0  0  0  0  0  0  0  0  0  0
   -3.8861   -1.3391   -1.9408 C   0  0  0  0  0  0  0  0  0  0  0  0
   -5.3712   -0.1330   -0.5631 C   0  0  0  0  0  0  0  0  0  0  0  0
    0.6322    1.3432   -1.2778 H   0  0  0  0  0  0  0  0  0  0  0  0
   -0.6749   -0.4044   -0.6217 H   0  0  0  0  0  0  0  0  0  0  0  0
   -0.1042   -1.1993    2.3126 H   0  0  0  0  0  0  0  0  0  0  0  0
   -0.7931   -2.2813    1.1226 H   0  0  0  0  0  0  0  0  0  0  0  0
    1.8020    2.7690    1.1644 H   0  0  0  0  0  0  0  0  0  0  0  0
    2.5456    2.9472   -0.3898 H   0  0  0  0  0  0  0  0  0  0  0  0
    0.4701    0.9764    1.6560 H   0  0  0  0  0  0  0  0  0  0  0  0
    0.4796    3.7798   -1.4191 H   0  0  0  0  0  0  0  0  0  0  0  0
    1.4210   -3.9398    1.5535 H   0  0  0  0  0  0  0  0  0  0  0  0
    3.4572    1.6237   -1.6342 H   0  0  0  0  0  0  0  0  0  0  0  0
    3.6986   -3.8669    0.5396 H   0  0  0  0  0  0  0  0  0  0  0  0
   -3.2175   -2.5608   -0.3000 H   0  0  0  0  0  0  0  0  0  0  0  0
   -1.9252   -1.7278   -1.1425 H   0  0  0  0  0  0  0  0  0  0  0  0
   -4.5731    0.4924    1.3469 H   0  0  0  0  0  0  0  0  0  0  0  0
   -4.8184   -1.2574    1.1982 H   0  0  0  0  0  0  0  0  0  0  0  0
    5.3316   -2.1405   -0.9001 H   0  0  0  0  0  0  0  0  0  0  0  0
    1.3512    5.2738    1.1086 H   0  0  0  0  0  0  0  0  0  0  0  0
    0.5480    5.9839   -0.3023 H   0  0  0  0  0  0  0  0  0  0  0  0
    2.1768    5.3179   -0.4601 H   0  0  0  0  0  0  0  0  0  0  0  0
   -1.3536    4.5673    0.1782 H   0  0  0  0  0  0  0  0  0  0  0  0
   -1.3433    2.8527   -0.1342 H   0  0  0  0  0  0  0  0  0  0  0  0
   -0.6858    3.4946    1.4054 H   0  0  0  0  0  0  0  0  0  0  0  0
    5.3547    0.1447   -1.8804 H   0  0  0  0  0  0  0  0  0  0  0  0
   -3.6083   -0.4218   -2.4734 H   0  0  0  0  0  0  0  0  0  0  0  0
   -3.8481   -2.1668   -2.6559 H   0  0  0  0  0  0  0  0  0  0  0  0
   -6.4232   -0.0714   -0.2679 H   0  0  0  0  0  0  0  0  0  0  0  0
   -5.1106    0.8007   -1.0757 H   0  0  0  0  0  0  0  0  0  0  0  0
  1 24  1  0  0  0  0
  1 25  1  0  0  0  0
  2 14  2  0  0  0  0
  3  6  1  0  0  0  0
  3  7  1  0  0  0  0
  3 32  1  0  0  0  0
  4 14  1  0  0  0  0
  4 18  1  0  0  0  0
  4 19  1  0  0  0  0
  5 15  1  0  0  0  0
  5 16  1  0  0  0  0
  5 36  1  0  0  0  0
  6  8  1  0  0  0  0
  6 10  1  0  0  0  0
  6 26  1  0  0  0  0
  7  9  1  0  0  0  0
  7 14  1  0  0  0  0
  7 27  1  0  0  0  0
  8 11  2  0  0  0  0
  8 17  1  0  0  0  0
  9 12  1  0  0  0  0
  9 28  1  0  0  0  0
  9 29  1  0  0  0  0
 10 13  1  0  0  0  0
 10 30  1  0  0  0  0
 10 31  1  0  0  0  0
 11 12  1  0  0  0  0
 11 15  1  0  0  0  0
 12 16  2  0  0  0  0
 13 21  1  0  0  0  0
 13 22  1  0  0  0  0
 13 33  1  0  0  0  0
 15 20  2  0  0  0  0
 16 34  1  0  0  0  0
 17 23  2  0  0  0  0
 17 35  1  0  0  0  0
 18 24  1  0  0  0  0
 18 37  1  0  0  0  0
 18 38  1  0  0  0  0
 19 25  1  0  0  0  0
 19 39  1  0  0  0  0
 19 40  1  0  0  0  0
 20 23  1  0  0  0  0
 20 41  1  0  0  0  0
 21 42  1  0  0  0  0
 21 43  1  0  0  0  0
 21 44  1  0  0  0  0
 22 45  1  0  0  0  0
 22 46  1  0  0  0  0
 22 47  1  0  0  0  0
 23 48  1  0  0  0  0
 24 49  1  0  0  0  0
 24 50  1  0  0  0  0
 25 51  1  0  0  0  0
 25 52  1  0  0  0  0
M  END
> <PUBCHEM_COMPOUND_CID>
51137966

> <PUBCHEM_CONFORMER_RMSD>
0.8

> <PUBCHEM_CONFORMER_DIVERSEORDER>
1
15
14
18
17
2
9
7
6
4
10
13
5
12
3
19
16
8
11

> <PUBCHEM_MMFF94_PARTIAL_CHARGES>
26
1 -0.56
12 -0.18
14 0.57
15 -0.15
16 -0.3
17 -0.15
18 0.3
19 0.3
2 -0.57
20 -0.15
23 -0.15
24 0.28
25 0.28
3 -0.9
32 0.36
34 0.15
35 0.15
36 0.27
4 -0.66
41 0.15
48 0.15
5 0.03
6 0.41
7 0.33
8 -0.14
9 0.18

> <PUBCHEM_EFFECTIVE_ROTOR_COUNT>
6

> <PUBCHEM_PHARMACOPHORE_FEATURES>
11
1 1 acceptor
1 2 acceptor
1 3 cation
1 3 donor
1 5 cation
1 5 donor
3 13 21 22 hydrophobe
5 5 11 12 15 16 rings
6 1 4 18 19 24 25 rings
6 8 11 15 17 20 23 rings
7 3 6 7 8 9 11 12 rings

> <PUBCHEM_HEAVY_ATOM_COUNT>
25

> <PUBCHEM_ATOM_DEF_STEREO_COUNT>
2

> <PUBCHEM_ATOM_UDEF_STEREO_COUNT>
0

> <PUBCHEM_BOND_DEF_STEREO_COUNT>
0

> <PUBCHEM_BOND_UDEF_STEREO_COUNT>
0

> <PUBCHEM_ISOTOPIC_ATOM_COUNT>
0

> <PUBCHEM_COMPONENT_COUNT>
1

> <PUBCHEM_CACTVS_TAUTO_COUNT>
1

> <PUBCHEM_CONFORMER_ID>
030C4DAE00000001

> <PUBCHEM_MMFF94_ENERGY>
61.2987

> <PUBCHEM_FEATURE_SELFOVERLAP>
55.951

> <PUBCHEM_SHAPE_FINGERPRINT>
105312 117 17324643769921404732
10764073 3 15224754372583474337
10930396 42 18120065490977574840
11578080 2 17915155958778702520
12236239 1 18272656714167906563
12553582 1 18409737239691669874
12788726 201 18048031870122486529
13004483 165 18267011757056587459
13009979 54 17846509144705084315
13134695 92 18408322189696050022
13540713 5 17609508120996403386
13583140 156 18262246616150282859
13692114 37 17402594265522226529
13757389 114 17041205637417391838
13911987 19 18042709319675497430
14537116 161 17757507982542955925
14681490 219 18409167701258578957
15210252 30 17822015315298854220
15439362 3 18122347049290708085
1813 80 18273494542154716823
18335252 114 18265039255800465445
20626108 58 17845923126355949463
2132832 1 17825655669749938898
21634736 98 18199467842876491839
21641784 216 17896623703583297060
221357 26 18333723599244625877
22289505 5 18187358792618261295
2255824 54 18268428108358368789
23419403 2 16812299668565604050
23559900 14 18267303307931564193
23598291 2 18202012052969971889
238 59 18194406820870929218
24771293 8 18272650199456970944
25147074 1 17608382238169209738
283562 15 18263092016074621928
3004659 81 17989202681663601711
352729 6 17040926361015673664
4353968 344 18195533598233469942
46194498 28 17169000039598601815
463206 1 18408326600617491455
474 4 18123183769217666441
532947 4 18194969766951766176
574716 61 18200026382367719559
6004065 56 18268142248621124928
6443956 14 18408605885313751604
7164475 11 18121217580713727110
7399639 24 17395586446615649139
7471813 234 18263353699341269018
9981440 41 17404859744547826000

> <PUBCHEM_SHAPE_MULTIPOLES>
487.81
9
4.82
1.37
8.74
7.46
0.2
-5.89
4.33
-3.57
-0.67
0.85
-0.54
-1.28

> <PUBCHEM_SHAPE_SELFOVERLAP>
1045.958

> <PUBCHEM_SHAPE_VOLUME>
269

> <PUBCHEM_COORDINATE_TYPE>
2
5
10

$$$$
