11865837
  -OEChem-12032416363D

 62 63  0     1  0  0  0  0  0999 V2000
    5.0729    2.6396    0.7775 S   0  0  0  0  0  0  0  0  0  0  0  0
    0.7326    2.1196    0.9653 O   0  0  0  0  0  0  0  0  0  0  0  0
    3.1146    1.3503   -1.6077 O   0  0  0  0  0  0  0  0  0  0  0  0
   -1.0109   -2.8365   -0.1931 O   0  0  0  0  0  0  0  0  0  0  0  0
   -0.3723    3.0304   -2.7506 O   0  0  0  0  0  0  0  0  0  0  0  0
    2.6165    0.3187    0.4038 N   0  0  0  0  0  0  0  0  0  0  0  0
    1.0895   -2.4004    0.6957 N   0  0  0  0  0  0  0  0  0  0  0  0
   -0.6440    1.2323   -0.6890 N   0  0  0  0  0  0  0  0  0  0  0  0
    0.6574   -4.4478   -0.2576 N   0  0  0  0  0  0  0  0  0  0  0  0
   -1.3501    4.6365   -1.4311 N   0  0  0  0  0  0  0  0  0  0  0  0
    0.8253   -1.0513    1.1366 C   0  0  2  0  0  0  0  0  0  0  0  0
    1.2403   -0.0359    0.0720 C   0  0  1  0  0  0  0  0  0  0  0  0
    1.6934   -0.6793    2.3417 C   0  0  0  0  0  0  0  0  0  0  0  0
    2.9958   -0.1961    1.7167 C   0  0  0  0  0  0  0  0  0  0  0  0
    0.4376    1.2269    0.1750 C   0  0  0  0  0  0  0  0  0  0  0  0
    3.4683    0.9263   -0.5061 C   0  0  0  0  0  0  0  0  0  0  0  0
   -1.5872    2.3243   -0.7680 C   0  0  2  0  0  0  0  0  0  0  0  0
    0.1389   -3.1947    0.0588 C   0  0  0  0  0  0  0  0  0  0  0  0
    4.9040    1.0593   -0.0644 C   0  0  0  0  0  0  0  0  0  0  0  0
   -2.9754    1.8594   -1.2225 C   0  0  0  0  0  0  0  0  0  0  0  0
   -1.0189    3.3367   -1.7516 C   0  0  0  0  0  0  0  0  0  0  0  0
   -0.1160   -5.4693   -0.9235 C   0  0  0  0  0  0  0  0  0  0  0  0
   -3.7740    1.2290   -0.1078 C   0  0  0  0  0  0  0  0  0  0  0  0
   -0.0059   -5.3224   -2.4360 C   0  0  0  0  0  0  0  0  0  0  0  0
    0.3314   -6.8526   -0.4692 C   0  0  0  0  0  0  0  0  0  0  0  0
   -3.6869   -0.1442    0.1222 C   0  0  0  0  0  0  0  0  0  0  0  0
   -4.5989    2.0192    0.6929 C   0  0  0  0  0  0  0  0  0  0  0  0
    6.8326    2.5493    1.1911 C   0  0  0  0  0  0  0  0  0  0  0  0
   -4.4248   -0.7270    1.1525 C   0  0  0  0  0  0  0  0  0  0  0  0
   -5.3365    1.4363    1.7233 C   0  0  0  0  0  0  0  0  0  0  0  0
   -5.2495    0.0631    1.9531 C   0  0  0  0  0  0  0  0  0  0  0  0
   -0.2388   -0.9773    1.3890 H   0  0  0  0  0  0  0  0  0  0  0  0
    1.2046   -0.4300   -0.9504 H   0  0  0  0  0  0  0  0  0  0  0  0
    1.2254    0.1470    2.8906 H   0  0  0  0  0  0  0  0  0  0  0  0
    1.8518   -1.5027    3.0449 H   0  0  0  0  0  0  0  0  0  0  0  0
    3.6876   -1.0326    1.5699 H   0  0  0  0  0  0  0  0  0  0  0  0
    3.4833    0.5728    2.3204 H   0  0  0  0  0  0  0  0  0  0  0  0
    2.0303   -2.7690    0.7982 H   0  0  0  0  0  0  0  0  0  0  0  0
   -0.7607    0.4584   -1.3370 H   0  0  0  0  0  0  0  0  0  0  0  0
   -1.6434    2.7961    0.2216 H   0  0  0  0  0  0  0  0  0  0  0  0
    5.2248    0.2321    0.5711 H   0  0  0  0  0  0  0  0  0  0  0  0
    5.5359    1.0492   -0.9590 H   0  0  0  0  0  0  0  0  0  0  0  0
   -3.5486    2.7092   -1.6175 H   0  0  0  0  0  0  0  0  0  0  0  0
   -2.8957    1.1559   -2.0625 H   0  0  0  0  0  0  0  0  0  0  0  0
    1.6411   -4.6233   -0.0762 H   0  0  0  0  0  0  0  0  0  0  0  0
   -1.1679   -5.3380   -0.6422 H   0  0  0  0  0  0  0  0  0  0  0  0
   -0.6059   -6.0818   -2.9479 H   0  0  0  0  0  0  0  0  0  0  0  0
   -0.3593   -4.3378   -2.7610 H   0  0  0  0  0  0  0  0  0  0  0  0
    1.0327   -5.4251   -2.7699 H   0  0  0  0  0  0  0  0  0  0  0  0
    1.3822   -7.0342   -0.7213 H   0  0  0  0  0  0  0  0  0  0  0  0
   -0.2726   -7.6344   -0.9412 H   0  0  0  0  0  0  0  0  0  0  0  0
    0.2308   -6.9558    0.6168 H   0  0  0  0  0  0  0  0  0  0  0  0
   -3.0490   -0.7704   -0.4954 H   0  0  0  0  0  0  0  0  0  0  0  0
   -4.6730    3.0904    0.5254 H   0  0  0  0  0  0  0  0  0  0  0  0
   -1.0455    5.4098   -2.0131 H   0  0  0  0  0  0  0  0  0  0  0  0
   -1.9054    4.8727   -0.6150 H   0  0  0  0  0  0  0  0  0  0  0  0
    7.4334    2.4693    0.2815 H   0  0  0  0  0  0  0  0  0  0  0  0
    7.1247    3.4590    1.7225 H   0  0  0  0  0  0  0  0  0  0  0  0
    7.0271    1.6904    1.8386 H   0  0  0  0  0  0  0  0  0  0  0  0
   -4.3566   -1.7961    1.3314 H   0  0  0  0  0  0  0  0  0  0  0  0
   -5.9781    2.0515    2.3473 H   0  0  0  0  0  0  0  0  0  0  0  0
   -5.8236   -0.3906    2.7555 H   0  0  0  0  0  0  0  0  0  0  0  0
  1 19  1  0  0  0  0
  1 28  1  0  0  0  0
  2 15  2  0  0  0  0
  3 16  2  0  0  0  0
  4 18  2  0  0  0  0
  5 21  2  0  0  0  0
  6 12  1  0  0  0  0
  6 14  1  0  0  0  0
  6 16  1  0  0  0  0
  7 11  1  0  0  0  0
  7 18  1  0  0  0  0
  7 38  1  0  0  0  0
  8 15  1  0  0  0  0
  8 17  1  0  0  0  0
  8 39  1  0  0  0  0
  9 18  1  0  0  0  0
  9 22  1  0  0  0  0
  9 45  1  0  0  0  0
 10 21  1  0  0  0  0
 10 55  1  0  0  0  0
 10 56  1  0  0  0  0
 11 12  1  0  0  0  0
 11 13  1  0  0  0  0
 11 32  1  0  0  0  0
 12 15  1  0  0  0  0
 12 33  1  0  0  0  0
 13 14  1  0  0  0  0
 13 34  1  0  0  0  0
 13 35  1  0  0  0  0
 14 36  1  0  0  0  0
 14 37  1  0  0  0  0
 16 19  1  0  0  0  0
 17 20  1  0  0  0  0
 17 21  1  0  0  0  0
 17 40  1  0  0  0  0
 19 41  1  0  0  0  0
 19 42  1  0  0  0  0
 20 23  1  0  0  0  0
 20 43  1  0  0  0  0
 20 44  1  0  0  0  0
 22 24  1  0  0  0  0
 22 25  1  0  0  0  0
 22 46  1  0  0  0  0
 23 26  2  0  0  0  0
 23 27  1  0  0  0  0
 24 47  1  0  0  0  0
 24 48  1  0  0  0  0
 24 49  1  0  0  0  0
 25 50  1  0  0  0  0
 25 51  1  0  0  0  0
 25 52  1  0  0  0  0
 26 29  1  0  0  0  0
 26 53  1  0  0  0  0
 27 30  2  0  0  0  0
 27 54  1  0  0  0  0
 28 57  1  0  0  0  0
 28 58  1  0  0  0  0
 28 59  1  0  0  0  0
 29 31  2  0  0  0  0
 29 60  1  0  0  0  0
 30 31  1  0  0  0  0
 30 61  1  0  0  0  0
 31 62  1  0  0  0  0
M  END
> <PUBCHEM_COMPOUND_CID>
11865837

> <PUBCHEM_CONFORMER_RMSD>
1.2

> <PUBCHEM_CONFORMER_DIVERSEORDER>
1
5
20
7
9
19
17
2
3
10
8
15
14
16
6
13
11
18
12
4

> <PUBCHEM_MMFF94_PARTIAL_CHARGES>
38
1 -0.46
10 -0.8
11 0.3
12 0.36
14 0.3
15 0.57
16 0.57
17 0.36
18 0.69
19 0.29
2 -0.57
20 0.14
21 0.57
22 0.3
23 -0.14
26 -0.15
27 -0.15
28 0.23
29 -0.15
3 -0.57
30 -0.15
31 -0.15
38 0.37
39 0.37
4 -0.57
45 0.37
5 -0.57
53 0.15
54 0.15
55 0.37
56 0.37
6 -0.66
60 0.15
61 0.15
62 0.15
7 -0.73
8 -0.73
9 -0.73

> <PUBCHEM_EFFECTIVE_ROTOR_COUNT>
14

> <PUBCHEM_PHARMACOPHORE_FEATURES>
12
1 10 donor
1 2 acceptor
1 28 hydrophobe
1 3 acceptor
1 4 acceptor
1 5 acceptor
1 7 donor
1 8 donor
1 9 donor
3 22 24 25 hydrophobe
5 6 11 12 13 14 rings
6 23 26 27 29 30 31 rings

> <PUBCHEM_HEAVY_ATOM_COUNT>
31

> <PUBCHEM_ATOM_DEF_STEREO_COUNT>
3

> <PUBCHEM_ATOM_UDEF_STEREO_COUNT>
0

> <PUBCHEM_BOND_DEF_STEREO_COUNT>
0

> <PUBCHEM_BOND_UDEF_STEREO_COUNT>
0

> <PUBCHEM_ISOTOPIC_ATOM_COUNT>
0

> <PUBCHEM_COMPONENT_COUNT>
1

> <PUBCHEM_CACTVS_TAUTO_COUNT>
12

> <PUBCHEM_CONFORMER_ID>
00B50EED00000001

> <PUBCHEM_MMFF94_ENERGY>
67.9613

> <PUBCHEM_FEATURE_SELFOVERLAP>
60.948

> <PUBCHEM_SHAPE_FINGERPRINT>
10815517 723 18053661666305472095
11014199 57 17402611243353425970
11115154 58 17117742095939544303
11135609 12 17831020122192949137
11331351 85 17334480001344161478
11488393 25 17975994076174521906
12166972 35 11314321559088477837
13757389 114 18195262232633223422
17349148 13 15791738481491104656
17909252 39 17976559224945106226
19315092 285 14896840362938107687
1979834 28 18335717000867165193
20771845 140 18191612872290021737
21133410 32 16235961932579459747
21344244 181 18199490821552828046
21365058 27 18341911695910499606
22440779 20 16456353493653498513
23559900 14 17544183888294484405
25019877 29 18200883975193100423
255183 313 18338516460207572808
3493558 16 17695349569929507856
392239 28 18114462352829413424
4461854 278 18122650463725160931
59554788 248 18117254992167144114
6442390 28 18412831299935266208
9709674 26 17756976814803938101

> <PUBCHEM_SHAPE_MULTIPOLES>
593.43
10.34
8.12
2.09
5.27
19.16
0.43
-12.48
-6.52
-0.97
5.67
-0.62
-0.61
0.39

> <PUBCHEM_SHAPE_SELFOVERLAP>
1202.415

> <PUBCHEM_SHAPE_VOLUME>
347.9

> <PUBCHEM_COORDINATE_TYPE>
2
5
10

$$$$
