75368531
  -OEChem-12032416383D

 49 53  0     1  0  0  0  0  0999 V2000
   -3.4863    2.3959    1.2052 O   0  0  0  0  0  0  0  0  0  0  0  0
    3.2126    2.9775   -0.6916 O   0  0  0  0  0  0  0  0  0  0  0  0
    5.0438   -1.5992    1.7795 O   0  0  0  0  0  0  0  0  0  0  0  0
    5.6125   -2.7407   -0.2653 O   0  0  0  0  0  0  0  0  0  0  0  0
   -1.2651    1.7808    0.7491 N   0  0  0  0  0  0  0  0  0  0  0  0
   -2.7802    0.1508    1.0603 N   0  0  0  0  0  0  0  0  0  0  0  0
    1.1930    1.8110   -0.5472 N   0  0  0  0  0  0  0  0  0  0  0  0
   -5.5121   -1.9738   -0.1698 N   0  0  0  0  0  0  0  0  0  0  0  0
   -4.6566   -0.1610   -1.1257 N   0  0  0  0  0  0  0  0  0  0  0  0
   -0.4926    0.5506    0.7127 C   0  0  1  0  0  0  0  0  0  0  0  0
   -1.5548   -0.5455    0.7094 C   0  0  0  0  0  0  0  0  0  0  0  0
    0.4342    0.5461   -0.4987 C   0  0  0  0  0  0  0  0  0  0  0  0
   -0.5931    3.0610    0.6075 C   0  0  0  0  0  0  0  0  0  0  0  0
    0.3614    3.0221   -0.5847 C   0  0  0  0  0  0  0  0  0  0  0  0
   -2.6188    1.5502    1.0306 C   0  0  0  0  0  0  0  0  0  0  0  0
   -4.0260   -0.5519    1.2726 C   0  0  0  0  0  0  0  0  0  0  0  0
    2.5829    1.9243   -0.6071 C   0  0  0  0  0  0  0  0  0  0  0  0
   -4.7193   -0.8699   -0.0206 C   0  0  0  0  0  0  0  0  0  0  0  0
    3.3801    0.6920   -0.5540 C   0  0  0  0  0  0  0  0  0  0  0  0
    3.8013    0.1919    0.6805 C   0  0  0  0  0  0  0  0  0  0  0  0
    3.7120    0.0260   -1.7469 C   0  0  0  0  0  0  0  0  0  0  0  0
   -5.9851   -1.9682   -1.4519 C   0  0  0  0  0  0  0  0  0  0  0  0
   -5.8067   -2.9719    0.8311 C   0  0  0  0  0  0  0  0  0  0  0  0
   -5.4435   -0.8402   -2.0219 C   0  0  0  0  0  0  0  0  0  0  0  0
    4.5479   -0.9685    0.6802 C   0  0  0  0  0  0  0  0  0  0  0  0
    4.4690   -1.1477   -1.7191 C   0  0  0  0  0  0  0  0  0  0  0  0
    4.8727   -1.6204   -0.4873 C   0  0  0  0  0  0  0  0  0  0  0  0
    5.7168   -2.7213    1.1730 C   0  0  0  0  0  0  0  0  0  0  0  0
    0.0915    0.5169    1.6412 H   0  0  0  0  0  0  0  0  0  0  0  0
   -1.6856   -1.0051   -0.2757 H   0  0  0  0  0  0  0  0  0  0  0  0
   -1.3413   -1.3231    1.4490 H   0  0  0  0  0  0  0  0  0  0  0  0
   -0.1380    0.4919   -1.4333 H   0  0  0  0  0  0  0  0  0  0  0  0
    1.0885   -0.3274   -0.4661 H   0  0  0  0  0  0  0  0  0  0  0  0
   -0.0359    3.2315    1.5357 H   0  0  0  0  0  0  0  0  0  0  0  0
   -1.3331    3.8600    0.5011 H   0  0  0  0  0  0  0  0  0  0  0  0
   -0.2044    2.9896   -1.5235 H   0  0  0  0  0  0  0  0  0  0  0  0
    0.9802    3.9246   -0.6006 H   0  0  0  0  0  0  0  0  0  0  0  0
   -4.6874    0.0912    1.8640 H   0  0  0  0  0  0  0  0  0  0  0  0
   -3.8063   -1.4492    1.8591 H   0  0  0  0  0  0  0  0  0  0  0  0
    3.5519    0.6947    1.6090 H   0  0  0  0  0  0  0  0  0  0  0  0
    3.3801    0.4207   -2.7043 H   0  0  0  0  0  0  0  0  0  0  0  0
   -6.6409   -2.7364   -1.8373 H   0  0  0  0  0  0  0  0  0  0  0  0
   -4.8886   -3.5229    1.0496 H   0  0  0  0  0  0  0  0  0  0  0  0
   -6.1833   -2.4705    1.7262 H   0  0  0  0  0  0  0  0  0  0  0  0
   -6.5677   -3.6570    0.4483 H   0  0  0  0  0  0  0  0  0  0  0  0
   -5.5800   -0.4827   -3.0321 H   0  0  0  0  0  0  0  0  0  0  0  0
    4.7269   -1.6642   -2.6366 H   0  0  0  0  0  0  0  0  0  0  0  0
    5.2826   -3.6466    1.5689 H   0  0  0  0  0  0  0  0  0  0  0  0
    6.7773   -2.6847    1.4474 H   0  0  0  0  0  0  0  0  0  0  0  0
  1 15  2  0  0  0  0
  2 17  2  0  0  0  0
  3 25  1  0  0  0  0
  3 28  1  0  0  0  0
  4 27  1  0  0  0  0
  4 28  1  0  0  0  0
  5 10  1  0  0  0  0
  5 13  1  0  0  0  0
  5 15  1  0  0  0  0
  6 11  1  0  0  0  0
  6 15  1  0  0  0  0
  6 16  1  0  0  0  0
  7 12  1  0  0  0  0
  7 14  1  0  0  0  0
  7 17  1  0  0  0  0
  8 18  1  0  0  0  0
  8 22  1  0  0  0  0
  8 23  1  0  0  0  0
  9 18  2  0  0  0  0
  9 24  1  0  0  0  0
 10 11  1  0  0  0  0
 10 12  1  0  0  0  0
 10 29  1  0  0  0  0
 11 30  1  0  0  0  0
 11 31  1  0  0  0  0
 12 32  1  0  0  0  0
 12 33  1  0  0  0  0
 13 14  1  0  0  0  0
 13 34  1  0  0  0  0
 13 35  1  0  0  0  0
 14 36  1  0  0  0  0
 14 37  1  0  0  0  0
 16 18  1  0  0  0  0
 16 38  1  0  0  0  0
 16 39  1  0  0  0  0
 17 19  1  0  0  0  0
 19 20  2  0  0  0  0
 19 21  1  0  0  0  0
 20 25  1  0  0  0  0
 20 40  1  0  0  0  0
 21 26  2  0  0  0  0
 21 41  1  0  0  0  0
 22 24  2  0  0  0  0
 22 42  1  0  0  0  0
 23 43  1  0  0  0  0
 23 44  1  0  0  0  0
 23 45  1  0  0  0  0
 24 46  1  0  0  0  0
 25 27  2  0  0  0  0
 26 27  1  0  0  0  0
 26 47  1  0  0  0  0
 28 48  1  0  0  0  0
 28 49  1  0  0  0  0
M  END
> <PUBCHEM_COMPOUND_CID>
75368531

> <PUBCHEM_CONFORMER_RMSD>
0.8

> <PUBCHEM_CONFORMER_DIVERSEORDER>
1
64
230
196
107
210
55
228
253
215
184
205
84
115
141
192
185
213
221
73
252
180
146
156
169
81
227
105
69
151
197
126
200
217
61
48
37
163
54
140
52
177
31
96
232
74
207
189
161
201
223
234
149
220
242
251
72
157
160
18
246
162
153
101
111
70
235
114
71
222
155
129
33
193
152
28
244
144
86
44
17
63
203
231
2
229
40
211
237
159
212
22
183
77
154
36
202
179
249
226
143
190
122
75
60
65
158
9
106
68
240
208
245
247
11
214
147
97
250
121
194
137
53
120
145
42
131
171
150
139
233
58
224
82
100
219
130
67
38
216
209
93
56
175
16
24
243
49
174
138
204
43
118
125
178
182
113
78
181
191
25
8
92
110
124
168
90
128
4
142
103
29
62
170
116
241
23
83
85
176
127
21
59
239
248
51
104
195
5
117
236
166
47
66
87
7
19
132
187
10
50
225
206
99
133
102
41
172
46
89
91
123
109
80
198
136
108
148
30
218
39
165
20
88
35
238
188
45
94
34
13
164
112
119
26
32
14
57
167
173
79
15
134
98
27
6
135
76
186
12
95
199
3

> <PUBCHEM_MMFF94_PARTIAL_CHARGES>
33
1 -0.57
10 0.3
11 0.3
12 0.3
13 0.3
14 0.3
15 0.69
16 0.48
17 0.54
18 0.01
19 0.09
2 -0.57
20 -0.15
21 -0.15
22 -0.3
23 0.26
24 0.08
25 0.08
26 -0.15
27 0.08
28 0.56
3 -0.36
4 -0.36
40 0.15
41 0.15
42 0.15
46 0.15
47 0.15
5 -0.66
6 -0.66
7 -0.66
8 0.05
9 -0.57

> <PUBCHEM_EFFECTIVE_ROTOR_COUNT>
5.8

> <PUBCHEM_PHARMACOPHORE_FEATURES>
10
1 1 acceptor
1 2 acceptor
1 3 acceptor
1 4 acceptor
3 8 9 18 cation
5 3 4 25 27 28 rings
5 5 6 10 11 15 rings
5 8 9 18 22 24 rings
6 19 20 21 25 26 27 rings
6 5 7 10 12 13 14 rings

> <PUBCHEM_HEAVY_ATOM_COUNT>
28

> <PUBCHEM_ATOM_DEF_STEREO_COUNT>
1

> <PUBCHEM_ATOM_UDEF_STEREO_COUNT>
0

> <PUBCHEM_BOND_DEF_STEREO_COUNT>
0

> <PUBCHEM_BOND_UDEF_STEREO_COUNT>
0

> <PUBCHEM_ISOTOPIC_ATOM_COUNT>
0

> <PUBCHEM_COMPONENT_COUNT>
1

> <PUBCHEM_CACTVS_TAUTO_COUNT>
1

> <PUBCHEM_CONFORMER_ID>
047E085300000001

> <PUBCHEM_MMFF94_ENERGY>
65.3875

> <PUBCHEM_FEATURE_SELFOVERLAP>
51.002

> <PUBCHEM_SHAPE_FINGERPRINT>
10074138 170 16771848562860695225
10622 236 18409731746370235337
11135926 11 18044112356510751812
12166972 35 17967820469889242079
12422481 6 17060349500265799111
13533116 47 18339924921412026544
13540713 5 18268170736696899841
1361 4 18119250816621523139
13692114 37 17698730207882490825
13782708 43 17845935109647391358
13828863 39 9943524141820016581
13885169 86 9727338165034599091
14211702 104 18412263951851308043
14347332 77 18411139134761293133
14429115 67 18343580767689023460
14848178 5 18412822490836094111
15183329 4 16877654648036529671
15188451 53 18060128812994354375
15274700 21 10737871746615546909
15420108 30 17618226100826284193
16992828 155 15013412548473607779
17349148 13 18271255983751266823
17857418 61 18413390925367917306
18222031 100 18411702080198032294
19315092 285 18060135457772933800
19377110 9 12247383601681467973
19958102 18 17822567339282969171
20028762 73 18272931605255593854
20626108 58 18412547596092464792
20691028 202 7853590010661040391
21302155 148 9943806694686026819
21703447 108 18340764940133578528
22061861 79 18040996280364373167
22393880 68 17677038131971606147
23536364 44 18262506032190759933
23559900 14 18260550077449233376
312425 54 16916798322742323371
312425 83 15502955128283611262
34797466 226 16154278350562676141
392239 28 15697993042032682175
397830 11 12967132748451309751
4017518 198 15520069718845417410
437795 70 15936681567399238671
44062 13 18335422314344549357
44880168 125 17836095472510259622
46194498 28 14853609957735320356
5085150 59 17346598561381860959
5104073 3 18059585697553601009
59682541 52 17386266758615393087
6034566 193 9583508833102074585
6058803 2 18267891465128401201
636775 72 8716813261287234678
6443934 186 15912755219526458730
7808743 9 9799392418125280800
7970288 3 18409449163482678522
960060 61 17168148953126603670

> <PUBCHEM_SHAPE_MULTIPOLES>
527.84
16.01
3.64
1.64
5.76
0.96
0.36
-17.08
1.9
-0.91
-0.47
0.31
-0.48
-2

> <PUBCHEM_SHAPE_SELFOVERLAP>
1159.847

> <PUBCHEM_SHAPE_VOLUME>
284.7

> <PUBCHEM_COORDINATE_TYPE>
2
5
10

$$$$
