40779659
  -OEChem-12032416353D

 60 64  0     1  0  0  0  0  0999 V2000
    5.1285   -1.5443   -0.1627 O   0  0  0  0  0  0  0  0  0  0  0  0
    0.8593   -3.1256   -0.1793 N   0  0  2  0  0  0  0  0  0  0  0  0
   -2.7599    0.0706   -0.6605 N   0  0  1  0  0  0  0  0  0  0  0  0
    3.2861   -0.3000   -0.8184 N   0  0  0  0  0  0  0  0  0  0  0  0
   -0.6861   -1.3428    0.9161 C   0  0  2  0  0  0  0  0  0  0  0  0
   -1.3243   -1.9092   -0.3728 C   0  0  2  0  0  0  0  0  0  0  0  0
    1.6237   -1.8738    0.0717 C   0  0  2  0  0  0  0  0  0  0  0  0
    0.6953   -0.7498    0.5829 C   0  0  0  0  0  0  0  0  0  0  0  0
   -0.3058   -2.8504   -1.0543 C   0  0  0  0  0  0  0  0  0  0  0  0
   -0.4541   -2.5362    1.8624 C   0  0  0  0  0  0  0  0  0  0  0  0
    0.3520   -3.6196    1.1240 C   0  0  0  0  0  0  0  0  0  0  0  0
   -1.8160   -0.8246   -1.3284 C   0  0  0  0  0  0  0  0  0  0  0  0
    2.4342   -1.4306   -1.1485 C   0  0  0  0  0  0  0  0  0  0  0  0
   -2.8078    1.3741   -1.3341 C   0  0  0  0  0  0  0  0  0  0  0  0
   -4.1034   -0.5339   -0.6252 C   0  0  0  0  0  0  0  0  0  0  0  0
   -3.6367    2.3591   -0.5034 C   0  0  0  0  0  0  0  0  0  0  0  0
   -5.1622    0.3931   -0.0735 C   0  0  0  0  0  0  0  0  0  0  0  0
   -4.9552    1.7832   -0.0568 C   0  0  0  0  0  0  0  0  0  0  0  0
    4.5748   -0.4639   -0.3486 C   0  0  0  0  0  0  0  0  0  0  0  0
   -6.3863   -0.1281    0.3670 C   0  0  0  0  0  0  0  0  0  0  0  0
   -5.9592    2.6277    0.4343 C   0  0  0  0  0  0  0  0  0  0  0  0
    5.3057    0.7902   -0.0321 C   0  0  0  0  0  0  0  0  0  0  0  0
   -7.3835    0.7216    0.8453 C   0  0  0  0  0  0  0  0  0  0  0  0
   -7.1693    2.0977    0.8810 C   0  0  0  0  0  0  0  0  0  0  0  0
    6.3198    0.7842    0.9255 C   0  0  0  0  0  0  0  0  0  0  0  0
    4.9785    1.9736   -0.6940 C   0  0  0  0  0  0  0  0  0  0  0  0
    7.0068    1.9617    1.2213 C   0  0  0  0  0  0  0  0  0  0  0  0
    5.6654    3.1510   -0.3983 C   0  0  0  0  0  0  0  0  0  0  0  0
    6.6796    3.1450    0.5594 C   0  0  0  0  0  0  0  0  0  0  0  0
   -1.3193   -0.5991    1.4099 H   0  0  0  0  0  0  0  0  0  0  0  0
   -2.1830   -2.5279   -0.0783 H   0  0  0  0  0  0  0  0  0  0  0  0
    2.3552   -2.0905    0.8643 H   0  0  0  0  0  0  0  0  0  0  0  0
    0.5916    0.0642   -0.1419 H   0  0  0  0  0  0  0  0  0  0  0  0
    1.1298   -0.3072    1.4884 H   0  0  0  0  0  0  0  0  0  0  0  0
   -0.7997   -3.8002   -1.2986 H   0  0  0  0  0  0  0  0  0  0  0  0
    0.0299   -2.4571   -2.0204 H   0  0  0  0  0  0  0  0  0  0  0  0
   -1.4125   -2.9491    2.1985 H   0  0  0  0  0  0  0  0  0  0  0  0
    0.0889   -2.2058    2.7561 H   0  0  0  0  0  0  0  0  0  0  0  0
    1.1895   -3.9528    1.7494 H   0  0  0  0  0  0  0  0  0  0  0  0
   -0.2683   -4.5112    0.9667 H   0  0  0  0  0  0  0  0  0  0  0  0
   -2.2564   -1.2756   -2.2279 H   0  0  0  0  0  0  0  0  0  0  0  0
   -0.9466   -0.2585   -1.6854 H   0  0  0  0  0  0  0  0  0  0  0  0
    1.7925   -1.1044   -1.9731 H   0  0  0  0  0  0  0  0  0  0  0  0
    3.0620   -2.2524   -1.5116 H   0  0  0  0  0  0  0  0  0  0  0  0
   -3.2299    1.2758   -2.3435 H   0  0  0  0  0  0  0  0  0  0  0  0
   -1.8006    1.7953   -1.4421 H   0  0  0  0  0  0  0  0  0  0  0  0
   -4.0815   -1.4263    0.0105 H   0  0  0  0  0  0  0  0  0  0  0  0
   -4.4234   -0.8398   -1.6304 H   0  0  0  0  0  0  0  0  0  0  0  0
    2.8658    0.6205   -0.8852 H   0  0  0  0  0  0  0  0  0  0  0  0
   -3.8086    3.2645   -1.0975 H   0  0  0  0  0  0  0  0  0  0  0  0
   -3.0712    2.6482    0.3918 H   0  0  0  0  0  0  0  0  0  0  0  0
   -6.5685   -1.1994    0.3395 H   0  0  0  0  0  0  0  0  0  0  0  0
   -5.8026    3.7027    0.4713 H   0  0  0  0  0  0  0  0  0  0  0  0
   -8.3278    0.3100    1.1893 H   0  0  0  0  0  0  0  0  0  0  0  0
   -7.9451    2.7584    1.2569 H   0  0  0  0  0  0  0  0  0  0  0  0
    6.5867   -0.1265    1.4551 H   0  0  0  0  0  0  0  0  0  0  0  0
    4.2198    2.0171   -1.4696 H   0  0  0  0  0  0  0  0  0  0  0  0
    7.7962    1.9573    1.9673 H   0  0  0  0  0  0  0  0  0  0  0  0
    5.4164    4.0712   -0.9189 H   0  0  0  0  0  0  0  0  0  0  0  0
    7.2156    4.0615    0.7885 H   0  0  0  0  0  0  0  0  0  0  0  0
  1 19  2  0  0  0  0
  2  7  1  0  0  0  0
  2  9  1  0  0  0  0
  2 11  1  0  0  0  0
  3 12  1  0  0  0  0
  3 14  1  0  0  0  0
  3 15  1  0  0  0  0
  4 13  1  0  0  0  0
  4 19  1  0  0  0  0
  4 49  1  0  0  0  0
  5  6  1  0  0  0  0
  5  8  1  0  0  0  0
  5 10  1  0  0  0  0
  5 30  1  0  0  0  0
  6  9  1  0  0  0  0
  6 12  1  0  0  0  0
  6 31  1  0  0  0  0
  7  8  1  0  0  0  0
  7 13  1  0  0  0  0
  7 32  1  0  0  0  0
  8 33  1  0  0  0  0
  8 34  1  0  0  0  0
  9 35  1  0  0  0  0
  9 36  1  0  0  0  0
 10 11  1  0  0  0  0
 10 37  1  0  0  0  0
 10 38  1  0  0  0  0
 11 39  1  0  0  0  0
 11 40  1  0  0  0  0
 12 41  1  0  0  0  0
 12 42  1  0  0  0  0
 13 43  1  0  0  0  0
 13 44  1  0  0  0  0
 14 16  1  0  0  0  0
 14 45  1  0  0  0  0
 14 46  1  0  0  0  0
 15 17  1  0  0  0  0
 15 47  1  0  0  0  0
 15 48  1  0  0  0  0
 16 18  1  0  0  0  0
 16 50  1  0  0  0  0
 16 51  1  0  0  0  0
 17 18  1  0  0  0  0
 17 20  2  0  0  0  0
 18 21  2  0  0  0  0
 19 22  1  0  0  0  0
 20 23  1  0  0  0  0
 20 52  1  0  0  0  0
 21 24  1  0  0  0  0
 21 53  1  0  0  0  0
 22 25  2  0  0  0  0
 22 26  1  0  0  0  0
 23 24  2  0  0  0  0
 23 54  1  0  0  0  0
 24 55  1  0  0  0  0
 25 27  1  0  0  0  0
 25 56  1  0  0  0  0
 26 28  2  0  0  0  0
 26 57  1  0  0  0  0
 27 29  2  0  0  0  0
 27 58  1  0  0  0  0
 28 29  1  0  0  0  0
 28 59  1  0  0  0  0
 29 60  1  0  0  0  0
M  END
> <PUBCHEM_COMPOUND_CID>
40779659

> <PUBCHEM_CONFORMER_RMSD>
1

> <PUBCHEM_CONFORMER_DIVERSEORDER>
1
67
57
65
16
66
32
62
49
12
50
64
31
6
72
26
55
10
47
58
59
74
43
37
46
36
3
70
11
41
45
60
14
7
24
51
35
52
71
63
38
15
5
13
48
54
27
61
17
39
19
18
56
8
69
28
34
68
73
42
20
25
23
33
29
53
2
40
21
30
9
4
22
44

> <PUBCHEM_MMFF94_PARTIAL_CHARGES>
35
1 -0.57
11 0.27
12 0.27
13 0.3
14 0.27
15 0.41
16 0.14
17 -0.14
18 -0.14
19 0.54
2 -0.81
20 -0.15
21 -0.15
22 0.09
23 -0.15
24 -0.15
25 -0.15
26 -0.15
27 -0.15
28 -0.15
29 -0.15
3 -0.81
4 -0.73
49 0.37
52 0.15
53 0.15
54 0.15
55 0.15
56 0.15
57 0.15
58 0.15
59 0.15
60 0.15
7 0.27
9 0.27

> <PUBCHEM_EFFECTIVE_ROTOR_COUNT>
8

> <PUBCHEM_PHARMACOPHORE_FEATURES>
8
1 1 acceptor
1 2 cation
1 3 cation
1 4 donor
6 17 18 20 21 23 24 rings
6 22 25 26 27 28 29 rings
6 3 14 15 16 17 18 rings
8 2 5 6 7 8 9 10 11 rings

> <PUBCHEM_HEAVY_ATOM_COUNT>
29

> <PUBCHEM_ATOM_DEF_STEREO_COUNT>
3

> <PUBCHEM_ATOM_UDEF_STEREO_COUNT>
0

> <PUBCHEM_BOND_DEF_STEREO_COUNT>
0

> <PUBCHEM_BOND_UDEF_STEREO_COUNT>
0

> <PUBCHEM_ISOTOPIC_ATOM_COUNT>
0

> <PUBCHEM_COMPONENT_COUNT>
1

> <PUBCHEM_CACTVS_TAUTO_COUNT>
2

> <PUBCHEM_CONFORMER_ID>
026E3F8B00000001

> <PUBCHEM_MMFF94_ENERGY>
78.4251

> <PUBCHEM_FEATURE_SELFOVERLAP>
40.619

> <PUBCHEM_SHAPE_FINGERPRINT>
10 15 18113620105362537760
10074138 170 17241054330522128771
10622 236 12678089734438703524
10673678 19 18201443545007317774
10692045 39 18042392566006677330
11135609 201 18409440401848783625
11374522 155 18262523709849674885
11796584 16 13038604250645267063
12107183 9 18261374652216825658
12760667 363 9295299356044967006
12857493 111 17763459913213205235
12895836 83 17775563152475065303
12895837 130 18129096895549234980
13782708 43 11818990794476931908
13885169 86 18410295830221942244
13911852 28 8862944970033661998
14168556 18 18337677520541794155
14216079 64 8718830877227558393
14251764 30 9007063456897621866
14251764 75 18410574007117021496
14565420 104 18333733481294772659
14739800 52 18187642436521905387
14849402 71 18189335667760858106
15183329 4 16056881325340531321
15357212 105 17170421725782437540
15510800 12 11891599209897622680
15519825 34 16371295548921829497
15776043 110 17605254226524780128
15840311 113 18340774737000992389
16112460 7 18341619191938392752
16126227 98 18341613762851245185
16664035 1 18266741274094132058
16994733 274 18060416924054090947
18393751 57 18113901584776660067
18608769 82 18340487876340910155
19302320 297 18335139821798446184
19438510 23 18336260236830747922
2026 5 11025807509565113361
20691028 202 18342737433612331336
20715895 44 18412544332328607504
21033648 29 18334017233374120790
21298829 104 18341894138691264188
21304304 249 11241974767537934417
21307412 95 11312054374707291509
21401589 2 18260823825885084782
21424621 283 18411138043291071474
21521721 280 18413393128912747009
21585481 104 15338578062722246344
21641784 216 15482398555626925859
21987483 16 17821731633289247963
22224240 67 18186239533247920083
23522609 53 17274272622008211273
23569914 2 17245227913658586117
25269216 80 16414620692476496957
2748736 6 18340760507505444860
2838139 119 18411131407730233670
3014063 24 7925910370169928617
3246875 12 18409452509556841227
3411729 13 18339362963881075463
34797466 226 17987524719555937327
4093350 32 17632298956708721132
437815 12 9583516516687920655
474113 269 12613030626458157561
5081480 168 15410599377260641377
5104073 3 17753057103469720337
5109719 28 18411430505126434905
5207 123 10087631594501672703
5219985 13 18341894108293963382
5372103 7 15840405151881154984
54076057 255 17274538725049082273
563151 248 15936407870650063928
5718773 13 8070029960545097313
59682541 35 18187092758840069193
6081469 158 9943533994306403161
6176135 31 18334855065345415380
7808743 9 18412255168516535094
7970288 3 9007056864012526820
9980921 177 18340752768913070042

> <PUBCHEM_SHAPE_MULTIPOLES>
575.99
20.58
4.21
1.28
1.51
0.68
-0.13
-24.11
-5.14
2.54
-0.65
0.02
0.38
0.22

> <PUBCHEM_SHAPE_SELFOVERLAP>
1243.79

> <PUBCHEM_SHAPE_VOLUME>
311.5

> <PUBCHEM_COORDINATE_TYPE>
2
5
10

$$$$
