45361709
  -OEChem-12032416233D

 70 73  0     1  0  0  0  0  0999 V2000
    4.8182   -0.4714    0.1547 S   0  0  0  0  0  0  0  0  0  0  0  0
    5.9935   -0.9938    0.8087 O   0  0  0  0  0  0  0  0  0  0  0  0
    4.5057    0.9371    0.1426 O   0  0  0  0  0  0  0  0  0  0  0  0
    2.0466    1.0887    1.6284 O   0  0  0  0  0  0  0  0  0  0  0  0
    0.3254   -5.1612    0.5264 O   0  0  0  0  0  0  0  0  0  0  0  0
    3.2431    2.7412   -2.4849 O   0  0  0  0  0  0  0  0  0  0  0  0
    3.4436   -1.3269    0.7457 N   0  0  1  0  0  0  0  0  0  0  0  0
    1.1628   -3.0256    0.9707 N   0  0  0  0  0  0  0  0  0  0  0  0
    1.7570    1.3059   -0.6713 N   0  0  0  0  0  0  0  0  0  0  0  0
   -2.4963    1.1687    0.1400 N   0  0  0  0  0  0  0  0  0  0  0  0
    3.1222    4.5617   -1.0893 N   0  0  0  0  0  0  0  0  0  0  0  0
   -4.7839   -1.9098   -1.2476 N   0  0  0  0  0  0  0  0  0  0  0  0
    2.1004   -0.8625    0.2673 C   0  0  1  0  0  0  0  0  0  0  0  0
    0.9975   -1.5719    1.0539 C   0  0  0  0  0  0  0  0  0  0  0  0
    3.5786   -2.8193    0.6444 C   0  0  0  0  0  0  0  0  0  0  0  0
    2.4647   -3.5011    1.4284 C   0  0  0  0  0  0  0  0  0  0  0  0
    1.9759    0.6043    0.5020 C   0  0  0  0  0  0  0  0  0  0  0  0
    0.1938   -3.9384    0.5522 C   0  0  0  0  0  0  0  0  0  0  0  0
    1.5792    2.7394   -0.7138 C   0  0  2  0  0  0  0  0  0  0  0  0
    4.8059   -1.0580   -1.5177 C   0  0  0  0  0  0  0  0  0  0  0  0
    0.2396    3.1391   -1.3429 C   0  0  0  0  0  0  0  0  0  0  0  0
   -1.0961   -3.4136    0.0857 C   0  0  0  0  0  0  0  0  0  0  0  0
   -0.9463    2.5757   -0.5985 C   0  0  0  0  0  0  0  0  0  0  0  0
    2.7355    3.3104   -1.5216 C   0  0  0  0  0  0  0  0  0  0  0  0
   -1.7855    3.2764    0.3125 C   0  0  0  0  0  0  0  0  0  0  0  0
   -1.4085    1.2825   -0.6836 C   0  0  0  0  0  0  0  0  0  0  0  0
   -2.7494    2.3709    0.7612 C   0  0  0  0  0  0  0  0  0  0  0  0
   -1.2771   -3.1057   -1.2627 C   0  0  0  0  0  0  0  0  0  0  0  0
   -2.1399   -3.2221    0.9909 C   0  0  0  0  0  0  0  0  0  0  0  0
   -1.8174    4.5980    0.7999 C   0  0  0  0  0  0  0  0  0  0  0  0
   -2.5015   -2.6061   -1.7058 C   0  0  0  0  0  0  0  0  0  0  0  0
   -3.3645   -2.7224    0.5479 C   0  0  0  0  0  0  0  0  0  0  0  0
   -3.5453   -2.4145   -0.8005 C   0  0  0  0  0  0  0  0  0  0  0  0
   -3.7478    2.7226    1.6765 C   0  0  0  0  0  0  0  0  0  0  0  0
   -2.8104    4.9640    1.7160 C   0  0  0  0  0  0  0  0  0  0  0  0
   -3.7597    4.0391    2.1462 C   0  0  0  0  0  0  0  0  0  0  0  0
   -4.9832   -1.5868   -2.6465 C   0  0  0  0  0  0  0  0  0  0  0  0
   -5.8767   -1.7145   -0.3155 C   0  0  0  0  0  0  0  0  0  0  0  0
    1.9901   -1.1210   -0.7919 H   0  0  0  0  0  0  0  0  0  0  0  0
    0.0171   -1.2546    0.6910 H   0  0  0  0  0  0  0  0  0  0  0  0
    1.0353   -1.3135    2.1202 H   0  0  0  0  0  0  0  0  0  0  0  0
    3.5094   -3.1324   -0.4025 H   0  0  0  0  0  0  0  0  0  0  0  0
    4.5427   -3.1406    1.0506 H   0  0  0  0  0  0  0  0  0  0  0  0
    2.5424   -3.2649    2.4963 H   0  0  0  0  0  0  0  0  0  0  0  0
    2.5428   -4.5877    1.3218 H   0  0  0  0  0  0  0  0  0  0  0  0
    1.7498    0.8092   -1.5575 H   0  0  0  0  0  0  0  0  0  0  0  0
    1.6308    3.1305    0.3099 H   0  0  0  0  0  0  0  0  0  0  0  0
    5.5832   -0.5057   -2.0539 H   0  0  0  0  0  0  0  0  0  0  0  0
    5.0558   -2.1182   -1.5538 H   0  0  0  0  0  0  0  0  0  0  0  0
    3.8477   -0.8484   -1.9919 H   0  0  0  0  0  0  0  0  0  0  0  0
    0.1946    2.7867   -2.3827 H   0  0  0  0  0  0  0  0  0  0  0  0
    0.1629    4.2321   -1.3951 H   0  0  0  0  0  0  0  0  0  0  0  0
   -1.0662    0.4329   -1.2577 H   0  0  0  0  0  0  0  0  0  0  0  0
   -0.4690   -3.2496   -1.9754 H   0  0  0  0  0  0  0  0  0  0  0  0
   -2.0083   -3.4579    2.0438 H   0  0  0  0  0  0  0  0  0  0  0  0
   -3.0368    0.3255    0.2730 H   0  0  0  0  0  0  0  0  0  0  0  0
   -1.0846    5.3318    0.4769 H   0  0  0  0  0  0  0  0  0  0  0  0
   -2.5919   -2.3806   -2.7637 H   0  0  0  0  0  0  0  0  0  0  0  0
   -4.1441   -2.5900    1.2914 H   0  0  0  0  0  0  0  0  0  0  0  0
    3.8747    5.0620   -1.5507 H   0  0  0  0  0  0  0  0  0  0  0  0
    2.6782    5.0300   -0.3059 H   0  0  0  0  0  0  0  0  0  0  0  0
   -4.4872    2.0030    2.0117 H   0  0  0  0  0  0  0  0  0  0  0  0
   -2.8397    5.9819    2.0957 H   0  0  0  0  0  0  0  0  0  0  0  0
   -4.5220    4.3448    2.8583 H   0  0  0  0  0  0  0  0  0  0  0  0
   -4.2895   -0.8044   -2.9742 H   0  0  0  0  0  0  0  0  0  0  0  0
   -4.8625   -2.4735   -3.2787 H   0  0  0  0  0  0  0  0  0  0  0  0
   -5.9931   -1.2054   -2.8341 H   0  0  0  0  0  0  0  0  0  0  0  0
   -5.6091   -0.9887    0.4607 H   0  0  0  0  0  0  0  0  0  0  0  0
   -6.7692   -1.3209   -0.8146 H   0  0  0  0  0  0  0  0  0  0  0  0
   -6.1729   -2.6603    0.1517 H   0  0  0  0  0  0  0  0  0  0  0  0
  1  2  2  0  0  0  0
  1  3  2  0  0  0  0
  1  7  1  0  0  0  0
  1 20  1  0  0  0  0
  4 17  2  0  0  0  0
  5 18  2  0  0  0  0
  6 24  2  0  0  0  0
  7 13  1  0  0  0  0
  7 15  1  0  0  0  0
  8 14  1  0  0  0  0
  8 16  1  0  0  0  0
  8 18  1  0  0  0  0
  9 17  1  0  0  0  0
  9 19  1  0  0  0  0
  9 46  1  0  0  0  0
 10 26  1  0  0  0  0
 10 27  1  0  0  0  0
 10 56  1  0  0  0  0
 11 24  1  0  0  0  0
 11 60  1  0  0  0  0
 11 61  1  0  0  0  0
 12 33  1  0  0  0  0
 12 37  1  0  0  0  0
 12 38  1  0  0  0  0
 13 14  1  0  0  0  0
 13 17  1  0  0  0  0
 13 39  1  0  0  0  0
 14 40  1  0  0  0  0
 14 41  1  0  0  0  0
 15 16  1  0  0  0  0
 15 42  1  0  0  0  0
 15 43  1  0  0  0  0
 16 44  1  0  0  0  0
 16 45  1  0  0  0  0
 18 22  1  0  0  0  0
 19 21  1  0  0  0  0
 19 24  1  0  0  0  0
 19 47  1  0  0  0  0
 20 48  1  0  0  0  0
 20 49  1  0  0  0  0
 20 50  1  0  0  0  0
 21 23  1  0  0  0  0
 21 51  1  0  0  0  0
 21 52  1  0  0  0  0
 22 28  2  0  0  0  0
 22 29  1  0  0  0  0
 23 25  1  0  0  0  0
 23 26  2  0  0  0  0
 25 27  1  0  0  0  0
 25 30  2  0  0  0  0
 26 53  1  0  0  0  0
 27 34  2  0  0  0  0
 28 31  1  0  0  0  0
 28 54  1  0  0  0  0
 29 32  2  0  0  0  0
 29 55  1  0  0  0  0
 30 35  1  0  0  0  0
 30 57  1  0  0  0  0
 31 33  2  0  0  0  0
 31 58  1  0  0  0  0
 32 33  1  0  0  0  0
 32 59  1  0  0  0  0
 34 36  1  0  0  0  0
 34 62  1  0  0  0  0
 35 36  2  0  0  0  0
 35 63  1  0  0  0  0
 36 64  1  0  0  0  0
 37 65  1  0  0  0  0
 37 66  1  0  0  0  0
 37 67  1  0  0  0  0
 38 68  1  0  0  0  0
 38 69  1  0  0  0  0
 38 70  1  0  0  0  0
M  END
> <PUBCHEM_COMPOUND_CID>
45361709

> <PUBCHEM_CONFORMER_RMSD>
1.2

> <PUBCHEM_CONFORMER_DIVERSEORDER>
1
236
164
114
220
163
61
145
48
147
206
97
58
144
183
65
77
24
165
218
124
111
161
36
109
157
121
215
219
246
81
205
44
214
50
192
151
90
55
230
201
110
126
173
125
184
91
40
46
117
240
231
34
118
237
235
87
79
102
159
132
225
156
43
252
138
204
135
129
11
207
233
64
80
16
257
255
73
179
248
21
119
66
39
136
149
128
199
88
166
213
7
249
52
69
96
150
244
86
103
193
92
148
154
224
75
177
17
54
241
27
200
29
256
253
180
3
78
82
250
104
153
162
113
227
130
72
155
152
190
141
171
196
101
189
142
243
242
143
98
168
223
83
30
42
211
229
232
137
228
239
234
19
222
6
185
160
62
57
106
191
12
178
107
238
45
176
216
122
187
49
68
41
70
33
8
209
20
133
174
170
186
245
198
74
139
47
182
203
99
212
38
56
188
197
22
63
14
4
226
254
37
247
134
195
123
131
251
175
140
217
112
67
105
146
208
60
76
221
158
85
51
210
194
71
18
9
13
59
127
202
94
26
23
167
181
84
95
53
115
89
15
120
35
2
93
172
108
32
169
10
5
100
28
31
25
116

> <PUBCHEM_MMFF94_PARTIAL_CHARGES>
50
1 1.33
10 0.03
11 -0.8
12 -0.84
13 0.42
14 0.3
15 0.36
16 0.3
17 0.57
18 0.54
19 0.36
2 -0.65
20 0.11
21 0.18
22 0.09
23 -0.18
24 0.57
26 -0.3
27 -0.15
28 -0.15
29 -0.15
3 -0.65
30 -0.15
31 -0.15
32 -0.15
33 0.1
34 -0.15
35 -0.15
36 -0.15
37 0.37
38 0.37
4 -0.57
46 0.37
5 -0.57
53 0.15
54 0.15
55 0.15
56 0.27
57 0.15
58 0.15
59 0.15
6 -0.57
60 0.37
61 0.37
62 0.15
63 0.15
64 0.15
7 -0.85
8 -0.66
9 -0.73

> <PUBCHEM_EFFECTIVE_ROTOR_COUNT>
11.2

> <PUBCHEM_PHARMACOPHORE_FEATURES>
14
1 10 cation
1 10 donor
1 11 donor
1 12 cation
1 2 acceptor
1 3 acceptor
1 4 acceptor
1 5 acceptor
1 6 acceptor
1 9 donor
5 10 23 25 26 27 rings
6 22 28 29 31 32 33 rings
6 25 27 30 34 35 36 rings
6 7 8 13 14 15 16 rings

> <PUBCHEM_HEAVY_ATOM_COUNT>
38

> <PUBCHEM_ATOM_DEF_STEREO_COUNT>
2

> <PUBCHEM_ATOM_UDEF_STEREO_COUNT>
0

> <PUBCHEM_BOND_DEF_STEREO_COUNT>
0

> <PUBCHEM_BOND_UDEF_STEREO_COUNT>
0

> <PUBCHEM_ISOTOPIC_ATOM_COUNT>
0

> <PUBCHEM_COMPONENT_COUNT>
1

> <PUBCHEM_CACTVS_TAUTO_COUNT>
4

> <PUBCHEM_CONFORMER_ID>
02B42A2D00000001

> <PUBCHEM_MMFF94_ENERGY>
107.153

> <PUBCHEM_FEATURE_SELFOVERLAP>
71.159

> <PUBCHEM_SHAPE_FINGERPRINT>
10190206 1 18408608042004577998
10675989 125 18263076793945653524
11513181 2 17987233335315046607
12156800 1 18053414069877396623
12522641 24 17908979157102326927
12788726 201 18199198441548612061
1361 2 18048319942707352497
140371 6 18336261336184834234
14068700 675 18268973418891895398
151778 21 17548978858175810641
15351339 4 18047746289410228923
15420108 30 18052819148050156217
15968369 153 18270134507718826787
20739085 24 17615426765664829240
20764821 26 18335431204472658130
463206 1 18050566549440982637
50677037 204 18266728095946797938
653340 110 18270664399129824266
9982175 49 18261684704777289045

> <PUBCHEM_SHAPE_MULTIPOLES>
726.64
9.99
8.39
1.94
2.65
2.07
-0.6
-0.91
-0.17
-5.13
0.69
-0.95
0.65
-5.68

> <PUBCHEM_SHAPE_SELFOVERLAP>
1543.852

> <PUBCHEM_SHAPE_VOLUME>
408.4

> <PUBCHEM_COORDINATE_TYPE>
2
5
10

$$$$
