40780285
  -OEChem-12032416163D

 69 74  0     1  0  0  0  0  0999 V2000
    0.6878    6.7311    1.6919 F   0  0  0  0  0  0  0  0  0  0  0  0
    4.1591    1.6791   -1.9276 O   0  0  0  0  0  0  0  0  0  0  0  0
    2.0784    0.8804   -2.5356 O   0  0  0  0  0  0  0  0  0  0  0  0
    1.3160    0.5635    0.0727 N   0  0  2  0  0  0  0  0  0  0  0  0
   -2.6459   -1.0500    0.1692 N   0  0  0  0  0  0  0  0  0  0  0  0
    2.3210   -3.0531   -0.0616 N   0  0  0  0  0  0  0  0  0  0  0  0
   -7.5823   -1.1701   -0.3249 N   0  0  0  0  0  0  0  0  0  0  0  0
   -9.5178   -1.2235    0.7628 N   0  0  0  0  0  0  0  0  0  0  0  0
    1.1085   -0.8288   -0.4322 C   0  0  2  0  0  0  0  0  0  0  0  0
    0.2090    1.4693   -0.3262 C   0  0  1  0  0  0  0  0  0  0  0  0
   -0.2213   -1.4011    0.0830 C   0  0  0  0  0  0  0  0  0  0  0  0
   -1.3889   -0.5163   -0.3526 C   0  0  2  0  0  0  0  0  0  0  0  0
   -1.1592    0.9128    0.1367 C   0  0  0  0  0  0  0  0  0  0  0  0
    2.6815    1.0846   -0.2099 C   0  0  1  0  0  0  0  0  0  0  0  0
    2.2718   -1.6872   -0.0343 C   0  0  0  0  0  0  0  0  0  0  0  0
    3.7921    0.2360    0.4602 C   0  0  0  0  0  0  0  0  0  0  0  0
    3.5080   -1.2215    0.3572 C   0  0  0  0  0  0  0  0  0  0  0  0
    0.3383    2.8896    0.2187 C   0  0  0  0  0  0  0  0  0  0  0  0
    4.3356   -2.3481    0.6137 C   0  0  0  0  0  0  0  0  0  0  0  0
    3.5662   -3.4844    0.3442 C   0  0  0  0  0  0  0  0  0  0  0  0
    2.9081    1.1910   -1.6916 C   0  0  0  0  0  0  0  0  0  0  0  0
   -3.7757   -0.5549   -0.6020 C   0  0  0  0  0  0  0  0  0  0  0  0
   -0.1179    3.9702   -0.5362 C   0  0  0  0  0  0  0  0  0  0  0  0
    0.9127    3.1069    1.4712 C   0  0  0  0  0  0  0  0  0  0  0  0
    5.6666   -2.5179    1.0448 C   0  0  0  0  0  0  0  0  0  0  0  0
    4.0658   -4.7840    0.4868 C   0  0  0  0  0  0  0  0  0  0  0  0
   -5.0814   -1.1386   -0.0647 C   0  0  0  0  0  0  0  0  0  0  0  0
    6.1775   -3.8122    1.1933 C   0  0  0  0  0  0  0  0  0  0  0  0
    0.0003    5.2679   -0.0388 C   0  0  0  0  0  0  0  0  0  0  0  0
    1.0310    4.4045    1.9686 C   0  0  0  0  0  0  0  0  0  0  0  0
    5.3876   -4.9265    0.9182 C   0  0  0  0  0  0  0  0  0  0  0  0
   -6.2824   -0.6359   -0.8699 C   0  0  0  0  0  0  0  0  0  0  0  0
    0.5747    5.4850    1.2136 C   0  0  0  0  0  0  0  0  0  0  0  0
    4.5092    1.8326   -3.3067 C   0  0  0  0  0  0  0  0  0  0  0  0
   -8.0799   -2.4295   -0.5081 C   0  0  0  0  0  0  0  0  0  0  0  0
   -8.4797   -0.4826    0.4440 C   0  0  0  0  0  0  0  0  0  0  0  0
   -9.2746   -2.4384    0.1723 C   0  0  0  0  0  0  0  0  0  0  0  0
    1.0525   -0.8521   -1.5261 H   0  0  0  0  0  0  0  0  0  0  0  0
    0.1654    1.5381   -1.4192 H   0  0  0  0  0  0  0  0  0  0  0  0
   -0.3714   -2.4163   -0.3075 H   0  0  0  0  0  0  0  0  0  0  0  0
   -0.1943   -1.4899    1.1787 H   0  0  0  0  0  0  0  0  0  0  0  0
   -1.4080   -0.5244   -1.4514 H   0  0  0  0  0  0  0  0  0  0  0  0
   -1.2185    0.9402    1.2348 H   0  0  0  0  0  0  0  0  0  0  0  0
   -1.9530    1.5760   -0.2289 H   0  0  0  0  0  0  0  0  0  0  0  0
    2.8096    2.0995    0.1766 H   0  0  0  0  0  0  0  0  0  0  0  0
    3.8290    0.4922    1.5275 H   0  0  0  0  0  0  0  0  0  0  0  0
    4.7841    0.4489    0.0476 H   0  0  0  0  0  0  0  0  0  0  0  0
   -2.6347   -2.0687    0.1180 H   0  0  0  0  0  0  0  0  0  0  0  0
    1.5627   -3.6629   -0.3345 H   0  0  0  0  0  0  0  0  0  0  0  0
   -3.8413    0.5370   -0.5493 H   0  0  0  0  0  0  0  0  0  0  0  0
   -3.6706   -0.8340   -1.6578 H   0  0  0  0  0  0  0  0  0  0  0  0
   -0.5686    3.8146   -1.5127 H   0  0  0  0  0  0  0  0  0  0  0  0
    1.2525    2.2835    2.0935 H   0  0  0  0  0  0  0  0  0  0  0  0
    6.2949   -1.6587    1.2622 H   0  0  0  0  0  0  0  0  0  0  0  0
    3.4525   -5.6526    0.2714 H   0  0  0  0  0  0  0  0  0  0  0  0
   -5.2081   -0.8649    0.9908 H   0  0  0  0  0  0  0  0  0  0  0  0
   -5.0478   -2.2350   -0.1025 H   0  0  0  0  0  0  0  0  0  0  0  0
    7.2029   -3.9482    1.5265 H   0  0  0  0  0  0  0  0  0  0  0  0
   -0.3552    6.1095   -0.6261 H   0  0  0  0  0  0  0  0  0  0  0  0
    1.4728    4.5738    2.9461 H   0  0  0  0  0  0  0  0  0  0  0  0
    5.8049   -5.9229    1.0395 H   0  0  0  0  0  0  0  0  0  0  0  0
   -6.2449   -0.9650   -1.9141 H   0  0  0  0  0  0  0  0  0  0  0  0
   -6.3680    0.4557   -0.8397 H   0  0  0  0  0  0  0  0  0  0  0  0
    5.5269    2.2285   -3.3571 H   0  0  0  0  0  0  0  0  0  0  0  0
    3.8318    2.5413   -3.7926 H   0  0  0  0  0  0  0  0  0  0  0  0
    4.4837    0.8631   -3.8135 H   0  0  0  0  0  0  0  0  0  0  0  0
   -7.5606   -3.1820   -1.0848 H   0  0  0  0  0  0  0  0  0  0  0  0
   -8.3248    0.5461    0.7392 H   0  0  0  0  0  0  0  0  0  0  0  0
   -9.9720   -3.2578    0.2671 H   0  0  0  0  0  0  0  0  0  0  0  0
  1 33  1  0  0  0  0
  2 21  1  0  0  0  0
  2 34  1  0  0  0  0
  3 21  2  0  0  0  0
  4  9  1  0  0  0  0
  4 10  1  0  0  0  0
  4 14  1  0  0  0  0
  5 12  1  0  0  0  0
  5 22  1  0  0  0  0
  5 48  1  0  0  0  0
  6 15  1  0  0  0  0
  6 20  1  0  0  0  0
  6 49  1  0  0  0  0
  7 32  1  0  0  0  0
  7 35  1  0  0  0  0
  7 36  1  0  0  0  0
  8 36  2  0  0  0  0
  8 37  1  0  0  0  0
  9 11  1  0  0  0  0
  9 15  1  0  0  0  0
  9 38  1  0  0  0  0
 10 13  1  0  0  0  0
 10 18  1  0  0  0  0
 10 39  1  0  0  0  0
 11 12  1  0  0  0  0
 11 40  1  0  0  0  0
 11 41  1  0  0  0  0
 12 13  1  0  0  0  0
 12 42  1  0  0  0  0
 13 43  1  0  0  0  0
 13 44  1  0  0  0  0
 14 16  1  0  0  0  0
 14 21  1  0  0  0  0
 14 45  1  0  0  0  0
 15 17  2  0  0  0  0
 16 17  1  0  0  0  0
 16 46  1  0  0  0  0
 16 47  1  0  0  0  0
 17 19  1  0  0  0  0
 18 23  2  0  0  0  0
 18 24  1  0  0  0  0
 19 20  1  0  0  0  0
 19 25  2  0  0  0  0
 20 26  2  0  0  0  0
 22 27  1  0  0  0  0
 22 50  1  0  0  0  0
 22 51  1  0  0  0  0
 23 29  1  0  0  0  0
 23 52  1  0  0  0  0
 24 30  2  0  0  0  0
 24 53  1  0  0  0  0
 25 28  1  0  0  0  0
 25 54  1  0  0  0  0
 26 31  1  0  0  0  0
 26 55  1  0  0  0  0
 27 32  1  0  0  0  0
 27 56  1  0  0  0  0
 27 57  1  0  0  0  0
 28 31  2  0  0  0  0
 28 58  1  0  0  0  0
 29 33  2  0  0  0  0
 29 59  1  0  0  0  0
 30 33  1  0  0  0  0
 30 60  1  0  0  0  0
 31 61  1  0  0  0  0
 32 62  1  0  0  0  0
 32 63  1  0  0  0  0
 34 64  1  0  0  0  0
 34 65  1  0  0  0  0
 34 66  1  0  0  0  0
 35 37  2  0  0  0  0
 35 67  1  0  0  0  0
 36 68  1  0  0  0  0
 37 69  1  0  0  0  0
M  END
> <PUBCHEM_COMPOUND_CID>
40780285

> <PUBCHEM_CONFORMER_RMSD>
1

> <PUBCHEM_CONFORMER_DIVERSEORDER>
1
34
20
29
23
78
64
41
80
43
46
72
10
69
49
70
42
81
32
5
9
38
19
84
33
51
14
67
48
2
25
37
62
75
18
76
50
8
26
35
61
7
73
59
58
3
68
57
40
6
83
65
16
17
45
28
22
21
56
60
52
31
13
30
12
55
4
74
79
44
66
24
77
53
47
39
82
36
15
11
71
54
63
27

> <PUBCHEM_MMFF94_PARTIAL_CHARGES>
46
1 -0.19
10 0.41
12 0.27
14 0.33
15 -0.33
16 0.18
17 -0.18
18 -0.14
2 -0.43
20 -0.15
21 0.66
22 0.27
23 -0.15
24 -0.15
25 -0.15
26 -0.15
28 -0.15
29 -0.15
3 -0.57
30 -0.15
31 -0.15
32 0.26
33 0.19
34 0.28
35 -0.3
36 0.04
37 0.08
4 -0.81
48 0.36
49 0.27
5 -0.9
52 0.15
53 0.15
54 0.15
55 0.15
58 0.15
59 0.15
6 0.03
60 0.15
61 0.15
67 0.15
68 0.15
69 0.15
7 0.05
8 -0.57
9 0.45

> <PUBCHEM_EFFECTIVE_ROTOR_COUNT>
9.2

> <PUBCHEM_PHARMACOPHORE_FEATURES>
13
1 3 acceptor
1 4 cation
1 5 cation
1 5 donor
1 6 cation
1 6 donor
3 7 8 36 cation
5 6 15 17 19 20 rings
5 7 8 35 36 37 rings
6 18 23 24 29 30 33 rings
6 19 20 25 26 28 31 rings
6 4 9 10 11 12 13 rings
6 4 9 14 15 16 17 rings

> <PUBCHEM_HEAVY_ATOM_COUNT>
37

> <PUBCHEM_ATOM_DEF_STEREO_COUNT>
4

> <PUBCHEM_ATOM_UDEF_STEREO_COUNT>
0

> <PUBCHEM_BOND_DEF_STEREO_COUNT>
0

> <PUBCHEM_BOND_UDEF_STEREO_COUNT>
0

> <PUBCHEM_ISOTOPIC_ATOM_COUNT>
0

> <PUBCHEM_COMPONENT_COUNT>
1

> <PUBCHEM_CACTVS_TAUTO_COUNT>
1

> <PUBCHEM_CONFORMER_ID>
026E41FD00000001

> <PUBCHEM_MMFF94_ENERGY>
71.9442

> <PUBCHEM_FEATURE_SELFOVERLAP>
66.168

> <PUBCHEM_SHAPE_FINGERPRINT>
10169797 241 18131627915920176445
10411042 1 18338794507505371571
11297750 10 18262222362380506301
11331351 85 17632577115712131445
11456790 92 18337117787729647387
12293681 160 18050033235606559660
12342043 65 18114174247223940535
13008946 170 18264762345519162141
13248334 5 18267017447978328353
133893 2 17024906713401999012
13540713 5 18265631887112261020
13782708 43 17894906318372209431
13835254 42 18269269076161717664
14068700 675 18262235491805236454
14400156 188 18411136973944993539
14400156 413 18261943120365095693
14849402 71 18340770450966483065
15400415 2 17546714320196877409
15439362 3 17694220380151776624
16096371 109 18054502776074571641
17980427 26 17910938459649330813
18365409 1 17690838960931230205
19301679 30 18198341749765231798
21133410 230 18339065069746254384
21344244 78 18339069420204350074
21716022 299 18187938256905520148
25242607 90 18341880862816113987
3534868 343 18336838489573706014
44280117 145 17908424655096557526
46194498 28 17603579733828141495
6695519 79 17402356144366661907
70251023 43 18262235513090143394

> <PUBCHEM_SHAPE_MULTIPOLES>
717.53
19.63
8.31
1.68
66.57
10.37
1.15
-32.11
-1.13
-9.88
-4.73
-2.56
1.98
-3.1

> <PUBCHEM_SHAPE_SELFOVERLAP>
1569.654

> <PUBCHEM_SHAPE_VOLUME>
391.3

> <PUBCHEM_COORDINATE_TYPE>
2
5
10

$$$$
