45783393
  -OEChem-12032416273D

 50 53  0     1  0  0  0  0  0999 V2000
   -2.1164    2.8152   -1.7110 S   0  0  0  0  0  0  0  0  0  0  0  0
   -0.5642    2.2262    1.3553 O   0  0  0  0  0  0  0  0  0  0  0  0
   -0.3838   -3.1866   -0.4327 O   0  0  0  0  0  0  0  0  0  0  0  0
   -2.9178   -0.2199    0.4464 N   0  0  1  0  0  0  0  0  0  0  0  0
    0.1439    0.1212    1.0646 N   0  0  0  0  0  0  0  0  0  0  0  0
    0.8107    2.3093    1.1015 N   0  0  0  0  0  0  0  0  0  0  0  0
    1.7332   -1.3068   -0.5697 N   0  0  0  0  0  0  0  0  0  0  0  0
    4.0588   -0.9226   -0.3609 N   0  0  0  0  0  0  0  0  0  0  0  0
   -2.3249    0.5437    1.5624 C   0  0  1  0  0  0  0  0  0  0  0  0
   -2.5118   -0.3583    2.7964 C   0  0  0  0  0  0  0  0  0  0  0  0
   -3.2714   -1.5753    2.2880 C   0  0  0  0  0  0  0  0  0  0  0  0
   -3.9534   -1.0713    1.0321 C   0  0  0  0  0  0  0  0  0  0  0  0
   -3.4419    0.6289   -0.6160 C   0  0  0  0  0  0  0  0  0  0  0  0
   -0.8749    0.9040    1.3158 C   0  0  0  0  0  0  0  0  0  0  0  0
   -2.3501    1.1292   -1.5240 C   0  0  0  0  0  0  0  0  0  0  0  0
    1.1557    1.0283    0.9407 C   0  0  0  0  0  0  0  0  0  0  0  0
   -1.4561    0.3970   -2.2739 C   0  0  0  0  0  0  0  0  0  0  0  0
    2.5016    0.6215    0.6570 C   0  0  0  0  0  0  0  0  0  0  0  0
   -0.5674    1.2313   -3.0116 C   0  0  0  0  0  0  0  0  0  0  0  0
   -0.8159    2.5691   -2.7975 C   0  0  0  0  0  0  0  0  0  0  0  0
    2.8014   -0.5143   -0.0778 C   0  0  0  0  0  0  0  0  0  0  0  0
    3.5603    1.3877    1.1319 C   0  0  0  0  0  0  0  0  0  0  0  0
    1.9016   -2.6682   -0.9592 C   0  0  0  0  0  0  0  0  0  0  0  0
    4.8679    1.0001    0.8613 C   0  0  0  0  0  0  0  0  0  0  0  0
    5.0619   -0.1527    0.1173 C   0  0  0  0  0  0  0  0  0  0  0  0
    0.5860   -3.2287   -1.4720 C   0  0  0  0  0  0  0  0  0  0  0  0
   -1.6330   -3.7080   -0.8646 C   0  0  0  0  0  0  0  0  0  0  0  0
   -2.8911    1.4680    1.7454 H   0  0  0  0  0  0  0  0  0  0  0  0
   -1.5735   -0.6574    3.2758 H   0  0  0  0  0  0  0  0  0  0  0  0
   -3.1187    0.1645    3.5458 H   0  0  0  0  0  0  0  0  0  0  0  0
   -3.9823   -1.9572    3.0266 H   0  0  0  0  0  0  0  0  0  0  0  0
   -2.5651   -2.3790    2.0482 H   0  0  0  0  0  0  0  0  0  0  0  0
   -4.8525   -0.4981    1.2920 H   0  0  0  0  0  0  0  0  0  0  0  0
   -4.2358   -1.8945    0.3689 H   0  0  0  0  0  0  0  0  0  0  0  0
   -4.0566    1.4463   -0.2172 H   0  0  0  0  0  0  0  0  0  0  0  0
   -4.1127    0.0362   -1.2544 H   0  0  0  0  0  0  0  0  0  0  0  0
   -1.4377   -0.6844   -2.2976 H   0  0  0  0  0  0  0  0  0  0  0  0
    0.2151    0.8680   -3.6649 H   0  0  0  0  0  0  0  0  0  0  0  0
   -0.2955    3.4138   -3.2264 H   0  0  0  0  0  0  0  0  0  0  0  0
    3.3992    2.2868    1.7216 H   0  0  0  0  0  0  0  0  0  0  0  0
    0.8823   -0.8206   -0.8301 H   0  0  0  0  0  0  0  0  0  0  0  0
    2.6563   -2.7566   -1.7488 H   0  0  0  0  0  0  0  0  0  0  0  0
    2.2349   -3.2559   -0.0957 H   0  0  0  0  0  0  0  0  0  0  0  0
    5.7090    1.5806    1.2227 H   0  0  0  0  0  0  0  0  0  0  0  0
    6.0625   -0.4983   -0.1206 H   0  0  0  0  0  0  0  0  0  0  0  0
    0.2309   -2.6452   -2.3299 H   0  0  0  0  0  0  0  0  0  0  0  0
    0.7335   -4.2668   -1.7915 H   0  0  0  0  0  0  0  0  0  0  0  0
   -2.0478   -3.0926   -1.6683 H   0  0  0  0  0  0  0  0  0  0  0  0
   -1.5224   -4.7431   -1.2021 H   0  0  0  0  0  0  0  0  0  0  0  0
   -2.3255   -3.6930   -0.0200 H   0  0  0  0  0  0  0  0  0  0  0  0
  1 15  1  0  0  0  0
  1 20  1  0  0  0  0
  2  6  1  0  0  0  0
  2 14  1  0  0  0  0
  3 26  1  0  0  0  0
  3 27  1  0  0  0  0
  4  9  1  0  0  0  0
  4 12  1  0  0  0  0
  4 13  1  0  0  0  0
  5 14  2  0  0  0  0
  5 16  1  0  0  0  0
  6 16  2  0  0  0  0
  7 21  1  0  0  0  0
  7 23  1  0  0  0  0
  7 41  1  0  0  0  0
  8 21  1  0  0  0  0
  8 25  2  0  0  0  0
  9 10  1  0  0  0  0
  9 14  1  0  0  0  0
  9 28  1  0  0  0  0
 10 11  1  0  0  0  0
 10 29  1  0  0  0  0
 10 30  1  0  0  0  0
 11 12  1  0  0  0  0
 11 31  1  0  0  0  0
 11 32  1  0  0  0  0
 12 33  1  0  0  0  0
 12 34  1  0  0  0  0
 13 15  1  0  0  0  0
 13 35  1  0  0  0  0
 13 36  1  0  0  0  0
 15 17  2  0  0  0  0
 16 18  1  0  0  0  0
 17 19  1  0  0  0  0
 17 37  1  0  0  0  0
 18 21  2  0  0  0  0
 18 22  1  0  0  0  0
 19 20  2  0  0  0  0
 19 38  1  0  0  0  0
 20 39  1  0  0  0  0
 22 24  2  0  0  0  0
 22 40  1  0  0  0  0
 23 26  1  0  0  0  0
 23 42  1  0  0  0  0
 23 43  1  0  0  0  0
 24 25  1  0  0  0  0
 24 44  1  0  0  0  0
 25 45  1  0  0  0  0
 26 46  1  0  0  0  0
 26 47  1  0  0  0  0
 27 48  1  0  0  0  0
 27 49  1  0  0  0  0
 27 50  1  0  0  0  0
M  END
> <PUBCHEM_COMPOUND_CID>
45783393

> <PUBCHEM_CONFORMER_RMSD>
1

> <PUBCHEM_CONFORMER_DIVERSEORDER>
1
187
42
63
13
123
70
130
169
121
24
119
29
69
191
150
157
183
148
176
64
198
31
8
174
80
88
26
164
44
137
177
102
79
147
197
204
21
86
189
55
161
200
160
167
117
68
193
50
57
153
128
62
114
35
67
109
175
140
182
94
71
168
205
39
90
40
192
106
152
78
28
120
60
96
97
165
179
195
159
16
138
146
92
194
116
75
144
82
172
201
81
145
203
122
98
125
51
99
100
155
171
101
45
89
15
19
107
110
166
141
72
156
61
9
33
27
126
108
178
47
118
112
10
36
83
184
85
6
65
37
131
74
185
136
22
154
151
54
18
132
7
111
2
104
170
188
73
84
202
105
196
25
23
48
53
20
186
199
52
158
129
173
113
30
32
115
163
46
190
66
103
5
139
91
134
149
11
56
162
93
181
12
3
77
95
143
124
58
135
41
142
180
127
59
34
49
76
4
87
17
38
43
14
133

> <PUBCHEM_MMFF94_PARTIAL_CHARGES>
32
1 -0.08
12 0.27
13 0.45
14 0.3
15 -0.14
16 0.46
17 -0.15
18 0.05
19 -0.15
2 -0.02
20 -0.11
21 0.41
22 -0.15
23 0.37
24 -0.15
25 0.16
26 0.28
27 0.28
3 -0.56
37 0.15
38 0.15
39 0.15
4 -0.81
40 0.15
41 0.4
44 0.15
45 0.15
5 -0.57
6 -0.41
7 -0.87
8 -0.62
9 0.45

> <PUBCHEM_EFFECTIVE_ROTOR_COUNT>
9

> <PUBCHEM_PHARMACOPHORE_FEATURES>
10
1 3 acceptor
1 4 cation
1 7 cation
1 7 donor
1 8 acceptor
3 5 6 16 cation
5 1 15 17 19 20 rings
5 2 5 6 14 16 rings
5 4 9 10 11 12 rings
6 8 18 21 22 24 25 rings

> <PUBCHEM_HEAVY_ATOM_COUNT>
27

> <PUBCHEM_ATOM_DEF_STEREO_COUNT>
1

> <PUBCHEM_ATOM_UDEF_STEREO_COUNT>
0

> <PUBCHEM_BOND_DEF_STEREO_COUNT>
0

> <PUBCHEM_BOND_UDEF_STEREO_COUNT>
0

> <PUBCHEM_ISOTOPIC_ATOM_COUNT>
0

> <PUBCHEM_COMPONENT_COUNT>
1

> <PUBCHEM_CACTVS_TAUTO_COUNT>
8

> <PUBCHEM_CONFORMER_ID>
02BA996100000001

> <PUBCHEM_MMFF94_ENERGY>
55.3604

> <PUBCHEM_FEATURE_SELFOVERLAP>
50.747

> <PUBCHEM_SHAPE_FINGERPRINT>
11578080 2 17828505577802617948
12156800 1 17123991629435557062
13911987 19 18342452673486857572
14468879 13 18117262680100653693
16752209 62 15122642723548825085
1813 80 17533529874103202185
20600515 1 17458928001600476585
23419403 2 17472158180494636189
23557571 272 17749114356955165301
238 59 17980440608370334079
35225 105 17628643243391184759
469060 322 18043516425213158206
550186 7 17458901514663516022

> <PUBCHEM_SHAPE_MULTIPOLES>
522.85
7.32
3.64
2.84
7.72
1.69
0.39
0.42
-2.77
-1.81
2.71
-1.99
-0.49
2.48

> <PUBCHEM_SHAPE_SELFOVERLAP>
1104.647

> <PUBCHEM_SHAPE_VOLUME>
296.9

> <PUBCHEM_COORDINATE_TYPE>
2
5
10

$$$$
