7165077
  -OEChem-12032416413D

 56 60  0     1  0  0  0  0  0999 V2000
    8.1816    3.0467   -0.4005 F   0  0  0  0  0  0  0  0  0  0  0  0
    8.9338    1.2145    0.4834 F   0  0  0  0  0  0  0  0  0  0  0  0
    7.7609    2.5963    1.6849 F   0  0  0  0  0  0  0  0  0  0  0  0
   -0.0313   -0.0619   -0.9335 O   0  0  0  0  0  0  0  0  0  0  0  0
   -2.5236   -3.6387    0.8342 O   0  0  0  0  0  0  0  0  0  0  0  0
    2.7317   -0.7257   -2.2549 O   0  0  0  0  0  0  0  0  0  0  0  0
   -6.1035    0.8484   -1.4045 O   0  0  0  0  0  0  0  0  0  0  0  0
    2.2376   -1.2282   -0.0361 N   0  0  0  0  0  0  0  0  0  0  0  0
   -0.2848   -3.5425    1.1198 N   0  0  0  0  0  0  0  0  0  0  0  0
   -1.3665   -1.7986   -0.0748 N   0  0  0  0  0  0  0  0  0  0  0  0
    1.0051   -2.9442    0.9434 C   0  0  1  0  0  0  0  0  0  0  0  0
    1.0851   -2.0887   -0.3024 C   0  0  1  0  0  0  0  0  0  0  0  0
    1.4182   -1.9823    2.0560 C   0  0  0  0  0  0  0  0  0  0  0  0
    2.5374   -1.1831    1.3982 C   0  0  0  0  0  0  0  0  0  0  0  0
   -0.1435   -1.1998   -0.4710 C   0  0  0  0  0  0  0  0  0  0  0  0
   -1.4724   -3.0170    0.6492 C   0  0  0  0  0  0  0  0  0  0  0  0
    3.0003   -0.6773   -1.0566 C   0  0  0  0  0  0  0  0  0  0  0  0
   -2.5951   -1.1120   -0.4203 C   0  0  0  0  0  0  0  0  0  0  0  0
    4.2375    0.0152   -0.6715 C   0  0  0  0  0  0  0  0  0  0  0  0
   -2.6443   -0.3307   -1.5668 C   0  0  0  0  0  0  0  0  0  0  0  0
   -3.7067   -1.2448    0.4009 C   0  0  0  0  0  0  0  0  0  0  0  0
    5.4317   -0.6955   -0.5923 C   0  0  0  0  0  0  0  0  0  0  0  0
    4.2087    1.3779   -0.3895 C   0  0  0  0  0  0  0  0  0  0  0  0
   -3.8271    0.3303   -1.8983 C   0  0  0  0  0  0  0  0  0  0  0  0
   -4.8895   -0.5838    0.0695 C   0  0  0  0  0  0  0  0  0  0  0  0
    6.6067   -0.0381   -0.2282 C   0  0  0  0  0  0  0  0  0  0  0  0
    5.3837    2.0354   -0.0252 C   0  0  0  0  0  0  0  0  0  0  0  0
    6.5827    1.3273    0.0555 C   0  0  0  0  0  0  0  0  0  0  0  0
   -4.9496    0.2038   -1.0802 C   0  0  0  0  0  0  0  0  0  0  0  0
    7.8389    2.0305    0.4453 C   0  0  0  0  0  0  0  0  0  0  0  0
   -6.7745    1.5154   -0.3931 C   0  0  0  0  0  0  0  0  0  0  0  0
   -6.0557    2.3078    0.4837 C   0  0  0  0  0  0  0  0  0  0  0  0
   -8.1459    1.3720   -0.2859 C   0  0  0  0  0  0  0  0  0  0  0  0
   -6.7315    2.9796    1.5022 C   0  0  0  0  0  0  0  0  0  0  0  0
   -8.8216    2.0439    0.7327 C   0  0  0  0  0  0  0  0  0  0  0  0
   -8.1145    2.8478    1.6267 C   0  0  0  0  0  0  0  0  0  0  0  0
    1.7372   -3.7602    0.8869 H   0  0  0  0  0  0  0  0  0  0  0  0
    1.2235   -2.6675   -1.2217 H   0  0  0  0  0  0  0  0  0  0  0  0
    1.7480   -2.4964    2.9639 H   0  0  0  0  0  0  0  0  0  0  0  0
    0.5898   -1.3191    2.3341 H   0  0  0  0  0  0  0  0  0  0  0  0
    2.5779   -0.1474    1.7471 H   0  0  0  0  0  0  0  0  0  0  0  0
    3.5110   -1.6566    1.5625 H   0  0  0  0  0  0  0  0  0  0  0  0
   -0.3346   -4.4095    1.6462 H   0  0  0  0  0  0  0  0  0  0  0  0
   -1.8299   -0.2601   -2.2797 H   0  0  0  0  0  0  0  0  0  0  0  0
   -3.6958   -1.7809    1.3436 H   0  0  0  0  0  0  0  0  0  0  0  0
    5.4602   -1.7596   -0.8112 H   0  0  0  0  0  0  0  0  0  0  0  0
    3.2792    1.9380   -0.4494 H   0  0  0  0  0  0  0  0  0  0  0  0
   -3.8739    0.9290   -2.8040 H   0  0  0  0  0  0  0  0  0  0  0  0
   -5.7503   -0.7063    0.7217 H   0  0  0  0  0  0  0  0  0  0  0  0
    7.5307   -0.6068   -0.1707 H   0  0  0  0  0  0  0  0  0  0  0  0
    5.3550    3.0994    0.1940 H   0  0  0  0  0  0  0  0  0  0  0  0
   -4.9823    2.4458    0.3935 H   0  0  0  0  0  0  0  0  0  0  0  0
   -8.6976    0.7463   -0.9809 H   0  0  0  0  0  0  0  0  0  0  0  0
   -6.1818    3.6099    2.1951 H   0  0  0  0  0  0  0  0  0  0  0  0
   -9.8985    1.9414    0.8295 H   0  0  0  0  0  0  0  0  0  0  0  0
   -8.6409    3.3720    2.4189 H   0  0  0  0  0  0  0  0  0  0  0  0
  1 30  1  0  0  0  0
  2 30  1  0  0  0  0
  3 30  1  0  0  0  0
  4 15  2  0  0  0  0
  5 16  2  0  0  0  0
  6 17  2  0  0  0  0
  7 29  1  0  0  0  0
  7 31  1  0  0  0  0
  8 12  1  0  0  0  0
  8 14  1  0  0  0  0
  8 17  1  0  0  0  0
  9 11  1  0  0  0  0
  9 16  1  0  0  0  0
  9 43  1  0  0  0  0
 10 15  1  0  0  0  0
 10 16  1  0  0  0  0
 10 18  1  0  0  0  0
 11 12  1  0  0  0  0
 11 13  1  0  0  0  0
 11 37  1  0  0  0  0
 12 15  1  0  0  0  0
 12 38  1  0  0  0  0
 13 14  1  0  0  0  0
 13 39  1  0  0  0  0
 13 40  1  0  0  0  0
 14 41  1  0  0  0  0
 14 42  1  0  0  0  0
 17 19  1  0  0  0  0
 18 20  2  0  0  0  0
 18 21  1  0  0  0  0
 19 22  2  0  0  0  0
 19 23  1  0  0  0  0
 20 24  1  0  0  0  0
 20 44  1  0  0  0  0
 21 25  2  0  0  0  0
 21 45  1  0  0  0  0
 22 26  1  0  0  0  0
 22 46  1  0  0  0  0
 23 27  2  0  0  0  0
 23 47  1  0  0  0  0
 24 29  2  0  0  0  0
 24 48  1  0  0  0  0
 25 29  1  0  0  0  0
 25 49  1  0  0  0  0
 26 28  2  0  0  0  0
 26 50  1  0  0  0  0
 27 28  1  0  0  0  0
 27 51  1  0  0  0  0
 28 30  1  0  0  0  0
 31 32  2  0  0  0  0
 31 33  1  0  0  0  0
 32 34  1  0  0  0  0
 32 52  1  0  0  0  0
 33 35  2  0  0  0  0
 33 53  1  0  0  0  0
 34 36  2  0  0  0  0
 34 54  1  0  0  0  0
 35 36  1  0  0  0  0
 35 55  1  0  0  0  0
 36 56  1  0  0  0  0
M  END
> <PUBCHEM_COMPOUND_CID>
7165077

> <PUBCHEM_CONFORMER_RMSD>
1

> <PUBCHEM_CONFORMER_DIVERSEORDER>
1
25
27
26
29
39
44
37
3
23
17
7
46
50
31
30
28
11
9
14
8
48
40
24
32
49
20
35
18
13
21
41
16
42
33
10
6
34
22
4
38
2
19
43
36
45
12
5
47
15

> <PUBCHEM_MMFF94_PARTIAL_CHARGES>
49
1 -0.34
10 -0.24
11 0.3
12 0.36
14 0.3
15 0.57
16 0.69
17 0.54
18 0.12
19 0.09
2 -0.34
20 -0.15
21 -0.15
22 -0.15
23 -0.15
24 -0.15
25 -0.15
26 -0.15
27 -0.15
28 -0.14
29 0.08
3 -0.34
30 1.16
31 0.08
32 -0.15
33 -0.15
34 -0.15
35 -0.15
36 -0.15
4 -0.57
43 0.37
44 0.15
45 0.15
46 0.15
47 0.15
48 0.15
49 0.15
5 -0.57
50 0.15
51 0.15
52 0.15
53 0.15
54 0.15
55 0.15
56 0.15
6 -0.57
7 -0.17
8 -0.66
9 -0.73

> <PUBCHEM_EFFECTIVE_ROTOR_COUNT>
7

> <PUBCHEM_PHARMACOPHORE_FEATURES>
10
1 4 acceptor
1 5 acceptor
1 6 acceptor
1 7 acceptor
1 9 donor
5 8 11 12 13 14 rings
6 18 20 21 24 25 29 rings
6 19 22 23 26 27 28 rings
6 31 32 33 34 35 36 rings
6 9 10 11 12 15 16 rings

> <PUBCHEM_HEAVY_ATOM_COUNT>
36

> <PUBCHEM_ATOM_DEF_STEREO_COUNT>
2

> <PUBCHEM_ATOM_UDEF_STEREO_COUNT>
0

> <PUBCHEM_BOND_DEF_STEREO_COUNT>
0

> <PUBCHEM_BOND_UDEF_STEREO_COUNT>
0

> <PUBCHEM_ISOTOPIC_ATOM_COUNT>
0

> <PUBCHEM_COMPONENT_COUNT>
1

> <PUBCHEM_CACTVS_TAUTO_COUNT>
2

> <PUBCHEM_CONFORMER_ID>
006D549500000001

> <PUBCHEM_MMFF94_ENERGY>
129.0598

> <PUBCHEM_FEATURE_SELFOVERLAP>
50.939

> <PUBCHEM_SHAPE_FINGERPRINT>
10 15 16298682620155305079
10981352 41 8502370027604753852
11135609 201 18408601427638409881
11273773 42 18343014494132425013
11578821 258 18123750027346607744
11621639 336 18126850395757842200
1200032 147 18260547805553874578
12677640 9 18191310588502431311
12895837 130 18201718496239513901
13248334 5 18122626054751231907
13383665 225 16199309756609229281
14068700 675 9151176466993152767
14394314 77 18335420166713351061
14428016 167 8286203833528333433
14849402 71 18411419506222078825
14904525 67 18120935006684948613
14931854 50 14117519830862438839
15183329 4 15769776857474638846
15347590 135 17240767246856361225
15357212 105 16952561193103967148
15392192 104 14201405963277700562
15685185 35 18411704313687216545
16067689 68 12252177447189107381
16126227 98 18409168814250791487
16991971 28 10663814195885165917
16994733 274 18060132150452903808
17899979 129 18272656696988044230
19302320 297 17530969107354310452
19304671 126 18200883881035986174
19438510 23 18410573985357420123
20105231 36 12468629501504789464
21033648 29 18113623404224644310
21298829 104 18342177769245730852
21307412 95 11887660794039333421
21424621 283 18412265016918534979
21756936 100 18335693996463658759
21781055 127 18130218256187673882
21792965 39 18113904827741557954
21792965 68 18342745130684063656
23576562 1 14404600169792485225
24771293 8 18408040723831767269
25269216 80 17417798596453422191
3004659 81 13182730429996503383
3178227 256 17530970176531959628
3633792 109 17704359858288451630
3711267 37 18059867108628535209
3918712 181 18268148648634839769
406291 66 8646767785721493737
4093350 32 18131071480761983663
4173938 188 18261399967001767419
44802255 64 17060059280899217535
44880568 143 18270406121904267492
4516262 110 18338791214240999381
4616759 239 18041006189365473043
474113 269 8718823168425738529
50009960 94 15214736860662825937
5104073 3 16807292394224285045
5385378 56 17968373455671816010
563151 74 18041287561041506243
5718773 13 8790879679630688913
57303763 176 17916591917550363552
57527295 17 18130210653452299359
5758199 1 18335421249186800559
5776283 40 18273494589610770057
5911458 16 18201723912547325137
5937810 71 17489314075123815361
636775 72 18340203119640381392
6698420 124 18409453561354837154
9896288 288 17823984634976948930
9980921 177 18263911186771355058

> <PUBCHEM_SHAPE_MULTIPOLES>
680.62
26.82
3.92
1.58
0.47
0.78
0
-36.01
-4.85
-0.04
-2.18
-0.82
0.06
-1.03

> <PUBCHEM_SHAPE_SELFOVERLAP>
1513.637

> <PUBCHEM_SHAPE_VOLUME>
362.6

> <PUBCHEM_COORDINATE_TYPE>
2
5
10

$$$$
