38027174
  -OEChem-12032416243D

 67 69  0     1  0  0  0  0  0999 V2000
   -2.4930    2.1523    1.2570 O   0  0  0  0  0  0  0  0  0  0  0  0
    3.2059   -1.0408   -2.3128 O   0  0  0  0  0  0  0  0  0  0  0  0
    3.4860    0.0972   -0.3096 N   0  0  0  0  0  0  0  0  0  0  0  0
   -2.5496   -0.1084    1.7724 N   0  0  0  0  0  0  0  0  0  0  0  0
    3.0256   -4.7112   -0.2944 N   0  0  0  0  0  0  0  0  0  0  0  0
    1.2832    2.0438   -0.9435 C   0  0  1  0  0  0  0  0  0  0  0  0
    2.6901    2.4008   -0.4022 C   0  0  1  0  0  0  0  0  0  0  0  0
    0.1983    2.7842   -0.1466 C   0  0  0  0  0  0  0  0  0  0  0  0
    0.2444    2.4443    1.3551 C   0  0  2  0  0  0  0  0  0  0  0  0
    1.1468    2.3717   -2.4336 C   0  0  0  0  0  0  0  0  0  0  0  0
    1.6544    2.5142    1.9053 C   0  0  0  0  0  0  0  0  0  0  0  0
    2.7346    2.5071    1.1041 C   0  0  0  0  0  0  0  0  0  0  0  0
    3.7380    1.3861   -0.8737 C   0  0  0  0  0  0  0  0  0  0  0  0
   -0.3850    1.0743    1.6309 C   0  0  0  0  0  0  0  0  0  0  0  0
    0.8437    3.8541   -2.6265 C   0  0  0  0  0  0  0  0  0  0  0  0
    0.0615    1.5101   -3.0710 C   0  0  0  0  0  0  0  0  0  0  0  0
    1.7938    2.6385    3.3971 C   0  0  0  0  0  0  0  0  0  0  0  0
   -1.8990    1.1066    1.5326 C   0  0  0  0  0  0  0  0  0  0  0  0
    3.2355   -1.0345   -1.0850 C   0  0  0  0  0  0  0  0  0  0  0  0
   -4.0033   -0.2429    1.7161 C   0  0  0  0  0  0  0  0  0  0  0  0
   -1.8260   -1.3317    2.0966 C   0  0  0  0  0  0  0  0  0  0  0  0
    2.9662   -2.2948   -0.3460 C   0  0  0  0  0  0  0  0  0  0  0  0
   -4.4772   -0.6528    0.3517 C   0  0  0  0  0  0  0  0  0  0  0  0
    2.4249   -2.2734    0.9346 C   0  0  0  0  0  0  0  0  0  0  0  0
    3.2463   -3.5285   -0.9112 C   0  0  0  0  0  0  0  0  0  0  0  0
   -4.7925    0.3192   -0.5979 C   0  0  0  0  0  0  0  0  0  0  0  0
   -4.6022   -2.0050    0.0336 C   0  0  0  0  0  0  0  0  0  0  0  0
    2.1835   -3.4694    1.6013 C   0  0  0  0  0  0  0  0  0  0  0  0
   -5.2329   -0.0613   -1.8657 C   0  0  0  0  0  0  0  0  0  0  0  0
   -5.0425   -2.3855   -1.2341 C   0  0  0  0  0  0  0  0  0  0  0  0
    2.4985   -4.6506    0.9491 C   0  0  0  0  0  0  0  0  0  0  0  0
   -5.3579   -1.4136   -2.1837 C   0  0  0  0  0  0  0  0  0  0  0  0
    1.1203    0.9673   -0.8165 H   0  0  0  0  0  0  0  0  0  0  0  0
    2.9924    3.3830   -0.7866 H   0  0  0  0  0  0  0  0  0  0  0  0
   -0.7962    2.5792   -0.5541 H   0  0  0  0  0  0  0  0  0  0  0  0
    0.3456    3.8702   -0.2084 H   0  0  0  0  0  0  0  0  0  0  0  0
   -0.3407    3.2188    1.8709 H   0  0  0  0  0  0  0  0  0  0  0  0
    2.0791    2.1452   -2.9612 H   0  0  0  0  0  0  0  0  0  0  0  0
    3.7215    2.6068    1.5518 H   0  0  0  0  0  0  0  0  0  0  0  0
    4.7356    1.6877   -0.5318 H   0  0  0  0  0  0  0  0  0  0  0  0
    3.7885    1.3279   -1.9643 H   0  0  0  0  0  0  0  0  0  0  0  0
    0.0077    0.3149    0.9477 H   0  0  0  0  0  0  0  0  0  0  0  0
   -0.1471    0.7724    2.6568 H   0  0  0  0  0  0  0  0  0  0  0  0
    1.5476    4.5022   -2.0961 H   0  0  0  0  0  0  0  0  0  0  0  0
    0.9353    4.1040   -3.6908 H   0  0  0  0  0  0  0  0  0  0  0  0
   -0.1796    4.1244   -2.3453 H   0  0  0  0  0  0  0  0  0  0  0  0
   -0.0119    1.7195   -4.1439 H   0  0  0  0  0  0  0  0  0  0  0  0
    0.2916    0.4449   -2.9597 H   0  0  0  0  0  0  0  0  0  0  0  0
   -0.9251    1.6909   -2.6331 H   0  0  0  0  0  0  0  0  0  0  0  0
    1.2117    3.4903    3.7639 H   0  0  0  0  0  0  0  0  0  0  0  0
    2.8341    2.8000    3.6998 H   0  0  0  0  0  0  0  0  0  0  0  0
    1.4441    1.7337    3.9020 H   0  0  0  0  0  0  0  0  0  0  0  0
    3.5790    0.0040    0.6966 H   0  0  0  0  0  0  0  0  0  0  0  0
   -4.3407   -0.9517    2.4820 H   0  0  0  0  0  0  0  0  0  0  0  0
   -4.4551    0.7215    1.9799 H   0  0  0  0  0  0  0  0  0  0  0  0
   -0.7804   -1.1844    2.3619 H   0  0  0  0  0  0  0  0  0  0  0  0
   -1.8647   -1.9982    1.2301 H   0  0  0  0  0  0  0  0  0  0  0  0
   -2.3113   -1.8205    2.9474 H   0  0  0  0  0  0  0  0  0  0  0  0
    2.1550   -1.3470    1.4327 H   0  0  0  0  0  0  0  0  0  0  0  0
    3.6732   -3.6158   -1.9056 H   0  0  0  0  0  0  0  0  0  0  0  0
   -4.7019    1.3764   -0.3644 H   0  0  0  0  0  0  0  0  0  0  0  0
   -4.3620   -2.7722    0.7648 H   0  0  0  0  0  0  0  0  0  0  0  0
    1.7556   -3.4772    2.5973 H   0  0  0  0  0  0  0  0  0  0  0  0
   -5.4786    0.6954   -2.6050 H   0  0  0  0  0  0  0  0  0  0  0  0
   -5.1402   -3.4384   -1.4817 H   0  0  0  0  0  0  0  0  0  0  0  0
   -5.7009   -1.7099   -3.1707 H   0  0  0  0  0  0  0  0  0  0  0  0
    2.3276   -5.6105    1.4253 H   0  0  0  0  0  0  0  0  0  0  0  0
  1 18  2  0  0  0  0
  2 19  2  0  0  0  0
  3 13  1  0  0  0  0
  3 19  1  0  0  0  0
  3 53  1  0  0  0  0
  4 18  1  0  0  0  0
  4 20  1  0  0  0  0
  4 21  1  0  0  0  0
  5 25  1  0  0  0  0
  5 31  2  0  0  0  0
  6  7  1  0  0  0  0
  6  8  1  0  0  0  0
  6 10  1  0  0  0  0
  6 33  1  0  0  0  0
  7 12  1  0  0  0  0
  7 13  1  0  0  0  0
  7 34  1  0  0  0  0
  8  9  1  0  0  0  0
  8 35  1  0  0  0  0
  8 36  1  0  0  0  0
  9 11  1  0  0  0  0
  9 14  1  0  0  0  0
  9 37  1  0  0  0  0
 10 15  1  0  0  0  0
 10 16  1  0  0  0  0
 10 38  1  0  0  0  0
 11 12  2  0  0  0  0
 11 17  1  0  0  0  0
 12 39  1  0  0  0  0
 13 40  1  0  0  0  0
 13 41  1  0  0  0  0
 14 18  1  0  0  0  0
 14 42  1  0  0  0  0
 14 43  1  0  0  0  0
 15 44  1  0  0  0  0
 15 45  1  0  0  0  0
 15 46  1  0  0  0  0
 16 47  1  0  0  0  0
 16 48  1  0  0  0  0
 16 49  1  0  0  0  0
 17 50  1  0  0  0  0
 17 51  1  0  0  0  0
 17 52  1  0  0  0  0
 19 22  1  0  0  0  0
 20 23  1  0  0  0  0
 20 54  1  0  0  0  0
 20 55  1  0  0  0  0
 21 56  1  0  0  0  0
 21 57  1  0  0  0  0
 21 58  1  0  0  0  0
 22 24  1  0  0  0  0
 22 25  2  0  0  0  0
 23 26  2  0  0  0  0
 23 27  1  0  0  0  0
 24 28  2  0  0  0  0
 24 59  1  0  0  0  0
 25 60  1  0  0  0  0
 26 29  1  0  0  0  0
 26 61  1  0  0  0  0
 27 30  2  0  0  0  0
 27 62  1  0  0  0  0
 28 31  1  0  0  0  0
 28 63  1  0  0  0  0
 29 32  2  0  0  0  0
 29 64  1  0  0  0  0
 30 32  1  0  0  0  0
 30 65  1  0  0  0  0
 31 67  1  0  0  0  0
 32 66  1  0  0  0  0
M  END
> <PUBCHEM_COMPOUND_CID>
38027174

> <PUBCHEM_CONFORMER_RMSD>
1.2

> <PUBCHEM_CONFORMER_DIVERSEORDER>
1
167
22
27
124
41
88
102
20
89
185
24
81
26
173
118
182
180
70
134
8
137
11
3
172
120
40
82
171
55
43
83
94
122
166
86
126
60
78
62
174
189
143
108
52
165
139
64
111
161
17
116
101
9
181
131
33
58
90
147
156
39
45
162
112
158
148
73
168
38
47
84
190
146
71
184
46
95
119
155
79
5
93
48
130
30
133
21
59
177
25
169
142
57
170
51
49
121
135
109
188
106
61
76
50
175
68
29
128
141
98
36
103
179
104
28
99
178
153
151
56
42
69
85
34
138
37
77
149
23
113
107
66
145
186
114
19
67
150
183
115
187
44
15
2
92
65
132
14
6
105
75
157
13
63
160
140
129
191
117
127
97
72
7
54
74
163
12
91
110
159
53
154
32
152
31
80
16
100
136
144
164
18
96
125
10
35
123
87
4
176

> <PUBCHEM_MMFF94_PARTIAL_CHARGES>
38
1 -0.57
11 -0.28
12 -0.29
13 0.3
14 0.06
17 0.14
18 0.57
19 0.54
2 -0.57
20 0.44
21 0.3
22 0.09
23 -0.14
24 -0.15
25 0.16
26 -0.15
27 -0.15
28 -0.15
29 -0.15
3 -0.73
30 -0.15
31 0.16
32 -0.15
39 0.15
4 -0.66
5 -0.62
53 0.37
59 0.15
60 0.15
61 0.15
62 0.15
63 0.15
64 0.15
65 0.15
66 0.15
67 0.15
7 0.14
9 0.14

> <PUBCHEM_EFFECTIVE_ROTOR_COUNT>
10.8

> <PUBCHEM_PHARMACOPHORE_FEATURES>
8
1 1 acceptor
1 2 acceptor
1 3 donor
1 5 acceptor
3 10 15 16 hydrophobe
6 23 26 27 29 30 32 rings
6 5 22 24 25 28 31 rings
6 6 7 8 9 11 12 rings

> <PUBCHEM_HEAVY_ATOM_COUNT>
32

> <PUBCHEM_ATOM_DEF_STEREO_COUNT>
3

> <PUBCHEM_ATOM_UDEF_STEREO_COUNT>
0

> <PUBCHEM_BOND_DEF_STEREO_COUNT>
0

> <PUBCHEM_BOND_UDEF_STEREO_COUNT>
0

> <PUBCHEM_ISOTOPIC_ATOM_COUNT>
0

> <PUBCHEM_COMPONENT_COUNT>
1

> <PUBCHEM_CACTVS_TAUTO_COUNT>
2

> <PUBCHEM_CONFORMER_ID>
02443FA600000001

> <PUBCHEM_MMFF94_ENERGY>
80.4624

> <PUBCHEM_FEATURE_SELFOVERLAP>
40.597

> <PUBCHEM_SHAPE_FINGERPRINT>
11285246 1 17609206862656210831
11513181 2 18057621870939029798
11552529 35 17551794712298625634
11991303 11 17333071522601499976
12156800 1 16376032025775711938
12977781 61 17758918616757792864
14251757 17 17530971271901178151
14674994 50 17398950475317707678
14705955 166 15118447910684339778
17909252 39 18342446067721142131
17921350 177 16951959781043104516
19315092 285 17988914600457237209
20764821 26 17978802533724804131
20775530 9 18048330954892664770
24941158 1 17982131700219753045
25222932 49 17127878395146084519
26353 1 18116986690003135491
35225 105 17042909342899489638
4066623 53 17462256094437848775
46194498 28 17170417335782761805
463206 1 18199201752635990643
5081480 168 17895474714116620093
59025328 239 18335691711582573333
66674814 147 18260841422703784898
86090 222 17767125680674733219

> <PUBCHEM_SHAPE_MULTIPOLES>
631.86
9.95
5.9
3.17
16.68
5.48
-0.14
6.29
-3.79
-7.84
-0.13
0
-2.33
-0.33

> <PUBCHEM_SHAPE_SELFOVERLAP>
1321.085

> <PUBCHEM_SHAPE_VOLUME>
354.9

> <PUBCHEM_COORDINATE_TYPE>
2
5
10

$$$$
