11865678
  -OEChem-12032416113D

 43 44  0     1  0  0  0  0  0999 V2000
   -6.2607   -0.0973    0.5510 S   0  0  0  0  0  0  0  0  0  0  0  0
   -0.8751   -1.2901   -1.9209 O   0  0  0  0  0  0  0  0  0  0  0  0
    0.7539   -3.0741    0.8262 O   0  0  0  0  0  0  0  0  0  0  0  0
    2.1520    1.8194    1.4523 O   0  0  0  0  0  0  0  0  0  0  0  0
   -3.7262   -1.4779    1.1787 O   0  0  0  0  0  0  0  0  0  0  0  0
    5.6568   -0.3707   -1.1698 O   0  0  0  0  0  0  0  0  0  0  0  0
   -2.3152   -0.0354    0.0807 N   0  0  0  0  0  0  0  0  0  0  0  0
    3.2617    1.0937   -0.4651 N   0  0  0  0  0  0  0  0  0  0  0  0
    7.1834   -0.2440    0.5441 N   0  0  0  0  0  0  0  0  0  0  0  0
   -0.7641   -1.8303   -0.6023 C   0  0  2  0  0  0  0  0  0  0  0  0
   -1.1081   -0.7423    0.4328 C   0  0  1  0  0  0  0  0  0  0  0  0
    0.6608   -2.3626   -0.4062 C   0  0  1  0  0  0  0  0  0  0  0  0
    1.7097   -1.2380   -0.4467 C   0  0  0  0  0  0  0  0  0  0  0  0
    1.2560    0.0248    0.2289 C   0  0  0  0  0  0  0  0  0  0  0  0
   -0.0012    0.2566    0.6359 C   0  0  0  0  0  0  0  0  0  0  0  0
    2.2530    1.0690    0.4823 C   0  0  0  0  0  0  0  0  0  0  0  0
   -3.5762   -0.4663    0.4910 C   0  0  0  0  0  0  0  0  0  0  0  0
    4.3563    2.0368   -0.4285 C   0  0  0  0  0  0  0  0  0  0  0  0
   -4.7067    0.3783    0.0801 C   0  0  0  0  0  0  0  0  0  0  0  0
    5.5448    1.5094    0.3634 C   0  0  0  0  0  0  0  0  0  0  0  0
   -4.6600    1.5172   -0.6455 C   0  0  0  0  0  0  0  0  0  0  0  0
    6.1090    0.2130   -0.1892 C   0  0  0  0  0  0  0  0  0  0  0  0
   -5.9696    2.0453   -0.8361 C   0  0  0  0  0  0  0  0  0  0  0  0
   -6.9343    1.2655   -0.2372 C   0  0  0  0  0  0  0  0  0  0  0  0
   -1.4950   -2.6437   -0.5186 H   0  0  0  0  0  0  0  0  0  0  0  0
   -1.2698   -1.2276    1.4043 H   0  0  0  0  0  0  0  0  0  0  0  0
    0.9059   -3.0767   -1.2020 H   0  0  0  0  0  0  0  0  0  0  0  0
    2.6384   -1.5956    0.0144 H   0  0  0  0  0  0  0  0  0  0  0  0
    1.9089   -1.0206   -1.5032 H   0  0  0  0  0  0  0  0  0  0  0  0
   -0.2602    1.1822    1.1453 H   0  0  0  0  0  0  0  0  0  0  0  0
   -2.2200    0.7799   -0.5153 H   0  0  0  0  0  0  0  0  0  0  0  0
   -0.6797   -2.0070   -2.5480 H   0  0  0  0  0  0  0  0  0  0  0  0
    0.0914   -3.7855    0.8044 H   0  0  0  0  0  0  0  0  0  0  0  0
    3.2553    0.4559   -1.2525 H   0  0  0  0  0  0  0  0  0  0  0  0
    4.0047    2.9766    0.0106 H   0  0  0  0  0  0  0  0  0  0  0  0
    4.6440    2.2327   -1.4671 H   0  0  0  0  0  0  0  0  0  0  0  0
    5.2507    1.3316    1.4050 H   0  0  0  0  0  0  0  0  0  0  0  0
    6.3438    2.2597    0.3632 H   0  0  0  0  0  0  0  0  0  0  0  0
   -3.7726    1.9919   -1.0416 H   0  0  0  0  0  0  0  0  0  0  0  0
   -6.1929    2.9514   -1.3844 H   0  0  0  0  0  0  0  0  0  0  0  0
   -8.0024    1.4310   -0.2248 H   0  0  0  0  0  0  0  0  0  0  0  0
    7.5387    0.2537    1.3542 H   0  0  0  0  0  0  0  0  0  0  0  0
    7.6595   -1.1036    0.2917 H   0  0  0  0  0  0  0  0  0  0  0  0
  1 19  1  0  0  0  0
  1 24  1  0  0  0  0
  2 10  1  0  0  0  0
  2 32  1  0  0  0  0
  3 12  1  0  0  0  0
  3 33  1  0  0  0  0
  4 16  2  0  0  0  0
  5 17  2  0  0  0  0
  6 22  2  0  0  0  0
  7 11  1  0  0  0  0
  7 17  1  0  0  0  0
  7 31  1  0  0  0  0
  8 16  1  0  0  0  0
  8 18  1  0  0  0  0
  8 34  1  0  0  0  0
  9 22  1  0  0  0  0
  9 42  1  0  0  0  0
  9 43  1  0  0  0  0
 10 11  1  0  0  0  0
 10 12  1  0  0  0  0
 10 25  1  0  0  0  0
 11 15  1  0  0  0  0
 11 26  1  0  0  0  0
 12 13  1  0  0  0  0
 12 27  1  0  0  0  0
 13 14  1  0  0  0  0
 13 28  1  0  0  0  0
 13 29  1  0  0  0  0
 14 15  2  0  0  0  0
 14 16  1  0  0  0  0
 15 30  1  0  0  0  0
 17 19  1  0  0  0  0
 18 20  1  0  0  0  0
 18 35  1  0  0  0  0
 18 36  1  0  0  0  0
 19 21  2  0  0  0  0
 20 22  1  0  0  0  0
 20 37  1  0  0  0  0
 20 38  1  0  0  0  0
 21 23  1  0  0  0  0
 21 39  1  0  0  0  0
 23 24  2  0  0  0  0
 23 40  1  0  0  0  0
 24 41  1  0  0  0  0
M  END
> <PUBCHEM_COMPOUND_CID>
11865678

> <PUBCHEM_CONFORMER_RMSD>
1

> <PUBCHEM_CONFORMER_DIVERSEORDER>
2
89
60
50
97
100
22
87
43
75
108
107
96
21
99
6
92
91
84
93
33
62
46
38
25
78
80
88
68
29
15
41
30
82
66
19
83
54
98
90
45
18
17
103
36
47
59
81
86
56
95
26
63
14
69
39
48
105
74
5
111
35
12
58
16
55
67
44
79
65
11
102
34
51
9
101
106
76
3
42
57
40
70
37
71
53
104
77
52
27
23
113
20
4
28
112
109
1
24
85
32
94
110
31
49
64
73
72
10
61
13
7
8

> <PUBCHEM_MMFF94_PARTIAL_CHARGES>
34
1 -0.08
10 0.28
11 0.44
12 0.28
13 0.14
14 -0.12
15 -0.29
16 0.62
17 0.71
18 0.3
19 -0.05
2 -0.68
20 0.06
21 -0.15
22 0.57
23 -0.15
24 -0.11
3 -0.68
30 0.15
31 0.37
32 0.4
33 0.4
34 0.37
39 0.15
4 -0.57
40 0.15
41 0.15
42 0.37
43 0.37
5 -0.57
6 -0.57
7 -0.73
8 -0.73
9 -0.8

> <PUBCHEM_EFFECTIVE_ROTOR_COUNT>
8.8

> <PUBCHEM_PHARMACOPHORE_FEATURES>
12
1 2 acceptor
1 2 donor
1 3 acceptor
1 3 donor
1 4 acceptor
1 5 acceptor
1 6 acceptor
1 7 donor
1 8 donor
1 9 donor
5 1 19 21 23 24 rings
6 10 11 12 13 14 15 rings

> <PUBCHEM_HEAVY_ATOM_COUNT>
24

> <PUBCHEM_ATOM_DEF_STEREO_COUNT>
3

> <PUBCHEM_ATOM_UDEF_STEREO_COUNT>
0

> <PUBCHEM_BOND_DEF_STEREO_COUNT>
0

> <PUBCHEM_BOND_UDEF_STEREO_COUNT>
0

> <PUBCHEM_ISOTOPIC_ATOM_COUNT>
0

> <PUBCHEM_COMPONENT_COUNT>
1

> <PUBCHEM_CACTVS_TAUTO_COUNT>
8

> <PUBCHEM_CONFORMER_ID>
00B50E4E00000002

> <PUBCHEM_MMFF94_ENERGY>
35.951

> <PUBCHEM_FEATURE_SELFOVERLAP>
60.905

> <PUBCHEM_SHAPE_FINGERPRINT>
10763959 59 18335985345575463820
11578080 2 16589690276784675391
12516196 113 9223232944349619813
12596602 18 15719683146964378125
12623949 98 12541239032556615184
12633257 1 16153429488762626397
12838862 33 18131342013385265664
13402501 40 18408885131508579085
13533116 47 16271656594548974606
13685833 64 9223230750017074453
14251751 18 10592041371475503057
14251752 14 18410009935913671272
14251757 52 17677061234753984692
15142383 8 18261107474938374852
15183329 4 17703799119346414492
15510800 12 11311186851933931853
15927050 60 18335419096998015114
15961568 22 18113898230892999413
17980427 23 17386010636914676471
18335252 114 18341886385948234613
18608769 82 18338241570112357867
19611394 137 17678192675337197409
19784866 170 18259984877407422909
20281389 69 18261111902126776889
20567600 254 18334289864648886245
21033648 29 18339634663301438672
21150785 3 13901903419228909640
21279426 13 18343311370534934734
21403212 168 18409159992287959626
21709351 56 18341889740554569373
21859007 373 18337939130978821216
22393880 68 17917418874473592463
23559900 14 17896048642017564719
2838139 119 18411695500298059765
3009799 131 17275102830042971344
335352 9 18341897403161204460
3411729 13 18260545589308824202
3545911 37 18410013243576293073
38695281 34 18131353003263052254
4325135 7 18412260662955723367
5104073 3 18041286448866250169
552612 73 17678450874904832054
56616090 46 18333736831559115290
59755656 215 18411702050033118892
59755656 520 18260260884843825647

> <PUBCHEM_SHAPE_MULTIPOLES>
453.47
17.53
2.41
1.08
0.68
0.83
0.13
-9.92
0.68
0.18
0.09
-0.06
0.12
1.11

> <PUBCHEM_SHAPE_SELFOVERLAP>
934.994

> <PUBCHEM_SHAPE_VOLUME>
259.7

> <PUBCHEM_COORDINATE_TYPE>
2
5
10

$$$$
