75537025
  -OEChem-12032416323D

 40 42  0     1  0  0  0  0  0999 V2000
   -4.1385    1.3891    0.5169 O   0  0  0  0  0  0  0  0  0  0  0  0
    2.6186    1.6814   -1.1625 O   0  0  0  0  0  0  0  0  0  0  0  0
    4.3875    0.0550    0.9591 O   0  0  0  0  0  0  0  0  0  0  0  0
    0.5023    0.7739   -0.6953 N   0  0  0  0  0  0  0  0  0  0  0  0
   -1.9741    0.5342    0.5470 N   0  0  0  0  0  0  0  0  0  0  0  0
    2.2543   -0.6257   -0.8381 N   0  0  0  0  0  0  0  0  0  0  0  0
   -0.0770   -0.5524   -0.5707 C   0  0  2  0  0  0  0  0  0  0  0  0
   -3.9535   -0.9395    0.6082 C   0  0  0  0  0  0  0  0  0  0  0  0
   -4.1320   -1.6873   -0.6701 C   0  0  0  0  0  0  0  0  0  0  0  0
   -5.3252   -1.1479    0.0602 C   0  0  0  0  0  0  0  0  0  0  0  0
   -1.0402   -0.6046    0.6123 C   0  0  0  0  0  0  0  0  0  0  0  0
    1.1376   -1.4687   -0.4482 C   0  0  0  0  0  0  0  0  0  0  0  0
   -0.3597    1.9423   -0.6808 C   0  0  0  0  0  0  0  0  0  0  0  0
   -1.3330    1.8560    0.4924 C   0  0  0  0  0  0  0  0  0  0  0  0
   -3.3673    0.4340    0.5539 C   0  0  0  0  0  0  0  0  0  0  0  0
    1.8834    0.7304   -0.9315 C   0  0  0  0  0  0  0  0  0  0  0  0
    3.5984   -1.1447   -0.9635 C   0  0  0  0  0  0  0  0  0  0  0  0
    4.2866   -1.2421    0.3857 C   0  0  0  0  0  0  0  0  0  0  0  0
    5.0319    0.0165    2.2251 C   0  0  0  0  0  0  0  0  0  0  0  0
   -0.6137   -0.7503   -1.5074 H   0  0  0  0  0  0  0  0  0  0  0  0
   -3.7126   -1.5090    1.5005 H   0  0  0  0  0  0  0  0  0  0  0  0
   -3.9716   -2.7583   -0.6550 H   0  0  0  0  0  0  0  0  0  0  0  0
   -3.8499   -1.2068   -1.5991 H   0  0  0  0  0  0  0  0  0  0  0  0
   -5.8563   -0.3231   -0.3985 H   0  0  0  0  0  0  0  0  0  0  0  0
   -5.9685   -1.8588    0.5653 H   0  0  0  0  0  0  0  0  0  0  0  0
   -1.5614   -1.5638    0.6300 H   0  0  0  0  0  0  0  0  0  0  0  0
   -0.5008   -0.5069    1.5626 H   0  0  0  0  0  0  0  0  0  0  0  0
    1.3034   -1.8136    0.5774 H   0  0  0  0  0  0  0  0  0  0  0  0
    1.0681   -2.3317   -1.1172 H   0  0  0  0  0  0  0  0  0  0  0  0
   -0.9065    1.9463   -1.6305 H   0  0  0  0  0  0  0  0  0  0  0  0
    0.2468    2.8517   -0.6312 H   0  0  0  0  0  0  0  0  0  0  0  0
   -0.7969    1.9863    1.4401 H   0  0  0  0  0  0  0  0  0  0  0  0
   -2.0795    2.6530    0.4211 H   0  0  0  0  0  0  0  0  0  0  0  0
    4.1591   -0.4554   -1.6047 H   0  0  0  0  0  0  0  0  0  0  0  0
    3.5531   -2.1209   -1.4563 H   0  0  0  0  0  0  0  0  0  0  0  0
    3.7226   -1.8976    1.0592 H   0  0  0  0  0  0  0  0  0  0  0  0
    5.2910   -1.6597    0.2510 H   0  0  0  0  0  0  0  0  0  0  0  0
    5.0831    1.0363    2.6160 H   0  0  0  0  0  0  0  0  0  0  0  0
    6.0504   -0.3710    2.1259 H   0  0  0  0  0  0  0  0  0  0  0  0
    4.4608   -0.5981    2.9276 H   0  0  0  0  0  0  0  0  0  0  0  0
  1 15  2  0  0  0  0
  2 16  2  0  0  0  0
  3 18  1  0  0  0  0
  3 19  1  0  0  0  0
  4  7  1  0  0  0  0
  4 13  1  0  0  0  0
  4 16  1  0  0  0  0
  5 11  1  0  0  0  0
  5 14  1  0  0  0  0
  5 15  1  0  0  0  0
  6 12  1  0  0  0  0
  6 16  1  0  0  0  0
  6 17  1  0  0  0  0
  7 11  1  0  0  0  0
  7 12  1  0  0  0  0
  7 20  1  0  0  0  0
  8  9  1  0  0  0  0
  8 10  1  0  0  0  0
  8 15  1  0  0  0  0
  8 21  1  0  0  0  0
  9 10  1  0  0  0  0
  9 22  1  0  0  0  0
  9 23  1  0  0  0  0
 10 24  1  0  0  0  0
 10 25  1  0  0  0  0
 11 26  1  0  0  0  0
 11 27  1  0  0  0  0
 12 28  1  0  0  0  0
 12 29  1  0  0  0  0
 13 14  1  0  0  0  0
 13 30  1  0  0  0  0
 13 31  1  0  0  0  0
 14 32  1  0  0  0  0
 14 33  1  0  0  0  0
 17 18  1  0  0  0  0
 17 34  1  0  0  0  0
 17 35  1  0  0  0  0
 18 36  1  0  0  0  0
 18 37  1  0  0  0  0
 19 38  1  0  0  0  0
 19 39  1  0  0  0  0
 19 40  1  0  0  0  0
M  END
> <PUBCHEM_COMPOUND_CID>
75537025

> <PUBCHEM_CONFORMER_RMSD>
0.8

> <PUBCHEM_CONFORMER_DIVERSEORDER>
1
28
27
47
38
45
46
36
32
55
10
51
21
3
53
43
12
19
29
22
25
33
2
16
24
18
48
6
39
52
40
5
34
42
7
50
41
4
9
20
49
35
37
44
23
26
30
17
11
13
54
15
14
8
31

> <PUBCHEM_MMFF94_PARTIAL_CHARGES>
24
1 -0.57
10 -0.2
11 0.3
12 0.3
13 0.3
14 0.3
15 0.63
16 0.69
17 0.3
18 0.28
19 0.28
2 -0.57
21 0.1
22 0.1
23 0.1
24 0.1
25 0.1
3 -0.56
4 -0.66
5 -0.66
6 -0.66
7 0.3
8 -0.1
9 -0.2

> <PUBCHEM_EFFECTIVE_ROTOR_COUNT>
6.8

> <PUBCHEM_PHARMACOPHORE_FEATURES>
5
1 1 acceptor
1 2 acceptor
1 3 acceptor
5 4 6 7 12 16 rings
6 4 5 7 11 13 14 rings

> <PUBCHEM_HEAVY_ATOM_COUNT>
19

> <PUBCHEM_ATOM_DEF_STEREO_COUNT>
1

> <PUBCHEM_ATOM_UDEF_STEREO_COUNT>
0

> <PUBCHEM_BOND_DEF_STEREO_COUNT>
0

> <PUBCHEM_BOND_UDEF_STEREO_COUNT>
0

> <PUBCHEM_ISOTOPIC_ATOM_COUNT>
0

> <PUBCHEM_COMPONENT_COUNT>
1

> <PUBCHEM_CACTVS_TAUTO_COUNT>
1

> <PUBCHEM_CONFORMER_ID>
04809A8100000001

> <PUBCHEM_MMFF94_ENERGY>
40.3241

> <PUBCHEM_FEATURE_SELFOVERLAP>
25.47

> <PUBCHEM_SHAPE_FINGERPRINT>
10062212 137 18409174307471778075
10670039 82 9367080968290949290
11045977 3 17704069581799936674
11132069 177 18341900649491783205
11796584 16 16298389049997184290
12839892 36 18340760473024614514
13083527 12 18260824925671324748
13237642 15 17846494842005253986
13583140 156 17131265749351673900
13675066 3 18060422378383001374
13899415 180 17822282518135747725
14178342 30 18193841435987549136
14251752 14 17749383755522803695
14251764 75 15121512619253635650
14787075 74 17774713272704345706
15183329 4 11314298422141365426
15196674 1 18410304613878052909
15239154 128 10303818657186751243
15880784 105 17275107223510055119
17349148 13 18260554423987590195
17834072 14 18407762546899120921
17834072 8 11891327642961998923
17862501 102 18335140873278716258
18186145 218 16805895073357959509
18222031 100 18260269625244321262
18785283 64 17630591530740797728
192875 21 18187369834804949640
19784866 240 15792004529440452578
200 152 18409171013131791311
20369508 70 17313103081585772980
20645477 70 14129349451344775186
21267235 1 18339099137136117151
21501925 9 18408888438353172518
22079108 93 16773787134698396682
22646028 1 18114187423192106647
23253445 4 17418372519225052419
23402539 116 18335702711051957247
23532345 42 18413390942568684104
23557571 272 18060148612804021423
23559900 14 18199479766011530950
3004659 81 18260276269257970047
3009799 131 18337938044461955951
3286 77 18131071540912351465
32948 21 11674874477130833642
4325135 7 16486964137450671543
5104073 3 18335153019995109577
59682541 52 14924764810310324275
67856867 119 18337955717556618101
76465 3 17821725022616523442

> <PUBCHEM_SHAPE_MULTIPOLES>
358.46
10.62
1.91
1.31
0.52
0.49
-0.42
-3.88
-3.88
0.74
0.36
-1.77
0.11
-0.33

> <PUBCHEM_SHAPE_SELFOVERLAP>
735.87

> <PUBCHEM_SHAPE_VOLUME>
207.7

> <PUBCHEM_COORDINATE_TYPE>
2
5
10

$$$$
