86769020
  -OEChem-12032416333D

 45 47  0     1  0  0  0  0  0999 V2000
   -5.7181   -0.7282    0.0738 O   0  0  0  0  0  0  0  0  0  0  0  0
    3.1087    1.9582    0.3894 O   0  0  0  0  0  0  0  0  0  0  0  0
    4.4299   -0.8315    1.2642 O   0  0  0  0  0  0  0  0  0  0  0  0
   -1.7068    0.4754   -0.2224 N   0  0  1  0  0  0  0  0  0  0  0  0
    1.0117    1.1875   -0.3370 N   0  0  0  0  0  0  0  0  0  0  0  0
    2.8405    0.0431   -0.9613 N   0  0  0  0  0  0  0  0  0  0  0  0
    0.5135    0.1711   -1.2399 C   0  0  2  0  0  0  0  0  0  0  0  0
   -0.7040   -0.5273   -0.6350 C   0  0  0  0  0  0  0  0  0  0  0  0
   -2.9001   -0.1847    0.3018 C   0  0  0  0  0  0  0  0  0  0  0  0
   -1.1454    1.3985    0.7844 C   0  0  0  0  0  0  0  0  0  0  0  0
    1.7229   -0.7326   -1.4714 C   0  0  0  0  0  0  0  0  0  0  0  0
    0.0840    2.1345    0.2456 C   0  0  0  0  0  0  0  0  0  0  0  0
   -3.9678    0.8524    0.6614 C   0  0  0  0  0  0  0  0  0  0  0  0
   -3.4637   -1.1885   -0.7088 C   0  0  0  0  0  0  0  0  0  0  0  0
    2.4086    1.1665   -0.2280 C   0  0  0  0  0  0  0  0  0  0  0  0
   -5.2561    0.1597    1.0919 C   0  0  0  0  0  0  0  0  0  0  0  0
   -4.7798   -1.7682   -0.2023 C   0  0  0  0  0  0  0  0  0  0  0  0
    4.2084   -0.4092   -1.0876 C   0  0  0  0  0  0  0  0  0  0  0  0
    4.5594   -1.4287   -0.0195 C   0  0  0  0  0  0  0  0  0  0  0  0
    4.7542   -1.7480    2.3007 C   0  0  0  0  0  0  0  0  0  0  0  0
    0.2403    0.6796   -2.1741 H   0  0  0  0  0  0  0  0  0  0  0  0
   -0.4087   -1.1480    0.2216 H   0  0  0  0  0  0  0  0  0  0  0  0
   -1.0733   -1.1885   -1.4235 H   0  0  0  0  0  0  0  0  0  0  0  0
   -2.6443   -0.7403    1.2164 H   0  0  0  0  0  0  0  0  0  0  0  0
   -0.8715    0.8499    1.6954 H   0  0  0  0  0  0  0  0  0  0  0  0
   -1.8486    2.1865    1.0652 H   0  0  0  0  0  0  0  0  0  0  0  0
    1.6634   -1.6688   -0.9075 H   0  0  0  0  0  0  0  0  0  0  0  0
    1.8725   -0.9533   -2.5325 H   0  0  0  0  0  0  0  0  0  0  0  0
   -0.2022    2.8372   -0.5455 H   0  0  0  0  0  0  0  0  0  0  0  0
    0.5867    2.7004    1.0364 H   0  0  0  0  0  0  0  0  0  0  0  0
   -4.1773    1.4866   -0.2098 H   0  0  0  0  0  0  0  0  0  0  0  0
   -3.6702    1.4996    1.4910 H   0  0  0  0  0  0  0  0  0  0  0  0
   -2.7966   -2.0391   -0.8771 H   0  0  0  0  0  0  0  0  0  0  0  0
   -3.6390   -0.6900   -1.6709 H   0  0  0  0  0  0  0  0  0  0  0  0
   -5.1180   -0.3974    2.0262 H   0  0  0  0  0  0  0  0  0  0  0  0
   -6.0398    0.9044    1.2642 H   0  0  0  0  0  0  0  0  0  0  0  0
   -5.2191   -2.4182   -0.9658 H   0  0  0  0  0  0  0  0  0  0  0  0
   -4.6299   -2.3726    0.7002 H   0  0  0  0  0  0  0  0  0  0  0  0
    4.8567    0.4672   -0.9758 H   0  0  0  0  0  0  0  0  0  0  0  0
    4.3500   -0.8223   -2.0912 H   0  0  0  0  0  0  0  0  0  0  0  0
    5.5935   -1.7625   -0.1629 H   0  0  0  0  0  0  0  0  0  0  0  0
    3.8981   -2.3003   -0.0867 H   0  0  0  0  0  0  0  0  0  0  0  0
    4.6394   -1.2367    3.2602 H   0  0  0  0  0  0  0  0  0  0  0  0
    5.7913   -2.0837    2.2058 H   0  0  0  0  0  0  0  0  0  0  0  0
    4.0759   -2.6065    2.2796 H   0  0  0  0  0  0  0  0  0  0  0  0
  1 16  1  0  0  0  0
  1 17  1  0  0  0  0
  2 15  2  0  0  0  0
  3 19  1  0  0  0  0
  3 20  1  0  0  0  0
  4  8  1  0  0  0  0
  4  9  1  0  0  0  0
  4 10  1  0  0  0  0
  5  7  1  0  0  0  0
  5 12  1  0  0  0  0
  5 15  1  0  0  0  0
  6 11  1  0  0  0  0
  6 15  1  0  0  0  0
  6 18  1  0  0  0  0
  7  8  1  0  0  0  0
  7 11  1  0  0  0  0
  7 21  1  0  0  0  0
  8 22  1  0  0  0  0
  8 23  1  0  0  0  0
  9 13  1  0  0  0  0
  9 14  1  0  0  0  0
  9 24  1  0  0  0  0
 10 12  1  0  0  0  0
 10 25  1  0  0  0  0
 10 26  1  0  0  0  0
 11 27  1  0  0  0  0
 11 28  1  0  0  0  0
 12 29  1  0  0  0  0
 12 30  1  0  0  0  0
 13 16  1  0  0  0  0
 13 31  1  0  0  0  0
 13 32  1  0  0  0  0
 14 17  1  0  0  0  0
 14 33  1  0  0  0  0
 14 34  1  0  0  0  0
 16 35  1  0  0  0  0
 16 36  1  0  0  0  0
 17 37  1  0  0  0  0
 17 38  1  0  0  0  0
 18 19  1  0  0  0  0
 18 39  1  0  0  0  0
 18 40  1  0  0  0  0
 19 41  1  0  0  0  0
 19 42  1  0  0  0  0
 20 43  1  0  0  0  0
 20 44  1  0  0  0  0
 20 45  1  0  0  0  0
M  END
> <PUBCHEM_COMPOUND_CID>
86769020

> <PUBCHEM_CONFORMER_RMSD>
0.8

> <PUBCHEM_CONFORMER_DIVERSEORDER>
1
9
26
8
27
36
34
22
25
14
19
17
7
21
31
24
28
18
15
16
35
13
3
33
29
5
32
10
30
12
2
4
11
20
23
6

> <PUBCHEM_MMFF94_PARTIAL_CHARGES>
18
1 -0.56
10 0.27
11 0.3
12 0.3
15 0.69
16 0.28
17 0.28
18 0.3
19 0.28
2 -0.57
20 0.28
3 -0.56
4 -0.81
5 -0.66
6 -0.66
7 0.3
8 0.27
9 0.27

> <PUBCHEM_EFFECTIVE_ROTOR_COUNT>
6.4

> <PUBCHEM_PHARMACOPHORE_FEATURES>
7
1 1 acceptor
1 2 acceptor
1 3 acceptor
1 4 cation
5 5 6 7 11 15 rings
6 1 9 13 14 16 17 rings
6 4 5 7 8 10 12 rings

> <PUBCHEM_HEAVY_ATOM_COUNT>
20

> <PUBCHEM_ATOM_DEF_STEREO_COUNT>
1

> <PUBCHEM_ATOM_UDEF_STEREO_COUNT>
0

> <PUBCHEM_BOND_DEF_STEREO_COUNT>
0

> <PUBCHEM_BOND_UDEF_STEREO_COUNT>
0

> <PUBCHEM_ISOTOPIC_ATOM_COUNT>
0

> <PUBCHEM_COMPONENT_COUNT>
1

> <PUBCHEM_CACTVS_TAUTO_COUNT>
1

> <PUBCHEM_CONFORMER_ID>
052BFD7C00000001

> <PUBCHEM_MMFF94_ENERGY>
41.621

> <PUBCHEM_FEATURE_SELFOVERLAP>
35.618

> <PUBCHEM_SHAPE_FINGERPRINT>
10062212 137 18130788992758091935
10670039 82 9006785323448334818
11045977 3 16056878039648637446
11132069 177 17418094308296931621
11796584 16 17967821539204463555
12596602 18 18272365374099379346
12633257 1 18413672421919840799
12670543 26 12179841684992922234
12839892 36 18201153269711299879
13167823 11 18412267263471371399
13533116 47 17967814938187408714
13675066 3 16988848250089119548
13955234 65 17531253911046394748
14178342 30 17914623752448695600
1420 369 18261109621915672874
14251752 14 17895187771831164733
14251764 30 17095817598258181971
14251764 38 13398364420810044395
14251764 75 13612517542335705226
14573314 32 14273454764716187495
14848178 5 17531796962263418162
15196674 1 18131079272380881469
15342168 16 12319445611072065280
15475509 35 18113333120000783498
15788980 27 18113620092936292557
15885798 251 18411704274552176900
17349148 13 18343308076004601893
17857418 61 18260543420381825611
17862501 102 18411139125744058179
1813 80 18113907043585031428
18785283 64 16772653585259498640
19784866 140 15574713577938907005
19784866 240 17386287584774265162
200 152 17603589607941662245
20028762 73 18131350838526013591
204376 136 13039185901081649109
20567600 234 15913034452577746091
20567600 247 17095525119048264763
21267235 1 18059313023043688943
21637258 2 17385997348233004290
22079108 93 14979949281010678759
23253445 4 16558744624430325555
23366157 5 18120655987743579309
23402539 116 18202567259308180061
23503953 91 17775283880457627663
23557571 272 17631751364904495005
23559900 14 17988936582210855340
23596394 208 14996278089814407218
26918003 58 18131639976082088237
270888 7 12822424928077597994
2838139 119 12607109721909518690
29717793 49 15863787305220995511
3004659 81 18411428318587109045
3060560 45 14057003832441661112
33382 64 17240493493655238611
3411729 13 18057601165408208312
345986 75 18116136797452814848
3472631 163 9438818600846364554
351380 3 18333454218468825138
4072396 5 18201438056323540831
4214541 1 18130518470132777453
4340502 62 17822012060351361868
46194498 28 14129359406435901886
465052 167 18411426107101152526
5104073 3 18201728405056119947
5374978 207 18131354124175175696
573450 72 18413110550403754107
7064713 232 16988567909326757407
76465 3 18187077330647576538
960060 61 15864076442725537874
9841814 1 18411420631218303472

> <PUBCHEM_SHAPE_MULTIPOLES>
379.04
12.1
1.9
1.44
4.73
0.39
-0.52
-6.24
-4.15
-0.54
-0.4
-1.83
-0.59
-1.42

> <PUBCHEM_SHAPE_SELFOVERLAP>
775.604

> <PUBCHEM_SHAPE_VOLUME>
220.1

> <PUBCHEM_COORDINATE_TYPE>
2
5
10

$$$$
