26743994
  -OEChem-12032416373D

 39 42  0     1  0  0  0  0  0999 V2000
   -4.4814    2.3655    1.5339 O   0  0  0  0  0  0  0  0  0  0  0  0
    0.1297    1.6357   -1.7363 O   0  0  0  0  0  0  0  0  0  0  0  0
   -2.5115   -0.2101    0.0317 N   0  0  1  0  0  0  0  0  0  0  0  0
    0.4219    0.3469    0.0721 N   0  0  0  0  0  0  0  0  0  0  0  0
    1.5127    1.4571   -1.6048 N   0  0  0  0  0  0  0  0  0  0  0  0
    5.2750    0.2084   -0.1575 N   0  0  0  0  0  0  0  0  0  0  0  0
   -2.7744   -2.6263   -0.1480 C   0  0  0  0  0  0  0  0  0  0  0  0
   -1.4957   -3.2723    0.2983 C   0  0  0  0  0  0  0  0  0  0  0  0
   -2.2863   -3.8724   -0.8271 C   0  0  0  0  0  0  0  0  0  0  0  0
   -2.7188   -1.3259   -0.8822 C   0  0  0  0  0  0  0  0  0  0  0  0
   -1.9492    0.9859   -0.6278 C   0  0  1  0  0  0  0  0  0  0  0  0
   -3.7551    0.2157    0.6709 C   0  0  0  0  0  0  0  0  0  0  0  0
   -2.4729    2.1746    0.1996 C   0  0  0  0  0  0  0  0  0  0  0  0
   -3.3560    1.5497    1.2725 C   0  0  1  0  0  0  0  0  0  0  0  0
   -0.4377    0.9501   -0.7095 C   0  0  0  0  0  0  0  0  0  0  0  0
    1.6050    0.6867   -0.5167 C   0  0  0  0  0  0  0  0  0  0  0  0
    2.8633    0.2408    0.0083 C   0  0  0  0  0  0  0  0  0  0  0  0
    2.9232   -0.5592    1.1440 C   0  0  0  0  0  0  0  0  0  0  0  0
    4.0570    0.5937   -0.6000 C   0  0  0  0  0  0  0  0  0  0  0  0
    4.1577   -0.9759    1.6297 C   0  0  0  0  0  0  0  0  0  0  0  0
    5.2936   -0.5685    0.9487 C   0  0  0  0  0  0  0  0  0  0  0  0
   -3.6458   -2.7218    0.4883 H   0  0  0  0  0  0  0  0  0  0  0  0
   -1.4988   -3.7899    1.2498 H   0  0  0  0  0  0  0  0  0  0  0  0
   -0.5551   -2.7941    0.0535 H   0  0  0  0  0  0  0  0  0  0  0  0
   -1.8763   -3.7979   -1.8267 H   0  0  0  0  0  0  0  0  0  0  0  0
   -2.8197   -4.7947   -0.6317 H   0  0  0  0  0  0  0  0  0  0  0  0
   -3.6261   -1.1971   -1.4861 H   0  0  0  0  0  0  0  0  0  0  0  0
   -1.8881   -1.3700   -1.5995 H   0  0  0  0  0  0  0  0  0  0  0  0
   -2.3525    1.0833   -1.6458 H   0  0  0  0  0  0  0  0  0  0  0  0
   -4.0884   -0.4801    1.4479 H   0  0  0  0  0  0  0  0  0  0  0  0
   -4.5794    0.3458   -0.0428 H   0  0  0  0  0  0  0  0  0  0  0  0
   -1.6749    2.7666    0.6623 H   0  0  0  0  0  0  0  0  0  0  0  0
   -3.0528    2.8539   -0.4376 H   0  0  0  0  0  0  0  0  0  0  0  0
   -2.7929    1.4045    2.2026 H   0  0  0  0  0  0  0  0  0  0  0  0
   -4.1523    3.2267    1.8433 H   0  0  0  0  0  0  0  0  0  0  0  0
    2.0254   -0.8732    1.6701 H   0  0  0  0  0  0  0  0  0  0  0  0
    4.0971    1.2152   -1.4898 H   0  0  0  0  0  0  0  0  0  0  0  0
    4.2289   -1.5999    2.5132 H   0  0  0  0  0  0  0  0  0  0  0  0
    6.2806   -0.8666    1.2869 H   0  0  0  0  0  0  0  0  0  0  0  0
  1 14  1  0  0  0  0
  1 35  1  0  0  0  0
  2  5  1  0  0  0  0
  2 15  1  0  0  0  0
  3 10  1  0  0  0  0
  3 11  1  0  0  0  0
  3 12  1  0  0  0  0
  4 15  2  0  0  0  0
  4 16  1  0  0  0  0
  5 16  2  0  0  0  0
  6 19  1  0  0  0  0
  6 21  2  0  0  0  0
  7  8  1  0  0  0  0
  7  9  1  0  0  0  0
  7 10  1  0  0  0  0
  7 22  1  0  0  0  0
  8  9  1  0  0  0  0
  8 23  1  0  0  0  0
  8 24  1  0  0  0  0
  9 25  1  0  0  0  0
  9 26  1  0  0  0  0
 10 27  1  0  0  0  0
 10 28  1  0  0  0  0
 11 13  1  0  0  0  0
 11 15  1  0  0  0  0
 11 29  1  0  0  0  0
 12 14  1  0  0  0  0
 12 30  1  0  0  0  0
 12 31  1  0  0  0  0
 13 14  1  0  0  0  0
 13 32  1  0  0  0  0
 13 33  1  0  0  0  0
 14 34  1  0  0  0  0
 16 17  1  0  0  0  0
 17 18  1  0  0  0  0
 17 19  2  0  0  0  0
 18 20  2  0  0  0  0
 18 36  1  0  0  0  0
 19 37  1  0  0  0  0
 20 21  1  0  0  0  0
 20 38  1  0  0  0  0
 21 39  1  0  0  0  0
M  END
> <PUBCHEM_COMPOUND_CID>
26743994

> <PUBCHEM_CONFORMER_RMSD>
0.8

> <PUBCHEM_CONFORMER_DIVERSEORDER>
1
47
31
9
39
30
35
23
28
10
17
40
38
26
8
46
18
21
22
7
4
29
34
12
41
24
15
11
45
44
6
16
14
36
13
42
33
37
43
2
32
27
5
25
20
3
19

> <PUBCHEM_MMFF94_PARTIAL_CHARGES>
30
1 -0.68
10 0.37
11 0.45
12 0.27
14 0.28
15 0.3
16 0.46
17 0.05
18 -0.15
19 0.16
2 -0.02
20 -0.15
21 0.16
22 0.1
23 0.1
24 0.1
25 0.1
26 0.1
3 -0.81
35 0.4
36 0.15
37 0.15
38 0.15
39 0.15
4 -0.57
5 -0.41
6 -0.62
7 -0.19
8 -0.2
9 -0.2

> <PUBCHEM_EFFECTIVE_ROTOR_COUNT>
5.6

> <PUBCHEM_PHARMACOPHORE_FEATURES>
8
1 1 acceptor
1 1 donor
1 3 cation
1 6 acceptor
3 4 5 16 cation
5 2 4 5 15 16 rings
5 3 11 12 13 14 rings
6 6 17 18 19 20 21 rings

> <PUBCHEM_HEAVY_ATOM_COUNT>
21

> <PUBCHEM_ATOM_DEF_STEREO_COUNT>
2

> <PUBCHEM_ATOM_UDEF_STEREO_COUNT>
0

> <PUBCHEM_BOND_DEF_STEREO_COUNT>
0

> <PUBCHEM_BOND_UDEF_STEREO_COUNT>
0

> <PUBCHEM_ISOTOPIC_ATOM_COUNT>
0

> <PUBCHEM_COMPONENT_COUNT>
1

> <PUBCHEM_CACTVS_TAUTO_COUNT>
1

> <PUBCHEM_CONFORMER_ID>
019814BA00000001

> <PUBCHEM_MMFF94_ENERGY>
44.4151

> <PUBCHEM_FEATURE_SELFOVERLAP>
40.596

> <PUBCHEM_SHAPE_FINGERPRINT>
10366900 7 17846487153997664278
10616163 171 18410009979048233350
11370993 144 18059852827523859786
11552529 35 18271515507219024130
12523318 42 18272076240895357754
12549972 3 16699807516714274151
12553582 1 17676481748880547736
12616971 3 17822010900609958660
12633257 1 18342454816189995000
12788726 201 18051996975915394239
13004483 165 17912921970658480247
13583140 156 16917062278773987982
13631057 29 18049723215865132110
14100547 121 18340195323921460458
14178342 30 18413394241151488783
14363568 33 17617945725007916147
15099037 8 18191023610849564709
15537594 2 17822015277002519298
15842332 3 18116450317022550981
16120349 306 18261938674910128210
1813 80 17313961718378149708
19141452 34 18408319960761036494
19433438 48 18260822696408808994
20261772 1 18187365407089417106
20281475 54 18333723637756717860
20291156 8 18117270578398246334
20554085 129 17915732077771649177
20602899 9 18193246690755031853
20681677 274 18126839628020746000
20775438 99 15964523795791293982
212916 134 18129946655103197985
21452121 199 17693931195834324303
21634736 98 17970625427289156046
21650355 55 18342457075675166729
23503953 91 18411134715066054424
23503958 8 18341045323924494434
23559900 14 18197483224377806640
23598288 3 18191887810321135399
23728640 28 18411705404666704627
25147074 1 18116727385220274077
312425 54 18270949164885024506
469060 322 13696159573313309891
5104073 3 18341601647434085296
5385378 56 17909560454606981913
5486654 36 18334860562327774906
57265010 4 18202560678880244681
58807428 26 18267879280874517459
5924683 9 18271236222411864391
602551 16 18342173380295127714
6992083 37 18260548926661475677
7064713 232 18340480084769192370
90127 26 16988837302924422288
9981440 41 16414920734179790431

> <PUBCHEM_SHAPE_MULTIPOLES>
400.51
9.91
3.34
1.4
10.7
3.46
-0.08
-0.14
-3.68
-5.38
0.21
0.18
-0.45
-2.31

> <PUBCHEM_SHAPE_SELFOVERLAP>
860.947

> <PUBCHEM_SHAPE_VOLUME>
223.2

> <PUBCHEM_COORDINATE_TYPE>
2
5
10

$$$$
