40779537
  -OEChem-12032416163D

 66 69  0     1  0  0  0  0  0999 V2000
   -2.6026    3.1244   -0.6335 S   0  0  0  0  0  0  0  0  0  0  0  0
   -2.9101    4.1424   -1.6191 O   0  0  0  0  0  0  0  0  0  0  0  0
   -1.2335    2.7060   -0.4015 O   0  0  0  0  0  0  0  0  0  0  0  0
    3.8658    2.5130   -0.7151 O   0  0  0  0  0  0  0  0  0  0  0  0
    6.3597    1.3267   -0.4036 O   0  0  0  0  0  0  0  0  0  0  0  0
   -4.0558   -1.7646    0.4155 N   0  0  2  0  0  0  0  0  0  0  0  0
    0.4364   -3.1607    1.1348 N   0  0  0  0  0  0  0  0  0  0  0  0
   -3.5541    1.7353   -0.9211 N   0  0  0  0  0  0  0  0  0  0  0  0
    1.6957   -2.7001    1.2251 N   0  0  0  0  0  0  0  0  0  0  0  0
   -2.3768   -2.5229   -1.4254 C   0  0  2  0  0  0  0  0  0  0  0  0
   -1.8006   -2.8116   -0.0116 C   0  0  2  0  0  0  0  0  0  0  0  0
   -3.8497   -0.6682   -0.5673 C   0  0  2  0  0  0  0  0  0  0  0  0
   -2.7074   -1.0202   -1.5444 C   0  0  0  0  0  0  0  0  0  0  0  0
   -3.7123   -3.2906   -1.5271 C   0  0  0  0  0  0  0  0  0  0  0  0
   -2.7585   -2.1538    1.0225 C   0  0  0  0  0  0  0  0  0  0  0  0
   -4.5940   -2.9360   -0.3169 C   0  0  0  0  0  0  0  0  0  0  0  0
   -3.6248    0.6859    0.1089 C   0  0  0  0  0  0  0  0  0  0  0  0
   -0.3416   -2.4690    0.2535 C   0  0  0  0  0  0  0  0  0  0  0  0
    0.4646   -1.4872   -0.2687 C   0  0  0  0  0  0  0  0  0  0  0  0
    1.7069   -1.6779    0.3655 C   0  0  0  0  0  0  0  0  0  0  0  0
    0.0390   -4.2910    1.9419 C   0  0  0  0  0  0  0  0  0  0  0  0
   -3.2669    3.6563    0.9279 C   0  0  0  0  0  0  0  0  0  0  0  0
    2.9030   -0.9015    0.1671 C   0  0  0  0  0  0  0  0  0  0  0  0
   -2.5734    4.9138    1.4249 C   0  0  0  0  0  0  0  0  0  0  0  0
    2.8101    0.4458   -0.1818 C   0  0  0  0  0  0  0  0  0  0  0  0
    4.1548   -1.4968    0.3232 C   0  0  0  0  0  0  0  0  0  0  0  0
   -3.1257    5.3591    2.7686 C   0  0  0  0  0  0  0  0  0  0  0  0
    3.9690    1.1980   -0.3745 C   0  0  0  0  0  0  0  0  0  0  0  0
    5.3136   -0.7448    0.1302 C   0  0  0  0  0  0  0  0  0  0  0  0
    5.2208    0.6026   -0.2186 C   0  0  0  0  0  0  0  0  0  0  0  0
    2.5497    3.0447   -0.8547 C   0  0  0  0  0  0  0  0  0  0  0  0
    7.5986    0.6427   -0.2248 C   0  0  0  0  0  0  0  0  0  0  0  0
   -1.6846   -2.8344   -2.2148 H   0  0  0  0  0  0  0  0  0  0  0  0
   -1.8796   -3.9017    0.1164 H   0  0  0  0  0  0  0  0  0  0  0  0
   -4.7763   -0.5661   -1.1522 H   0  0  0  0  0  0  0  0  0  0  0  0
   -1.8252   -0.4048   -1.3635 H   0  0  0  0  0  0  0  0  0  0  0  0
   -3.0327   -0.8031   -2.5699 H   0  0  0  0  0  0  0  0  0  0  0  0
   -3.5321   -4.3716   -1.5525 H   0  0  0  0  0  0  0  0  0  0  0  0
   -4.2247   -3.0252   -2.4598 H   0  0  0  0  0  0  0  0  0  0  0  0
   -2.9514   -2.8661    1.8356 H   0  0  0  0  0  0  0  0  0  0  0  0
   -2.2918   -1.2927    1.5144 H   0  0  0  0  0  0  0  0  0  0  0  0
   -5.6190   -2.7313   -0.6499 H   0  0  0  0  0  0  0  0  0  0  0  0
   -4.6719   -3.7950    0.3616 H   0  0  0  0  0  0  0  0  0  0  0  0
   -2.6990    0.6780    0.6919 H   0  0  0  0  0  0  0  0  0  0  0  0
   -4.4576    0.9119    0.7842 H   0  0  0  0  0  0  0  0  0  0  0  0
   -4.4440    1.8877   -1.4138 H   0  0  0  0  0  0  0  0  0  0  0  0
    0.2088   -0.7500   -1.0133 H   0  0  0  0  0  0  0  0  0  0  0  0
   -0.1738   -5.1320    1.2777 H   0  0  0  0  0  0  0  0  0  0  0  0
    0.8530   -4.5560    2.6223 H   0  0  0  0  0  0  0  0  0  0  0  0
   -0.8441   -4.0164    2.5227 H   0  0  0  0  0  0  0  0  0  0  0  0
   -3.1265    2.8497    1.6527 H   0  0  0  0  0  0  0  0  0  0  0  0
   -4.3375    3.8354    0.7860 H   0  0  0  0  0  0  0  0  0  0  0  0
   -1.4954    4.7382    1.5201 H   0  0  0  0  0  0  0  0  0  0  0  0
   -2.6969    5.7248    0.6978 H   0  0  0  0  0  0  0  0  0  0  0  0
    1.8187    0.8745   -0.2785 H   0  0  0  0  0  0  0  0  0  0  0  0
    4.2584   -2.5469    0.5863 H   0  0  0  0  0  0  0  0  0  0  0  0
   -4.1960    5.5781    2.6996 H   0  0  0  0  0  0  0  0  0  0  0  0
   -2.9813    4.5846    3.5286 H   0  0  0  0  0  0  0  0  0  0  0  0
   -2.6147    6.2660    3.1070 H   0  0  0  0  0  0  0  0  0  0  0  0
    6.2508   -1.2733    0.2665 H   0  0  0  0  0  0  0  0  0  0  0  0
    2.6566    4.0987   -1.1321 H   0  0  0  0  0  0  0  0  0  0  0  0
    2.0017    3.0217    0.0935 H   0  0  0  0  0  0  0  0  0  0  0  0
    2.0002    2.5582   -1.6680 H   0  0  0  0  0  0  0  0  0  0  0  0
    8.3971    1.3686   -0.4107 H   0  0  0  0  0  0  0  0  0  0  0  0
    7.7245   -0.1623   -0.9567 H   0  0  0  0  0  0  0  0  0  0  0  0
    7.7212    0.2925    0.8058 H   0  0  0  0  0  0  0  0  0  0  0  0
  1  2  2  0  0  0  0
  1  3  2  0  0  0  0
  1  8  1  0  0  0  0
  1 22  1  0  0  0  0
  4 28  1  0  0  0  0
  4 31  1  0  0  0  0
  5 30  1  0  0  0  0
  5 32  1  0  0  0  0
  6 12  1  0  0  0  0
  6 15  1  0  0  0  0
  6 16  1  0  0  0  0
  7  9  1  0  0  0  0
  7 18  1  0  0  0  0
  7 21  1  0  0  0  0
  8 17  1  0  0  0  0
  8 46  1  0  0  0  0
  9 20  2  0  0  0  0
 10 11  1  0  0  0  0
 10 13  1  0  0  0  0
 10 14  1  0  0  0  0
 10 33  1  0  0  0  0
 11 15  1  0  0  0  0
 11 18  1  0  0  0  0
 11 34  1  0  0  0  0
 12 13  1  0  0  0  0
 12 17  1  0  0  0  0
 12 35  1  0  0  0  0
 13 36  1  0  0  0  0
 13 37  1  0  0  0  0
 14 16  1  0  0  0  0
 14 38  1  0  0  0  0
 14 39  1  0  0  0  0
 15 40  1  0  0  0  0
 15 41  1  0  0  0  0
 16 42  1  0  0  0  0
 16 43  1  0  0  0  0
 17 44  1  0  0  0  0
 17 45  1  0  0  0  0
 18 19  2  0  0  0  0
 19 20  1  0  0  0  0
 19 47  1  0  0  0  0
 20 23  1  0  0  0  0
 21 48  1  0  0  0  0
 21 49  1  0  0  0  0
 21 50  1  0  0  0  0
 22 24  1  0  0  0  0
 22 51  1  0  0  0  0
 22 52  1  0  0  0  0
 23 25  2  0  0  0  0
 23 26  1  0  0  0  0
 24 27  1  0  0  0  0
 24 53  1  0  0  0  0
 24 54  1  0  0  0  0
 25 28  1  0  0  0  0
 25 55  1  0  0  0  0
 26 29  2  0  0  0  0
 26 56  1  0  0  0  0
 27 57  1  0  0  0  0
 27 58  1  0  0  0  0
 27 59  1  0  0  0  0
 28 30  2  0  0  0  0
 29 30  1  0  0  0  0
 29 60  1  0  0  0  0
 31 61  1  0  0  0  0
 31 62  1  0  0  0  0
 31 63  1  0  0  0  0
 32 64  1  0  0  0  0
 32 65  1  0  0  0  0
 32 66  1  0  0  0  0
M  END
> <PUBCHEM_COMPOUND_CID>
40779537

> <PUBCHEM_CONFORMER_RMSD>
1

> <PUBCHEM_CONFORMER_DIVERSEORDER>
1
62
65
46
75
56
19
100
57
96
8
84
88
94
23
53
99
31
83
85
67
93
95
43
63
79
49
40
33
69
36
9
22
54
92
7
105
103
32
102
29
37
61
90
13
89
48
41
81
51
5
25
73
24
38
91
80
66
68
87
59
97
4
44
16
14
2
45
70
10
101
55
72
78
17
15
86
47
12
74
28
82
50
20
18
104
30
52
11
106
26
39
3
77
58
98
76
34
71
6
35
21
27
64
60
42

> <PUBCHEM_MMFF94_PARTIAL_CHARGES>
32
1 1.33
11 0.18
12 0.27
15 0.27
16 0.27
17 0.36
18 -0.33
19 -0.15
2 -0.65
20 0.23
21 0.26
22 0.11
23 0.05
25 -0.15
26 -0.15
28 0.08
29 -0.15
3 -0.65
30 0.08
31 0.28
32 0.28
4 -0.36
46 0.42
47 0.15
5 -0.36
55 0.15
56 0.15
6 -0.81
60 0.15
7 0.31
8 -0.91
9 -0.71

> <PUBCHEM_EFFECTIVE_ROTOR_COUNT>
10.2

> <PUBCHEM_PHARMACOPHORE_FEATURES>
11
1 2 acceptor
1 27 hydrophobe
1 3 acceptor
1 4 acceptor
1 5 acceptor
1 6 cation
1 8 donor
1 9 acceptor
5 7 9 18 19 20 rings
6 23 25 26 28 29 30 rings
8 6 10 11 12 13 14 15 16 rings

> <PUBCHEM_HEAVY_ATOM_COUNT>
32

> <PUBCHEM_ATOM_DEF_STEREO_COUNT>
3

> <PUBCHEM_ATOM_UDEF_STEREO_COUNT>
0

> <PUBCHEM_BOND_DEF_STEREO_COUNT>
0

> <PUBCHEM_BOND_UDEF_STEREO_COUNT>
0

> <PUBCHEM_ISOTOPIC_ATOM_COUNT>
0

> <PUBCHEM_COMPONENT_COUNT>
1

> <PUBCHEM_CACTVS_TAUTO_COUNT>
1

> <PUBCHEM_CONFORMER_ID>
026E3F1100000001

> <PUBCHEM_MMFF94_ENERGY>
84.279

> <PUBCHEM_FEATURE_SELFOVERLAP>
55.844

> <PUBCHEM_SHAPE_FINGERPRINT>
10439779 11 18195229045610948456
10670039 82 18335976558483137806
10871710 139 18409726279499775631
10951579 204 18339660966783699868
1100329 8 17830162516356890370
11059048 146 18126007053037479785
11477941 20 17915445297687174094
11513181 2 18342175540574631318
12107183 9 17976531724749941578
12788726 201 18337100263371756498
12978246 48 18265612083149986497
13560911 43 17968647354167532240
13761468 95 17988376870457020739
14251764 75 17910119010223517817
14394314 77 18194973065803361897
14705955 166 18054476310496422656
15183329 4 17968366958061465254
15351339 4 18191009300055788921
16112460 7 18337677386833519888
19311894 1 18269840817881558252
19611394 137 17609225889694584027
21033648 29 17097747296546466486
21033650 10 18267607791697192550
23516275 100 17694766816124964944
23559900 14 18118681269924927986
392239 28 18261401099860659907
469060 322 18189071909492062931
50150288 127 18059288773780155237
57527585 21 17842816868990476925
6201320 215 18272642455767807144
9980921 221 18267327420901766620

> <PUBCHEM_SHAPE_MULTIPOLES>
618.99
12.74
7.38
1.58
22.34
7.73
0.58
4.37
-1.99
-10.69
3.43
-1.72
0.72
-3.33

> <PUBCHEM_SHAPE_SELFOVERLAP>
1295.186

> <PUBCHEM_SHAPE_VOLUME>
355.4

> <PUBCHEM_COORDINATE_TYPE>
2
5
10

$$$$
