75536634
  -OEChem-12032416313D

 42 43  0     1  0  0  0  0  0999 V2000
    6.8858   -1.5300   -0.4517 F   0  0  0  0  0  0  0  0  0  0  0  0
   -1.3716   -0.9746    0.4261 O   0  0  0  0  0  0  0  0  0  0  0  0
   -2.8927    2.2256   -0.1662 O   0  0  0  0  0  0  0  0  0  0  0  0
    1.7362    2.1097   -0.4876 O   0  0  0  0  0  0  0  0  0  0  0  0
   -4.9091   -0.1332    0.3299 N   0  0  0  0  0  0  0  0  0  0  0  0
    1.0391    0.4810    1.0105 N   0  0  0  0  0  0  0  0  0  0  0  0
   -3.5252   -0.1319   -0.1156 C   0  0  1  0  0  0  0  0  0  0  0  0
   -2.6932    0.9860    0.4850 C   0  0  1  0  0  0  0  0  0  0  0  0
   -1.2839    0.4514    0.2686 C   0  0  1  0  0  0  0  0  0  0  0  0
   -2.7550   -1.3596    0.3424 C   0  0  0  0  0  0  0  0  0  0  0  0
   -0.2709    1.0147    1.2493 C   0  0  0  0  0  0  0  0  0  0  0  0
   -5.7316   -0.9924   -0.5135 C   0  0  0  0  0  0  0  0  0  0  0  0
   -6.9887   -1.3989    0.2488 C   0  0  0  0  0  0  0  0  0  0  0  0
   -6.0863   -0.2750   -1.8129 C   0  0  0  0  0  0  0  0  0  0  0  0
    1.9514    1.0810    0.1478 C   0  0  0  0  0  0  0  0  0  0  0  0
    3.2568    0.3896   -0.0110 C   0  0  0  0  0  0  0  0  0  0  0  0
    3.9862    0.5395   -1.1906 C   0  0  0  0  0  0  0  0  0  0  0  0
    3.7534   -0.4087    1.0194 C   0  0  0  0  0  0  0  0  0  0  0  0
    5.2118   -0.1092   -1.3398 C   0  0  0  0  0  0  0  0  0  0  0  0
    4.9791   -1.0574    0.8702 C   0  0  0  0  0  0  0  0  0  0  0  0
    5.7084   -0.9077   -0.3094 C   0  0  0  0  0  0  0  0  0  0  0  0
   -3.4562   -0.0385   -1.2064 H   0  0  0  0  0  0  0  0  0  0  0  0
   -2.9097    1.1090    1.5536 H   0  0  0  0  0  0  0  0  0  0  0  0
   -0.9480    0.6465   -0.7584 H   0  0  0  0  0  0  0  0  0  0  0  0
   -3.0580   -1.6925    1.3418 H   0  0  0  0  0  0  0  0  0  0  0  0
   -2.8525   -2.2040   -0.3465 H   0  0  0  0  0  0  0  0  0  0  0  0
   -5.2803    0.8164    0.3252 H   0  0  0  0  0  0  0  0  0  0  0  0
   -0.5330    0.7362    2.2759 H   0  0  0  0  0  0  0  0  0  0  0  0
   -0.2360    2.1075    1.1839 H   0  0  0  0  0  0  0  0  0  0  0  0
   -5.2033   -1.9220   -0.7584 H   0  0  0  0  0  0  0  0  0  0  0  0
   -2.7013    2.1085   -1.1122 H   0  0  0  0  0  0  0  0  0  0  0  0
    1.2550   -0.4070    1.4505 H   0  0  0  0  0  0  0  0  0  0  0  0
   -7.6117   -2.0651   -0.3578 H   0  0  0  0  0  0  0  0  0  0  0  0
   -6.7329   -1.9322    1.1712 H   0  0  0  0  0  0  0  0  0  0  0  0
   -7.5951   -0.5269    0.5191 H   0  0  0  0  0  0  0  0  0  0  0  0
   -6.7549   -0.8968   -2.4192 H   0  0  0  0  0  0  0  0  0  0  0  0
   -5.2083   -0.0598   -2.4287 H   0  0  0  0  0  0  0  0  0  0  0  0
   -6.6054    0.6712   -1.6215 H   0  0  0  0  0  0  0  0  0  0  0  0
    3.6143    1.1536   -2.0065 H   0  0  0  0  0  0  0  0  0  0  0  0
    3.2329   -0.5272    1.9650 H   0  0  0  0  0  0  0  0  0  0  0  0
    5.7797    0.0064   -2.2582 H   0  0  0  0  0  0  0  0  0  0  0  0
    5.3698   -1.6736    1.6746 H   0  0  0  0  0  0  0  0  0  0  0  0
  1 21  1  0  0  0  0
  2  9  1  0  0  0  0
  2 10  1  0  0  0  0
  3  8  1  0  0  0  0
  3 31  1  0  0  0  0
  4 15  2  0  0  0  0
  5  7  1  0  0  0  0
  5 12  1  0  0  0  0
  5 27  1  0  0  0  0
  6 11  1  0  0  0  0
  6 15  1  0  0  0  0
  6 32  1  0  0  0  0
  7  8  1  0  0  0  0
  7 10  1  0  0  0  0
  7 22  1  0  0  0  0
  8  9  1  0  0  0  0
  8 23  1  0  0  0  0
  9 11  1  0  0  0  0
  9 24  1  0  0  0  0
 10 25  1  0  0  0  0
 10 26  1  0  0  0  0
 11 28  1  0  0  0  0
 11 29  1  0  0  0  0
 12 13  1  0  0  0  0
 12 14  1  0  0  0  0
 12 30  1  0  0  0  0
 13 33  1  0  0  0  0
 13 34  1  0  0  0  0
 13 35  1  0  0  0  0
 14 36  1  0  0  0  0
 14 37  1  0  0  0  0
 14 38  1  0  0  0  0
 15 16  1  0  0  0  0
 16 17  2  0  0  0  0
 16 18  1  0  0  0  0
 17 19  1  0  0  0  0
 17 39  1  0  0  0  0
 18 20  2  0  0  0  0
 18 40  1  0  0  0  0
 19 21  2  0  0  0  0
 19 41  1  0  0  0  0
 20 21  1  0  0  0  0
 20 42  1  0  0  0  0
M  END
> <PUBCHEM_COMPOUND_CID>
75536634

> <PUBCHEM_CONFORMER_RMSD>
0.8

> <PUBCHEM_CONFORMER_DIVERSEORDER>
1
37
45
17
13
11
41
12
28
7
10
42
6
25
34
50
33
38
24
23
49
14
44
31
54
36
18
53
48
35
20
21
16
9
39
43
26
27
2
8
46
29
52
32
22
30
40
4
19
5
51
47
3
15

> <PUBCHEM_MMFF94_PARTIAL_CHARGES>
26
1 -0.19
10 0.28
11 0.3
12 0.27
15 0.54
16 0.09
17 -0.15
18 -0.15
19 -0.15
2 -0.56
20 -0.15
21 0.19
27 0.36
3 -0.68
31 0.4
32 0.37
39 0.15
4 -0.57
40 0.15
41 0.15
42 0.15
5 -0.9
6 -0.73
7 0.27
8 0.28
9 0.28

> <PUBCHEM_EFFECTIVE_ROTOR_COUNT>
7

> <PUBCHEM_PHARMACOPHORE_FEATURES>
10
1 2 acceptor
1 3 acceptor
1 3 donor
1 4 acceptor
1 5 cation
1 5 donor
1 6 donor
3 12 13 14 hydrophobe
5 2 7 8 9 10 rings
6 16 17 18 19 20 21 rings

> <PUBCHEM_HEAVY_ATOM_COUNT>
21

> <PUBCHEM_ATOM_DEF_STEREO_COUNT>
3

> <PUBCHEM_ATOM_UDEF_STEREO_COUNT>
0

> <PUBCHEM_BOND_DEF_STEREO_COUNT>
0

> <PUBCHEM_BOND_UDEF_STEREO_COUNT>
0

> <PUBCHEM_ISOTOPIC_ATOM_COUNT>
0

> <PUBCHEM_COMPONENT_COUNT>
1

> <PUBCHEM_CACTVS_TAUTO_COUNT>
2

> <PUBCHEM_CONFORMER_ID>
048098FA00000001

> <PUBCHEM_MMFF94_ENERGY>
38.786

> <PUBCHEM_FEATURE_SELFOVERLAP>
50.746

> <PUBCHEM_SHAPE_FINGERPRINT>
10 15 11312055461006605615
10354089 29 12319736964980082074
106641 1 14692562243631890662
10670039 82 15068611661223395534
11724838 91 11095874973689740416
117890 112 8646776594846493771
12166972 35 18202003243712726808
12516196 113 17632576059160908360
12555020 224 18411133662946883215
12596602 18 13398632766493424863
12616971 3 13542454376168884712
12670543 26 17821722828204798341
12730499 353 14490190488198668504
12760667 363 18202283615425803755
12954195 1 18338794521102553221
13533116 47 18201998875915525008
13668630 136 18409731746697718446
13685833 64 17989488528389459818
13862211 1 18059852896391133487
14251752 14 17603858992648822719
14251764 18 17917993893190130828
14294032 229 18120374260081651605
14347332 77 18410007711315602245
14528608 73 15719387352334035483
14848160 23 16630525120089486956
15048467 5 10809341144227652247
15183329 4 18041275491798113381
15188451 53 17275380997467401054
15348495 7 14908173196736720723
15475509 35 17274819083688548198
17834072 8 18187363242035581011
18222031 100 18413671314271816064
19784866 240 18272094902390939713
20281389 69 8214150650822128111
21150785 3 15936410065848128963
21267235 1 18411423912087858731
21637258 2 17989201542674283189
221357 26 17095238124927516500
2215653 11 18334572460248330559
22224240 67 12319451082828946684
22956985 138 17556033394317653606
23198884 109 15864066564453328679
23402539 116 18342174454137366845
23522609 53 18054261875126898233
23559900 14 18338231703728551057
2767999 5 11602816917431414999
29717793 49 18335141981828548292
3004659 81 18259703402541430146
312425 54 15123519111836362959
3472631 163 11819286563579836818
351380 3 18343019986678255862
4340502 62 13038911040074986405
465052 167 18343308101447553118
542803 24 14056712453085723181
559249 180 18340487759690854385
59682541 52 17822283578755409206
59755656 215 18343580720534385615
960060 61 17894918438484341564

> <PUBCHEM_SHAPE_MULTIPOLES>
397.33
17.99
1.62
1.21
4.85
0.43
0.29
-9.7
5.1
0.16
-0.04
-0.13
0.01
-0.22

> <PUBCHEM_SHAPE_SELFOVERLAP>
820.955

> <PUBCHEM_SHAPE_VOLUME>
229.7

> <PUBCHEM_COORDINATE_TYPE>
2
5
10

$$$$
