38028444
  -OEChem-12032416143D

 62 63  0     1  0  0  0  0  0999 V2000
   -1.5000    2.9292    1.0711 O   0  0  0  0  0  0  0  0  0  0  0  0
    1.8941   -3.1771   -0.9202 O   0  0  0  0  0  0  0  0  0  0  0  0
    3.1178   -1.4248   -0.0078 N   0  0  0  0  0  0  0  0  0  0  0  0
   -1.6737    0.8224    2.0365 N   0  0  0  0  0  0  0  0  0  0  0  0
    2.2008   -3.0354    1.3755 N   0  0  0  0  0  0  0  0  0  0  0  0
   -3.6755   -1.7857   -0.7426 N   0  0  0  0  0  0  0  0  0  0  0  0
    1.3306    0.6664   -1.2229 C   0  0  1  0  0  0  0  0  0  0  0  0
    2.8797    0.6702   -1.2338 C   0  0  1  0  0  0  0  0  0  0  0  0
    0.7939    2.0429   -0.8018 C   0  0  0  0  0  0  0  0  0  0  0  0
    1.2908    2.4594    0.5955 C   0  0  2  0  0  0  0  0  0  0  0  0
    0.7531    0.2800   -2.5882 C   0  0  0  0  0  0  0  0  0  0  0  0
    2.7815    2.2374    0.7523 C   0  0  0  0  0  0  0  0  0  0  0  0
    3.4771    1.4451   -0.0827 C   0  0  0  0  0  0  0  0  0  0  0  0
    3.4364   -0.7581   -1.2313 C   0  0  0  0  0  0  0  0  0  0  0  0
    0.5093    1.7362    1.6979 C   0  0  0  0  0  0  0  0  0  0  0  0
   -0.6514   -0.2933   -2.4290 C   0  0  0  0  0  0  0  0  0  0  0  0
    0.7425    1.4861   -3.5218 C   0  0  0  0  0  0  0  0  0  0  0  0
    3.4639    2.9838    1.8647 C   0  0  0  0  0  0  0  0  0  0  0  0
   -0.9839    1.9247    1.5535 C   0  0  0  0  0  0  0  0  0  0  0  0
    2.3601   -2.6009    0.0620 C   0  0  0  0  0  0  0  0  0  0  0  0
   -3.1154    0.7275    2.0272 C   0  0  0  0  0  0  0  0  0  0  0  0
   -3.6296    0.1076    0.7600 C   0  0  0  0  0  0  0  0  0  0  0  0
    1.4598   -4.2255    1.7215 C   0  0  0  0  0  0  0  0  0  0  0  0
   -0.0327   -3.9677    1.7263 C   0  0  0  0  0  0  0  0  0  0  0  0
   -4.4997    0.8004   -0.0745 C   0  0  0  0  0  0  0  0  0  0  0  0
   -3.2510   -1.1711    0.3843 C   0  0  0  0  0  0  0  0  0  0  0  0
   -4.9582    0.2017   -1.2427 C   0  0  0  0  0  0  0  0  0  0  0  0
   -4.5202   -1.0814   -1.5288 C   0  0  0  0  0  0  0  0  0  0  0  0
    0.9830   -0.0655   -0.4834 H   0  0  0  0  0  0  0  0  0  0  0  0
    3.2387    1.1576   -2.1489 H   0  0  0  0  0  0  0  0  0  0  0  0
   -0.2952    2.0806   -0.8754 H   0  0  0  0  0  0  0  0  0  0  0  0
    1.1674    2.8191   -1.4835 H   0  0  0  0  0  0  0  0  0  0  0  0
    1.0956    3.5373    0.6862 H   0  0  0  0  0  0  0  0  0  0  0  0
    1.3617   -0.5026   -3.0527 H   0  0  0  0  0  0  0  0  0  0  0  0
    4.5540    1.3599    0.0490 H   0  0  0  0  0  0  0  0  0  0  0  0
    4.5308   -0.7372   -1.3009 H   0  0  0  0  0  0  0  0  0  0  0  0
    3.0809   -1.3375   -2.0876 H   0  0  0  0  0  0  0  0  0  0  0  0
    0.7813    2.1304    2.6847 H   0  0  0  0  0  0  0  0  0  0  0  0
    0.7587    0.6680    1.7038 H   0  0  0  0  0  0  0  0  0  0  0  0
   -1.3508    0.4322   -2.0028 H   0  0  0  0  0  0  0  0  0  0  0  0
   -0.6416   -1.1769   -1.7817 H   0  0  0  0  0  0  0  0  0  0  0  0
   -1.0512   -0.6031   -3.4008 H   0  0  0  0  0  0  0  0  0  0  0  0
   -0.0249    2.2237   -3.2647 H   0  0  0  0  0  0  0  0  0  0  0  0
    0.5036    1.1510   -4.5389 H   0  0  0  0  0  0  0  0  0  0  0  0
    1.7153    1.9830   -3.5818 H   0  0  0  0  0  0  0  0  0  0  0  0
    3.2823    4.0591    1.7681 H   0  0  0  0  0  0  0  0  0  0  0  0
    4.5485    2.8314    1.8590 H   0  0  0  0  0  0  0  0  0  0  0  0
    3.0905    2.6529    2.8384 H   0  0  0  0  0  0  0  0  0  0  0  0
    3.5139   -1.0674    0.8563 H   0  0  0  0  0  0  0  0  0  0  0  0
   -1.1568    0.0340    2.4150 H   0  0  0  0  0  0  0  0  0  0  0  0
   -3.5364    1.7286    2.1743 H   0  0  0  0  0  0  0  0  0  0  0  0
   -3.4153    0.1138    2.8839 H   0  0  0  0  0  0  0  0  0  0  0  0
    2.6105   -2.4857    2.1244 H   0  0  0  0  0  0  0  0  0  0  0  0
    1.7031   -5.0155    1.0032 H   0  0  0  0  0  0  0  0  0  0  0  0
    1.7947   -4.5444    2.7133 H   0  0  0  0  0  0  0  0  0  0  0  0
   -0.2904   -3.1715    2.4330 H   0  0  0  0  0  0  0  0  0  0  0  0
   -0.3877   -3.6597    0.7373 H   0  0  0  0  0  0  0  0  0  0  0  0
   -0.5756   -4.8724    2.0163 H   0  0  0  0  0  0  0  0  0  0  0  0
   -4.8266    1.8066    0.1725 H   0  0  0  0  0  0  0  0  0  0  0  0
   -2.5762   -1.7639    0.9942 H   0  0  0  0  0  0  0  0  0  0  0  0
   -5.6362    0.7230   -1.9087 H   0  0  0  0  0  0  0  0  0  0  0  0
   -4.8478   -1.5923   -2.4282 H   0  0  0  0  0  0  0  0  0  0  0  0
  1 19  2  0  0  0  0
  2 20  2  0  0  0  0
  3 14  1  0  0  0  0
  3 20  1  0  0  0  0
  3 49  1  0  0  0  0
  4 19  1  0  0  0  0
  4 21  1  0  0  0  0
  4 50  1  0  0  0  0
  5 20  1  0  0  0  0
  5 23  1  0  0  0  0
  5 53  1  0  0  0  0
  6 26  1  0  0  0  0
  6 28  2  0  0  0  0
  7  8  1  0  0  0  0
  7  9  1  0  0  0  0
  7 11  1  0  0  0  0
  7 29  1  0  0  0  0
  8 13  1  0  0  0  0
  8 14  1  0  0  0  0
  8 30  1  0  0  0  0
  9 10  1  0  0  0  0
  9 31  1  0  0  0  0
  9 32  1  0  0  0  0
 10 12  1  0  0  0  0
 10 15  1  0  0  0  0
 10 33  1  0  0  0  0
 11 16  1  0  0  0  0
 11 17  1  0  0  0  0
 11 34  1  0  0  0  0
 12 13  2  0  0  0  0
 12 18  1  0  0  0  0
 13 35  1  0  0  0  0
 14 36  1  0  0  0  0
 14 37  1  0  0  0  0
 15 19  1  0  0  0  0
 15 38  1  0  0  0  0
 15 39  1  0  0  0  0
 16 40  1  0  0  0  0
 16 41  1  0  0  0  0
 16 42  1  0  0  0  0
 17 43  1  0  0  0  0
 17 44  1  0  0  0  0
 17 45  1  0  0  0  0
 18 46  1  0  0  0  0
 18 47  1  0  0  0  0
 18 48  1  0  0  0  0
 21 22  1  0  0  0  0
 21 51  1  0  0  0  0
 21 52  1  0  0  0  0
 22 25  1  0  0  0  0
 22 26  2  0  0  0  0
 23 24  1  0  0  0  0
 23 54  1  0  0  0  0
 23 55  1  0  0  0  0
 24 56  1  0  0  0  0
 24 57  1  0  0  0  0
 24 58  1  0  0  0  0
 25 27  2  0  0  0  0
 25 59  1  0  0  0  0
 26 60  1  0  0  0  0
 27 28  1  0  0  0  0
 27 61  1  0  0  0  0
 28 62  1  0  0  0  0
M  END
> <PUBCHEM_COMPOUND_CID>
38028444

> <PUBCHEM_CONFORMER_RMSD>
1

> <PUBCHEM_CONFORMER_DIVERSEORDER>
1
34
78
100
131
97
37
113
51
64
72
59
116
104
119
124
120
130
133
99
122
47
40
57
32
77
94
139
115
2
142
83
24
98
107
52
79
106
136
63
16
85
62
69
20
96
143
125
45
74
105
86
38
90
67
140
76
132
75
129
39
112
3
144
134
43
46
55
92
80
84
18
141
81
121
54
93
65
110
101
103
66
126
117
49
17
56
30
91
127
22
48
50
87
28
118
10
41
36
137
128
53
7
73
58
88
138
102
31
68
89
123
60
44
135
9
82
114
15
33
70
11
4
5
23
109
95
19
111
108
26
14
61
6
8
42
29
12
71
13
21
27
35
25

> <PUBCHEM_MMFF94_PARTIAL_CHARGES>
30
1 -0.57
10 0.14
12 -0.28
13 -0.29
14 0.3
15 0.06
18 0.14
19 0.57
2 -0.57
20 0.69
21 0.44
22 -0.14
23 0.3
25 -0.15
26 0.16
27 -0.15
28 0.16
3 -0.73
35 0.15
4 -0.73
49 0.37
5 -0.73
50 0.37
53 0.37
59 0.15
6 -0.62
60 0.15
61 0.15
62 0.15
8 0.14

> <PUBCHEM_EFFECTIVE_ROTOR_COUNT>
11.8

> <PUBCHEM_PHARMACOPHORE_FEATURES>
9
1 1 acceptor
1 2 acceptor
1 3 donor
1 4 donor
1 5 donor
1 6 acceptor
3 11 16 17 hydrophobe
6 6 22 25 26 27 28 rings
6 7 8 9 10 12 13 rings

> <PUBCHEM_HEAVY_ATOM_COUNT>
28

> <PUBCHEM_ATOM_DEF_STEREO_COUNT>
3

> <PUBCHEM_ATOM_UDEF_STEREO_COUNT>
0

> <PUBCHEM_BOND_DEF_STEREO_COUNT>
0

> <PUBCHEM_BOND_UDEF_STEREO_COUNT>
0

> <PUBCHEM_ISOTOPIC_ATOM_COUNT>
0

> <PUBCHEM_COMPONENT_COUNT>
1

> <PUBCHEM_CACTVS_TAUTO_COUNT>
6

> <PUBCHEM_CONFORMER_ID>
0244449C00000001

> <PUBCHEM_MMFF94_ENERGY>
46.8068

> <PUBCHEM_FEATURE_SELFOVERLAP>
45.719

> <PUBCHEM_SHAPE_FINGERPRINT>
10032420 55 18341343210361808372
10064457 181 18117560854031653638
11370993 70 18190735538829655835
11578080 2 18262794056270482228
12156800 1 16015460338394002530
12633257 1 17631469877322535209
13583140 156 18270394009869697933
19026451 147 18342442734616257475
19315092 285 17980159198230252143
20511986 3 17774713234424504505
20764821 26 17473845286086735467
20775530 9 17539136047538636250
25222932 49 17914891183230839767
35225 105 17402622234053241999
46194498 28 16517972581773337845
463206 1 18412272717958453531
513532 50 17386824176740127367

> <PUBCHEM_SHAPE_MULTIPOLES>
544.56
7.89
4.58
2.9
8.75
5.64
-1.44
-0.77
-0.81
-3.83
3.25
-0.12
-0.8
-0.22

> <PUBCHEM_SHAPE_SELFOVERLAP>
1108.057

> <PUBCHEM_SHAPE_VOLUME>
313.5

> <PUBCHEM_COORDINATE_TYPE>
2
5
10

$$$$
