28961885
  -OEChem-12032416253D

 60 63  0     1  0  0  0  0  0999 V2000
   -8.5502   -2.8544   -0.2672 F   0  0  0  0  0  0  0  0  0  0  0  0
    8.2419   -3.4157    0.3454 F   0  0  0  0  0  0  0  0  0  0  0  0
    2.1088    2.5476    0.7816 O   0  0  0  0  0  0  0  0  0  0  0  0
    0.2433    3.0616   -1.5040 O   0  0  0  0  0  0  0  0  0  0  0  0
    3.5100    4.9368    0.2991 O   0  0  0  0  0  0  0  0  0  0  0  0
   -1.2872    1.2981    0.1601 N   0  0  0  0  0  0  0  0  0  0  0  0
   -3.8151   -0.0320    0.1527 N   0  0  0  0  0  0  0  0  0  0  0  0
    2.8346   -0.1419    0.1708 N   0  0  0  0  0  0  0  0  0  0  0  0
   -0.2356    2.1436    0.6974 C   0  0  1  0  0  0  0  0  0  0  0  0
    1.1366    1.4833    0.8833 C   0  0  1  0  0  0  0  0  0  0  0  0
    0.0878    3.3800   -0.1272 C   0  0  1  0  0  0  0  0  0  0  0  0
    1.4271    3.7804    0.4799 C   0  0  2  0  0  0  0  0  0  0  0  0
   -1.5229    0.1471    1.0405 C   0  0  0  0  0  0  0  0  0  0  0  0
   -2.5292    2.0631   -0.0048 C   0  0  0  0  0  0  0  0  0  0  0  0
    1.5258    0.4170   -0.1346 C   0  0  0  0  0  0  0  0  0  0  0  0
   -2.5896   -0.7818    0.4561 C   0  0  0  0  0  0  0  0  0  0  0  0
   -3.6304    1.1982   -0.6232 C   0  0  0  0  0  0  0  0  0  0  0  0
    2.3137    4.6397   -0.4029 C   0  0  0  0  0  0  0  0  0  0  0  0
   -5.0136   -0.7465    0.0461 C   0  0  0  0  0  0  0  0  0  0  0  0
    3.2023   -1.1684   -0.7957 C   0  0  0  0  0  0  0  0  0  0  0  0
   -5.4858   -1.4815    1.1335 C   0  0  0  0  0  0  0  0  0  0  0  0
   -5.7363   -0.7233   -1.1467 C   0  0  0  0  0  0  0  0  0  0  0  0
    4.5487   -1.7690   -0.4907 C   0  0  0  0  0  0  0  0  0  0  0  0
   -6.6805   -2.1936    1.0281 C   0  0  0  0  0  0  0  0  0  0  0  0
   -6.9310   -1.4353   -1.2523 C   0  0  0  0  0  0  0  0  0  0  0  0
   -7.4031   -2.1705   -0.1649 C   0  0  0  0  0  0  0  0  0  0  0  0
    5.7025   -1.2082   -1.0386 C   0  0  0  0  0  0  0  0  0  0  0  0
    4.6428   -2.8860    0.3395 C   0  0  0  0  0  0  0  0  0  0  0  0
    6.9501   -1.7645   -0.7565 C   0  0  0  0  0  0  0  0  0  0  0  0
    5.8904   -3.4423    0.6216 C   0  0  0  0  0  0  0  0  0  0  0  0
    7.0440   -2.8816    0.0736 C   0  0  0  0  0  0  0  0  0  0  0  0
   -0.5406    2.5084    1.6919 H   0  0  0  0  0  0  0  0  0  0  0  0
    1.2094    1.0622    1.8942 H   0  0  0  0  0  0  0  0  0  0  0  0
   -0.6533    4.1801   -0.0323 H   0  0  0  0  0  0  0  0  0  0  0  0
    1.2717    4.2781    1.4458 H   0  0  0  0  0  0  0  0  0  0  0  0
   -1.8629    0.4951    2.0267 H   0  0  0  0  0  0  0  0  0  0  0  0
   -0.6318   -0.4548    1.2291 H   0  0  0  0  0  0  0  0  0  0  0  0
   -2.3893    2.9153   -0.6782 H   0  0  0  0  0  0  0  0  0  0  0  0
   -2.8736    2.4603    0.9598 H   0  0  0  0  0  0  0  0  0  0  0  0
    1.5698    0.8683   -1.1333 H   0  0  0  0  0  0  0  0  0  0  0  0
    0.8012   -0.3970   -0.1826 H   0  0  0  0  0  0  0  0  0  0  0  0
   -2.2170   -1.2535   -0.4623 H   0  0  0  0  0  0  0  0  0  0  0  0
   -2.7749   -1.5843    1.1793 H   0  0  0  0  0  0  0  0  0  0  0  0
   -4.5556    1.7878   -0.6413 H   0  0  0  0  0  0  0  0  0  0  0  0
   -3.3645    0.9502   -1.6589 H   0  0  0  0  0  0  0  0  0  0  0  0
    1.8155    5.5774   -0.6667 H   0  0  0  0  0  0  0  0  0  0  0  0
    2.6023    4.1088   -1.3156 H   0  0  0  0  0  0  0  0  0  0  0  0
    0.3409    3.8979   -1.9902 H   0  0  0  0  0  0  0  0  0  0  0  0
    3.5300    0.6044    0.1649 H   0  0  0  0  0  0  0  0  0  0  0  0
    3.2184   -0.7538   -1.8123 H   0  0  0  0  0  0  0  0  0  0  0  0
    2.4535   -1.9712   -0.8046 H   0  0  0  0  0  0  0  0  0  0  0  0
    4.0559    5.4894   -0.2860 H   0  0  0  0  0  0  0  0  0  0  0  0
   -4.9449   -1.5007    2.0761 H   0  0  0  0  0  0  0  0  0  0  0  0
   -5.3917   -0.1734   -2.0178 H   0  0  0  0  0  0  0  0  0  0  0  0
   -7.0502   -2.7636    1.8754 H   0  0  0  0  0  0  0  0  0  0  0  0
   -7.4926   -1.4204   -2.1817 H   0  0  0  0  0  0  0  0  0  0  0  0
    5.6427   -0.3369   -1.6854 H   0  0  0  0  0  0  0  0  0  0  0  0
    3.7516   -3.3312    0.7740 H   0  0  0  0  0  0  0  0  0  0  0  0
    7.8487   -1.3279   -1.1824 H   0  0  0  0  0  0  0  0  0  0  0  0
    5.9640   -4.3117    1.2683 H   0  0  0  0  0  0  0  0  0  0  0  0
  1 26  1  0  0  0  0
  2 31  1  0  0  0  0
  3 10  1  0  0  0  0
  3 12  1  0  0  0  0
  4 11  1  0  0  0  0
  4 48  1  0  0  0  0
  5 18  1  0  0  0  0
  5 52  1  0  0  0  0
  6  9  1  0  0  0  0
  6 13  1  0  0  0  0
  6 14  1  0  0  0  0
  7 16  1  0  0  0  0
  7 17  1  0  0  0  0
  7 19  1  0  0  0  0
  8 15  1  0  0  0  0
  8 20  1  0  0  0  0
  8 49  1  0  0  0  0
  9 10  1  0  0  0  0
  9 11  1  0  0  0  0
  9 32  1  0  0  0  0
 10 15  1  0  0  0  0
 10 33  1  0  0  0  0
 11 12  1  0  0  0  0
 11 34  1  0  0  0  0
 12 18  1  0  0  0  0
 12 35  1  0  0  0  0
 13 16  1  0  0  0  0
 13 36  1  0  0  0  0
 13 37  1  0  0  0  0
 14 17  1  0  0  0  0
 14 38  1  0  0  0  0
 14 39  1  0  0  0  0
 15 40  1  0  0  0  0
 15 41  1  0  0  0  0
 16 42  1  0  0  0  0
 16 43  1  0  0  0  0
 17 44  1  0  0  0  0
 17 45  1  0  0  0  0
 18 46  1  0  0  0  0
 18 47  1  0  0  0  0
 19 21  2  0  0  0  0
 19 22  1  0  0  0  0
 20 23  1  0  0  0  0
 20 50  1  0  0  0  0
 20 51  1  0  0  0  0
 21 24  1  0  0  0  0
 21 53  1  0  0  0  0
 22 25  2  0  0  0  0
 22 54  1  0  0  0  0
 23 27  2  0  0  0  0
 23 28  1  0  0  0  0
 24 26  2  0  0  0  0
 24 55  1  0  0  0  0
 25 26  1  0  0  0  0
 25 56  1  0  0  0  0
 27 29  1  0  0  0  0
 27 57  1  0  0  0  0
 28 30  2  0  0  0  0
 28 58  1  0  0  0  0
 29 31  2  0  0  0  0
 29 59  1  0  0  0  0
 30 31  1  0  0  0  0
 30 60  1  0  0  0  0
M  END
> <PUBCHEM_COMPOUND_CID>
28961885

> <PUBCHEM_CONFORMER_RMSD>
1

> <PUBCHEM_CONFORMER_DIVERSEORDER>
1
31
25
28
11
21
8
18
10
2
9
23
20
30
27
24
17
13
3
29
4
15
19
26
7
6
16
22
5
14
12

> <PUBCHEM_MMFF94_PARTIAL_CHARGES>
42
1 -0.19
10 0.28
11 0.28
12 0.28
13 0.27
14 0.27
15 0.27
16 0.37
17 0.37
18 0.28
19 0.1
2 -0.19
20 0.41
21 -0.15
22 -0.15
23 -0.14
24 -0.15
25 -0.15
26 0.19
27 -0.15
28 -0.15
29 -0.15
3 -0.56
30 -0.15
31 0.19
4 -0.68
48 0.4
49 0.36
5 -0.68
52 0.4
53 0.15
54 0.15
55 0.15
56 0.15
57 0.15
58 0.15
59 0.15
6 -0.81
60 0.15
7 -0.84
8 -0.9
9 0.27

> <PUBCHEM_EFFECTIVE_ROTOR_COUNT>
9.2

> <PUBCHEM_PHARMACOPHORE_FEATURES>
13
1 3 acceptor
1 4 acceptor
1 4 donor
1 5 acceptor
1 5 donor
1 6 cation
1 7 cation
1 8 cation
1 8 donor
5 3 9 10 11 12 rings
6 19 21 22 24 25 26 rings
6 23 27 28 29 30 31 rings
6 6 7 13 14 16 17 rings

> <PUBCHEM_HEAVY_ATOM_COUNT>
31

> <PUBCHEM_ATOM_DEF_STEREO_COUNT>
4

> <PUBCHEM_ATOM_UDEF_STEREO_COUNT>
0

> <PUBCHEM_BOND_DEF_STEREO_COUNT>
0

> <PUBCHEM_BOND_UDEF_STEREO_COUNT>
0

> <PUBCHEM_ISOTOPIC_ATOM_COUNT>
0

> <PUBCHEM_COMPONENT_COUNT>
1

> <PUBCHEM_CACTVS_TAUTO_COUNT>
1

> <PUBCHEM_CONFORMER_ID>
01B9EC5D00000001

> <PUBCHEM_MMFF94_ENERGY>
89.3704

> <PUBCHEM_FEATURE_SELFOVERLAP>
65.979

> <PUBCHEM_SHAPE_FINGERPRINT>
10050765 1 18411983568298048121
10100884 174 18261392188369017602
10319688 140 18338518663526295412
10411042 1 18411419479961177472
11059845 2 17487357953880832729
11204353 107 18121511412491345990
11297750 10 18409158901076811276
11410812 94 16443621278164075342
11497681 19 18264777554721537654
11621639 208 17828768678868143123
11963148 33 17910388725933115519
12107183 9 18200047136109019841
12758862 65 18060702797305088562
12977781 61 17753063970226102683
13248334 5 18195247947615260048
13533116 47 18128820923016506537
13540713 4 18338780270000638673
13540713 5 18200614552259203881
1361 87 17604160319492280283
13631057 29 18264490586217501602
13690498 29 18260544486023987941
13955234 65 18127409175123516849
13974486 7 18411125948727814034
14068700 675 18201721734433819355
14251764 75 9223223044597793134
14394314 77 18266744575852234090
15183329 4 16588023472454172650
15351339 4 17822850862732416090
15510800 12 18334856147344436299
15773216 30 18264212577221578132
15840311 113 13263222476515732380
15890870 6 18191876824618472828
15927050 60 17909552001636394702
15968369 26 17753899620939065412
16990366 60 18334850615511078474
16991971 28 18270975583012701150
16993427 108 18336539413932136850
17492 89 18411698811960658729
17686467 74 18342449302496206146
19303781 99 18341880910033867607
19841028 212 18270400611620138075
20165401 70 18199184169868893823
20771845 171 18115311210888091812
20775438 99 18047180040975399595
21033650 10 16732977584366417677
21049683 271 18409737287659373468
21130935 74 18195813097556801107
21344244 246 18336551607734641116
21682296 61 18411140260391092275
21792938 169 18125143069073662468
22899556 10 16902439568910510512
23522609 53 18052576289130464745
23559900 14 18262236728818705665
23569943 247 18411141334159875299
255183 313 17621337735818009032
255183 451 18411139151397993029
32027 91 18336549408368279915
3504750 166 17540530220346627986
3627633 1 18194966245121164672
4046055 25 18042410127826945660
4280585 95 18265893567112205520
439807 62 18334862701543637695
5219985 9 18341336612959160826
5718773 13 18411699863610506639
6697151 62 18197752502201297725
6700243 42 17627539059424852484
9962374 69 18201148966602618255

> <PUBCHEM_SHAPE_MULTIPOLES>
590.87
22
6.02
1.08
7.39
6.56
0.1
-35.87
2.51
-8.38
-0.35
0.61
-0.08
0.05

> <PUBCHEM_SHAPE_SELFOVERLAP>
1255.786

> <PUBCHEM_SHAPE_VOLUME>
329.9

> <PUBCHEM_COORDINATE_TYPE>
2
5
10

$$$$
