45784010
  -OEChem-12032416243D

 48 51  0     1  0  0  0  0  0999 V2000
   -3.0141   -0.8644   -1.9777 O   0  0  0  0  0  0  0  0  0  0  0  0
   -1.6987   -1.3156   -0.1324 N   0  0  0  0  0  0  0  0  0  0  0  0
    2.8450   -1.5417    0.4074 N   0  0  0  0  0  0  0  0  0  0  0  0
    1.4555   -0.0267   -0.4377 N   0  0  0  0  0  0  0  0  0  0  0  0
   -3.6842    0.0807    0.0931 C   0  0  0  0  0  0  0  0  0  0  0  0
    0.4560   -2.2845    0.1326 C   0  0  2  0  0  0  0  0  0  0  0  0
   -0.7216   -2.1348   -0.8389 C   0  0  0  0  0  0  0  0  0  0  0  0
   -0.2460   -2.2118    1.4976 C   0  0  0  0  0  0  0  0  0  0  0  0
   -1.3665   -1.2015    1.2832 C   0  0  0  0  0  0  0  0  0  0  0  0
   -3.1982    1.5302    0.1344 C   0  0  0  0  0  0  0  0  0  0  0  0
   -5.1150   -0.0163   -0.4393 C   0  0  0  0  0  0  0  0  0  0  0  0
   -2.7777   -0.7363   -0.7752 C   0  0  0  0  0  0  0  0  0  0  0  0
   -4.1543    2.4188    0.9259 C   0  0  0  0  0  0  0  0  0  0  0  0
   -6.0689    0.8764    0.3502 C   0  0  0  0  0  0  0  0  0  0  0  0
   -5.5815    2.3221    0.3940 C   0  0  0  0  0  0  0  0  0  0  0  0
    1.5660   -1.2539    0.0193 C   0  0  0  0  0  0  0  0  0  0  0  0
    3.6108   -0.4259    0.1860 C   0  0  0  0  0  0  0  0  0  0  0  0
    2.7207    0.5055   -0.3415 C   0  0  0  0  0  0  0  0  0  0  0  0
    4.9642   -0.1595    0.3955 C   0  0  0  0  0  0  0  0  0  0  0  0
    3.1914    1.7838   -0.6861 C   0  0  0  0  0  0  0  0  0  0  0  0
    5.4156    1.1177    0.0469 C   0  0  0  0  0  0  0  0  0  0  0  0
    4.5467    2.0736   -0.4844 C   0  0  0  0  0  0  0  0  0  0  0  0
    6.8548    1.4639    0.2472 C   0  0  0  0  0  0  0  0  0  0  0  0
   -3.7143   -0.3122    1.1125 H   0  0  0  0  0  0  0  0  0  0  0  0
    0.9143   -3.2720   -0.0072 H   0  0  0  0  0  0  0  0  0  0  0  0
   -0.4548   -1.6772   -1.7968 H   0  0  0  0  0  0  0  0  0  0  0  0
   -1.1974   -3.1030   -1.0333 H   0  0  0  0  0  0  0  0  0  0  0  0
   -0.6835   -3.1916    1.7287 H   0  0  0  0  0  0  0  0  0  0  0  0
    0.4096   -1.9328    2.3284 H   0  0  0  0  0  0  0  0  0  0  0  0
   -2.2229   -1.4306    1.9215 H   0  0  0  0  0  0  0  0  0  0  0  0
   -1.0257   -0.1805    1.4792 H   0  0  0  0  0  0  0  0  0  0  0  0
   -2.1980    1.5933    0.5768 H   0  0  0  0  0  0  0  0  0  0  0  0
   -3.1034    1.9217   -0.8872 H   0  0  0  0  0  0  0  0  0  0  0  0
   -5.4648   -1.0552   -0.3958 H   0  0  0  0  0  0  0  0  0  0  0  0
   -5.1584    0.2824   -1.4950 H   0  0  0  0  0  0  0  0  0  0  0  0
   -3.8139    3.4594    0.8795 H   0  0  0  0  0  0  0  0  0  0  0  0
   -4.1369    2.1234    1.9822 H   0  0  0  0  0  0  0  0  0  0  0  0
   -6.1646    0.4928    1.3735 H   0  0  0  0  0  0  0  0  0  0  0  0
   -7.0676    0.8376   -0.0992 H   0  0  0  0  0  0  0  0  0  0  0  0
   -6.2511    2.9180    1.0243 H   0  0  0  0  0  0  0  0  0  0  0  0
   -5.6246    2.7520   -0.6144 H   0  0  0  0  0  0  0  0  0  0  0  0
    3.1706   -2.4192    0.7908 H   0  0  0  0  0  0  0  0  0  0  0  0
    5.6276   -0.9105    0.8106 H   0  0  0  0  0  0  0  0  0  0  0  0
    2.5239    2.5333   -1.0992 H   0  0  0  0  0  0  0  0  0  0  0  0
    4.9147    3.0627   -0.7482 H   0  0  0  0  0  0  0  0  0  0  0  0
    7.2103    2.1359   -0.5414 H   0  0  0  0  0  0  0  0  0  0  0  0
    7.4874    0.5703    0.2152 H   0  0  0  0  0  0  0  0  0  0  0  0
    6.9913    1.9537    1.2164 H   0  0  0  0  0  0  0  0  0  0  0  0
  1 12  2  0  0  0  0
  2  7  1  0  0  0  0
  2  9  1  0  0  0  0
  2 12  1  0  0  0  0
  3 16  1  0  0  0  0
  3 17  1  0  0  0  0
  3 42  1  0  0  0  0
  4 16  2  0  0  0  0
  4 18  1  0  0  0  0
  5 10  1  0  0  0  0
  5 11  1  0  0  0  0
  5 12  1  0  0  0  0
  5 24  1  0  0  0  0
  6  7  1  0  0  0  0
  6  8  1  0  0  0  0
  6 16  1  0  0  0  0
  6 25  1  0  0  0  0
  7 26  1  0  0  0  0
  7 27  1  0  0  0  0
  8  9  1  0  0  0  0
  8 28  1  0  0  0  0
  8 29  1  0  0  0  0
  9 30  1  0  0  0  0
  9 31  1  0  0  0  0
 10 13  1  0  0  0  0
 10 32  1  0  0  0  0
 10 33  1  0  0  0  0
 11 14  1  0  0  0  0
 11 34  1  0  0  0  0
 11 35  1  0  0  0  0
 13 15  1  0  0  0  0
 13 36  1  0  0  0  0
 13 37  1  0  0  0  0
 14 15  1  0  0  0  0
 14 38  1  0  0  0  0
 14 39  1  0  0  0  0
 15 40  1  0  0  0  0
 15 41  1  0  0  0  0
 17 18  2  0  0  0  0
 17 19  1  0  0  0  0
 18 20  1  0  0  0  0
 19 21  2  0  0  0  0
 19 43  1  0  0  0  0
 20 22  2  0  0  0  0
 20 44  1  0  0  0  0
 21 22  1  0  0  0  0
 21 23  1  0  0  0  0
 22 45  1  0  0  0  0
 23 46  1  0  0  0  0
 23 47  1  0  0  0  0
 23 48  1  0  0  0  0
M  END
> <PUBCHEM_COMPOUND_CID>
45784010

> <PUBCHEM_CONFORMER_RMSD>
0.8

> <PUBCHEM_CONFORMER_DIVERSEORDER>
2
33
26
10
51
24
47
42
48
49
34
31
40
27
36
8
38
50
39
25
43
9
5
35
37
12
30
52
13
23
46
17
6
44
45
22
16
18
14
53
19
32
11
15
20
41
3
29
7
4
21
28
1

> <PUBCHEM_MMFF94_PARTIAL_CHARGES>
21
1 -0.57
12 0.57
16 0.01
17 -0.15
18 0.23
19 -0.15
2 -0.66
20 -0.15
21 -0.14
22 -0.15
23 0.14
3 0.03
4 -0.57
42 0.27
43 0.15
44 0.15
45 0.15
5 0.06
6 0.18
7 0.3
9 0.3

> <PUBCHEM_EFFECTIVE_ROTOR_COUNT>
5.2

> <PUBCHEM_PHARMACOPHORE_FEATURES>
7
1 1 acceptor
1 3 donor
3 3 4 16 cation
5 2 6 7 8 9 rings
5 3 4 16 17 18 rings
6 17 18 19 20 21 22 rings
6 5 10 11 13 14 15 rings

> <PUBCHEM_HEAVY_ATOM_COUNT>
23

> <PUBCHEM_ATOM_DEF_STEREO_COUNT>
1

> <PUBCHEM_ATOM_UDEF_STEREO_COUNT>
0

> <PUBCHEM_BOND_DEF_STEREO_COUNT>
0

> <PUBCHEM_BOND_UDEF_STEREO_COUNT>
0

> <PUBCHEM_ISOTOPIC_ATOM_COUNT>
0

> <PUBCHEM_COMPONENT_COUNT>
1

> <PUBCHEM_CACTVS_TAUTO_COUNT>
2

> <PUBCHEM_CONFORMER_ID>
02BA9BCA00000002

> <PUBCHEM_MMFF94_ENERGY>
41.1853

> <PUBCHEM_FEATURE_SELFOVERLAP>
35.629

> <PUBCHEM_SHAPE_FINGERPRINT>
10595046 47 18341889693315541535
10906281 52 17968666042588270716
11069576 57 14044917923130534348
11089746 13 18271518814950250120
12107183 9 18262790779901135674
12236239 1 18342735204492344327
12293681 160 17561085799784590554
12596602 18 17675923218010826129
12633257 1 16009041608780984305
12760667 363 8142087542146230705
12788726 201 17489312927755546353
12838862 33 18339061740603039869
12892183 10 15213566863176780210
12895836 83 17704067400415291183
12895837 130 18129662040173272772
13103583 49 11963386302462994447
13167372 99 18411698764493998224
13177829 73 18413106169521547672
13544653 18 10663819706270366103
13583140 156 15357963594848375997
13785724 45 17833546796010079194
14251764 30 11386631993793440440
14257110 125 18411702084392941645
14576447 43 10519992560851118468
14849402 71 18115311055894638266
14931854 50 18202283572091716765
15142526 21 18259706700934032115
15163728 17 17702961240030493543
15188451 53 14852182775158826769
15238133 3 18113909286101285172
15475509 8 18196097647418930502
17357779 13 13686299084247170410
18222031 100 10519983755725329406
18608769 82 18340490092570512803
200 152 10375879575555701110
20621476 66 18409171047676451244
21033648 144 18114174229332453903
21033648 29 18199460134148349560
21421861 104 17677033678544052114
21637258 2 7853573487309396403
21756936 100 18412259579511329519
21857420 4 13306115146210422432
23198884 109 16415488142467572625
23559900 14 14261341505659434866
23845131 108 17967254174631454003
245318 6 17896902016958136725
270888 7 18412544280193095849
2838139 119 18343016718055253812
335352 9 18408043997040003438
3472631 163 18272652325085629973
3680242 22 18261672571853153296
4098825 35 16056056635959288365
4259306 186 11600008755969969762
445580 204 18343581854336997856
465052 167 7853566928820365920
474 4 18334295340584684003
5104073 3 17605546859668594456
5385378 56 18187361005085873794
57724786 102 18040441031487696052
59682541 35 18334587867282231929
59682541 52 16773242764604589644
59755656 520 18259701211560087066
6299153 45 18338795603402261114
6328613 192 18188496912588509860
633830 44 18410009901395917871
636775 72 18200024192315103392
7288768 16 18113340821014255907
7808743 9 18343016696970619051
7970288 3 8862677789009500888
960060 61 12391504300131630779
9981440 41 18408890658762172499

> <PUBCHEM_SHAPE_MULTIPOLES>
452.52
15.01
2.76
1.09
3.49
0.14
-0.07
12.54
0.82
-0.69
0.39
-0.69
-0.36
-1.24

> <PUBCHEM_SHAPE_SELFOVERLAP>
975.869

> <PUBCHEM_SHAPE_VOLUME>
248.2

> <PUBCHEM_COORDINATE_TYPE>
2
5
10

$$$$
