40474964
  -OEChem-12032416253D

 58 62  0     1  0  0  0  0  0999 V2000
   -1.2072   -3.4626    0.4046 O   0  0  0  0  0  0  0  0  0  0  0  0
   -0.4940   -1.8978   -2.2031 O   0  0  0  0  0  0  0  0  0  0  0  0
    3.4200   -0.8523   -0.3735 O   0  0  0  0  0  0  0  0  0  0  0  0
   -4.9110   -1.2486    0.3505 O   0  0  0  0  0  0  0  0  0  0  0  0
    1.6778   -1.9580    0.7999 N   0  0  0  0  0  0  0  0  0  0  0  0
   -3.1848   -0.7894   -1.1175 N   0  0  0  0  0  0  0  0  0  0  0  0
    1.3042   -2.1172    2.0773 N   0  0  0  0  0  0  0  0  0  0  0  0
    3.1451   -0.8647    1.9637 N   0  0  0  0  0  0  0  0  0  0  0  0
    2.2055   -1.4466    2.7846 N   0  0  0  0  0  0  0  0  0  0  0  0
   -4.7082    0.8651   -0.6503 N   0  0  0  0  0  0  0  0  0  0  0  0
    5.5014    3.5317   -0.2947 N   0  0  0  0  0  0  0  0  0  0  0  0
   -0.2241   -1.6658   -0.8085 C   0  0  1  0  0  0  0  0  0  0  0  0
   -1.4483   -2.1164   -0.0355 C   0  0  1  0  0  0  0  0  0  0  0  0
    0.8875   -2.5854   -0.3337 C   0  0  2  0  0  0  0  0  0  0  0  0
   -2.5620   -2.0897   -1.0574 C   0  0  2  0  0  0  0  0  0  0  0  0
    0.1189   -3.8546    0.0232 C   0  0  0  0  0  0  0  0  0  0  0  0
   -1.8274   -2.4079   -2.3468 C   0  0  0  0  0  0  0  0  0  0  0  0
    2.7994   -1.1939    0.7404 C   0  0  0  0  0  0  0  0  0  0  0  0
   -4.3368   -0.4578   -0.3944 C   0  0  0  0  0  0  0  0  0  0  0  0
    4.5739   -0.0553   -0.2977 C   0  0  0  0  0  0  0  0  0  0  0  0
   -5.8089    1.5763   -0.1181 C   0  0  0  0  0  0  0  0  0  0  0  0
    4.4653    1.3348   -0.3343 C   0  0  0  0  0  0  0  0  0  0  0  0
    5.8286   -0.6542   -0.1851 C   0  0  0  0  0  0  0  0  0  0  0  0
   -6.0274    2.9026   -0.4907 C   0  0  0  0  0  0  0  0  0  0  0  0
   -6.6757    0.9520    0.7788 C   0  0  0  0  0  0  0  0  0  0  0  0
    5.6115    2.1260   -0.2585 C   0  0  0  0  0  0  0  0  0  0  0  0
    6.9748    0.1371   -0.1095 C   0  0  0  0  0  0  0  0  0  0  0  0
    6.8663    1.5272   -0.1462 C   0  0  0  0  0  0  0  0  0  0  0  0
   -7.1125    3.6048    0.0337 C   0  0  0  0  0  0  0  0  0  0  0  0
   -7.7610    1.6541    1.3031 C   0  0  0  0  0  0  0  0  0  0  0  0
   -7.9794    2.9805    0.9306 C   0  0  0  0  0  0  0  0  0  0  0  0
    6.6859    4.3629   -0.2158 C   0  0  0  0  0  0  0  0  0  0  0  0
    4.2027    4.1632   -0.4190 C   0  0  0  0  0  0  0  0  0  0  0  0
   -0.0118   -0.5986   -0.6891 H   0  0  0  0  0  0  0  0  0  0  0  0
   -1.6387   -1.5094    0.8554 H   0  0  0  0  0  0  0  0  0  0  0  0
    1.6401   -2.7968   -1.1020 H   0  0  0  0  0  0  0  0  0  0  0  0
   -3.3351   -2.8403   -0.8609 H   0  0  0  0  0  0  0  0  0  0  0  0
    0.0236   -4.5049   -0.8533 H   0  0  0  0  0  0  0  0  0  0  0  0
    0.5736   -4.4372    0.8296 H   0  0  0  0  0  0  0  0  0  0  0  0
   -1.7468   -3.4905   -2.4949 H   0  0  0  0  0  0  0  0  0  0  0  0
   -2.2888   -1.9721   -3.2382 H   0  0  0  0  0  0  0  0  0  0  0  0
   -2.7299   -0.0603   -1.6587 H   0  0  0  0  0  0  0  0  0  0  0  0
   -4.1221    1.3865   -1.2975 H   0  0  0  0  0  0  0  0  0  0  0  0
    3.4694    1.7586   -0.4235 H   0  0  0  0  0  0  0  0  0  0  0  0
    5.9199   -1.7365   -0.1567 H   0  0  0  0  0  0  0  0  0  0  0  0
   -5.3596    3.4009   -1.1888 H   0  0  0  0  0  0  0  0  0  0  0  0
   -6.5726   -0.0700    1.1148 H   0  0  0  0  0  0  0  0  0  0  0  0
    7.9515   -0.3299   -0.0221 H   0  0  0  0  0  0  0  0  0  0  0  0
    7.7873    2.0984   -0.0841 H   0  0  0  0  0  0  0  0  0  0  0  0
   -7.2826    4.6375   -0.2564 H   0  0  0  0  0  0  0  0  0  0  0  0
   -8.4368    1.1693    2.0017 H   0  0  0  0  0  0  0  0  0  0  0  0
   -8.8243    3.5272    1.3389 H   0  0  0  0  0  0  0  0  0  0  0  0
    6.4358    5.4291   -0.2538 H   0  0  0  0  0  0  0  0  0  0  0  0
    7.3607    4.1714   -1.0576 H   0  0  0  0  0  0  0  0  0  0  0  0
    7.2201    4.2026    0.7274 H   0  0  0  0  0  0  0  0  0  0  0  0
    4.2837    5.2558   -0.4350 H   0  0  0  0  0  0  0  0  0  0  0  0
    3.5573    3.9119    0.4301 H   0  0  0  0  0  0  0  0  0  0  0  0
    3.7096    3.8743   -1.3539 H   0  0  0  0  0  0  0  0  0  0  0  0
  1 13  1  0  0  0  0
  1 16  1  0  0  0  0
  2 12  1  0  0  0  0
  2 17  1  0  0  0  0
  3 18  1  0  0  0  0
  3 20  1  0  0  0  0
  4 19  2  0  0  0  0
  5  7  1  0  0  0  0
  5 14  1  0  0  0  0
  5 18  1  0  0  0  0
  6 15  1  0  0  0  0
  6 19  1  0  0  0  0
  6 42  1  0  0  0  0
  7  9  2  0  0  0  0
  8  9  1  0  0  0  0
  8 18  2  0  0  0  0
 10 19  1  0  0  0  0
 10 21  1  0  0  0  0
 10 43  1  0  0  0  0
 11 26  1  0  0  0  0
 11 32  1  0  0  0  0
 11 33  1  0  0  0  0
 12 13  1  0  0  0  0
 12 14  1  0  0  0  0
 12 34  1  0  0  0  0
 13 15  1  0  0  0  0
 13 35  1  0  0  0  0
 14 16  1  0  0  0  0
 14 36  1  0  0  0  0
 15 17  1  0  0  0  0
 15 37  1  0  0  0  0
 16 38  1  0  0  0  0
 16 39  1  0  0  0  0
 17 40  1  0  0  0  0
 17 41  1  0  0  0  0
 20 22  1  0  0  0  0
 20 23  2  0  0  0  0
 21 24  2  0  0  0  0
 21 25  1  0  0  0  0
 22 26  2  0  0  0  0
 22 44  1  0  0  0  0
 23 27  1  0  0  0  0
 23 45  1  0  0  0  0
 24 29  1  0  0  0  0
 24 46  1  0  0  0  0
 25 30  2  0  0  0  0
 25 47  1  0  0  0  0
 26 28  1  0  0  0  0
 27 28  2  0  0  0  0
 27 48  1  0  0  0  0
 28 49  1  0  0  0  0
 29 31  2  0  0  0  0
 29 50  1  0  0  0  0
 30 31  1  0  0  0  0
 30 51  1  0  0  0  0
 31 52  1  0  0  0  0
 32 53  1  0  0  0  0
 32 54  1  0  0  0  0
 32 55  1  0  0  0  0
 33 56  1  0  0  0  0
 33 57  1  0  0  0  0
 33 58  1  0  0  0  0
M  END
> <PUBCHEM_COMPOUND_CID>
40474964

> <PUBCHEM_CONFORMER_RMSD>
1.4

> <PUBCHEM_CONFORMER_DIVERSEORDER>
1
102
80
99
82
37
112
5
11
63
104
56
41
114
10
6
119
66
77
21
50
109
47
81
40
105
29
53
64
58
96
87
14
13
118
98
31
106
86
71
27
8
92
51
88
36
62
34
89
30
43
76
117
52
24
48
4
69
93
59
73
15
101
19
18
72
33
7
107
23
90
94
120
17
22
42
54
60
110
45
116
61
103
9
2
97
115
49
28
32
100
78
79
67
95
46
84
3
113
12
44
55
83
16
20
38
68
111
108
75
35
85
39
65
25
26
74
91
57
70

> <PUBCHEM_MMFF94_PARTIAL_CHARGES>
43
1 -0.56
10 -0.55
11 -0.84
12 0.28
13 0.28
14 0.26
15 0.3
16 0.28
17 0.28
18 0.25
19 0.69
2 -0.56
20 0.08
21 0.12
22 -0.15
23 -0.15
24 -0.15
25 -0.15
26 0.1
27 -0.15
28 -0.15
29 -0.15
3 -0.15
30 -0.15
31 -0.15
32 0.37
33 0.37
4 -0.57
42 0.37
43 0.37
44 0.15
45 0.15
46 0.15
47 0.15
48 0.15
49 0.15
5 0.31
50 0.15
51 0.15
52 0.15
6 -0.73
7 -0.42
8 -0.34

> <PUBCHEM_EFFECTIVE_ROTOR_COUNT>
9.2

> <PUBCHEM_PHARMACOPHORE_FEATURES>
12
1 1 acceptor
1 10 donor
1 11 cation
1 2 acceptor
1 4 acceptor
1 6 donor
3 5 8 18 cation
5 1 12 13 14 16 rings
5 2 12 13 15 17 rings
5 5 7 8 9 18 rings
6 20 22 23 26 27 28 rings
6 21 24 25 29 30 31 rings

> <PUBCHEM_HEAVY_ATOM_COUNT>
33

> <PUBCHEM_ATOM_DEF_STEREO_COUNT>
4

> <PUBCHEM_ATOM_UDEF_STEREO_COUNT>
0

> <PUBCHEM_BOND_DEF_STEREO_COUNT>
0

> <PUBCHEM_BOND_UDEF_STEREO_COUNT>
0

> <PUBCHEM_ISOTOPIC_ATOM_COUNT>
0

> <PUBCHEM_COMPONENT_COUNT>
1

> <PUBCHEM_CACTVS_TAUTO_COUNT>
3

> <PUBCHEM_CONFORMER_ID>
0269995400000001

> <PUBCHEM_MMFF94_ENERGY>
104.8153

> <PUBCHEM_FEATURE_SELFOVERLAP>
61.652

> <PUBCHEM_SHAPE_FINGERPRINT>
10190108 129 17458345187707887868
10920273 25 18059871527975374169
11476731 99 17914607504778547592
11479125 193 18192721269604338177
11505856 67 18197487631652965535
11621639 336 18194119608520304344
1200032 147 18334861584704467490
12013929 29 18339927112500157452
12104220 4 18261682553383919676
12975358 362 18056770828266642185
13782708 43 9078814287808539963
13885169 86 18411421709028254389
13944108 23 18198623228973086664
14202776 33 17987794263092862399
14251764 75 18409167727086294257
14394314 77 18409451414130158749
14664723 55 18202292368321596977
14790565 3 18409447011502810748
15150950 15 18411706483146926505
15183329 4 14764344903881021871
15338160 23 18334579083842671371
15519825 34 16298683771496808033
155225 6 18411702063208794625
15950262 2 18341334504320155444
16992727 255 18343865541411861296
19053607 189 18198329660064790081
19302320 297 18408041788952208816
19309040 13 18201718478938449286
19438510 23 18187082883845222538
20691028 202 18411416245439567693
21585482 111 18263363590820166445
21774942 28 18268986661347239832
21796203 349 16808387524732862474
22122407 14 18334863813607507665
23191077 185 18267854154984403174
23569914 152 17843708603275538076
249057 25 18195496308414970751
2838139 119 18338233872950675590
3918712 181 18268429036910893289
393628 194 18270681962095823861
4169191 19 18339077083006819741
4366758 26 18341902853064519657
437795 70 15051739659901246715
5104073 3 17532638230782990690
5223283 242 18268441135933636430
563151 74 17458347407731402339
5911458 16 18341897376896047929
5951187 136 18342184353915295372
6695519 79 16878208836130456723
9689198 14 18410301285014790631

> <PUBCHEM_SHAPE_MULTIPOLES>
620.78
23.2
5.69
1.57
17.36
3.49
-0.42
33.76
-2.73
-1.3
0.6
0.3
-1.27
-2.83

> <PUBCHEM_SHAPE_SELFOVERLAP>
1343.667

> <PUBCHEM_SHAPE_VOLUME>
339

> <PUBCHEM_COORDINATE_TYPE>
2
5
10

$$$$
