26743672
  -OEChem-12032416283D

 43 46  0     1  0  0  0  0  0999 V2000
    4.7163   -2.9092    1.1815 O   0  0  0  0  0  0  0  0  0  0  0  0
    0.3572   -0.6788   -2.1271 O   0  0  0  0  0  0  0  0  0  0  0  0
    1.0250    2.2818    0.7592 O   0  0  0  0  0  0  0  0  0  0  0  0
   -1.7782    2.1784    1.8361 O   0  0  0  0  0  0  0  0  0  0  0  0
    2.7886   -0.0246    0.3247 N   0  0  1  0  0  0  0  0  0  0  0  0
   -0.1444   -1.1105    0.0127 N   0  0  0  0  0  0  0  0  0  0  0  0
   -1.0412   -0.6839   -2.0483 N   0  0  0  0  0  0  0  0  0  0  0  0
   -3.5957   -0.8621   -1.0727 N   0  0  0  0  0  0  0  0  0  0  0  0
    2.3081   -0.9868   -0.6876 C   0  0  1  0  0  0  0  0  0  0  0  0
    2.8039   -2.3586   -0.1934 C   0  0  0  0  0  0  0  0  0  0  0  0
    3.5904   -2.0596    1.0768 C   0  0  2  0  0  0  0  0  0  0  0  0
    3.9946   -0.6071    0.9101 C   0  0  0  0  0  0  0  0  0  0  0  0
    3.0298    1.3064   -0.2170 C   0  0  0  0  0  0  0  0  0  0  0  0
    0.8059   -0.9384   -0.8711 C   0  0  0  0  0  0  0  0  0  0  0  0
    1.7527    2.0886   -0.3719 C   0  0  0  0  0  0  0  0  0  0  0  0
    1.1336    2.6756   -1.4510 C   0  0  0  0  0  0  0  0  0  0  0  0
   -1.2596   -0.9450   -0.7561 C   0  0  0  0  0  0  0  0  0  0  0  0
   -0.0710    2.9999    0.3984 C   0  0  0  0  0  0  0  0  0  0  0  0
   -0.0507    3.2675   -0.9507 C   0  0  0  0  0  0  0  0  0  0  0  0
   -2.5786   -1.0486   -0.2020 C   0  0  0  0  0  0  0  0  0  0  0  0
   -1.0146    3.3318    1.4754 C   0  0  0  0  0  0  0  0  0  0  0  0
   -2.7511   -1.3228    1.1451 C   0  0  0  0  0  0  0  0  0  0  0  0
   -4.0514   -1.4118    1.6297 C   0  0  0  0  0  0  0  0  0  0  0  0
   -4.8453   -0.9560   -0.5654 C   0  0  0  0  0  0  0  0  0  0  0  0
   -5.1241   -1.2262    0.7646 C   0  0  0  0  0  0  0  0  0  0  0  0
    2.7877   -0.7996   -1.6588 H   0  0  0  0  0  0  0  0  0  0  0  0
    1.9941   -3.0661    0.0188 H   0  0  0  0  0  0  0  0  0  0  0  0
    3.4481   -2.8236   -0.9503 H   0  0  0  0  0  0  0  0  0  0  0  0
    2.9583   -2.1884    1.9639 H   0  0  0  0  0  0  0  0  0  0  0  0
    4.2497   -0.1528    1.8733 H   0  0  0  0  0  0  0  0  0  0  0  0
    4.8680   -0.5176    0.2506 H   0  0  0  0  0  0  0  0  0  0  0  0
    3.5792    1.2749   -1.1662 H   0  0  0  0  0  0  0  0  0  0  0  0
    3.6532    1.8815    0.4813 H   0  0  0  0  0  0  0  0  0  0  0  0
    4.3898   -3.8248    1.2082 H   0  0  0  0  0  0  0  0  0  0  0  0
    1.4889    2.6763   -2.4715 H   0  0  0  0  0  0  0  0  0  0  0  0
   -0.7954    3.8187   -1.5067 H   0  0  0  0  0  0  0  0  0  0  0  0
   -0.4797    3.6824    2.3639 H   0  0  0  0  0  0  0  0  0  0  0  0
   -1.7096    4.1155    1.1577 H   0  0  0  0  0  0  0  0  0  0  0  0
   -1.9188   -1.4677    1.8261 H   0  0  0  0  0  0  0  0  0  0  0  0
   -2.3837    2.4502    2.5469 H   0  0  0  0  0  0  0  0  0  0  0  0
   -4.2288   -1.6247    2.6796 H   0  0  0  0  0  0  0  0  0  0  0  0
   -5.6466   -0.8030   -1.2809 H   0  0  0  0  0  0  0  0  0  0  0  0
   -6.1459   -1.2907    1.1204 H   0  0  0  0  0  0  0  0  0  0  0  0
  1 11  1  0  0  0  0
  1 34  1  0  0  0  0
  2  7  1  0  0  0  0
  2 14  1  0  0  0  0
  3 15  1  0  0  0  0
  3 18  1  0  0  0  0
  4 21  1  0  0  0  0
  4 40  1  0  0  0  0
  5  9  1  0  0  0  0
  5 12  1  0  0  0  0
  5 13  1  0  0  0  0
  6 14  2  0  0  0  0
  6 17  1  0  0  0  0
  7 17  2  0  0  0  0
  8 20  1  0  0  0  0
  8 24  2  0  0  0  0
  9 10  1  0  0  0  0
  9 14  1  0  0  0  0
  9 26  1  0  0  0  0
 10 11  1  0  0  0  0
 10 27  1  0  0  0  0
 10 28  1  0  0  0  0
 11 12  1  0  0  0  0
 11 29  1  0  0  0  0
 12 30  1  0  0  0  0
 12 31  1  0  0  0  0
 13 15  1  0  0  0  0
 13 32  1  0  0  0  0
 13 33  1  0  0  0  0
 15 16  2  0  0  0  0
 16 19  1  0  0  0  0
 16 35  1  0  0  0  0
 17 20  1  0  0  0  0
 18 19  2  0  0  0  0
 18 21  1  0  0  0  0
 19 36  1  0  0  0  0
 20 22  2  0  0  0  0
 21 37  1  0  0  0  0
 21 38  1  0  0  0  0
 22 23  1  0  0  0  0
 22 39  1  0  0  0  0
 23 25  2  0  0  0  0
 23 41  1  0  0  0  0
 24 25  1  0  0  0  0
 24 42  1  0  0  0  0
 25 43  1  0  0  0  0
M  END
> <PUBCHEM_COMPOUND_CID>
26743672

> <PUBCHEM_CONFORMER_RMSD>
1

> <PUBCHEM_CONFORMER_DIVERSEORDER>
1
106
127
56
12
110
11
60
79
46
105
85
49
29
120
28
121
80
73
89
92
32
3
83
100
20
59
102
2
43
75
82
61
124
91
17
30
66
96
5
122
88
42
104
116
41
101
7
27
71
35
84
14
93
123
86
109
10
76
97
98
38
31
51
95
99
57
37
113
107
33
81
25
44
72
9
50
13
111
45
63
114
125
87
69
16
115
36
19
55
15
70
26
77
4
108
53
39
47
118
8
65
126
64
74
67
23
18
58
90
40
119
6
103
54
78
94
112
34
68
62
21
24
48
117
52
22

> <PUBCHEM_MMFF94_PARTIAL_CHARGES>
32
1 -0.68
11 0.28
12 0.27
13 0.45
14 0.3
15 -0.04
16 -0.15
17 0.46
18 -0.04
19 -0.15
2 -0.02
20 0.36
21 0.46
22 -0.15
23 -0.15
24 0.16
25 -0.15
3 -0.28
34 0.4
35 0.15
36 0.15
39 0.15
4 -0.68
40 0.4
41 0.15
42 0.15
43 0.15
5 -0.81
6 -0.57
7 -0.41
8 -0.62
9 0.45

> <PUBCHEM_EFFECTIVE_ROTOR_COUNT>
6

> <PUBCHEM_PHARMACOPHORE_FEATURES>
12
1 1 acceptor
1 1 donor
1 3 acceptor
1 4 acceptor
1 4 donor
1 5 cation
1 8 acceptor
3 6 7 17 cation
5 2 6 7 14 17 rings
5 3 15 16 18 19 rings
5 5 9 10 11 12 rings
6 8 20 22 23 24 25 rings

> <PUBCHEM_HEAVY_ATOM_COUNT>
25

> <PUBCHEM_ATOM_DEF_STEREO_COUNT>
2

> <PUBCHEM_ATOM_UDEF_STEREO_COUNT>
0

> <PUBCHEM_BOND_DEF_STEREO_COUNT>
0

> <PUBCHEM_BOND_UDEF_STEREO_COUNT>
0

> <PUBCHEM_ISOTOPIC_ATOM_COUNT>
0

> <PUBCHEM_COMPONENT_COUNT>
1

> <PUBCHEM_CACTVS_TAUTO_COUNT>
1

> <PUBCHEM_CONFORMER_ID>
0198137800000001

> <PUBCHEM_MMFF94_ENERGY>
36.3602

> <PUBCHEM_FEATURE_SELFOVERLAP>
60.898

> <PUBCHEM_SHAPE_FINGERPRINT>
10064457 181 17181100349529910628
10165383 225 17395028985356209861
10382601 240 18198898305023363720
104564 63 18272664432319128588
10688039 33 18187640288980293517
12293681 160 17693684888045526392
12422481 6 17914918456188422785
12507560 14 18411131441858233455
12633257 1 17897996078319366786
13134695 92 18341603871615474165
13140716 1 18267304240134853944
13583140 156 18049164659800963167
13965767 371 17704068521227948450
14790565 3 17831298676830275388
14866123 147 17181362608770633458
15420108 30 17414699158599085620
17349148 13 17632299038213203887
19734167 9 17342112398250963552
21041028 32 18412539890567402532
21344244 78 18272366499312427395
23419403 2 18055318466929765280
23557571 272 14763511611690601631
23559900 14 17095520738408449943
24893989 43 14950792350678973840
2818148 4 18049747147612790414
3052486 1 18195833793716706092
3380486 145 17982692464282500260
345986 75 18343582945131928585
35225 105 17394747072250104162
484985 159 17318998447980607762
5282274 181 17698469640262719033
5283268 108 18270691882535665458
7064713 232 17344651252821055529
7097593 13 18267301126120287383
7471813 234 18271232889865194615
81228 2 18122070797009085711
8509985 295 18412267272351267825

> <PUBCHEM_SHAPE_MULTIPOLES>
471.09
8.23
4.06
1.7
5.71
3.53
0.14
-7.7
-2.7
-2.55
-1.01
0.56
0.19
-1.11

> <PUBCHEM_SHAPE_SELFOVERLAP>
1024.916

> <PUBCHEM_SHAPE_VOLUME>
258.5

> <PUBCHEM_COORDINATE_TYPE>
2
5
10

$$$$
