11884237
  -OEChem-12032416363D

 55 59  0     1  0  0  0  0  0999 V2000
    9.1869    0.6568   -0.6208 S   0  0  0  0  0  0  0  0  0  0  0  0
   -7.9734    2.4313    0.4482 F   0  0  0  0  0  0  0  0  0  0  0  0
   -6.2647    2.5574    1.7780 F   0  0  0  0  0  0  0  0  0  0  0  0
   -6.0601    3.1353   -0.3083 F   0  0  0  0  0  0  0  0  0  0  0  0
    5.8672   -0.0483    2.0234 O   0  0  0  0  0  0  0  0  0  0  0  0
    3.1299   -2.3773    0.3232 O   0  0  0  0  0  0  0  0  0  0  0  0
   -0.2484    1.0606   -1.8447 O   0  0  0  0  0  0  0  0  0  0  0  0
    1.4533    0.3529   -0.4464 N   0  0  0  0  0  0  0  0  0  0  0  0
    4.2115    0.4121    0.4517 N   0  0  0  0  0  0  0  0  0  0  0  0
    0.8793   -2.5133    0.0114 N   0  0  0  0  0  0  0  0  0  0  0  0
    6.9299    1.9335   -0.0635 N   0  0  0  0  0  0  0  0  0  0  0  0
    1.8545   -0.3727    0.7510 C   0  0  2  0  0  0  0  0  0  0  0  0
    3.1153    0.2100    1.4016 C   0  0  0  0  0  0  0  0  0  0  0  0
    2.4166    1.2973   -1.0143 C   0  0  0  0  0  0  0  0  0  0  0  0
    3.8443    0.7803   -0.9177 C   0  0  0  0  0  0  0  0  0  0  0  0
    5.5333    0.2595    0.8823 C   0  0  0  0  0  0  0  0  0  0  0  0
    6.6080    0.5070   -0.1240 C   0  0  2  0  0  0  0  0  0  0  0  0
    2.0304   -1.8200    0.3193 C   0  0  0  0  0  0  0  0  0  0  0  0
    0.1580    0.3129   -0.9537 C   0  0  0  0  0  0  0  0  0  0  0  0
   -0.7921   -0.7014   -0.4234 C   0  0  0  0  0  0  0  0  0  0  0  0
    7.8757   -0.2647    0.2184 C   0  0  0  0  0  0  0  0  0  0  0  0
   -0.4377   -2.0180   -0.0866 C   0  0  0  0  0  0  0  0  0  0  0  0
    8.1506    2.1264   -0.8411 C   0  0  0  0  0  0  0  0  0  0  0  0
   -2.1513   -0.3374   -0.4430 C   0  0  0  0  0  0  0  0  0  0  0  0
   -1.4567   -2.9566    0.1533 C   0  0  0  0  0  0  0  0  0  0  0  0
   -3.1469   -1.2697   -0.1544 C   0  0  0  0  0  0  0  0  0  0  0  0
   -2.8001   -2.5839    0.1304 C   0  0  0  0  0  0  0  0  0  0  0  0
   -4.5387   -0.8752   -0.1749 C   0  0  0  0  0  0  0  0  0  0  0  0
   -4.8994    0.4288    0.1651 C   0  0  0  0  0  0  0  0  0  0  0  0
   -5.5203   -1.7992   -0.5334 C   0  0  0  0  0  0  0  0  0  0  0  0
   -6.2416    0.8085    0.1466 C   0  0  0  0  0  0  0  0  0  0  0  0
   -6.8622   -1.4195   -0.5519 C   0  0  0  0  0  0  0  0  0  0  0  0
   -7.2230   -0.1157   -0.2121 C   0  0  0  0  0  0  0  0  0  0  0  0
   -6.6282    2.2024    0.5101 C   0  0  0  0  0  0  0  0  0  0  0  0
    1.0454   -0.3305    1.4907 H   0  0  0  0  0  0  0  0  0  0  0  0
    2.8912    1.1983    1.8226 H   0  0  0  0  0  0  0  0  0  0  0  0
    3.4509   -0.4235    2.2303 H   0  0  0  0  0  0  0  0  0  0  0  0
    2.3081    2.2359   -0.4569 H   0  0  0  0  0  0  0  0  0  0  0  0
    2.1624    1.5075   -2.0587 H   0  0  0  0  0  0  0  0  0  0  0  0
    3.9648   -0.1188   -1.5334 H   0  0  0  0  0  0  0  0  0  0  0  0
    4.5254    1.5458   -1.2990 H   0  0  0  0  0  0  0  0  0  0  0  0
    6.2839    0.2187   -1.1302 H   0  0  0  0  0  0  0  0  0  0  0  0
    8.1142   -0.2867    1.2862 H   0  0  0  0  0  0  0  0  0  0  0  0
    7.8346   -1.2950   -0.1476 H   0  0  0  0  0  0  0  0  0  0  0  0
    0.9824   -3.5230   -0.0574 H   0  0  0  0  0  0  0  0  0  0  0  0
    7.1359    2.1817    0.9054 H   0  0  0  0  0  0  0  0  0  0  0  0
    7.9092    2.2370   -1.9030 H   0  0  0  0  0  0  0  0  0  0  0  0
    8.6842    3.0248   -0.5176 H   0  0  0  0  0  0  0  0  0  0  0  0
   -2.4127    0.6781   -0.7338 H   0  0  0  0  0  0  0  0  0  0  0  0
   -1.2088   -3.9880    0.3981 H   0  0  0  0  0  0  0  0  0  0  0  0
   -3.5347   -3.3459    0.3755 H   0  0  0  0  0  0  0  0  0  0  0  0
   -4.1648    1.1663    0.4790 H   0  0  0  0  0  0  0  0  0  0  0  0
   -5.2848   -2.8161   -0.8349 H   0  0  0  0  0  0  0  0  0  0  0  0
   -7.6261   -2.1369   -0.8376 H   0  0  0  0  0  0  0  0  0  0  0  0
   -8.2732    0.1614   -0.2342 H   0  0  0  0  0  0  0  0  0  0  0  0
  1 21  1  0  0  0  0
  1 23  1  0  0  0  0
  2 34  1  0  0  0  0
  3 34  1  0  0  0  0
  4 34  1  0  0  0  0
  5 16  2  0  0  0  0
  6 18  2  0  0  0  0
  7 19  2  0  0  0  0
  8 12  1  0  0  0  0
  8 14  1  0  0  0  0
  8 19  1  0  0  0  0
  9 13  1  0  0  0  0
  9 15  1  0  0  0  0
  9 16  1  0  0  0  0
 10 18  1  0  0  0  0
 10 22  1  0  0  0  0
 10 45  1  0  0  0  0
 11 17  1  0  0  0  0
 11 23  1  0  0  0  0
 11 46  1  0  0  0  0
 12 13  1  0  0  0  0
 12 18  1  0  0  0  0
 12 35  1  0  0  0  0
 13 36  1  0  0  0  0
 13 37  1  0  0  0  0
 14 15  1  0  0  0  0
 14 38  1  0  0  0  0
 14 39  1  0  0  0  0
 15 40  1  0  0  0  0
 15 41  1  0  0  0  0
 16 17  1  0  0  0  0
 17 21  1  0  0  0  0
 17 42  1  0  0  0  0
 19 20  1  0  0  0  0
 20 22  2  0  0  0  0
 20 24  1  0  0  0  0
 21 43  1  0  0  0  0
 21 44  1  0  0  0  0
 22 25  1  0  0  0  0
 23 47  1  0  0  0  0
 23 48  1  0  0  0  0
 24 26  2  0  0  0  0
 24 49  1  0  0  0  0
 25 27  2  0  0  0  0
 25 50  1  0  0  0  0
 26 27  1  0  0  0  0
 26 28  1  0  0  0  0
 27 51  1  0  0  0  0
 28 29  2  0  0  0  0
 28 30  1  0  0  0  0
 29 31  1  0  0  0  0
 29 52  1  0  0  0  0
 30 32  2  0  0  0  0
 30 53  1  0  0  0  0
 31 33  2  0  0  0  0
 31 34  1  0  0  0  0
 32 33  1  0  0  0  0
 32 54  1  0  0  0  0
 33 55  1  0  0  0  0
M  END
> <PUBCHEM_COMPOUND_CID>
11884237

> <PUBCHEM_CONFORMER_RMSD>
0.8

> <PUBCHEM_CONFORMER_DIVERSEORDER>
1
8
33
30
31
22
9
19
12
32
6
16
34
20
25
4
24
28
18
15
21
3
7
10
29
35
17
5
26
23
27
2
14
11
13

> <PUBCHEM_MMFF94_PARTIAL_CHARGES>
41
1 -0.46
10 -0.55
11 -0.9
12 0.36
13 0.3
14 0.3
15 0.3
16 0.57
17 0.33
18 0.57
19 0.54
2 -0.34
20 0.09
21 0.23
22 0.12
23 0.5
24 -0.15
25 -0.15
27 -0.15
29 -0.15
3 -0.34
30 -0.15
31 -0.14
32 -0.15
33 -0.15
34 1.16
4 -0.34
45 0.37
46 0.36
49 0.15
5 -0.57
50 0.15
51 0.15
52 0.15
53 0.15
54 0.15
55 0.15
6 -0.57
7 -0.57
8 -0.66
9 -0.66

> <PUBCHEM_EFFECTIVE_ROTOR_COUNT>
6

> <PUBCHEM_PHARMACOPHORE_FEATURES>
11
1 10 donor
1 11 cation
1 11 donor
1 5 acceptor
1 6 acceptor
1 7 acceptor
5 1 11 17 21 23 rings
6 20 22 24 25 26 27 rings
6 28 29 30 31 32 33 rings
6 8 9 12 13 14 15 rings
7 8 10 12 18 19 20 22 rings

> <PUBCHEM_HEAVY_ATOM_COUNT>
34

> <PUBCHEM_ATOM_DEF_STEREO_COUNT>
2

> <PUBCHEM_ATOM_UDEF_STEREO_COUNT>
0

> <PUBCHEM_BOND_DEF_STEREO_COUNT>
0

> <PUBCHEM_BOND_UDEF_STEREO_COUNT>
0

> <PUBCHEM_ISOTOPIC_ATOM_COUNT>
0

> <PUBCHEM_COMPONENT_COUNT>
1

> <PUBCHEM_CACTVS_TAUTO_COUNT>
3

> <PUBCHEM_CONFORMER_ID>
00B556CD00000001

> <PUBCHEM_MMFF94_ENERGY>
110.2784

> <PUBCHEM_FEATURE_SELFOVERLAP>
55.851

> <PUBCHEM_SHAPE_FINGERPRINT>
10 15 17967249806153327875
10299344 5 18187079577221485882
10674148 151 18410007759245746490
10906281 52 17968103053294796202
10951579 204 18198363783211159772
11181472 205 18272097059171559824
11315181 36 18186799223474040479
11991303 11 15625650734459813597
12133447 93 18339934744572036244
13248334 5 18050568443876371627
13383665 225 18262255360872373548
14251764 18 18187642539484932750
14294032 229 18335975411188871573
14394314 77 18411141303736394625
14849402 71 18334295409077755677
15131766 46 16196750367773940016
15183329 4 18187639236686763006
15238133 3 18412265055568141244
15276724 80 17822001021953323252
15289351 153 18341606010709368354
15439362 3 18270403785020981111
15461852 350 17988358282339983759
1577012 14 18407755932581049826
16728433 281 17631466586966656896
19302320 297 18260558822562388629
21298829 104 18409450284347069869
21585482 111 18335700477928134421
23522609 53 17822307824267782636
24771293 8 18335139795342048325
2747138 104 13623523537928713270
3178227 256 15574715803016991128
335352 9 18261389009422298390
350125 39 18260824930166446788
4017518 198 18131073770729210734
4073 2 18261114075876400139
4093350 32 17775004549218912902
4169191 19 18334851706437441999
44280117 145 18051412061837260438
44802255 64 17060338535567681695
5028188 123 18339366383439687854
5104073 3 17822852120713779571
5758199 1 18186800296646159034
6328613 192 18261955266547730604
636775 72 18341891947704185592
9980921 7 18187922847660679437

> <PUBCHEM_SHAPE_MULTIPOLES>
644.2
26.07
2.86
1.13
15.9
0.13
0.2
16.53
0.9
-4.52
0.24
0.7
0.37
-2.23

> <PUBCHEM_SHAPE_SELFOVERLAP>
1406.142

> <PUBCHEM_SHAPE_VOLUME>
353.9

> <PUBCHEM_COORDINATE_TYPE>
2
5
10

$$$$
