71693487
  -OEChem-12032416233D

 55 56  0     1  0  0  0  0  0999 V2000
   -5.5928   -0.2386   -0.5621 S   0  0  0  0  0  0  0  0  0  0  0  0
    1.2850    2.6384    0.5293 O   0  0  0  0  0  0  0  0  0  0  0  0
    1.7591   -0.8572   -1.6445 O   0  0  0  0  0  0  0  0  0  0  0  0
    4.7845    2.0707    0.8816 O   0  0  0  0  0  0  0  0  0  0  0  0
    4.4524   -0.5651   -1.4149 O   0  0  0  0  0  0  0  0  0  0  0  0
   -7.0192    0.0140   -0.6459 O   0  0  0  0  0  0  0  0  0  0  0  0
   -4.8715   -0.7755   -1.6991 O   0  0  0  0  0  0  0  0  0  0  0  0
    3.0720    0.5155    0.5960 N   0  0  0  0  0  0  0  0  0  0  0  0
    5.4787   -2.2188   -0.1526 N   0  0  0  0  0  0  0  0  0  0  0  0
   -4.8235    1.1791    0.0415 N   0  0  0  0  0  0  0  0  0  0  0  0
    1.6168    0.2604    0.4624 C   0  0  1  0  0  0  0  0  0  0  0  0
    0.8973    1.4616   -0.1811 C   0  0  1  0  0  0  0  0  0  0  0  0
    1.3148   -1.0293   -0.3143 C   0  0  0  0  0  0  0  0  0  0  0  0
   -0.6142    1.3859   -0.1222 C   0  0  0  0  0  0  0  0  0  0  0  0
    3.6038    1.8055    0.6459 C   0  0  0  0  0  0  0  0  0  0  0  0
    3.9398   -0.6117    0.9262 C   0  0  0  0  0  0  0  0  0  0  0  0
    2.6442    2.9300    0.3105 C   0  0  0  0  0  0  0  0  0  0  0  0
   -1.2582    1.2396    1.1065 C   0  0  0  0  0  0  0  0  0  0  0  0
   -1.3624    1.4634   -1.2968 C   0  0  0  0  0  0  0  0  0  0  0  0
    4.6369   -1.1144   -0.3257 C   0  0  0  0  0  0  0  0  0  0  0  0
   -3.3984    1.2487   -0.0143 C   0  0  0  0  0  0  0  0  0  0  0  0
   -2.6502    1.1711    1.1605 C   0  0  0  0  0  0  0  0  0  0  0  0
   -2.7544    1.3949   -1.2430 C   0  0  0  0  0  0  0  0  0  0  0  0
   -5.3439   -1.3405    0.8120 C   0  0  0  0  0  0  0  0  0  0  0  0
   -5.9442   -2.7097    0.5393 C   0  0  0  0  0  0  0  0  0  0  0  0
    5.6804   -2.8508    1.1453 C   0  0  0  0  0  0  0  0  0  0  0  0
    6.2178   -2.8204   -1.2599 C   0  0  0  0  0  0  0  0  0  0  0  0
   -5.7503   -3.6468    1.7196 C   0  0  0  0  0  0  0  0  0  0  0  0
    1.2770    0.1283    1.4973 H   0  0  0  0  0  0  0  0  0  0  0  0
    1.2092    1.5820   -1.2278 H   0  0  0  0  0  0  0  0  0  0  0  0
    0.2392   -1.2328   -0.3328 H   0  0  0  0  0  0  0  0  0  0  0  0
    1.7970   -1.9136    0.1089 H   0  0  0  0  0  0  0  0  0  0  0  0
    3.3621   -1.3951    1.4224 H   0  0  0  0  0  0  0  0  0  0  0  0
    4.7092   -0.2574    1.6217 H   0  0  0  0  0  0  0  0  0  0  0  0
    2.8998    3.7902    0.9379 H   0  0  0  0  0  0  0  0  0  0  0  0
    2.8001    3.2214   -0.7347 H   0  0  0  0  0  0  0  0  0  0  0  0
   -0.6955    1.1889    2.0343 H   0  0  0  0  0  0  0  0  0  0  0  0
   -0.8752    1.5794   -2.2611 H   0  0  0  0  0  0  0  0  0  0  0  0
   -3.1415    1.0586    2.1235 H   0  0  0  0  0  0  0  0  0  0  0  0
   -3.3238    1.4695   -2.1657 H   0  0  0  0  0  0  0  0  0  0  0  0
    1.5483   -1.6747   -2.1268 H   0  0  0  0  0  0  0  0  0  0  0  0
   -5.2257    1.5576    0.9097 H   0  0  0  0  0  0  0  0  0  0  0  0
   -5.8072   -0.8807    1.6908 H   0  0  0  0  0  0  0  0  0  0  0  0
   -4.2661   -1.4308    0.9770 H   0  0  0  0  0  0  0  0  0  0  0  0
   -7.0157   -2.6167    0.3272 H   0  0  0  0  0  0  0  0  0  0  0  0
   -5.4844   -3.1527   -0.3518 H   0  0  0  0  0  0  0  0  0  0  0  0
    5.2529   -3.8575    1.1039 H   0  0  0  0  0  0  0  0  0  0  0  0
    6.7567   -2.9300    1.3294 H   0  0  0  0  0  0  0  0  0  0  0  0
    5.2373   -2.3214    1.9868 H   0  0  0  0  0  0  0  0  0  0  0  0
    5.9276   -3.8711   -1.3488 H   0  0  0  0  0  0  0  0  0  0  0  0
    6.0008   -2.3076   -2.2002 H   0  0  0  0  0  0  0  0  0  0  0  0
    7.2889   -2.7475   -1.0512 H   0  0  0  0  0  0  0  0  0  0  0  0
   -4.6867   -3.7913    1.9350 H   0  0  0  0  0  0  0  0  0  0  0  0
   -6.2326   -3.2503    2.6188 H   0  0  0  0  0  0  0  0  0  0  0  0
   -6.1888   -4.6259    1.5027 H   0  0  0  0  0  0  0  0  0  0  0  0
  1  6  2  0  0  0  0
  1  7  2  0  0  0  0
  1 10  1  0  0  0  0
  1 24  1  0  0  0  0
  2 12  1  0  0  0  0
  2 17  1  0  0  0  0
  3 13  1  0  0  0  0
  3 41  1  0  0  0  0
  4 15  2  0  0  0  0
  5 20  2  0  0  0  0
  8 11  1  0  0  0  0
  8 15  1  0  0  0  0
  8 16  1  0  0  0  0
  9 20  1  0  0  0  0
  9 26  1  0  0  0  0
  9 27  1  0  0  0  0
 10 21  1  0  0  0  0
 10 42  1  0  0  0  0
 11 12  1  0  0  0  0
 11 13  1  0  0  0  0
 11 29  1  0  0  0  0
 12 14  1  0  0  0  0
 12 30  1  0  0  0  0
 13 31  1  0  0  0  0
 13 32  1  0  0  0  0
 14 18  2  0  0  0  0
 14 19  1  0  0  0  0
 15 17  1  0  0  0  0
 16 20  1  0  0  0  0
 16 33  1  0  0  0  0
 16 34  1  0  0  0  0
 17 35  1  0  0  0  0
 17 36  1  0  0  0  0
 18 22  1  0  0  0  0
 18 37  1  0  0  0  0
 19 23  2  0  0  0  0
 19 38  1  0  0  0  0
 21 22  2  0  0  0  0
 21 23  1  0  0  0  0
 22 39  1  0  0  0  0
 23 40  1  0  0  0  0
 24 25  1  0  0  0  0
 24 43  1  0  0  0  0
 24 44  1  0  0  0  0
 25 28  1  0  0  0  0
 25 45  1  0  0  0  0
 25 46  1  0  0  0  0
 26 47  1  0  0  0  0
 26 48  1  0  0  0  0
 26 49  1  0  0  0  0
 27 50  1  0  0  0  0
 27 51  1  0  0  0  0
 27 52  1  0  0  0  0
 28 53  1  0  0  0  0
 28 54  1  0  0  0  0
 28 55  1  0  0  0  0
M  END
> <PUBCHEM_COMPOUND_CID>
71693487

> <PUBCHEM_CONFORMER_RMSD>
1

> <PUBCHEM_CONFORMER_DIVERSEORDER>
1
121
126
11
37
48
77
19
74
44
29
34
87
56
109
40
88
30
75
96
122
49
92
129
85
46
38
115
51
90
41
123
63
89
79
124
50
82
43
111
73
52
61
91
39
98
81
110
93
106
116
86
72
104
80
7
100
94
102
84
101
105
65
118
64
20
9
114
60
28
17
15
70
108
128
18
26
62
99
95
33
83
78
23
3
71
127
35
97
103
53
14
10
32
13
27
31
57
117
67
54
5
112
6
55
4
12
24
68
21
2
36
125
58
22
119
69
113
66
59
76
25
8
42
120
45
107
47
16

> <PUBCHEM_MMFF94_PARTIAL_CHARGES>
32
1 1.33
10 -0.76
11 0.3
12 0.42
13 0.28
14 -0.14
15 0.57
16 0.36
17 0.34
18 -0.15
19 -0.15
2 -0.56
20 0.57
21 0.2
22 -0.15
23 -0.15
24 0.11
26 0.3
27 0.3
3 -0.68
37 0.15
38 0.15
39 0.15
4 -0.57
40 0.15
41 0.4
42 0.42
5 -0.57
6 -0.65
7 -0.65
8 -0.66
9 -0.66

> <PUBCHEM_EFFECTIVE_ROTOR_COUNT>
10

> <PUBCHEM_PHARMACOPHORE_FEATURES>
11
1 10 donor
1 2 acceptor
1 28 hydrophobe
1 3 acceptor
1 3 donor
1 4 acceptor
1 5 acceptor
1 6 acceptor
1 7 acceptor
6 14 18 19 21 22 23 rings
6 2 8 11 12 15 17 rings

> <PUBCHEM_HEAVY_ATOM_COUNT>
28

> <PUBCHEM_ATOM_DEF_STEREO_COUNT>
2

> <PUBCHEM_ATOM_UDEF_STEREO_COUNT>
0

> <PUBCHEM_BOND_DEF_STEREO_COUNT>
0

> <PUBCHEM_BOND_UDEF_STEREO_COUNT>
0

> <PUBCHEM_ISOTOPIC_ATOM_COUNT>
0

> <PUBCHEM_COMPONENT_COUNT>
1

> <PUBCHEM_CACTVS_TAUTO_COUNT>
2

> <PUBCHEM_CONFORMER_ID>
0445F4AF00000001

> <PUBCHEM_MMFF94_ENERGY>
72.5421

> <PUBCHEM_FEATURE_SELFOVERLAP>
55.848

> <PUBCHEM_SHAPE_FINGERPRINT>
10 15 11671771694045587727
10366900 7 17676491588329220608
10883706 89 11599179634572667294
11135609 99 18410008836755679086
117089 54 17984148050475638670
11963148 33 18265328602402683314
12166972 35 18260554373007191412
12236239 1 17775281651591829225
12422481 6 17203329987783059231
13009979 54 17703792462442687168
13533116 47 18202277022234578400
1361 4 18337391668481920291
13782708 43 18334295348800189170
14211702 104 18336267946202429779
14251764 30 18336264535823966044
14955137 171 18059852827355262472
15510800 12 17824549797740172163
1813 80 17986960648706105508
18222031 100 18341892927610245968
20028762 73 17988637471961855734
20281389 69 9871752403556856351
21033650 10 16588299424651443925
21682296 61 18200878378977099503
22393880 68 18040988528021886611
23379529 103 17680436838704616659
23424784 1240 18263087780857443723
23522609 53 18121531014368813220
23559900 14 18337383942236791825
25122255 55 18335143107168339923
34797466 226 17095249124639734124
3862424 121 17532677795679219747
392239 28 16343694439726102883
4073 2 18334011739826125897
465052 167 18201719505957715750
484989 97 18336276690940837190
5104073 3 18059859454326394169
7495541 125 18410295783456791372
7970288 3 18194117417938985066
8863177 126 18408605872259869211
999808 66 18130230363231034382

> <PUBCHEM_SHAPE_MULTIPOLES>
529.92
17.31
3.7
1.42
8.13
2.22
-0.23
16.19
-0.25
-1.12
1.11
0.2
0.45
2.73

> <PUBCHEM_SHAPE_SELFOVERLAP>
1074.239

> <PUBCHEM_SHAPE_VOLUME>
310.4

> <PUBCHEM_COORDINATE_TYPE>
2
5
10

$$$$
