44716630
  -OEChem-12032416363D

 61 64  0     1  0  0  0  0  0999 V2000
    4.9446   -0.0913    1.9433 S   0  0  0  0  0  0  0  0  0  0  0  0
   -5.3180   -2.8073    1.3211 S   0  0  0  0  0  0  0  0  0  0  0  0
   -0.4394   -0.6657   -2.1605 O   0  0  0  0  0  0  0  0  0  0  0  0
   -4.2898    2.0248    0.1505 O   0  0  0  0  0  0  0  0  0  0  0  0
    4.7839   -0.4708   -0.6094 N   0  0  0  0  0  0  0  0  0  0  0  0
   -4.7130   -0.2085   -0.3349 N   0  0  0  0  0  0  0  0  0  0  0  0
    6.9511   -0.7064    0.3079 N   0  0  0  0  0  0  0  0  0  0  0  0
    1.0980    0.9679    0.9438 C   0  0  1  0  0  0  0  0  0  0  0  0
    0.9760   -0.0084   -0.2918 C   0  0  1  0  0  0  0  0  0  0  0  0
   -0.2454    0.3555   -1.1829 C   0  0  2  0  0  0  0  0  0  0  0  0
   -1.5581    0.4737   -0.3781 C   0  0  1  0  0  0  0  0  0  0  0  0
   -0.2467    1.0127    1.7069 C   0  0  0  0  0  0  0  0  0  0  0  0
    2.3348   -0.1159   -1.0977 C   0  0  1  0  0  0  0  0  0  0  0  0
   -1.4232    1.4074    0.8247 C   0  0  0  0  0  0  0  0  0  0  0  0
    2.1793    0.4335    1.9343 C   0  0  0  0  0  0  0  0  0  0  0  0
    1.4803    2.4078    0.5123 C   0  0  0  0  0  0  0  0  0  0  0  0
   -2.7262    0.9359   -1.2577 C   0  0  2  0  0  0  0  0  0  0  0  0
    3.5085   -0.1916   -0.1510 C   0  0  0  0  0  0  0  0  0  0  0  0
    3.4206    0.0664    1.2013 C   0  0  0  0  0  0  0  0  0  0  0  0
    2.3702   -1.3036   -2.0709 C   0  0  0  0  0  0  0  0  0  0  0  0
   -2.4554    2.3058   -1.8523 C   0  0  0  0  0  0  0  0  0  0  0  0
   -3.9772    0.9744   -0.4164 C   0  0  0  0  0  0  0  0  0  0  0  0
    5.6184   -0.4569    0.4072 C   0  0  0  0  0  0  0  0  0  0  0  0
   -5.9396   -0.2475    0.4637 C   0  0  0  0  0  0  0  0  0  0  0  0
   -4.3047   -1.5001   -0.9002 C   0  0  0  0  0  0  0  0  0  0  0  0
   -5.7529   -1.0843    1.7238 C   0  0  0  0  0  0  0  0  0  0  0  0
   -3.9192   -2.4835    0.1990 C   0  0  0  0  0  0  0  0  0  0  0  0
    7.6432   -1.0242   -0.9359 C   0  0  0  0  0  0  0  0  0  0  0  0
    0.7832   -1.0142    0.1153 H   0  0  0  0  0  0  0  0  0  0  0  0
   -0.0102    1.2765   -1.7206 H   0  0  0  0  0  0  0  0  0  0  0  0
   -1.7901   -0.5245    0.0084 H   0  0  0  0  0  0  0  0  0  0  0  0
   -0.4560    0.0259    2.1417 H   0  0  0  0  0  0  0  0  0  0  0  0
   -0.1798    1.7103    2.5517 H   0  0  0  0  0  0  0  0  0  0  0  0
    2.4614    0.8008   -1.6890 H   0  0  0  0  0  0  0  0  0  0  0  0
   -1.3001    2.4540    0.5385 H   0  0  0  0  0  0  0  0  0  0  0  0
   -2.3126    1.3585    1.4620 H   0  0  0  0  0  0  0  0  0  0  0  0
    2.3877    1.1827    2.7081 H   0  0  0  0  0  0  0  0  0  0  0  0
    1.8089   -0.4646    2.4460 H   0  0  0  0  0  0  0  0  0  0  0  0
    0.7849    2.8205   -0.2239 H   0  0  0  0  0  0  0  0  0  0  0  0
    2.4794    2.4620    0.0697 H   0  0  0  0  0  0  0  0  0  0  0  0
    1.4787    3.0829    1.3762 H   0  0  0  0  0  0  0  0  0  0  0  0
   -2.8625    0.2848   -2.1229 H   0  0  0  0  0  0  0  0  0  0  0  0
    2.0842   -2.2356   -1.5714 H   0  0  0  0  0  0  0  0  0  0  0  0
    3.3714   -1.4512   -2.4917 H   0  0  0  0  0  0  0  0  0  0  0  0
    1.7097   -1.1463   -2.9266 H   0  0  0  0  0  0  0  0  0  0  0  0
   -0.6161   -1.5002   -1.6935 H   0  0  0  0  0  0  0  0  0  0  0  0
   -1.6173    2.3018   -2.5543 H   0  0  0  0  0  0  0  0  0  0  0  0
   -3.3288    2.6271   -2.4354 H   0  0  0  0  0  0  0  0  0  0  0  0
   -2.2882    3.0985   -1.1192 H   0  0  0  0  0  0  0  0  0  0  0  0
   -6.7445   -0.6467   -0.1654 H   0  0  0  0  0  0  0  0  0  0  0  0
   -6.2343    0.7676    0.7501 H   0  0  0  0  0  0  0  0  0  0  0  0
   -3.4631   -1.4242   -1.5850 H   0  0  0  0  0  0  0  0  0  0  0  0
   -5.1448   -1.8837   -1.4927 H   0  0  0  0  0  0  0  0  0  0  0  0
    7.5286   -0.6747    1.1439 H   0  0  0  0  0  0  0  0  0  0  0  0
   -4.9603   -0.6667    2.3541 H   0  0  0  0  0  0  0  0  0  0  0  0
   -6.6773   -1.0916    2.3094 H   0  0  0  0  0  0  0  0  0  0  0  0
   -3.6114   -3.4361   -0.2433 H   0  0  0  0  0  0  0  0  0  0  0  0
   -3.0860   -2.1116    0.8015 H   0  0  0  0  0  0  0  0  0  0  0  0
    7.5438   -0.2024   -1.6517 H   0  0  0  0  0  0  0  0  0  0  0  0
    8.7073   -1.1802   -0.7358 H   0  0  0  0  0  0  0  0  0  0  0  0
    7.2377   -1.9392   -1.3784 H   0  0  0  0  0  0  0  0  0  0  0  0
  1 19  1  0  0  0  0
  1 23  1  0  0  0  0
  2 26  1  0  0  0  0
  2 27  1  0  0  0  0
  3 10  1  0  0  0  0
  3 46  1  0  0  0  0
  4 22  2  0  0  0  0
  5 18  1  0  0  0  0
  5 23  2  0  0  0  0
  6 22  1  0  0  0  0
  6 24  1  0  0  0  0
  6 25  1  0  0  0  0
  7 23  1  0  0  0  0
  7 28  1  0  0  0  0
  7 54  1  0  0  0  0
  8  9  1  0  0  0  0
  8 12  1  0  0  0  0
  8 15  1  0  0  0  0
  8 16  1  0  0  0  0
  9 10  1  0  0  0  0
  9 13  1  0  0  0  0
  9 29  1  0  0  0  0
 10 11  1  0  0  0  0
 10 30  1  0  0  0  0
 11 14  1  0  0  0  0
 11 17  1  0  0  0  0
 11 31  1  0  0  0  0
 12 14  1  0  0  0  0
 12 32  1  0  0  0  0
 12 33  1  0  0  0  0
 13 18  1  0  0  0  0
 13 20  1  0  0  0  0
 13 34  1  0  0  0  0
 14 35  1  0  0  0  0
 14 36  1  0  0  0  0
 15 19  1  0  0  0  0
 15 37  1  0  0  0  0
 15 38  1  0  0  0  0
 16 39  1  0  0  0  0
 16 40  1  0  0  0  0
 16 41  1  0  0  0  0
 17 21  1  0  0  0  0
 17 22  1  0  0  0  0
 17 42  1  0  0  0  0
 18 19  2  0  0  0  0
 20 43  1  0  0  0  0
 20 44  1  0  0  0  0
 20 45  1  0  0  0  0
 21 47  1  0  0  0  0
 21 48  1  0  0  0  0
 21 49  1  0  0  0  0
 24 26  1  0  0  0  0
 24 50  1  0  0  0  0
 24 51  1  0  0  0  0
 25 27  1  0  0  0  0
 25 52  1  0  0  0  0
 25 53  1  0  0  0  0
 26 55  1  0  0  0  0
 26 56  1  0  0  0  0
 27 57  1  0  0  0  0
 27 58  1  0  0  0  0
 28 59  1  0  0  0  0
 28 60  1  0  0  0  0
 28 61  1  0  0  0  0
M  END
> <PUBCHEM_COMPOUND_CID>
44716630

> <PUBCHEM_CONFORMER_RMSD>
0.8

> <PUBCHEM_CONFORMER_DIVERSEORDER>
1
32
31
23
17
38
14
35
30
36
37
22
16
28
5
39
12
3
20
7
34
13
25
15
33
11
10
19
26
2
21
24
4
27
29
18
9
8
6

> <PUBCHEM_MMFF94_PARTIAL_CHARGES>
22
1 -0.08
10 0.28
13 0.18
15 0.18
17 0.06
18 0.05
19 -0.14
2 -0.46
22 0.57
23 0.46
24 0.3
25 0.3
26 0.23
27 0.23
28 0.37
3 -0.68
4 -0.57
46 0.4
5 -0.57
54 0.4
6 -0.66
7 -0.85

> <PUBCHEM_EFFECTIVE_ROTOR_COUNT>
6.4

> <PUBCHEM_PHARMACOPHORE_FEATURES>
10
1 21 hydrophobe
1 3 acceptor
1 3 donor
1 4 acceptor
1 7 donor
3 5 7 23 cation
5 1 5 18 19 23 rings
6 2 6 24 25 26 27 rings
6 8 9 10 11 12 14 rings
6 8 9 13 15 18 19 rings

> <PUBCHEM_HEAVY_ATOM_COUNT>
28

> <PUBCHEM_ATOM_DEF_STEREO_COUNT>
5

> <PUBCHEM_ATOM_UDEF_STEREO_COUNT>
1

> <PUBCHEM_BOND_DEF_STEREO_COUNT>
0

> <PUBCHEM_BOND_UDEF_STEREO_COUNT>
0

> <PUBCHEM_ISOTOPIC_ATOM_COUNT>
0

> <PUBCHEM_COMPONENT_COUNT>
1

> <PUBCHEM_CACTVS_TAUTO_COUNT>
2

> <PUBCHEM_CONFORMER_ID>
02AA525600000001

> <PUBCHEM_MMFF94_ENERGY>
77.7423

> <PUBCHEM_FEATURE_SELFOVERLAP>
50.826

> <PUBCHEM_SHAPE_FINGERPRINT>
10906281 52 15697718224798579656
11089746 13 13254790243988821099
11135609 12 18272943725272611162
11370993 144 17632028472621976451
117089 54 17388554975605073067
11796584 16 18186796963836102147
12166972 35 15791736325358623437
12236239 1 16805321081011945885
12422481 6 16845577508407740928
12633257 1 18059297681721363019
13140716 1 16987137526340121124
13288520 33 17894912928041385205
13583140 156 18192968513817546149
13782708 43 18334851719333341370
14251751 18 18335703883572871331
14251757 5 15937265558887910875
14767858 380 15936411152147618858
14849402 71 15122927634905256778
14856354 85 18409169909193178159
14955137 171 18059852896238464712
15183329 4 15574711421759992322
15510800 12 18339927129738139623
18681886 176 16225768553123815605
18927931 339 18260543438110217039
200 152 16081082671669229173
20739085 24 16701755907380276961
21033648 29 17203025418572304928
21033650 10 17607259666466227012
21150785 3 16660649561770033754
21267235 1 17060339596614532716
21521721 280 17060331960220813594
21623969 137 17632298981850965262
21781051 124 18059026051057855646
21792961 116 18201719497420561262
22122407 14 12750660933371498914
23402539 116 16660641830391103205
23559900 14 18262229045075155893
23569914 152 12618033304990070971
2838139 119 10303814272009539067
3178227 256 17489588966105330890
335352 9 16773785988332577436
392239 28 17203609306559930351
465052 167 18272086089888194450
484989 97 14419003793728357609
5265222 85 18335707195393687006
54039377 194 16950576510355014363
6009941 240 18130793305047968225
602551 16 18334571373774631131
7495541 125 18335700576432339348
9849439 229 11742195375783834315
999808 66 18060423504165858822

> <PUBCHEM_SHAPE_MULTIPOLES>
557.24
16.01
2.21
1.99
10.23
0.19
0.08
9.71
-0.83
-4.04
-0.04
1.05
0.05
1.22

> <PUBCHEM_SHAPE_SELFOVERLAP>
1145.705

> <PUBCHEM_SHAPE_VOLUME>
325.9

> <PUBCHEM_COORDINATE_TYPE>
2
5
10

$$$$
