26744154
  -OEChem-12032416213D

 51 55  0     1  0  0  0  0  0999 V2000
   -5.4427    2.0982    2.0943 O   0  0  0  0  0  0  0  0  0  0  0  0
   -1.2358    2.1313   -1.7515 O   0  0  0  0  0  0  0  0  0  0  0  0
    5.9054    0.8568    0.6718 O   0  0  0  0  0  0  0  0  0  0  0  0
   -3.2172   -0.1120    0.3816 N   0  0  1  0  0  0  0  0  0  0  0  0
   -0.4683    0.9974    0.0210 N   0  0  0  0  0  0  0  0  0  0  0  0
   -0.2527   -2.3793   -2.1944 N   0  0  0  0  0  0  0  0  0  0  0  0
    0.1607    2.2263   -1.8033 N   0  0  0  0  0  0  0  0  0  0  0  0
   -2.9884    1.1415   -0.3652 C   0  0  1  0  0  0  0  0  0  0  0  0
   -3.6235    2.2408    0.5065 C   0  0  0  0  0  0  0  0  0  0  0  0
   -4.2227    1.5029    1.6972 C   0  0  2  0  0  0  0  0  0  0  0  0
   -4.4276    0.0936    1.1747 C   0  0  0  0  0  0  0  0  0  0  0  0
   -3.3181   -1.2833   -0.4792 C   0  0  0  0  0  0  0  0  0  0  0  0
   -1.5221    1.3924   -0.6477 C   0  0  0  0  0  0  0  0  0  0  0  0
   -1.9642   -1.7764   -0.9160 C   0  0  0  0  0  0  0  0  0  0  0  0
   -0.9018   -2.1970   -0.0678 C   0  0  0  0  0  0  0  0  0  0  0  0
   -1.5350   -1.9000   -2.2173 C   0  0  0  0  0  0  0  0  0  0  0  0
    0.1598   -2.5700   -0.8949 C   0  0  0  0  0  0  0  0  0  0  0  0
    0.5403    1.5330   -0.7257 C   0  0  0  0  0  0  0  0  0  0  0  0
   -0.7410   -2.2964    1.3285 C   0  0  0  0  0  0  0  0  0  0  0  0
    1.3791   -3.0392   -0.3935 C   0  0  0  0  0  0  0  0  0  0  0  0
    0.4731   -2.7641    1.8443 C   0  0  0  0  0  0  0  0  0  0  0  0
    1.9181    1.3580   -0.3669 C   0  0  0  0  0  0  0  0  0  0  0  0
    1.5155   -3.1293    0.9947 C   0  0  0  0  0  0  0  0  0  0  0  0
    2.2554    0.6250    0.7710 C   0  0  0  0  0  0  0  0  0  0  0  0
    2.9206    1.9223   -1.1555 C   0  0  0  0  0  0  0  0  0  0  0  0
    3.5951    0.4565    1.1203 C   0  0  0  0  0  0  0  0  0  0  0  0
    4.2606    1.7540   -0.8062 C   0  0  0  0  0  0  0  0  0  0  0  0
    4.5977    1.0211    0.3317 C   0  0  0  0  0  0  0  0  0  0  0  0
    6.1795    0.0958    1.8473 C   0  0  0  0  0  0  0  0  0  0  0  0
   -3.5282    1.1265   -1.3225 H   0  0  0  0  0  0  0  0  0  0  0  0
   -4.4018    2.7699   -0.0575 H   0  0  0  0  0  0  0  0  0  0  0  0
   -2.9037    2.9931    0.8493 H   0  0  0  0  0  0  0  0  0  0  0  0
   -3.5276    1.5061    2.5457 H   0  0  0  0  0  0  0  0  0  0  0  0
   -5.3425    0.0296    0.5710 H   0  0  0  0  0  0  0  0  0  0  0  0
   -4.5127   -0.6259    1.9959 H   0  0  0  0  0  0  0  0  0  0  0  0
   -3.7784   -2.1112    0.0783 H   0  0  0  0  0  0  0  0  0  0  0  0
   -3.9688   -1.1028   -1.3447 H   0  0  0  0  0  0  0  0  0  0  0  0
   -5.2511    3.0183    2.3438 H   0  0  0  0  0  0  0  0  0  0  0  0
   -2.0247   -1.6890   -3.1577 H   0  0  0  0  0  0  0  0  0  0  0  0
    0.3106   -2.5654   -3.0126 H   0  0  0  0  0  0  0  0  0  0  0  0
   -1.5426   -2.0184    2.0066 H   0  0  0  0  0  0  0  0  0  0  0  0
    2.1918   -3.3222   -1.0540 H   0  0  0  0  0  0  0  0  0  0  0  0
    0.6033   -2.8420    2.9204 H   0  0  0  0  0  0  0  0  0  0  0  0
    2.4507   -3.4882    1.4169 H   0  0  0  0  0  0  0  0  0  0  0  0
    1.4960    0.1822    1.4095 H   0  0  0  0  0  0  0  0  0  0  0  0
    2.6964    2.4997   -2.0489 H   0  0  0  0  0  0  0  0  0  0  0  0
    3.7865   -0.1229    2.0170 H   0  0  0  0  0  0  0  0  0  0  0  0
    5.0375    2.1959   -1.4241 H   0  0  0  0  0  0  0  0  0  0  0  0
    7.2675    0.0659    1.9665 H   0  0  0  0  0  0  0  0  0  0  0  0
    5.8406   -0.9406    1.7437 H   0  0  0  0  0  0  0  0  0  0  0  0
    5.7728    0.5779    2.7427 H   0  0  0  0  0  0  0  0  0  0  0  0
  1 10  1  0  0  0  0
  1 38  1  0  0  0  0
  2  7  1  0  0  0  0
  2 13  1  0  0  0  0
  3 28  1  0  0  0  0
  3 29  1  0  0  0  0
  4  8  1  0  0  0  0
  4 11  1  0  0  0  0
  4 12  1  0  0  0  0
  5 13  2  0  0  0  0
  5 18  1  0  0  0  0
  6 16  1  0  0  0  0
  6 17  1  0  0  0  0
  6 40  1  0  0  0  0
  7 18  2  0  0  0  0
  8  9  1  0  0  0  0
  8 13  1  0  0  0  0
  8 30  1  0  0  0  0
  9 10  1  0  0  0  0
  9 31  1  0  0  0  0
  9 32  1  0  0  0  0
 10 11  1  0  0  0  0
 10 33  1  0  0  0  0
 11 34  1  0  0  0  0
 11 35  1  0  0  0  0
 12 14  1  0  0  0  0
 12 36  1  0  0  0  0
 12 37  1  0  0  0  0
 14 15  1  0  0  0  0
 14 16  2  0  0  0  0
 15 17  1  0  0  0  0
 15 19  2  0  0  0  0
 16 39  1  0  0  0  0
 17 20  2  0  0  0  0
 18 22  1  0  0  0  0
 19 21  1  0  0  0  0
 19 41  1  0  0  0  0
 20 23  1  0  0  0  0
 20 42  1  0  0  0  0
 21 23  2  0  0  0  0
 21 43  1  0  0  0  0
 22 24  2  0  0  0  0
 22 25  1  0  0  0  0
 23 44  1  0  0  0  0
 24 26  1  0  0  0  0
 24 45  1  0  0  0  0
 25 27  2  0  0  0  0
 25 46  1  0  0  0  0
 26 28  2  0  0  0  0
 26 47  1  0  0  0  0
 27 28  1  0  0  0  0
 27 48  1  0  0  0  0
 29 49  1  0  0  0  0
 29 50  1  0  0  0  0
 29 51  1  0  0  0  0
M  END
> <PUBCHEM_COMPOUND_CID>
26744154

> <PUBCHEM_CONFORMER_RMSD>
0.8

> <PUBCHEM_CONFORMER_DIVERSEORDER>
1
139
55
141
78
59
14
88
63
147
107
37
8
46
53
140
67
60
146
135
27
16
18
119
159
151
120
73
9
34
30
121
116
62
51
86
124
125
81
110
142
19
136
48
114
35
39
50
149
26
160
117
126
118
20
69
129
108
145
80
98
54
131
123
72
157
61
105
95
64
122
134
43
90
150
156
38
49
152
40
127
104
32
74
154
111
65
133
103
102
85
21
144
11
94
28
76
57
79
6
36
22
33
100
92
25
109
2
161
89
138
3
66
106
96
97
155
15
12
70
99
132
83
10
29
113
71
84
130
87
101
13
41
56
77
148
23
68
153
42
45
7
137
75
24
143
158
112
128
4
17
52
93
91
58
5
44
47
82
162
115
31

> <PUBCHEM_MMFF94_PARTIAL_CHARGES>
38
1 -0.68
10 0.28
11 0.27
12 0.45
13 0.3
14 -0.18
16 -0.3
17 -0.15
18 0.46
19 -0.15
2 -0.02
20 -0.15
21 -0.15
22 0.05
23 -0.15
24 -0.15
25 -0.15
26 -0.15
27 -0.15
28 0.08
29 0.28
3 -0.36
38 0.4
39 0.15
4 -0.81
40 0.27
41 0.15
42 0.15
43 0.15
44 0.15
45 0.15
46 0.15
47 0.15
48 0.15
5 -0.57
6 0.03
7 -0.41
8 0.45

> <PUBCHEM_EFFECTIVE_ROTOR_COUNT>
6

> <PUBCHEM_PHARMACOPHORE_FEATURES>
12
1 1 acceptor
1 1 donor
1 3 acceptor
1 4 cation
1 6 cation
1 6 donor
3 5 7 18 cation
5 2 5 7 13 18 rings
5 4 8 9 10 11 rings
5 6 14 15 16 17 rings
6 15 17 19 20 21 23 rings
6 22 24 25 26 27 28 rings

> <PUBCHEM_HEAVY_ATOM_COUNT>
29

> <PUBCHEM_ATOM_DEF_STEREO_COUNT>
2

> <PUBCHEM_ATOM_UDEF_STEREO_COUNT>
0

> <PUBCHEM_BOND_DEF_STEREO_COUNT>
0

> <PUBCHEM_BOND_UDEF_STEREO_COUNT>
0

> <PUBCHEM_ISOTOPIC_ATOM_COUNT>
0

> <PUBCHEM_COMPONENT_COUNT>
1

> <PUBCHEM_CACTVS_TAUTO_COUNT>
1

> <PUBCHEM_CONFORMER_ID>
0198155A00000001

> <PUBCHEM_MMFF94_ENERGY>
65.1776

> <PUBCHEM_FEATURE_SELFOVERLAP>
60.989

> <PUBCHEM_SHAPE_FINGERPRINT>
10382601 240 18335427811575289755
12156800 1 16956809696821518930
12422481 6 18264477396098531890
12633257 1 17603871138695133771
12788726 201 17691989454094161271
13004483 165 16911425271478647855
13140716 1 18192153908919378449
133893 2 18263911151978774759
14840074 17 17967537912728543804
15274700 242 17386544948543087672
15420108 30 18201158750695620373
16112460 7 18337952419607427304
16120349 306 18336813269440938680
20554085 129 17846211108345510705
20691752 17 18114190709063796935
20775438 99 15604232549116295798
21403212 168 18410572847592130113
23419403 2 17315628496665418511
23728640 28 18126288772705825230
338550 245 18261391131652574334
3411729 13 18268443334624400217
35225 105 17625576688223315441
392239 28 17894351068535352355
5265222 85 18269567199101808036
6287921 2 17699849523223958663
6438718 38 18269840989727651422
7064713 232 18341891913628848336
9862522 239 18410003317537905941

> <PUBCHEM_SHAPE_MULTIPOLES>
559.27
9.72
3.93
1.99
7.6
2.45
0.08
-7.08
-6.23
-0.76
0.37
-0.65
0.27
-1.95

> <PUBCHEM_SHAPE_SELFOVERLAP>
1239.292

> <PUBCHEM_SHAPE_VOLUME>
303.1

> <PUBCHEM_COORDINATE_TYPE>
2
5
10

$$$$
