45783397
  -OEChem-12032416263D

 60 63  0     1  0  0  0  0  0999 V2000
   -1.2462   -0.2439    2.6646 O   0  0  0  0  0  0  0  0  0  0  0  0
   -1.1615   -1.5208   -3.2065 O   0  0  0  0  0  0  0  0  0  0  0  0
    3.3762    2.3221   -1.6683 O   0  0  0  0  0  0  0  0  0  0  0  0
   -3.2991    0.6461   -0.0451 N   0  0  1  0  0  0  0  0  0  0  0  0
   -0.9719   -1.3214    0.7202 N   0  0  0  0  0  0  0  0  0  0  0  0
    0.0498   -0.7743    2.6927 N   0  0  0  0  0  0  0  0  0  0  0  0
    2.5715    3.0999    0.4068 N   0  0  0  0  0  0  0  0  0  0  0  0
    0.8624   -1.6203   -1.2245 N   0  0  0  0  0  0  0  0  0  0  0  0
    2.7883   -2.8731   -0.6583 N   0  0  0  0  0  0  0  0  0  0  0  0
   -3.1941   -0.1547    1.1911 C   0  0  1  0  0  0  0  0  0  0  0  0
   -4.1678   -1.3288    0.9805 C   0  0  0  0  0  0  0  0  0  0  0  0
   -4.8169   -1.0696   -0.3717 C   0  0  0  0  0  0  0  0  0  0  0  0
   -4.6469    0.4232   -0.5687 C   0  0  0  0  0  0  0  0  0  0  0  0
   -3.0181    2.0610    0.1614 C   0  0  0  0  0  0  0  0  0  0  0  0
   -1.7778   -0.6126    1.4696 C   0  0  0  0  0  0  0  0  0  0  0  0
   -1.5391    2.3353    0.2263 C   0  0  0  0  0  0  0  0  0  0  0  0
   -0.9894    2.9283    1.3629 C   0  0  0  0  0  0  0  0  0  0  0  0
   -0.7187    1.9969   -0.8498 C   0  0  0  0  0  0  0  0  0  0  0  0
    0.1368   -1.3947    1.5123 C   0  0  0  0  0  0  0  0  0  0  0  0
    0.3806    3.1832    1.4233 C   0  0  0  0  0  0  0  0  0  0  0  0
    0.6514    2.2518   -0.7896 C   0  0  0  0  0  0  0  0  0  0  0  0
    1.3155   -2.0977    1.0951 C   0  0  0  0  0  0  0  0  0  0  0  0
    1.2009    2.8449    0.3470 C   0  0  0  0  0  0  0  0  0  0  0  0
    1.6844   -2.2174   -0.2352 C   0  0  0  0  0  0  0  0  0  0  0  0
    2.1321   -2.6887    2.0527 C   0  0  0  0  0  0  0  0  0  0  0  0
    3.2766   -3.3719    1.6564 C   0  0  0  0  0  0  0  0  0  0  0  0
    1.1608   -1.6907   -2.6172 C   0  0  0  0  0  0  0  0  0  0  0  0
    3.5577   -3.4348    0.3011 C   0  0  0  0  0  0  0  0  0  0  0  0
    3.5442    2.8329   -0.5657 C   0  0  0  0  0  0  0  0  0  0  0  0
    0.1146   -0.9280   -3.4120 C   0  0  0  0  0  0  0  0  0  0  0  0
    4.9181    3.2612   -0.1145 C   0  0  0  0  0  0  0  0  0  0  0  0
   -2.1745   -0.8433   -3.9371 C   0  0  0  0  0  0  0  0  0  0  0  0
   -3.5557    0.4175    2.0572 H   0  0  0  0  0  0  0  0  0  0  0  0
   -4.9361   -1.3146    1.7633 H   0  0  0  0  0  0  0  0  0  0  0  0
   -3.6891   -2.3138    0.9999 H   0  0  0  0  0  0  0  0  0  0  0  0
   -4.2812   -1.6220   -1.1538 H   0  0  0  0  0  0  0  0  0  0  0  0
   -5.8658   -1.3794   -0.3938 H   0  0  0  0  0  0  0  0  0  0  0  0
   -5.4034    0.9718    0.0067 H   0  0  0  0  0  0  0  0  0  0  0  0
   -4.7302    0.7011   -1.6239 H   0  0  0  0  0  0  0  0  0  0  0  0
   -3.5403    2.4547    1.0433 H   0  0  0  0  0  0  0  0  0  0  0  0
   -3.3974    2.6443   -0.6896 H   0  0  0  0  0  0  0  0  0  0  0  0
   -1.6162    3.1951    2.2096 H   0  0  0  0  0  0  0  0  0  0  0  0
   -1.1405    1.5471   -1.7432 H   0  0  0  0  0  0  0  0  0  0  0  0
    0.7955    3.6448    2.3157 H   0  0  0  0  0  0  0  0  0  0  0  0
    1.2216    1.9644   -1.6616 H   0  0  0  0  0  0  0  0  0  0  0  0
    1.9000   -2.6411    3.1137 H   0  0  0  0  0  0  0  0  0  0  0  0
    2.8952    3.5338    1.2689 H   0  0  0  0  0  0  0  0  0  0  0  0
    0.2737   -0.8548   -0.9140 H   0  0  0  0  0  0  0  0  0  0  0  0
    3.9271   -3.8420    2.3849 H   0  0  0  0  0  0  0  0  0  0  0  0
    2.1487   -1.2632   -2.8230 H   0  0  0  0  0  0  0  0  0  0  0  0
    1.1632   -2.7387   -2.9395 H   0  0  0  0  0  0  0  0  0  0  0  0
    4.4381   -3.9561   -0.0599 H   0  0  0  0  0  0  0  0  0  0  0  0
    0.0913    0.1234   -3.1110 H   0  0  0  0  0  0  0  0  0  0  0  0
    0.3675   -0.9754   -4.4778 H   0  0  0  0  0  0  0  0  0  0  0  0
    5.6547    3.0147   -0.8841 H   0  0  0  0  0  0  0  0  0  0  0  0
    4.9305    4.3412    0.0570 H   0  0  0  0  0  0  0  0  0  0  0  0
    5.1841    2.7409    0.8100 H   0  0  0  0  0  0  0  0  0  0  0  0
   -3.1290   -1.3397   -3.7424 H   0  0  0  0  0  0  0  0  0  0  0  0
   -1.9695   -0.8892   -5.0110 H   0  0  0  0  0  0  0  0  0  0  0  0
   -2.2522    0.1984   -3.6118 H   0  0  0  0  0  0  0  0  0  0  0  0
  1  6  1  0  0  0  0
  1 15  1  0  0  0  0
  2 30  1  0  0  0  0
  2 32  1  0  0  0  0
  3 29  2  0  0  0  0
  4 10  1  0  0  0  0
  4 13  1  0  0  0  0
  4 14  1  0  0  0  0
  5 15  2  0  0  0  0
  5 19  1  0  0  0  0
  6 19  2  0  0  0  0
  7 23  1  0  0  0  0
  7 29  1  0  0  0  0
  7 47  1  0  0  0  0
  8 24  1  0  0  0  0
  8 27  1  0  0  0  0
  8 48  1  0  0  0  0
  9 24  1  0  0  0  0
  9 28  2  0  0  0  0
 10 11  1  0  0  0  0
 10 15  1  0  0  0  0
 10 33  1  0  0  0  0
 11 12  1  0  0  0  0
 11 34  1  0  0  0  0
 11 35  1  0  0  0  0
 12 13  1  0  0  0  0
 12 36  1  0  0  0  0
 12 37  1  0  0  0  0
 13 38  1  0  0  0  0
 13 39  1  0  0  0  0
 14 16  1  0  0  0  0
 14 40  1  0  0  0  0
 14 41  1  0  0  0  0
 16 17  2  0  0  0  0
 16 18  1  0  0  0  0
 17 20  1  0  0  0  0
 17 42  1  0  0  0  0
 18 21  2  0  0  0  0
 18 43  1  0  0  0  0
 19 22  1  0  0  0  0
 20 23  2  0  0  0  0
 20 44  1  0  0  0  0
 21 23  1  0  0  0  0
 21 45  1  0  0  0  0
 22 24  2  0  0  0  0
 22 25  1  0  0  0  0
 25 26  2  0  0  0  0
 25 46  1  0  0  0  0
 26 28  1  0  0  0  0
 26 49  1  0  0  0  0
 27 30  1  0  0  0  0
 27 50  1  0  0  0  0
 27 51  1  0  0  0  0
 28 52  1  0  0  0  0
 29 31  1  0  0  0  0
 30 53  1  0  0  0  0
 30 54  1  0  0  0  0
 31 55  1  0  0  0  0
 31 56  1  0  0  0  0
 31 57  1  0  0  0  0
 32 58  1  0  0  0  0
 32 59  1  0  0  0  0
 32 60  1  0  0  0  0
M  END
> <PUBCHEM_COMPOUND_CID>
45783397

> <PUBCHEM_CONFORMER_RMSD>
1

> <PUBCHEM_CONFORMER_DIVERSEORDER>
1
131
75
100
177
30
7
135
176
85
36
128
24
134
102
78
99
179
117
144
175
114
89
145
22
20
101
3
127
11
115
186
12
17
82
116
42
76
98
33
138
95
164
44
167
156
158
157
170
29
8
181
104
182
28
120
94
2
121
161
118
72
162
166
153
92
81
151
155
4
137
62
53
103
150
125
139
180
74
34
67
37
90
146
165
46
112
88
119
107
111
142
113
45
106
143
58
160
173
43
77
57
16
123
178
19
185
172
15
25
83
126
51
147
9
70
14
87
149
39
154
38
124
18
55
56
31
169
48
129
66
73
60
105
141
5
84
65
86
49
13
64
50
183
148
35
152
23
47
54
184
10
61
140
132
97
174
71
80
109
96
171
136
69
68
163
91
6
59
93
40
41
27
159
79
108
130
52
122
168
110
21
133
63
32
26

> <PUBCHEM_MMFF94_PARTIAL_CHARGES>
39
1 -0.02
10 0.45
13 0.27
14 0.41
15 0.3
16 -0.14
17 -0.15
18 -0.15
19 0.46
2 -0.56
20 -0.15
21 -0.15
22 0.05
23 0.12
24 0.41
25 -0.15
26 -0.15
27 0.37
28 0.16
29 0.57
3 -0.57
30 0.28
31 0.06
32 0.28
4 -0.81
42 0.15
43 0.15
44 0.15
45 0.15
46 0.15
47 0.37
48 0.4
49 0.15
5 -0.57
52 0.15
6 -0.41
7 -0.55
8 -0.87
9 -0.62

> <PUBCHEM_EFFECTIVE_ROTOR_COUNT>
11

> <PUBCHEM_PHARMACOPHORE_FEATURES>
12
1 2 acceptor
1 3 acceptor
1 4 cation
1 7 donor
1 8 cation
1 8 donor
1 9 acceptor
3 5 6 19 cation
5 1 5 6 15 19 rings
5 4 10 11 12 13 rings
6 16 17 18 20 21 23 rings
6 9 22 24 25 26 28 rings

> <PUBCHEM_HEAVY_ATOM_COUNT>
32

> <PUBCHEM_ATOM_DEF_STEREO_COUNT>
1

> <PUBCHEM_ATOM_UDEF_STEREO_COUNT>
0

> <PUBCHEM_BOND_DEF_STEREO_COUNT>
0

> <PUBCHEM_BOND_UDEF_STEREO_COUNT>
0

> <PUBCHEM_ISOTOPIC_ATOM_COUNT>
0

> <PUBCHEM_COMPONENT_COUNT>
1

> <PUBCHEM_CACTVS_TAUTO_COUNT>
16

> <PUBCHEM_CONFORMER_ID>
02BA996500000001

> <PUBCHEM_MMFF94_ENERGY>
80.6867

> <PUBCHEM_FEATURE_SELFOVERLAP>
60.897

> <PUBCHEM_SHAPE_FINGERPRINT>
1100329 8 17976263439459528393
11578080 2 17314209112858055469
12104220 1 17394996666418780794
12156800 1 16342276168489161086
133893 2 18267043737441154833
13615921 28 18045221531582101542
13642711 20 18335983185248417356
14114207 22 18188200018277616992
14400156 162 11092844741341285004
15274700 242 17907556371137137104
15876981 60 17830192211813483934
17818456 19 16817978388098846370
20028762 73 17257950711028403827
20600515 1 17619342109143621773
20905425 154 18411146835389936441
21133410 230 17246996151846855602
21304303 282 16687905604281544673
23419403 2 17749932393611726710
3298306 158 18337110184656760088
35225 105 16670467341011162838
469060 322 17696149713551385598
550186 7 16899330141468600070
59755656 215 18191869136056260897

> <PUBCHEM_SHAPE_MULTIPOLES>
611.05
7.21
5.2
3.19
2.04
2.35
3.12
-0.21
-0.1
-7.1
-1.04
0.78
-2.11
-1.55

> <PUBCHEM_SHAPE_SELFOVERLAP>
1303.201

> <PUBCHEM_SHAPE_VOLUME>
340.7

> <PUBCHEM_COORDINATE_TYPE>
2
5
10

$$$$
