45783981
  -OEChem-12032416353D

 64 66  0     1  0  0  0  0  0999 V2000
   -0.6342   -1.0252   -0.8569 O   0  0  0  0  0  0  0  0  0  0  0  0
    3.9281    1.9531   -0.3129 N   0  0  0  0  0  0  0  0  0  0  0  0
   -0.3985   -3.2275   -1.1724 N   0  0  0  0  0  0  0  0  0  0  0  0
   -1.7394   -2.9677   -0.9584 N   0  0  0  0  0  0  0  0  0  0  0  0
   -6.3203    1.5755    0.2425 N   0  0  0  0  0  0  0  0  0  0  0  0
    2.2962    0.0483    1.3429 C   0  0  1  0  0  0  0  0  0  0  0  0
    3.8396    0.1762    1.3807 C   0  0  1  0  0  0  0  0  0  0  0  0
    1.8827   -1.4282    1.2481 C   0  0  0  0  0  0  0  0  0  0  0  0
    2.4602   -2.1158   -0.0034 C   0  0  2  0  0  0  0  0  0  0  0  0
    1.6420    0.6925    2.5691 C   0  0  0  0  0  0  0  0  0  0  0  0
    3.9341   -1.8130   -0.1827 C   0  0  0  0  0  0  0  0  0  0  0  0
    4.5360   -0.7929    0.4543 C   0  0  0  0  0  0  0  0  0  0  0  0
    4.2845    1.6059    1.0520 C   0  0  0  0  0  0  0  0  0  0  0  0
    1.6655   -1.7369   -1.2581 C   0  0  0  0  0  0  0  0  0  0  0  0
    1.6906   -0.2596    3.7598 C   0  0  0  0  0  0  0  0  0  0  0  0
    0.2040    1.0939    2.2558 C   0  0  0  0  0  0  0  0  0  0  0  0
    4.7115   -2.7385   -1.0768 C   0  0  0  0  0  0  0  0  0  0  0  0
    0.2081   -2.0654   -1.1045 C   0  0  0  0  0  0  0  0  0  0  0  0
    4.3379    3.3155   -0.6320 C   0  0  0  0  0  0  0  0  0  0  0  0
   -1.8301   -1.6706   -0.7789 C   0  0  0  0  0  0  0  0  0  0  0  0
    3.9623    3.6675   -2.0048 C   0  0  0  0  0  0  0  0  0  0  0  0
   -2.9729   -0.8443   -0.5189 C   0  0  0  0  0  0  0  0  0  0  0  0
   -4.2409   -1.4177   -0.4226 C   0  0  0  0  0  0  0  0  0  0  0  0
   -2.8167    0.5329   -0.3617 C   0  0  0  0  0  0  0  0  0  0  0  0
    3.6567    3.9611   -3.1282 C   0  0  0  0  0  0  0  0  0  0  0  0
   -5.3525   -0.6142   -0.1694 C   0  0  0  0  0  0  0  0  0  0  0  0
   -3.9283    1.3365   -0.1085 C   0  0  0  0  0  0  0  0  0  0  0  0
   -5.1961    0.7631   -0.0124 C   0  0  0  0  0  0  0  0  0  0  0  0
   -6.1679    3.0066    0.4149 C   0  0  0  0  0  0  0  0  0  0  0  0
   -7.6421    0.9892    0.3431 C   0  0  0  0  0  0  0  0  0  0  0  0
    1.9190    0.5578    0.4474 H   0  0  0  0  0  0  0  0  0  0  0  0
    4.2025   -0.0546    2.3903 H   0  0  0  0  0  0  0  0  0  0  0  0
    2.2954   -1.9886    2.0984 H   0  0  0  0  0  0  0  0  0  0  0  0
    0.7985   -1.5534    1.3126 H   0  0  0  0  0  0  0  0  0  0  0  0
    2.3528   -3.1981    0.1595 H   0  0  0  0  0  0  0  0  0  0  0  0
    2.1700    1.6096    2.8485 H   0  0  0  0  0  0  0  0  0  0  0  0
    5.6075   -0.6521    0.3252 H   0  0  0  0  0  0  0  0  0  0  0  0
    5.3725    1.6824    1.1827 H   0  0  0  0  0  0  0  0  0  0  0  0
    3.8388    2.3180    1.7541 H   0  0  0  0  0  0  0  0  0  0  0  0
    2.0376   -2.2915   -2.1280 H   0  0  0  0  0  0  0  0  0  0  0  0
    1.7798   -0.6731   -1.4986 H   0  0  0  0  0  0  0  0  0  0  0  0
    0.9931   -1.0989    3.6697 H   0  0  0  0  0  0  0  0  0  0  0  0
    1.3887    0.2816    4.6652 H   0  0  0  0  0  0  0  0  0  0  0  0
    2.6963   -0.6449    3.9522 H   0  0  0  0  0  0  0  0  0  0  0  0
   -0.2504    1.5925    3.1191 H   0  0  0  0  0  0  0  0  0  0  0  0
    0.1665    1.7947    1.4149 H   0  0  0  0  0  0  0  0  0  0  0  0
   -0.4230    0.2321    2.0081 H   0  0  0  0  0  0  0  0  0  0  0  0
    4.6051   -3.7737   -0.7368 H   0  0  0  0  0  0  0  0  0  0  0  0
    5.7811   -2.5030   -1.0835 H   0  0  0  0  0  0  0  0  0  0  0  0
    4.3542   -2.6716   -2.1087 H   0  0  0  0  0  0  0  0  0  0  0  0
    4.3731    1.3090   -0.9660 H   0  0  0  0  0  0  0  0  0  0  0  0
    5.4232    3.4231   -0.5175 H   0  0  0  0  0  0  0  0  0  0  0  0
    3.8602    4.0225    0.0566 H   0  0  0  0  0  0  0  0  0  0  0  0
   -4.3855   -2.4889   -0.5416 H   0  0  0  0  0  0  0  0  0  0  0  0
   -1.8451    1.0157   -0.4303 H   0  0  0  0  0  0  0  0  0  0  0  0
    3.3854    4.2213   -4.1246 H   0  0  0  0  0  0  0  0  0  0  0  0
   -6.3170   -1.1079   -0.1036 H   0  0  0  0  0  0  0  0  0  0  0  0
   -3.7548    2.4020    0.0058 H   0  0  0  0  0  0  0  0  0  0  0  0
   -5.7580    3.4726   -0.4881 H   0  0  0  0  0  0  0  0  0  0  0  0
   -7.1291    3.4958    0.6083 H   0  0  0  0  0  0  0  0  0  0  0  0
   -5.5242    3.2358    1.2715 H   0  0  0  0  0  0  0  0  0  0  0  0
   -7.9282    0.4949   -0.5920 H   0  0  0  0  0  0  0  0  0  0  0  0
   -7.6950    0.2716    1.1694 H   0  0  0  0  0  0  0  0  0  0  0  0
   -8.4077    1.7480    0.5402 H   0  0  0  0  0  0  0  0  0  0  0  0
  1 18  1  0  0  0  0
  1 20  1  0  0  0  0
  2 13  1  0  0  0  0
  2 19  1  0  0  0  0
  2 51  1  0  0  0  0
  3  4  1  0  0  0  0
  3 18  2  0  0  0  0
  4 20  2  0  0  0  0
  5 28  1  0  0  0  0
  5 29  1  0  0  0  0
  5 30  1  0  0  0  0
  6  7  1  0  0  0  0
  6  8  1  0  0  0  0
  6 10  1  0  0  0  0
  6 31  1  0  0  0  0
  7 12  1  0  0  0  0
  7 13  1  0  0  0  0
  7 32  1  0  0  0  0
  8  9  1  0  0  0  0
  8 33  1  0  0  0  0
  8 34  1  0  0  0  0
  9 11  1  0  0  0  0
  9 14  1  0  0  0  0
  9 35  1  0  0  0  0
 10 15  1  0  0  0  0
 10 16  1  0  0  0  0
 10 36  1  0  0  0  0
 11 12  2  0  0  0  0
 11 17  1  0  0  0  0
 12 37  1  0  0  0  0
 13 38  1  0  0  0  0
 13 39  1  0  0  0  0
 14 18  1  0  0  0  0
 14 40  1  0  0  0  0
 14 41  1  0  0  0  0
 15 42  1  0  0  0  0
 15 43  1  0  0  0  0
 15 44  1  0  0  0  0
 16 45  1  0  0  0  0
 16 46  1  0  0  0  0
 16 47  1  0  0  0  0
 17 48  1  0  0  0  0
 17 49  1  0  0  0  0
 17 50  1  0  0  0  0
 19 21  1  0  0  0  0
 19 52  1  0  0  0  0
 19 53  1  0  0  0  0
 20 22  1  0  0  0  0
 21 25  3  0  0  0  0
 22 23  2  0  0  0  0
 22 24  1  0  0  0  0
 23 26  1  0  0  0  0
 23 54  1  0  0  0  0
 24 27  2  0  0  0  0
 24 55  1  0  0  0  0
 25 56  1  0  0  0  0
 26 28  2  0  0  0  0
 26 57  1  0  0  0  0
 27 28  1  0  0  0  0
 27 58  1  0  0  0  0
 29 59  1  0  0  0  0
 29 60  1  0  0  0  0
 29 61  1  0  0  0  0
 30 62  1  0  0  0  0
 30 63  1  0  0  0  0
 30 64  1  0  0  0  0
M  END
> <PUBCHEM_COMPOUND_CID>
45783981

> <PUBCHEM_CONFORMER_RMSD>
1

> <PUBCHEM_CONFORMER_DIVERSEORDER>
1
48
44
77
14
40
85
20
69
68
29
6
5
84
10
16
52
33
18
65
43
54
87
66
63
9
22
32
11
12
45
47
39
41
26
49
78
15
67
13
86
76
28
90
80
72
58
21
46
88
7
23
62
74
30
27
73
71
83
61
81
56
53
64
55
50
70
57
2
37
59
8
79
25
31
38
17
24
42
82
51
89
19
75
3
35
34
36
4
60

> <PUBCHEM_MMFF94_PARTIAL_CHARGES>
32
1 -0.28
11 -0.28
12 -0.29
13 0.27
14 0.18
17 0.14
18 0.3
19 0.47
2 -0.9
20 0.43
21 -0.2
22 0.05
23 -0.15
24 -0.15
25 -0.18
26 -0.15
27 -0.15
28 0.1
29 0.37
3 -0.34
30 0.37
37 0.15
4 -0.34
5 -0.84
51 0.36
54 0.15
55 0.15
56 0.18
57 0.15
58 0.15
7 0.14
9 0.14

> <PUBCHEM_EFFECTIVE_ROTOR_COUNT>
8.8

> <PUBCHEM_PHARMACOPHORE_FEATURES>
8
1 2 cation
1 2 donor
1 25 hydrophobe
1 5 cation
3 10 15 16 hydrophobe
5 1 3 4 18 20 rings
6 22 23 24 26 27 28 rings
6 6 7 8 9 11 12 rings

> <PUBCHEM_HEAVY_ATOM_COUNT>
30

> <PUBCHEM_ATOM_DEF_STEREO_COUNT>
3

> <PUBCHEM_ATOM_UDEF_STEREO_COUNT>
0

> <PUBCHEM_BOND_DEF_STEREO_COUNT>
0

> <PUBCHEM_BOND_UDEF_STEREO_COUNT>
0

> <PUBCHEM_ISOTOPIC_ATOM_COUNT>
0

> <PUBCHEM_COMPONENT_COUNT>
1

> <PUBCHEM_CACTVS_TAUTO_COUNT>
1

> <PUBCHEM_CONFORMER_ID>
02BA9BAD00000001

> <PUBCHEM_MMFF94_ENERGY>
71.1875

> <PUBCHEM_FEATURE_SELFOVERLAP>
40.596

> <PUBCHEM_SHAPE_FINGERPRINT>
10190206 1 17559975353945759656
10673678 19 18272094932687702260
10763959 59 18271527472681419494
11479125 193 17974305500976276656
11578080 2 16299531529437442912
1200032 147 18114755927166171340
12104220 4 18041003886424764109
12107698 1 18041275470197105024
12166972 35 18199473155809078854
12596602 18 17677322935484804331
12788726 201 16702026365617940913
13402501 40 17988072293236262395
13583140 156 16951940934694922406
15001296 14 18333733545888288493
15163728 17 17901116523169457404
15238133 3 18131056152598593466
16120349 67 17609236880758162924
17134984 74 11239987975717387852
21033648 29 18058995251346190003
21315764 371 16805600421284669307
21987440 362 17984960830276131160
23559900 14 18201994379153376439
245318 6 18335431208884177173
27425 322 17968094261285179939
3004659 81 18201152153230533370
38570 142 17750808834014151396
392239 28 16516791723496877632
397830 11 17823150050612131875
54076057 255 18114478781690296134
57527585 21 17686620551717146062
57724786 102 18408602569435027389
7808743 9 18269828886140734246

> <PUBCHEM_SHAPE_MULTIPOLES>
591.59
14.96
4.37
2.5
25.7
3.09
-1.53
9.98
0.88
-4.81
3.83
-3.58
1.26
-2.87

> <PUBCHEM_SHAPE_SELFOVERLAP>
1231.534

> <PUBCHEM_SHAPE_VOLUME>
337

> <PUBCHEM_COORDINATE_TYPE>
2
5
10

$$$$
