11879852
  -OEChem-12032416223D

 62 66  0     1  0  0  0  0  0999 V2000
   -2.7944    1.8878   -1.0090 S   0  0  0  0  0  0  0  0  0  0  0  0
   -0.2159    3.6455   -1.0046 O   0  0  0  0  0  0  0  0  0  0  0  0
    3.0295   -0.0991   -2.5181 O   0  0  0  0  0  0  0  0  0  0  0  0
   -3.5092    2.9368   -1.7115 O   0  0  0  0  0  0  0  0  0  0  0  0
   -1.7100    1.1789   -1.6618 O   0  0  0  0  0  0  0  0  0  0  0  0
    2.1052   -5.9703    0.5379 O   0  0  0  0  0  0  0  0  0  0  0  0
    4.1197   -5.2283   -0.2092 O   0  0  0  0  0  0  0  0  0  0  0  0
   -6.7708   -2.1333    0.6621 O   0  0  0  0  0  0  0  0  0  0  0  0
    3.6833    0.5830   -0.3773 N   0  0  0  0  0  0  0  0  0  0  0  0
    1.4555    2.7201    0.3515 N   0  0  0  0  0  0  0  0  0  0  0  0
   -2.2752    2.4611    0.4966 N   0  0  0  0  0  0  0  0  0  0  0  0
    3.9555    3.0414   -0.0989 C   0  0  1  0  0  0  0  0  0  0  0  0
    3.2222    1.6674    1.8085 C   0  0  2  0  0  0  0  0  0  0  0  0
    4.1072    2.8462    1.4058 C   0  0  0  0  0  0  0  0  0  0  0  0
    4.3911    1.7715   -0.8523 C   0  0  0  0  0  0  0  0  0  0  0  0
    2.5016    3.4231   -0.4032 C   0  0  0  0  0  0  0  0  0  0  0  0
    3.6980    0.3934    1.0823 C   0  0  0  0  0  0  0  0  0  0  0  0
    1.7675    1.9354    1.4703 C   0  0  0  0  0  0  0  0  0  0  0  0
    0.7886    1.3920    2.2168 C   0  0  0  0  0  0  0  0  0  0  0  0
    0.1219    2.9551   -0.0439 C   0  0  0  0  0  0  0  0  0  0  0  0
    3.0455   -0.2520   -1.2980 C   0  0  0  0  0  0  0  0  0  0  0  0
   -0.9117    2.3094    0.8038 C   0  0  0  0  0  0  0  0  0  0  0  0
   -0.5951    1.5816    1.8753 C   0  0  0  0  0  0  0  0  0  0  0  0
    2.3081   -1.4091   -0.7798 C   0  0  0  0  0  0  0  0  0  0  0  0
    2.9587   -2.6295   -0.6170 C   0  0  0  0  0  0  0  0  0  0  0  0
    0.9604   -1.2815   -0.4539 C   0  0  0  0  0  0  0  0  0  0  0  0
    2.2567   -3.7297   -0.1246 C   0  0  0  0  0  0  0  0  0  0  0  0
    0.2583   -2.3816    0.0385 C   0  0  0  0  0  0  0  0  0  0  0  0
   -3.9873    0.6818   -0.5080 C   0  0  0  0  0  0  0  0  0  0  0  0
    0.9066   -3.6057    0.2031 C   0  0  0  0  0  0  0  0  0  0  0  0
   -3.5787   -0.6226   -0.2932 C   0  0  0  0  0  0  0  0  0  0  0  0
   -5.3059    1.0658   -0.3405 C   0  0  0  0  0  0  0  0  0  0  0  0
    2.9319   -5.0061    0.0478 C   0  0  0  0  0  0  0  0  0  0  0  0
   -4.5192   -1.5739    0.1019 C   0  0  0  0  0  0  0  0  0  0  0  0
   -6.2466    0.1146    0.0547 C   0  0  0  0  0  0  0  0  0  0  0  0
   -5.8531   -1.2053    0.2759 C   0  0  0  0  0  0  0  0  0  0  0  0
   -6.3000   -3.4638    0.8717 C   0  0  0  0  0  0  0  0  0  0  0  0
    4.6038    3.8619   -0.4304 H   0  0  0  0  0  0  0  0  0  0  0  0
    3.3298    1.5117    2.8897 H   0  0  0  0  0  0  0  0  0  0  0  0
    5.1544    2.6443    1.6618 H   0  0  0  0  0  0  0  0  0  0  0  0
    3.8139    3.7555    1.9452 H   0  0  0  0  0  0  0  0  0  0  0  0
    4.2481    1.9030   -1.9301 H   0  0  0  0  0  0  0  0  0  0  0  0
    5.4605    1.5898   -0.6890 H   0  0  0  0  0  0  0  0  0  0  0  0
    2.2917    3.3156   -1.4749 H   0  0  0  0  0  0  0  0  0  0  0  0
    2.3635    4.4888   -0.1749 H   0  0  0  0  0  0  0  0  0  0  0  0
    3.0950   -0.4653    1.3872 H   0  0  0  0  0  0  0  0  0  0  0  0
    4.7346    0.1671    1.3611 H   0  0  0  0  0  0  0  0  0  0  0  0
    1.0094    0.7700    3.0779 H   0  0  0  0  0  0  0  0  0  0  0  0
   -1.3393    1.1041    2.5038 H   0  0  0  0  0  0  0  0  0  0  0  0
   -2.8918    2.2163    1.2843 H   0  0  0  0  0  0  0  0  0  0  0  0
    4.0117   -2.7153   -0.8751 H   0  0  0  0  0  0  0  0  0  0  0  0
    0.4459   -0.3347   -0.5845 H   0  0  0  0  0  0  0  0  0  0  0  0
   -0.7905   -2.2879    0.2998 H   0  0  0  0  0  0  0  0  0  0  0  0
    0.3224   -4.4355    0.5908 H   0  0  0  0  0  0  0  0  0  0  0  0
   -2.5453   -0.9232   -0.4227 H   0  0  0  0  0  0  0  0  0  0  0  0
   -5.6300    2.0894   -0.5002 H   0  0  0  0  0  0  0  0  0  0  0  0
   -4.1451   -2.5801    0.2570 H   0  0  0  0  0  0  0  0  0  0  0  0
   -7.2840    0.4079    0.1904 H   0  0  0  0  0  0  0  0  0  0  0  0
    2.5702   -6.8267    0.6509 H   0  0  0  0  0  0  0  0  0  0  0  0
   -5.5744   -3.5095    1.6909 H   0  0  0  0  0  0  0  0  0  0  0  0
   -7.1618   -4.0677    1.1742 H   0  0  0  0  0  0  0  0  0  0  0  0
   -5.9106   -3.9032   -0.0529 H   0  0  0  0  0  0  0  0  0  0  0  0
  1  4  2  0  0  0  0
  1  5  2  0  0  0  0
  1 11  1  0  0  0  0
  1 29  1  0  0  0  0
  2 20  2  0  0  0  0
  3 21  2  0  0  0  0
  6 33  1  0  0  0  0
  6 59  1  0  0  0  0
  7 33  2  0  0  0  0
  8 36  1  0  0  0  0
  8 37  1  0  0  0  0
  9 15  1  0  0  0  0
  9 17  1  0  0  0  0
  9 21  1  0  0  0  0
 10 16  1  0  0  0  0
 10 18  1  0  0  0  0
 10 20  1  0  0  0  0
 11 22  1  0  0  0  0
 11 50  1  0  0  0  0
 12 14  1  0  0  0  0
 12 15  1  0  0  0  0
 12 16  1  0  0  0  0
 12 38  1  0  0  0  0
 13 14  1  0  0  0  0
 13 17  1  0  0  0  0
 13 18  1  0  0  0  0
 13 39  1  0  0  0  0
 14 40  1  0  0  0  0
 14 41  1  0  0  0  0
 15 42  1  0  0  0  0
 15 43  1  0  0  0  0
 16 44  1  0  0  0  0
 16 45  1  0  0  0  0
 17 46  1  0  0  0  0
 17 47  1  0  0  0  0
 18 19  2  0  0  0  0
 19 23  1  0  0  0  0
 19 48  1  0  0  0  0
 20 22  1  0  0  0  0
 21 24  1  0  0  0  0
 22 23  2  0  0  0  0
 23 49  1  0  0  0  0
 24 25  2  0  0  0  0
 24 26  1  0  0  0  0
 25 27  1  0  0  0  0
 25 51  1  0  0  0  0
 26 28  2  0  0  0  0
 26 52  1  0  0  0  0
 27 30  2  0  0  0  0
 27 33  1  0  0  0  0
 28 30  1  0  0  0  0
 28 53  1  0  0  0  0
 29 31  2  0  0  0  0
 29 32  1  0  0  0  0
 30 54  1  0  0  0  0
 31 34  1  0  0  0  0
 31 55  1  0  0  0  0
 32 35  2  0  0  0  0
 32 56  1  0  0  0  0
 34 36  2  0  0  0  0
 34 57  1  0  0  0  0
 35 36  1  0  0  0  0
 35 58  1  0  0  0  0
 37 60  1  0  0  0  0
 37 61  1  0  0  0  0
 37 62  1  0  0  0  0
M  END
> <PUBCHEM_COMPOUND_CID>
11879852

> <PUBCHEM_CONFORMER_RMSD>
1

> <PUBCHEM_CONFORMER_DIVERSEORDER>
1
32
7
25
58
43
66
28
81
67
74
37
79
72
49
48
61
4
22
18
77
86
13
70
39
12
60
55
57
30
68
62
46
9
87
23
89
71
19
59
40
17
76
56
51
38
41
11
21
44
29
88
73
15
8
69
80
64
42
35
33
52
83
65
53
26
82
50
85
10
20
45
84
54
78
24
36
31
27
34
6
63
47
75
90
5
2
16
14
3

> <PUBCHEM_MMFF94_PARTIAL_CHARGES>
47
1 1.45
10 -0.47
11 -0.75
13 0.14
15 0.3
16 0.3
17 0.3
18 -0.03
19 -0.15
2 -0.57
20 0.62
21 0.54
22 0.21
23 -0.15
24 0.09
25 -0.15
26 -0.15
27 0.09
28 -0.15
29 -0.01
3 -0.57
30 -0.15
31 -0.15
32 -0.15
33 0.63
34 -0.15
35 -0.15
36 0.08
37 0.28
4 -0.65
48 0.15
49 0.15
5 -0.65
50 0.42
51 0.15
52 0.15
53 0.15
54 0.15
55 0.15
56 0.15
57 0.15
58 0.15
59 0.5
6 -0.65
7 -0.57
8 -0.36
9 -0.66

> <PUBCHEM_EFFECTIVE_ROTOR_COUNT>
8

> <PUBCHEM_PHARMACOPHORE_FEATURES>
14
1 11 donor
1 2 acceptor
1 3 acceptor
1 4 acceptor
1 5 acceptor
1 6 acceptor
1 7 acceptor
1 8 acceptor
3 6 7 33 anion
6 10 12 13 14 16 18 rings
6 10 18 19 20 22 23 rings
6 24 25 26 27 28 30 rings
6 29 31 32 34 35 36 rings
6 9 12 13 14 15 17 rings

> <PUBCHEM_HEAVY_ATOM_COUNT>
37

> <PUBCHEM_ATOM_DEF_STEREO_COUNT>
2

> <PUBCHEM_ATOM_UDEF_STEREO_COUNT>
0

> <PUBCHEM_BOND_DEF_STEREO_COUNT>
0

> <PUBCHEM_BOND_UDEF_STEREO_COUNT>
0

> <PUBCHEM_ISOTOPIC_ATOM_COUNT>
0

> <PUBCHEM_COMPONENT_COUNT>
1

> <PUBCHEM_CACTVS_TAUTO_COUNT>
1

> <PUBCHEM_CONFORMER_ID>
00B545AC00000001

> <PUBCHEM_MMFF94_ENERGY>
108.1944

> <PUBCHEM_FEATURE_SELFOVERLAP>
72.71

> <PUBCHEM_SHAPE_FINGERPRINT>
10316853 100 18123194760191743207
11204353 107 18412826919249076991
11285246 1 17609508128795015339
11488393 25 18409169887417850315
12104220 1 17403166007611403694
131258 43 17841440233262552166
13402501 40 18339924947466647337
1361 2 18266180728356357033
13751561 76 18041569156261984371
14114211 68 18263384588682479662
14659021 117 17255954577552955922
15264996 163 17324655379248672859
15968369 26 18264183895012743675
17093844 170 18269836574491150216
17909252 39 18340209574643911506
19319366 153 18271517706009846766
20764821 26 18122896800888055143
20775438 99 17758918629611391325
20775530 9 18056755429947905564
22956985 138 18266733594132866394
23559900 14 18192982717490710781
3737641 26 18342741819169046681
404807 78 17897742091012472962
4280585 95 17760917451323914938
4461854 278 17832157386895058307
463206 1 17914047853269012789
484989 97 18339092578673446854
508706 21 18051410966193227739
5265222 85 18122064474812769668
86090 222 18269000967075856859

> <PUBCHEM_SHAPE_MULTIPOLES>
709.26
12.41
7.06
1.59
23.28
10.69
0.09
3.59
0.63
-7.01
0.37
-0.85
-1.01
2.22

> <PUBCHEM_SHAPE_SELFOVERLAP>
1546.042

> <PUBCHEM_SHAPE_VOLUME>
385

> <PUBCHEM_COORDINATE_TYPE>
2
5
10

$$$$
