75536099
  -OEChem-12032416293D

 48 50  0     1  0  0  0  0  0999 V2000
   -2.4444    2.5506    0.2367 S   0  0  0  0  0  0  0  0  0  0  0  0
    3.9740   -2.4726    1.4845 F   0  0  0  0  0  0  0  0  0  0  0  0
    4.3907   -2.6272   -0.6439 F   0  0  0  0  0  0  0  0  0  0  0  0
    4.4571   -0.6923    0.3334 F   0  0  0  0  0  0  0  0  0  0  0  0
   -3.6140   -1.7293    1.6562 O   0  0  0  0  0  0  0  0  0  0  0  0
   -4.8540   -3.0364   -0.4327 O   0  0  0  0  0  0  0  0  0  0  0  0
   -2.8706    2.5686    1.6231 O   0  0  0  0  0  0  0  0  0  0  0  0
   -2.7809    3.6525   -0.6442 O   0  0  0  0  0  0  0  0  0  0  0  0
    3.4472    1.9961    0.1417 O   0  0  0  0  0  0  0  0  0  0  0  0
   -2.9416    1.0976   -0.4889 N   0  0  0  0  0  0  0  0  0  0  0  0
    1.9839   -1.0646   -1.1656 N   0  0  0  0  0  0  0  0  0  0  0  0
   -2.5729   -0.2033    0.1290 C   0  0  2  0  0  0  0  0  0  0  0  0
   -1.7997   -1.0627   -0.9090 C   0  0  2  0  0  0  0  0  0  0  0  0
   -3.8479   -0.9903    0.4585 C   0  0  1  0  0  0  0  0  0  0  0  0
   -2.6009   -2.3696   -1.0357 C   0  0  0  0  0  0  0  0  0  0  0  0
   -4.0247   -1.9319   -0.7296 C   0  0  1  0  0  0  0  0  0  0  0  0
   -0.3457   -1.2897   -0.5593 C   0  0  0  0  0  0  0  0  0  0  0  0
    0.0167   -1.9056    0.6336 C   0  0  0  0  0  0  0  0  0  0  0  0
    0.6669   -0.8913   -1.4171 C   0  0  0  0  0  0  0  0  0  0  0  0
   -0.6845    2.3872    0.2099 C   0  0  0  0  0  0  0  0  0  0  0  0
    1.3616   -2.1013    0.9278 C   0  0  0  0  0  0  0  0  0  0  0  0
    2.2977   -1.6667    0.0035 C   0  0  0  0  0  0  0  0  0  0  0  0
    0.0421    2.8535   -0.8857 C   0  0  0  0  0  0  0  0  0  0  0  0
   -0.0228    1.7895    1.2825 C   0  0  0  0  0  0  0  0  0  0  0  0
    3.7505   -1.8596    0.2862 C   0  0  0  0  0  0  0  0  0  0  0  0
    1.4305    2.7221   -0.9087 C   0  0  0  0  0  0  0  0  0  0  0  0
    1.3657    1.6581    1.2595 C   0  0  0  0  0  0  0  0  0  0  0  0
    2.0924    2.1244    0.1640 C   0  0  0  0  0  0  0  0  0  0  0  0
    4.1275    2.4943   -1.0095 C   0  0  0  0  0  0  0  0  0  0  0  0
   -2.0012   -0.0398    1.0446 H   0  0  0  0  0  0  0  0  0  0  0  0
   -1.8380   -0.5653   -1.8889 H   0  0  0  0  0  0  0  0  0  0  0  0
   -4.7348   -0.3687    0.6189 H   0  0  0  0  0  0  0  0  0  0  0  0
   -2.5166   -2.8056   -2.0375 H   0  0  0  0  0  0  0  0  0  0  0  0
   -2.2771   -3.1471   -0.3331 H   0  0  0  0  0  0  0  0  0  0  0  0
   -4.4485   -1.3892   -1.5832 H   0  0  0  0  0  0  0  0  0  0  0  0
   -3.3044    1.0862   -1.4494 H   0  0  0  0  0  0  0  0  0  0  0  0
   -3.5057   -1.0871    2.3785 H   0  0  0  0  0  0  0  0  0  0  0  0
   -4.8429   -3.6266   -1.2053 H   0  0  0  0  0  0  0  0  0  0  0  0
   -0.7329   -2.2369    1.3462 H   0  0  0  0  0  0  0  0  0  0  0  0
    0.4505   -0.4049   -2.3631 H   0  0  0  0  0  0  0  0  0  0  0  0
    1.6451   -2.5802    1.8585 H   0  0  0  0  0  0  0  0  0  0  0  0
   -0.4543    3.3138   -1.7353 H   0  0  0  0  0  0  0  0  0  0  0  0
   -0.5649    1.4257    2.1504 H   0  0  0  0  0  0  0  0  0  0  0  0
    1.9326    3.1029   -1.7914 H   0  0  0  0  0  0  0  0  0  0  0  0
    1.8762    1.1930    2.0984 H   0  0  0  0  0  0  0  0  0  0  0  0
    5.1960    2.3097   -0.8580 H   0  0  0  0  0  0  0  0  0  0  0  0
    4.0013    3.5772   -1.1146 H   0  0  0  0  0  0  0  0  0  0  0  0
    3.8349    1.9517   -1.9148 H   0  0  0  0  0  0  0  0  0  0  0  0
  1  7  2  0  0  0  0
  1  8  2  0  0  0  0
  1 10  1  0  0  0  0
  1 20  1  0  0  0  0
  2 25  1  0  0  0  0
  3 25  1  0  0  0  0
  4 25  1  0  0  0  0
  5 14  1  0  0  0  0
  5 37  1  0  0  0  0
  6 16  1  0  0  0  0
  6 38  1  0  0  0  0
  9 28  1  0  0  0  0
  9 29  1  0  0  0  0
 10 12  1  0  0  0  0
 10 36  1  0  0  0  0
 11 19  1  0  0  0  0
 11 22  2  0  0  0  0
 12 13  1  0  0  0  0
 12 14  1  0  0  0  0
 12 30  1  0  0  0  0
 13 15  1  0  0  0  0
 13 17  1  0  0  0  0
 13 31  1  0  0  0  0
 14 16  1  0  0  0  0
 14 32  1  0  0  0  0
 15 16  1  0  0  0  0
 15 33  1  0  0  0  0
 15 34  1  0  0  0  0
 16 35  1  0  0  0  0
 17 18  1  0  0  0  0
 17 19  2  0  0  0  0
 18 21  2  0  0  0  0
 18 39  1  0  0  0  0
 19 40  1  0  0  0  0
 20 23  2  0  0  0  0
 20 24  1  0  0  0  0
 21 22  1  0  0  0  0
 21 41  1  0  0  0  0
 22 25  1  0  0  0  0
 23 26  1  0  0  0  0
 23 42  1  0  0  0  0
 24 27  2  0  0  0  0
 24 43  1  0  0  0  0
 26 28  2  0  0  0  0
 26 44  1  0  0  0  0
 27 28  1  0  0  0  0
 27 45  1  0  0  0  0
 29 46  1  0  0  0  0
 29 47  1  0  0  0  0
 29 48  1  0  0  0  0
M  END
> <PUBCHEM_COMPOUND_CID>
75536099

> <PUBCHEM_CONFORMER_RMSD>
0.8

> <PUBCHEM_CONFORMER_DIVERSEORDER>
1
43
16
33
47
27
37
36
10
32
48
38
2
29
5
34
49
44
41
18
9
35
11
39
21
42
46
31
15
14
6
23
22
12
28
25
24
17
45
13
40
30
8
20
26
7
19
4
3

> <PUBCHEM_MMFF94_PARTIAL_CHARGES>
38
1 1.45
10 -0.91
11 -0.62
12 0.36
13 0.14
14 0.28
16 0.28
17 -0.14
18 -0.15
19 0.16
2 -0.34
20 -0.01
21 -0.15
22 0.17
23 -0.15
24 -0.15
25 1.16
26 -0.15
27 -0.15
28 0.08
29 0.28
3 -0.34
36 0.42
37 0.4
38 0.4
39 0.15
4 -0.34
40 0.15
41 0.15
42 0.15
43 0.15
44 0.15
45 0.15
5 -0.68
6 -0.68
7 -0.65
8 -0.65
9 -0.36

> <PUBCHEM_EFFECTIVE_ROTOR_COUNT>
7

> <PUBCHEM_PHARMACOPHORE_FEATURES>
12
1 10 donor
1 11 acceptor
1 5 acceptor
1 5 donor
1 6 acceptor
1 6 donor
1 7 acceptor
1 8 acceptor
1 9 acceptor
5 12 13 14 15 16 rings
6 11 17 18 19 21 22 rings
6 20 23 24 26 27 28 rings

> <PUBCHEM_HEAVY_ATOM_COUNT>
29

> <PUBCHEM_ATOM_DEF_STEREO_COUNT>
4

> <PUBCHEM_ATOM_UDEF_STEREO_COUNT>
0

> <PUBCHEM_BOND_DEF_STEREO_COUNT>
0

> <PUBCHEM_BOND_UDEF_STEREO_COUNT>
0

> <PUBCHEM_ISOTOPIC_ATOM_COUNT>
0

> <PUBCHEM_COMPONENT_COUNT>
1

> <PUBCHEM_CACTVS_TAUTO_COUNT>
1

> <PUBCHEM_CONFORMER_ID>
048096E300000001

> <PUBCHEM_MMFF94_ENERGY>
68.3628

> <PUBCHEM_FEATURE_SELFOVERLAP>
60.928

> <PUBCHEM_SHAPE_FINGERPRINT>
104564 63 18270969054045199604
1100329 8 18195810673907900896
11513181 2 18273501165337302662
11578080 2 17895175702276880925
12422481 6 18269857345137383329
12553582 1 18122900104008088313
12788726 201 18053118494581769780
13140716 1 18339931402570696513
14117953 113 17257084870916053844
14787075 74 18262517138258944018
17492 54 17830726565679365525
20600515 1 17984986990488803332
20691752 17 17967254203978357700
20905425 154 18271528688193951165
21041028 32 18342173397248085111
21421861 104 18339940289031806521
23227448 37 18266176119656001316
23557571 272 17987519199816437318
23559900 14 18262786480427862239
2818148 4 18342747342227925147
3052486 1 18190729861130810930
350125 39 18412266099751700329
3504750 166 17832679311548494546
463206 1 17909543201011073607
469060 322 17677329399552814614
474 4 17976537535423539191
484985 159 15659362637135200355
484989 97 18337664236365924229
57527358 35 15289911375905766557
59755656 215 18195806490952237127
70251023 43 18411694413930205699
7471813 234 18340469145329545823

> <PUBCHEM_SHAPE_MULTIPOLES>
539.53
7.98
4.77
1.33
0.18
1.88
0.2
-4.42
-0.09
0.3
-0.07
-0.05
0
-1.19

> <PUBCHEM_SHAPE_SELFOVERLAP>
1145.843

> <PUBCHEM_SHAPE_VOLUME>
305.5

> <PUBCHEM_COORDINATE_TYPE>
2
5
10

$$$$
