9423973
  -OEChem-12032416183D

 46 49  0     1  0  0  0  0  0999 V2000
    6.0765   -0.3972   -1.1884 S   0  0  0  0  0  0  0  0  0  0  0  0
   -2.3420    1.8002   -0.8253 O   0  0  0  0  0  0  0  0  0  0  0  0
    0.7837   -1.9306    1.3252 O   0  0  0  0  0  0  0  0  0  0  0  0
   -5.8710   -1.1419   -0.8575 O   0  0  0  0  0  0  0  0  0  0  0  0
   -7.2015    0.5540    0.7552 O   0  0  0  0  0  0  0  0  0  0  0  0
   -0.7527   -1.0540   -0.1428 N   0  0  0  0  0  0  0  0  0  0  0  0
   -3.8351   -0.6830    0.1711 N   0  0  0  0  0  0  0  0  0  0  0  0
   -0.1268    1.8252   -0.3139 N   0  0  0  0  0  0  0  0  0  0  0  0
   -1.1077   -0.2203   -1.2731 C   0  0  1  0  0  0  0  0  0  0  0  0
   -3.0135   -1.5636   -0.6221 C   0  0  1  0  0  0  0  0  0  0  0  0
   -2.3951   -0.8447   -1.8240 C   0  0  0  0  0  0  0  0  0  0  0  0
   -1.7901   -2.0360    0.1514 C   0  0  0  0  0  0  0  0  0  0  0  0
   -1.2711    1.1940   -0.7519 C   0  0  0  0  0  0  0  0  0  0  0  0
    0.4773   -1.0909    0.4784 C   0  0  0  0  0  0  0  0  0  0  0  0
    1.4781   -0.0519    0.1233 C   0  0  0  0  0  0  0  0  0  0  0  0
    1.1686    1.2915   -0.1451 C   0  0  0  0  0  0  0  0  0  0  0  0
   -5.2041   -0.5463   -0.0157 C   0  0  0  0  0  0  0  0  0  0  0  0
    2.8262   -0.4403    0.2377 C   0  0  0  0  0  0  0  0  0  0  0  0
    2.2177    2.2250   -0.2261 C   0  0  0  0  0  0  0  0  0  0  0  0
    3.8546    0.4918    0.1077 C   0  0  0  0  0  0  0  0  0  0  0  0
    3.5498    1.8282   -0.1116 C   0  0  0  0  0  0  0  0  0  0  0  0
   -5.8086    0.4436    0.9571 C   0  0  0  0  0  0  0  0  0  0  0  0
    5.2302    0.0735    0.2246 C   0  0  0  0  0  0  0  0  0  0  0  0
    6.0192   -0.0143    1.3514 C   0  0  0  0  0  0  0  0  0  0  0  0
    7.3341   -0.4732    1.0505 C   0  0  0  0  0  0  0  0  0  0  0  0
    7.5011   -0.7193   -0.2946 C   0  0  0  0  0  0  0  0  0  0  0  0
   -7.7975    1.4805    1.6585 C   0  0  0  0  0  0  0  0  0  0  0  0
   -0.3162   -0.2330   -2.0312 H   0  0  0  0  0  0  0  0  0  0  0  0
   -3.6307   -2.4102   -0.9413 H   0  0  0  0  0  0  0  0  0  0  0  0
   -3.0699   -0.1249   -2.2974 H   0  0  0  0  0  0  0  0  0  0  0  0
   -2.1252   -1.5944   -2.5793 H   0  0  0  0  0  0  0  0  0  0  0  0
   -1.9410   -2.1189    1.2326 H   0  0  0  0  0  0  0  0  0  0  0  0
   -1.4341   -3.0016   -0.2265 H   0  0  0  0  0  0  0  0  0  0  0  0
   -3.3769   -0.1019    0.8677 H   0  0  0  0  0  0  0  0  0  0  0  0
   -0.2105    2.8311   -0.1860 H   0  0  0  0  0  0  0  0  0  0  0  0
    3.0774   -1.4798    0.4454 H   0  0  0  0  0  0  0  0  0  0  0  0
    2.0060    3.2773   -0.4082 H   0  0  0  0  0  0  0  0  0  0  0  0
    4.3337    2.5766   -0.1993 H   0  0  0  0  0  0  0  0  0  0  0  0
   -5.6053    0.0965    1.9768 H   0  0  0  0  0  0  0  0  0  0  0  0
   -5.3303    1.4177    0.8015 H   0  0  0  0  0  0  0  0  0  0  0  0
    5.6760    0.2372    2.3472 H   0  0  0  0  0  0  0  0  0  0  0  0
    8.1175   -0.6158    1.7834 H   0  0  0  0  0  0  0  0  0  0  0  0
    8.3916   -1.0728   -0.7950 H   0  0  0  0  0  0  0  0  0  0  0  0
   -7.6514    1.1536    2.6925 H   0  0  0  0  0  0  0  0  0  0  0  0
   -8.8703    1.5201    1.4516 H   0  0  0  0  0  0  0  0  0  0  0  0
   -7.3753    2.4797    1.5145 H   0  0  0  0  0  0  0  0  0  0  0  0
  1 23  1  0  0  0  0
  1 26  1  0  0  0  0
  2 13  2  0  0  0  0
  3 14  2  0  0  0  0
  4 17  2  0  0  0  0
  5 22  1  0  0  0  0
  5 27  1  0  0  0  0
  6  9  1  0  0  0  0
  6 12  1  0  0  0  0
  6 14  1  0  0  0  0
  7 10  1  0  0  0  0
  7 17  1  0  0  0  0
  7 34  1  0  0  0  0
  8 13  1  0  0  0  0
  8 16  1  0  0  0  0
  8 35  1  0  0  0  0
  9 11  1  0  0  0  0
  9 13  1  0  0  0  0
  9 28  1  0  0  0  0
 10 11  1  0  0  0  0
 10 12  1  0  0  0  0
 10 29  1  0  0  0  0
 11 30  1  0  0  0  0
 11 31  1  0  0  0  0
 12 32  1  0  0  0  0
 12 33  1  0  0  0  0
 14 15  1  0  0  0  0
 15 16  2  0  0  0  0
 15 18  1  0  0  0  0
 16 19  1  0  0  0  0
 17 22  1  0  0  0  0
 18 20  2  0  0  0  0
 18 36  1  0  0  0  0
 19 21  2  0  0  0  0
 19 37  1  0  0  0  0
 20 21  1  0  0  0  0
 20 23  1  0  0  0  0
 21 38  1  0  0  0  0
 22 39  1  0  0  0  0
 22 40  1  0  0  0  0
 23 24  2  0  0  0  0
 24 25  1  0  0  0  0
 24 41  1  0  0  0  0
 25 26  2  0  0  0  0
 25 42  1  0  0  0  0
 26 43  1  0  0  0  0
 27 44  1  0  0  0  0
 27 45  1  0  0  0  0
 27 46  1  0  0  0  0
M  END
> <PUBCHEM_COMPOUND_CID>
9423973

> <PUBCHEM_CONFORMER_RMSD>
0.8

> <PUBCHEM_CONFORMER_DIVERSEORDER>
1
15
2
16
7
18
9
5
3
4
14
8
6
17
13
11
10
12

> <PUBCHEM_MMFF94_PARTIAL_CHARGES>
34
1 -0.08
10 0.3
12 0.3
13 0.57
14 0.54
15 0.09
16 0.12
17 0.57
18 -0.15
19 -0.15
2 -0.57
20 0.05
21 -0.15
22 0.34
23 -0.01
24 -0.15
25 -0.15
26 -0.11
27 0.28
3 -0.57
34 0.37
35 0.37
36 0.15
37 0.15
38 0.15
4 -0.57
41 0.15
42 0.15
43 0.15
5 -0.56
6 -0.66
7 -0.73
8 -0.55
9 0.36

> <PUBCHEM_EFFECTIVE_ROTOR_COUNT>
5.8

> <PUBCHEM_PHARMACOPHORE_FEATURES>
10
1 2 acceptor
1 3 acceptor
1 4 acceptor
1 5 acceptor
1 7 donor
1 8 donor
5 1 23 24 25 26 rings
5 6 9 10 11 12 rings
6 15 16 18 19 20 21 rings
7 6 8 9 13 14 15 16 rings

> <PUBCHEM_HEAVY_ATOM_COUNT>
27

> <PUBCHEM_ATOM_DEF_STEREO_COUNT>
2

> <PUBCHEM_ATOM_UDEF_STEREO_COUNT>
0

> <PUBCHEM_BOND_DEF_STEREO_COUNT>
0

> <PUBCHEM_BOND_UDEF_STEREO_COUNT>
0

> <PUBCHEM_ISOTOPIC_ATOM_COUNT>
0

> <PUBCHEM_COMPONENT_COUNT>
1

> <PUBCHEM_CACTVS_TAUTO_COUNT>
6

> <PUBCHEM_CONFORMER_ID>
008FCC6500000001

> <PUBCHEM_MMFF94_ENERGY>
83.7845

> <PUBCHEM_FEATURE_SELFOVERLAP>
50.81

> <PUBCHEM_SHAPE_FINGERPRINT>
10674148 151 18413674600232839306
11089746 13 17632290211854677449
11796584 16 16702020911569046630
12107183 9 18413392046834338673
12236239 1 18202282545577883747
12403259 415 17604414293582046788
13383668 40 17631183978803316990
13533116 47 15339130022555542062
13914758 101 17060624382040571707
14251764 18 18342738558735091588
14856354 85 17240489126190859031
15131766 46 15480391007236961472
15142383 8 16630807699553365888
15183329 4 18334852831713903782
15238133 3 17989211472981861937
15475509 8 18341344313925174092
15849732 13 17060620005511030221
18335252 98 14418137314077434408
19141452 34 18059570351740927630
20511986 3 15769768057535127398
20832881 197 18410856603027657024
21033648 29 17488723667660339242
21130935 74 18272365429981906962
21150785 3 9439401324332856977
21267235 1 18334012796393030316
21304253 13 18272651259760134857
21403212 168 18341896264968542385
21521721 280 17676775361482510992
21781051 124 17531261577262604386
21792961 116 17386272208759716390
23522609 53 18189358885710677548
23559900 14 18190170373453948408
2838139 119 17632576059556715961
3004659 81 18040432205830724556
3009799 131 12895072907760402827
3178227 256 17894918429277384688
335352 9 18335699472398702990
350125 39 18187362125497169020
3633792 109 15984836878160794071
4093350 32 17417816084795684678
4325135 7 7925912573909871923
5104073 3 18191299579562235720
5207 217 9943805586500087933
59755656 215 18260825986707737542
59755656 520 17894628184220646395

> <PUBCHEM_SHAPE_MULTIPOLES>
521.08
19.56
1.94
1.29
4.06
0.41
0.01
0.89
-6.68
1.08
0.06
0.43
-0.08
-1.27

> <PUBCHEM_SHAPE_SELFOVERLAP>
1122.432

> <PUBCHEM_SHAPE_VOLUME>
287

> <PUBCHEM_COORDINATE_TYPE>
2
5
10

$$$$
