75536740
  -OEChem-12032416303D

 47 48  0     1  0  0  0  0  0999 V2000
   -2.1385   -1.4995    2.1122 F   0  0  0  0  0  0  0  0  0  0  0  0
    3.2835    0.4592    0.7882 O   0  0  0  0  0  0  0  0  0  0  0  0
    3.8281   -2.4983   -0.3188 O   0  0  0  0  0  0  0  0  0  0  0  0
    1.6750    2.8757    0.0934 O   0  0  0  0  0  0  0  0  0  0  0  0
    0.6073   -1.0264    0.5158 N   0  0  0  0  0  0  0  0  0  0  0  0
    1.4510    1.0233   -1.2905 N   0  0  0  0  0  0  0  0  0  0  0  0
   -0.4273    2.0289   -0.4036 N   0  0  0  0  0  0  0  0  0  0  0  0
    1.9625   -1.5054    0.7792 C   0  0  1  0  0  0  0  0  0  0  0  0
    2.8105   -1.5074   -0.4805 C   0  0  1  0  0  0  0  0  0  0  0  0
    3.4611   -0.1251   -0.5157 C   0  0  1  0  0  0  0  0  0  0  0  0
    2.7178   -0.5251    1.6618 C   0  0  0  0  0  0  0  0  0  0  0  0
    2.8465    0.8100   -1.5460 C   0  0  0  0  0  0  0  0  0  0  0  0
   -0.2598   -2.1160    0.0836 C   0  0  0  0  0  0  0  0  0  0  0  0
   -1.6575   -1.6383   -0.2083 C   0  0  0  0  0  0  0  0  0  0  0  0
    0.9630    2.0522   -0.4800 C   0  0  0  0  0  0  0  0  0  0  0  0
   -2.5325   -1.3524    0.8397 C   0  0  0  0  0  0  0  0  0  0  0  0
   -2.0766   -1.4817   -1.5293 C   0  0  0  0  0  0  0  0  0  0  0  0
   -1.1847    2.9846    0.3697 C   0  0  0  0  0  0  0  0  0  0  0  0
   -3.8267   -0.9097    0.5665 C   0  0  0  0  0  0  0  0  0  0  0  0
   -3.3710   -1.0392   -1.8026 C   0  0  0  0  0  0  0  0  0  0  0  0
   -2.5362    3.2489   -0.2824 C   0  0  0  0  0  0  0  0  0  0  0  0
   -1.3495    2.4947    1.8024 C   0  0  0  0  0  0  0  0  0  0  0  0
   -4.2461   -0.7532   -0.7548 C   0  0  0  0  0  0  0  0  0  0  0  0
    1.9334   -2.4769    1.2878 H   0  0  0  0  0  0  0  0  0  0  0  0
    2.2691   -1.7652   -1.3960 H   0  0  0  0  0  0  0  0  0  0  0  0
    4.5394   -0.1960   -0.6996 H   0  0  0  0  0  0  0  0  0  0  0  0
    2.1010   -0.0328    2.4203 H   0  0  0  0  0  0  0  0  0  0  0  0
    3.5461   -1.0249    2.1777 H   0  0  0  0  0  0  0  0  0  0  0  0
    2.9440    0.3973   -2.5551 H   0  0  0  0  0  0  0  0  0  0  0  0
    3.3543    1.7805   -1.5178 H   0  0  0  0  0  0  0  0  0  0  0  0
    0.2202   -0.6224    1.3691 H   0  0  0  0  0  0  0  0  0  0  0  0
   -0.3166   -2.8959    0.8546 H   0  0  0  0  0  0  0  0  0  0  0  0
    0.1482   -2.6008   -0.8117 H   0  0  0  0  0  0  0  0  0  0  0  0
    4.3877   -2.4717   -1.1138 H   0  0  0  0  0  0  0  0  0  0  0  0
    0.7827    0.3870   -1.7144 H   0  0  0  0  0  0  0  0  0  0  0  0
   -0.9228    1.2660   -0.8546 H   0  0  0  0  0  0  0  0  0  0  0  0
   -1.4045   -1.6969   -2.3557 H   0  0  0  0  0  0  0  0  0  0  0  0
   -0.6231    3.9264    0.3918 H   0  0  0  0  0  0  0  0  0  0  0  0
   -4.5072   -0.6858    1.3826 H   0  0  0  0  0  0  0  0  0  0  0  0
   -3.6969   -0.9156   -2.8312 H   0  0  0  0  0  0  0  0  0  0  0  0
   -3.1390    2.3358   -0.3339 H   0  0  0  0  0  0  0  0  0  0  0  0
   -3.1019    3.9996    0.2790 H   0  0  0  0  0  0  0  0  0  0  0  0
   -2.4074    3.6164   -1.3063 H   0  0  0  0  0  0  0  0  0  0  0  0
   -1.8965    3.2267    2.4056 H   0  0  0  0  0  0  0  0  0  0  0  0
   -0.3752    2.3284    2.2750 H   0  0  0  0  0  0  0  0  0  0  0  0
   -1.8968    1.5470    1.8385 H   0  0  0  0  0  0  0  0  0  0  0  0
   -5.2533   -0.4073   -0.9674 H   0  0  0  0  0  0  0  0  0  0  0  0
  1 16  1  0  0  0  0
  2 10  1  0  0  0  0
  2 11  1  0  0  0  0
  3  9  1  0  0  0  0
  3 34  1  0  0  0  0
  4 15  2  0  0  0  0
  5  8  1  0  0  0  0
  5 13  1  0  0  0  0
  5 31  1  0  0  0  0
  6 12  1  0  0  0  0
  6 15  1  0  0  0  0
  6 35  1  0  0  0  0
  7 15  1  0  0  0  0
  7 18  1  0  0  0  0
  7 36  1  0  0  0  0
  8  9  1  0  0  0  0
  8 11  1  0  0  0  0
  8 24  1  0  0  0  0
  9 10  1  0  0  0  0
  9 25  1  0  0  0  0
 10 12  1  0  0  0  0
 10 26  1  0  0  0  0
 11 27  1  0  0  0  0
 11 28  1  0  0  0  0
 12 29  1  0  0  0  0
 12 30  1  0  0  0  0
 13 14  1  0  0  0  0
 13 32  1  0  0  0  0
 13 33  1  0  0  0  0
 14 16  1  0  0  0  0
 14 17  2  0  0  0  0
 16 19  2  0  0  0  0
 17 20  1  0  0  0  0
 17 37  1  0  0  0  0
 18 21  1  0  0  0  0
 18 22  1  0  0  0  0
 18 38  1  0  0  0  0
 19 23  1  0  0  0  0
 19 39  1  0  0  0  0
 20 23  2  0  0  0  0
 20 40  1  0  0  0  0
 21 41  1  0  0  0  0
 21 42  1  0  0  0  0
 21 43  1  0  0  0  0
 22 44  1  0  0  0  0
 22 45  1  0  0  0  0
 22 46  1  0  0  0  0
 23 47  1  0  0  0  0
M  END
> <PUBCHEM_COMPOUND_CID>
75536740

> <PUBCHEM_CONFORMER_RMSD>
1

> <PUBCHEM_CONFORMER_DIVERSEORDER>
5
23
34
105
119
120
108
145
18
66
127
70
144
111
138
55
89
29
132
102
94
57
15
37
83
114
115
11
95
130
35
116
7
143
136
103
109
122
45
100
121
88
110
20
17
146
75
63
32
97
77
86
43
81
96
99
1
8
62
28
64
129
68
13
53
85
126
30
92
104
93
26
78
31
12
40
24
117
2
84
14
39
98
59
60
107
134
50
52
21
87
82
19
69
49
54
51
6
124
137
123
61
27
44
135
125
58
33
25
79
147
71
16
38
80
139
56
72
9
128
65
42
112
90
10
101
118
67
113
36
76
140
106
141
91
74
131
4
142
41
73
48
3
46
133
47
22

> <PUBCHEM_MMFF94_PARTIAL_CHARGES>
29
1 -0.19
10 0.28
11 0.28
12 0.3
13 0.41
14 -0.14
15 0.69
16 0.19
17 -0.15
18 0.3
19 -0.15
2 -0.56
20 -0.15
23 -0.15
3 -0.68
31 0.36
34 0.4
35 0.37
36 0.37
37 0.15
39 0.15
4 -0.57
40 0.15
47 0.15
5 -0.9
6 -0.73
7 -0.73
8 0.27
9 0.28

> <PUBCHEM_EFFECTIVE_ROTOR_COUNT>
9

> <PUBCHEM_PHARMACOPHORE_FEATURES>
11
1 2 acceptor
1 3 acceptor
1 3 donor
1 4 acceptor
1 5 cation
1 5 donor
1 6 donor
1 7 donor
3 18 21 22 hydrophobe
5 2 8 9 10 11 rings
6 14 16 17 19 20 23 rings

> <PUBCHEM_HEAVY_ATOM_COUNT>
23

> <PUBCHEM_ATOM_DEF_STEREO_COUNT>
3

> <PUBCHEM_ATOM_UDEF_STEREO_COUNT>
0

> <PUBCHEM_BOND_DEF_STEREO_COUNT>
0

> <PUBCHEM_BOND_UDEF_STEREO_COUNT>
0

> <PUBCHEM_ISOTOPIC_ATOM_COUNT>
0

> <PUBCHEM_COMPONENT_COUNT>
1

> <PUBCHEM_CACTVS_TAUTO_COUNT>
3

> <PUBCHEM_CONFORMER_ID>
0480996400000005

> <PUBCHEM_MMFF94_ENERGY>
38.2387

> <PUBCHEM_FEATURE_SELFOVERLAP>
55.874

> <PUBCHEM_SHAPE_FINGERPRINT>
104564 63 18410578357539123309
11578080 2 17703208655510567064
12422481 6 18054819216427212873
12553582 1 18339650052042250092
12788726 201 18411420600700092045
13140716 1 17975130152298009546
14081887 123 18129926928049427640
14251757 17 17677315200100712069
14464042 87 18271807891924239673
16752209 62 18411138009047293277
17138139 8 17622399950440156853
17357779 13 18340475716539298247
18219364 16 17686623850172244987
19591789 44 16536514363501851886
19930381 70 17617096249860004911
20261772 1 18195543510036417065
20600515 1 17969197049941568682
21236236 1 18339360743963277566
23419403 2 17182710889309332856
23557571 272 18272073969073922786
238 59 17257915521796208343
2803657 2 18335426772198511156
35225 105 17486792786969899169
3524813 1 17678456583111728783
394222 165 16880755447358659324
6438718 38 18129109939538914269
7226269 152 17830180456725683356
81228 2 18336818680867655200

> <PUBCHEM_SHAPE_MULTIPOLES>
433.5
6.87
3.71
1.64
0.15
3.27
-0.22
-2.98
0.96
1.09
-0.28
0.39
-0.14
-0.64

> <PUBCHEM_SHAPE_SELFOVERLAP>
891.121

> <PUBCHEM_SHAPE_VOLUME>
250.7

> <PUBCHEM_COORDINATE_TYPE>
2
5
10

$$$$
