45361078
  -OEChem-12032416233D

 65 68  0     1  0  0  0  0  0999 V2000
    0.4601   -0.3863    1.4154 O   0  0  0  0  0  0  0  0  0  0  0  0
   -5.9025    0.8474    0.2594 O   0  0  0  0  0  0  0  0  0  0  0  0
   -5.3827   -4.0021   -0.5607 O   0  0  0  0  0  0  0  0  0  0  0  0
    7.1471   -2.6964   -0.1921 O   0  0  0  0  0  0  0  0  0  0  0  0
   -1.3300    2.1252   -0.9251 N   0  0  1  0  0  0  0  0  0  0  0  0
    2.0956    1.1413   -0.0959 N   0  0  1  0  0  0  0  0  0  0  0  0
   -1.0553    1.2799    1.8197 N   0  0  0  0  0  0  0  0  0  0  0  0
   -5.0480   -1.3107    0.2043 N   0  0  0  0  0  0  0  0  0  0  0  0
    0.1263    2.3637   -0.8161 C   0  0  1  0  0  0  0  0  0  0  0  0
    0.8798    1.7961    0.4225 C   0  0  1  0  0  0  0  0  0  0  0  0
    0.9441    1.7810   -1.9838 C   0  0  0  0  0  0  0  0  0  0  0  0
    2.3474    1.6938   -1.4222 C   0  0  0  0  0  0  0  0  0  0  0  0
   -2.1404    2.7570    0.1534 C   0  0  2  0  0  0  0  0  0  0  0  0
    0.0956    0.7761    1.2441 C   0  0  0  0  0  0  0  0  0  0  0  0
   -1.5536    2.6183    1.5719 C   0  0  0  0  0  0  0  0  0  0  0  0
   -3.5631    2.1599    0.1795 C   0  0  0  0  0  0  0  0  0  0  0  0
    3.2480    1.2830    0.7850 C   0  0  0  0  0  0  0  0  0  0  0  0
   -1.8308    2.5374   -2.2473 C   0  0  0  0  0  0  0  0  0  0  0  0
   -3.5424    0.6438    0.1623 C   0  0  0  0  0  0  0  0  0  0  0  0
    4.2858    0.2236    0.5254 C   0  0  0  0  0  0  0  0  0  0  0  0
   -4.9392    0.0782    0.2147 C   0  0  0  0  0  0  0  0  0  0  0  0
    4.0862   -1.0771    0.9880 C   0  0  0  0  0  0  0  0  0  0  0  0
    5.4470    0.5430   -0.1784 C   0  0  0  0  0  0  0  0  0  0  0  0
   -6.3667   -1.9422    0.2478 C   0  0  0  0  0  0  0  0  0  0  0  0
   -3.9263   -2.2528    0.2795 C   0  0  0  0  0  0  0  0  0  0  0  0
    5.0478   -2.0583    0.7472 C   0  0  0  0  0  0  0  0  0  0  0  0
    6.4088   -0.4381   -0.4191 C   0  0  0  0  0  0  0  0  0  0  0  0
   -6.4480   -3.0712   -0.7697 C   0  0  0  0  0  0  0  0  0  0  0  0
   -4.1101   -3.3737   -0.7361 C   0  0  0  0  0  0  0  0  0  0  0  0
    6.2092   -1.7387    0.0437 C   0  0  0  0  0  0  0  0  0  0  0  0
    8.3105   -2.3011   -0.9175 C   0  0  0  0  0  0  0  0  0  0  0  0
    0.2982    3.4513   -0.8277 H   0  0  0  0  0  0  0  0  0  0  0  0
    1.1560    2.6319    1.0791 H   0  0  0  0  0  0  0  0  0  0  0  0
    0.5847    0.7795   -2.2561 H   0  0  0  0  0  0  0  0  0  0  0  0
    0.9126    2.4158   -2.8754 H   0  0  0  0  0  0  0  0  0  0  0  0
    2.9777    1.0419   -2.0347 H   0  0  0  0  0  0  0  0  0  0  0  0
    2.7995    2.6929   -1.3808 H   0  0  0  0  0  0  0  0  0  0  0  0
   -2.2335    3.8348   -0.0392 H   0  0  0  0  0  0  0  0  0  0  0  0
   -0.7443    3.3391    1.7256 H   0  0  0  0  0  0  0  0  0  0  0  0
   -2.3028    2.8333    2.3421 H   0  0  0  0  0  0  0  0  0  0  0  0
   -4.1433    2.5344   -0.6729 H   0  0  0  0  0  0  0  0  0  0  0  0
   -4.1037    2.5228    1.0641 H   0  0  0  0  0  0  0  0  0  0  0  0
    3.6869    2.2884    0.7294 H   0  0  0  0  0  0  0  0  0  0  0  0
    2.9401    1.1665    1.8338 H   0  0  0  0  0  0  0  0  0  0  0  0
   -1.5808    0.6745    2.4428 H   0  0  0  0  0  0  0  0  0  0  0  0
   -2.8975    2.3308   -2.3697 H   0  0  0  0  0  0  0  0  0  0  0  0
   -1.3524    1.9715   -3.0528 H   0  0  0  0  0  0  0  0  0  0  0  0
   -1.6669    3.6060   -2.4267 H   0  0  0  0  0  0  0  0  0  0  0  0
   -3.0322    0.2396    1.0343 H   0  0  0  0  0  0  0  0  0  0  0  0
   -3.0689    0.2644   -0.7487 H   0  0  0  0  0  0  0  0  0  0  0  0
    3.1871   -1.3392    1.5388 H   0  0  0  0  0  0  0  0  0  0  0  0
    5.6130    1.5525   -0.5453 H   0  0  0  0  0  0  0  0  0  0  0  0
   -7.1608   -1.2107    0.0710 H   0  0  0  0  0  0  0  0  0  0  0  0
   -6.4884   -2.3380    1.2630 H   0  0  0  0  0  0  0  0  0  0  0  0
   -3.9376   -2.6618    1.2968 H   0  0  0  0  0  0  0  0  0  0  0  0
   -2.9609   -1.7691    0.1243 H   0  0  0  0  0  0  0  0  0  0  0  0
    4.8869   -3.0698    1.1102 H   0  0  0  0  0  0  0  0  0  0  0  0
    7.2865   -0.1218   -0.9721 H   0  0  0  0  0  0  0  0  0  0  0  0
   -6.3980   -2.6892   -1.7963 H   0  0  0  0  0  0  0  0  0  0  0  0
   -7.3934   -3.6110   -0.6582 H   0  0  0  0  0  0  0  0  0  0  0  0
   -3.3371   -4.1361   -0.5980 H   0  0  0  0  0  0  0  0  0  0  0  0
   -4.0314   -2.9979   -1.7632 H   0  0  0  0  0  0  0  0  0  0  0  0
    8.9480   -3.1861   -1.0130 H   0  0  0  0  0  0  0  0  0  0  0  0
    8.8887   -1.5481   -0.3712 H   0  0  0  0  0  0  0  0  0  0  0  0
    8.0603   -1.9762   -1.9331 H   0  0  0  0  0  0  0  0  0  0  0  0
  1 14  2  0  0  0  0
  2 21  2  0  0  0  0
  3 28  1  0  0  0  0
  3 29  1  0  0  0  0
  4 30  1  0  0  0  0
  4 31  1  0  0  0  0
  5  9  1  0  0  0  0
  5 13  1  0  0  0  0
  5 18  1  0  0  0  0
  6 10  1  0  0  0  0
  6 12  1  0  0  0  0
  6 17  1  0  0  0  0
  7 14  1  0  0  0  0
  7 15  1  0  0  0  0
  7 45  1  0  0  0  0
  8 21  1  0  0  0  0
  8 24  1  0  0  0  0
  8 25  1  0  0  0  0
  9 10  1  0  0  0  0
  9 11  1  0  0  0  0
  9 32  1  0  0  0  0
 10 14  1  0  0  0  0
 10 33  1  0  0  0  0
 11 12  1  0  0  0  0
 11 34  1  0  0  0  0
 11 35  1  0  0  0  0
 12 36  1  0  0  0  0
 12 37  1  0  0  0  0
 13 15  1  0  0  0  0
 13 16  1  0  0  0  0
 13 38  1  0  0  0  0
 15 39  1  0  0  0  0
 15 40  1  0  0  0  0
 16 19  1  0  0  0  0
 16 41  1  0  0  0  0
 16 42  1  0  0  0  0
 17 20  1  0  0  0  0
 17 43  1  0  0  0  0
 17 44  1  0  0  0  0
 18 46  1  0  0  0  0
 18 47  1  0  0  0  0
 18 48  1  0  0  0  0
 19 21  1  0  0  0  0
 19 49  1  0  0  0  0
 19 50  1  0  0  0  0
 20 22  2  0  0  0  0
 20 23  1  0  0  0  0
 22 26  1  0  0  0  0
 22 51  1  0  0  0  0
 23 27  2  0  0  0  0
 23 52  1  0  0  0  0
 24 28  1  0  0  0  0
 24 53  1  0  0  0  0
 24 54  1  0  0  0  0
 25 29  1  0  0  0  0
 25 55  1  0  0  0  0
 25 56  1  0  0  0  0
 26 30  2  0  0  0  0
 26 57  1  0  0  0  0
 27 30  1  0  0  0  0
 27 58  1  0  0  0  0
 28 59  1  0  0  0  0
 28 60  1  0  0  0  0
 29 61  1  0  0  0  0
 29 62  1  0  0  0  0
 31 63  1  0  0  0  0
 31 64  1  0  0  0  0
 31 65  1  0  0  0  0
M  END
> <PUBCHEM_COMPOUND_CID>
45361078

> <PUBCHEM_CONFORMER_RMSD>
1

> <PUBCHEM_CONFORMER_DIVERSEORDER>
1
74
19
70
193
108
22
161
78
103
159
124
75
213
95
201
115
181
160
61
35
209
31
136
85
157
198
221
191
214
36
130
71
56
117
111
42
94
175
60
205
93
77
179
152
33
187
189
207
194
109
126
208
122
168
195
178
28
222
83
97
88
223
99
133
58
59
106
141
206
211
204
104
229
118
18
66
125
86
41
167
225
219
98
148
68
40
184
146
131
231
177
173
202
34
165
174
44
73
113
89
107
38
149
3
190
176
76
151
2
150
230
8
197
143
121
26
220
65
82
51
43
164
218
171
215
162
158
52
13
233
100
11
142
116
112
138
137
183
29
140
6
10
153
129
25
172
96
27
155
156
144
128
203
14
53
49
57
50
87
47
81
4
110
54
216
226
69
63
180
55
186
139
23
224
166
9
7
101
92
163
192
80
21
134
123
5
37
132
196
16
200
46
114
227
12
79
119
135
182
48
62
67
169
185
147
72
228
84
45
32
30
17
90
154
217
145
91
15
170
64
127
210
39
24
212
105
20
188
102
232
199
120

> <PUBCHEM_MMFF94_PARTIAL_CHARGES>
34
1 -0.57
10 0.33
12 0.27
13 0.27
14 0.57
15 0.3
17 0.41
18 0.27
19 0.06
2 -0.57
20 -0.14
21 0.57
22 -0.15
23 -0.15
24 0.3
25 0.3
26 -0.15
27 -0.15
28 0.28
29 0.28
3 -0.56
30 0.08
31 0.28
4 -0.36
45 0.37
5 -0.81
51 0.15
52 0.15
57 0.15
58 0.15
6 -0.81
7 -0.73
8 -0.66
9 0.27

> <PUBCHEM_EFFECTIVE_ROTOR_COUNT>
9.6

> <PUBCHEM_PHARMACOPHORE_FEATURES>
11
1 1 acceptor
1 2 acceptor
1 3 acceptor
1 4 acceptor
1 5 cation
1 6 cation
1 7 donor
5 6 9 10 11 12 rings
6 20 22 23 26 27 30 rings
6 3 8 24 25 28 29 rings
7 5 7 9 10 13 14 15 rings

> <PUBCHEM_HEAVY_ATOM_COUNT>
31

> <PUBCHEM_ATOM_DEF_STEREO_COUNT>
3

> <PUBCHEM_ATOM_UDEF_STEREO_COUNT>
0

> <PUBCHEM_BOND_DEF_STEREO_COUNT>
0

> <PUBCHEM_BOND_UDEF_STEREO_COUNT>
0

> <PUBCHEM_ISOTOPIC_ATOM_COUNT>
0

> <PUBCHEM_COMPONENT_COUNT>
1

> <PUBCHEM_CACTVS_TAUTO_COUNT>
3

> <PUBCHEM_CONFORMER_ID>
02B427B600000001

> <PUBCHEM_MMFF94_ENERGY>
92.6181

> <PUBCHEM_FEATURE_SELFOVERLAP>
55.859

> <PUBCHEM_SHAPE_FINGERPRINT>
10042902 136 18408039632361193821
10622 236 18334570278447252647
11135609 99 18272651247317824790
11285246 1 17604991601511100683
11497681 19 18408888460429538828
117089 54 17972326380732076091
12422481 6 17989486342051023446
12522641 68 17248628578163161084
12633257 1 16199589241991928477
1361 4 18413671322935850478
13690498 29 17749669588889649933
13782708 43 18272928344989390752
13911987 19 14996003229156112049
13947920 24 12179843883810501975
13947930 73 17775287200520381574
14068700 675 18411419518499832384
14251751 18 18341613750003006713
14251764 30 18341608269756781251
14347329 18 11170179982701602053
14856354 85 18129665179667953820
14950920 106 17775569766645697121
15082195 135 17823711935472361668
15163728 17 10809884281877128505
15361156 5 17677064446856849644
15510800 12 18131636668604226487
15728490 51 18339641243855668652
16112460 7 11815310733945265818
16994733 274 8718536191485145398
20775438 99 17682393998495709099
20775530 9 18263910168442222299
208703 8 18337947995384969303
21223535 225 15647317638056921213
21424621 283 10015863180659426332
21756936 100 9439111035988653753
21774942 28 8790882978714328486
23559900 14 18341323474486209841
32027 91 18199740522630163497
392239 28 13830121759712784208
397830 11 18201143443348321088
474113 269 18058999705876168303
5081480 168 15430038802842578095
5326457 24 18335423447861915834
54039377 194 18261122880769827283
7970288 3 18194396930305467263
8863177 126 18342734131151304224
9896288 288 17630896992904062593

> <PUBCHEM_SHAPE_MULTIPOLES>
594.56
19.21
4.44
1.48
15.9
2.67
0.31
24.1
2.36
-5.01
1.18
0.03
-0.96
-0.85

> <PUBCHEM_SHAPE_SELFOVERLAP>
1246.23

> <PUBCHEM_SHAPE_VOLUME>
334.4

> <PUBCHEM_COORDINATE_TYPE>
2
5
10

$$$$
