45783434
  -OEChem-12032416263D

 59 62  0     1  0  0  0  0  0999 V2000
    1.3002    3.0762    1.3430 O   0  0  0  0  0  0  0  0  0  0  0  0
    2.4401   -5.0426    0.4097 O   0  0  0  0  0  0  0  0  0  0  0  0
   -4.4203   -0.0041   -1.0984 O   0  0  0  0  0  0  0  0  0  0  0  0
   -5.0679   -2.7195   -0.8648 O   0  0  0  0  0  0  0  0  0  0  0  0
    2.9543    0.8937   -1.1078 N   0  0  1  0  0  0  0  0  0  0  0  0
    2.8991   -2.8203    0.9083 N   0  0  0  0  0  0  0  0  0  0  0  0
    0.2650    1.7597   -0.1443 N   0  0  0  0  0  0  0  0  0  0  0  0
   -0.0472    3.0425    1.7242 N   0  0  0  0  0  0  0  0  0  0  0  0
   -2.7258    2.4676    1.7807 N   0  0  0  0  0  0  0  0  0  0  0  0
    3.3753   -0.2082   -0.2460 C   0  0  0  0  0  0  0  0  0  0  0  0
    2.7751    2.1660   -0.3801 C   0  0  1  0  0  0  0  0  0  0  0  0
    3.9210    1.1595   -2.1733 C   0  0  0  0  0  0  0  0  0  0  0  0
    3.0646    3.2586   -1.4258 C   0  0  0  0  0  0  0  0  0  0  0  0
    3.5295   -1.4924   -1.0710 C   0  0  0  0  0  0  0  0  0  0  0  0
    2.3552   -0.4145    0.8813 C   0  0  0  0  0  0  0  0  0  0  0  0
    3.4563    2.5061   -2.6895 C   0  0  0  0  0  0  0  0  0  0  0  0
    3.8764   -2.6788   -0.1731 C   0  0  0  0  0  0  0  0  0  0  0  0
    2.7249   -1.6234    1.7406 C   0  0  0  0  0  0  0  0  0  0  0  0
    1.3974    2.2958    0.2349 C   0  0  0  0  0  0  0  0  0  0  0  0
    2.2497   -4.0391    1.1017 C   0  0  0  0  0  0  0  0  0  0  0  0
    1.2561   -4.1030    2.2341 C   0  0  0  0  0  0  0  0  0  0  0  0
   -0.5920    2.2463    0.7994 C   0  0  0  0  0  0  0  0  0  0  0  0
   -1.9886    1.9189    0.7892 C   0  0  0  0  0  0  0  0  0  0  0  0
   -2.5049    1.0895   -0.1934 C   0  0  0  0  0  0  0  0  0  0  0  0
   -3.8654    0.8047   -0.1559 C   0  0  0  0  0  0  0  0  0  0  0  0
   -4.0443    2.1682    1.7846 C   0  0  0  0  0  0  0  0  0  0  0  0
   -4.6568    1.3505    0.8488 C   0  0  0  0  0  0  0  0  0  0  0  0
   -3.5850   -1.0163   -1.6594 C   0  0  0  0  0  0  0  0  0  0  0  0
   -4.4400   -2.2111   -2.0355 C   0  0  0  0  0  0  0  0  0  0  0  0
   -5.9020   -3.8305   -1.1622 C   0  0  0  0  0  0  0  0  0  0  0  0
    4.3479    0.0244    0.2116 H   0  0  0  0  0  0  0  0  0  0  0  0
    3.5262    2.2657    0.4166 H   0  0  0  0  0  0  0  0  0  0  0  0
    3.8866    0.4205   -2.9793 H   0  0  0  0  0  0  0  0  0  0  0  0
    4.9474    1.2335   -1.7921 H   0  0  0  0  0  0  0  0  0  0  0  0
    3.9072    3.8758   -1.0906 H   0  0  0  0  0  0  0  0  0  0  0  0
    2.2159    3.9244   -1.6167 H   0  0  0  0  0  0  0  0  0  0  0  0
    2.5959   -1.7089   -1.6073 H   0  0  0  0  0  0  0  0  0  0  0  0
    4.3246   -1.4014   -1.8188 H   0  0  0  0  0  0  0  0  0  0  0  0
    2.3230    0.4343    1.5692 H   0  0  0  0  0  0  0  0  0  0  0  0
    1.3528   -0.5808    0.4676 H   0  0  0  0  0  0  0  0  0  0  0  0
    2.5796    2.3864   -3.3383 H   0  0  0  0  0  0  0  0  0  0  0  0
    4.2315    3.0283   -3.2581 H   0  0  0  0  0  0  0  0  0  0  0  0
    3.9283   -3.5925   -0.7735 H   0  0  0  0  0  0  0  0  0  0  0  0
    4.8595   -2.5355    0.2908 H   0  0  0  0  0  0  0  0  0  0  0  0
    3.6767   -1.4488    2.2567 H   0  0  0  0  0  0  0  0  0  0  0  0
    1.9641   -1.7672    2.5100 H   0  0  0  0  0  0  0  0  0  0  0  0
    0.8130   -5.1029    2.2735 H   0  0  0  0  0  0  0  0  0  0  0  0
    1.7565   -3.9144    3.1876 H   0  0  0  0  0  0  0  0  0  0  0  0
    0.4516   -3.3806    2.0723 H   0  0  0  0  0  0  0  0  0  0  0  0
   -1.8654    0.7038   -0.9803 H   0  0  0  0  0  0  0  0  0  0  0  0
   -4.6173    2.6186    2.5884 H   0  0  0  0  0  0  0  0  0  0  0  0
   -5.7203    1.1453    0.9027 H   0  0  0  0  0  0  0  0  0  0  0  0
   -2.8399   -1.3638   -0.9319 H   0  0  0  0  0  0  0  0  0  0  0  0
   -3.0822   -0.6193   -2.5478 H   0  0  0  0  0  0  0  0  0  0  0  0
   -5.2143   -1.9017   -2.7471 H   0  0  0  0  0  0  0  0  0  0  0  0
   -3.8179   -2.9888   -2.4922 H   0  0  0  0  0  0  0  0  0  0  0  0
   -6.7025   -3.5369   -1.8481 H   0  0  0  0  0  0  0  0  0  0  0  0
   -5.3149   -4.6464   -1.5947 H   0  0  0  0  0  0  0  0  0  0  0  0
   -6.3531   -4.1814   -0.2302 H   0  0  0  0  0  0  0  0  0  0  0  0
  1  8  1  0  0  0  0
  1 19  1  0  0  0  0
  2 20  2  0  0  0  0
  3 25  1  0  0  0  0
  3 28  1  0  0  0  0
  4 29  1  0  0  0  0
  4 30  1  0  0  0  0
  5 10  1  0  0  0  0
  5 11  1  0  0  0  0
  5 12  1  0  0  0  0
  6 17  1  0  0  0  0
  6 18  1  0  0  0  0
  6 20  1  0  0  0  0
  7 19  2  0  0  0  0
  7 22  1  0  0  0  0
  8 22  2  0  0  0  0
  9 23  2  0  0  0  0
  9 26  1  0  0  0  0
 10 14  1  0  0  0  0
 10 15  1  0  0  0  0
 10 31  1  0  0  0  0
 11 13  1  0  0  0  0
 11 19  1  0  0  0  0
 11 32  1  0  0  0  0
 12 16  1  0  0  0  0
 12 33  1  0  0  0  0
 12 34  1  0  0  0  0
 13 16  1  0  0  0  0
 13 35  1  0  0  0  0
 13 36  1  0  0  0  0
 14 17  1  0  0  0  0
 14 37  1  0  0  0  0
 14 38  1  0  0  0  0
 15 18  1  0  0  0  0
 15 39  1  0  0  0  0
 15 40  1  0  0  0  0
 16 41  1  0  0  0  0
 16 42  1  0  0  0  0
 17 43  1  0  0  0  0
 17 44  1  0  0  0  0
 18 45  1  0  0  0  0
 18 46  1  0  0  0  0
 20 21  1  0  0  0  0
 21 47  1  0  0  0  0
 21 48  1  0  0  0  0
 21 49  1  0  0  0  0
 22 23  1  0  0  0  0
 23 24  1  0  0  0  0
 24 25  2  0  0  0  0
 24 50  1  0  0  0  0
 25 27  1  0  0  0  0
 26 27  2  0  0  0  0
 26 51  1  0  0  0  0
 27 52  1  0  0  0  0
 28 29  1  0  0  0  0
 28 53  1  0  0  0  0
 28 54  1  0  0  0  0
 29 55  1  0  0  0  0
 29 56  1  0  0  0  0
 30 57  1  0  0  0  0
 30 58  1  0  0  0  0
 30 59  1  0  0  0  0
M  END
> <PUBCHEM_COMPOUND_CID>
45783434

> <PUBCHEM_CONFORMER_RMSD>
1

> <PUBCHEM_CONFORMER_DIVERSEORDER>
1
102
58
100
97
76
49
62
3
32
96
41
43
84
50
19
85
93
30
45
91
36
55
9
79
11
65
29
16
78
22
99
51
23
44
98
59
73
33
81
25
40
61
87
53
66
28
35
24
15
64
68
74
14
6
82
83
104
26
89
27
20
34
70
80
72
13
86
2
21
4
90
7
63
18
94
75
101
57
12
52
60
88
10
5
37
54
17
95
77
48
92
47
71
69
46
8
42
38
31
56
67
103
39

> <PUBCHEM_MMFF94_PARTIAL_CHARGES>
29
1 -0.02
10 0.27
11 0.45
12 0.27
17 0.3
18 0.3
19 0.3
2 -0.57
20 0.57
21 0.06
22 0.46
23 0.36
24 -0.15
25 0.08
26 0.16
27 -0.15
28 0.28
29 0.28
3 -0.36
30 0.28
4 -0.56
5 -0.81
50 0.15
51 0.15
52 0.15
6 -0.66
7 -0.57
8 -0.41
9 -0.62

> <PUBCHEM_EFFECTIVE_ROTOR_COUNT>
10.2

> <PUBCHEM_PHARMACOPHORE_FEATURES>
10
1 2 acceptor
1 3 acceptor
1 4 acceptor
1 5 cation
1 9 acceptor
3 7 8 22 cation
5 1 7 8 19 22 rings
5 5 11 12 13 16 rings
6 6 10 14 15 17 18 rings
6 9 23 24 25 26 27 rings

> <PUBCHEM_HEAVY_ATOM_COUNT>
30

> <PUBCHEM_ATOM_DEF_STEREO_COUNT>
1

> <PUBCHEM_ATOM_UDEF_STEREO_COUNT>
0

> <PUBCHEM_BOND_DEF_STEREO_COUNT>
0

> <PUBCHEM_BOND_UDEF_STEREO_COUNT>
0

> <PUBCHEM_ISOTOPIC_ATOM_COUNT>
0

> <PUBCHEM_COMPONENT_COUNT>
1

> <PUBCHEM_CACTVS_TAUTO_COUNT>
1

> <PUBCHEM_CONFORMER_ID>
02BA998A00000001

> <PUBCHEM_MMFF94_ENERGY>
64.366

> <PUBCHEM_FEATURE_SELFOVERLAP>
50.752

> <PUBCHEM_SHAPE_FINGERPRINT>
10928967 22 18342466893853964803
11069576 57 18336539422252474430
11186622 123 18272370931686768085
11315621 136 18409448115578808134
114674 6 17767675427887688369
13383661 66 17543078226732944571
14480069 147 18335146414525396363
14674994 50 17182476418554949692
14863182 85 18334863784397616376
15003188 105 18126267864810166743
15250474 111 18412265030220090341
15537594 2 18122638149362131266
16989713 51 17109873449982147834
17138139 8 18270408303415376860
17909252 39 18128252487909982267
19319366 153 18337688484891817100
20764821 26 18335433382037278778
20775530 9 17684650931143706690
21054139 6 18340210812100895108
21703447 108 17701242866924447833
235170 7 17168143481338392189
25222932 49 17915448617865731573
312425 83 17676753323973933965
404807 78 17101994834592768075
437795 96 15023857848976865035
4394409 98 17834102053781743765
4409770 3 17543652163217658188
463206 1 18339642226764986723
474144 1 18339362968028181063
4756261 7 17978188882357596706
6422251 121 18196648717350457503
66674814 147 18187357766263573642
6823239 73 16917075455649613524
86090 222 17690833889054570099

> <PUBCHEM_SHAPE_MULTIPOLES>
569
11.16
6.45
2.32
14.22
7.01
-0.41
5.64
-5.44
-2.3
1.77
-0.04
-0.18
-6.19

> <PUBCHEM_SHAPE_SELFOVERLAP>
1200.488

> <PUBCHEM_SHAPE_VOLUME>
319.1

> <PUBCHEM_COORDINATE_TYPE>
2
5
10

$$$$
