75368584
  -OEChem-12032416393D

 54 57  0     1  0  0  0  0  0999 V2000
    4.0168    2.5545   -0.7430 O   0  0  0  0  0  0  0  0  0  0  0  0
   -7.5141    0.2226   -1.1967 O   0  0  0  0  0  0  0  0  0  0  0  0
    1.7849    1.8750   -0.4683 N   0  0  0  0  0  0  0  0  0  0  0  0
   -0.7227    1.5326    0.7588 N   0  0  2  0  0  0  0  0  0  0  0  0
    3.2437    0.4080   -1.3422 N   0  0  0  0  0  0  0  0  0  0  0  0
   -6.2442   -1.5084   -0.2222 N   0  0  0  0  0  0  0  0  0  0  0  0
    0.9756    0.7307   -0.8320 C   0  0  2  0  0  0  0  0  0  0  0  0
    0.0451    0.3499    0.3192 C   0  0  0  0  0  0  0  0  0  0  0  0
    2.0030   -0.3356   -1.2065 C   0  0  0  0  0  0  0  0  0  0  0  0
    1.1475    3.0377    0.1138 C   0  0  0  0  0  0  0  0  0  0  0  0
    0.1813    2.6058    1.2198 C   0  0  0  0  0  0  0  0  0  0  0  0
    3.1265    1.7206   -0.8423 C   0  0  0  0  0  0  0  0  0  0  0  0
   -1.6601    1.1655    1.8199 C   0  0  0  0  0  0  0  0  0  0  0  0
    4.4654   -0.2163   -1.7997 C   0  0  0  0  0  0  0  0  0  0  0  0
   -2.8705    0.4595    1.2807 C   0  0  0  0  0  0  0  0  0  0  0  0
    5.1581   -0.9683   -0.7002 C   0  0  0  0  0  0  0  0  0  0  0  0
   -3.0001   -0.9206    1.4365 C   0  0  0  0  0  0  0  0  0  0  0  0
   -3.8655    1.1838    0.6239 C   0  0  0  0  0  0  0  0  0  0  0  0
    6.0982   -0.3220    0.1024 C   0  0  0  0  0  0  0  0  0  0  0  0
    4.8614   -2.3135   -0.4815 C   0  0  0  0  0  0  0  0  0  0  0  0
   -4.1246   -1.5763    0.9356 C   0  0  0  0  0  0  0  0  0  0  0  0
   -4.9901    0.5280    0.1230 C   0  0  0  0  0  0  0  0  0  0  0  0
   -5.1195   -0.8522    0.2790 C   0  0  0  0  0  0  0  0  0  0  0  0
    6.7416   -1.0210    1.1238 C   0  0  0  0  0  0  0  0  0  0  0  0
    5.5047   -3.0125    0.5398 C   0  0  0  0  0  0  0  0  0  0  0  0
    6.4449   -2.3662    1.3425 C   0  0  0  0  0  0  0  0  0  0  0  0
   -7.3366   -0.9553   -0.9037 C   0  0  0  0  0  0  0  0  0  0  0  0
   -8.3507   -2.0060   -1.2805 C   0  0  0  0  0  0  0  0  0  0  0  0
    0.3929    1.0185   -1.7171 H   0  0  0  0  0  0  0  0  0  0  0  0
   -0.6181   -0.4445   -0.0395 H   0  0  0  0  0  0  0  0  0  0  0  0
    0.6252   -0.0575    1.1585 H   0  0  0  0  0  0  0  0  0  0  0  0
    2.1276   -1.0875   -0.4212 H   0  0  0  0  0  0  0  0  0  0  0  0
    1.7559   -0.8296   -2.1509 H   0  0  0  0  0  0  0  0  0  0  0  0
    0.6077    3.5497   -0.6910 H   0  0  0  0  0  0  0  0  0  0  0  0
    1.9112    3.7209    0.4984 H   0  0  0  0  0  0  0  0  0  0  0  0
    0.7551    2.2656    2.0923 H   0  0  0  0  0  0  0  0  0  0  0  0
   -0.3982    3.4839    1.5287 H   0  0  0  0  0  0  0  0  0  0  0  0
   -2.0278    2.0666    2.3311 H   0  0  0  0  0  0  0  0  0  0  0  0
   -1.1724    0.5716    2.6050 H   0  0  0  0  0  0  0  0  0  0  0  0
    5.1323    0.5657   -2.1828 H   0  0  0  0  0  0  0  0  0  0  0  0
    4.2314   -0.8740   -2.6449 H   0  0  0  0  0  0  0  0  0  0  0  0
   -2.2323   -1.4971    1.9456 H   0  0  0  0  0  0  0  0  0  0  0  0
   -3.7750    2.2595    0.4970 H   0  0  0  0  0  0  0  0  0  0  0  0
    6.3384    0.7258   -0.0567 H   0  0  0  0  0  0  0  0  0  0  0  0
    4.1314   -2.8287   -1.1002 H   0  0  0  0  0  0  0  0  0  0  0  0
   -4.2123   -2.6522    1.0640 H   0  0  0  0  0  0  0  0  0  0  0  0
   -5.7175    1.1553   -0.3728 H   0  0  0  0  0  0  0  0  0  0  0  0
    7.4734   -0.5178    1.7489 H   0  0  0  0  0  0  0  0  0  0  0  0
    5.2737   -4.0600    0.7102 H   0  0  0  0  0  0  0  0  0  0  0  0
    6.9458   -2.9105    2.1377 H   0  0  0  0  0  0  0  0  0  0  0  0
   -6.2645   -2.5144   -0.0682 H   0  0  0  0  0  0  0  0  0  0  0  0
   -8.7085   -2.5160   -0.3816 H   0  0  0  0  0  0  0  0  0  0  0  0
   -7.8942   -2.7341   -1.9568 H   0  0  0  0  0  0  0  0  0  0  0  0
   -9.2009   -1.5372   -1.7837 H   0  0  0  0  0  0  0  0  0  0  0  0
  1 12  2  0  0  0  0
  2 27  2  0  0  0  0
  3  7  1  0  0  0  0
  3 10  1  0  0  0  0
  3 12  1  0  0  0  0
  4  8  1  0  0  0  0
  4 11  1  0  0  0  0
  4 13  1  0  0  0  0
  5  9  1  0  0  0  0
  5 12  1  0  0  0  0
  5 14  1  0  0  0  0
  6 23  1  0  0  0  0
  6 27  1  0  0  0  0
  6 51  1  0  0  0  0
  7  8  1  0  0  0  0
  7  9  1  0  0  0  0
  7 29  1  0  0  0  0
  8 30  1  0  0  0  0
  8 31  1  0  0  0  0
  9 32  1  0  0  0  0
  9 33  1  0  0  0  0
 10 11  1  0  0  0  0
 10 34  1  0  0  0  0
 10 35  1  0  0  0  0
 11 36  1  0  0  0  0
 11 37  1  0  0  0  0
 13 15  1  0  0  0  0
 13 38  1  0  0  0  0
 13 39  1  0  0  0  0
 14 16  1  0  0  0  0
 14 40  1  0  0  0  0
 14 41  1  0  0  0  0
 15 17  2  0  0  0  0
 15 18  1  0  0  0  0
 16 19  2  0  0  0  0
 16 20  1  0  0  0  0
 17 21  1  0  0  0  0
 17 42  1  0  0  0  0
 18 22  2  0  0  0  0
 18 43  1  0  0  0  0
 19 24  1  0  0  0  0
 19 44  1  0  0  0  0
 20 25  2  0  0  0  0
 20 45  1  0  0  0  0
 21 23  2  0  0  0  0
 21 46  1  0  0  0  0
 22 23  1  0  0  0  0
 22 47  1  0  0  0  0
 24 26  2  0  0  0  0
 24 48  1  0  0  0  0
 25 26  1  0  0  0  0
 25 49  1  0  0  0  0
 26 50  1  0  0  0  0
 27 28  1  0  0  0  0
 28 52  1  0  0  0  0
 28 53  1  0  0  0  0
 28 54  1  0  0  0  0
M  END
> <PUBCHEM_COMPOUND_CID>
75368584

> <PUBCHEM_CONFORMER_RMSD>
0.8

> <PUBCHEM_CONFORMER_DIVERSEORDER>
1
118
107
17
66
79
86
128
77
94
18
75
13
88
54
111
105
125
57
124
55
62
89
95
76
91
96
27
117
114
58
81
120
39
126
50
43
20
78
110
130
24
69
112
37
82
127
38
113
15
49
70
92
5
8
84
32
122
103
21
106
119
74
83
100
48
35
6
42
121
109
73
23
65
123
99
68
56
45
14
12
97
36
41
80
52
129
25
102
44
116
30
16
28
72
46
87
3
40
22
19
71
9
104
61
93
11
34
85
31
10
115
26
67
98
60
64
33
63
47
90
59
29
7
4
2
51
101
108
53

> <PUBCHEM_MMFF94_PARTIAL_CHARGES>
38
1 -0.57
10 0.3
11 0.27
12 0.69
13 0.41
14 0.44
15 -0.14
16 -0.14
17 -0.15
18 -0.15
19 -0.15
2 -0.57
20 -0.15
21 -0.15
22 -0.15
23 0.12
24 -0.15
25 -0.15
26 -0.15
27 0.57
28 0.06
3 -0.66
4 -0.81
42 0.15
43 0.15
44 0.15
45 0.15
46 0.15
47 0.15
48 0.15
49 0.15
5 -0.66
50 0.15
51 0.37
6 -0.55
7 0.3
8 0.27
9 0.3

> <PUBCHEM_EFFECTIVE_ROTOR_COUNT>
7.2

> <PUBCHEM_PHARMACOPHORE_FEATURES>
8
1 1 acceptor
1 2 acceptor
1 4 cation
1 6 donor
5 3 5 7 9 12 rings
6 15 17 18 21 22 23 rings
6 16 19 20 24 25 26 rings
6 3 4 7 8 10 11 rings

> <PUBCHEM_HEAVY_ATOM_COUNT>
28

> <PUBCHEM_ATOM_DEF_STEREO_COUNT>
1

> <PUBCHEM_ATOM_UDEF_STEREO_COUNT>
0

> <PUBCHEM_BOND_DEF_STEREO_COUNT>
0

> <PUBCHEM_BOND_UDEF_STEREO_COUNT>
0

> <PUBCHEM_ISOTOPIC_ATOM_COUNT>
0

> <PUBCHEM_COMPONENT_COUNT>
1

> <PUBCHEM_CACTVS_TAUTO_COUNT>
3

> <PUBCHEM_CONFORMER_ID>
047E088800000001

> <PUBCHEM_MMFF94_ENERGY>
73.8051

> <PUBCHEM_FEATURE_SELFOVERLAP>
40.692

> <PUBCHEM_SHAPE_FINGERPRINT>
10 15 11455893555573694967
10448021 39 17750224825488197634
10670039 82 16805313367815289277
10674148 151 13695586638220164446
10883706 17 18266457784155345307
11475781 23 14129350619633785166
11796584 16 17095809918503307064
12373685 5 18263917911993664586
12390115 104 11386375854617915985
12596602 18 14333138433610224639
12838863 1 18343015579921186215
13177829 20 13110960938132763447
13533116 47 18334583434633525096
13782708 43 18261118499765878871
13914758 101 18114179701484272319
14347332 77 18412267216379958753
14428016 204 7925638796063720939
14848178 5 18187374190624539658
14951699 99 10665217139201252775
15119646 104 18409174281185204795
15183329 4 16370724811886647090
15188451 53 18412542077217530714
15350500 16 18334848395160594842
15475509 8 15213019332166527575
17857418 61 18261683597186870762
190975 80 15626216936119935511
19304671 126 14707216543149501422
19377110 9 14908179754766634121
19958102 18 18040436607502452087
20028762 73 18271530797556325606
20567600 234 16774072990847327914
21315763 87 16702310026680588319
21315764 119 17385445440471903559
21344244 78 15769780182106530601
21458453 9 15122928712367417142
22149856 69 16414936187799526275
23559900 14 18264208187849228633
3014063 24 18410292472079593850
3711267 37 11891330924681549959
397830 11 12607409888551719603
439807 62 18270965752170001431
4408954 87 16916773098758571966
474113 269 18114453462731926778
5085150 59 18059855031011316759
5104073 3 18200893832174810441
5223283 242 15357701851463197854
5718773 13 18413669106516194591
5951187 136 8574130796954587498
59682541 35 16343696655887062098
59682541 52 17967534592328160807
6004065 56 18343580763193739114
6438161 24 18341889714969511579
96874 4 18411976931993028154
9689198 14 8646484154617998127

> <PUBCHEM_SHAPE_MULTIPOLES>
544.56
21.74
3.06
1.58
20.97
0.55
-0.05
-18.98
4.17
-2.82
-0.4
-0.13
-0.08
-2.53

> <PUBCHEM_SHAPE_SELFOVERLAP>
1164.335

> <PUBCHEM_SHAPE_VOLUME>
302.2

> <PUBCHEM_COORDINATE_TYPE>
2
5
10

$$$$
