45783984
  -OEChem-12032416253D

 81 84  0     1  0  0  0  0  0999 V2000
   -3.2820    1.0852    0.8172 O   0  0  0  0  0  0  0  0  0  0  0  0
    9.3989   -3.2383   -0.0563 O   0  0  0  0  0  0  0  0  0  0  0  0
    4.1475    0.6038    0.3059 N   0  0  0  0  0  0  0  0  0  0  0  0
    6.5456   -0.9903    0.5634 N   0  0  0  0  0  0  0  0  0  0  0  0
   -2.0043    0.3319    2.4919 N   0  0  0  0  0  0  0  0  0  0  0  0
   -3.0719   -0.5340    2.3464 N   0  0  0  0  0  0  0  0  0  0  0  0
   -8.5668   -1.9588   -0.9467 N   0  0  0  0  0  0  0  0  0  0  0  0
    1.4607    0.7776   -0.8527 C   0  0  1  0  0  0  0  0  0  0  0  0
    2.4232    1.9860   -0.7815 C   0  0  2  0  0  0  0  0  0  0  0  0
    0.3289    0.9302    0.1732 C   0  0  0  0  0  0  0  0  0  0  0  0
   -0.4751    2.2376    0.0069 C   0  0  2  0  0  0  0  0  0  0  0  0
    0.9032    0.5892   -2.2701 C   0  0  0  0  0  0  0  0  0  0  0  0
    3.4044    1.8597    0.3884 C   0  0  0  0  0  0  0  0  0  0  0  0
    1.6943    3.3014   -0.6774 C   0  0  0  0  0  0  0  0  0  0  0  0
    0.3985    3.4339   -0.3391 C   0  0  0  0  0  0  0  0  0  0  0  0
   -1.3164    2.4588    1.2701 C   0  0  0  0  0  0  0  0  0  0  0  0
    1.9675   -0.0074   -3.1856 C   0  0  0  0  0  0  0  0  0  0  0  0
   -0.3405   -0.2933   -2.2396 C   0  0  0  0  0  0  0  0  0  0  0  0
    5.2402    0.7078   -0.6690 C   0  0  0  0  0  0  0  0  0  0  0  0
    4.6700    0.2196    1.6229 C   0  0  0  0  0  0  0  0  0  0  0  0
   -0.2528    4.7896   -0.3501 C   0  0  0  0  0  0  0  0  0  0  0  0
    6.0231   -0.6070   -0.7540 C   0  0  0  0  0  0  0  0  0  0  0  0
    5.4520   -1.0956    1.5369 C   0  0  0  0  0  0  0  0  0  0  0  0
   -2.1679    1.2608    1.5791 C   0  0  0  0  0  0  0  0  0  0  0  0
    7.2904   -2.2451    0.4813 C   0  0  0  0  0  0  0  0  0  0  0  0
    8.7082   -1.9968   -0.0083 C   0  0  0  0  0  0  0  0  0  0  0  0
   -3.7910   -0.0554    1.3581 C   0  0  0  0  0  0  0  0  0  0  0  0
   -5.0068   -0.5399    0.7715 C   0  0  0  0  0  0  0  0  0  0  0  0
   10.7295   -3.0768   -0.5283 C   0  0  0  0  0  0  0  0  0  0  0  0
   -5.6019   -1.7029    1.2600 C   0  0  0  0  0  0  0  0  0  0  0  0
   -5.5943    0.1524   -0.2875 C   0  0  0  0  0  0  0  0  0  0  0  0
   -6.7844   -2.1739    0.6897 C   0  0  0  0  0  0  0  0  0  0  0  0
   -6.7768   -0.3186   -0.8580 C   0  0  0  0  0  0  0  0  0  0  0  0
   -7.3717   -1.4817   -0.3694 C   0  0  0  0  0  0  0  0  0  0  0  0
   -9.1894   -1.2428   -2.0426 C   0  0  0  0  0  0  0  0  0  0  0  0
   -9.1922   -3.1670   -0.4470 C   0  0  0  0  0  0  0  0  0  0  0  0
    1.9873   -0.1500   -0.5950 H   0  0  0  0  0  0  0  0  0  0  0  0
    3.0024    2.0475   -1.7080 H   0  0  0  0  0  0  0  0  0  0  0  0
   -0.3205    0.0493    0.1880 H   0  0  0  0  0  0  0  0  0  0  0  0
    0.7905    0.9290    1.1714 H   0  0  0  0  0  0  0  0  0  0  0  0
   -1.1681    2.1179   -0.8356 H   0  0  0  0  0  0  0  0  0  0  0  0
    0.6047    1.5543   -2.6982 H   0  0  0  0  0  0  0  0  0  0  0  0
    2.8340    1.8954    1.3265 H   0  0  0  0  0  0  0  0  0  0  0  0
    4.0846    2.7221    0.4271 H   0  0  0  0  0  0  0  0  0  0  0  0
    2.2770    4.1884   -0.9169 H   0  0  0  0  0  0  0  0  0  0  0  0
   -0.6717    2.6689    2.1327 H   0  0  0  0  0  0  0  0  0  0  0  0
   -1.9819    3.3222    1.1523 H   0  0  0  0  0  0  0  0  0  0  0  0
    2.3264   -0.9708   -2.8068 H   0  0  0  0  0  0  0  0  0  0  0  0
    2.8311    0.6516   -3.3055 H   0  0  0  0  0  0  0  0  0  0  0  0
    1.5592   -0.1794   -4.1879 H   0  0  0  0  0  0  0  0  0  0  0  0
   -0.1552   -1.2373   -1.7147 H   0  0  0  0  0  0  0  0  0  0  0  0
   -0.6346   -0.5563   -3.2632 H   0  0  0  0  0  0  0  0  0  0  0  0
   -1.2163    0.1927   -1.8044 H   0  0  0  0  0  0  0  0  0  0  0  0
    4.8521    0.9222   -1.6700 H   0  0  0  0  0  0  0  0  0  0  0  0
    5.9265    1.5239   -0.4046 H   0  0  0  0  0  0  0  0  0  0  0  0
    3.8400    0.0760    2.3255 H   0  0  0  0  0  0  0  0  0  0  0  0
    5.3146    1.0089    2.0331 H   0  0  0  0  0  0  0  0  0  0  0  0
   -1.1691    4.7662   -0.9491 H   0  0  0  0  0  0  0  0  0  0  0  0
    0.3988    5.5569   -0.7822 H   0  0  0  0  0  0  0  0  0  0  0  0
   -0.5034    5.1073    0.6667 H   0  0  0  0  0  0  0  0  0  0  0  0
    6.8414   -0.4602   -1.4674 H   0  0  0  0  0  0  0  0  0  0  0  0
    5.3725   -1.3926   -1.1625 H   0  0  0  0  0  0  0  0  0  0  0  0
    4.7709   -1.9158    1.2722 H   0  0  0  0  0  0  0  0  0  0  0  0
    5.8581   -1.3151    2.5320 H   0  0  0  0  0  0  0  0  0  0  0  0
    6.7833   -2.9945   -0.1409 H   0  0  0  0  0  0  0  0  0  0  0  0
    7.3757   -2.7071    1.4747 H   0  0  0  0  0  0  0  0  0  0  0  0
    9.2319   -1.3160    0.6741 H   0  0  0  0  0  0  0  0  0  0  0  0
    8.7088   -1.5558   -1.0110 H   0  0  0  0  0  0  0  0  0  0  0  0
   10.7300   -2.6780   -1.5473 H   0  0  0  0  0  0  0  0  0  0  0  0
   11.2950   -2.4160    0.1359 H   0  0  0  0  0  0  0  0  0  0  0  0
   11.2125   -4.0576   -0.5380 H   0  0  0  0  0  0  0  0  0  0  0  0
   -5.1610   -2.2581    2.0847 H   0  0  0  0  0  0  0  0  0  0  0  0
   -5.1599    1.0618   -0.6951 H   0  0  0  0  0  0  0  0  0  0  0  0
   -7.2081   -3.0828    1.1053 H   0  0  0  0  0  0  0  0  0  0  0  0
   -7.1944    0.2549   -1.6796 H   0  0  0  0  0  0  0  0  0  0  0  0
   -9.4728   -0.2279   -1.7422 H   0  0  0  0  0  0  0  0  0  0  0  0
  -10.1086   -1.7360   -2.3781 H   0  0  0  0  0  0  0  0  0  0  0  0
   -8.5258   -1.1967   -2.9132 H   0  0  0  0  0  0  0  0  0  0  0  0
  -10.1079   -3.4070   -0.9989 H   0  0  0  0  0  0  0  0  0  0  0  0
   -9.4821   -3.0571    0.6040 H   0  0  0  0  0  0  0  0  0  0  0  0
   -8.5279   -4.0314   -0.5567 H   0  0  0  0  0  0  0  0  0  0  0  0
  1 24  1  0  0  0  0
  1 27  1  0  0  0  0
  2 26  1  0  0  0  0
  2 29  1  0  0  0  0
  3 13  1  0  0  0  0
  3 19  1  0  0  0  0
  3 20  1  0  0  0  0
  4 22  1  0  0  0  0
  4 23  1  0  0  0  0
  4 25  1  0  0  0  0
  5  6  1  0  0  0  0
  5 24  2  0  0  0  0
  6 27  2  0  0  0  0
  7 34  1  0  0  0  0
  7 35  1  0  0  0  0
  7 36  1  0  0  0  0
  8  9  1  0  0  0  0
  8 10  1  0  0  0  0
  8 12  1  0  0  0  0
  8 37  1  0  0  0  0
  9 13  1  0  0  0  0
  9 14  1  0  0  0  0
  9 38  1  0  0  0  0
 10 11  1  0  0  0  0
 10 39  1  0  0  0  0
 10 40  1  0  0  0  0
 11 15  1  0  0  0  0
 11 16  1  0  0  0  0
 11 41  1  0  0  0  0
 12 17  1  0  0  0  0
 12 18  1  0  0  0  0
 12 42  1  0  0  0  0
 13 43  1  0  0  0  0
 13 44  1  0  0  0  0
 14 15  2  0  0  0  0
 14 45  1  0  0  0  0
 15 21  1  0  0  0  0
 16 24  1  0  0  0  0
 16 46  1  0  0  0  0
 16 47  1  0  0  0  0
 17 48  1  0  0  0  0
 17 49  1  0  0  0  0
 17 50  1  0  0  0  0
 18 51  1  0  0  0  0
 18 52  1  0  0  0  0
 18 53  1  0  0  0  0
 19 22  1  0  0  0  0
 19 54  1  0  0  0  0
 19 55  1  0  0  0  0
 20 23  1  0  0  0  0
 20 56  1  0  0  0  0
 20 57  1  0  0  0  0
 21 58  1  0  0  0  0
 21 59  1  0  0  0  0
 21 60  1  0  0  0  0
 22 61  1  0  0  0  0
 22 62  1  0  0  0  0
 23 63  1  0  0  0  0
 23 64  1  0  0  0  0
 25 26  1  0  0  0  0
 25 65  1  0  0  0  0
 25 66  1  0  0  0  0
 26 67  1  0  0  0  0
 26 68  1  0  0  0  0
 27 28  1  0  0  0  0
 28 30  2  0  0  0  0
 28 31  1  0  0  0  0
 29 69  1  0  0  0  0
 29 70  1  0  0  0  0
 29 71  1  0  0  0  0
 30 32  1  0  0  0  0
 30 72  1  0  0  0  0
 31 33  2  0  0  0  0
 31 73  1  0  0  0  0
 32 34  2  0  0  0  0
 32 74  1  0  0  0  0
 33 34  1  0  0  0  0
 33 75  1  0  0  0  0
 35 76  1  0  0  0  0
 35 77  1  0  0  0  0
 35 78  1  0  0  0  0
 36 79  1  0  0  0  0
 36 80  1  0  0  0  0
 36 81  1  0  0  0  0
M  END
> <PUBCHEM_COMPOUND_CID>
45783984

> <PUBCHEM_CONFORMER_RMSD>
1.2

> <PUBCHEM_CONFORMER_DIVERSEORDER>
8
43
26
58
23
16
36
71
93
24
9
41
94
14
29
54
46
56
59
49
18
19
74
69
104
87
72
15
39
75
38
91
84
92
21
12
101
95
110
96
111
34
82
2
52
79
86
42
13
99
28
67
106
76
89
105
100
83
102
65
32
108
81
5
7
22
68
107
60
61
64
40
103
27
78
97
80
25
6
90
88
63
98
37
48
4
77
17
45
50
73
66
62
85
70
10
20
30
53
47
57
44
3
31
33
51
35
55
1
109
11

> <PUBCHEM_MMFF94_PARTIAL_CHARGES>
36
1 -0.28
11 0.14
13 0.27
14 -0.29
15 -0.28
16 0.18
19 0.27
2 -0.56
20 0.27
21 0.14
22 0.27
23 0.27
24 0.3
25 0.27
26 0.28
27 0.43
28 0.05
29 0.28
3 -0.81
30 -0.15
31 -0.15
32 -0.15
33 -0.15
34 0.1
35 0.37
36 0.37
4 -0.81
45 0.15
5 -0.34
6 -0.34
7 -0.84
72 0.15
73 0.15
74 0.15
75 0.15
9 0.14

> <PUBCHEM_EFFECTIVE_ROTOR_COUNT>
12

> <PUBCHEM_PHARMACOPHORE_FEATURES>
9
1 2 acceptor
1 3 cation
1 4 cation
1 7 cation
3 12 17 18 hydrophobe
5 1 5 6 24 27 rings
6 28 30 31 32 33 34 rings
6 3 4 19 20 22 23 rings
6 8 9 10 11 14 15 rings

> <PUBCHEM_HEAVY_ATOM_COUNT>
36

> <PUBCHEM_ATOM_DEF_STEREO_COUNT>
3

> <PUBCHEM_ATOM_UDEF_STEREO_COUNT>
0

> <PUBCHEM_BOND_DEF_STEREO_COUNT>
0

> <PUBCHEM_BOND_UDEF_STEREO_COUNT>
0

> <PUBCHEM_ISOTOPIC_ATOM_COUNT>
0

> <PUBCHEM_COMPONENT_COUNT>
1

> <PUBCHEM_CACTVS_TAUTO_COUNT>
1

> <PUBCHEM_CONFORMER_ID>
02BA9BB000000008

> <PUBCHEM_MMFF94_ENERGY>
90.9712

> <PUBCHEM_FEATURE_SELFOVERLAP>
45.674

> <PUBCHEM_SHAPE_FINGERPRINT>
10049733 35 18259987054998267764
10483366 6 15285351808316455169
10674148 151 14562804482454373436
10816530 90 13479123635837543621
10952577 141 12468635020010204987
11135609 201 10735879443639211305
11146346 178 18342457020652884599
11828042 279 16588887767168483204
12013929 112 16805868642773350535
12124843 1 17240773920934755402
12539745 222 17987800697032661536
12838863 1 18202280325465472695
13782708 43 18189056568132508007
14068700 675 18334011675053820600
14931854 50 17167866353047758304
15183329 4 16298378076798685401
15198563 99 16877938300282326108
15320295 40 18272365386952476195
15347590 135 14333414445383500243
15350500 16 18412260636078487667
15475509 8 15357966872494069709
16126227 98 10087631607244169600
16991971 28 18407760343649736442
16992727 255 8574422132769312518
16994733 274 10591755472650673382
19301676 85 18186522085645082683
19302320 297 12247671687283254674
20105231 36 18059019360147973118
2026 5 18412542133300752679
21304304 249 18413671326792864030
21307412 95 17385733516507192515
21315764 119 17095798936714899489
21987483 16 17701529830325692995
22002106 203 18411695470829498258
22149856 69 16127277605381984091
23528940 14 18339075979480137418
23559900 14 17531815791226301377
23569943 247 18270967959941778827
23576562 1 15792589606791550011
38570 142 12829483766847001121
392239 28 15913323611108732281
3986486 107 14779265319376996067
406291 66 18342176674012966835
4339292 15 18335981970706595730
4340502 62 15123519111403820052
437795 70 15574708101929490501
4408954 87 15697999665109338591
474113 269 18409726253170666262
4760202 70 18334587858872086772
54076057 255 12324229586291249173
5718773 13 18411139138433820440
5776283 40 13479138999083228318
6201320 82 10519114103134072594
9689198 14 8502377754198107129

> <PUBCHEM_SHAPE_MULTIPOLES>
704.22
29.62
4.18
2.16
7.09
2.47
-0.62
-46.64
-4.52
3.31
-0.31
-1.19
-0.1
-1.19

> <PUBCHEM_SHAPE_SELFOVERLAP>
1462.555

> <PUBCHEM_SHAPE_VOLUME>
402.9

> <PUBCHEM_COORDINATE_TYPE>
2
5
10

$$$$
