75368576
  -OEChem-12032416393D

 49 53  0     1  0  0  0  0  0999 V2000
   -4.2080   -2.2044   -0.1625 O   0  0  0  0  0  0  0  0  0  0  0  0
    4.7582    2.0874    1.0684 O   0  0  0  0  0  0  0  0  0  0  0  0
    6.2684    1.0732   -1.1678 O   0  0  0  0  0  0  0  0  0  0  0  0
   -1.9365   -1.6887   -0.2509 N   0  0  0  0  0  0  0  0  0  0  0  0
    0.8233   -1.8856    0.2601 N   0  0  2  0  0  0  0  0  0  0  0  0
   -3.3900    0.0450   -0.1557 N   0  0  0  0  0  0  0  0  0  0  0  0
   -5.7699    0.2009   -0.0707 N   0  0  0  0  0  0  0  0  0  0  0  0
   -1.1090   -0.5193   -0.4123 C   0  0  2  0  0  0  0  0  0  0  0  0
    0.1239   -0.6049    0.4865 C   0  0  0  0  0  0  0  0  0  0  0  0
   -2.0559    0.6322   -0.0961 C   0  0  0  0  0  0  0  0  0  0  0  0
   -1.3239   -3.0008   -0.3045 C   0  0  0  0  0  0  0  0  0  0  0  0
   -0.0625   -3.0278    0.5618 C   0  0  0  0  0  0  0  0  0  0  0  0
   -3.3049   -1.3788   -0.1926 C   0  0  0  0  0  0  0  0  0  0  0  0
    2.0379   -1.9534    1.0720 C   0  0  0  0  0  0  0  0  0  0  0  0
   -4.5753    0.8334   -0.0965 C   0  0  0  0  0  0  0  0  0  0  0  0
    3.1523   -1.1294    0.4839 C   0  0  0  0  0  0  0  0  0  0  0  0
    3.4744    0.1079    1.0422 C   0  0  0  0  0  0  0  0  0  0  0  0
    3.8582   -1.6030   -0.6225 C   0  0  0  0  0  0  0  0  0  0  0  0
   -4.4259    2.2106   -0.0687 C   0  0  0  0  0  0  0  0  0  0  0  0
    4.5023    0.8720    0.4894 C   0  0  0  0  0  0  0  0  0  0  0  0
    4.8952   -0.8456   -1.1677 C   0  0  0  0  0  0  0  0  0  0  0  0
    5.2270    0.3854   -0.6015 C   0  0  0  0  0  0  0  0  0  0  0  0
   -5.5768    2.9887   -0.0105 C   0  0  0  0  0  0  0  0  0  0  0  0
   -6.8661    0.9901   -0.0142 C   0  0  0  0  0  0  0  0  0  0  0  0
   -6.8239    2.3746    0.0176 C   0  0  0  0  0  0  0  0  0  0  0  0
    5.5692    2.9168    0.2317 C   0  0  0  0  0  0  0  0  0  0  0  0
    6.7383    2.1237   -0.3187 C   0  0  0  0  0  0  0  0  0  0  0  0
   -0.8106   -0.4823   -1.4686 H   0  0  0  0  0  0  0  0  0  0  0  0
    0.7674    0.2485    0.2476 H   0  0  0  0  0  0  0  0  0  0  0  0
   -0.1670   -0.5144    1.5420 H   0  0  0  0  0  0  0  0  0  0  0  0
   -1.9339    1.4227   -0.8436 H   0  0  0  0  0  0  0  0  0  0  0  0
   -1.8975    1.0367    0.9099 H   0  0  0  0  0  0  0  0  0  0  0  0
   -1.0757   -3.2006   -1.3533 H   0  0  0  0  0  0  0  0  0  0  0  0
   -2.0450   -3.7568    0.0220 H   0  0  0  0  0  0  0  0  0  0  0  0
   -0.3483   -3.0129    1.6221 H   0  0  0  0  0  0  0  0  0  0  0  0
    0.4601   -3.9735    0.3747 H   0  0  0  0  0  0  0  0  0  0  0  0
    2.4075   -2.9877    1.1192 H   0  0  0  0  0  0  0  0  0  0  0  0
    1.8467   -1.6703    2.1162 H   0  0  0  0  0  0  0  0  0  0  0  0
    2.9218    0.4851    1.8992 H   0  0  0  0  0  0  0  0  0  0  0  0
    3.6119   -2.5639   -1.0670 H   0  0  0  0  0  0  0  0  0  0  0  0
   -3.4712    2.7218   -0.0804 H   0  0  0  0  0  0  0  0  0  0  0  0
    5.4454   -1.2259   -2.0240 H   0  0  0  0  0  0  0  0  0  0  0  0
   -5.5027    4.0718    0.0150 H   0  0  0  0  0  0  0  0  0  0  0  0
   -7.8140    0.4626    0.0058 H   0  0  0  0  0  0  0  0  0  0  0  0
   -7.7343    2.9613    0.0635 H   0  0  0  0  0  0  0  0  0  0  0  0
    5.9294    3.7522    0.8401 H   0  0  0  0  0  0  0  0  0  0  0  0
    4.9424    3.3233   -0.5717 H   0  0  0  0  0  0  0  0  0  0  0  0
    7.3879    2.7699   -0.9172 H   0  0  0  0  0  0  0  0  0  0  0  0
    7.3409    1.6818    0.4845 H   0  0  0  0  0  0  0  0  0  0  0  0
  1 13  2  0  0  0  0
  2 20  1  0  0  0  0
  2 26  1  0  0  0  0
  3 22  1  0  0  0  0
  3 27  1  0  0  0  0
  4  8  1  0  0  0  0
  4 11  1  0  0  0  0
  4 13  1  0  0  0  0
  5  9  1  0  0  0  0
  5 12  1  0  0  0  0
  5 14  1  0  0  0  0
  6 10  1  0  0  0  0
  6 13  1  0  0  0  0
  6 15  1  0  0  0  0
  7 15  1  0  0  0  0
  7 24  2  0  0  0  0
  8  9  1  0  0  0  0
  8 10  1  0  0  0  0
  8 28  1  0  0  0  0
  9 29  1  0  0  0  0
  9 30  1  0  0  0  0
 10 31  1  0  0  0  0
 10 32  1  0  0  0  0
 11 12  1  0  0  0  0
 11 33  1  0  0  0  0
 11 34  1  0  0  0  0
 12 35  1  0  0  0  0
 12 36  1  0  0  0  0
 14 16  1  0  0  0  0
 14 37  1  0  0  0  0
 14 38  1  0  0  0  0
 15 19  2  0  0  0  0
 16 17  2  0  0  0  0
 16 18  1  0  0  0  0
 17 20  1  0  0  0  0
 17 39  1  0  0  0  0
 18 21  2  0  0  0  0
 18 40  1  0  0  0  0
 19 23  1  0  0  0  0
 19 41  1  0  0  0  0
 20 22  2  0  0  0  0
 21 22  1  0  0  0  0
 21 42  1  0  0  0  0
 23 25  2  0  0  0  0
 23 43  1  0  0  0  0
 24 25  1  0  0  0  0
 24 44  1  0  0  0  0
 25 45  1  0  0  0  0
 26 27  1  0  0  0  0
 26 46  1  0  0  0  0
 26 47  1  0  0  0  0
 27 48  1  0  0  0  0
 27 49  1  0  0  0  0
M  END
> <PUBCHEM_COMPOUND_CID>
75368576

> <PUBCHEM_CONFORMER_RMSD>
0.8

> <PUBCHEM_CONFORMER_DIVERSEORDER>
1
39
47
28
42
32
17
23
9
36
38
50
19
7
29
49
22
4
40
52
41
44
15
14
26
24
46
30
18
48
21
45
5
43
31
53
13
37
3
20
25
2
16
33
6
27
34
12
51
11
8
35
10

> <PUBCHEM_MMFF94_PARTIAL_CHARGES>
34
1 -0.57
10 0.3
11 0.3
12 0.27
13 0.69
14 0.41
15 0.43
16 -0.14
17 -0.15
18 -0.15
19 -0.15
2 -0.36
20 0.08
21 -0.15
22 0.08
23 -0.15
24 0.16
25 -0.15
26 0.28
27 0.28
3 -0.36
39 0.15
4 -0.66
40 0.15
41 0.15
42 0.15
43 0.15
44 0.15
45 0.15
5 -0.81
6 -0.48
7 -0.62
8 0.3
9 0.27

> <PUBCHEM_EFFECTIVE_ROTOR_COUNT>
5

> <PUBCHEM_PHARMACOPHORE_FEATURES>
10
1 1 acceptor
1 2 acceptor
1 3 acceptor
1 5 cation
1 7 acceptor
5 4 6 8 10 13 rings
6 16 17 18 20 21 22 rings
6 2 3 20 22 26 27 rings
6 4 5 8 9 11 12 rings
6 7 15 19 23 24 25 rings

> <PUBCHEM_HEAVY_ATOM_COUNT>
27

> <PUBCHEM_ATOM_DEF_STEREO_COUNT>
1

> <PUBCHEM_ATOM_UDEF_STEREO_COUNT>
0

> <PUBCHEM_BOND_DEF_STEREO_COUNT>
0

> <PUBCHEM_BOND_UDEF_STEREO_COUNT>
0

> <PUBCHEM_ISOTOPIC_ATOM_COUNT>
0

> <PUBCHEM_COMPONENT_COUNT>
1

> <PUBCHEM_CACTVS_TAUTO_COUNT>
1

> <PUBCHEM_CONFORMER_ID>
047E088000000001

> <PUBCHEM_MMFF94_ENERGY>
83.4243

> <PUBCHEM_FEATURE_SELFOVERLAP>
50.886

> <PUBCHEM_SHAPE_FINGERPRINT>
10 15 18187086157232677169
10050765 1 18410292497438746467
10280341 67 18197769111294311160
10411042 1 17689716785368005931
10554248 39 18192975042542714175
11720765 8 17915744181290266526
11796584 16 13182436864501718765
11991303 11 16916774207033168397
1200032 147 17967819349583032512
12390115 104 18341620321477328987
12422481 6 17023464132101724021
12539765 74 17916587502423898797
12633257 1 15430325758129154722
12895836 83 18411698802784772043
12895837 130 18191593149726170188
13540713 5 18264747952773393667
13690498 29 17630599231881072167
13782708 43 11674878909204630781
13885169 86 18335990825990448873
13944108 23 17838618859969721601
14020679 6 17313110786536037305
14216079 64 9151169853423647841
14251764 75 18408602547965562792
14257110 125 18408884022979060139
14394314 77 18411423869856649657
14528608 73 18340201904137678003
14537116 161 17346026776232864329
1454969 45 18411693276264213975
14565420 104 17968094187923011786
14790565 3 18339923693473424889
14840074 17 17894353267547876317
14931854 50 18059586784660529992
15183329 4 16988849358222401809
15188451 53 9223230728230715686
15198563 99 17767678726149214479
15510800 12 11527655423321865500
15840311 113 18262241011064844797
16126227 98 18410295847581029625
16993089 31 13326273941415514109
18608769 82 18267025136170274355
19053607 189 18052531369080573840
19438510 23 18113898282030946402
1979834 28 13190627083366954921
20058555 10 18336543803499599789
20691028 202 18408323289229296493
20715895 44 18411980265609706392
21033648 29 18341043120875004920
21298829 104 18334861644987198388
21424621 283 18333170574248696235
21585482 111 18188207576914734661
23559900 14 18200872851739960814
23569914 152 17556881130687643198
25122255 55 9583517637669214125
270888 7 18408884040333022080
2747138 104 18043547203339451883
2748736 6 18336253583462578573
2838139 119 18412536587695503399
3472631 163 18412546509296641766
34797466 226 18060144215137390375
3918712 181 18338227185539617121
4073 2 18187088381572588530
44249763 50 17774142630416829370
5104073 3 17968090919553249866
54583773 228 18410566268688923645
5718773 13 9583522005682752060
59682541 35 18187660094250609585
59682541 52 16702304520954235036
633830 44 18341321219633452542
636775 72 18123183765603726984
6697151 62 16886353791168900547
6712543 237 14707208812176979945
6898599 12 18271521004840499671
7288768 16 17967249823191208027
7808743 9 18409724092839007290
7970288 3 9583514317501570037

> <PUBCHEM_SHAPE_MULTIPOLES>
518.12
19.14
3.64
0.9
4.52
0.07
-0.02
18.71
2.28
0.49
-0.26
-1.13
-0.07
0.02

> <PUBCHEM_SHAPE_SELFOVERLAP>
1134.035

> <PUBCHEM_SHAPE_VOLUME>
278.4

> <PUBCHEM_COORDINATE_TYPE>
2
5
10

$$$$
