44716030
  -OEChem-12032416143D

 54 58  0     1  0  0  0  0  0999 V2000
   -7.4547    1.0027    1.9700 S   0  0  0  0  0  0  0  0  0  0  0  0
   -4.4769    1.0752   -1.6545 O   0  0  0  0  0  0  0  0  0  0  0  0
    5.1153    0.5462    0.3521 O   0  0  0  0  0  0  0  0  0  0  0  0
   -2.1395   -2.2618   -0.1279 N   0  0  1  0  0  0  0  0  0  0  0  0
    1.6503   -2.0632    0.3839 N   0  0  0  0  0  0  0  0  0  0  0  0
   -5.2444    0.6685    0.5323 N   0  0  0  0  0  0  0  0  0  0  0  0
    1.8209   -1.7092    1.6680 N   0  0  0  0  0  0  0  0  0  0  0  0
    3.0610   -1.2485    1.7887 N   0  0  0  0  0  0  0  0  0  0  0  0
   -7.2137    1.6879   -0.5110 N   0  0  0  0  0  0  0  0  0  0  0  0
   -1.9754    0.1001   -1.2084 C   0  0  1  0  0  0  0  0  0  0  0  0
   -0.8139   -1.6521    0.1680 C   0  0  2  0  0  0  0  0  0  0  0  0
   -3.0168    0.0740   -0.0718 C   0  0  2  0  0  0  0  0  0  0  0  0
   -0.6253   -0.3230   -0.5998 C   0  0  0  0  0  0  0  0  0  0  0  0
   -2.3349   -0.9686   -2.2565 C   0  0  0  0  0  0  0  0  0  0  0  0
   -3.1952   -1.3736    0.4236 C   0  0  0  0  0  0  0  0  0  0  0  0
   -2.3553   -2.3527   -1.5900 C   0  0  0  0  0  0  0  0  0  0  0  0
    0.3393   -2.6244   -0.0903 C   0  0  0  0  0  0  0  0  0  0  0  0
   -4.3242    0.6657   -0.5082 C   0  0  0  0  0  0  0  0  0  0  0  0
    2.7733   -1.8397   -0.3516 C   0  0  0  0  0  0  0  0  0  0  0  0
   -6.5755    1.1479    0.5035 C   0  0  0  0  0  0  0  0  0  0  0  0
    3.6578   -1.3217    0.5607 C   0  0  0  0  0  0  0  0  0  0  0  0
    5.0445   -0.8821    0.3595 C   0  0  0  0  0  0  0  0  0  0  0  0
   -8.8087    1.7211    1.2005 C   0  0  0  0  0  0  0  0  0  0  0  0
   -8.4939    2.0157   -0.1094 C   0  0  0  0  0  0  0  0  0  0  0  0
    6.3436    1.0939    0.1084 C   0  0  0  0  0  0  0  0  0  0  0  0
    7.4440    0.2664   -0.1161 C   0  0  0  0  0  0  0  0  0  0  0  0
    6.4973    2.4801    0.0860 C   0  0  0  0  0  0  0  0  0  0  0  0
    8.6980    0.8252   -0.3631 C   0  0  0  0  0  0  0  0  0  0  0  0
    7.7514    3.0389   -0.1609 C   0  0  0  0  0  0  0  0  0  0  0  0
    8.8516    2.2114   -0.3857 C   0  0  0  0  0  0  0  0  0  0  0  0
   -1.8922    1.0881   -1.6740 H   0  0  0  0  0  0  0  0  0  0  0  0
   -0.8007   -1.4228    1.2432 H   0  0  0  0  0  0  0  0  0  0  0  0
   -2.6432    0.6966    0.7538 H   0  0  0  0  0  0  0  0  0  0  0  0
   -0.2660    0.4527    0.0875 H   0  0  0  0  0  0  0  0  0  0  0  0
    0.1182   -0.4149   -1.4010 H   0  0  0  0  0  0  0  0  0  0  0  0
   -3.3023   -0.7690   -2.7273 H   0  0  0  0  0  0  0  0  0  0  0  0
   -1.5897   -0.9622   -3.0616 H   0  0  0  0  0  0  0  0  0  0  0  0
   -3.1447   -1.3963    1.5200 H   0  0  0  0  0  0  0  0  0  0  0  0
   -4.1802   -1.7870    0.1703 H   0  0  0  0  0  0  0  0  0  0  0  0
   -3.3167   -2.8436   -1.7885 H   0  0  0  0  0  0  0  0  0  0  0  0
   -1.6049   -3.0059   -2.0497 H   0  0  0  0  0  0  0  0  0  0  0  0
    0.2173   -3.5614    0.4651 H   0  0  0  0  0  0  0  0  0  0  0  0
    0.4780   -2.8540   -1.1520 H   0  0  0  0  0  0  0  0  0  0  0  0
   -4.9633    0.3009    1.4379 H   0  0  0  0  0  0  0  0  0  0  0  0
    2.8415   -2.0562   -1.4082 H   0  0  0  0  0  0  0  0  0  0  0  0
    5.3885   -1.2862   -0.6015 H   0  0  0  0  0  0  0  0  0  0  0  0
    5.6541   -1.2859    1.1779 H   0  0  0  0  0  0  0  0  0  0  0  0
   -9.7389    1.8875    1.7245 H   0  0  0  0  0  0  0  0  0  0  0  0
   -9.1680    2.4743   -0.8202 H   0  0  0  0  0  0  0  0  0  0  0  0
    7.4046   -0.8171   -0.1068 H   0  0  0  0  0  0  0  0  0  0  0  0
    5.6439    3.1295    0.2607 H   0  0  0  0  0  0  0  0  0  0  0  0
    9.5560    0.1820   -0.5365 H   0  0  0  0  0  0  0  0  0  0  0  0
    7.8712    4.1182   -0.1782 H   0  0  0  0  0  0  0  0  0  0  0  0
    9.8280    2.6465   -0.5777 H   0  0  0  0  0  0  0  0  0  0  0  0
  1 20  1  0  0  0  0
  1 23  1  0  0  0  0
  2 18  2  0  0  0  0
  3 22  1  0  0  0  0
  3 25  1  0  0  0  0
  4 11  1  0  0  0  0
  4 15  1  0  0  0  0
  4 16  1  0  0  0  0
  5  7  1  0  0  0  0
  5 17  1  0  0  0  0
  5 19  1  0  0  0  0
  6 18  1  0  0  0  0
  6 20  1  0  0  0  0
  6 44  1  0  0  0  0
  7  8  2  0  0  0  0
  8 21  1  0  0  0  0
  9 20  2  0  0  0  0
  9 24  1  0  0  0  0
 10 12  1  0  0  0  0
 10 13  1  0  0  0  0
 10 14  1  0  0  0  0
 10 31  1  0  0  0  0
 11 13  1  0  0  0  0
 11 17  1  0  0  0  0
 11 32  1  0  0  0  0
 12 15  1  0  0  0  0
 12 18  1  0  0  0  0
 12 33  1  0  0  0  0
 13 34  1  0  0  0  0
 13 35  1  0  0  0  0
 14 16  1  0  0  0  0
 14 36  1  0  0  0  0
 14 37  1  0  0  0  0
 15 38  1  0  0  0  0
 15 39  1  0  0  0  0
 16 40  1  0  0  0  0
 16 41  1  0  0  0  0
 17 42  1  0  0  0  0
 17 43  1  0  0  0  0
 19 21  2  0  0  0  0
 19 45  1  0  0  0  0
 21 22  1  0  0  0  0
 22 46  1  0  0  0  0
 22 47  1  0  0  0  0
 23 24  2  0  0  0  0
 23 48  1  0  0  0  0
 24 49  1  0  0  0  0
 25 26  2  0  0  0  0
 25 27  1  0  0  0  0
 26 28  1  0  0  0  0
 26 50  1  0  0  0  0
 27 29  2  0  0  0  0
 27 51  1  0  0  0  0
 28 30  2  0  0  0  0
 28 52  1  0  0  0  0
 29 30  1  0  0  0  0
 29 53  1  0  0  0  0
 30 54  1  0  0  0  0
M  END
> <PUBCHEM_COMPOUND_CID>
44716030

> <PUBCHEM_CONFORMER_RMSD>
1.2

> <PUBCHEM_CONFORMER_DIVERSEORDER>
1
52
103
196
89
149
101
167
64
183
54
14
162
117
138
17
44
113
111
12
123
153
193
95
154
168
184
195
53
122
157
191
121
78
133
119
76
126
59
68
143
148
114
187
172
41
170
155
169
93
45
24
156
77
120
116
189
152
128
43
163
190
125
18
16
46
27
19
165
28
177
80
137
174
192
166
98
58
130
57
179
83
40
21
5
62
118
3
141
136
38
49
61
115
56
164
139
66
65
178
32
144
140
34
135
129
151
11
142
131
13
88
181
134
102
132
173
73
25
150
20
105
161
85
47
70
10
159
72
147
180
104
60
124
67
175
158
146
79
171
145
112
4
91
106
2
188
86
50
7
55
23
82
15
97
6
69
107
22
100
74
29
182
37
109
87
127
51
71
186
94
92
35
185
31
81
39
9
33
176
99
75
30
84
110
26
96
48
63
108
160
8
36
42
194
90

> <PUBCHEM_MMFF94_PARTIAL_CHARGES>
36
1 -0.08
11 0.27
12 0.06
15 0.27
16 0.27
17 0.26
18 0.57
19 -0.3
2 -0.57
20 0.44
21 0.05
22 0.46
23 -0.11
24 0.08
25 0.08
26 -0.15
27 -0.15
28 -0.15
29 -0.15
3 -0.36
30 -0.15
4 -0.81
44 0.37
45 0.15
48 0.15
49 0.15
5 0.31
50 0.15
51 0.15
52 0.15
53 0.15
54 0.15
6 -0.49
7 -0.42
8 -0.23
9 -0.57

> <PUBCHEM_EFFECTIVE_ROTOR_COUNT>
9.2

> <PUBCHEM_PHARMACOPHORE_FEATURES>
8
1 2 acceptor
1 3 acceptor
1 4 cation
1 6 donor
5 1 9 20 23 24 rings
5 5 7 8 19 21 rings
6 25 26 27 28 29 30 rings
8 4 10 11 12 13 14 15 16 rings

> <PUBCHEM_HEAVY_ATOM_COUNT>
30

> <PUBCHEM_ATOM_DEF_STEREO_COUNT>
2

> <PUBCHEM_ATOM_UDEF_STEREO_COUNT>
1

> <PUBCHEM_BOND_DEF_STEREO_COUNT>
0

> <PUBCHEM_BOND_UDEF_STEREO_COUNT>
0

> <PUBCHEM_ISOTOPIC_ATOM_COUNT>
0

> <PUBCHEM_COMPONENT_COUNT>
1

> <PUBCHEM_CACTVS_TAUTO_COUNT>
3

> <PUBCHEM_CONFORMER_ID>
02AA4FFE00000001

> <PUBCHEM_MMFF94_ENERGY>
72.2132

> <PUBCHEM_FEATURE_SELFOVERLAP>
40.597

> <PUBCHEM_SHAPE_FINGERPRINT>
10 15 17894349964591067441
10055352 69 18342738568026620537
10280341 67 18271792571760629960
106641 1 17968101911202254171
10904742 90 18411420617742350034
10930396 42 16370442272322783341
11135609 201 18259700094825989635
11211813 163 11023843743058517755
11273773 42 18342451565120960423
11273773 46 11312051059266865037
11410812 94 14764077718603105066
11411753 3 16300058005600990630
11421887 45 18268416001669955728
11973863 73 8142090901206340861
1200032 147 18410855452140036826
12120059 9 14562524086332151771
13627175 23 18131360687043681177
14359421 15 12319462064733957821
14394314 77 18408603694780600276
14617042 71 18411704253779324313
14664723 55 18272943717247542824
14849402 71 18341895191253787633
14931854 50 13686304569205075508
15064981 194 17774722081951256051
15183329 4 14908183032127406642
15188451 53 7997970176358678498
15326923 82 10952043443531441938
15347590 135 15647050452088542512
15350500 16 11097856310933729233
15519825 34 14996291339841451449
15706992 2 18201168689334469401
1577012 14 18411974767418908894
15840311 113 18335425629631416990
16126227 98 18410575101853504107
16992610 120 17418096512042526429
1768 124 11097845286354489656
1768 4 18335141990376674401
17899979 19 18410298003913686161
18393751 57 17894910711211110803
18603816 31 13118295810694177649
19302320 297 17967253131270976732
19841028 212 9943518609854985108
20105231 36 11891317727449484744
2026 5 9439135242683290328
20505436 4 18411414007857221118
20691028 202 18339077211407133904
21057603 238 14189568668386165053
21307412 95 13326848963677426533
21344244 78 15502381088751330974
21781055 127 17417249819444243018
22002106 203 9727367792864005372
22224240 67 18114745941726001691
23524908 199 17846507990102648174
23576562 1 16486391309700535609
24771293 8 18333732425196515535
25269216 80 17203035388124835647
2838139 119 18337102497609045798
3014063 24 9367351440246554448
306946 40 17168132418230755485
3383291 50 9943805595238300852
3711267 37 18341343218387682681
3986486 107 15554452877031636080
4169191 19 18341049628157179001
4258327 124 18273215309488239155
4403749 210 18260548923327065499
5104073 3 16371836349301604178
54076057 255 18202839942154604944
5718773 13 9079117760858693248
5911458 16 18201444661709604832
59682541 35 17675933088378350505
6081469 158 12175902142967134617
9511036 111 12757441599841393881
9689198 14 18409736161860528874
9953998 17 17458631129345091667

> <PUBCHEM_SHAPE_MULTIPOLES>
579.61
29.71
3.09
1.45
12.4
0.03
-0.07
34.18
3.71
1.92
-0.09
-2.05
-0.33
-2.14

> <PUBCHEM_SHAPE_SELFOVERLAP>
1241.207

> <PUBCHEM_SHAPE_VOLUME>
322.8

> <PUBCHEM_COORDINATE_TYPE>
2
5
10

$$$$
