11912808
  -OEChem-12032416123D

 51 55  0     1  0  0  0  0  0999 V2000
    3.3314   -0.5390    1.2395 O   0  0  0  0  0  0  0  0  0  0  0  0
    1.3685    1.7095    0.5296 O   0  0  0  0  0  0  0  0  0  0  0  0
    4.8882    1.3669   -0.0429 O   0  0  0  0  0  0  0  0  0  0  0  0
    7.8403   -0.2761   -1.2116 O   0  0  0  0  0  0  0  0  0  0  0  0
    7.5436    1.3619    0.3875 O   0  0  0  0  0  0  0  0  0  0  0  0
   -7.3715    0.3999    0.0001 O   0  0  0  0  0  0  0  0  0  0  0  0
   -6.5861    2.6669   -0.2270 O   0  0  0  0  0  0  0  0  0  0  0  0
    0.5564   -1.8561    0.7592 N   0  0  0  0  0  0  0  0  0  0  0  0
   -1.6137   -1.1203    0.2534 N   0  0  0  0  0  0  0  0  0  0  0  0
   -0.9447   -3.3938   -0.1834 N   0  0  0  0  0  0  0  0  0  0  0  0
    1.4210    0.3235    0.1307 C   0  0  1  0  0  0  0  0  0  0  0  0
    2.8858   -0.0319   -0.0289 C   0  0  1  0  0  0  0  0  0  0  0  0
    0.9523   -0.5588    1.2638 C   0  0  2  0  0  0  0  0  0  0  0  0
    3.5136    1.3034   -0.3489 C   0  0  1  0  0  0  0  0  0  0  0  0
    2.2033   -0.6841    2.1159 C   0  0  0  0  0  0  0  0  0  0  0  0
    2.6971    2.2511    0.5004 C   0  0  0  0  0  0  0  0  0  0  0  0
   -0.7050   -2.1316    0.2613 C   0  0  0  0  0  0  0  0  0  0  0  0
    5.6551    0.4724   -0.8451 C   0  0  0  0  0  0  0  0  0  0  0  0
    7.1061    0.5973   -0.4615 C   0  0  0  0  0  0  0  0  0  0  0  0
   -2.8329   -1.4238   -0.2382 C   0  0  0  0  0  0  0  0  0  0  0  0
   -2.1846   -3.6276   -0.6616 C   0  0  0  0  0  0  0  0  0  0  0  0
   -3.1787   -2.6720   -0.7144 C   0  0  0  0  0  0  0  0  0  0  0  0
   -3.7816   -0.3362   -0.2385 C   0  0  0  0  0  0  0  0  0  0  0  0
   -5.1486   -0.6033   -0.1075 C   0  0  0  0  0  0  0  0  0  0  0  0
   -3.3262    0.9895   -0.3710 C   0  0  0  0  0  0  0  0  0  0  0  0
   -6.0171    0.4688   -0.1139 C   0  0  0  0  0  0  0  0  0  0  0  0
   -5.5687    1.7633   -0.2435 C   0  0  0  0  0  0  0  0  0  0  0  0
   -4.2270    2.0572   -0.3742 C   0  0  0  0  0  0  0  0  0  0  0  0
    9.2488   -0.2732   -0.9574 C   0  0  0  0  0  0  0  0  0  0  0  0
   -7.7252    1.7963   -0.0718 C   0  0  0  0  0  0  0  0  0  0  0  0
    0.8518    0.2280   -0.7993 H   0  0  0  0  0  0  0  0  0  0  0  0
    3.0623   -0.8055   -0.7821 H   0  0  0  0  0  0  0  0  0  0  0  0
    0.1511   -0.1152    1.8661 H   0  0  0  0  0  0  0  0  0  0  0  0
    3.3481    1.5501   -1.4064 H   0  0  0  0  0  0  0  0  0  0  0  0
    2.2824   -1.6347    2.6524 H   0  0  0  0  0  0  0  0  0  0  0  0
    2.2593    0.1281    2.8490 H   0  0  0  0  0  0  0  0  0  0  0  0
    2.6716    3.2636    0.0863 H   0  0  0  0  0  0  0  0  0  0  0  0
    3.0740    2.3205    1.5270 H   0  0  0  0  0  0  0  0  0  0  0  0
    1.2410   -2.6023    0.7120 H   0  0  0  0  0  0  0  0  0  0  0  0
    5.5453    0.7382   -1.9016 H   0  0  0  0  0  0  0  0  0  0  0  0
    5.3543   -0.5639   -0.6664 H   0  0  0  0  0  0  0  0  0  0  0  0
   -2.3605   -4.6367   -1.0186 H   0  0  0  0  0  0  0  0  0  0  0  0
   -4.1451   -2.9220   -1.1328 H   0  0  0  0  0  0  0  0  0  0  0  0
   -5.5472   -1.6041    0.0203 H   0  0  0  0  0  0  0  0  0  0  0  0
   -2.2681    1.2164   -0.4851 H   0  0  0  0  0  0  0  0  0  0  0  0
   -3.8783    3.0783   -0.4788 H   0  0  0  0  0  0  0  0  0  0  0  0
    9.6711    0.7120   -1.1771 H   0  0  0  0  0  0  0  0  0  0  0  0
    9.7149   -1.0099   -1.6172 H   0  0  0  0  0  0  0  0  0  0  0  0
    9.4469   -0.5564    0.0807 H   0  0  0  0  0  0  0  0  0  0  0  0
   -8.2550    2.0718    0.8474 H   0  0  0  0  0  0  0  0  0  0  0  0
   -8.3987    1.9442   -0.9238 H   0  0  0  0  0  0  0  0  0  0  0  0
  1 12  1  0  0  0  0
  1 15  1  0  0  0  0
  2 11  1  0  0  0  0
  2 16  1  0  0  0  0
  3 14  1  0  0  0  0
  3 18  1  0  0  0  0
  4 19  1  0  0  0  0
  4 29  1  0  0  0  0
  5 19  2  0  0  0  0
  6 26  1  0  0  0  0
  6 30  1  0  0  0  0
  7 27  1  0  0  0  0
  7 30  1  0  0  0  0
  8 13  1  0  0  0  0
  8 17  1  0  0  0  0
  8 39  1  0  0  0  0
  9 17  1  0  0  0  0
  9 20  2  0  0  0  0
 10 17  2  0  0  0  0
 10 21  1  0  0  0  0
 11 12  1  0  0  0  0
 11 13  1  0  0  0  0
 11 31  1  0  0  0  0
 12 14  1  0  0  0  0
 12 32  1  0  0  0  0
 13 15  1  0  0  0  0
 13 33  1  0  0  0  0
 14 16  1  0  0  0  0
 14 34  1  0  0  0  0
 15 35  1  0  0  0  0
 15 36  1  0  0  0  0
 16 37  1  0  0  0  0
 16 38  1  0  0  0  0
 18 19  1  0  0  0  0
 18 40  1  0  0  0  0
 18 41  1  0  0  0  0
 20 22  1  0  0  0  0
 20 23  1  0  0  0  0
 21 22  2  0  0  0  0
 21 42  1  0  0  0  0
 22 43  1  0  0  0  0
 23 24  2  0  0  0  0
 23 25  1  0  0  0  0
 24 26  1  0  0  0  0
 24 44  1  0  0  0  0
 25 28  2  0  0  0  0
 25 45  1  0  0  0  0
 26 27  2  0  0  0  0
 27 28  1  0  0  0  0
 28 46  1  0  0  0  0
 29 47  1  0  0  0  0
 29 48  1  0  0  0  0
 29 49  1  0  0  0  0
 30 50  1  0  0  0  0
 30 51  1  0  0  0  0
M  END
> <PUBCHEM_COMPOUND_CID>
11912808

> <PUBCHEM_CONFORMER_RMSD>
1

> <PUBCHEM_CONFORMER_DIVERSEORDER>
1
45
273
305
168
125
190
338
212
195
175
26
230
100
110
279
113
345
243
213
153
247
233
324
248
293
278
70
120
332
286
272
256
259
15
135
319
337
314
96
145
81
317
72
342
288
209
249
303
294
295
331
20
274
336
61
117
172
327
39
281
49
60
105
320
173
300
164
220
85
14
203
285
227
269
211
253
312
237
335
67
302
155
280
86
347
134
325
126
228
200
226
174
139
263
75
121
58
127
245
141
218
258
219
214
182
260
27
193
333
35
151
339
252
89
301
310
122
167
348
225
62
340
44
334
192
66
148
56
242
221
307
284
231
131
91
296
2
101
344
234
169
31
171
48
246
123
147
130
107
136
36
304
77
222
216
315
240
40
341
154
289
184
103
313
138
162
343
277
232
7
282
257
74
189
176
309
299
254
4
32
238
186
311
202
328
104
217
160
54
326
144
229
262
79
63
83
52
108
181
215
21
276
129
271
223
199
102
292
321
57
17
265
266
318
124
87
275
97
188
251
205
330
283
84
98
179
207
82
329
16
92
235
95
29
290
322
208
152
255
159
206
115
306
346
51
42
261
128
241
201
5
47
183
22
308
34
76
119
12
165
142
196
244
287
23
33
178
250
210
10
316
46
204
264
111
71
69
239
158
297
28
133
270
150
112
118
132
143
187
146
298
140
198
38
149
3
323
116
157
19
267
50
224
109
78
73
194
24
170
93
163
88
99
41
161
59
64
191
53
106
13
94
156
236
37
25
30
180
268
90
9
11
80
68
65
185
43
114
8
6
291
18
55
197
137
177
166

> <PUBCHEM_MMFF94_PARTIAL_CHARGES>
35
1 -0.56
10 -0.62
11 0.28
12 0.28
13 0.37
14 0.28
15 0.28
16 0.28
17 0.72
18 0.34
19 0.66
2 -0.56
20 0.31
21 0.16
22 -0.15
24 -0.15
25 -0.15
26 0.08
27 0.08
28 -0.15
29 0.28
3 -0.56
30 0.56
39 0.4
4 -0.43
42 0.15
43 0.15
44 0.15
45 0.15
46 0.15
5 -0.57
6 -0.36
7 -0.36
8 -0.87
9 -0.62

> <PUBCHEM_EFFECTIVE_ROTOR_COUNT>
8.8

> <PUBCHEM_PHARMACOPHORE_FEATURES>
14
1 1 acceptor
1 2 acceptor
1 3 acceptor
1 5 acceptor
1 6 acceptor
1 7 acceptor
1 8 donor
1 9 acceptor
4 8 9 10 17 cation
5 1 11 12 13 15 rings
5 2 11 12 14 16 rings
5 6 7 26 27 30 rings
6 23 24 25 26 27 28 rings
6 9 10 17 20 21 22 rings

> <PUBCHEM_HEAVY_ATOM_COUNT>
30

> <PUBCHEM_ATOM_DEF_STEREO_COUNT>
4

> <PUBCHEM_ATOM_UDEF_STEREO_COUNT>
0

> <PUBCHEM_BOND_DEF_STEREO_COUNT>
0

> <PUBCHEM_BOND_UDEF_STEREO_COUNT>
0

> <PUBCHEM_ISOTOPIC_ATOM_COUNT>
0

> <PUBCHEM_COMPONENT_COUNT>
1

> <PUBCHEM_CACTVS_TAUTO_COUNT>
3

> <PUBCHEM_CONFORMER_ID>
00B5C66800000001

> <PUBCHEM_MMFF94_ENERGY>
91.4996

> <PUBCHEM_FEATURE_SELFOVERLAP>
71.933

> <PUBCHEM_SHAPE_FINGERPRINT>
10 15 12540695933920357944
10165383 225 18410856538908946589
10369192 42 18410291389995404997
10483366 6 18412830153717042338
106641 1 12107791817363893316
10670039 82 18410849988925525871
10674148 151 16200155361704853467
10730089 173 18410012143653240933
10835480 77 17988925634951342472
10864689 126 18341325626481219553
10904742 90 18334857203916485245
11103572 95 18342449328488263970
11211813 128 10737284645918432192
11211813 163 18342175570201246710
11408170 108 15984558702641899862
1200032 147 18261115127794487635
12120059 9 17060335220191143342
12758862 11 18131068264617170168
12838862 33 18336246995299588885
14257110 125 18408040715357623165
14294032 229 17895755085250794052
14790565 3 18412824677882211985
14840074 17 17967530173608829373
14856354 85 16515692185788087571
15183329 4 18412547609283055330
15230672 131 18410572873520715582
15297060 5 18343868814276673937
15350500 55 17458615663395186653
15475509 8 18113903767374258260
15728490 51 9223228534019690992
1577012 14 18334005082442064083
15890870 6 18410572860761771141
15961568 22 18114181892071120293
16087824 20 18337111163951995309
16628084 112 17678166102438061034
16992727 255 18335708251966217428
18608769 82 18339646745751226195
19611394 137 17751093603393860323
20505436 4 18186515501528470859
21133410 127 17755302275585717261
21585482 111 18043246852229635445
21756936 100 18411694422493279615
21781055 127 17702950214786596475
23559900 14 17988075724952139952
24771750 20 18200032824761693951
249057 3 18411420626670304164
335352 9 18411980269144966588
3610482 184 17969236701279871934
38570 142 17967253104857068514
4098825 35 18343021107643855326
4149490 64 13326272841122689711
4516262 110 17822562871820187958
474113 269 15697726892358815534
508180 173 18340770433206599920
57035037 87 18130218368358100312
5758199 1 17458063763965031136
59682541 35 11025803119696027468
59755656 520 18335977640540726623
6009941 240 18271811246198785198
7808743 9 18410568522617903363

> <PUBCHEM_SHAPE_MULTIPOLES>
561.36
22.85
3.15
1.05
24.08
2.1
-0.37
-13.37
7.08
-4.35
0.4
1.29
0.25
-0.07

> <PUBCHEM_SHAPE_SELFOVERLAP>
1234.277

> <PUBCHEM_SHAPE_VOLUME>
303

> <PUBCHEM_COORDINATE_TYPE>
2
5
10

$$$$
