7674790
  -OEChem-12032416413D

 57 61  0     1  0  0  0  0  0999 V2000
   -2.9141    3.2005    1.6454 O   0  0  0  0  0  0  0  0  0  0  0  0
   -1.5705   -2.4246    0.4117 O   0  0  0  0  0  0  0  0  0  0  0  0
   -2.0078   -0.8218   -1.2096 N   0  0  0  0  0  0  0  0  0  0  0  0
   -1.5803    2.0787    0.0805 N   0  0  0  0  0  0  0  0  0  0  0  0
   -3.7549   -1.8544    0.0041 N   0  0  0  0  0  0  0  0  0  0  0  0
   -2.4842    1.4178   -2.2233 C   0  0  1  0  0  0  0  0  0  0  0  0
   -0.1834    0.8355   -1.5997 C   0  0  2  0  0  0  0  0  0  0  0  0
   -1.0349    1.5175   -2.6675 C   0  0  0  0  0  0  0  0  0  0  0  0
   -2.9232   -0.0497   -2.0619 C   0  0  0  0  0  0  0  0  0  0  0  0
   -2.6459    2.2053   -0.9223 C   0  0  0  0  0  0  0  0  0  0  0  0
   -0.5836   -0.6489   -1.5120 C   0  0  0  0  0  0  0  0  0  0  0  0
   -0.3310    1.5077   -0.2322 C   0  0  0  0  0  0  0  0  0  0  0  0
    0.6764    1.5451    0.6789 C   0  0  0  0  0  0  0  0  0  0  0  0
   -1.8483    2.6726    1.3266 C   0  0  0  0  0  0  0  0  0  0  0  0
   -2.3874   -1.7461   -0.2199 C   0  0  0  0  0  0  0  0  0  0  0  0
    0.4349    2.1434    1.9781 C   0  0  0  0  0  0  0  0  0  0  0  0
   -0.7442    2.6670    2.3126 C   0  0  0  0  0  0  0  0  0  0  0  0
    2.0098    0.9730    0.3910 C   0  0  0  0  0  0  0  0  0  0  0  0
   -4.3042   -2.7631    0.9852 C   0  0  0  0  0  0  0  0  0  0  0  0
    2.2657   -0.3643    0.6800 C   0  0  0  0  0  0  0  0  0  0  0  0
    2.9968    1.7747   -0.1666 C   0  0  0  0  0  0  0  0  0  0  0  0
    3.5265   -0.9219    0.4122 C   0  0  0  0  0  0  0  0  0  0  0  0
    4.2551    1.2373   -0.4396 C   0  0  0  0  0  0  0  0  0  0  0  0
    4.5361   -0.1091   -0.1562 C   0  0  0  0  0  0  0  0  0  0  0  0
   -4.5479   -4.1313    0.3617 C   0  0  0  0  0  0  0  0  0  0  0  0
   -5.5841   -2.1936    1.5842 C   0  0  0  0  0  0  0  0  0  0  0  0
    3.8072   -2.2684    0.6954 C   0  0  0  0  0  0  0  0  0  0  0  0
    5.7970   -0.6668   -0.4240 C   0  0  0  0  0  0  0  0  0  0  0  0
    5.0656   -2.8059    0.4228 C   0  0  0  0  0  0  0  0  0  0  0  0
    6.0585   -2.0065   -0.1356 C   0  0  0  0  0  0  0  0  0  0  0  0
   -3.1321    1.8734   -2.9826 H   0  0  0  0  0  0  0  0  0  0  0  0
    0.8554    0.8897   -1.9443 H   0  0  0  0  0  0  0  0  0  0  0  0
   -0.7366    2.5661   -2.7914 H   0  0  0  0  0  0  0  0  0  0  0  0
   -0.8981    1.0280   -3.6395 H   0  0  0  0  0  0  0  0  0  0  0  0
   -3.9525   -0.0626   -1.7057 H   0  0  0  0  0  0  0  0  0  0  0  0
   -2.9194   -0.5438   -3.0414 H   0  0  0  0  0  0  0  0  0  0  0  0
   -2.6949    3.2759   -1.1653 H   0  0  0  0  0  0  0  0  0  0  0  0
   -3.6052    1.9630   -0.4475 H   0  0  0  0  0  0  0  0  0  0  0  0
   -0.4073   -1.1392   -2.4780 H   0  0  0  0  0  0  0  0  0  0  0  0
    0.0292   -1.1806   -0.7809 H   0  0  0  0  0  0  0  0  0  0  0  0
    1.2460    2.1492    2.7003 H   0  0  0  0  0  0  0  0  0  0  0  0
   -0.9172    3.1073    3.2873 H   0  0  0  0  0  0  0  0  0  0  0  0
   -4.4225   -1.4143   -0.6128 H   0  0  0  0  0  0  0  0  0  0  0  0
   -3.5735   -2.8804    1.7947 H   0  0  0  0  0  0  0  0  0  0  0  0
    1.4878   -0.9818    1.1268 H   0  0  0  0  0  0  0  0  0  0  0  0
    2.8066    2.8200   -0.3968 H   0  0  0  0  0  0  0  0  0  0  0  0
    5.0159    1.8806   -0.8768 H   0  0  0  0  0  0  0  0  0  0  0  0
   -3.6184   -4.5529   -0.0363 H   0  0  0  0  0  0  0  0  0  0  0  0
   -5.2613   -4.0679   -0.4676 H   0  0  0  0  0  0  0  0  0  0  0  0
   -4.9464   -4.8333    1.1014 H   0  0  0  0  0  0  0  0  0  0  0  0
   -5.3952   -1.2179    2.0454 H   0  0  0  0  0  0  0  0  0  0  0  0
   -5.9874   -2.8601    2.3535 H   0  0  0  0  0  0  0  0  0  0  0  0
   -6.3540   -2.0517    0.8175 H   0  0  0  0  0  0  0  0  0  0  0  0
    3.0461   -2.9119    1.1318 H   0  0  0  0  0  0  0  0  0  0  0  0
    6.5882   -0.0607   -0.8606 H   0  0  0  0  0  0  0  0  0  0  0  0
    5.2698   -3.8489    0.6468 H   0  0  0  0  0  0  0  0  0  0  0  0
    7.0380   -2.4256   -0.3476 H   0  0  0  0  0  0  0  0  0  0  0  0
  1 14  2  0  0  0  0
  2 15  2  0  0  0  0
  3  9  1  0  0  0  0
  3 11  1  0  0  0  0
  3 15  1  0  0  0  0
  4 10  1  0  0  0  0
  4 12  1  0  0  0  0
  4 14  1  0  0  0  0
  5 15  1  0  0  0  0
  5 19  1  0  0  0  0
  5 43  1  0  0  0  0
  6  8  1  0  0  0  0
  6  9  1  0  0  0  0
  6 10  1  0  0  0  0
  6 31  1  0  0  0  0
  7  8  1  0  0  0  0
  7 11  1  0  0  0  0
  7 12  1  0  0  0  0
  7 32  1  0  0  0  0
  8 33  1  0  0  0  0
  8 34  1  0  0  0  0
  9 35  1  0  0  0  0
  9 36  1  0  0  0  0
 10 37  1  0  0  0  0
 10 38  1  0  0  0  0
 11 39  1  0  0  0  0
 11 40  1  0  0  0  0
 12 13  2  0  0  0  0
 13 16  1  0  0  0  0
 13 18  1  0  0  0  0
 14 17  1  0  0  0  0
 16 17  2  0  0  0  0
 16 41  1  0  0  0  0
 17 42  1  0  0  0  0
 18 20  2  0  0  0  0
 18 21  1  0  0  0  0
 19 25  1  0  0  0  0
 19 26  1  0  0  0  0
 19 44  1  0  0  0  0
 20 22  1  0  0  0  0
 20 45  1  0  0  0  0
 21 23  2  0  0  0  0
 21 46  1  0  0  0  0
 22 24  1  0  0  0  0
 22 27  2  0  0  0  0
 23 24  1  0  0  0  0
 23 47  1  0  0  0  0
 24 28  2  0  0  0  0
 25 48  1  0  0  0  0
 25 49  1  0  0  0  0
 25 50  1  0  0  0  0
 26 51  1  0  0  0  0
 26 52  1  0  0  0  0
 26 53  1  0  0  0  0
 27 29  1  0  0  0  0
 27 54  1  0  0  0  0
 28 30  1  0  0  0  0
 28 55  1  0  0  0  0
 29 30  2  0  0  0  0
 29 56  1  0  0  0  0
 30 57  1  0  0  0  0
M  END
> <PUBCHEM_COMPOUND_CID>
7674790

> <PUBCHEM_CONFORMER_RMSD>
0.8

> <PUBCHEM_CONFORMER_DIVERSEORDER>
1
4
2
3

> <PUBCHEM_MMFF94_PARTIAL_CHARGES>
34
1 -0.57
10 0.3
11 0.3
12 -0.03
13 -0.03
14 0.62
15 0.69
16 -0.15
17 -0.14
18 0.03
19 0.3
2 -0.57
20 -0.15
21 -0.15
23 -0.15
27 -0.15
28 -0.15
29 -0.15
3 -0.66
30 -0.15
4 -0.47
41 0.15
42 0.15
43 0.37
45 0.15
46 0.15
47 0.15
5 -0.73
54 0.15
55 0.15
56 0.15
57 0.15
7 0.14
9 0.3

> <PUBCHEM_EFFECTIVE_ROTOR_COUNT>
5

> <PUBCHEM_PHARMACOPHORE_FEATURES>
9
1 1 acceptor
1 2 acceptor
1 5 donor
3 19 25 26 hydrophobe
6 18 20 21 22 23 24 rings
6 22 24 27 28 29 30 rings
6 3 6 7 8 9 11 rings
6 4 12 13 14 16 17 rings
6 4 6 7 8 10 12 rings

> <PUBCHEM_HEAVY_ATOM_COUNT>
30

> <PUBCHEM_ATOM_DEF_STEREO_COUNT>
2

> <PUBCHEM_ATOM_UDEF_STEREO_COUNT>
0

> <PUBCHEM_BOND_DEF_STEREO_COUNT>
0

> <PUBCHEM_BOND_UDEF_STEREO_COUNT>
0

> <PUBCHEM_ISOTOPIC_ATOM_COUNT>
0

> <PUBCHEM_COMPONENT_COUNT>
1

> <PUBCHEM_CACTVS_TAUTO_COUNT>
2

> <PUBCHEM_CONFORMER_ID>
00751BA600000001

> <PUBCHEM_MMFF94_ENERGY>
83.5726

> <PUBCHEM_FEATURE_SELFOVERLAP>
47.251

> <PUBCHEM_SHAPE_FINGERPRINT>
11135609 12 18335973242789543336
11387372 6 17839193913199018406
11725454 13 10951512387192439433
11961588 58 10159706742239640543
12156800 1 17910153211057950079
12236239 1 18057320575178838680
12422481 6 16558487321798484551
12633257 1 17417255471393798775
12760667 363 18413385449564495327
12788726 201 18130519603571523104
13103583 49 17987253281691301283
131258 38 16838524373787649827
13135754 10 17987821625590493330
13383661 66 17678473050037837859
13631057 29 18335420210031905782
13911852 28 18268427009211498015
14251764 30 18263927798845356283
14747282 305 18261396595205007251
14844126 61 17058345021769966268
20775530 9 18261945344904660690
23466295 7 18334576806707982339
23559900 14 18261937626900788140
3383291 50 17559653076378128367
3737641 26 18264487463037870362
4058900 60 17615962219543817149
437815 12 18339920523956690191
469060 322 17458638778007002067
484985 159 18338235947124668971
497634 4 18334300846864535828
5104073 3 18342448202768255282
5486654 36 18342174415260796928
57527585 103 18268720402505593183
58260988 114 18336839584621496394
9981440 41 17129856119520691509

> <PUBCHEM_SHAPE_MULTIPOLES>
590.7
11.29
4.38
2.07
9.39
2
0.42
12.41
-1.36
-4.44
-2
-2.24
-1.59
0.74

> <PUBCHEM_SHAPE_SELFOVERLAP>
1297.897

> <PUBCHEM_SHAPE_VOLUME>
312.1

> <PUBCHEM_COORDINATE_TYPE>
2
5
10

$$$$
