14457639
  -OEChem-12032416193D

 42 44  0     1  0  0  0  0  0999 V2000
    2.8349   -1.2170   -2.2368 O   0  0  0  0  0  0  0  0  0  0  0  0
    1.6348    0.7235   -1.8751 O   0  0  0  0  0  0  0  0  0  0  0  0
    4.1999    1.7838    0.7743 O   0  0  0  0  0  0  0  0  0  0  0  0
    2.1223    0.7254    0.7124 N   0  0  0  0  0  0  0  0  0  0  0  0
   -1.1763   -0.9095    1.4169 N   0  0  0  0  0  0  0  0  0  0  0  0
   -0.0762   -2.8187    1.0516 N   0  0  0  0  0  0  0  0  0  0  0  0
    2.6641   -0.4428   -0.0327 C   0  0  1  0  0  0  0  0  0  0  0  0
    2.1746   -1.8141    0.4790 C   0  0  0  0  0  0  0  0  0  0  0  0
    0.0984   -0.5603    1.0832 C   0  0  0  0  0  0  0  0  0  0  0  0
    0.6557    0.7995    0.9670 C   0  0  0  0  0  0  0  0  0  0  0  0
    0.7501   -1.7471    0.8613 C   0  0  0  0  0  0  0  0  0  0  0  0
   -2.2682   -0.0238    1.7406 C   0  0  0  0  0  0  0  0  0  0  0  0
   -1.2321   -2.2802    1.3848 C   0  0  0  0  0  0  0  0  0  0  0  0
    2.3041   -0.2191   -1.4743 C   0  0  0  0  0  0  0  0  0  0  0  0
    2.9824    1.8039    0.9706 C   0  0  0  0  0  0  0  0  0  0  0  0
   -3.0472    0.3596    0.5115 C   0  0  0  0  0  0  0  0  0  0  0  0
    2.3446    3.0517    1.5310 C   0  0  0  0  0  0  0  0  0  0  0  0
   -4.1262   -0.4187    0.1147 C   0  0  0  0  0  0  0  0  0  0  0  0
   -2.6764    1.4865   -0.2096 C   0  0  0  0  0  0  0  0  0  0  0  0
    2.5669   -1.1277   -3.6398 C   0  0  0  0  0  0  0  0  0  0  0  0
   -4.8480   -0.0635   -1.0248 C   0  0  0  0  0  0  0  0  0  0  0  0
   -3.3983    1.8418   -1.3490 C   0  0  0  0  0  0  0  0  0  0  0  0
   -4.4840    1.0667   -1.7566 C   0  0  0  0  0  0  0  0  0  0  0  0
    3.7595   -0.4205    0.0167 H   0  0  0  0  0  0  0  0  0  0  0  0
    2.7481   -2.0767    1.3769 H   0  0  0  0  0  0  0  0  0  0  0  0
    2.3368   -2.6129   -0.2517 H   0  0  0  0  0  0  0  0  0  0  0  0
    0.2158    1.3433    0.1289 H   0  0  0  0  0  0  0  0  0  0  0  0
    0.4755    1.3656    1.8846 H   0  0  0  0  0  0  0  0  0  0  0  0
   -1.8672    0.8606    2.2487 H   0  0  0  0  0  0  0  0  0  0  0  0
   -2.9124   -0.5304    2.4699 H   0  0  0  0  0  0  0  0  0  0  0  0
   -2.1367   -2.8277    1.6125 H   0  0  0  0  0  0  0  0  0  0  0  0
    2.0242    2.8765    2.5613 H   0  0  0  0  0  0  0  0  0  0  0  0
    1.4969    3.3642    0.9159 H   0  0  0  0  0  0  0  0  0  0  0  0
    3.0776    3.8643    1.5310 H   0  0  0  0  0  0  0  0  0  0  0  0
   -4.4185   -1.3010    0.6770 H   0  0  0  0  0  0  0  0  0  0  0  0
   -1.8541    2.1178    0.1092 H   0  0  0  0  0  0  0  0  0  0  0  0
    1.4890   -1.1739   -3.8227 H   0  0  0  0  0  0  0  0  0  0  0  0
    3.0432   -1.9797   -4.1319 H   0  0  0  0  0  0  0  0  0  0  0  0
    2.9895   -0.2046   -4.0479 H   0  0  0  0  0  0  0  0  0  0  0  0
   -5.6936   -0.6667   -1.3421 H   0  0  0  0  0  0  0  0  0  0  0  0
   -3.1193    2.7258   -1.9151 H   0  0  0  0  0  0  0  0  0  0  0  0
   -5.0470    1.3442   -2.6430 H   0  0  0  0  0  0  0  0  0  0  0  0
  1 14  1  0  0  0  0
  1 20  1  0  0  0  0
  2 14  2  0  0  0  0
  3 15  2  0  0  0  0
  4  7  1  0  0  0  0
  4 10  1  0  0  0  0
  4 15  1  0  0  0  0
  5  9  1  0  0  0  0
  5 12  1  0  0  0  0
  5 13  1  0  0  0  0
  6 11  1  0  0  0  0
  6 13  2  0  0  0  0
  7  8  1  0  0  0  0
  7 14  1  0  0  0  0
  7 24  1  0  0  0  0
  8 11  1  0  0  0  0
  8 25  1  0  0  0  0
  8 26  1  0  0  0  0
  9 10  1  0  0  0  0
  9 11  2  0  0  0  0
 10 27  1  0  0  0  0
 10 28  1  0  0  0  0
 12 16  1  0  0  0  0
 12 29  1  0  0  0  0
 12 30  1  0  0  0  0
 13 31  1  0  0  0  0
 15 17  1  0  0  0  0
 16 18  2  0  0  0  0
 16 19  1  0  0  0  0
 17 32  1  0  0  0  0
 17 33  1  0  0  0  0
 17 34  1  0  0  0  0
 18 21  1  0  0  0  0
 18 35  1  0  0  0  0
 19 22  2  0  0  0  0
 19 36  1  0  0  0  0
 20 37  1  0  0  0  0
 20 38  1  0  0  0  0
 20 39  1  0  0  0  0
 21 23  2  0  0  0  0
 21 40  1  0  0  0  0
 22 23  1  0  0  0  0
 22 41  1  0  0  0  0
 23 42  1  0  0  0  0
M  END
> <PUBCHEM_COMPOUND_CID>
14457639

> <PUBCHEM_CONFORMER_RMSD>
0.8

> <PUBCHEM_CONFORMER_DIVERSEORDER>
1
20
19
22
9
10
21
11
8
14
16
15
5
12
13
6
24
3
23
4
7
17
18
2

> <PUBCHEM_MMFF94_PARTIAL_CHARGES>
29
1 -0.43
10 0.48
11 0.05
12 0.4
13 0.04
14 0.66
15 0.57
16 -0.14
17 0.06
18 -0.15
19 -0.15
2 -0.57
20 0.28
21 -0.15
22 -0.15
23 -0.15
3 -0.57
31 0.15
35 0.15
36 0.15
4 -0.66
40 0.15
41 0.15
42 0.15
5 0.05
6 -0.57
7 0.36
8 0.18
9 -0.33

> <PUBCHEM_EFFECTIVE_ROTOR_COUNT>
5.8

> <PUBCHEM_PHARMACOPHORE_FEATURES>
6
1 2 acceptor
1 3 acceptor
3 5 6 13 cation
5 5 6 9 11 13 rings
6 16 18 19 21 22 23 rings
6 4 7 8 9 10 11 rings

> <PUBCHEM_HEAVY_ATOM_COUNT>
23

> <PUBCHEM_ATOM_DEF_STEREO_COUNT>
1

> <PUBCHEM_ATOM_UDEF_STEREO_COUNT>
0

> <PUBCHEM_BOND_DEF_STEREO_COUNT>
0

> <PUBCHEM_BOND_UDEF_STEREO_COUNT>
0

> <PUBCHEM_ISOTOPIC_ATOM_COUNT>
0

> <PUBCHEM_COMPONENT_COUNT>
1

> <PUBCHEM_CACTVS_TAUTO_COUNT>
1

> <PUBCHEM_CONFORMER_ID>
00DC9B2700000001

> <PUBCHEM_MMFF94_ENERGY>
53.7582

> <PUBCHEM_FEATURE_SELFOVERLAP>
30.55

> <PUBCHEM_SHAPE_FINGERPRINT>
10498660 4 17749404692871297095
10764073 3 16523515005246191560
10871710 139 16169757532614672709
11370993 70 18188194477390211441
11582403 64 17842527877403967768
11640471 11 15575009415101561103
11725454 13 18199452441345119688
12160290 23 17900285253113029227
12403259 415 18259705592695254537
12596599 1 18059860502619965657
12670546 177 18059001904213204887
13134695 92 17975959982428506162
13899415 180 17701554900392385790
14957384 54 17313664983314427948
15537594 2 14979957025564512589
18186145 218 18410864239368362801
18981168 100 17968386735404285203
192875 21 17022892476397442061
20715895 44 15576654143585759597
21421861 104 13542466449385562295
21864079 5 16081382842638501503
22149856 69 17822582591460650809
22182313 1 18265065793432638163
22749437 52 17385724677765203261
235170 7 18060411422396443125
23557571 272 18119536680568805707
23559900 14 17313662621309249315
238 59 17917141822680480040
2748010 2 18122647173162448898
4371632 12 14398696024100592336
46194498 28 17988641887267019341
5262128 65 17917434168330121465
5895379 119 17240766129642294100
633830 44 18201451242089339777
81228 2 17686362144714389891

> <PUBCHEM_SHAPE_MULTIPOLES>
440.78
8.01
2.66
2.56
6.92
0.55
2.47
2.99
3.62
-2.02
-1.05
-1.27
-0.94
2.45

> <PUBCHEM_SHAPE_SELFOVERLAP>
946.516

> <PUBCHEM_SHAPE_VOLUME>
242.9

> <PUBCHEM_COORDINATE_TYPE>
2
5
10

$$$$
