75537135
  -OEChem-12032416333D

 47 49  0     1  0  0  0  0  0999 V2000
    4.6936    1.4438   -0.8272 O   0  0  0  0  0  0  0  0  0  0  0  0
    5.7081   -1.0532    0.9134 O   0  0  0  0  0  0  0  0  0  0  0  0
   -6.2898   -2.3223   -0.0281 O   0  0  0  0  0  0  0  0  0  0  0  0
   -6.9286   -0.5383   -1.2834 O   0  0  0  0  0  0  0  0  0  0  0  0
    2.3723    1.1368   -0.6360 N   0  0  0  0  0  0  0  0  0  0  0  0
   -0.2340    1.3953    0.3892 N   0  0  2  0  0  0  0  0  0  0  0  0
    3.6525   -0.6608   -1.0526 N   0  0  0  0  0  0  0  0  0  0  0  0
    1.4283    0.0575   -0.8374 C   0  0  2  0  0  0  0  0  0  0  0  0
    0.3776    0.0560    0.2725 C   0  0  0  0  0  0  0  0  0  0  0  0
    2.3091   -1.1893   -0.8893 C   0  0  0  0  0  0  0  0  0  0  0  0
    1.8770    2.4701   -0.3639 C   0  0  0  0  0  0  0  0  0  0  0  0
    0.7865    2.4142    0.7088 C   0  0  0  0  0  0  0  0  0  0  0  0
    3.6981    0.7319   -0.8411 C   0  0  0  0  0  0  0  0  0  0  0  0
   -1.2836    1.3888    1.4079 C   0  0  0  0  0  0  0  0  0  0  0  0
    4.7958   -1.5228   -1.2559 C   0  0  0  0  0  0  0  0  0  0  0  0
   -2.5491    0.7467    0.9047 C   0  0  0  0  0  0  0  0  0  0  0  0
    5.2937   -2.1069    0.0535 C   0  0  0  0  0  0  0  0  0  0  0  0
   -3.3881    1.4459    0.0370 C   0  0  0  0  0  0  0  0  0  0  0  0
   -2.8826   -0.5469    1.3060 C   0  0  0  0  0  0  0  0  0  0  0  0
   -4.5605    0.8515   -0.4292 C   0  0  0  0  0  0  0  0  0  0  0  0
   -4.0551   -1.1413    0.8398 C   0  0  0  0  0  0  0  0  0  0  0  0
   -4.8941   -0.4423   -0.0281 C   0  0  0  0  0  0  0  0  0  0  0  0
    6.1890   -1.5515    2.1542 C   0  0  0  0  0  0  0  0  0  0  0  0
   -6.1160   -1.0628   -0.5147 C   0  0  0  0  0  0  0  0  0  0  0  0
    0.9547    0.2239   -1.8139 H   0  0  0  0  0  0  0  0  0  0  0  0
   -0.3703   -0.7029    0.0190 H   0  0  0  0  0  0  0  0  0  0  0  0
    0.8340   -0.2358    1.2283 H   0  0  0  0  0  0  0  0  0  0  0  0
    2.2739   -1.7689    0.0386 H   0  0  0  0  0  0  0  0  0  0  0  0
    2.0548   -1.8359   -1.7344 H   0  0  0  0  0  0  0  0  0  0  0  0
    1.4735    2.8651   -1.3033 H   0  0  0  0  0  0  0  0  0  0  0  0
    2.7063    3.1135   -0.0537 H   0  0  0  0  0  0  0  0  0  0  0  0
    1.2445    2.1954    1.6828 H   0  0  0  0  0  0  0  0  0  0  0  0
    0.3241    3.4061    0.7775 H   0  0  0  0  0  0  0  0  0  0  0  0
   -1.5480    2.4179    1.6895 H   0  0  0  0  0  0  0  0  0  0  0  0
   -0.9446    0.9153    2.3394 H   0  0  0  0  0  0  0  0  0  0  0  0
    5.5902   -0.9159   -1.7047 H   0  0  0  0  0  0  0  0  0  0  0  0
    4.5187   -2.3122   -1.9616 H   0  0  0  0  0  0  0  0  0  0  0  0
    6.1435   -2.7700   -0.1453 H   0  0  0  0  0  0  0  0  0  0  0  0
    4.5029   -2.6885    0.5413 H   0  0  0  0  0  0  0  0  0  0  0  0
   -3.1390    2.4543   -0.2829 H   0  0  0  0  0  0  0  0  0  0  0  0
   -2.2374   -1.1024    1.9816 H   0  0  0  0  0  0  0  0  0  0  0  0
   -5.2007    1.4128   -1.1048 H   0  0  0  0  0  0  0  0  0  0  0  0
   -4.2761   -2.1500    1.1774 H   0  0  0  0  0  0  0  0  0  0  0  0
    6.4938   -0.7019    2.7711 H   0  0  0  0  0  0  0  0  0  0  0  0
    7.0575   -2.1985    1.9975 H   0  0  0  0  0  0  0  0  0  0  0  0
    5.4002   -2.0987    2.6794 H   0  0  0  0  0  0  0  0  0  0  0  0
   -7.1163   -2.7318   -0.3623 H   0  0  0  0  0  0  0  0  0  0  0  0
  1 13  2  0  0  0  0
  2 17  1  0  0  0  0
  2 23  1  0  0  0  0
  3 24  1  0  0  0  0
  3 47  1  0  0  0  0
  4 24  2  0  0  0  0
  5  8  1  0  0  0  0
  5 11  1  0  0  0  0
  5 13  1  0  0  0  0
  6  9  1  0  0  0  0
  6 12  1  0  0  0  0
  6 14  1  0  0  0  0
  7 10  1  0  0  0  0
  7 13  1  0  0  0  0
  7 15  1  0  0  0  0
  8  9  1  0  0  0  0
  8 10  1  0  0  0  0
  8 25  1  0  0  0  0
  9 26  1  0  0  0  0
  9 27  1  0  0  0  0
 10 28  1  0  0  0  0
 10 29  1  0  0  0  0
 11 12  1  0  0  0  0
 11 30  1  0  0  0  0
 11 31  1  0  0  0  0
 12 32  1  0  0  0  0
 12 33  1  0  0  0  0
 14 16  1  0  0  0  0
 14 34  1  0  0  0  0
 14 35  1  0  0  0  0
 15 17  1  0  0  0  0
 15 36  1  0  0  0  0
 15 37  1  0  0  0  0
 16 18  2  0  0  0  0
 16 19  1  0  0  0  0
 17 38  1  0  0  0  0
 17 39  1  0  0  0  0
 18 20  1  0  0  0  0
 18 40  1  0  0  0  0
 19 21  2  0  0  0  0
 19 41  1  0  0  0  0
 20 22  2  0  0  0  0
 20 42  1  0  0  0  0
 21 22  1  0  0  0  0
 21 43  1  0  0  0  0
 22 24  1  0  0  0  0
 23 44  1  0  0  0  0
 23 45  1  0  0  0  0
 23 46  1  0  0  0  0
M  END
> <PUBCHEM_COMPOUND_CID>
75537135

> <PUBCHEM_CONFORMER_RMSD>
0.8

> <PUBCHEM_CONFORMER_DIVERSEORDER>
1
76
51
58
74
25
21
59
69
44
52
20
53
40
6
68
48
57
7
30
77
19
49
31
60
71
42
9
46
73
29
65
43
56
38
72
2
18
75
28
55
35
61
32
3
64
22
24
70
45
54
78
41
37
62
50
12
13
47
23
14
66
27
67
63
36
11
34
10
17
16
39
15
5
26
33
8
4

> <PUBCHEM_MMFF94_PARTIAL_CHARGES>
29
1 -0.57
10 0.3
11 0.3
12 0.27
13 0.69
14 0.41
15 0.3
16 -0.14
17 0.28
18 -0.15
19 -0.15
2 -0.56
20 -0.15
21 -0.15
22 0.09
23 0.28
24 0.63
3 -0.65
4 -0.57
40 0.15
41 0.15
42 0.15
43 0.15
47 0.5
5 -0.66
6 -0.81
7 -0.66
8 0.3
9 0.27

> <PUBCHEM_EFFECTIVE_ROTOR_COUNT>
7.2

> <PUBCHEM_PHARMACOPHORE_FEATURES>
9
1 1 acceptor
1 2 acceptor
1 3 acceptor
1 4 acceptor
1 6 cation
3 3 4 24 anion
5 5 7 8 10 13 rings
6 16 18 19 20 21 22 rings
6 5 6 8 9 11 12 rings

> <PUBCHEM_HEAVY_ATOM_COUNT>
24

> <PUBCHEM_ATOM_DEF_STEREO_COUNT>
1

> <PUBCHEM_ATOM_UDEF_STEREO_COUNT>
0

> <PUBCHEM_BOND_DEF_STEREO_COUNT>
0

> <PUBCHEM_BOND_UDEF_STEREO_COUNT>
0

> <PUBCHEM_ISOTOPIC_ATOM_COUNT>
0

> <PUBCHEM_COMPONENT_COUNT>
1

> <PUBCHEM_CACTVS_TAUTO_COUNT>
1

> <PUBCHEM_CONFORMER_ID>
04809AEF00000001

> <PUBCHEM_MMFF94_ENERGY>
59.6434

> <PUBCHEM_FEATURE_SELFOVERLAP>
45.825

> <PUBCHEM_SHAPE_FINGERPRINT>
10 15 9943808902926672447
10378564 45 13551192169858813394
10447042 23 18343024410325610188
10670039 82 14924217180277965887
10753850 27 18342458145248331763
11796584 16 17023186067387055520
12166972 35 18333740121197920973
12390115 104 10665236934193966401
13782708 43 18260551151755507467
13862211 1 18341054034286878270
14251740 57 17703521991203629646
14251752 14 18260547780448701845
14347332 77 18409730643128350617
14848160 23 18201435844241394362
14848178 5 18271529702027616274
14951699 99 10303826401508846731
15183329 4 16153708687364660354
15188451 53 18339918226090950530
17134984 74 18262523705364192386
17349148 13 18341065033687378936
17857418 61 17968097478416319898
18222031 100 18342186522979170380
190975 80 16558738049146826423
19377110 9 16056878048122261448
200 152 17988933288324438321
20028762 73 18202005400082130990
20567600 234 17632002127234320842
21033650 10 16950558845028184837
21315763 87 17489868219845743966
21315764 119 16660360372747456851
22393880 68 18260544507435539997
23198884 109 17095243618860509703
23559900 14 18262517121711934737
2838139 119 14057271048285367255
3004659 81 18334585620455270326
329604 57 18342745125961626773
439807 62 18338519750823038367
5104073 3 18271818916425002249
56616090 89 18202003196636820160
5718773 13 18411980239080792894
59682541 35 17774993614432228114
59682541 52 16298376938057508139
59755656 520 15936988344698456081
636775 72 10812207635999661582
6438161 24 18202274828255213895
76465 3 18341900670803381681
960060 61 16660657236982041190

> <PUBCHEM_SHAPE_MULTIPOLES>
455.49
16.73
2.41
1.42
6.32
0.48
-0.45
-12.07
0.77
-1.03
-0.15
-1.34
-0.33
-1.13

> <PUBCHEM_SHAPE_SELFOVERLAP>
956.498

> <PUBCHEM_SHAPE_VOLUME>
258.2

> <PUBCHEM_COORDINATE_TYPE>
2
5
10

$$$$
