75537009
  -OEChem-12032416313D

 53 56  0     1  0  0  0  0  0999 V2000
    3.6043    2.4780   -0.5491 O   0  0  0  0  0  0  0  0  0  0  0  0
   -3.3499    2.9184   -0.0419 O   0  0  0  0  0  0  0  0  0  0  0  0
   -5.4764   -2.9696    0.1464 O   0  0  0  0  0  0  0  0  0  0  0  0
    2.9573    0.2402   -0.1835 N   0  0  0  0  0  0  0  0  0  0  0  0
    1.3582    1.8009   -0.4205 N   0  0  0  0  0  0  0  0  0  0  0  0
   -1.3032    1.8714    0.3769 N   0  0  0  0  0  0  0  0  0  0  0  0
    0.6338    0.5442   -0.3332 C   0  0  1  0  0  0  0  0  0  0  0  0
    4.2402   -0.4062   -0.0477 C   0  0  0  0  0  0  0  0  0  0  0  0
    1.7106   -0.4709    0.0404 C   0  0  0  0  0  0  0  0  0  0  0  0
    4.3806   -1.0467    1.3358 C   0  0  0  0  0  0  0  0  0  0  0  0
    4.4425   -1.4363   -1.1615 C   0  0  0  0  0  0  0  0  0  0  0  0
   -0.5083    0.6631    0.6709 C   0  0  0  0  0  0  0  0  0  0  0  0
    2.7476    1.6155   -0.4064 C   0  0  0  0  0  0  0  0  0  0  0  0
    0.6300    3.0435   -0.6106 C   0  0  0  0  0  0  0  0  0  0  0  0
    5.7097   -1.7830    1.4820 C   0  0  0  0  0  0  0  0  0  0  0  0
    5.7708   -2.1735   -1.0116 C   0  0  0  0  0  0  0  0  0  0  0  0
    5.9102   -2.8080    0.3693 C   0  0  0  0  0  0  0  0  0  0  0  0
   -0.5344    3.1238    0.3751 C   0  0  0  0  0  0  0  0  0  0  0  0
   -2.6816    1.9056    0.1597 C   0  0  0  0  0  0  0  0  0  0  0  0
   -3.4129    0.6321    0.1559 C   0  0  0  0  0  0  0  0  0  0  0  0
   -3.9450    0.1298    1.3435 C   0  0  0  0  0  0  0  0  0  0  0  0
   -3.5743   -0.0760   -1.0350 C   0  0  0  0  0  0  0  0  0  0  0  0
   -4.6384   -1.0804    1.3403 C   0  0  0  0  0  0  0  0  0  0  0  0
   -4.2676   -1.2863   -1.0383 C   0  0  0  0  0  0  0  0  0  0  0  0
   -4.7996   -1.7885    0.1494 C   0  0  0  0  0  0  0  0  0  0  0  0
   -5.6042   -3.6412   -1.1060 C   0  0  0  0  0  0  0  0  0  0  0  0
    0.2412    0.3364   -1.3368 H   0  0  0  0  0  0  0  0  0  0  0  0
    5.0151    0.3643   -0.1509 H   0  0  0  0  0  0  0  0  0  0  0  0
    1.6444   -0.7547    1.0950 H   0  0  0  0  0  0  0  0  0  0  0  0
    1.6472   -1.3654   -0.5841 H   0  0  0  0  0  0  0  0  0  0  0  0
    3.5750   -1.7688    1.5159 H   0  0  0  0  0  0  0  0  0  0  0  0
    4.2955   -0.2809    2.1163 H   0  0  0  0  0  0  0  0  0  0  0  0
    3.6348   -2.1780   -1.1579 H   0  0  0  0  0  0  0  0  0  0  0  0
    4.4052   -0.9427   -2.1403 H   0  0  0  0  0  0  0  0  0  0  0  0
   -1.1150   -0.2446    0.6565 H   0  0  0  0  0  0  0  0  0  0  0  0
   -0.1259    0.7852    1.6919 H   0  0  0  0  0  0  0  0  0  0  0  0
    0.2567    3.0383   -1.6409 H   0  0  0  0  0  0  0  0  0  0  0  0
    1.3091    3.8939   -0.4970 H   0  0  0  0  0  0  0  0  0  0  0  0
    5.7492   -2.2837    2.4560 H   0  0  0  0  0  0  0  0  0  0  0  0
    6.5322   -1.0574    1.4624 H   0  0  0  0  0  0  0  0  0  0  0  0
    6.5975   -1.4713   -1.1755 H   0  0  0  0  0  0  0  0  0  0  0  0
    5.8524   -2.9475   -1.7831 H   0  0  0  0  0  0  0  0  0  0  0  0
    6.9002   -3.2679    0.4655 H   0  0  0  0  0  0  0  0  0  0  0  0
    5.1720   -3.6122    0.4771 H   0  0  0  0  0  0  0  0  0  0  0  0
   -0.1592    3.2672    1.3956 H   0  0  0  0  0  0  0  0  0  0  0  0
   -1.1738    3.9783    0.1330 H   0  0  0  0  0  0  0  0  0  0  0  0
   -3.8243    0.6733    2.2771 H   0  0  0  0  0  0  0  0  0  0  0  0
   -3.1621    0.3069   -1.9651 H   0  0  0  0  0  0  0  0  0  0  0  0
   -5.0504   -1.4667    2.2685 H   0  0  0  0  0  0  0  0  0  0  0  0
   -4.3556   -1.7844   -1.9978 H   0  0  0  0  0  0  0  0  0  0  0  0
   -6.1817   -3.0484   -1.8234 H   0  0  0  0  0  0  0  0  0  0  0  0
   -6.1693   -4.5610   -0.9232 H   0  0  0  0  0  0  0  0  0  0  0  0
   -4.6283   -3.9394   -1.5041 H   0  0  0  0  0  0  0  0  0  0  0  0
  1 13  2  0  0  0  0
  2 19  2  0  0  0  0
  3 25  1  0  0  0  0
  3 26  1  0  0  0  0
  4  8  1  0  0  0  0
  4  9  1  0  0  0  0
  4 13  1  0  0  0  0
  5  7  1  0  0  0  0
  5 13  1  0  0  0  0
  5 14  1  0  0  0  0
  6 12  1  0  0  0  0
  6 18  1  0  0  0  0
  6 19  1  0  0  0  0
  7  9  1  0  0  0  0
  7 12  1  0  0  0  0
  7 27  1  0  0  0  0
  8 10  1  0  0  0  0
  8 11  1  0  0  0  0
  8 28  1  0  0  0  0
  9 29  1  0  0  0  0
  9 30  1  0  0  0  0
 10 15  1  0  0  0  0
 10 31  1  0  0  0  0
 10 32  1  0  0  0  0
 11 16  1  0  0  0  0
 11 33  1  0  0  0  0
 11 34  1  0  0  0  0
 12 35  1  0  0  0  0
 12 36  1  0  0  0  0
 14 18  1  0  0  0  0
 14 37  1  0  0  0  0
 14 38  1  0  0  0  0
 15 17  1  0  0  0  0
 15 39  1  0  0  0  0
 15 40  1  0  0  0  0
 16 17  1  0  0  0  0
 16 41  1  0  0  0  0
 16 42  1  0  0  0  0
 17 43  1  0  0  0  0
 17 44  1  0  0  0  0
 18 45  1  0  0  0  0
 18 46  1  0  0  0  0
 19 20  1  0  0  0  0
 20 21  2  0  0  0  0
 20 22  1  0  0  0  0
 21 23  1  0  0  0  0
 21 47  1  0  0  0  0
 22 24  2  0  0  0  0
 22 48  1  0  0  0  0
 23 25  2  0  0  0  0
 23 49  1  0  0  0  0
 24 25  1  0  0  0  0
 24 50  1  0  0  0  0
 26 51  1  0  0  0  0
 26 52  1  0  0  0  0
 26 53  1  0  0  0  0
M  END
> <PUBCHEM_COMPOUND_CID>
75537009

> <PUBCHEM_CONFORMER_RMSD>
0.8

> <PUBCHEM_CONFORMER_DIVERSEORDER>
1
41
11
33
23
28
26
14
47
32
3
22
9
36
40
35
16
45
25
42
13
27
34
2
20
21
7
38
31
8
44
19
43
12
39
10
37
24
4
17
15
29
30
18
5
46
6
48

> <PUBCHEM_MMFF94_PARTIAL_CHARGES>
25
1 -0.57
12 0.3
13 0.69
14 0.3
18 0.3
19 0.54
2 -0.57
20 0.09
21 -0.15
22 -0.15
23 -0.15
24 -0.15
25 0.08
26 0.28
3 -0.36
4 -0.66
47 0.15
48 0.15
49 0.15
5 -0.66
50 0.15
6 -0.66
7 0.3
8 0.3
9 0.3

> <PUBCHEM_EFFECTIVE_ROTOR_COUNT>
6.4

> <PUBCHEM_PHARMACOPHORE_FEATURES>
7
1 1 acceptor
1 2 acceptor
1 3 acceptor
5 4 5 7 9 13 rings
6 20 21 22 23 24 25 rings
6 5 6 7 12 14 18 rings
6 8 10 11 15 16 17 rings

> <PUBCHEM_HEAVY_ATOM_COUNT>
26

> <PUBCHEM_ATOM_DEF_STEREO_COUNT>
1

> <PUBCHEM_ATOM_UDEF_STEREO_COUNT>
0

> <PUBCHEM_BOND_DEF_STEREO_COUNT>
0

> <PUBCHEM_BOND_UDEF_STEREO_COUNT>
0

> <PUBCHEM_ISOTOPIC_ATOM_COUNT>
0

> <PUBCHEM_COMPONENT_COUNT>
1

> <PUBCHEM_CACTVS_TAUTO_COUNT>
1

> <PUBCHEM_CONFORMER_ID>
04809A7100000001

> <PUBCHEM_MMFF94_ENERGY>
69.775

> <PUBCHEM_FEATURE_SELFOVERLAP>
35.621

> <PUBCHEM_SHAPE_FINGERPRINT>
10074138 170 17201092374268179857
10622 236 18408317795918437567
11607047 403 17267763791468971451
11796584 16 18267863883205959552
11963148 33 18122900103961011894
12107183 9 18271263676876815401
12422481 6 17489872596496293766
13540713 5 18337410286780533069
13690498 29 18114189588077280829
13944108 23 8068104745845013543
14117953 113 18342736296295252991
14211702 104 18409165532579682258
14251740 57 18341893030499505082
14251751 18 18343298141835164170
14347332 77 18409166623601413615
14429380 30 18408887360084928731
14848178 5 18411973659280111434
14848178 96 9079122132861100526
14866123 147 18411986832931122329
14950920 106 16486966297772054346
15163728 17 8214149589844030097
17138139 8 17967531247150336426
17349148 13 18041571243277848914
17492 89 18411701006108198180
17780758 139 17775008938426874489
18222031 100 18336264553373067624
18927931 339 18339928104061790615
19319366 153 17762620989719552668
193927 3 18409735045058086496
19841028 212 18266738164073644819
20028762 73 18342175579023802806
20775438 99 17690542509672687435
20843269 155 18409724054395668386
21585480 29 17343758638189615310
22393880 68 17822280271836098845
23559900 14 18408598149882790976
25122255 55 18411700958837411342
2838139 119 10809344468432138534
312425 54 17703230594409489850
314194 84 18265905828958551025
3383291 50 18270401565207996073
3459 39 9294714321860619030
397830 11 18130773561220153314
44062 13 18261955146304724101
484985 159 18411133603165202095
50009960 94 17970322907484658578
5104073 3 18273217495125933825
559249 180 18263924337539416145
6034566 193 8502383265026354167
6058803 2 18268169702348344281
6431902 208 18408884018758569538
7808743 9 9439395822337248013
7970288 3 18411134757731397207

> <PUBCHEM_SHAPE_MULTIPOLES>
502.52
15.3
4.15
1.22
5.18
0.13
0.18
-17.8
0.56
-2.29
-0.75
0.16
-0.56
-1.4

> <PUBCHEM_SHAPE_SELFOVERLAP>
1067.446

> <PUBCHEM_SHAPE_VOLUME>
278.8

> <PUBCHEM_COORDINATE_TYPE>
2
5
10

$$$$
