45361005
  -OEChem-12032416253D

 68 72  0     1  0  0  0  0  0999 V2000
    1.3903   -2.9236    0.7103 O   0  0  0  0  0  0  0  0  0  0  0  0
   -5.8004   -1.1992   -1.5198 O   0  0  0  0  0  0  0  0  0  0  0  0
    1.8591   -0.3459    0.0560 N   0  0  1  0  0  0  0  0  0  0  0  0
   -1.4860   -1.1573   -1.1861 N   0  0  1  0  0  0  0  0  0  0  0  0
   -0.8178   -2.6042    1.2187 N   0  0  0  0  0  0  0  0  0  0  0  0
    5.0003   -0.6062    0.4319 N   0  0  0  0  0  0  0  0  0  0  0  0
    4.6235    1.5796    0.5755 N   0  0  0  0  0  0  0  0  0  0  0  0
   -5.8603   -0.7294    0.7527 N   0  0  0  0  0  0  0  0  0  0  0  0
   -4.8033    3.4012   -0.9486 N   0  0  0  0  0  0  0  0  0  0  0  0
   -0.4415   -0.2244   -0.7084 C   0  0  1  0  0  0  0  0  0  0  0  0
    0.4806   -0.6798    0.4607 C   0  0  1  0  0  0  0  0  0  0  0  0
    0.5823    0.1735   -1.7879 C   0  0  0  0  0  0  0  0  0  0  0  0
    1.7654    0.6716   -0.9849 C   0  0  0  0  0  0  0  0  0  0  0  0
   -2.5307   -1.4828   -0.1754 C   0  0  2  0  0  0  0  0  0  0  0  0
    0.4212   -2.1697    0.7873 C   0  0  0  0  0  0  0  0  0  0  0  0
   -1.9967   -1.7613    1.2433 C   0  0  0  0  0  0  0  0  0  0  0  0
    2.6995    0.0819    1.1670 C   0  0  0  0  0  0  0  0  0  0  0  0
   -3.3420   -2.7190   -0.6168 C   0  0  0  0  0  0  0  0  0  0  0  0
   -2.1107   -0.6556   -2.4220 C   0  0  0  0  0  0  0  0  0  0  0  0
    4.1031    0.3823    0.7267 C   0  0  0  0  0  0  0  0  0  0  0  0
   -4.7170   -2.7158    0.0253 C   0  0  0  0  0  0  0  0  0  0  0  0
   -5.5120   -1.4812   -0.3599 C   0  0  0  0  0  0  0  0  0  0  0  0
    6.1783   -0.0069    0.0661 C   0  0  0  0  0  0  0  0  0  0  0  0
    5.9175    1.3571    0.1638 C   0  0  0  0  0  0  0  0  0  0  0  0
    4.7553   -2.0296    0.4936 C   0  0  0  0  0  0  0  0  0  0  0  0
    7.4118   -0.5252   -0.3297 C   0  0  0  0  0  0  0  0  0  0  0  0
    6.9364    2.2731   -0.1480 C   0  0  0  0  0  0  0  0  0  0  0  0
   -6.6190    0.4945    0.6494 C   0  0  0  0  0  0  0  0  0  0  0  0
    8.4143    0.4008   -0.6365 C   0  0  0  0  0  0  0  0  0  0  0  0
    8.1831    1.7755   -0.5479 C   0  0  0  0  0  0  0  0  0  0  0  0
   -5.7307    1.6945    0.4907 C   0  0  0  0  0  0  0  0  0  0  0  0
   -5.0252    2.2120    1.5714 C   0  0  0  0  0  0  0  0  0  0  0  0
   -5.5867    2.3200   -0.7372 C   0  0  0  0  0  0  0  0  0  0  0  0
   -4.2089    3.3236    1.3935 C   0  0  0  0  0  0  0  0  0  0  0  0
   -4.1329    3.8761    0.1251 C   0  0  0  0  0  0  0  0  0  0  0  0
   -0.9330    0.7072   -0.3870 H   0  0  0  0  0  0  0  0  0  0  0  0
    0.2082   -0.1180    1.3640 H   0  0  0  0  0  0  0  0  0  0  0  0
    0.8766   -0.6952   -2.3921 H   0  0  0  0  0  0  0  0  0  0  0  0
    0.2025    0.9509   -2.4588 H   0  0  0  0  0  0  0  0  0  0  0  0
    1.5525    1.6680   -0.5768 H   0  0  0  0  0  0  0  0  0  0  0  0
    2.6621    0.7240   -1.6103 H   0  0  0  0  0  0  0  0  0  0  0  0
   -3.1810   -0.6042   -0.0913 H   0  0  0  0  0  0  0  0  0  0  0  0
   -2.7312   -2.2618    1.8802 H   0  0  0  0  0  0  0  0  0  0  0  0
   -1.7558   -0.8213    1.7503 H   0  0  0  0  0  0  0  0  0  0  0  0
    2.2874    0.9829    1.6416 H   0  0  0  0  0  0  0  0  0  0  0  0
    2.7240   -0.6864    1.9488 H   0  0  0  0  0  0  0  0  0  0  0  0
   -2.8150   -3.6457   -0.3568 H   0  0  0  0  0  0  0  0  0  0  0  0
   -3.4919   -2.7734   -1.6974 H   0  0  0  0  0  0  0  0  0  0  0  0
   -0.9197   -3.5815    1.4747 H   0  0  0  0  0  0  0  0  0  0  0  0
   -2.8791   -1.3144   -2.8300 H   0  0  0  0  0  0  0  0  0  0  0  0
   -1.3767   -0.5704   -3.2298 H   0  0  0  0  0  0  0  0  0  0  0  0
   -2.5677    0.3289   -2.2666 H   0  0  0  0  0  0  0  0  0  0  0  0
   -5.2868   -3.5826   -0.3320 H   0  0  0  0  0  0  0  0  0  0  0  0
   -4.6557   -2.8286    1.1116 H   0  0  0  0  0  0  0  0  0  0  0  0
    4.3145   -2.2730    1.4631 H   0  0  0  0  0  0  0  0  0  0  0  0
    4.0781   -2.2968   -0.3212 H   0  0  0  0  0  0  0  0  0  0  0  0
    5.6913   -2.5809    0.3873 H   0  0  0  0  0  0  0  0  0  0  0  0
   -5.5592   -1.0210    1.6778 H   0  0  0  0  0  0  0  0  0  0  0  0
    7.5996   -1.5900   -0.4031 H   0  0  0  0  0  0  0  0  0  0  0  0
    6.7666    3.3430   -0.0824 H   0  0  0  0  0  0  0  0  0  0  0  0
   -7.2178    0.5920    1.5621 H   0  0  0  0  0  0  0  0  0  0  0  0
   -7.3215    0.4172   -0.1887 H   0  0  0  0  0  0  0  0  0  0  0  0
    9.3919    0.0429   -0.9501 H   0  0  0  0  0  0  0  0  0  0  0  0
    8.9820    2.4706   -0.7929 H   0  0  0  0  0  0  0  0  0  0  0  0
   -5.1035    1.7568    2.5548 H   0  0  0  0  0  0  0  0  0  0  0  0
   -6.1091    1.9622   -1.6191 H   0  0  0  0  0  0  0  0  0  0  0  0
   -3.6493    3.7436    2.2213 H   0  0  0  0  0  0  0  0  0  0  0  0
   -3.5098    4.7435   -0.0663 H   0  0  0  0  0  0  0  0  0  0  0  0
  1 15  2  0  0  0  0
  2 22  2  0  0  0  0
  3 11  1  0  0  0  0
  3 13  1  0  0  0  0
  3 17  1  0  0  0  0
  4 10  1  0  0  0  0
  4 14  1  0  0  0  0
  4 19  1  0  0  0  0
  5 15  1  0  0  0  0
  5 16  1  0  0  0  0
  5 49  1  0  0  0  0
  6 20  1  0  0  0  0
  6 23  1  0  0  0  0
  6 25  1  0  0  0  0
  7 20  2  0  0  0  0
  7 24  1  0  0  0  0
  8 22  1  0  0  0  0
  8 28  1  0  0  0  0
  8 58  1  0  0  0  0
  9 33  1  0  0  0  0
  9 35  2  0  0  0  0
 10 11  1  0  0  0  0
 10 12  1  0  0  0  0
 10 36  1  0  0  0  0
 11 15  1  0  0  0  0
 11 37  1  0  0  0  0
 12 13  1  0  0  0  0
 12 38  1  0  0  0  0
 12 39  1  0  0  0  0
 13 40  1  0  0  0  0
 13 41  1  0  0  0  0
 14 16  1  0  0  0  0
 14 18  1  0  0  0  0
 14 42  1  0  0  0  0
 16 43  1  0  0  0  0
 16 44  1  0  0  0  0
 17 20  1  0  0  0  0
 17 45  1  0  0  0  0
 17 46  1  0  0  0  0
 18 21  1  0  0  0  0
 18 47  1  0  0  0  0
 18 48  1  0  0  0  0
 19 50  1  0  0  0  0
 19 51  1  0  0  0  0
 19 52  1  0  0  0  0
 21 22  1  0  0  0  0
 21 53  1  0  0  0  0
 21 54  1  0  0  0  0
 23 24  1  0  0  0  0
 23 26  2  0  0  0  0
 24 27  2  0  0  0  0
 25 55  1  0  0  0  0
 25 56  1  0  0  0  0
 25 57  1  0  0  0  0
 26 29  1  0  0  0  0
 26 59  1  0  0  0  0
 27 30  1  0  0  0  0
 27 60  1  0  0  0  0
 28 31  1  0  0  0  0
 28 61  1  0  0  0  0
 28 62  1  0  0  0  0
 29 30  2  0  0  0  0
 29 63  1  0  0  0  0
 30 64  1  0  0  0  0
 31 32  1  0  0  0  0
 31 33  2  0  0  0  0
 32 34  2  0  0  0  0
 32 65  1  0  0  0  0
 33 66  1  0  0  0  0
 34 35  1  0  0  0  0
 34 67  1  0  0  0  0
 35 68  1  0  0  0  0
M  END
> <PUBCHEM_COMPOUND_CID>
45361005

> <PUBCHEM_CONFORMER_RMSD>
1.4

> <PUBCHEM_CONFORMER_DIVERSEORDER>
4
121
74
12
124
114
62
127
77
5
81
83
122
123
36
96
91
112
106
88
119
19
44
128
15
59
38
40
103
87
14
80
13
60
50
31
90
26
99
8
102
82
47
101
16
120
23
97
98
2
42
7
71
75
49
27
115
76
41
117
35
100
105
92
25
104
89
111
17
85
113
108
29
48
10
52
22
32
56
34
79
53
57
94
64
70
30
54
33
9
63
93
95
58
68
118
73
37
66
65
11
107
3
126
61
69
1
21
51
46
20
109
24
86
39
18
125
110
84
43
116
6
45
67
28
78
72
55

> <PUBCHEM_MMFF94_PARTIAL_CHARGES>
43
1 -0.57
10 0.27
11 0.33
13 0.27
14 0.27
15 0.57
16 0.3
17 0.45
19 0.27
2 -0.57
20 0.01
21 0.06
22 0.57
23 -0.15
24 0.23
25 0.26
26 -0.15
27 -0.15
28 0.44
29 -0.15
3 -0.81
30 -0.15
31 -0.14
32 -0.15
33 0.16
34 -0.15
35 0.16
4 -0.81
49 0.37
5 -0.73
58 0.37
59 0.15
6 0.05
60 0.15
63 0.15
64 0.15
65 0.15
66 0.15
67 0.15
68 0.15
7 -0.57
8 -0.73
9 -0.62

> <PUBCHEM_EFFECTIVE_ROTOR_COUNT>
9.4

> <PUBCHEM_PHARMACOPHORE_FEATURES>
13
1 1 acceptor
1 2 acceptor
1 3 cation
1 4 cation
1 5 donor
1 8 donor
1 9 acceptor
3 6 7 20 cation
5 3 10 11 12 13 rings
5 6 7 20 23 24 rings
6 23 24 26 27 29 30 rings
6 9 31 32 33 34 35 rings
7 4 5 10 11 14 15 16 rings

> <PUBCHEM_HEAVY_ATOM_COUNT>
35

> <PUBCHEM_ATOM_DEF_STEREO_COUNT>
3

> <PUBCHEM_ATOM_UDEF_STEREO_COUNT>
0

> <PUBCHEM_BOND_DEF_STEREO_COUNT>
0

> <PUBCHEM_BOND_UDEF_STEREO_COUNT>
0

> <PUBCHEM_ISOTOPIC_ATOM_COUNT>
0

> <PUBCHEM_COMPONENT_COUNT>
1

> <PUBCHEM_CACTVS_TAUTO_COUNT>
6

> <PUBCHEM_CONFORMER_ID>
02B4276D00000004

> <PUBCHEM_MMFF94_ENERGY>
84.6996

> <PUBCHEM_FEATURE_SELFOVERLAP>
66.118

> <PUBCHEM_SHAPE_FINGERPRINT>
100830 39 18412546496338425761
10391435 84 9222941530939782077
10454371 7 18342741823021467521
10554248 39 14045740469955896968
10580692 12 18412827980157966646
10670039 82 18413103979346540419
10674148 151 18409166620108124562
10815517 723 18187364341689790085
11007060 377 17385718131976399029
11374522 101 18335421261592440813
11434127 23 17988361452110685829
11991303 11 16702013231539339117
12104220 1 18260545649765147517
12128747 34 18342739576705748175
13383665 225 18041860484410084364
13782708 43 10665233644243541748
13885169 127 18413390956049697930
14294032 229 17967811627063419204
14856354 85 18340767165095352031
15021287 119 17240490208232377045
15064981 194 17606701368489576462
15183329 4 18335131008060818138
15461852 350 17846774153062226975
15484559 13 13675674272177168915
15604295 49 17916578895199583888
15876981 60 18267583684361985687
16112460 7 18040714766606148432
18603816 31 12324246126648299593
19304152 47 18041288664953947289
21424621 283 18260550017630960146
21792961 116 17346607348821533868
3711267 37 17313392270793831468
4098825 35 18412545401606620090
4169191 19 18260827094318326006
4197921 191 18410288086822662731
4280585 95 10015860981704456627
445580 37 18413109471855461137
44802255 64 17703792548162600999
4616759 239 17823410672778952489
563151 97 18408600349148704699
5937810 71 18261961847097654748
6086070 43 17632572764736220344
9953998 17 11386359340552870559

> <PUBCHEM_SHAPE_MULTIPOLES>
673.68
22.59
3.88
1.44
29.17
1.85
-0.42
12.3
-0.7
-6.43
0.66
-1.3
-0.03
-1.44

> <PUBCHEM_SHAPE_SELFOVERLAP>
1448.391

> <PUBCHEM_SHAPE_VOLUME>
369.1

> <PUBCHEM_COORDINATE_TYPE>
2
5
10

$$$$
