11882086
  -OEChem-12032416123D

 68 71  0     1  0  0  0  0  0999 V2000
   -2.6201    1.9204   -0.9370 O   0  0  0  0  0  0  0  0  0  0  0  0
   -3.4524   -0.4241    1.7004 O   0  0  0  0  0  0  0  0  0  0  0  0
    2.2056   -0.3798   -0.4228 O   0  0  0  0  0  0  0  0  0  0  0  0
   -2.0691    3.2219    2.7861 O   0  0  0  0  0  0  0  0  0  0  0  0
    6.5086   -1.4288    1.1979 O   0  0  0  0  0  0  0  0  0  0  0  0
   -2.6120   -0.6991   -0.4547 N   0  0  0  0  0  0  0  0  0  0  0  0
    0.3286   -1.5326   -1.1248 N   0  0  0  0  0  0  0  0  0  0  0  0
   -0.8442    2.2206    0.5379 N   0  0  0  0  0  0  0  0  0  0  0  0
    2.1625   -2.7269   -0.4318 N   0  0  0  0  0  0  0  0  0  0  0  0
   -4.2917   -3.1090   -0.0263 N   0  0  0  0  0  0  0  0  0  0  0  0
   -2.6630    5.0892    1.5872 N   0  0  0  0  0  0  0  0  0  0  0  0
   -6.9623   -2.2731    0.1613 N   0  0  0  0  0  0  0  0  0  0  0  0
   -0.4757   -0.3732   -1.4306 C   0  0  2  0  0  0  0  0  0  0  0  0
   -1.3578    0.0158   -0.2443 C   0  0  1  0  0  0  0  0  0  0  0  0
   -1.4850   -0.6837   -2.5379 C   0  0  0  0  0  0  0  0  0  0  0  0
   -2.6685   -1.2872   -1.7926 C   0  0  0  0  0  0  0  0  0  0  0  0
   -1.6958    1.4766   -0.2607 C   0  0  0  0  0  0  0  0  0  0  0  0
   -3.5108   -0.9247    0.5796 C   0  0  0  0  0  0  0  0  0  0  0  0
   -0.9431    3.6557    0.6767 C   0  0  2  0  0  0  0  0  0  0  0  0
    1.6360   -1.4479   -0.6335 C   0  0  0  0  0  0  0  0  0  0  0  0
   -4.6223   -1.8470    0.3125 C   0  0  0  0  0  0  0  0  0  0  0  0
    0.4085    4.3009    1.0031 C   0  0  0  0  0  0  0  0  0  0  0  0
   -1.9438    3.9300    1.7897 C   0  0  0  0  0  0  0  0  0  0  0  0
    1.4521    4.0371   -0.0550 C   0  0  0  0  0  0  0  0  0  0  0  0
   -5.9341   -1.4365    0.4045 C   0  0  0  0  0  0  0  0  0  0  0  0
    3.4463   -3.0707    0.0519 C   0  0  0  0  0  0  0  0  0  0  0  0
    2.2720    2.9124    0.0391 C   0  0  0  0  0  0  0  0  0  0  0  0
    1.5968    4.9177   -1.1272 C   0  0  0  0  0  0  0  0  0  0  0  0
   -5.3200   -3.9457   -0.2694 C   0  0  0  0  0  0  0  0  0  0  0  0
    4.3548   -2.0680    0.3912 C   0  0  0  0  0  0  0  0  0  0  0  0
   -6.6317   -3.5351   -0.1774 C   0  0  0  0  0  0  0  0  0  0  0  0
    3.8043   -4.4119    0.1894 C   0  0  0  0  0  0  0  0  0  0  0  0
    3.2362    2.6683   -0.9387 C   0  0  0  0  0  0  0  0  0  0  0  0
    2.5611    4.6735   -2.1050 C   0  0  0  0  0  0  0  0  0  0  0  0
    3.3808    3.5488   -2.0107 C   0  0  0  0  0  0  0  0  0  0  0  0
    5.6214   -2.4067    0.8677 C   0  0  0  0  0  0  0  0  0  0  0  0
    5.0705   -4.7505    0.6659 C   0  0  0  0  0  0  0  0  0  0  0  0
    5.9792   -3.7480    1.0051 C   0  0  0  0  0  0  0  0  0  0  0  0
    6.0778   -0.0786    1.0332 C   0  0  0  0  0  0  0  0  0  0  0  0
    0.1943    0.4391   -1.7343 H   0  0  0  0  0  0  0  0  0  0  0  0
   -0.9366   -0.2692    0.7270 H   0  0  0  0  0  0  0  0  0  0  0  0
   -1.7987    0.2492   -3.0219 H   0  0  0  0  0  0  0  0  0  0  0  0
   -1.1004   -1.3516   -3.3150 H   0  0  0  0  0  0  0  0  0  0  0  0
   -3.6295   -1.0723   -2.2687 H   0  0  0  0  0  0  0  0  0  0  0  0
   -2.5433   -2.3709   -1.7043 H   0  0  0  0  0  0  0  0  0  0  0  0
   -0.0945   -2.4520   -1.2078 H   0  0  0  0  0  0  0  0  0  0  0  0
   -0.1631    1.7354    1.1147 H   0  0  0  0  0  0  0  0  0  0  0  0
   -1.3338    4.0588   -0.2664 H   0  0  0  0  0  0  0  0  0  0  0  0
    0.7799    3.9376    1.9714 H   0  0  0  0  0  0  0  0  0  0  0  0
    0.2864    5.3845    1.1328 H   0  0  0  0  0  0  0  0  0  0  0  0
    1.5563   -3.5111   -0.6588 H   0  0  0  0  0  0  0  0  0  0  0  0
   -6.2087   -0.4234    0.6743 H   0  0  0  0  0  0  0  0  0  0  0  0
    2.1771    2.2229    0.8735 H   0  0  0  0  0  0  0  0  0  0  0  0
    0.9626    5.7960   -1.2123 H   0  0  0  0  0  0  0  0  0  0  0  0
   -2.5326    5.6764    0.7697 H   0  0  0  0  0  0  0  0  0  0  0  0
   -3.3555    5.3966    2.2619 H   0  0  0  0  0  0  0  0  0  0  0  0
   -5.0549   -4.9597   -0.5421 H   0  0  0  0  0  0  0  0  0  0  0  0
    4.0856   -1.0330    0.2874 H   0  0  0  0  0  0  0  0  0  0  0  0
   -7.4574   -4.2080   -0.3732 H   0  0  0  0  0  0  0  0  0  0  0  0
    3.1058   -5.2029   -0.0715 H   0  0  0  0  0  0  0  0  0  0  0  0
    3.8805    1.7976   -0.8634 H   0  0  0  0  0  0  0  0  0  0  0  0
    2.6736    5.3589   -2.9399 H   0  0  0  0  0  0  0  0  0  0  0  0
    4.1326    3.3594   -2.7712 H   0  0  0  0  0  0  0  0  0  0  0  0
    5.3493   -5.7947    0.7728 H   0  0  0  0  0  0  0  0  0  0  0  0
    6.9643   -4.0180    1.3755 H   0  0  0  0  0  0  0  0  0  0  0  0
    5.8765    0.1557   -0.0177 H   0  0  0  0  0  0  0  0  0  0  0  0
    5.2315    0.1597    1.6866 H   0  0  0  0  0  0  0  0  0  0  0  0
    6.9081    0.5635    1.3459 H   0  0  0  0  0  0  0  0  0  0  0  0
  1 17  2  0  0  0  0
  2 18  2  0  0  0  0
  3 20  2  0  0  0  0
  4 23  2  0  0  0  0
  5 36  1  0  0  0  0
  5 39  1  0  0  0  0
  6 14  1  0  0  0  0
  6 16  1  0  0  0  0
  6 18  1  0  0  0  0
  7 13  1  0  0  0  0
  7 20  1  0  0  0  0
  7 46  1  0  0  0  0
  8 17  1  0  0  0  0
  8 19  1  0  0  0  0
  8 47  1  0  0  0  0
  9 20  1  0  0  0  0
  9 26  1  0  0  0  0
  9 51  1  0  0  0  0
 10 21  2  0  0  0  0
 10 29  1  0  0  0  0
 11 23  1  0  0  0  0
 11 55  1  0  0  0  0
 11 56  1  0  0  0  0
 12 25  2  0  0  0  0
 12 31  1  0  0  0  0
 13 14  1  0  0  0  0
 13 15  1  0  0  0  0
 13 40  1  0  0  0  0
 14 17  1  0  0  0  0
 14 41  1  0  0  0  0
 15 16  1  0  0  0  0
 15 42  1  0  0  0  0
 15 43  1  0  0  0  0
 16 44  1  0  0  0  0
 16 45  1  0  0  0  0
 18 21  1  0  0  0  0
 19 22  1  0  0  0  0
 19 23  1  0  0  0  0
 19 48  1  0  0  0  0
 21 25  1  0  0  0  0
 22 24  1  0  0  0  0
 22 49  1  0  0  0  0
 22 50  1  0  0  0  0
 24 27  2  0  0  0  0
 24 28  1  0  0  0  0
 25 52  1  0  0  0  0
 26 30  2  0  0  0  0
 26 32  1  0  0  0  0
 27 33  1  0  0  0  0
 27 53  1  0  0  0  0
 28 34  2  0  0  0  0
 28 54  1  0  0  0  0
 29 31  2  0  0  0  0
 29 57  1  0  0  0  0
 30 36  1  0  0  0  0
 30 58  1  0  0  0  0
 31 59  1  0  0  0  0
 32 37  2  0  0  0  0
 32 60  1  0  0  0  0
 33 35  2  0  0  0  0
 33 61  1  0  0  0  0
 34 35  1  0  0  0  0
 34 62  1  0  0  0  0
 35 63  1  0  0  0  0
 36 38  2  0  0  0  0
 37 38  1  0  0  0  0
 37 64  1  0  0  0  0
 38 65  1  0  0  0  0
 39 66  1  0  0  0  0
 39 67  1  0  0  0  0
 39 68  1  0  0  0  0
M  END
> <PUBCHEM_COMPOUND_CID>
11882086

> <PUBCHEM_CONFORMER_RMSD>
1.2

> <PUBCHEM_CONFORMER_DIVERSEORDER>
1
54
70
10
61
69
41
68
42
27
6
71
29
52
19
26
74
46
56
65
20
44
38
58
7
49
59
43
28
72
11
25
75
33
67
21
50
23
73
40
14
24
57
76
64
5
32
16
30
15
48
53
13
31
9
39
35
18
62
34
12
36
55
17
22
2
37
3
63
66
8
77
4
45
60
51
47

> <PUBCHEM_MMFF94_PARTIAL_CHARGES>
55
1 -0.57
10 -0.62
11 -0.8
12 -0.62
13 0.3
14 0.36
16 0.3
17 0.57
18 0.54
19 0.36
2 -0.57
20 0.69
21 0.4
22 0.14
23 0.57
24 -0.14
25 0.16
26 0.12
27 -0.15
28 -0.15
29 0.16
3 -0.57
30 -0.15
31 0.16
32 -0.15
33 -0.15
34 -0.15
35 -0.15
36 0.08
37 -0.15
38 -0.15
39 0.28
4 -0.57
46 0.37
47 0.37
5 -0.36
51 0.37
52 0.15
53 0.15
54 0.15
55 0.37
56 0.37
57 0.15
58 0.15
59 0.15
6 -0.66
60 0.15
61 0.15
62 0.15
63 0.15
64 0.15
65 0.15
7 -0.73
8 -0.73
9 -0.55

> <PUBCHEM_EFFECTIVE_ROTOR_COUNT>
14

> <PUBCHEM_PHARMACOPHORE_FEATURES>
15
1 1 acceptor
1 10 acceptor
1 11 donor
1 12 acceptor
1 2 acceptor
1 3 acceptor
1 4 acceptor
1 5 acceptor
1 7 donor
1 8 donor
1 9 donor
5 6 13 14 15 16 rings
6 10 12 21 25 29 31 rings
6 24 27 28 33 34 35 rings
6 26 30 32 36 37 38 rings

> <PUBCHEM_HEAVY_ATOM_COUNT>
39

> <PUBCHEM_ATOM_DEF_STEREO_COUNT>
3

> <PUBCHEM_ATOM_UDEF_STEREO_COUNT>
0

> <PUBCHEM_BOND_DEF_STEREO_COUNT>
0

> <PUBCHEM_BOND_UDEF_STEREO_COUNT>
0

> <PUBCHEM_ISOTOPIC_ATOM_COUNT>
0

> <PUBCHEM_COMPONENT_COUNT>
1

> <PUBCHEM_CACTVS_TAUTO_COUNT>
12

> <PUBCHEM_CONFORMER_ID>
00B54E6600000001

> <PUBCHEM_MMFF94_ENERGY>
121.9868

> <PUBCHEM_FEATURE_SELFOVERLAP>
76.184

> <PUBCHEM_SHAPE_FINGERPRINT>
10074138 170 17908981011530335179
11014199 57 18337390414482838302
11017883 126 17606961978389355900
11445158 3 18340196483610110911
11578080 2 18042112306726660213
12422481 6 17762910862143440032
12522641 126 18116712026923742886
14068700 675 18335702723853008683
14114211 68 17826527852942909484
14394314 77 18337391531391496955
14395042 24 18340208484313042841
15264996 154 18336274530614336334
15347590 135 18263064614099651466
15351339 4 17984438591795520737
16114785 44 17327441533519168612
18393751 57 17405156118908712609
19319366 153 17978794837238192980
21133410 52 18410858806989464662
21344244 78 18341040896045145546
25019877 29 17055540072965697373
3418910 222 18408604726611409550
3504750 166 18049999991705522826
3886686 26 18052821342978742024

> <PUBCHEM_SHAPE_MULTIPOLES>
738.39
14.3
9.19
1.83
4.41
6.2
0.17
-23.23
-3.88
-6.17
-1.29
0.16
1.98
-4.75

> <PUBCHEM_SHAPE_SELFOVERLAP>
1584.173

> <PUBCHEM_SHAPE_VOLUME>
403.4

> <PUBCHEM_COORDINATE_TYPE>
2
5
10

$$$$
