56775230
  -OEChem-12032416273D

 46 49  0     1  0  0  0  0  0999 V2000
    2.2835    2.3436   -0.9124 O   0  0  0  0  0  0  0  0  0  0  0  0
    3.9973   -0.4015   -2.3918 O   0  0  0  0  0  0  0  0  0  0  0  0
   -1.9399    2.9307    1.2957 O   0  0  0  0  0  0  0  0  0  0  0  0
   -5.2741   -2.0861   -0.4924 O   0  0  0  0  0  0  0  0  0  0  0  0
    2.7172   -0.3632   -0.4492 N   0  0  0  0  0  0  0  0  0  0  0  0
   -0.1721    1.5789    0.6309 N   0  0  0  0  0  0  0  0  0  0  0  0
    3.8803   -2.2709    0.5091 C   0  0  0  0  0  0  0  0  0  0  0  0
    1.8738    0.4072    0.4561 C   0  0  1  0  0  0  0  0  0  0  0  0
    3.7607   -2.3632    2.0021 C   0  0  0  0  0  0  0  0  0  0  0  0
    3.8316   -3.6141    1.1761 C   0  0  0  0  0  0  0  0  0  0  0  0
    2.7076   -1.8105   -0.2882 C   0  0  0  0  0  0  0  0  0  0  0  0
    2.1566    1.9073    0.4386 C   0  0  2  0  0  0  0  0  0  0  0  0
    0.3884    0.3423    0.0895 C   0  0  0  0  0  0  0  0  0  0  0  0
    0.8837    2.5063    1.0227 C   0  0  0  0  0  0  0  0  0  0  0  0
    3.3844    0.2206   -1.5228 C   0  0  0  0  0  0  0  0  0  0  0  0
    3.3974    1.7393   -1.5297 C   0  0  0  0  0  0  0  0  0  0  0  0
   -1.5110    1.8742    0.8363 C   0  0  0  0  0  0  0  0  0  0  0  0
   -2.4967    0.8384    0.4887 C   0  0  0  0  0  0  0  0  0  0  0  0
   -2.8903   -0.0984    1.4443 C   0  0  0  0  0  0  0  0  0  0  0  0
   -3.0366    0.7925   -0.7966 C   0  0  0  0  0  0  0  0  0  0  0  0
   -3.8236   -1.0811    1.1147 C   0  0  0  0  0  0  0  0  0  0  0  0
   -3.9698   -0.1902   -1.1264 C   0  0  0  0  0  0  0  0  0  0  0  0
   -4.3633   -1.1271   -0.1708 C   0  0  0  0  0  0  0  0  0  0  0  0
   -5.7854   -2.0751   -1.8244 C   0  0  0  0  0  0  0  0  0  0  0  0
    4.8301   -1.9634    0.0884 H   0  0  0  0  0  0  0  0  0  0  0  0
    2.0175    0.0340    1.4781 H   0  0  0  0  0  0  0  0  0  0  0  0
    2.8130   -2.1277    2.4704 H   0  0  0  0  0  0  0  0  0  0  0  0
    4.6288   -2.0986    2.5934 H   0  0  0  0  0  0  0  0  0  0  0  0
    4.7471   -4.1918    1.2145 H   0  0  0  0  0  0  0  0  0  0  0  0
    2.9311   -4.2087    1.0836 H   0  0  0  0  0  0  0  0  0  0  0  0
    1.7554   -2.1235    0.1553 H   0  0  0  0  0  0  0  0  0  0  0  0
    2.7628   -2.2737   -1.2803 H   0  0  0  0  0  0  0  0  0  0  0  0
    3.0479    2.1990    1.0049 H   0  0  0  0  0  0  0  0  0  0  0  0
   -0.1061   -0.5345    0.5169 H   0  0  0  0  0  0  0  0  0  0  0  0
    0.2216    0.3439   -0.9939 H   0  0  0  0  0  0  0  0  0  0  0  0
    0.9111    2.5223    2.1177 H   0  0  0  0  0  0  0  0  0  0  0  0
    0.6534    3.5085    0.6482 H   0  0  0  0  0  0  0  0  0  0  0  0
    4.3216    2.0829   -1.0508 H   0  0  0  0  0  0  0  0  0  0  0  0
    3.4153    2.0728   -2.5724 H   0  0  0  0  0  0  0  0  0  0  0  0
   -2.4752   -0.0719    2.4485 H   0  0  0  0  0  0  0  0  0  0  0  0
   -2.7354    1.5179   -1.5482 H   0  0  0  0  0  0  0  0  0  0  0  0
   -4.1261   -1.8083    1.8632 H   0  0  0  0  0  0  0  0  0  0  0  0
   -4.3485   -0.1683   -2.1425 H   0  0  0  0  0  0  0  0  0  0  0  0
   -6.4957   -2.9044   -1.9048 H   0  0  0  0  0  0  0  0  0  0  0  0
   -4.9951   -2.2586   -2.5603 H   0  0  0  0  0  0  0  0  0  0  0  0
   -6.3425   -1.1556   -2.0340 H   0  0  0  0  0  0  0  0  0  0  0  0
  1 12  1  0  0  0  0
  1 16  1  0  0  0  0
  2 15  2  0  0  0  0
  3 17  2  0  0  0  0
  4 23  1  0  0  0  0
  4 24  1  0  0  0  0
  5  8  1  0  0  0  0
  5 11  1  0  0  0  0
  5 15  1  0  0  0  0
  6 13  1  0  0  0  0
  6 14  1  0  0  0  0
  6 17  1  0  0  0  0
  7  9  1  0  0  0  0
  7 10  1  0  0  0  0
  7 11  1  0  0  0  0
  7 25  1  0  0  0  0
  8 12  1  0  0  0  0
  8 13  1  0  0  0  0
  8 26  1  0  0  0  0
  9 10  1  0  0  0  0
  9 27  1  0  0  0  0
  9 28  1  0  0  0  0
 10 29  1  0  0  0  0
 10 30  1  0  0  0  0
 11 31  1  0  0  0  0
 11 32  1  0  0  0  0
 12 14  1  0  0  0  0
 12 33  1  0  0  0  0
 13 34  1  0  0  0  0
 13 35  1  0  0  0  0
 14 36  1  0  0  0  0
 14 37  1  0  0  0  0
 15 16  1  0  0  0  0
 16 38  1  0  0  0  0
 16 39  1  0  0  0  0
 17 18  1  0  0  0  0
 18 19  2  0  0  0  0
 18 20  1  0  0  0  0
 19 21  1  0  0  0  0
 19 40  1  0  0  0  0
 20 22  2  0  0  0  0
 20 41  1  0  0  0  0
 21 23  2  0  0  0  0
 21 42  1  0  0  0  0
 22 23  1  0  0  0  0
 22 43  1  0  0  0  0
 24 44  1  0  0  0  0
 24 45  1  0  0  0  0
 24 46  1  0  0  0  0
M  END
> <PUBCHEM_COMPOUND_CID>
56775230

> <PUBCHEM_CONFORMER_RMSD>
0.8

> <PUBCHEM_CONFORMER_DIVERSEORDER>
1
37
39
5
28
35
24
17
8
18
4
25
30
11
31
34
38
36
3
33
9
16
20
10
23
19
32
7
14
12
15
26
22
13
21
27
29
2
6

> <PUBCHEM_MMFF94_PARTIAL_CHARGES>
33
1 -0.56
10 -0.2
11 0.4
12 0.28
13 0.3
14 0.3
15 0.57
16 0.34
17 0.54
18 0.09
19 -0.15
2 -0.57
20 -0.15
21 -0.15
22 -0.15
23 0.08
24 0.28
25 0.1
27 0.1
28 0.1
29 0.1
3 -0.57
30 0.1
4 -0.36
40 0.15
41 0.15
42 0.15
43 0.15
5 -0.66
6 -0.66
7 -0.19
8 0.3
9 -0.2

> <PUBCHEM_EFFECTIVE_ROTOR_COUNT>
6.8

> <PUBCHEM_PHARMACOPHORE_FEATURES>
7
1 1 acceptor
1 2 acceptor
1 3 acceptor
1 4 acceptor
5 6 8 12 13 14 rings
6 1 5 8 12 15 16 rings
6 18 19 20 21 22 23 rings

> <PUBCHEM_HEAVY_ATOM_COUNT>
24

> <PUBCHEM_ATOM_DEF_STEREO_COUNT>
2

> <PUBCHEM_ATOM_UDEF_STEREO_COUNT>
0

> <PUBCHEM_BOND_DEF_STEREO_COUNT>
0

> <PUBCHEM_BOND_UDEF_STEREO_COUNT>
0

> <PUBCHEM_ISOTOPIC_ATOM_COUNT>
0

> <PUBCHEM_COMPONENT_COUNT>
1

> <PUBCHEM_CACTVS_TAUTO_COUNT>
2

> <PUBCHEM_CONFORMER_ID>
0362523E00000001

> <PUBCHEM_MMFF94_ENERGY>
80.4372

> <PUBCHEM_FEATURE_SELFOVERLAP>
35.724

> <PUBCHEM_SHAPE_FINGERPRINT>
10042902 136 18053387596316649190
10062212 137 18193565462647693216
10498660 4 14201400499441132893
10622 236 18264198124039701763
10928967 22 18271250512190499711
11069576 57 18407757032446677358
11135609 201 9006182782111637966
11578080 2 18119512264318823500
11991303 11 17469041524649966620
12549972 3 15265106367686332728
12553582 1 18201449047013021315
12644460 14 11815894548801512582
13257819 101 14853612148949552054
13911987 19 17827375576165786036
14576447 43 18411143549766108100
14848178 5 18265037064227745666
15003188 105 18270110365396770223
15342168 16 8214149577391456155
15342816 4 18342463629657883292
15842332 3 18194140546079326648
17134984 74 18052806233806853007
19026451 147 18339348743023234739
19032999 76 17827617189930428210
19319366 153 18193557998274146742
20626108 58 18336820875970496386
20775530 9 18335148544053357595
21054139 6 18337401508626022300
21452121 199 18337387150276357048
21503847 285 10303815389053917704
235170 7 17386009537038785181
23559900 14 18188197737085649505
23596394 208 18040720289596402950
23622692 118 18339637854356202402
25222932 49 17912074255525041023
3004659 81 18409163299122757247
312423 11 18337118881912280457
312425 83 17022903419551970159
345986 75 17917999408102239019
34797466 226 16153712072279022063
4017518 198 16465010914876722398
404807 78 17173501551677473779
44062 13 18263637369256783997
46194498 28 16010466605751933535
463206 1 18339070592873587043
59025328 239 17386559134182028462
59682541 52 18261936532412348831
7471813 234 18336541617134003202
7808743 9 8430013400310329979
7970288 3 17846230929071046990
88748 71 18262241014916895211
960060 61 18260264183404543855

> <PUBCHEM_SHAPE_MULTIPOLES>
460.47
11.13
3.6
1.83
9.32
0.97
-0.49
9.73
-3.69
-2.73
1.17
-0.61
0.23
-3.08

> <PUBCHEM_SHAPE_SELFOVERLAP>
985.182

> <PUBCHEM_SHAPE_VOLUME>
254.9

> <PUBCHEM_COORDINATE_TYPE>
2
5
10

$$$$
