40776831
  -OEChem-12032416173D

 67 71  0     1  0  0  0  0  0999 V2000
   -5.9609   -2.1022   -0.9051 O   0  0  0  0  0  0  0  0  0  0  0  0
    5.3442   -2.8885   -0.3412 O   0  0  0  0  0  0  0  0  0  0  0  0
    7.5775   -1.3337    0.2236 O   0  0  0  0  0  0  0  0  0  0  0  0
   -2.2977    0.0911   -2.5572 N   0  0  2  0  0  0  0  0  0  0  0  0
   -4.2058   -1.2927    0.3711 N   0  0  0  0  0  0  0  0  0  0  0  0
   -0.0230    1.9855    0.9153 N   0  0  0  0  0  0  0  0  0  0  0  0
    2.1170    1.3451    1.8197 N   0  0  0  0  0  0  0  0  0  0  0  0
   -1.9955    2.2596   -1.1467 C   0  0  2  0  0  0  0  0  0  0  0  0
   -0.6187    1.5952   -1.4245 C   0  0  2  0  0  0  0  0  0  0  0  0
   -3.2240    0.0743   -1.3943 C   0  0  2  0  0  0  0  0  0  0  0  0
   -2.9170    1.2457   -0.4365 C   0  0  0  0  0  0  0  0  0  0  0  0
   -2.6290    2.5628   -2.5215 C   0  0  0  0  0  0  0  0  0  0  0  0
   -0.8951    0.2159   -2.0881 C   0  0  0  0  0  0  0  0  0  0  0  0
   -2.6194    1.2839   -3.3769 C   0  0  0  0  0  0  0  0  0  0  0  0
   -3.2223   -1.2722   -0.6673 C   0  0  0  0  0  0  0  0  0  0  0  0
    0.3755    1.4949   -0.2766 C   0  0  0  0  0  0  0  0  0  0  0  0
   -6.3912   -1.6305    1.4526 C   0  0  0  0  0  0  0  0  0  0  0  0
    1.6121    0.9226   -0.4954 C   0  0  0  0  0  0  0  0  0  0  0  0
   -5.5237   -1.7106    0.1820 C   0  0  0  0  0  0  0  0  0  0  0  0
   -6.7338   -0.2252    1.9897 C   0  0  0  0  0  0  0  0  0  0  0  0
   -7.9091   -1.8555    1.2922 C   0  0  0  0  0  0  0  0  0  0  0  0
   -8.1050   -0.8008    2.4012 C   0  0  0  0  0  0  0  0  0  0  0  0
    2.4499    0.8742    0.6000 C   0  0  0  0  0  0  0  0  0  0  0  0
    0.8840    1.8799    1.9052 C   0  0  0  0  0  0  0  0  0  0  0  0
    3.7714    0.3016    0.5029 C   0  0  0  0  0  0  0  0  0  0  0  0
    0.4804    2.4134    3.2380 C   0  0  0  0  0  0  0  0  0  0  0  0
    3.9275   -1.0323    0.1258 C   0  0  0  0  0  0  0  0  0  0  0  0
    4.8923    1.0822    0.7854 C   0  0  0  0  0  0  0  0  0  0  0  0
    5.2044   -1.5855    0.0308 C   0  0  0  0  0  0  0  0  0  0  0  0
    6.1692    0.5289    0.6906 C   0  0  0  0  0  0  0  0  0  0  0  0
    6.3253   -0.8049    0.3132 C   0  0  0  0  0  0  0  0  0  0  0  0
    5.4709   -3.1538   -1.7369 C   0  0  0  0  0  0  0  0  0  0  0  0
    8.6697   -0.4686    0.5290 C   0  0  0  0  0  0  0  0  0  0  0  0
   -1.8976    3.1790   -0.5600 H   0  0  0  0  0  0  0  0  0  0  0  0
   -0.1140    2.2304   -2.1691 H   0  0  0  0  0  0  0  0  0  0  0  0
   -4.2447    0.2134   -1.7811 H   0  0  0  0  0  0  0  0  0  0  0  0
   -2.4443    0.8994    0.4893 H   0  0  0  0  0  0  0  0  0  0  0  0
   -3.8550    1.7382   -0.1513 H   0  0  0  0  0  0  0  0  0  0  0  0
   -2.0724    3.3567   -3.0328 H   0  0  0  0  0  0  0  0  0  0  0  0
   -3.6569    2.9212   -2.3874 H   0  0  0  0  0  0  0  0  0  0  0  0
   -0.2228    0.0889   -2.9474 H   0  0  0  0  0  0  0  0  0  0  0  0
   -0.6522   -0.6160   -1.4169 H   0  0  0  0  0  0  0  0  0  0  0  0
   -3.5943    1.1531   -3.8626 H   0  0  0  0  0  0  0  0  0  0  0  0
   -1.8942    1.3790   -4.1952 H   0  0  0  0  0  0  0  0  0  0  0  0
   -2.2589   -1.4805   -0.1915 H   0  0  0  0  0  0  0  0  0  0  0  0
   -3.4299   -2.0850   -1.3729 H   0  0  0  0  0  0  0  0  0  0  0  0
   -3.9261   -0.9802    1.2965 H   0  0  0  0  0  0  0  0  0  0  0  0
   -5.9770   -2.2773    2.2417 H   0  0  0  0  0  0  0  0  0  0  0  0
    1.9069    0.5475   -1.4684 H   0  0  0  0  0  0  0  0  0  0  0  0
   -6.7929    0.5528    1.2194 H   0  0  0  0  0  0  0  0  0  0  0  0
   -6.1103    0.1350    2.8121 H   0  0  0  0  0  0  0  0  0  0  0  0
   -8.2690   -2.8596    1.5316 H   0  0  0  0  0  0  0  0  0  0  0  0
   -8.3208   -1.5514    0.3228 H   0  0  0  0  0  0  0  0  0  0  0  0
   -8.1224   -1.2211    3.4132 H   0  0  0  0  0  0  0  0  0  0  0  0
   -8.9594   -0.1313    2.2765 H   0  0  0  0  0  0  0  0  0  0  0  0
    0.8163    3.4497    3.3380 H   0  0  0  0  0  0  0  0  0  0  0  0
   -0.6073    2.3844    3.3567 H   0  0  0  0  0  0  0  0  0  0  0  0
    0.9254    1.8203    4.0431 H   0  0  0  0  0  0  0  0  0  0  0  0
    3.0614   -1.6541   -0.0921 H   0  0  0  0  0  0  0  0  0  0  0  0
    4.7898    2.1249    1.0773 H   0  0  0  0  0  0  0  0  0  0  0  0
    6.9933    1.1943    0.9237 H   0  0  0  0  0  0  0  0  0  0  0  0
    5.5815   -4.2332   -1.8718 H   0  0  0  0  0  0  0  0  0  0  0  0
    6.3571   -2.6573   -2.1448 H   0  0  0  0  0  0  0  0  0  0  0  0
    4.5751   -2.8238   -2.2726 H   0  0  0  0  0  0  0  0  0  0  0  0
    9.5876   -1.0531    0.4067 H   0  0  0  0  0  0  0  0  0  0  0  0
    8.6415   -0.1357    1.5722 H   0  0  0  0  0  0  0  0  0  0  0  0
    8.7301    0.3688   -0.1747 H   0  0  0  0  0  0  0  0  0  0  0  0
  1 19  2  0  0  0  0
  2 29  1  0  0  0  0
  2 32  1  0  0  0  0
  3 31  1  0  0  0  0
  3 33  1  0  0  0  0
  4 10  1  0  0  0  0
  4 13  1  0  0  0  0
  4 14  1  0  0  0  0
  5 15  1  0  0  0  0
  5 19  1  0  0  0  0
  5 47  1  0  0  0  0
  6 16  2  0  0  0  0
  6 24  1  0  0  0  0
  7 23  1  0  0  0  0
  7 24  2  0  0  0  0
  8  9  1  0  0  0  0
  8 11  1  0  0  0  0
  8 12  1  0  0  0  0
  8 34  1  0  0  0  0
  9 13  1  0  0  0  0
  9 16  1  0  0  0  0
  9 35  1  0  0  0  0
 10 11  1  0  0  0  0
 10 15  1  0  0  0  0
 10 36  1  0  0  0  0
 11 37  1  0  0  0  0
 11 38  1  0  0  0  0
 12 14  1  0  0  0  0
 12 39  1  0  0  0  0
 12 40  1  0  0  0  0
 13 41  1  0  0  0  0
 13 42  1  0  0  0  0
 14 43  1  0  0  0  0
 14 44  1  0  0  0  0
 15 45  1  0  0  0  0
 15 46  1  0  0  0  0
 16 18  1  0  0  0  0
 17 19  1  0  0  0  0
 17 20  1  0  0  0  0
 17 21  1  0  0  0  0
 17 48  1  0  0  0  0
 18 23  2  0  0  0  0
 18 49  1  0  0  0  0
 20 22  1  0  0  0  0
 20 50  1  0  0  0  0
 20 51  1  0  0  0  0
 21 22  1  0  0  0  0
 21 52  1  0  0  0  0
 21 53  1  0  0  0  0
 22 54  1  0  0  0  0
 22 55  1  0  0  0  0
 23 25  1  0  0  0  0
 24 26  1  0  0  0  0
 25 27  2  0  0  0  0
 25 28  1  0  0  0  0
 26 56  1  0  0  0  0
 26 57  1  0  0  0  0
 26 58  1  0  0  0  0
 27 29  1  0  0  0  0
 27 59  1  0  0  0  0
 28 30  2  0  0  0  0
 28 60  1  0  0  0  0
 29 31  2  0  0  0  0
 30 31  1  0  0  0  0
 30 61  1  0  0  0  0
 32 62  1  0  0  0  0
 32 63  1  0  0  0  0
 32 64  1  0  0  0  0
 33 65  1  0  0  0  0
 33 66  1  0  0  0  0
 33 67  1  0  0  0  0
M  END
> <PUBCHEM_COMPOUND_CID>
40776831

> <PUBCHEM_CONFORMER_RMSD>
1

> <PUBCHEM_CONFORMER_DIVERSEORDER>
1
50
25
7
15
58
80
94
60
57
91
52
69
4
35
75
13
40
46
11
29
64
100
28
70
82
63
84
24
51
68
44
27
85
105
102
38
47
26
42
76
72
14
53
20
49
74
90
56
55
37
17
79
10
78
33
54
32
67
96
87
99
34
31
65
45
97
6
30
98
43
8
22
81
66
23
93
86
59
18
62
103
88
19
12
71
104
41
9
21
95
89
101
83
73
77
5
36
48
3
16
39
92
61
2

> <PUBCHEM_MMFF94_PARTIAL_CHARGES>
31
1 -0.57
10 0.27
13 0.27
14 0.27
15 0.3
16 0.17
17 0.05
18 -0.15
19 0.58
2 -0.36
23 0.31
24 0.48
26 0.14
27 -0.15
28 -0.15
29 0.08
3 -0.36
30 -0.15
31 0.08
32 0.28
33 0.28
4 -0.81
47 0.37
49 0.15
5 -0.73
59 0.15
6 -0.62
60 0.15
61 0.15
7 -0.62
9 0.14

> <PUBCHEM_EFFECTIVE_ROTOR_COUNT>
10

> <PUBCHEM_PHARMACOPHORE_FEATURES>
11
1 1 acceptor
1 2 acceptor
1 3 acceptor
1 4 cation
1 5 donor
1 6 acceptor
3 6 7 24 cation
4 17 20 21 22 rings
6 25 27 28 29 30 31 rings
6 6 7 16 18 23 24 rings
8 4 8 9 10 11 12 13 14 rings

> <PUBCHEM_HEAVY_ATOM_COUNT>
33

> <PUBCHEM_ATOM_DEF_STEREO_COUNT>
3

> <PUBCHEM_ATOM_UDEF_STEREO_COUNT>
0

> <PUBCHEM_BOND_DEF_STEREO_COUNT>
0

> <PUBCHEM_BOND_UDEF_STEREO_COUNT>
0

> <PUBCHEM_ISOTOPIC_ATOM_COUNT>
0

> <PUBCHEM_COMPONENT_COUNT>
1

> <PUBCHEM_CACTVS_TAUTO_COUNT>
2

> <PUBCHEM_CONFORMER_ID>
026E347F00000001

> <PUBCHEM_MMFF94_ENERGY>
111.5439

> <PUBCHEM_FEATURE_SELFOVERLAP>
55.827

> <PUBCHEM_SHAPE_FINGERPRINT>
10190206 1 15647055949577934648
10764073 3 18060147522847868013
10939801 23 16845295002781597416
11135609 12 18407759235495335556
11374522 101 13254503302457986882
11374522 165 15194462806364465483
11478447 183 9943517459901055113
12107183 9 17275107262612621187
12539745 222 18409733937437157225
12539747 363 18412266159343796377
13103583 49 16773506771917593556
13631057 29 16515397469659370017
13673619 4 18260828219758123261
13690498 29 17313094259633374325
13782708 43 18334849511329689627
13941219 33 17917710188698262335
14040221 275 18196393433242535553
14068700 675 16298107605438347831
14556957 393 14490475249084090031
14767858 380 14490189418872974673
14950920 106 17273687866210688367
15461852 350 17240482469613795582
15669420 48 17531258296323659118
15721738 202 18041001777875052548
19246450 95 16988850445566545867
20105231 36 17704078378942927422
21403212 168 16343709820446860937
21716022 299 16227193559660113909
22149856 69 18342741823591037344
23522609 53 17058649796734014800
25269216 80 17603877675973007422
2838139 119 9006791890357968791
3552219 110 17988649614652170104
393628 179 12679467448156927611
4330586 98 13118581700564270579
437815 12 17749113335602164873
44880168 125 18187363298772762211
46194498 28 18040710416047234764
5372103 7 9439413410782798179
54728670 133 16987721190684325168
57366028 249 18200315563534734672
58083652 198 17488723662848881432
6009941 240 18340484452798794729
6058803 2 14637364440393206673
6371009 1 13118277050155319414
999808 66 18410571781991704911

> <PUBCHEM_SHAPE_MULTIPOLES>
641.59
22.23
2.99
2.83
1.72
0.43
0.85
-22.98
4.06
-2.64
-1.46
-1.14
0.92
4.51

> <PUBCHEM_SHAPE_SELFOVERLAP>
1377.321

> <PUBCHEM_SHAPE_VOLUME>
351.2

> <PUBCHEM_COORDINATE_TYPE>
2
5
10

$$$$
