40779690
  -OEChem-12032416163D

 72 76  0     1  0  0  0  0  0999 V2000
   -8.2919   -3.6859   -0.7573 F   0  0  0  0  0  0  0  0  0  0  0  0
   -8.6750   -3.0132    1.2745 F   0  0  0  0  0  0  0  0  0  0  0  0
   -6.9495   -4.2647    0.8448 F   0  0  0  0  0  0  0  0  0  0  0  0
   -5.0413    2.6376   -0.3603 O   0  0  0  0  0  0  0  0  0  0  0  0
   -0.7035    3.9931   -0.0922 N   0  0  2  0  0  0  0  0  0  0  0  0
    2.7710    0.6271   -0.4766 N   0  0  0  0  0  0  0  0  0  0  0  0
   -3.2302    1.3183   -0.9538 N   0  0  0  0  0  0  0  0  0  0  0  0
    0.6856    2.1006    1.0284 C   0  0  2  0  0  0  0  0  0  0  0  0
    1.4233    2.6704   -0.2048 C   0  0  2  0  0  0  0  0  0  0  0  0
   -0.7031    1.5907    0.6011 C   0  0  0  0  0  0  0  0  0  0  0  0
   -1.5431    2.7763    0.0761 C   0  0  2  0  0  0  0  0  0  0  0  0
    0.4938    3.6830   -0.9106 C   0  0  0  0  0  0  0  0  0  0  0  0
    0.4614    3.2765    1.9983 C   0  0  0  0  0  0  0  0  0  0  0  0
   -0.2459    4.4216    1.2520 C   0  0  0  0  0  0  0  0  0  0  0  0
    1.9125    1.5898   -1.1664 C   0  0  0  0  0  0  0  0  0  0  0  0
   -2.3050    2.4119   -1.2002 C   0  0  0  0  0  0  0  0  0  0  0  0
    4.1357    1.1554   -0.3476 C   0  0  0  0  0  0  0  0  0  0  0  0
    2.7660   -0.6626   -1.1801 C   0  0  0  0  0  0  0  0  0  0  0  0
    5.0525   -1.1992   -0.2428 C   0  0  0  0  0  0  0  0  0  0  0  0
    5.0339    0.1827    0.4194 C   0  0  0  0  0  0  0  0  0  0  0  0
    3.6170   -1.6975   -0.4412 C   0  0  0  0  0  0  0  0  0  0  0  0
    5.8688   -2.1911    0.5811 C   0  0  0  0  0  0  0  0  0  0  0  0
   -4.5334    1.5355   -0.5502 C   0  0  0  0  0  0  0  0  0  0  0  0
    7.3463   -2.0081    0.3661 C   0  0  0  0  0  0  0  0  0  0  0  0
   -5.3435    0.3127   -0.3146 C   0  0  0  0  0  0  0  0  0  0  0  0
    7.9958   -2.7117   -0.6482 C   0  0  0  0  0  0  0  0  0  0  0  0
    8.0669   -1.1348    1.1808 C   0  0  0  0  0  0  0  0  0  0  0  0
   -6.4068    0.3437    0.5876 C   0  0  0  0  0  0  0  0  0  0  0  0
   -5.0402   -0.8665   -0.9951 C   0  0  0  0  0  0  0  0  0  0  0  0
    9.3659   -2.5421   -0.8478 C   0  0  0  0  0  0  0  0  0  0  0  0
    9.4369   -0.9652    0.9813 C   0  0  0  0  0  0  0  0  0  0  0  0
   10.0864   -1.6689   -0.0329 C   0  0  0  0  0  0  0  0  0  0  0  0
   -7.1669   -0.8046    0.8095 C   0  0  0  0  0  0  0  0  0  0  0  0
   -5.8002   -2.0149   -0.7732 C   0  0  0  0  0  0  0  0  0  0  0  0
   -6.8636   -1.9839    0.1290 C   0  0  0  0  0  0  0  0  0  0  0  0
   -7.6762   -3.2119    0.3659 C   0  0  0  0  0  0  0  0  0  0  0  0
    1.2516    1.3108    1.5320 H   0  0  0  0  0  0  0  0  0  0  0  0
    2.2927    3.2356    0.1572 H   0  0  0  0  0  0  0  0  0  0  0  0
   -0.6000    0.7941   -0.1428 H   0  0  0  0  0  0  0  0  0  0  0  0
   -1.2098    1.1451    1.4667 H   0  0  0  0  0  0  0  0  0  0  0  0
   -2.3062    3.0076    0.8340 H   0  0  0  0  0  0  0  0  0  0  0  0
    1.0481    4.6124   -1.0969 H   0  0  0  0  0  0  0  0  0  0  0  0
    0.1935    3.3362   -1.9057 H   0  0  0  0  0  0  0  0  0  0  0  0
    1.4189    3.6286    2.3995 H   0  0  0  0  0  0  0  0  0  0  0  0
   -0.1472    2.9488    2.8499 H   0  0  0  0  0  0  0  0  0  0  0  0
   -1.0994    4.7796    1.8410 H   0  0  0  0  0  0  0  0  0  0  0  0
    0.4265    5.2837    1.1577 H   0  0  0  0  0  0  0  0  0  0  0  0
    2.4290    2.0434   -2.0231 H   0  0  0  0  0  0  0  0  0  0  0  0
    1.0379    1.0811   -1.5910 H   0  0  0  0  0  0  0  0  0  0  0  0
   -1.6350    2.0768   -1.9984 H   0  0  0  0  0  0  0  0  0  0  0  0
   -2.8689    3.2757   -1.5706 H   0  0  0  0  0  0  0  0  0  0  0  0
    4.1373    2.1022    0.2028 H   0  0  0  0  0  0  0  0  0  0  0  0
    4.5743    1.3539   -1.3347 H   0  0  0  0  0  0  0  0  0  0  0  0
    3.1318   -0.5480   -2.2090 H   0  0  0  0  0  0  0  0  0  0  0  0
    1.7421   -1.0519   -1.2385 H   0  0  0  0  0  0  0  0  0  0  0  0
    5.5013   -1.0950   -1.2410 H   0  0  0  0  0  0  0  0  0  0  0  0
    6.0409    0.6105    0.4557 H   0  0  0  0  0  0  0  0  0  0  0  0
    4.6799    0.1027    1.4556 H   0  0  0  0  0  0  0  0  0  0  0  0
    3.1593   -1.9178    0.5325 H   0  0  0  0  0  0  0  0  0  0  0  0
    3.6204   -2.6347   -1.0106 H   0  0  0  0  0  0  0  0  0  0  0  0
   -2.8541    0.3794   -1.0271 H   0  0  0  0  0  0  0  0  0  0  0  0
    5.6073   -3.2204    0.3004 H   0  0  0  0  0  0  0  0  0  0  0  0
    5.6292   -2.1142    1.6496 H   0  0  0  0  0  0  0  0  0  0  0  0
    7.4453   -3.3933   -1.2913 H   0  0  0  0  0  0  0  0  0  0  0  0
    7.5766   -0.5867    1.9809 H   0  0  0  0  0  0  0  0  0  0  0  0
   -6.6558    1.2516    1.1308 H   0  0  0  0  0  0  0  0  0  0  0  0
   -4.2431   -0.9268   -1.7299 H   0  0  0  0  0  0  0  0  0  0  0  0
    9.8716   -3.0895   -1.6379 H   0  0  0  0  0  0  0  0  0  0  0  0
    9.9985   -0.2869    1.6169 H   0  0  0  0  0  0  0  0  0  0  0  0
   11.1533   -1.5371   -0.1880 H   0  0  0  0  0  0  0  0  0  0  0  0
   -7.9902   -0.7598    1.5170 H   0  0  0  0  0  0  0  0  0  0  0  0
   -5.5613   -2.9275   -1.3130 H   0  0  0  0  0  0  0  0  0  0  0  0
  1 36  1  0  0  0  0
  2 36  1  0  0  0  0
  3 36  1  0  0  0  0
  4 23  2  0  0  0  0
  5 11  1  0  0  0  0
  5 12  1  0  0  0  0
  5 14  1  0  0  0  0
  6 15  1  0  0  0  0
  6 17  1  0  0  0  0
  6 18  1  0  0  0  0
  7 16  1  0  0  0  0
  7 23  1  0  0  0  0
  7 61  1  0  0  0  0
  8  9  1  0  0  0  0
  8 10  1  0  0  0  0
  8 13  1  0  0  0  0
  8 37  1  0  0  0  0
  9 12  1  0  0  0  0
  9 15  1  0  0  0  0
  9 38  1  0  0  0  0
 10 11  1  0  0  0  0
 10 39  1  0  0  0  0
 10 40  1  0  0  0  0
 11 16  1  0  0  0  0
 11 41  1  0  0  0  0
 12 42  1  0  0  0  0
 12 43  1  0  0  0  0
 13 14  1  0  0  0  0
 13 44  1  0  0  0  0
 13 45  1  0  0  0  0
 14 46  1  0  0  0  0
 14 47  1  0  0  0  0
 15 48  1  0  0  0  0
 15 49  1  0  0  0  0
 16 50  1  0  0  0  0
 16 51  1  0  0  0  0
 17 20  1  0  0  0  0
 17 52  1  0  0  0  0
 17 53  1  0  0  0  0
 18 21  1  0  0  0  0
 18 54  1  0  0  0  0
 18 55  1  0  0  0  0
 19 20  1  0  0  0  0
 19 21  1  0  0  0  0
 19 22  1  0  0  0  0
 19 56  1  0  0  0  0
 20 57  1  0  0  0  0
 20 58  1  0  0  0  0
 21 59  1  0  0  0  0
 21 60  1  0  0  0  0
 22 24  1  0  0  0  0
 22 62  1  0  0  0  0
 22 63  1  0  0  0  0
 23 25  1  0  0  0  0
 24 26  2  0  0  0  0
 24 27  1  0  0  0  0
 25 28  2  0  0  0  0
 25 29  1  0  0  0  0
 26 30  1  0  0  0  0
 26 64  1  0  0  0  0
 27 31  2  0  0  0  0
 27 65  1  0  0  0  0
 28 33  1  0  0  0  0
 28 66  1  0  0  0  0
 29 34  2  0  0  0  0
 29 67  1  0  0  0  0
 30 32  2  0  0  0  0
 30 68  1  0  0  0  0
 31 32  1  0  0  0  0
 31 69  1  0  0  0  0
 32 70  1  0  0  0  0
 33 35  2  0  0  0  0
 33 71  1  0  0  0  0
 34 35  1  0  0  0  0
 34 72  1  0  0  0  0
 35 36  1  0  0  0  0
M  END
> <PUBCHEM_COMPOUND_CID>
40779690

> <PUBCHEM_CONFORMER_RMSD>
1.4

> <PUBCHEM_CONFORMER_DIVERSEORDER>
1
28
21
91
78
14
93
82
94
64
79
72
83
25
32
95
26
90
9
67
76
69
99
59
51
101
38
84
49
27
41
80
97
71
88
68
87
33
52
18
96
7
98
65
47
3
57
54
4
23
58
81
16
8
29
39
45
100
24
40
35
66
48
85
73
62
92
31
19
56
75
43
17
53
5
46
10
13
89
50
103
34
42
60
15
70
61
12
77
55
22
63
86
30
44
6
102
11
20
2
36
74
37

> <PUBCHEM_MMFF94_PARTIAL_CHARGES>
39
1 -0.34
11 0.27
12 0.27
14 0.27
15 0.27
16 0.3
17 0.27
18 0.27
2 -0.34
22 0.14
23 0.54
24 -0.14
25 0.09
26 -0.15
27 -0.15
28 -0.15
29 -0.15
3 -0.34
30 -0.15
31 -0.15
32 -0.15
33 -0.15
34 -0.15
35 -0.14
36 1.16
4 -0.57
5 -0.81
6 -0.81
61 0.37
64 0.15
65 0.15
66 0.15
67 0.15
68 0.15
69 0.15
7 -0.73
70 0.15
71 0.15
72 0.15

> <PUBCHEM_EFFECTIVE_ROTOR_COUNT>
11.4

> <PUBCHEM_PHARMACOPHORE_FEATURES>
8
1 4 acceptor
1 5 cation
1 6 cation
1 7 donor
6 24 26 27 30 31 32 rings
6 25 28 29 33 34 35 rings
6 6 17 18 19 20 21 rings
8 5 8 9 10 11 12 13 14 rings

> <PUBCHEM_HEAVY_ATOM_COUNT>
36

> <PUBCHEM_ATOM_DEF_STEREO_COUNT>
3

> <PUBCHEM_ATOM_UDEF_STEREO_COUNT>
0

> <PUBCHEM_BOND_DEF_STEREO_COUNT>
0

> <PUBCHEM_BOND_UDEF_STEREO_COUNT>
0

> <PUBCHEM_ISOTOPIC_ATOM_COUNT>
0

> <PUBCHEM_COMPONENT_COUNT>
1

> <PUBCHEM_CACTVS_TAUTO_COUNT>
2

> <PUBCHEM_CONFORMER_ID>
026E3FAA00000001

> <PUBCHEM_MMFF94_ENERGY>
81.052

> <PUBCHEM_FEATURE_SELFOVERLAP>
40.597

> <PUBCHEM_SHAPE_FINGERPRINT>
10100884 174 18334857212892516642
10190206 1 12324238334892056135
10258705 36 17985273972258257838
11135609 99 18410855456645649830
11181472 205 12175616292684903666
11409948 8 18343009022776522576
11497681 19 18335702716070053100
11672396 167 18341609370091939695
117089 54 18409450297591103067
12013929 27 18187085065583016524
12013929 29 11382672725737515666
12013929 94 18412546484545183142
12522641 68 11025803106137055632
12539747 363 18059853931273304056
12559416 138 18341598296759253735
12643181 29 18337104550234797885
13782708 43 18335139838977802253
14068700 675 18408326562437533188
14400156 350 8934459392527813888
15064981 113 14056997205043736664
15152005 290 8971316688805955493
15347591 1 18408885170401265917
15455199 99 18120657099998678379
15773216 30 18118971523451503252
15803439 3 14273459175542373009
16067689 302 18342738538357773812
16067689 68 18060150812597755355
16990366 60 18411418444467896800
17686467 74 18340197515435962776
19246450 95 17560526110639637357
19303781 99 18337380625957212695
19611394 137 18130501956057332128
19841028 212 18408041823174699928
20721686 146 9943532907410463971
21344244 246 18188213199696688532
21781055 127 12895068558034770144
21796203 349 17346310518852079828
21867126 195 18340766035060212087
22002106 203 18342166826012108183
22899556 10 17116907575040687912
23569943 247 18339646759016319915
23729417 116 18187644644426201460
2747138 104 18130497536652094248
2835820 33 18409444787965376242
3552219 110 17704356567942706464
393628 194 10375864178588757355
4173938 188 18335695024178648138
4330586 98 17458921434105013346
437795 163 18262516992857719066
439807 62 18335140912714111429
44280117 145 18335422301776399140
4461854 278 17632291264449220486
4760202 70 18186812387944468356
5372103 7 9511472117259186943
54039377 194 18408887334320081647
54583773 228 18408609159265514420
5718773 13 18408602578225480021
6201320 82 8574445265516774095
636775 8 18340210687994762222
6698420 124 12463268308445318508

> <PUBCHEM_SHAPE_MULTIPOLES>
698.23
31.85
5.74
1.26
24.49
1.41
0.19
-48.53
4.09
-8.55
0.93
-0.03
0.43
1.61

> <PUBCHEM_SHAPE_SELFOVERLAP>
1493.704

> <PUBCHEM_SHAPE_VOLUME>
387.7

> <PUBCHEM_COORDINATE_TYPE>
2
5
10

$$$$
