7134499
  -OEChem-12032416153D

 71 73  0     1  0  0  0  0  0999 V2000
    1.8897   -2.7368   -1.3901 O   0  0  0  0  0  0  0  0  0  0  0  0
   -1.5796   -4.6535    0.8001 O   0  0  0  0  0  0  0  0  0  0  0  0
    0.9364   -5.1713    2.0286 O   0  0  0  0  0  0  0  0  0  0  0  0
   -2.4744   -1.3398   -2.0629 O   0  0  0  0  0  0  0  0  0  0  0  0
   -1.9516    0.6621    1.9563 O   0  0  0  0  0  0  0  0  0  0  0  0
    3.6459   -1.1765    0.9133 O   0  0  0  0  0  0  0  0  0  0  0  0
   -4.0254    1.5347    2.3006 O   0  0  0  0  0  0  0  0  0  0  0  0
    3.8916    0.3334   -3.4158 O   0  0  0  0  0  0  0  0  0  0  0  0
   -2.0617   -1.8539    0.1654 N   0  0  0  0  0  0  0  0  0  0  0  0
    2.7294   -0.1719   -0.9762 N   0  0  0  0  0  0  0  0  0  0  0  0
    5.6914    1.2562   -2.3270 N   0  0  0  0  0  0  0  0  0  0  0  0
   -4.1501    0.8203   -0.6811 C   0  0  0  0  0  0  0  0  0  0  0  0
   -4.0735    1.0994   -2.1883 C   0  0  0  0  0  0  0  0  0  0  0  0
   -5.5239    1.4060   -0.3264 C   0  0  0  0  0  0  0  0  0  0  0  0
   -4.7170    2.4720   -2.3712 C   0  0  0  0  0  0  0  0  0  0  0  0
   -5.6477    2.6694   -1.1747 C   0  0  0  0  0  0  0  0  0  0  0  0
   -4.0824   -0.6786   -0.3815 C   0  0  0  0  0  0  0  0  0  0  0  0
   -0.7943   -2.5244   -0.0265 C   0  0  1  0  0  0  0  0  0  0  0  0
   -3.0235    1.5401    0.0780 C   0  0  0  0  0  0  0  0  0  0  0  0
    1.7198   -2.1607   -0.1004 C   0  0  1  0  0  0  0  0  0  0  0  0
    0.3447   -1.4998    0.0139 C   0  0  0  0  0  0  0  0  0  0  0  0
   -0.6045   -3.6306    1.0199 C   0  0  2  0  0  0  0  0  0  0  0  0
    0.7780   -4.2806    0.9240 C   0  0  1  0  0  0  0  0  0  0  0  0
    1.9033   -3.2453    0.9591 C   0  0  0  0  0  0  0  0  0  0  0  0
   -2.7977   -1.3155   -0.8785 C   0  0  0  0  0  0  0  0  0  0  0  0
    2.8101   -1.1358    0.0141 C   0  0  0  0  0  0  0  0  0  0  0  0
   -3.0975    1.2679    1.5518 C   0  0  0  0  0  0  0  0  0  0  0  0
    3.6484    0.9389   -1.0749 C   0  0  2  0  0  0  0  0  0  0  0  0
    2.9300    2.2921   -1.0239 C   0  0  0  0  0  0  0  0  0  0  0  0
    4.3967    0.7855   -2.3911 C   0  0  0  0  0  0  0  0  0  0  0  0
    2.5584    2.7032    0.3800 C   0  0  0  0  0  0  0  0  0  0  0  0
    1.3231    2.3324    0.9114 C   0  0  0  0  0  0  0  0  0  0  0  0
    3.4502    3.4537    1.1463 C   0  0  0  0  0  0  0  0  0  0  0  0
    0.9796    2.7121    2.2089 C   0  0  0  0  0  0  0  0  0  0  0  0
    3.1067    3.8333    2.4438 C   0  0  0  0  0  0  0  0  0  0  0  0
    1.8713    3.4625    2.9751 C   0  0  0  0  0  0  0  0  0  0  0  0
   -4.6537    0.3588   -2.7534 H   0  0  0  0  0  0  0  0  0  0  0  0
   -3.0526    1.0974   -2.5835 H   0  0  0  0  0  0  0  0  0  0  0  0
   -5.7047    1.6148    0.7278 H   0  0  0  0  0  0  0  0  0  0  0  0
   -6.3142    0.7085   -0.6368 H   0  0  0  0  0  0  0  0  0  0  0  0
   -3.9523    3.2571   -2.3822 H   0  0  0  0  0  0  0  0  0  0  0  0
   -5.2587    2.5324   -3.3206 H   0  0  0  0  0  0  0  0  0  0  0  0
   -6.6827    2.8356   -1.4903 H   0  0  0  0  0  0  0  0  0  0  0  0
   -5.3361    3.5496   -0.6009 H   0  0  0  0  0  0  0  0  0  0  0  0
   -4.8958   -1.2040   -0.9009 H   0  0  0  0  0  0  0  0  0  0  0  0
   -4.2481   -0.8856    0.6818 H   0  0  0  0  0  0  0  0  0  0  0  0
   -0.8221   -2.9814   -1.0247 H   0  0  0  0  0  0  0  0  0  0  0  0
   -2.0419    1.2371   -0.3076 H   0  0  0  0  0  0  0  0  0  0  0  0
   -3.0631    2.6282   -0.0492 H   0  0  0  0  0  0  0  0  0  0  0  0
    0.2890   -0.9217    0.9465 H   0  0  0  0  0  0  0  0  0  0  0  0
    0.1805   -0.7832   -0.8007 H   0  0  0  0  0  0  0  0  0  0  0  0
   -0.7739   -3.2473    2.0335 H   0  0  0  0  0  0  0  0  0  0  0  0
    0.8468   -4.8881    0.0134 H   0  0  0  0  0  0  0  0  0  0  0  0
    2.8604   -3.7680    0.8260 H   0  0  0  0  0  0  0  0  0  0  0  0
    1.9459   -2.8027    1.9641 H   0  0  0  0  0  0  0  0  0  0  0  0
   -2.3811   -1.7211    1.1204 H   0  0  0  0  0  0  0  0  0  0  0  0
    2.7279   -3.2300   -1.3987 H   0  0  0  0  0  0  0  0  0  0  0  0
   -1.4593   -4.9960   -0.1020 H   0  0  0  0  0  0  0  0  0  0  0  0
    1.8121   -5.5861    1.9470 H   0  0  0  0  0  0  0  0  0  0  0  0
    2.0420   -0.2761   -1.7165 H   0  0  0  0  0  0  0  0  0  0  0  0
    4.3764    0.8687   -0.2570 H   0  0  0  0  0  0  0  0  0  0  0  0
   -1.9609    0.4644    2.9170 H   0  0  0  0  0  0  0  0  0  0  0  0
    2.0294    2.2759   -1.6528 H   0  0  0  0  0  0  0  0  0  0  0  0
    3.5658    3.0766   -1.4560 H   0  0  0  0  0  0  0  0  0  0  0  0
    6.0882    1.6496   -1.4797 H   0  0  0  0  0  0  0  0  0  0  0  0
    6.2970    1.2257   -3.1406 H   0  0  0  0  0  0  0  0  0  0  0  0
    0.6181    1.7506    0.3239 H   0  0  0  0  0  0  0  0  0  0  0  0
    4.4165    3.7464    0.7443 H   0  0  0  0  0  0  0  0  0  0  0  0
    0.0183    2.4281    2.6247 H   0  0  0  0  0  0  0  0  0  0  0  0
    3.8012    4.4171    3.0408 H   0  0  0  0  0  0  0  0  0  0  0  0
    1.6037    3.7585    3.9851 H   0  0  0  0  0  0  0  0  0  0  0  0
  1 20  1  0  0  0  0
  1 57  1  0  0  0  0
  2 22  1  0  0  0  0
  2 58  1  0  0  0  0
  3 23  1  0  0  0  0
  3 59  1  0  0  0  0
  4 25  2  0  0  0  0
  5 27  1  0  0  0  0
  5 62  1  0  0  0  0
  6 26  2  0  0  0  0
  7 27  2  0  0  0  0
  8 30  2  0  0  0  0
  9 18  1  0  0  0  0
  9 25  1  0  0  0  0
  9 56  1  0  0  0  0
 10 26  1  0  0  0  0
 10 28  1  0  0  0  0
 10 60  1  0  0  0  0
 11 30  1  0  0  0  0
 11 65  1  0  0  0  0
 11 66  1  0  0  0  0
 12 13  1  0  0  0  0
 12 14  1  0  0  0  0
 12 17  1  0  0  0  0
 12 19  1  0  0  0  0
 13 15  1  0  0  0  0
 13 37  1  0  0  0  0
 13 38  1  0  0  0  0
 14 16  1  0  0  0  0
 14 39  1  0  0  0  0
 14 40  1  0  0  0  0
 15 16  1  0  0  0  0
 15 41  1  0  0  0  0
 15 42  1  0  0  0  0
 16 43  1  0  0  0  0
 16 44  1  0  0  0  0
 17 25  1  0  0  0  0
 17 45  1  0  0  0  0
 17 46  1  0  0  0  0
 18 21  1  0  0  0  0
 18 22  1  0  0  0  0
 18 47  1  0  0  0  0
 19 27  1  0  0  0  0
 19 48  1  0  0  0  0
 19 49  1  0  0  0  0
 20 21  1  0  0  0  0
 20 24  1  0  0  0  0
 20 26  1  0  0  0  0
 21 50  1  0  0  0  0
 21 51  1  0  0  0  0
 22 23  1  0  0  0  0
 22 52  1  0  0  0  0
 23 24  1  0  0  0  0
 23 53  1  0  0  0  0
 24 54  1  0  0  0  0
 24 55  1  0  0  0  0
 28 29  1  0  0  0  0
 28 30  1  0  0  0  0
 28 61  1  0  0  0  0
 29 31  1  0  0  0  0
 29 63  1  0  0  0  0
 29 64  1  0  0  0  0
 31 32  2  0  0  0  0
 31 33  1  0  0  0  0
 32 34  1  0  0  0  0
 32 67  1  0  0  0  0
 33 35  2  0  0  0  0
 33 68  1  0  0  0  0
 34 36  2  0  0  0  0
 34 69  1  0  0  0  0
 35 36  1  0  0  0  0
 35 70  1  0  0  0  0
 36 71  1  0  0  0  0
M  END
> <PUBCHEM_COMPOUND_CID>
7134499

> <PUBCHEM_CONFORMER_RMSD>
1.2

> <PUBCHEM_CONFORMER_DIVERSEORDER>
1
148
76
178
119
185
129
38
33
108
14
26
161
54
94
160
166
152
151
110
127
190
173
191
79
58
180
158
19
77
143
174
139
183
24
59
182
74
157
155
21
10
120
96
51
89
165
153
113
133
111
83
104
141
75
91
145
32
15
8
188
192
27
99
12
20
132
98
123
88
169
121
72
92
154
176
147
42
136
9
13
44
47
163
2
179
35
22
23
162
140
66
65
69
107
80
70
40
97
63
150
49
122
6
95
28
149
57
102
29
64
116
85
36
68
81
62
45
71
135
103
50
87
117
189
90
128
16
171
168
106
52
93
53
156
41
186
61
5
34
73
125
159
48
184
39
67
18
78
126
46
124
175
82
43
55
105
167
31
4
172
3
115
25
86
144
146
112
56
11
170
7
17
164
118
138
187
30
37
114
109
130
101
177
181
137
60
84
134
131
100
142

> <PUBCHEM_MMFF94_PARTIAL_CHARGES>
42
1 -0.68
10 -0.73
11 -0.8
17 0.06
18 0.3
19 0.06
2 -0.68
20 0.34
22 0.28
23 0.28
25 0.57
26 0.57
27 0.66
28 0.36
29 0.14
3 -0.68
30 0.57
31 -0.14
32 -0.15
33 -0.15
34 -0.15
35 -0.15
36 -0.15
4 -0.57
5 -0.65
56 0.37
57 0.4
58 0.4
59 0.4
6 -0.57
60 0.37
62 0.5
65 0.37
66 0.37
67 0.15
68 0.15
69 0.15
7 -0.57
70 0.15
71 0.15
8 -0.57
9 -0.73

> <PUBCHEM_EFFECTIVE_ROTOR_COUNT>
14.2

> <PUBCHEM_PHARMACOPHORE_FEATURES>
18
1 1 acceptor
1 1 donor
1 10 donor
1 11 donor
1 2 acceptor
1 2 donor
1 3 acceptor
1 3 donor
1 4 acceptor
1 5 acceptor
1 6 acceptor
1 7 acceptor
1 8 acceptor
1 9 donor
3 5 7 27 anion
5 12 13 14 15 16 rings
6 18 20 21 22 23 24 rings
6 31 32 33 34 35 36 rings

> <PUBCHEM_HEAVY_ATOM_COUNT>
36

> <PUBCHEM_ATOM_DEF_STEREO_COUNT>
5

> <PUBCHEM_ATOM_UDEF_STEREO_COUNT>
0

> <PUBCHEM_BOND_DEF_STEREO_COUNT>
0

> <PUBCHEM_BOND_UDEF_STEREO_COUNT>
0

> <PUBCHEM_ISOTOPIC_ATOM_COUNT>
0

> <PUBCHEM_COMPONENT_COUNT>
1

> <PUBCHEM_CACTVS_TAUTO_COUNT>
8

> <PUBCHEM_CONFORMER_ID>
006CDD2300000001

> <PUBCHEM_MMFF94_ENERGY>
89.9626

> <PUBCHEM_FEATURE_SELFOVERLAP>
91.427

> <PUBCHEM_SHAPE_FINGERPRINT>
10439779 11 17978764854087187097
10675989 125 18272357647316908225
10842077 115 17984129633027677720
10974685 15 18193266614570896796
11331351 85 17549239459601822702
11434127 23 17913487127814271488
12156800 1 12599733260968963304
12655364 74 14717690675546646676
12769317 202 18337103471522273127
13617811 41 17972585861396424341
14114206 34 17985573107343682780
14347329 18 18042690675048665044
14725015 67 17547552134617745259
15274700 21 18265351662915065235
16067689 391 17270926842442754716
19319366 153 18265063452401167598
20764821 26 18263341690227763236
21133410 62 18337128786661136649
21315764 21 17898569770213017261
21591340 35 18341316834476871321
22393880 68 18271242819508044221
3886686 26 18046597227341443602
469060 322 17613157786245470715
508706 21 18121778597641533188
5252454 2 18334864930504654695
550186 7 17116338024070158968

> <PUBCHEM_SHAPE_MULTIPOLES>
678.97
10.62
6.44
2.9
7.84
5.72
-0.65
-9.9
-6.67
-3.11
4.8
-2.05
-2.05
1.68

> <PUBCHEM_SHAPE_SELFOVERLAP>
1425.938

> <PUBCHEM_SHAPE_VOLUME>
379.6

> <PUBCHEM_COORDINATE_TYPE>
2
5
10

$$$$
