7155430
  -OEChem-12032416113D

 52 56  0     1  0  0  0  0  0999 V2000
    5.3766    0.4018    1.1574 F   0  0  0  0  0  0  0  0  0  0  0  0
    0.6886   -2.3960    2.9795 O   0  0  0  0  0  0  0  0  0  0  0  0
    2.3435   -1.9388   -1.6182 O   0  0  0  0  0  0  0  0  0  0  0  0
   -0.6920   -1.8304    1.1739 N   0  0  0  0  0  0  0  0  0  0  0  0
    0.0575   -1.6903   -1.8784 N   0  0  0  0  0  0  0  0  0  0  0  0
    1.4418    0.1959   -1.5793 N   0  0  0  0  0  0  0  0  0  0  0  0
   -1.1833   -3.4988   -0.7074 C   0  0  2  0  0  0  0  0  0  0  0  0
   -2.1268   -1.2280   -0.8053 C   0  0  2  0  0  0  0  0  0  0  0  0
   -2.4779   -2.7147   -0.8675 C   0  0  0  0  0  0  0  0  0  0  0  0
   -0.6233   -3.2155    0.6868 C   0  0  0  0  0  0  0  0  0  0  0  0
   -0.1824   -3.1338   -1.8191 C   0  0  0  0  0  0  0  0  0  0  0  0
   -1.1712   -0.8852   -1.9705 C   0  0  0  0  0  0  0  0  0  0  0  0
   -1.4823   -0.8529    0.5345 C   0  0  0  0  0  0  0  0  0  0  0  0
   -1.6141    0.3793    1.0916 C   0  0  0  0  0  0  0  0  0  0  0  0
   -0.0025   -1.5772    2.3731 C   0  0  0  0  0  0  0  0  0  0  0  0
    1.3638   -1.1917   -1.6841 C   0  0  0  0  0  0  0  0  0  0  0  0
   -0.9155    0.6768    2.3275 C   0  0  0  0  0  0  0  0  0  0  0  0
   -0.1426   -0.2181    2.9422 C   0  0  0  0  0  0  0  0  0  0  0  0
   -2.4271    1.4398    0.4571 C   0  0  0  0  0  0  0  0  0  0  0  0
   -1.8427    2.2963   -0.4712 C   0  0  0  0  0  0  0  0  0  0  0  0
   -3.7711    1.5738    0.7922 C   0  0  0  0  0  0  0  0  0  0  0  0
    2.4372    0.9467   -0.9086 C   0  0  0  0  0  0  0  0  0  0  0  0
   -2.6094    3.2960   -1.0699 C   0  0  0  0  0  0  0  0  0  0  0  0
   -4.5379    2.5734    0.1933 C   0  0  0  0  0  0  0  0  0  0  0  0
   -3.9569    3.4345   -0.7376 C   0  0  0  0  0  0  0  0  0  0  0  0
    3.4344    0.2899   -0.1931 C   0  0  0  0  0  0  0  0  0  0  0  0
    2.4126    2.3372   -0.9686 C   0  0  0  0  0  0  0  0  0  0  0  0
    4.4151    1.0296    0.4676 C   0  0  0  0  0  0  0  0  0  0  0  0
    3.3932    3.0770   -0.3079 C   0  0  0  0  0  0  0  0  0  0  0  0
    4.3946    2.4232    0.4101 C   0  0  0  0  0  0  0  0  0  0  0  0
   -1.3909   -4.5730   -0.7867 H   0  0  0  0  0  0  0  0  0  0  0  0
   -3.0620   -0.6762   -0.9528 H   0  0  0  0  0  0  0  0  0  0  0  0
   -3.1932   -2.9785   -0.0784 H   0  0  0  0  0  0  0  0  0  0  0  0
   -2.9544   -2.9561   -1.8256 H   0  0  0  0  0  0  0  0  0  0  0  0
   -1.1856   -3.8124    1.4183 H   0  0  0  0  0  0  0  0  0  0  0  0
    0.4164   -3.5606    0.7547 H   0  0  0  0  0  0  0  0  0  0  0  0
    0.7542   -3.6825   -1.6764 H   0  0  0  0  0  0  0  0  0  0  0  0
   -0.5847   -3.4309   -2.7952 H   0  0  0  0  0  0  0  0  0  0  0  0
   -1.6451   -1.1439   -2.9261 H   0  0  0  0  0  0  0  0  0  0  0  0
   -0.9810    0.1831   -2.0097 H   0  0  0  0  0  0  0  0  0  0  0  0
   -1.0223    1.6709    2.7517 H   0  0  0  0  0  0  0  0  0  0  0  0
    0.3804    0.0155    3.8618 H   0  0  0  0  0  0  0  0  0  0  0  0
    0.7436    0.7590   -2.0498 H   0  0  0  0  0  0  0  0  0  0  0  0
   -0.7919    2.2111   -0.7308 H   0  0  0  0  0  0  0  0  0  0  0  0
   -4.2374    0.9094    1.5154 H   0  0  0  0  0  0  0  0  0  0  0  0
   -2.1561    3.9683   -1.7926 H   0  0  0  0  0  0  0  0  0  0  0  0
   -5.5872    2.6813    0.4518 H   0  0  0  0  0  0  0  0  0  0  0  0
   -4.5537    4.2132   -1.2033 H   0  0  0  0  0  0  0  0  0  0  0  0
    3.4865   -0.7853   -0.0799 H   0  0  0  0  0  0  0  0  0  0  0  0
    1.6390    2.8589   -1.5258 H   0  0  0  0  0  0  0  0  0  0  0  0
    3.3774    4.1621   -0.3526 H   0  0  0  0  0  0  0  0  0  0  0  0
    5.1583    2.9988    0.9247 H   0  0  0  0  0  0  0  0  0  0  0  0
  1 28  1  0  0  0  0
  2 15  2  0  0  0  0
  3 16  2  0  0  0  0
  4 10  1  0  0  0  0
  4 13  1  0  0  0  0
  4 15  1  0  0  0  0
  5 11  1  0  0  0  0
  5 12  1  0  0  0  0
  5 16  1  0  0  0  0
  6 16  1  0  0  0  0
  6 22  1  0  0  0  0
  6 43  1  0  0  0  0
  7  9  1  0  0  0  0
  7 10  1  0  0  0  0
  7 11  1  0  0  0  0
  7 31  1  0  0  0  0
  8  9  1  0  0  0  0
  8 12  1  0  0  0  0
  8 13  1  0  0  0  0
  8 32  1  0  0  0  0
  9 33  1  0  0  0  0
  9 34  1  0  0  0  0
 10 35  1  0  0  0  0
 10 36  1  0  0  0  0
 11 37  1  0  0  0  0
 11 38  1  0  0  0  0
 12 39  1  0  0  0  0
 12 40  1  0  0  0  0
 13 14  2  0  0  0  0
 14 17  1  0  0  0  0
 14 19  1  0  0  0  0
 15 18  1  0  0  0  0
 17 18  2  0  0  0  0
 17 41  1  0  0  0  0
 18 42  1  0  0  0  0
 19 20  2  0  0  0  0
 19 21  1  0  0  0  0
 20 23  1  0  0  0  0
 20 44  1  0  0  0  0
 21 24  2  0  0  0  0
 21 45  1  0  0  0  0
 22 26  2  0  0  0  0
 22 27  1  0  0  0  0
 23 25  2  0  0  0  0
 23 46  1  0  0  0  0
 24 25  1  0  0  0  0
 24 47  1  0  0  0  0
 25 48  1  0  0  0  0
 26 28  1  0  0  0  0
 26 49  1  0  0  0  0
 27 29  2  0  0  0  0
 27 50  1  0  0  0  0
 28 30  2  0  0  0  0
 29 30  1  0  0  0  0
 29 51  1  0  0  0  0
 30 52  1  0  0  0  0
M  END
> <PUBCHEM_COMPOUND_CID>
7155430

> <PUBCHEM_CONFORMER_RMSD>
0.8

> <PUBCHEM_CONFORMER_DIVERSEORDER>
1
16
22
11
19
17
6
2
14
21
3
10
4
13
7
23
20
15
18
5
12
9
8

> <PUBCHEM_MMFF94_PARTIAL_CHARGES>
40
1 -0.19
10 0.3
11 0.3
12 0.3
13 -0.03
14 -0.03
15 0.62
16 0.69
17 -0.15
18 -0.14
19 0.03
2 -0.57
20 -0.15
21 -0.15
22 0.12
23 -0.15
24 -0.15
25 -0.15
26 -0.15
27 -0.15
28 0.19
29 -0.15
3 -0.57
30 -0.15
4 -0.47
41 0.15
42 0.15
43 0.37
44 0.15
45 0.15
46 0.15
47 0.15
48 0.15
49 0.15
5 -0.66
50 0.15
51 0.15
52 0.15
6 -0.55
8 0.14

> <PUBCHEM_EFFECTIVE_ROTOR_COUNT>
5

> <PUBCHEM_PHARMACOPHORE_FEATURES>
8
1 2 acceptor
1 3 acceptor
1 6 donor
6 19 20 21 23 24 25 rings
6 22 26 27 28 29 30 rings
6 4 13 14 15 17 18 rings
6 4 7 8 9 10 13 rings
6 5 7 8 9 11 12 rings

> <PUBCHEM_HEAVY_ATOM_COUNT>
30

> <PUBCHEM_ATOM_DEF_STEREO_COUNT>
2

> <PUBCHEM_ATOM_UDEF_STEREO_COUNT>
0

> <PUBCHEM_BOND_DEF_STEREO_COUNT>
0

> <PUBCHEM_BOND_UDEF_STEREO_COUNT>
0

> <PUBCHEM_ISOTOPIC_ATOM_COUNT>
0

> <PUBCHEM_COMPONENT_COUNT>
1

> <PUBCHEM_CACTVS_TAUTO_COUNT>
2

> <PUBCHEM_CONFORMER_ID>
006D2EE600000001

> <PUBCHEM_MMFF94_ENERGY>
91.3622

> <PUBCHEM_FEATURE_SELFOVERLAP>
42.184

> <PUBCHEM_SHAPE_FINGERPRINT>
10871710 139 17618245221635447245
11370993 70 18272370836781087501
11582403 64 18261674770686303193
11725454 13 18043265539135343717
11954058 11 8356812284653314417
12156800 1 17126434585411348124
12422481 6 18052010105735667171
12788726 201 18046635769649612381
13004483 165 17980475990342521055
14251764 3 18118708550760457569
14468879 13 18339094755778715321
14840074 17 17262182704759099872
14955137 171 17612869301249454739
17980427 23 17685182034093651427
19930381 70 18126014762815142405
20600515 1 16908083885495617471
20715895 44 18200877249511671529
20905425 154 17030225973825379309
21860390 5 17540802898539232725
22121540 332 15578624381595116093
238 59 18053124838268766053
35225 105 17314536857200836621
460360 51 18200051641618851468
469060 322 17477784832054049486
508706 21 18270691960304039516
5895379 119 16684559219194659529

> <PUBCHEM_SHAPE_MULTIPOLES>
583.43
7.17
4.86
2.48
6.16
0.32
-1.54
-8.59
-0.07
-2.9
1.48
0.11
1.58
0.14

> <PUBCHEM_SHAPE_SELFOVERLAP>
1289.9

> <PUBCHEM_SHAPE_VOLUME>
309.8

> <PUBCHEM_COORDINATE_TYPE>
2
5
10

$$$$
