26743464
  -OEChem-12032416373D

 61 64  0     1  0  0  0  0  0999 V2000
    3.0704    1.2605   -0.9883 S   0  0  0  0  0  0  0  0  0  0  0  0
    8.0231   -0.5780    1.6294 F   0  0  0  0  0  0  0  0  0  0  0  0
   -4.0882    4.9385    0.9492 O   0  0  0  0  0  0  0  0  0  0  0  0
   -1.1211    0.9121   -2.1995 O   0  0  0  0  0  0  0  0  0  0  0  0
   -2.8320   -0.7600    2.0923 O   0  0  0  0  0  0  0  0  0  0  0  0
   -1.2854   -3.0311    1.8699 O   0  0  0  0  0  0  0  0  0  0  0  0
   -1.1109   -4.3482   -0.5587 O   0  0  0  0  0  0  0  0  0  0  0  0
    2.7856    2.6040   -0.5201 O   0  0  0  0  0  0  0  0  0  0  0  0
    3.2106    0.9891   -2.4065 O   0  0  0  0  0  0  0  0  0  0  0  0
   -3.5119    1.4691    0.3152 N   0  0  1  0  0  0  0  0  0  0  0  0
   -0.4047    1.2589   -0.1059 N   0  0  0  0  0  0  0  0  0  0  0  0
    0.1641    0.3594   -2.1310 N   0  0  0  0  0  0  0  0  0  0  0  0
   -2.7270    2.0819   -0.7756 C   0  0  1  0  0  0  0  0  0  0  0  0
   -2.6122    3.5687   -0.3909 C   0  0  0  0  0  0  0  0  0  0  0  0
   -3.4017    3.7028    0.9054 C   0  0  2  0  0  0  0  0  0  0  0  0
   -4.3597    2.5276    0.8605 C   0  0  0  0  0  0  0  0  0  0  0  0
   -4.2870    0.3125   -0.1145 C   0  0  0  0  0  0  0  0  0  0  0  0
   -1.3782    1.4206   -0.9660 C   0  0  0  0  0  0  0  0  0  0  0  0
   -3.4369   -0.9261   -0.2150 C   0  0  0  0  0  0  0  0  0  0  0  0
   -2.7446   -1.4085    0.8958 C   0  0  0  0  0  0  0  0  0  0  0  0
    0.5195    0.6033   -0.8662 C   0  0  0  0  0  0  0  0  0  0  0  0
   -3.3462   -1.5928   -1.4369 C   0  0  0  0  0  0  0  0  0  0  0  0
    1.8215    0.1899   -0.3311 C   0  0  0  0  0  0  0  0  0  0  0  0
   -1.9619   -2.5577    0.7848 C   0  0  0  0  0  0  0  0  0  0  0  0
   -2.5634   -2.7419   -1.5480 C   0  0  0  0  0  0  0  0  0  0  0  0
   -1.8712   -3.2243   -0.4371 C   0  0  0  0  0  0  0  0  0  0  0  0
    4.5548    0.7096   -0.2047 C   0  0  0  0  0  0  0  0  0  0  0  0
   -3.8758   -1.1676    2.9737 C   0  0  0  0  0  0  0  0  0  0  0  0
    5.3306   -0.2849   -0.8003 C   0  0  0  0  0  0  0  0  0  0  0  0
    4.9506    1.2692    1.0103 C   0  0  0  0  0  0  0  0  0  0  0  0
    0.0391   -2.5424    2.0698 C   0  0  0  0  0  0  0  0  0  0  0  0
   -1.0726   -4.9687   -1.8424 C   0  0  0  0  0  0  0  0  0  0  0  0
    6.5023   -0.7197   -0.1810 C   0  0  0  0  0  0  0  0  0  0  0  0
    6.1222    0.8342    1.6295 C   0  0  0  0  0  0  0  0  0  0  0  0
    6.8983   -0.1601    1.0338 C   0  0  0  0  0  0  0  0  0  0  0  0
   -3.2790    2.0351   -1.7249 H   0  0  0  0  0  0  0  0  0  0  0  0
   -1.5793    3.9040   -0.2431 H   0  0  0  0  0  0  0  0  0  0  0  0
   -3.0460    4.1982   -1.1781 H   0  0  0  0  0  0  0  0  0  0  0  0
   -2.7363    3.6294    1.7743 H   0  0  0  0  0  0  0  0  0  0  0  0
   -4.7363    2.2835    1.8594 H   0  0  0  0  0  0  0  0  0  0  0  0
   -5.2216    2.7501    0.2175 H   0  0  0  0  0  0  0  0  0  0  0  0
   -4.8137    0.5130   -1.0571 H   0  0  0  0  0  0  0  0  0  0  0  0
   -5.0812    0.0959    0.6118 H   0  0  0  0  0  0  0  0  0  0  0  0
   -3.4217    5.6449    0.8990 H   0  0  0  0  0  0  0  0  0  0  0  0
   -3.8780   -1.2275   -2.3114 H   0  0  0  0  0  0  0  0  0  0  0  0
    2.0632   -0.8384   -0.6153 H   0  0  0  0  0  0  0  0  0  0  0  0
    1.8425    0.2747    0.7595 H   0  0  0  0  0  0  0  0  0  0  0  0
   -2.5392   -3.2064   -2.5277 H   0  0  0  0  0  0  0  0  0  0  0  0
   -4.0004   -0.3945    3.7369 H   0  0  0  0  0  0  0  0  0  0  0  0
   -3.5981   -2.1040    3.4673 H   0  0  0  0  0  0  0  0  0  0  0  0
   -4.8269   -1.2972    2.4483 H   0  0  0  0  0  0  0  0  0  0  0  0
    5.0372   -0.7396   -1.7422 H   0  0  0  0  0  0  0  0  0  0  0  0
    4.3574    2.0398    1.4943 H   0  0  0  0  0  0  0  0  0  0  0  0
    0.4480   -3.0170    2.9658 H   0  0  0  0  0  0  0  0  0  0  0  0
    0.0305   -1.4583    2.2213 H   0  0  0  0  0  0  0  0  0  0  0  0
    0.6771   -2.7961    1.2172 H   0  0  0  0  0  0  0  0  0  0  0  0
   -0.4224   -5.8457   -1.7568 H   0  0  0  0  0  0  0  0  0  0  0  0
   -0.6226   -4.3118   -2.5946 H   0  0  0  0  0  0  0  0  0  0  0  0
   -2.0602   -5.3337   -2.1440 H   0  0  0  0  0  0  0  0  0  0  0  0
    7.1059   -1.4952   -0.6434 H   0  0  0  0  0  0  0  0  0  0  0  0
    6.4300    1.2683    2.5761 H   0  0  0  0  0  0  0  0  0  0  0  0
  1  8  2  0  0  0  0
  1  9  2  0  0  0  0
  1 23  1  0  0  0  0
  1 27  1  0  0  0  0
  2 35  1  0  0  0  0
  3 15  1  0  0  0  0
  3 44  1  0  0  0  0
  4 12  1  0  0  0  0
  4 18  1  0  0  0  0
  5 20  1  0  0  0  0
  5 28  1  0  0  0  0
  6 24  1  0  0  0  0
  6 31  1  0  0  0  0
  7 26  1  0  0  0  0
  7 32  1  0  0  0  0
 10 13  1  0  0  0  0
 10 16  1  0  0  0  0
 10 17  1  0  0  0  0
 11 18  2  0  0  0  0
 11 21  1  0  0  0  0
 12 21  2  0  0  0  0
 13 14  1  0  0  0  0
 13 18  1  0  0  0  0
 13 36  1  0  0  0  0
 14 15  1  0  0  0  0
 14 37  1  0  0  0  0
 14 38  1  0  0  0  0
 15 16  1  0  0  0  0
 15 39  1  0  0  0  0
 16 40  1  0  0  0  0
 16 41  1  0  0  0  0
 17 19  1  0  0  0  0
 17 42  1  0  0  0  0
 17 43  1  0  0  0  0
 19 20  2  0  0  0  0
 19 22  1  0  0  0  0
 20 24  1  0  0  0  0
 21 23  1  0  0  0  0
 22 25  2  0  0  0  0
 22 45  1  0  0  0  0
 23 46  1  0  0  0  0
 23 47  1  0  0  0  0
 24 26  2  0  0  0  0
 25 26  1  0  0  0  0
 25 48  1  0  0  0  0
 27 29  2  0  0  0  0
 27 30  1  0  0  0  0
 28 49  1  0  0  0  0
 28 50  1  0  0  0  0
 28 51  1  0  0  0  0
 29 33  1  0  0  0  0
 29 52  1  0  0  0  0
 30 34  2  0  0  0  0
 30 53  1  0  0  0  0
 31 54  1  0  0  0  0
 31 55  1  0  0  0  0
 31 56  1  0  0  0  0
 32 57  1  0  0  0  0
 32 58  1  0  0  0  0
 32 59  1  0  0  0  0
 33 35  2  0  0  0  0
 33 60  1  0  0  0  0
 34 35  1  0  0  0  0
 34 61  1  0  0  0  0
M  END
> <PUBCHEM_COMPOUND_CID>
26743464

> <PUBCHEM_CONFORMER_RMSD>
1

> <PUBCHEM_CONFORMER_DIVERSEORDER>
1
189
276
110
120
49
159
186
105
274
227
263
245
70
260
280
233
15
80
239
279
178
98
294
73
265
286
273
4
19
207
169
89
60
237
45
278
251
157
76
112
166
92
124
167
264
228
59
17
131
198
149
16
39
224
285
246
197
5
182
266
6
24
47
160
256
146
253
235
150
208
287
210
204
130
213
135
176
277
66
181
74
57
231
144
141
33
165
58
46
85
75
68
270
196
215
138
108
283
216
255
63
267
179
114
190
281
50
289
212
243
26
103
104
107
200
64
201
93
249
2
123
171
184
154
127
162
244
32
71
56
262
214
205
185
202
87
36
61
7
69
11
153
282
23
62
147
121
161
175
275
230
34
140
35
236
136
77
91
163
27
261
232
99
113
173
155
238
241
38
12
225
18
259
191
292
28
188
272
229
152
115
21
217
194
248
118
122
84
143
223
252
14
81
30
129
106
258
288
31
67
211
172
101
88
134
234
271
137
291
82
222
151
254
22
41
187
206
250
44
125
133
170
203
268
126
142
193
48
97
293
95
145
83
51
220
242
132
247
42
240
183
284
116
257
102
10
158
43
20
168
177
40
290
8
111
209
29
218
269
139
37
180
195
54
221
79
148
164
78
13
109
100
219
226
117
174
9
192
25
86
65
156
90
53
52
128
55
199
96
72
3
119
94

> <PUBCHEM_MMFF94_PARTIAL_CHARGES>
41
1 1.2
10 -0.81
11 -0.57
12 -0.41
13 0.45
15 0.28
16 0.27
17 0.41
18 0.3
19 -0.14
2 -0.19
20 0.08
21 0.34
22 -0.15
23 0.29
24 0.08
25 -0.15
26 0.08
27 -0.01
28 0.28
29 -0.15
3 -0.68
30 -0.15
31 0.28
32 0.28
33 -0.15
34 -0.15
35 0.19
4 -0.02
44 0.4
45 0.15
48 0.15
5 -0.36
52 0.15
53 0.15
6 -0.36
60 0.15
61 0.15
7 -0.36
8 -0.65
9 -0.65

> <PUBCHEM_EFFECTIVE_ROTOR_COUNT>
10

> <PUBCHEM_PHARMACOPHORE_FEATURES>
13
1 10 cation
1 3 acceptor
1 3 donor
1 5 acceptor
1 6 acceptor
1 7 acceptor
1 8 acceptor
1 9 acceptor
3 11 12 21 cation
5 10 13 14 15 16 rings
5 4 11 12 18 21 rings
6 19 20 22 24 25 26 rings
6 27 29 30 33 34 35 rings

> <PUBCHEM_HEAVY_ATOM_COUNT>
35

> <PUBCHEM_ATOM_DEF_STEREO_COUNT>
2

> <PUBCHEM_ATOM_UDEF_STEREO_COUNT>
0

> <PUBCHEM_BOND_DEF_STEREO_COUNT>
0

> <PUBCHEM_BOND_UDEF_STEREO_COUNT>
0

> <PUBCHEM_ISOTOPIC_ATOM_COUNT>
0

> <PUBCHEM_COMPONENT_COUNT>
1

> <PUBCHEM_CACTVS_TAUTO_COUNT>
1

> <PUBCHEM_CONFORMER_ID>
019812A800000001

> <PUBCHEM_MMFF94_ENERGY>
96.6998

> <PUBCHEM_FEATURE_SELFOVERLAP>
66.002

> <PUBCHEM_SHAPE_FINGERPRINT>
10319926 262 18343869900998813212
11049842 53 18048066011171022684
11513181 2 18270114608914714302
11524674 6 18409725127867908503
12422481 6 18114761338429221538
12608794 3 18128836294661916873
12633257 1 18057625328144505360
12788726 201 18191885615097027317
13004483 165 18122631814712487927
131258 38 16453508421153655251
14659021 117 18198608007571689395
14844126 61 18338513144424352171
15021287 119 16950285083881212244
15131766 46 16083934920611656357
15348495 7 18201710778727036792
15361156 5 18263088880838394222
15781502 13 17627760309985411831
15799311 1 17168149988614466922
15950262 2 14905970776446985819
16112460 7 18115581526948417338
16728300 4 17824282603292038523
19438510 23 17558840477145961241
21033648 29 18129678395335103661
23522609 53 17896624855083535756
255183 313 18129961047934018475
3383291 50 18409167744804578067
4073 2 18413102854434315256
484985 159 18261384602822990223
5080951 261 18115567319507935428
508706 21 18261118465469736382
5104073 3 18260550043965616840
5265222 85 17979113498015106502
5364581 5 18127962208672684960
57527358 35 14833909858394156255
7237137 82 10159695781061328712
9896288 288 18338524041162733145
9981440 41 18340776923323949089

> <PUBCHEM_SHAPE_MULTIPOLES>
660.83
13.86
5.4
2.24
33.99
1.4
-0.6
-4.13
-6.04
-8.98
0.47
-0.56
1.11
-0.93

> <PUBCHEM_SHAPE_SELFOVERLAP>
1406.339

> <PUBCHEM_SHAPE_VOLUME>
373.7

> <PUBCHEM_COORDINATE_TYPE>
2
5
10

$$$$
