40586239
  -OEChem-12032416293D

 60 63  0     1  0  0  0  0  0999 V2000
    1.8192   -0.7841   -1.2875 O   0  0  0  0  0  0  0  0  0  0  0  0
    1.0426   -3.1520    0.4996 O   0  0  0  0  0  0  0  0  0  0  0  0
    4.0173   -1.1604    0.3657 O   0  0  0  0  0  0  0  0  0  0  0  0
    4.1300    0.4280    2.0207 O   0  0  0  0  0  0  0  0  0  0  0  0
   -3.0826   -1.9916   -0.2419 O   0  0  0  0  0  0  0  0  0  0  0  0
   -9.1914    2.3228    0.9447 O   0  0  0  0  0  0  0  0  0  0  0  0
   -1.2870   -0.7074   -0.9294 N   0  0  0  0  0  0  0  0  0  0  0  0
    5.8548    0.1563    0.4928 N   0  0  0  0  0  0  0  0  0  0  0  0
   -3.3258    0.3100   -0.6344 N   0  0  0  0  0  0  0  0  0  0  0  0
    0.4578   -1.8426    0.3402 C   0  0  1  0  0  0  0  0  0  0  0  0
    1.6031   -0.8725    0.1308 C   0  0  1  0  0  0  0  0  0  0  0  0
   -0.3164   -1.7743   -0.9555 C   0  0  2  0  0  0  0  0  0  0  0  0
    2.7488   -1.5646    0.8293 C   0  0  1  0  0  0  0  0  0  0  0  0
    0.7792   -1.5001   -1.9713 C   0  0  0  0  0  0  0  0  0  0  0  0
    2.4714   -3.0208    0.5313 C   0  0  0  0  0  0  0  0  0  0  0  0
    6.7383    1.1879    0.9894 C   0  0  0  0  0  0  0  0  0  0  0  0
    8.2067    0.8051    0.7757 C   0  0  0  0  0  0  0  0  0  0  0  0
    6.4185    2.5426    0.3486 C   0  0  0  0  0  0  0  0  0  0  0  0
    8.6210    0.8731   -0.6942 C   0  0  0  0  0  0  0  0  0  0  0  0
    6.8357    2.6077   -1.1207 C   0  0  0  0  0  0  0  0  0  0  0  0
    8.3030    2.2338   -1.3065 C   0  0  0  0  0  0  0  0  0  0  0  0
    4.6278   -0.1346    1.0508 C   0  0  0  0  0  0  0  0  0  0  0  0
   -2.6263   -0.8981   -0.5671 C   0  0  0  0  0  0  0  0  0  0  0  0
   -4.6919    0.5390   -0.3480 C   0  0  0  0  0  0  0  0  0  0  0  0
   -5.5064   -0.5180    0.0581 C   0  0  0  0  0  0  0  0  0  0  0  0
   -5.2248    1.8221   -0.4732 C   0  0  0  0  0  0  0  0  0  0  0  0
   -6.8537   -0.2919    0.3392 C   0  0  0  0  0  0  0  0  0  0  0  0
   -6.5721    2.0480   -0.1922 C   0  0  0  0  0  0  0  0  0  0  0  0
   -7.3866    0.9911    0.2141 C   0  0  0  0  0  0  0  0  0  0  0  0
   -8.7918    1.2254    0.5071 C   0  0  0  0  0  0  0  0  0  0  0  0
   -9.8183    0.1200    0.2838 C   0  0  0  0  0  0  0  0  0  0  0  0
   -0.1316   -1.6305    1.2379 H   0  0  0  0  0  0  0  0  0  0  0  0
    1.4076    0.1381    0.5009 H   0  0  0  0  0  0  0  0  0  0  0  0
   -0.8312   -2.7119   -1.1913 H   0  0  0  0  0  0  0  0  0  0  0  0
    2.6490   -1.4292    1.9152 H   0  0  0  0  0  0  0  0  0  0  0  0
    1.2179   -2.4358   -2.3352 H   0  0  0  0  0  0  0  0  0  0  0  0
    0.4455   -0.9177   -2.8356 H   0  0  0  0  0  0  0  0  0  0  0  0
    2.8770   -3.3321   -0.4378 H   0  0  0  0  0  0  0  0  0  0  0  0
    2.8845   -3.6878    1.2940 H   0  0  0  0  0  0  0  0  0  0  0  0
   -0.9706    0.2387   -1.1201 H   0  0  0  0  0  0  0  0  0  0  0  0
    6.5601    1.2723    2.0687 H   0  0  0  0  0  0  0  0  0  0  0  0
    8.3970   -0.2042    1.1604 H   0  0  0  0  0  0  0  0  0  0  0  0
    8.8411    1.4901    1.3525 H   0  0  0  0  0  0  0  0  0  0  0  0
    6.9485    3.3303    0.8994 H   0  0  0  0  0  0  0  0  0  0  0  0
    5.3479    2.7649    0.4314 H   0  0  0  0  0  0  0  0  0  0  0  0
    8.1145    0.0862   -1.2652 H   0  0  0  0  0  0  0  0  0  0  0  0
    9.6962    0.6776   -0.7785 H   0  0  0  0  0  0  0  0  0  0  0  0
    6.6632    3.6191   -1.5058 H   0  0  0  0  0  0  0  0  0  0  0  0
    6.2077    1.9318   -1.7139 H   0  0  0  0  0  0  0  0  0  0  0  0
    8.9353    2.9995   -0.8401 H   0  0  0  0  0  0  0  0  0  0  0  0
    8.5492    2.2247   -2.3742 H   0  0  0  0  0  0  0  0  0  0  0  0
    6.1236   -0.3598   -0.3391 H   0  0  0  0  0  0  0  0  0  0  0  0
   -2.7967    1.1283   -0.9250 H   0  0  0  0  0  0  0  0  0  0  0  0
   -5.1665   -1.5366    0.1811 H   0  0  0  0  0  0  0  0  0  0  0  0
   -4.6011    2.6541   -0.7899 H   0  0  0  0  0  0  0  0  0  0  0  0
   -7.4630   -1.1301    0.6662 H   0  0  0  0  0  0  0  0  0  0  0  0
   -6.9708    3.0535   -0.2993 H   0  0  0  0  0  0  0  0  0  0  0  0
   -9.9110   -0.4817    1.1911 H   0  0  0  0  0  0  0  0  0  0  0  0
   -9.5329   -0.5097   -0.5633 H   0  0  0  0  0  0  0  0  0  0  0  0
  -10.7848    0.5737    0.0448 H   0  0  0  0  0  0  0  0  0  0  0  0
  1 11  1  0  0  0  0
  1 14  1  0  0  0  0
  2 10  1  0  0  0  0
  2 15  1  0  0  0  0
  3 13  1  0  0  0  0
  3 22  1  0  0  0  0
  4 22  2  0  0  0  0
  5 23  2  0  0  0  0
  6 30  2  0  0  0  0
  7 12  1  0  0  0  0
  7 23  1  0  0  0  0
  7 40  1  0  0  0  0
  8 16  1  0  0  0  0
  8 22  1  0  0  0  0
  8 52  1  0  0  0  0
  9 23  1  0  0  0  0
  9 24  1  0  0  0  0
  9 53  1  0  0  0  0
 10 11  1  0  0  0  0
 10 12  1  0  0  0  0
 10 32  1  0  0  0  0
 11 13  1  0  0  0  0
 11 33  1  0  0  0  0
 12 14  1  0  0  0  0
 12 34  1  0  0  0  0
 13 15  1  0  0  0  0
 13 35  1  0  0  0  0
 14 36  1  0  0  0  0
 14 37  1  0  0  0  0
 15 38  1  0  0  0  0
 15 39  1  0  0  0  0
 16 17  1  0  0  0  0
 16 18  1  0  0  0  0
 16 41  1  0  0  0  0
 17 19  1  0  0  0  0
 17 42  1  0  0  0  0
 17 43  1  0  0  0  0
 18 20  1  0  0  0  0
 18 44  1  0  0  0  0
 18 45  1  0  0  0  0
 19 21  1  0  0  0  0
 19 46  1  0  0  0  0
 19 47  1  0  0  0  0
 20 21  1  0  0  0  0
 20 48  1  0  0  0  0
 20 49  1  0  0  0  0
 21 50  1  0  0  0  0
 21 51  1  0  0  0  0
 24 25  2  0  0  0  0
 24 26  1  0  0  0  0
 25 27  1  0  0  0  0
 25 54  1  0  0  0  0
 26 28  2  0  0  0  0
 26 55  1  0  0  0  0
 27 29  2  0  0  0  0
 27 56  1  0  0  0  0
 28 29  1  0  0  0  0
 28 57  1  0  0  0  0
 29 30  1  0  0  0  0
 30 31  1  0  0  0  0
 31 58  1  0  0  0  0
 31 59  1  0  0  0  0
 31 60  1  0  0  0  0
M  END
> <PUBCHEM_COMPOUND_CID>
40586239

> <PUBCHEM_CONFORMER_RMSD>
1

> <PUBCHEM_CONFORMER_DIVERSEORDER>
1
35
38
61
59
6
14
52
46
31
23
56
13
48
40
39
17
29
19
47
54
62
60
18
58
43
21
33
30
26
16
11
51
41
7
50
65
64
25
34
15
8
44
12
57
4
2
55
9
3
20
24
63
28
10
42
32
37
5
49
36
45
27
53
22

> <PUBCHEM_MMFF94_PARTIAL_CHARGES>
33
1 -0.56
10 0.28
11 0.28
12 0.3
13 0.28
14 0.28
15 0.28
16 0.3
2 -0.56
22 0.78
23 0.69
24 0.12
25 -0.15
26 -0.15
27 -0.15
28 -0.15
29 0.09
3 -0.43
30 0.42
31 0.06
4 -0.57
40 0.37
5 -0.57
52 0.37
53 0.37
54 0.15
55 0.15
56 0.15
57 0.15
6 -0.57
7 -0.73
8 -0.73
9 -0.55

> <PUBCHEM_EFFECTIVE_ROTOR_COUNT>
11.4

> <PUBCHEM_PHARMACOPHORE_FEATURES>
12
1 1 acceptor
1 2 acceptor
1 4 acceptor
1 5 acceptor
1 6 acceptor
1 7 donor
1 8 donor
1 9 donor
5 1 10 11 12 14 rings
5 2 10 11 13 15 rings
6 16 17 18 19 20 21 rings
6 24 25 26 27 28 29 rings

> <PUBCHEM_HEAVY_ATOM_COUNT>
31

> <PUBCHEM_ATOM_DEF_STEREO_COUNT>
4

> <PUBCHEM_ATOM_UDEF_STEREO_COUNT>
0

> <PUBCHEM_BOND_DEF_STEREO_COUNT>
0

> <PUBCHEM_BOND_UDEF_STEREO_COUNT>
0

> <PUBCHEM_ISOTOPIC_ATOM_COUNT>
0

> <PUBCHEM_COMPONENT_COUNT>
1

> <PUBCHEM_CACTVS_TAUTO_COUNT>
32

> <PUBCHEM_CONFORMER_ID>
026B4BFF00000001

> <PUBCHEM_MMFF94_ENERGY>
72.4821

> <PUBCHEM_FEATURE_SELFOVERLAP>
61.667

> <PUBCHEM_SHAPE_FINGERPRINT>
10 15 18259702294207843771
106641 1 16805041826127236195
10670039 82 15482677862082969363
10693767 8 10952054446630954092
10883706 17 10519689125195680940
10952577 141 18338242678013441140
11146346 171 18130516287672895358
11386260 185 14836113390737720290
11399510 152 14925038554541100060
11409948 41 13829864474245632036
12013929 112 14836130927474674521
12539765 74 18342742931708774894
14026016 60 14117531896106763772
14565420 104 18113613474418674410
14617042 71 18341335501264875001
14664723 55 17418098740809053121
14747281 78 18261684710364876014
14849402 71 18260547869831106245
15183329 4 14046026299512188430
15188451 53 11602817982525327798
15350500 16 8646772183693684080
15419008 91 17531798036484939605
15510800 12 11675150428811192408
15706992 2 18408893944364167360
1577012 14 18201428186198979598
15840311 113 18408608033097807486
16126227 98 18410291428423600971
16989713 51 17416114213038035967
16992610 120 18410020957580176358
17686467 74 18336260250322401667
18393751 57 17675919906733809642
18603816 31 12396589563792533465
19302320 297 18113622317735328612
20105231 36 11671771707890975781
2026 5 9006790781882516345
20505436 4 18201993326665428199
21130935 74 18265900147762024915
212700 22 10737285753582554337
21344244 78 16515691004956704247
21585482 111 18263359209478894181
22224240 67 17603581937030390722
23528940 14 10591505871692760684
23729398 52 18120091685630386106
24771293 8 18413108347645142509
25269216 80 16629949032870312549
3418910 222 17988931051037420249
3711267 37 17988931088663419417
4073 2 18334014991269947571
4169191 19 18335977602165888109
4408954 87 14851603302134370224
504579 68 14189575234772974325
5718773 13 9583524222149211666
5758199 1 18333448746342931970
58260988 587 18334858282349857778
5911458 16 18335704961963402260
59682541 35 16805325491648011665
6081469 158 12247680470205817209
6126387 218 14923935740241112015
6201320 82 16629135248585985153
6438161 24 8718826483317544693
9689198 14 18412265060411396966
9953998 17 17458063789951099875
9962374 69 11747228990768409833

> <PUBCHEM_SHAPE_MULTIPOLES>
587.81
32.7
3.02
1.27
21.32
0.44
-0.15
-30.61
4.37
-2.39
-0.14
-1.73
0
-1.76

> <PUBCHEM_SHAPE_SELFOVERLAP>
1245.354

> <PUBCHEM_SHAPE_VOLUME>
326.7

> <PUBCHEM_COORDINATE_TYPE>
2
5
10

$$$$
