56775464
  -OEChem-12032416343D

 46 48  0     0  0  0  0  0  0999 V2000
    1.4942   -2.2700   -0.2960 F   0  0  0  0  0  0  0  0  0  0  0  0
    0.8488    3.9455   -1.0038 O   0  0  0  0  0  0  0  0  0  0  0  0
   -3.7361    0.7452   -0.1319 O   0  0  0  0  0  0  0  0  0  0  0  0
    1.0915    0.9162   -0.3741 N   0  0  0  0  0  0  0  0  0  0  0  0
   -2.8445    1.7556    0.2072 N   0  0  0  0  0  0  0  0  0  0  0  0
    0.3891    2.1297    0.0197 C   0  0  0  0  0  0  0  0  0  0  0  0
   -0.0753    2.8581   -1.2365 C   0  0  0  0  0  0  0  0  0  0  0  0
    1.4006    3.2634    0.1453 C   0  0  0  0  0  0  0  0  0  0  0  0
   -0.6123    1.8979    1.1591 C   0  0  0  0  0  0  0  0  0  0  0  0
   -1.7741    1.1224    0.6956 C   0  0  0  0  0  0  0  0  0  0  0  0
    1.7610    0.3341    0.7866 C   0  0  0  0  0  0  0  0  0  0  0  0
   -4.0325   -1.7008   -0.1515 C   0  0  0  0  0  0  0  0  0  0  0  0
   -1.9315   -0.2742    0.6896 C   0  0  0  0  0  0  0  0  0  0  0  0
   -3.1812   -0.4589    0.1601 C   0  0  0  0  0  0  0  0  0  0  0  0
    2.9387   -0.5147    0.3873 C   0  0  0  0  0  0  0  0  0  0  0  0
   -5.4145   -1.3745   -0.7618 C   0  0  0  0  0  0  0  0  0  0  0  0
   -3.2889   -2.6004   -1.1625 C   0  0  0  0  0  0  0  0  0  0  0  0
   -4.2843   -2.4971    1.1472 C   0  0  0  0  0  0  0  0  0  0  0  0
    2.7358   -1.7898   -0.1401 C   0  0  0  0  0  0  0  0  0  0  0  0
    4.2346   -0.0234    0.5453 C   0  0  0  0  0  0  0  0  0  0  0  0
    3.8286   -2.5739   -0.5095 C   0  0  0  0  0  0  0  0  0  0  0  0
    5.3276   -0.8076    0.1760 C   0  0  0  0  0  0  0  0  0  0  0  0
    5.1247   -2.0829   -0.3514 C   0  0  0  0  0  0  0  0  0  0  0  0
    0.1183    2.3773   -2.2018 H   0  0  0  0  0  0  0  0  0  0  0  0
   -1.1018    3.2352   -1.2362 H   0  0  0  0  0  0  0  0  0  0  0  0
    1.3073    3.8799    1.0455 H   0  0  0  0  0  0  0  0  0  0  0  0
    2.4599    3.0341   -0.0138 H   0  0  0  0  0  0  0  0  0  0  0  0
   -0.9671    2.8754    1.5166 H   0  0  0  0  0  0  0  0  0  0  0  0
   -0.1590    1.4361    2.0426 H   0  0  0  0  0  0  0  0  0  0  0  0
    0.5135    0.2107   -0.8292 H   0  0  0  0  0  0  0  0  0  0  0  0
    1.0714   -0.2966    1.3608 H   0  0  0  0  0  0  0  0  0  0  0  0
    2.1215    1.0980    1.4883 H   0  0  0  0  0  0  0  0  0  0  0  0
   -1.2441   -1.0381    1.0211 H   0  0  0  0  0  0  0  0  0  0  0  0
   -5.3099   -0.8241   -1.7041 H   0  0  0  0  0  0  0  0  0  0  0  0
   -6.0089   -0.7519   -0.0828 H   0  0  0  0  0  0  0  0  0  0  0  0
   -5.9885   -2.2849   -0.9687 H   0  0  0  0  0  0  0  0  0  0  0  0
   -2.3195   -2.9267   -0.7680 H   0  0  0  0  0  0  0  0  0  0  0  0
   -3.0972   -2.0651   -2.0999 H   0  0  0  0  0  0  0  0  0  0  0  0
   -3.8687   -3.4996   -1.3998 H   0  0  0  0  0  0  0  0  0  0  0  0
   -4.8150   -1.8868    1.8874 H   0  0  0  0  0  0  0  0  0  0  0  0
   -3.3424   -2.8213    1.6050 H   0  0  0  0  0  0  0  0  0  0  0  0
   -4.8846   -3.3939    0.9564 H   0  0  0  0  0  0  0  0  0  0  0  0
    4.4085    0.9692    0.9521 H   0  0  0  0  0  0  0  0  0  0  0  0
    3.6702   -3.5666   -0.9203 H   0  0  0  0  0  0  0  0  0  0  0  0
    6.3367   -0.4250    0.2985 H   0  0  0  0  0  0  0  0  0  0  0  0
    5.9755   -2.6934   -0.6391 H   0  0  0  0  0  0  0  0  0  0  0  0
  1 19  1  0  0  0  0
  2  7  1  0  0  0  0
  2  8  1  0  0  0  0
  3  5  1  0  0  0  0
  3 14  1  0  0  0  0
  4  6  1  0  0  0  0
  4 11  1  0  0  0  0
  4 30  1  0  0  0  0
  5 10  2  0  0  0  0
  6  7  1  0  0  0  0
  6  8  1  0  0  0  0
  6  9  1  0  0  0  0
  7 24  1  0  0  0  0
  7 25  1  0  0  0  0
  8 26  1  0  0  0  0
  8 27  1  0  0  0  0
  9 10  1  0  0  0  0
  9 28  1  0  0  0  0
  9 29  1  0  0  0  0
 10 13  1  0  0  0  0
 11 15  1  0  0  0  0
 11 31  1  0  0  0  0
 11 32  1  0  0  0  0
 12 14  1  0  0  0  0
 12 16  1  0  0  0  0
 12 17  1  0  0  0  0
 12 18  1  0  0  0  0
 13 14  2  0  0  0  0
 13 33  1  0  0  0  0
 15 19  1  0  0  0  0
 15 20  2  0  0  0  0
 16 34  1  0  0  0  0
 16 35  1  0  0  0  0
 16 36  1  0  0  0  0
 17 37  1  0  0  0  0
 17 38  1  0  0  0  0
 17 39  1  0  0  0  0
 18 40  1  0  0  0  0
 18 41  1  0  0  0  0
 18 42  1  0  0  0  0
 19 21  2  0  0  0  0
 20 22  1  0  0  0  0
 20 43  1  0  0  0  0
 21 23  1  0  0  0  0
 21 44  1  0  0  0  0
 22 23  2  0  0  0  0
 22 45  1  0  0  0  0
 23 46  1  0  0  0  0
M  END
> <PUBCHEM_COMPOUND_CID>
56775464

> <PUBCHEM_CONFORMER_RMSD>
0.8

> <PUBCHEM_CONFORMER_DIVERSEORDER>
1
16
120
54
76
148
171
158
160
129
152
21
8
159
146
166
118
60
187
154
153
145
163
176
37
89
70
143
80
167
12
116
162
74
107
192
58
183
122
78
172
92
157
82
96
97
190
114
141
155
121
79
69
150
61
115
13
156
126
151
111
179
142
161
132
51
133
112
170
84
168
189
17
98
165
138
48
88
86
9
99
117
128
139
123
110
124
108
50
140
10
178
188
62
29
34
100
36
193
101
18
42
164
180
90
185
174
177
68
65
191
125
91
93
11
134
130
77
55
53
144
137
182
24
119
49
109
181
27
75
87
113
19
40
94
184
59
173
32
72
47
57
83
135
103
66
14
136
127
22
105
81
175
169
131
73
71
44
102
149
186
25
38
15
56
63
67
106
43
6
147
26
64
7
28
85
20
104
30
31
4
52
45
95
5
3
41
23
33
2
46
39
35

> <PUBCHEM_MMFF94_PARTIAL_CHARGES>
26
1 -0.19
10 0.11
11 0.41
12 0.18
13 -0.15
14 -0.04
15 -0.14
19 0.19
2 -0.52
20 -0.15
21 -0.15
22 -0.15
23 -0.15
3 -0.02
30 0.36
33 0.15
4 -0.84
43 0.15
44 0.15
45 0.15
46 0.15
5 -0.41
6 0.21
7 0.26
8 0.26
9 0.18

> <PUBCHEM_EFFECTIVE_ROTOR_COUNT>
6.8

> <PUBCHEM_PHARMACOPHORE_FEATURES>
8
1 2 acceptor
1 4 cation
1 4 donor
1 5 acceptor
4 12 16 17 18 hydrophobe
4 2 6 7 8 rings
5 3 5 10 13 14 rings
6 15 19 20 21 22 23 rings

> <PUBCHEM_HEAVY_ATOM_COUNT>
23

> <PUBCHEM_ATOM_DEF_STEREO_COUNT>
0

> <PUBCHEM_ATOM_UDEF_STEREO_COUNT>
0

> <PUBCHEM_BOND_DEF_STEREO_COUNT>
0

> <PUBCHEM_BOND_UDEF_STEREO_COUNT>
0

> <PUBCHEM_ISOTOPIC_ATOM_COUNT>
0

> <PUBCHEM_COMPONENT_COUNT>
1

> <PUBCHEM_CACTVS_TAUTO_COUNT>
1

> <PUBCHEM_CONFORMER_ID>
0362532800000001

> <PUBCHEM_MMFF94_ENERGY>
52.4732

> <PUBCHEM_FEATURE_SELFOVERLAP>
40.596

> <PUBCHEM_SHAPE_FINGERPRINT>
11045515 52 18260831466521388036
11069576 57 17839162353805383455
11315621 246 18125175848733967438
11552529 35 17988076682439553322
12553582 1 18265073408156043051
12623949 98 17560531620629336302
12969540 37 18341322409613342672
13004483 165 18192423069976561595
13149001 5 17386300911704214336
13544653 18 18343866618994549587
138480 1 14735637350684619336
1454969 45 18338514261817644256
14863182 85 17979071909841958232
15196674 1 18342457006697175258
15352361 1 18412262830801520651
15415430 10 18411418401702690690
15849732 13 18192443965721288601
17357779 13 18339065034583713822
17492 54 18042419095919177700
17492 89 18265615566753565779
1813 80 18334010601205955496
19141452 34 18197222455554617633
20291156 8 18413388739345660235
20645477 70 18118674659642783035
20775530 9 18411978057258284819
21421861 104 18126311811490383441
21673915 165 18272367564390547562
221490 88 18263648527181106747
23402539 116 18335419033005125610
23559900 14 18337663239385177249
26353 1 17676489423565697932
3421961 26 18339360880468431120
4280585 95 18261663814414550712
46194498 28 17969208118309563565
463206 1 18127689538062224447
5104073 3 18129941174777786826
5207 123 18411412913124818245
6669772 16 17835255810883911148
9709674 26 18190179177656773283

> <PUBCHEM_SHAPE_MULTIPOLES>
444.35
10.77
4.27
1.04
0.25
2.52
-0.03
-11.11
-0.43
0.62
-1.16
-0.5
0.12
0.02

> <PUBCHEM_SHAPE_SELFOVERLAP>
940.362

> <PUBCHEM_SHAPE_VOLUME>
253.2

> <PUBCHEM_COORDINATE_TYPE>
2
5
10

$$$$
