75536398
  -OEChem-12032416413D

 65 68  0     1  0  0  0  0  0999 V2000
    3.3118   -1.2204    0.7833 O   0  0  0  0  0  0  0  0  0  0  0  0
    6.0962   -1.1718    1.7493 O   0  0  0  0  0  0  0  0  0  0  0  0
   -3.2585    4.2787   -0.1106 O   0  0  0  0  0  0  0  0  0  0  0  0
   -0.6670   -1.8157   -2.0174 O   0  0  0  0  0  0  0  0  0  0  0  0
   -6.2354   -1.6355    0.9103 O   0  0  0  0  0  0  0  0  0  0  0  0
    1.8984    1.2170    1.2453 N   0  0  0  0  0  0  0  0  0  0  0  0
   -0.9680    3.9256   -0.2739 N   0  0  0  0  0  0  0  0  0  0  0  0
    0.6884   -1.9798   -2.2760 N   0  0  0  0  0  0  0  0  0  0  0  0
    3.9876   -0.0806    1.3304 C   0  0  1  0  0  0  0  0  0  0  0  0
    1.2679    2.4769    0.8591 C   0  0  0  0  0  0  0  0  0  0  0  0
    5.4870   -0.1121    1.0070 C   0  0  2  0  0  0  0  0  0  0  0  0
    3.4772   -1.4078   -0.6243 C   0  0  1  0  0  0  0  0  0  0  0  0
    3.3116    1.2192    0.8990 C   0  0  0  0  0  0  0  0  0  0  0  0
    5.7571   -0.3658   -0.4737 C   0  0  0  0  0  0  0  0  0  0  0  0
    4.9556   -1.5627   -0.9773 C   0  0  0  0  0  0  0  0  0  0  0  0
    1.0033    2.4919   -0.6520 C   0  0  0  0  0  0  0  0  0  0  0  0
   -0.0416    2.6698    1.6345 C   0  0  0  0  0  0  0  0  0  0  0  0
    0.2577    3.7607   -1.0653 C   0  0  0  0  0  0  0  0  0  0  0  0
   -0.7655    3.9346    1.1764 C   0  0  0  0  0  0  0  0  0  0  0  0
    2.6924   -2.6540   -1.0161 C   0  0  0  0  0  0  0  0  0  0  0  0
    1.2165   -2.3755   -1.1143 C   0  0  0  0  0  0  0  0  0  0  0  0
   -2.2480    4.1060   -0.7970 C   0  0  0  0  0  0  0  0  0  0  0  0
    0.2521   -2.4777   -0.0969 C   0  0  0  0  0  0  0  0  0  0  0  0
   -2.3737    4.0811   -2.2993 C   0  0  0  0  0  0  0  0  0  0  0  0
   -0.9145   -2.1151   -0.7165 C   0  0  0  0  0  0  0  0  0  0  0  0
   -2.2810   -1.9931   -0.2990 C   0  0  0  0  0  0  0  0  0  0  0  0
   -2.6362   -2.2817    1.0187 C   0  0  0  0  0  0  0  0  0  0  0  0
   -3.2550   -1.5853   -1.2104 C   0  0  0  0  0  0  0  0  0  0  0  0
   -3.9651   -2.1626    1.4250 C   0  0  0  0  0  0  0  0  0  0  0  0
   -4.5840   -1.4662   -0.8043 C   0  0  0  0  0  0  0  0  0  0  0  0
   -4.9391   -1.7547    0.5134 C   0  0  0  0  0  0  0  0  0  0  0  0
   -6.5281   -1.9435    2.2726 C   0  0  0  0  0  0  0  0  0  0  0  0
    3.8778   -0.1792    2.4184 H   0  0  0  0  0  0  0  0  0  0  0  0
    1.9220    3.3206    1.1200 H   0  0  0  0  0  0  0  0  0  0  0  0
    5.9665    0.8190    1.3287 H   0  0  0  0  0  0  0  0  0  0  0  0
    3.0682   -0.5419   -1.1587 H   0  0  0  0  0  0  0  0  0  0  0  0
    3.4435    1.3628   -0.1761 H   0  0  0  0  0  0  0  0  0  0  0  0
    3.8187    2.0548    1.3983 H   0  0  0  0  0  0  0  0  0  0  0  0
    6.8234   -0.5555   -0.6435 H   0  0  0  0  0  0  0  0  0  0  0  0
    5.4884    0.5219   -1.0580 H   0  0  0  0  0  0  0  0  0  0  0  0
    5.0849   -1.6659   -2.0607 H   0  0  0  0  0  0  0  0  0  0  0  0
    5.3535   -2.4741   -0.5131 H   0  0  0  0  0  0  0  0  0  0  0  0
    0.4026    1.6165   -0.9338 H   0  0  0  0  0  0  0  0  0  0  0  0
    1.9339    2.4422   -1.2267 H   0  0  0  0  0  0  0  0  0  0  0  0
    0.1556    2.7334    2.7114 H   0  0  0  0  0  0  0  0  0  0  0  0
   -0.6994    1.8043    1.4765 H   0  0  0  0  0  0  0  0  0  0  0  0
    1.8057    1.0800    2.2518 H   0  0  0  0  0  0  0  0  0  0  0  0
    0.0513    3.7257   -2.1364 H   0  0  0  0  0  0  0  0  0  0  0  0
    0.8804    4.6451   -0.8849 H   0  0  0  0  0  0  0  0  0  0  0  0
   -0.1740    4.8254    1.4191 H   0  0  0  0  0  0  0  0  0  0  0  0
   -1.7209    4.0231    1.7032 H   0  0  0  0  0  0  0  0  0  0  0  0
    2.8526   -3.4568   -0.2850 H   0  0  0  0  0  0  0  0  0  0  0  0
    3.0341   -3.0303   -1.9890 H   0  0  0  0  0  0  0  0  0  0  0  0
    7.0513   -1.1458    1.5686 H   0  0  0  0  0  0  0  0  0  0  0  0
    0.3960   -2.7722    0.9324 H   0  0  0  0  0  0  0  0  0  0  0  0
   -2.0471    3.1136   -2.6899 H   0  0  0  0  0  0  0  0  0  0  0  0
   -3.4219    4.2250   -2.5792 H   0  0  0  0  0  0  0  0  0  0  0  0
   -1.7888    4.8919   -2.7415 H   0  0  0  0  0  0  0  0  0  0  0  0
   -1.8989   -2.6011    1.7509 H   0  0  0  0  0  0  0  0  0  0  0  0
   -3.0178   -1.3508   -2.2450 H   0  0  0  0  0  0  0  0  0  0  0  0
   -4.1717   -2.4018    2.4626 H   0  0  0  0  0  0  0  0  0  0  0  0
   -5.3385   -1.1473   -1.5183 H   0  0  0  0  0  0  0  0  0  0  0  0
   -7.6037   -1.7946    2.4136 H   0  0  0  0  0  0  0  0  0  0  0  0
   -6.0180   -1.2586    2.9585 H   0  0  0  0  0  0  0  0  0  0  0  0
   -6.3181   -2.9937    2.5018 H   0  0  0  0  0  0  0  0  0  0  0  0
  1  9  1  0  0  0  0
  1 12  1  0  0  0  0
  2 11  1  0  0  0  0
  2 54  1  0  0  0  0
  3 22  2  0  0  0  0
  4  8  1  0  0  0  0
  4 25  1  0  0  0  0
  5 31  1  0  0  0  0
  5 32  1  0  0  0  0
  6 10  1  0  0  0  0
  6 13  1  0  0  0  0
  6 47  1  0  0  0  0
  7 18  1  0  0  0  0
  7 19  1  0  0  0  0
  7 22  1  0  0  0  0
  8 21  2  0  0  0  0
  9 11  1  0  0  0  0
  9 13  1  0  0  0  0
  9 33  1  0  0  0  0
 10 16  1  0  0  0  0
 10 17  1  0  0  0  0
 10 34  1  0  0  0  0
 11 14  1  0  0  0  0
 11 35  1  0  0  0  0
 12 15  1  0  0  0  0
 12 20  1  0  0  0  0
 12 36  1  0  0  0  0
 13 37  1  0  0  0  0
 13 38  1  0  0  0  0
 14 15  1  0  0  0  0
 14 39  1  0  0  0  0
 14 40  1  0  0  0  0
 15 41  1  0  0  0  0
 15 42  1  0  0  0  0
 16 18  1  0  0  0  0
 16 43  1  0  0  0  0
 16 44  1  0  0  0  0
 17 19  1  0  0  0  0
 17 45  1  0  0  0  0
 17 46  1  0  0  0  0
 18 48  1  0  0  0  0
 18 49  1  0  0  0  0
 19 50  1  0  0  0  0
 19 51  1  0  0  0  0
 20 21  1  0  0  0  0
 20 52  1  0  0  0  0
 20 53  1  0  0  0  0
 21 23  1  0  0  0  0
 22 24  1  0  0  0  0
 23 25  2  0  0  0  0
 23 55  1  0  0  0  0
 24 56  1  0  0  0  0
 24 57  1  0  0  0  0
 24 58  1  0  0  0  0
 25 26  1  0  0  0  0
 26 27  2  0  0  0  0
 26 28  1  0  0  0  0
 27 29  1  0  0  0  0
 27 59  1  0  0  0  0
 28 30  2  0  0  0  0
 28 60  1  0  0  0  0
 29 31  2  0  0  0  0
 29 61  1  0  0  0  0
 30 31  1  0  0  0  0
 30 62  1  0  0  0  0
 32 63  1  0  0  0  0
 32 64  1  0  0  0  0
 32 65  1  0  0  0  0
M  END
> <PUBCHEM_COMPOUND_CID>
75536398

> <PUBCHEM_CONFORMER_RMSD>
1

> <PUBCHEM_CONFORMER_DIVERSEORDER>
2
134
55
58
111
169
119
122
96
121
78
152
127
166
70
33
135
69
1
94
125
171
136
145
73
46
142
130
112
29
156
15
139
56
77
51
76
75
61
174
54
168
143
131
170
157
36
150
151
68
160
165
74
141
40
6
35
87
104
14
91
172
81
95
173
84
42
101
86
164
66
107
45
123
163
31
140
103
137
62
83
67
53
9
79
162
41
20
25
32
82
89
97
155
129
132
3
37
115
39
106
85
22
108
49
124
113
148
161
167
47
27
44
146
17
7
99
154
147
158
138
133
71
116
59
13
153
52
118
5
92
149
43
159
110
50
57
8
23
117
72
28
128
90
11
109
120
102
63
60
65
105
98
114
80
93
48
4
24
100
144
30
18
34
38
12
88
126
64
19
16
21
26
10

> <PUBCHEM_MMFF94_PARTIAL_CHARGES>
35
1 -0.56
10 0.27
11 0.28
12 0.28
13 0.27
18 0.3
19 0.3
2 -0.68
20 0.18
21 0.11
22 0.57
23 -0.15
24 0.06
25 0.09
26 0.05
27 -0.15
28 -0.15
29 -0.15
3 -0.57
30 -0.15
31 0.08
32 0.28
4 -0.02
47 0.36
5 -0.36
54 0.4
55 0.15
59 0.15
6 -0.9
60 0.15
61 0.15
62 0.15
7 -0.66
8 -0.41
9 0.28

> <PUBCHEM_EFFECTIVE_ROTOR_COUNT>
10.4

> <PUBCHEM_PHARMACOPHORE_FEATURES>
12
1 1 acceptor
1 2 acceptor
1 2 donor
1 3 acceptor
1 5 acceptor
1 6 cation
1 6 donor
1 8 acceptor
5 4 8 21 23 25 rings
6 1 9 11 12 14 15 rings
6 26 27 28 29 30 31 rings
6 7 10 16 17 18 19 rings

> <PUBCHEM_HEAVY_ATOM_COUNT>
32

> <PUBCHEM_ATOM_DEF_STEREO_COUNT>
3

> <PUBCHEM_ATOM_UDEF_STEREO_COUNT>
0

> <PUBCHEM_BOND_DEF_STEREO_COUNT>
0

> <PUBCHEM_BOND_UDEF_STEREO_COUNT>
0

> <PUBCHEM_ISOTOPIC_ATOM_COUNT>
0

> <PUBCHEM_COMPONENT_COUNT>
1

> <PUBCHEM_CACTVS_TAUTO_COUNT>
1

> <PUBCHEM_CONFORMER_ID>
0480980E00000002

> <PUBCHEM_MMFF94_ENERGY>
64.8566

> <PUBCHEM_FEATURE_SELFOVERLAP>
60.9

> <PUBCHEM_SHAPE_FINGERPRINT>
10688039 33 18408325492731745634
11421498 54 18113331995083627994
12156800 1 18196680443730178332
12422481 6 18201450168426643539
12539745 222 17749658607333428738
12788726 201 18335421275188862162
13075007 39 18118412966800706603
13402501 40 18270955757063581325
13561361 72 18338798896888017113
14363568 33 18122349244129213820
150020 26 18050852423049832193
151778 21 17688317102490200689
15276724 80 18271523204686524940
15419008 47 18040990779022860063
16993438 75 18269262466069905453
20775438 99 17552329113076527038
21360442 67 17614842912380437173
6086070 43 18046595027864818343

> <PUBCHEM_SHAPE_MULTIPOLES>
614.26
12.35
6.37
2.01
1.11
9.91
0.1
-10.72
-5.98
5.11
1.79
0.74
0.05
2.62

> <PUBCHEM_SHAPE_SELFOVERLAP>
1292.277

> <PUBCHEM_SHAPE_VOLUME>
345

> <PUBCHEM_COORDINATE_TYPE>
2
5
10

$$$$
