38028272
  -OEChem-12032416253D

 70 72  0     1  0  0  0  0  0999 V2000
   -1.1382    3.8102    0.5935 O   0  0  0  0  0  0  0  0  0  0  0  0
   -0.5737   -2.2614   -2.0142 O   0  0  0  0  0  0  0  0  0  0  0  0
    4.7182   -2.7836    1.9613 O   0  0  0  0  0  0  0  0  0  0  0  0
   -2.0209   -2.6029   -0.2419 N   0  0  0  0  0  0  0  0  0  0  0  0
    0.2945    2.3530    1.7003 N   0  0  0  0  0  0  0  0  0  0  0  0
    0.2534   -2.6056    0.1556 N   0  0  0  0  0  0  0  0  0  0  0  0
    2.2327    4.1285   -0.3433 N   0  0  0  0  0  0  0  0  0  0  0  0
   -4.1491   -0.5703    0.3768 C   0  0  1  0  0  0  0  0  0  0  0  0
   -3.7393   -1.0637   -1.0333 C   0  0  1  0  0  0  0  0  0  0  0  0
   -4.2398    0.9631    0.4030 C   0  0  0  0  0  0  0  0  0  0  0  0
   -2.9062    1.6322    0.0202 C   0  0  2  0  0  0  0  0  0  0  0  0
   -5.4822   -1.1765    0.8264 C   0  0  0  0  0  0  0  0  0  0  0  0
   -2.3010    1.0113   -1.2224 C   0  0  0  0  0  0  0  0  0  0  0  0
   -2.6953   -0.1881   -1.6858 C   0  0  0  0  0  0  0  0  0  0  0  0
   -3.2363   -2.5111   -0.9884 C   0  0  0  0  0  0  0  0  0  0  0  0
   -1.9154    1.5978    1.1891 C   0  0  0  0  0  0  0  0  0  0  0  0
   -5.5753   -1.1874    2.3489 C   0  0  0  0  0  0  0  0  0  0  0  0
   -6.6492   -0.4051    0.2185 C   0  0  0  0  0  0  0  0  0  0  0  0
   -1.2628    1.8218   -1.9473 C   0  0  0  0  0  0  0  0  0  0  0  0
   -0.9068    2.7216    1.1128 C   0  0  0  0  0  0  0  0  0  0  0  0
   -0.7429   -2.4694   -0.8152 C   0  0  0  0  0  0  0  0  0  0  0  0
    1.4406    3.2301    1.7703 C   0  0  0  0  0  0  0  0  0  0  0  0
    2.3095    3.1176    0.5510 C   0  0  0  0  0  0  0  0  0  0  0  0
    1.6547   -2.5354   -0.0231 C   0  0  0  0  0  0  0  0  0  0  0  0
    3.1305    2.0113    0.4027 C   0  0  0  0  0  0  0  0  0  0  0  0
    2.5061   -2.6969    1.0700 C   0  0  0  0  0  0  0  0  0  0  0  0
    2.1854   -2.3040   -1.2922 C   0  0  0  0  0  0  0  0  0  0  0  0
    3.9236    1.9378   -0.7370 C   0  0  0  0  0  0  0  0  0  0  0  0
    3.8881   -2.6270    0.8942 C   0  0  0  0  0  0  0  0  0  0  0  0
    3.5674   -2.2339   -1.4681 C   0  0  0  0  0  0  0  0  0  0  0  0
    3.0181    4.0223   -1.4384 C   0  0  0  0  0  0  0  0  0  0  0  0
    4.4188   -2.3957   -0.3751 C   0  0  0  0  0  0  0  0  0  0  0  0
    3.8724    2.9585   -1.6800 C   0  0  0  0  0  0  0  0  0  0  0  0
    6.1205   -2.6993    1.7107 C   0  0  0  0  0  0  0  0  0  0  0  0
   -3.3729   -0.8672    1.0939 H   0  0  0  0  0  0  0  0  0  0  0  0
   -4.6142   -1.0435   -1.6952 H   0  0  0  0  0  0  0  0  0  0  0  0
   -4.5670    1.3321    1.3817 H   0  0  0  0  0  0  0  0  0  0  0  0
   -4.9734    1.3206   -0.3312 H   0  0  0  0  0  0  0  0  0  0  0  0
   -3.1604    2.6751   -0.2132 H   0  0  0  0  0  0  0  0  0  0  0  0
   -5.5589   -2.2182    0.4985 H   0  0  0  0  0  0  0  0  0  0  0  0
   -2.2870   -0.5420   -2.6295 H   0  0  0  0  0  0  0  0  0  0  0  0
   -3.0584   -2.8816   -2.0054 H   0  0  0  0  0  0  0  0  0  0  0  0
   -3.9596   -3.1877   -0.5260 H   0  0  0  0  0  0  0  0  0  0  0  0
   -1.4076    0.6264    1.2370 H   0  0  0  0  0  0  0  0  0  0  0  0
   -2.4407    1.7334    2.1430 H   0  0  0  0  0  0  0  0  0  0  0  0
   -5.5453   -0.1798    2.7747 H   0  0  0  0  0  0  0  0  0  0  0  0
   -4.7547   -1.7657    2.7871 H   0  0  0  0  0  0  0  0  0  0  0  0
   -6.5134   -1.6528    2.6712 H   0  0  0  0  0  0  0  0  0  0  0  0
   -6.7991    0.5788    0.6753 H   0  0  0  0  0  0  0  0  0  0  0  0
   -7.5787   -0.9601    0.3967 H   0  0  0  0  0  0  0  0  0  0  0  0
   -6.5618   -0.2906   -0.8659 H   0  0  0  0  0  0  0  0  0  0  0  0
   -1.6130    2.8468   -2.1054 H   0  0  0  0  0  0  0  0  0  0  0  0
   -1.0376    1.4033   -2.9346 H   0  0  0  0  0  0  0  0  0  0  0  0
   -0.3243    1.8469   -1.3871 H   0  0  0  0  0  0  0  0  0  0  0  0
   -2.0827   -2.7817    0.7556 H   0  0  0  0  0  0  0  0  0  0  0  0
    0.3933    1.4237    2.0987 H   0  0  0  0  0  0  0  0  0  0  0  0
    2.0099    2.9695    2.6693 H   0  0  0  0  0  0  0  0  0  0  0  0
    1.0917    4.2623    1.8895 H   0  0  0  0  0  0  0  0  0  0  0  0
   -0.0588   -2.7752    1.1084 H   0  0  0  0  0  0  0  0  0  0  0  0
    3.1627    1.2195    1.1436 H   0  0  0  0  0  0  0  0  0  0  0  0
    2.0994   -2.8769    2.0625 H   0  0  0  0  0  0  0  0  0  0  0  0
    1.5922   -2.1674   -2.1852 H   0  0  0  0  0  0  0  0  0  0  0  0
    4.5804    1.0869   -0.8900 H   0  0  0  0  0  0  0  0  0  0  0  0
    3.9809   -2.0522   -2.4561 H   0  0  0  0  0  0  0  0  0  0  0  0
    2.9408    4.8436   -2.1432 H   0  0  0  0  0  0  0  0  0  0  0  0
    5.4812   -2.3285   -0.5825 H   0  0  0  0  0  0  0  0  0  0  0  0
    4.4816    2.9220   -2.5758 H   0  0  0  0  0  0  0  0  0  0  0  0
    6.6295   -2.8469    2.6688 H   0  0  0  0  0  0  0  0  0  0  0  0
    6.4050   -1.7061    1.3470 H   0  0  0  0  0  0  0  0  0  0  0  0
    6.4586   -3.4987    1.0425 H   0  0  0  0  0  0  0  0  0  0  0  0
  1 20  2  0  0  0  0
  2 21  2  0  0  0  0
  3 29  1  0  0  0  0
  3 34  1  0  0  0  0
  4 15  1  0  0  0  0
  4 21  1  0  0  0  0
  4 55  1  0  0  0  0
  5 20  1  0  0  0  0
  5 22  1  0  0  0  0
  5 56  1  0  0  0  0
  6 21  1  0  0  0  0
  6 24  1  0  0  0  0
  6 59  1  0  0  0  0
  7 23  1  0  0  0  0
  7 31  2  0  0  0  0
  8  9  1  0  0  0  0
  8 10  1  0  0  0  0
  8 12  1  0  0  0  0
  8 35  1  0  0  0  0
  9 14  1  0  0  0  0
  9 15  1  0  0  0  0
  9 36  1  0  0  0  0
 10 11  1  0  0  0  0
 10 37  1  0  0  0  0
 10 38  1  0  0  0  0
 11 13  1  0  0  0  0
 11 16  1  0  0  0  0
 11 39  1  0  0  0  0
 12 17  1  0  0  0  0
 12 18  1  0  0  0  0
 12 40  1  0  0  0  0
 13 14  2  0  0  0  0
 13 19  1  0  0  0  0
 14 41  1  0  0  0  0
 15 42  1  0  0  0  0
 15 43  1  0  0  0  0
 16 20  1  0  0  0  0
 16 44  1  0  0  0  0
 16 45  1  0  0  0  0
 17 46  1  0  0  0  0
 17 47  1  0  0  0  0
 17 48  1  0  0  0  0
 18 49  1  0  0  0  0
 18 50  1  0  0  0  0
 18 51  1  0  0  0  0
 19 52  1  0  0  0  0
 19 53  1  0  0  0  0
 19 54  1  0  0  0  0
 22 23  1  0  0  0  0
 22 57  1  0  0  0  0
 22 58  1  0  0  0  0
 23 25  2  0  0  0  0
 24 26  2  0  0  0  0
 24 27  1  0  0  0  0
 25 28  1  0  0  0  0
 25 60  1  0  0  0  0
 26 29  1  0  0  0  0
 26 61  1  0  0  0  0
 27 30  2  0  0  0  0
 27 62  1  0  0  0  0
 28 33  2  0  0  0  0
 28 63  1  0  0  0  0
 29 32  2  0  0  0  0
 30 32  1  0  0  0  0
 30 64  1  0  0  0  0
 31 33  1  0  0  0  0
 31 65  1  0  0  0  0
 32 66  1  0  0  0  0
 33 67  1  0  0  0  0
 34 68  1  0  0  0  0
 34 69  1  0  0  0  0
 34 70  1  0  0  0  0
M  END
> <PUBCHEM_COMPOUND_CID>
38028272

> <PUBCHEM_CONFORMER_RMSD>
1.2

> <PUBCHEM_CONFORMER_DIVERSEORDER>
29
37
46
155
24
53
66
34
21
109
85
118
137
51
132
47
148
77
128
123
79
17
126
73
38
32
145
69
31
64
93
39
95
142
154
94
121
23
52
135
131
120
88
59
111
153
115
150
162
83
108
33
97
5
134
104
44
151
98
102
110
6
116
157
158
72
90
117
84
43
35
96
124
107
41
149
140
22
139
105
159
89
58
143
1
14
57
15
127
65
146
68
81
61
119
27
160
7
71
114
36
62
42
91
129
3
54
87
103
101
25
40
19
82
92
136
144
80
138
8
20
141
147
2
56
99
49
4
113
106
50
75
100
130
55
152
86
45
48
63
12
9
122
161
74
112
78
18
76
30
70
156
125
26
10
60
133
28
11
67
16
13

> <PUBCHEM_MMFF94_PARTIAL_CHARGES>
41
1 -0.57
11 0.14
13 -0.28
14 -0.29
15 0.3
16 0.06
19 0.14
2 -0.57
20 0.57
21 0.69
22 0.44
23 0.17
24 0.12
25 -0.15
26 -0.15
27 -0.15
28 -0.15
29 0.08
3 -0.36
30 -0.15
31 0.16
32 -0.15
33 -0.15
34 0.28
4 -0.73
41 0.15
5 -0.73
55 0.37
56 0.37
59 0.37
6 -0.55
60 0.15
61 0.15
62 0.15
63 0.15
64 0.15
65 0.15
66 0.15
67 0.15
7 -0.62
9 0.14

> <PUBCHEM_EFFECTIVE_ROTOR_COUNT>
12.8

> <PUBCHEM_PHARMACOPHORE_FEATURES>
11
1 1 acceptor
1 2 acceptor
1 3 acceptor
1 4 donor
1 5 donor
1 6 donor
1 7 acceptor
3 12 17 18 hydrophobe
6 24 26 27 29 30 32 rings
6 7 23 25 28 31 33 rings
6 8 9 10 11 13 14 rings

> <PUBCHEM_HEAVY_ATOM_COUNT>
34

> <PUBCHEM_ATOM_DEF_STEREO_COUNT>
3

> <PUBCHEM_ATOM_UDEF_STEREO_COUNT>
0

> <PUBCHEM_BOND_DEF_STEREO_COUNT>
0

> <PUBCHEM_BOND_UDEF_STEREO_COUNT>
0

> <PUBCHEM_ISOTOPIC_ATOM_COUNT>
0

> <PUBCHEM_COMPONENT_COUNT>
1

> <PUBCHEM_CACTVS_TAUTO_COUNT>
6

> <PUBCHEM_CONFORMER_ID>
024443F00000001D

> <PUBCHEM_MMFF94_ENERGY>
87.5376

> <PUBCHEM_FEATURE_SELFOVERLAP>
55.871

> <PUBCHEM_SHAPE_FINGERPRINT>
12156800 1 15409240316142284899
13560911 43 18260831484154554514
13761468 95 17544489556985588966
14114211 68 18045807803208148100
15264996 151 18186798042199610080
15264996 154 18410303523210353622
15297060 5 17832723626714508332
17627616 140 18337675338181351908
18336668 15 18335975364529624314
19319366 153 18193841663742408108
20764821 26 17909536595567565592
20771845 171 18042681879366800501
20775530 9 18412259511187492116
3298306 158 18269275840761660225
392239 28 18410019814760698819
463206 1 18343023268276220840
469060 322 18196102036136671995
474144 1 18409733958916852348

> <PUBCHEM_SHAPE_MULTIPOLES>
662.17
12.16
6.15
2.03
5.78
3.33
-0.14
-6.94
-3.81
-8.35
-0.28
-0.35
-0.04
-2.12

> <PUBCHEM_SHAPE_SELFOVERLAP>
1382.7

> <PUBCHEM_SHAPE_VOLUME>
371.9

> <PUBCHEM_COORDINATE_TYPE>
2
5
10

$$$$
