75536066
  -OEChem-12032416293D

 41 43  0     1  0  0  0  0  0999 V2000
    1.5924    3.4922   -0.9375 O   0  0  0  0  0  0  0  0  0  0  0  0
    4.0695    2.3218   -0.7543 O   0  0  0  0  0  0  0  0  0  0  0  0
   -0.1853   -0.7374   -1.4228 O   0  0  0  0  0  0  0  0  0  0  0  0
    0.0203    1.0170    0.0804 N   0  0  0  0  0  0  0  0  0  0  0  0
    2.5033   -3.3656    0.8473 N   0  0  0  0  0  0  0  0  0  0  0  0
   -7.4430   -0.2035    0.5547 N   0  0  0  0  0  0  0  0  0  0  0  0
    2.2510    0.4175    0.9746 C   0  0  2  0  0  0  0  0  0  0  0  0
    1.4398    1.2095   -0.0757 C   0  0  2  0  0  0  0  0  0  0  0  0
    1.8502    2.6595    0.1772 C   0  0  1  0  0  0  0  0  0  0  0  0
    3.4627    1.3147    1.3369 C   0  0  0  0  0  0  0  0  0  0  0  0
    3.3457    2.5530    0.4505 C   0  0  1  0  0  0  0  0  0  0  0  0
    2.6226   -0.9747    0.5094 C   0  0  0  0  0  0  0  0  0  0  0  0
    3.3934   -1.1669   -0.6317 C   0  0  0  0  0  0  0  0  0  0  0  0
    2.2062   -2.0968    1.2074 C   0  0  0  0  0  0  0  0  0  0  0  0
   -0.6835    0.0446   -0.6172 C   0  0  0  0  0  0  0  0  0  0  0  0
    3.7197   -2.4573   -1.0342 C   0  0  0  0  0  0  0  0  0  0  0  0
   -2.1465   -0.0081   -0.3643 C   0  0  0  0  0  0  0  0  0  0  0  0
    3.2544   -3.5130   -0.2671 C   0  0  0  0  0  0  0  0  0  0  0  0
   -3.0071   -0.4997   -1.3459 C   0  0  0  0  0  0  0  0  0  0  0  0
   -2.6592    0.4328    0.8557 C   0  0  0  0  0  0  0  0  0  0  0  0
   -4.3804   -0.5505   -1.1073 C   0  0  0  0  0  0  0  0  0  0  0  0
   -4.0326    0.3820    1.0942 C   0  0  0  0  0  0  0  0  0  0  0  0
   -4.8932   -0.1097    0.1127 C   0  0  0  0  0  0  0  0  0  0  0  0
   -6.3003   -0.1614    0.3566 C   0  0  0  0  0  0  0  0  0  0  0  0
    1.6468    0.3180    1.8886 H   0  0  0  0  0  0  0  0  0  0  0  0
    1.7009    0.9318   -1.1044 H   0  0  0  0  0  0  0  0  0  0  0  0
    1.3276    3.0690    1.0510 H   0  0  0  0  0  0  0  0  0  0  0  0
    3.3679    1.6144    2.3882 H   0  0  0  0  0  0  0  0  0  0  0  0
    4.4250    0.8045    1.2232 H   0  0  0  0  0  0  0  0  0  0  0  0
    3.7484    3.4565    0.9177 H   0  0  0  0  0  0  0  0  0  0  0  0
   -0.4612    1.6459    0.7136 H   0  0  0  0  0  0  0  0  0  0  0  0
    1.9635    4.3688   -0.7390 H   0  0  0  0  0  0  0  0  0  0  0  0
    5.0073    2.2231   -0.5172 H   0  0  0  0  0  0  0  0  0  0  0  0
    3.7525   -0.3279   -1.2191 H   0  0  0  0  0  0  0  0  0  0  0  0
    1.6015   -2.0143    2.1052 H   0  0  0  0  0  0  0  0  0  0  0  0
    4.3200   -2.6311   -1.9199 H   0  0  0  0  0  0  0  0  0  0  0  0
    3.4814   -4.5388   -0.5382 H   0  0  0  0  0  0  0  0  0  0  0  0
   -2.6272   -0.8438   -2.3042 H   0  0  0  0  0  0  0  0  0  0  0  0
   -2.0235    0.7908    1.6598 H   0  0  0  0  0  0  0  0  0  0  0  0
   -5.0387   -0.9354   -1.8826 H   0  0  0  0  0  0  0  0  0  0  0  0
   -4.4171    0.7224    2.0528 H   0  0  0  0  0  0  0  0  0  0  0  0
  1  9  1  0  0  0  0
  1 32  1  0  0  0  0
  2 11  1  0  0  0  0
  2 33  1  0  0  0  0
  3 15  2  0  0  0  0
  4  8  1  0  0  0  0
  4 15  1  0  0  0  0
  4 31  1  0  0  0  0
  5 14  1  0  0  0  0
  5 18  2  0  0  0  0
  6 24  3  0  0  0  0
  7  8  1  0  0  0  0
  7 10  1  0  0  0  0
  7 12  1  0  0  0  0
  7 25  1  0  0  0  0
  8  9  1  0  0  0  0
  8 26  1  0  0  0  0
  9 11  1  0  0  0  0
  9 27  1  0  0  0  0
 10 11  1  0  0  0  0
 10 28  1  0  0  0  0
 10 29  1  0  0  0  0
 11 30  1  0  0  0  0
 12 13  1  0  0  0  0
 12 14  2  0  0  0  0
 13 16  2  0  0  0  0
 13 34  1  0  0  0  0
 14 35  1  0  0  0  0
 15 17  1  0  0  0  0
 16 18  1  0  0  0  0
 16 36  1  0  0  0  0
 17 19  2  0  0  0  0
 17 20  1  0  0  0  0
 18 37  1  0  0  0  0
 19 21  1  0  0  0  0
 19 38  1  0  0  0  0
 20 22  2  0  0  0  0
 20 39  1  0  0  0  0
 21 23  2  0  0  0  0
 21 40  1  0  0  0  0
 22 23  1  0  0  0  0
 22 41  1  0  0  0  0
 23 24  1  0  0  0  0
M  END
> <PUBCHEM_COMPOUND_CID>
75536066

> <PUBCHEM_CONFORMER_RMSD>
0.8

> <PUBCHEM_CONFORMER_DIVERSEORDER>
1
19
4
15
6
22
17
14
2
21
3
16
18
5
12
9
8
13
20
7
10
11

> <PUBCHEM_MMFF94_PARTIAL_CHARGES>
34
1 -0.68
11 0.28
12 -0.14
13 -0.15
14 0.16
15 0.54
16 -0.15
17 0.09
18 0.16
19 -0.15
2 -0.68
20 -0.15
21 -0.15
22 -0.15
23 0.07
24 0.48
3 -0.57
31 0.37
32 0.4
33 0.4
34 0.15
35 0.15
36 0.15
37 0.15
38 0.15
39 0.15
4 -0.73
40 0.15
41 0.15
5 -0.62
6 -0.56
7 0.14
8 0.3
9 0.28

> <PUBCHEM_EFFECTIVE_ROTOR_COUNT>
5

> <PUBCHEM_PHARMACOPHORE_FEATURES>
11
1 1 acceptor
1 1 donor
1 2 acceptor
1 2 donor
1 3 acceptor
1 4 donor
1 5 acceptor
1 6 acceptor
5 7 8 9 10 11 rings
6 17 19 20 21 22 23 rings
6 5 12 13 14 16 18 rings

> <PUBCHEM_HEAVY_ATOM_COUNT>
24

> <PUBCHEM_ATOM_DEF_STEREO_COUNT>
4

> <PUBCHEM_ATOM_UDEF_STEREO_COUNT>
0

> <PUBCHEM_BOND_DEF_STEREO_COUNT>
0

> <PUBCHEM_BOND_UDEF_STEREO_COUNT>
0

> <PUBCHEM_ISOTOPIC_ATOM_COUNT>
0

> <PUBCHEM_COMPONENT_COUNT>
1

> <PUBCHEM_CACTVS_TAUTO_COUNT>
2

> <PUBCHEM_CONFORMER_ID>
048096C200000001

> <PUBCHEM_MMFF94_ENERGY>
67.1038

> <PUBCHEM_FEATURE_SELFOVERLAP>
55.834

> <PUBCHEM_SHAPE_FINGERPRINT>
10554248 39 18060132104026259965
11421498 54 18201440302581485496
114674 6 18187643583257360482
12107183 9 17911246022916741337
12236239 1 18060137691377563825
12553582 1 18196363732915870358
12616971 3 17775278345046630079
13009979 54 17702670921573741386
13533116 47 18341896290543148139
13583140 156 18198067070111644089
13785724 45 17840599102023345799
13911852 28 18052257293583089743
13955234 65 18413103991645893072
14178342 30 17912902153462728194
14341114 176 18413392025602017371
14739800 52 16916772028867778416
14863182 85 18410004473326959944
15142526 21 17483658371377171936
15250474 111 18058151990547679447
15664445 248 17022912246021311740
17492 89 18341048532618310451
17818456 19 17701824289247177873
17844677 252 18409451350211258713
1813 80 18127418851921847518
20157964 124 18408881871965491753
20554085 129 12469223323113487454
20645477 70 18408037411963400027
21049683 271 18335990779489094286
21344244 78 18129930209351564937
21421861 104 18341603811501464024
22033318 11 17913520994480201665
2255824 54 18411980273893770198
23081809 10 17775283868722654065
23559900 14 18334298699270026707
239999 70 18113898277498621378
25147074 1 17846488275659602855
3060560 45 18264485256115705516
312423 11 18272097054412375505
3421961 26 18411415068882103986
345986 75 17987228937378532243
34797466 226 16877954849286779655
4144715 1 18259992574685578633
4394409 98 14017069118923665662
4409770 3 17184189440443604524
46194498 28 17676212372367768230
465052 167 18271530793044852935
474 4 18265890431247827384
5104073 3 18059585681038129603
70251023 43 18267310824594174706
7097593 13 18271799129510246487
7970288 3 18123751954657944711
8272917 22 18409729598886788749
8509985 295 16773789278013541883
9841814 1 18262788571871025506

> <PUBCHEM_SHAPE_MULTIPOLES>
461.36
12.29
3.51
1.26
24.71
0.3
-0.03
2.26
1.48
-7.57
-0.23
-0.07
0.15
-0.28

> <PUBCHEM_SHAPE_SELFOVERLAP>
996.235

> <PUBCHEM_SHAPE_VOLUME>
249.9

> <PUBCHEM_COORDINATE_TYPE>
2
5
10

$$$$
