51136895
  -OEChem-12032416213D

 55 58  0     1  0  0  0  0  0999 V2000
    4.5249    2.1356   -0.0402 O   0  0  0  0  0  0  0  0  0  0  0  0
   -3.1508   -1.8078   -0.5480 O   0  0  0  0  0  0  0  0  0  0  0  0
   -9.2093   -0.3240    0.3535 O   0  0  0  0  0  0  0  0  0  0  0  0
    6.4337   -0.8756    0.1887 N   0  0  2  0  0  0  0  0  0  0  0  0
    3.4744    0.2042   -0.4677 N   0  0  0  0  0  0  0  0  0  0  0  0
    3.1572    2.3929    0.1178 N   0  0  0  0  0  0  0  0  0  0  0  0
   -1.0293    1.8788    0.2647 N   0  0  0  0  0  0  0  0  0  0  0  0
   -2.9051    0.4590    0.0225 N   0  0  0  0  0  0  0  0  0  0  0  0
    6.0301    0.2886   -0.6166 C   0  0  1  0  0  0  0  0  0  0  0  0
    6.2890   -0.2222   -2.0408 C   0  0  0  0  0  0  0  0  0  0  0  0
    5.9646   -2.0733   -0.4970 C   0  0  0  0  0  0  0  0  0  0  0  0
    6.1668   -1.7442   -1.9690 C   0  0  0  0  0  0  0  0  0  0  0  0
    6.0965   -0.8408    1.5997 C   0  0  0  0  0  0  0  0  0  0  0  0
    4.6239    0.8251   -0.3850 C   0  0  0  0  0  0  0  0  0  0  0  0
    6.6043    0.4515    2.2332 C   0  0  0  0  0  0  0  0  0  0  0  0
    6.6911   -2.0619    2.2940 C   0  0  0  0  0  0  0  0  0  0  0  0
    2.6042    1.2064   -0.1508 C   0  0  0  0  0  0  0  0  0  0  0  0
    1.1869    0.9894   -0.1129 C   0  0  0  0  0  0  0  0  0  0  0  0
    0.6449   -0.2586   -0.3998 C   0  0  0  0  0  0  0  0  0  0  0  0
    0.3146    2.0162    0.2108 C   0  0  0  0  0  0  0  0  0  0  0  0
   -0.7330   -0.4391   -0.3548 C   0  0  0  0  0  0  0  0  0  0  0  0
   -1.5194    0.6516   -0.0203 C   0  0  0  0  0  0  0  0  0  0  0  0
   -3.6164   -0.7174   -0.2345 C   0  0  0  0  0  0  0  0  0  0  0  0
   -5.0911   -0.6133   -0.0785 C   0  0  0  0  0  0  0  0  0  0  0  0
   -5.8392   -1.7441    0.2492 C   0  0  0  0  0  0  0  0  0  0  0  0
   -5.7268    0.6148   -0.2609 C   0  0  0  0  0  0  0  0  0  0  0  0
   -7.8587   -0.4187    0.2117 C   0  0  0  0  0  0  0  0  0  0  0  0
   -7.2230   -1.6469    0.3943 C   0  0  0  0  0  0  0  0  0  0  0  0
   -7.1106    0.7121   -0.1158 C   0  0  0  0  0  0  0  0  0  0  0  0
   -9.7942    0.9618    0.1526 C   0  0  0  0  0  0  0  0  0  0  0  0
    6.7283    1.1156   -0.4319 H   0  0  0  0  0  0  0  0  0  0  0  0
    7.3082    0.0365   -2.3549 H   0  0  0  0  0  0  0  0  0  0  0  0
    5.5975    0.1992   -2.7783 H   0  0  0  0  0  0  0  0  0  0  0  0
    6.5367   -2.9696   -0.2375 H   0  0  0  0  0  0  0  0  0  0  0  0
    4.9029   -2.2684   -0.3020 H   0  0  0  0  0  0  0  0  0  0  0  0
    7.0799   -2.2099   -2.3571 H   0  0  0  0  0  0  0  0  0  0  0  0
    5.3253   -2.1035   -2.5707 H   0  0  0  0  0  0  0  0  0  0  0  0
    5.0092   -0.8800    1.7460 H   0  0  0  0  0  0  0  0  0  0  0  0
    7.6778    0.5881    2.0576 H   0  0  0  0  0  0  0  0  0  0  0  0
    6.0852    1.3440    1.8775 H   0  0  0  0  0  0  0  0  0  0  0  0
    6.4564    0.4237    3.3191 H   0  0  0  0  0  0  0  0  0  0  0  0
    7.7673   -2.1513    2.1058 H   0  0  0  0  0  0  0  0  0  0  0  0
    6.2063   -2.9937    1.9849 H   0  0  0  0  0  0  0  0  0  0  0  0
    6.5554   -1.9881    3.3793 H   0  0  0  0  0  0  0  0  0  0  0  0
    1.2733   -1.1065   -0.6609 H   0  0  0  0  0  0  0  0  0  0  0  0
    0.6564    3.0194    0.4477 H   0  0  0  0  0  0  0  0  0  0  0  0
   -1.0761   -1.4331   -0.5891 H   0  0  0  0  0  0  0  0  0  0  0  0
   -3.4089    1.2898    0.3173 H   0  0  0  0  0  0  0  0  0  0  0  0
   -5.3631   -2.7093    0.4007 H   0  0  0  0  0  0  0  0  0  0  0  0
   -5.1905    1.5124   -0.5536 H   0  0  0  0  0  0  0  0  0  0  0  0
   -7.8006   -2.5308    0.6507 H   0  0  0  0  0  0  0  0  0  0  0  0
   -7.5415    1.6940   -0.2798 H   0  0  0  0  0  0  0  0  0  0  0  0
   -9.4369    1.6865    0.8921 H   0  0  0  0  0  0  0  0  0  0  0  0
   -9.6516    1.3126   -0.8751 H   0  0  0  0  0  0  0  0  0  0  0  0
  -10.8729    0.8537    0.3065 H   0  0  0  0  0  0  0  0  0  0  0  0
  1  6  1  0  0  0  0
  1 14  1  0  0  0  0
  2 23  2  0  0  0  0
  3 27  1  0  0  0  0
  3 30  1  0  0  0  0
  4  9  1  0  0  0  0
  4 11  1  0  0  0  0
  4 13  1  0  0  0  0
  5 14  2  0  0  0  0
  5 17  1  0  0  0  0
  6 17  2  0  0  0  0
  7 20  1  0  0  0  0
  7 22  2  0  0  0  0
  8 22  1  0  0  0  0
  8 23  1  0  0  0  0
  8 48  1  0  0  0  0
  9 10  1  0  0  0  0
  9 14  1  0  0  0  0
  9 31  1  0  0  0  0
 10 12  1  0  0  0  0
 10 32  1  0  0  0  0
 10 33  1  0  0  0  0
 11 12  1  0  0  0  0
 11 34  1  0  0  0  0
 11 35  1  0  0  0  0
 12 36  1  0  0  0  0
 12 37  1  0  0  0  0
 13 15  1  0  0  0  0
 13 16  1  0  0  0  0
 13 38  1  0  0  0  0
 15 39  1  0  0  0  0
 15 40  1  0  0  0  0
 15 41  1  0  0  0  0
 16 42  1  0  0  0  0
 16 43  1  0  0  0  0
 16 44  1  0  0  0  0
 17 18  1  0  0  0  0
 18 19  1  0  0  0  0
 18 20  2  0  0  0  0
 19 21  2  0  0  0  0
 19 45  1  0  0  0  0
 20 46  1  0  0  0  0
 21 22  1  0  0  0  0
 21 47  1  0  0  0  0
 23 24  1  0  0  0  0
 24 25  2  0  0  0  0
 24 26  1  0  0  0  0
 25 28  1  0  0  0  0
 25 49  1  0  0  0  0
 26 29  2  0  0  0  0
 26 50  1  0  0  0  0
 27 28  2  0  0  0  0
 27 29  1  0  0  0  0
 28 51  1  0  0  0  0
 29 52  1  0  0  0  0
 30 53  1  0  0  0  0
 30 54  1  0  0  0  0
 30 55  1  0  0  0  0
M  END
> <PUBCHEM_COMPOUND_CID>
51136895

> <PUBCHEM_CONFORMER_RMSD>
1

> <PUBCHEM_CONFORMER_DIVERSEORDER>
1
6
8
3
5
9
10
7
2
4

> <PUBCHEM_MMFF94_PARTIAL_CHARGES>
34
1 -0.02
11 0.27
13 0.27
14 0.3
17 0.46
18 0.05
19 -0.15
2 -0.57
20 0.16
21 -0.15
22 0.43
23 0.54
24 0.09
25 -0.15
26 -0.15
27 0.08
28 -0.15
29 -0.15
3 -0.36
30 0.28
4 -0.81
45 0.15
46 0.15
47 0.15
48 0.37
49 0.15
5 -0.57
50 0.15
51 0.15
52 0.15
6 -0.41
7 -0.62
8 -0.55
9 0.45

> <PUBCHEM_EFFECTIVE_ROTOR_COUNT>
8

> <PUBCHEM_PHARMACOPHORE_FEATURES>
10
1 2 acceptor
1 3 acceptor
1 4 cation
1 8 donor
3 13 15 16 hydrophobe
3 5 6 17 cation
5 1 5 6 14 17 rings
5 4 9 10 11 12 rings
6 24 25 26 27 28 29 rings
6 7 18 19 20 21 22 rings

> <PUBCHEM_HEAVY_ATOM_COUNT>
30

> <PUBCHEM_ATOM_DEF_STEREO_COUNT>
1

> <PUBCHEM_ATOM_UDEF_STEREO_COUNT>
0

> <PUBCHEM_BOND_DEF_STEREO_COUNT>
0

> <PUBCHEM_BOND_UDEF_STEREO_COUNT>
0

> <PUBCHEM_ISOTOPIC_ATOM_COUNT>
0

> <PUBCHEM_COMPONENT_COUNT>
1

> <PUBCHEM_CACTVS_TAUTO_COUNT>
14

> <PUBCHEM_CONFORMER_ID>
030C497F00000001

> <PUBCHEM_MMFF94_ENERGY>
82.02

> <PUBCHEM_FEATURE_SELFOVERLAP>
50.746

> <PUBCHEM_SHAPE_FINGERPRINT>
10 15 10879991350428521125
10299344 5 17748826319695661875
10666366 153 18201728314286969189
11007060 377 8214146278851305165
11135926 11 18411128127187823751
11578821 258 11743844655973380811
117089 54 17771363976384093878
11719270 70 18060704982915518934
12089408 11 17603587439911508101
125118 31 11311786067646629515
12522641 24 15051736353119826622
12539765 74 11963657899268203577
12758862 56 18412262865973240153
13533116 47 16200158669141167374
13617811 41 16153426147531232468
13782708 43 18113893870883339366
13914758 101 18410859841606987137
13947934 56 18115018607529609268
14216079 64 18341898476101168647
14344974 204 17534640488744756851
14347332 77 18114176398486032604
14347424 109 18273212036575895608
14444916 359 17095243623335215667
15183329 4 18410017627988705507
15230672 131 18335136501946845867
15301273 46 17918273138952389947
15352257 5 17385723608054972931
15419008 91 18269818891752622624
1577012 14 18059291088387252037
16120349 18 12103839060245845403
1754908 1 16056599893889071679
19301679 30 18271244907457897760
19315958 150 17489585693324407502
1979834 28 17561365059454806142
19841028 212 17895748501329413826
21130935 74 18129383859932148731
21150785 3 13045943516947121829
21267235 1 18341902886943105717
21360442 33 13696130866506387936
21360442 67 14056721244694401536
21362267 313 13541923256956520223
21781051 124 17604158102682454907
21792934 111 17989201538864931297
22224240 67 15051735291988253437
23522609 53 17897755118070677852
23569943 247 17604700058709087795
28498 318 18342742905874933125
3004659 81 18409173225245683764
3103668 31 18261392179578441053
335352 9 18342461469526619533
34797466 226 14345796059009006926
3552219 110 13839983292888480231
397830 11 14332553604771455966
3986486 107 11675436255423710906
4073 2 17970913495108919648
4258327 124 11095872817758491771
4339292 15 15410601641921450191
439807 62 17967249780663189970
5381727 24 18343302588318675463
5758199 1 8214147352646012589
59682541 35 9079110065031913557
59682541 52 14706924017691020242
6201320 215 16055772941375868209
6438161 24 18040427790082169994
6441014 3 17189544071094527198

> <PUBCHEM_SHAPE_MULTIPOLES>
574.87
29.66
2.12
1.42
41.43
0.04
-0.33
-8.88
-3.82
-1.72
-0.19
-4.82
-0.64
-0.08

> <PUBCHEM_SHAPE_SELFOVERLAP>
1240.27

> <PUBCHEM_SHAPE_VOLUME>
317.7

> <PUBCHEM_COORDINATE_TYPE>
2
5
10

$$$$
