26762201
  -OEChem-12032416373D

 59 63  0     1  0  0  0  0  0999 V2000
    5.8823   -2.8489    0.9290 S   0  0  0  0  0  0  0  0  0  0  0  0
   -4.3959   -1.8330    2.3252 O   0  0  0  0  0  0  0  0  0  0  0  0
   -1.8619    4.0621    0.1775 O   0  0  0  0  0  0  0  0  0  0  0  0
    1.1367   -3.6343   -1.4590 O   0  0  0  0  0  0  0  0  0  0  0  0
   -2.7987   -1.0440   -0.6121 N   0  0  2  0  0  0  0  0  0  0  0  0
   -4.8673   -0.1174    0.8502 N   0  0  0  0  0  0  0  0  0  0  0  0
   -0.2899   -2.7302    0.1199 N   0  0  0  0  0  0  0  0  0  0  0  0
   -0.0057    2.6502    0.0859 N   0  0  0  0  0  0  0  0  0  0  0  0
    1.9698   -2.7146    0.5336 N   0  0  0  0  0  0  0  0  0  0  0  0
   -3.6642   -2.0365    0.0219 C   0  0  1  0  0  0  0  0  0  0  0  0
   -3.5325    0.0508   -1.2528 C   0  0  1  0  0  0  0  0  0  0  0  0
   -1.5176   -2.9832   -0.5971 C   0  0  1  0  0  0  0  0  0  0  0  0
   -2.6991   -3.1647    0.3673 C   0  0  0  0  0  0  0  0  0  0  0  0
   -1.9053   -1.7993   -1.4844 C   0  0  0  0  0  0  0  0  0  0  0  0
   -4.8702    0.3314   -0.5314 C   0  0  0  0  0  0  0  0  0  0  0  0
   -2.6516    1.3029   -1.2402 C   0  0  0  0  0  0  0  0  0  0  0  0
   -4.3214   -1.3449    1.2017 C   0  0  0  0  0  0  0  0  0  0  0  0
   -2.2661    1.7267    0.1690 C   0  0  0  0  0  0  0  0  0  0  0  0
   -1.3628    2.9371    0.1446 C   0  0  0  0  0  0  0  0  0  0  0  0
    0.9723   -3.0816   -0.3741 C   0  0  0  0  0  0  0  0  0  0  0  0
    0.5908    1.2985    0.0466 C   0  0  0  0  0  0  0  0  0  0  0  0
    1.0388    3.5974    0.0524 C   0  0  0  0  0  0  0  0  0  0  0  0
    2.1138    1.4610   -0.0070 C   0  0  0  0  0  0  0  0  0  0  0  0
    2.2728    2.9461   -0.0024 C   0  0  0  0  0  0  0  0  0  0  0  0
    0.9718    4.9830    0.0671 C   0  0  0  0  0  0  0  0  0  0  0  0
    3.4624    3.6575   -0.0433 C   0  0  0  0  0  0  0  0  0  0  0  0
    3.3671   -2.8945    0.4075 C   0  0  0  0  0  0  0  0  0  0  0  0
    2.1669    5.7082    0.0255 C   0  0  0  0  0  0  0  0  0  0  0  0
    3.4037    5.0508   -0.0292 C   0  0  0  0  0  0  0  0  0  0  0  0
    4.0131   -3.5016   -0.7080 C   0  0  0  0  0  0  0  0  0  0  0  0
    4.2664   -2.4938    1.3709 C   0  0  0  0  0  0  0  0  0  0  0  0
    5.3814   -3.5412   -0.5548 C   0  0  0  0  0  0  0  0  0  0  0  0
   -4.4392   -2.4078   -0.6621 H   0  0  0  0  0  0  0  0  0  0  0  0
   -3.7704   -0.1890   -2.2977 H   0  0  0  0  0  0  0  0  0  0  0  0
   -1.3801   -3.8827   -1.2081 H   0  0  0  0  0  0  0  0  0  0  0  0
   -2.3790   -3.1459    1.4156 H   0  0  0  0  0  0  0  0  0  0  0  0
   -3.1828   -4.1332    0.1937 H   0  0  0  0  0  0  0  0  0  0  0  0
   -1.0410   -1.2123   -1.8100 H   0  0  0  0  0  0  0  0  0  0  0  0
   -2.4397   -2.1607   -2.3722 H   0  0  0  0  0  0  0  0  0  0  0  0
   -5.1496    1.3898   -0.5492 H   0  0  0  0  0  0  0  0  0  0  0  0
   -5.6729   -0.2294   -1.0258 H   0  0  0  0  0  0  0  0  0  0  0  0
   -3.1826    2.1276   -1.7341 H   0  0  0  0  0  0  0  0  0  0  0  0
   -1.7561    1.1347   -1.8497 H   0  0  0  0  0  0  0  0  0  0  0  0
   -5.3618    0.4244    1.5522 H   0  0  0  0  0  0  0  0  0  0  0  0
   -0.3344   -2.1956    0.9822 H   0  0  0  0  0  0  0  0  0  0  0  0
   -3.1564    2.0283    0.7343 H   0  0  0  0  0  0  0  0  0  0  0  0
   -1.8171    0.9176    0.7485 H   0  0  0  0  0  0  0  0  0  0  0  0
    0.2210    0.7572   -0.8288 H   0  0  0  0  0  0  0  0  0  0  0  0
    0.2972    0.7450    0.9452 H   0  0  0  0  0  0  0  0  0  0  0  0
    2.5251    1.0190   -0.9198 H   0  0  0  0  0  0  0  0  0  0  0  0
    2.5902    1.0066    0.8673 H   0  0  0  0  0  0  0  0  0  0  0  0
    1.6750   -2.2619    1.3950 H   0  0  0  0  0  0  0  0  0  0  0  0
    0.0346    5.5238    0.1090 H   0  0  0  0  0  0  0  0  0  0  0  0
    4.4188    3.1473   -0.0853 H   0  0  0  0  0  0  0  0  0  0  0  0
    2.1375    6.7946    0.0359 H   0  0  0  0  0  0  0  0  0  0  0  0
    4.3214    5.6315   -0.0606 H   0  0  0  0  0  0  0  0  0  0  0  0
    3.5318   -3.8982   -1.5911 H   0  0  0  0  0  0  0  0  0  0  0  0
    4.0582   -2.0085    2.3146 H   0  0  0  0  0  0  0  0  0  0  0  0
    6.1111   -3.9436   -1.2432 H   0  0  0  0  0  0  0  0  0  0  0  0
  1 31  1  0  0  0  0
  1 32  1  0  0  0  0
  2 17  2  0  0  0  0
  3 19  2  0  0  0  0
  4 20  2  0  0  0  0
  5 10  1  0  0  0  0
  5 11  1  0  0  0  0
  5 14  1  0  0  0  0
  6 15  1  0  0  0  0
  6 17  1  0  0  0  0
  6 44  1  0  0  0  0
  7 12  1  0  0  0  0
  7 20  1  0  0  0  0
  7 45  1  0  0  0  0
  8 19  1  0  0  0  0
  8 21  1  0  0  0  0
  8 22  1  0  0  0  0
  9 20  1  0  0  0  0
  9 27  1  0  0  0  0
  9 52  1  0  0  0  0
 10 13  1  0  0  0  0
 10 17  1  0  0  0  0
 10 33  1  0  0  0  0
 11 15  1  0  0  0  0
 11 16  1  0  0  0  0
 11 34  1  0  0  0  0
 12 13  1  0  0  0  0
 12 14  1  0  0  0  0
 12 35  1  0  0  0  0
 13 36  1  0  0  0  0
 13 37  1  0  0  0  0
 14 38  1  0  0  0  0
 14 39  1  0  0  0  0
 15 40  1  0  0  0  0
 15 41  1  0  0  0  0
 16 18  1  0  0  0  0
 16 42  1  0  0  0  0
 16 43  1  0  0  0  0
 18 19  1  0  0  0  0
 18 46  1  0  0  0  0
 18 47  1  0  0  0  0
 21 23  1  0  0  0  0
 21 48  1  0  0  0  0
 21 49  1  0  0  0  0
 22 24  1  0  0  0  0
 22 25  2  0  0  0  0
 23 24  1  0  0  0  0
 23 50  1  0  0  0  0
 23 51  1  0  0  0  0
 24 26  2  0  0  0  0
 25 28  1  0  0  0  0
 25 53  1  0  0  0  0
 26 29  1  0  0  0  0
 26 54  1  0  0  0  0
 27 30  1  0  0  0  0
 27 31  2  0  0  0  0
 28 29  2  0  0  0  0
 28 55  1  0  0  0  0
 29 56  1  0  0  0  0
 30 32  2  0  0  0  0
 30 57  1  0  0  0  0
 31 58  1  0  0  0  0
 32 59  1  0  0  0  0
M  END
> <PUBCHEM_COMPOUND_CID>
26762201

> <PUBCHEM_CONFORMER_RMSD>
1.2

> <PUBCHEM_CONFORMER_DIVERSEORDER>
3
27
179
106
196
105
134
201
11
198
185
186
220
115
24
187
210
114
74
184
67
89
168
6
39
171
149
158
32
133
49
97
200
35
129
84
189
96
62
163
175
80
71
136
68
76
102
111
177
56
90
109
202
117
43
172
103
112
174
72
95
8
20
223
148
130
108
176
120
52
194
170
101
151
116
155
94
59
135
10
216
143
125
211
21
31
86
29
65
154
152
87
70
183
203
207
178
2
14
77
53
169
99
64
147
190
50
209
45
110
150
1
160
180
204
206
131
16
40
9
48
159
69
162
83
164
54
58
197
123
30
157
126
61
222
107
218
193
79
128
124
221
47
42
156
199
57
26
15
88
104
132
51
215
5
75
7
173
122
44
93
28
18
138
100
98
119
85
208
36
167
166
212
195
46
37
91
4
63
153
23
165
219
92
78
113
19
33
205
25
22
213
182
73
118
141
188
66
55
81
217
145
38
140
214
192
146
60
161
34
121
142
181
144
12
191
82
139
13
17
41
137
127

> <PUBCHEM_MMFF94_PARTIAL_CHARGES>
40
1 -0.08
10 0.33
11 0.27
12 0.3
14 0.27
15 0.3
17 0.57
18 0.06
19 0.57
2 -0.57
20 0.69
21 0.3
22 0.12
23 0.14
24 -0.14
25 -0.15
26 -0.15
27 0.06
28 -0.15
29 -0.15
3 -0.57
30 -0.15
31 -0.11
32 -0.11
4 -0.57
44 0.37
45 0.37
5 -0.81
52 0.37
53 0.15
54 0.15
55 0.15
56 0.15
57 0.15
58 0.15
59 0.15
6 -0.73
7 -0.73
8 -0.48
9 -0.49

> <PUBCHEM_EFFECTIVE_ROTOR_COUNT>
9.8

> <PUBCHEM_PHARMACOPHORE_FEATURES>
12
1 2 acceptor
1 3 acceptor
1 4 acceptor
1 5 cation
1 6 donor
1 7 donor
1 9 donor
5 1 27 30 31 32 rings
5 5 10 12 13 14 rings
5 8 21 22 23 24 rings
6 22 24 25 26 28 29 rings
6 5 6 10 11 15 17 rings

> <PUBCHEM_HEAVY_ATOM_COUNT>
32

> <PUBCHEM_ATOM_DEF_STEREO_COUNT>
3

> <PUBCHEM_ATOM_UDEF_STEREO_COUNT>
0

> <PUBCHEM_BOND_DEF_STEREO_COUNT>
0

> <PUBCHEM_BOND_UDEF_STEREO_COUNT>
0

> <PUBCHEM_ISOTOPIC_ATOM_COUNT>
0

> <PUBCHEM_COMPONENT_COUNT>
1

> <PUBCHEM_CACTVS_TAUTO_COUNT>
9

> <PUBCHEM_CONFORMER_ID>
01985BD900000003

> <PUBCHEM_MMFF94_ENERGY>
80.9581

> <PUBCHEM_FEATURE_SELFOVERLAP>
61.129

> <PUBCHEM_SHAPE_FINGERPRINT>
10256941 240 16746745437130624804
10290309 65 18049154772253400612
12788726 201 18190471446145436810
14363568 33 18337686311601325130
14394314 77 18051693239574971544
14444916 359 17832725829995450308
144659 178 18337952260872777612
14790565 3 17833552679671694936
15320467 1 18338794645487195662
15400415 2 17762335121561347461
15968369 153 18271232834568813102
16067690 210 17901096435112172290
17627616 140 18265331900915863606
20721686 56 18409442587745122250
21344244 246 18196071443934072095
21796203 349 18049480026000064928
23516275 137 18044957880593692984
373842 8 18410002231390818618
463206 1 18192436260285773332
469060 322 18125172541092379643
57091435 65 18337111292684222474
6036956 94 17759245094544600484
653340 110 17691677893088105406
6608658 132 17909806765863494815

> <PUBCHEM_SHAPE_MULTIPOLES>
619.88
10.43
9.32
1.19
4.1
12.24
0.19
-10.96
2.14
10.14
-0.14
-0.78
-1.06
0.48

> <PUBCHEM_SHAPE_SELFOVERLAP>
1326.658

> <PUBCHEM_SHAPE_VOLUME>
345.2

> <PUBCHEM_COORDINATE_TYPE>
2
5
10

$$$$
