75536898
  -OEChem-12032416333D

 38 40  0     1  0  0  0  0  0999 V2000
   -1.1413   -2.7280   -1.0090 O   0  0  0  0  0  0  0  0  0  0  0  0
   -1.7357    0.7822   -0.3308 O   0  0  0  0  0  0  0  0  0  0  0  0
    3.4040   -2.1657    0.5176 O   0  0  0  0  0  0  0  0  0  0  0  0
    3.6704    2.1717    0.7478 O   0  0  0  0  0  0  0  0  0  0  0  0
    1.2129   -1.3339    0.5198 N   0  0  0  0  0  0  0  0  0  0  0  0
    2.9805    1.0557    1.2057 N   0  0  0  0  0  0  0  0  0  0  0  0
   -3.7079   -0.2291    0.3710 N   0  0  0  0  0  0  0  0  0  0  0  0
   -5.0735    2.1747   -0.1010 N   0  0  0  0  0  0  0  0  0  0  0  0
   -1.1208   -0.4788   -0.0632 C   0  0  2  0  0  0  0  0  0  0  0  0
    0.3097   -0.1835    0.3969 C   0  0  0  0  0  0  0  0  0  0  0  0
    0.6256   -2.6646    0.6845 C   0  0  0  0  0  0  0  0  0  0  0  0
   -1.1814   -1.3395   -1.3234 C   0  0  0  0  0  0  0  0  0  0  0  0
    0.1455   -3.2202   -0.6502 C   0  0  0  0  0  0  0  0  0  0  0  0
    2.6118   -1.2263    0.4511 C   0  0  0  0  0  0  0  0  0  0  0  0
    3.2018    0.1115    0.2866 C   0  0  0  0  0  0  0  0  0  0  0  0
   -3.0794    0.8695   -0.0923 C   0  0  0  0  0  0  0  0  0  0  0  0
    4.0161    0.5694   -0.7636 C   0  0  0  0  0  0  0  0  0  0  0  0
    4.2829    1.8698   -0.4256 C   0  0  0  0  0  0  0  0  0  0  0  0
   -3.7502    2.0502   -0.3241 C   0  0  0  0  0  0  0  0  0  0  0  0
    5.0622    2.9434   -1.0541 C   0  0  0  0  0  0  0  0  0  0  0  0
   -5.0313   -0.1047    0.5940 C   0  0  0  0  0  0  0  0  0  0  0  0
   -5.7020    1.0760    0.3622 C   0  0  0  0  0  0  0  0  0  0  0  0
   -1.6062   -0.9972    0.7736 H   0  0  0  0  0  0  0  0  0  0  0  0
    0.7521    0.5481   -0.2895 H   0  0  0  0  0  0  0  0  0  0  0  0
    0.2752    0.3064    1.3782 H   0  0  0  0  0  0  0  0  0  0  0  0
   -0.1779   -2.6085    1.4261 H   0  0  0  0  0  0  0  0  0  0  0  0
    1.3901   -3.3387    1.0860 H   0  0  0  0  0  0  0  0  0  0  0  0
   -2.1274   -1.1728   -1.8503 H   0  0  0  0  0  0  0  0  0  0  0  0
   -0.3905   -1.0807   -2.0384 H   0  0  0  0  0  0  0  0  0  0  0  0
    0.0375   -4.3061   -0.5577 H   0  0  0  0  0  0  0  0  0  0  0  0
    0.8584   -3.0317   -1.4615 H   0  0  0  0  0  0  0  0  0  0  0  0
    4.3588    0.0352   -1.6376 H   0  0  0  0  0  0  0  0  0  0  0  0
   -3.2489    2.9357   -0.6964 H   0  0  0  0  0  0  0  0  0  0  0  0
    4.4226    3.8025   -1.2786 H   0  0  0  0  0  0  0  0  0  0  0  0
    5.8649    3.2764   -0.3890 H   0  0  0  0  0  0  0  0  0  0  0  0
    5.5167    2.6055   -1.9907 H   0  0  0  0  0  0  0  0  0  0  0  0
   -5.5368   -0.9871    0.9661 H   0  0  0  0  0  0  0  0  0  0  0  0
   -6.7654    1.1752    0.5417 H   0  0  0  0  0  0  0  0  0  0  0  0
  1 12  1  0  0  0  0
  1 13  1  0  0  0  0
  2  9  1  0  0  0  0
  2 16  1  0  0  0  0
  3 14  2  0  0  0  0
  4  6  1  0  0  0  0
  4 18  1  0  0  0  0
  5 10  1  0  0  0  0
  5 11  1  0  0  0  0
  5 14  1  0  0  0  0
  6 15  2  0  0  0  0
  7 16  2  0  0  0  0
  7 21  1  0  0  0  0
  8 19  2  0  0  0  0
  8 22  1  0  0  0  0
  9 10  1  0  0  0  0
  9 12  1  0  0  0  0
  9 23  1  0  0  0  0
 10 24  1  0  0  0  0
 10 25  1  0  0  0  0
 11 13  1  0  0  0  0
 11 26  1  0  0  0  0
 11 27  1  0  0  0  0
 12 28  1  0  0  0  0
 12 29  1  0  0  0  0
 13 30  1  0  0  0  0
 13 31  1  0  0  0  0
 14 15  1  0  0  0  0
 15 17  1  0  0  0  0
 16 19  1  0  0  0  0
 17 18  2  0  0  0  0
 17 32  1  0  0  0  0
 18 20  1  0  0  0  0
 19 33  1  0  0  0  0
 20 34  1  0  0  0  0
 20 35  1  0  0  0  0
 20 36  1  0  0  0  0
 21 22  2  0  0  0  0
 21 37  1  0  0  0  0
 22 38  1  0  0  0  0
M  END
> <PUBCHEM_COMPOUND_CID>
75536898

> <PUBCHEM_CONFORMER_RMSD>
1

> <PUBCHEM_CONFORMER_DIVERSEORDER>
1
117
130
22
30
39
102
111
116
71
6
8
28
59
33
51
79
10
43
135
23
136
123
131
96
137
120
128
7
29
93
124
85
119
113
114
81
126
34
63
74
134
35
67
15
73
101
77
107
40
108
97
90
112
68
75
65
99
83
122
14
106
45
49
105
98
100
138
132
118
9
76
95
19
13
20
133
129
78
4
70
46
69
53
103
54
12
72
56
61
3
88
48
57
47
91
92
44
64
127
36
86
11
27
31
62
2
37
18
89
115
41
52
58
82
5
125
55
94
87
16
25
50
32
60
26
110
121
42
24
84
80
21
104
38
109
66
17

> <PUBCHEM_MMFF94_PARTIAL_CHARGES>
26
1 -0.56
10 0.3
11 0.3
12 0.28
13 0.28
14 0.72
15 0.2
16 0.39
17 -0.15
18 -0.04
19 0.16
2 -0.36
20 0.18
21 0.16
22 0.16
3 -0.57
32 0.15
33 0.15
37 0.15
38 0.15
4 -0.02
5 -0.66
6 -0.41
7 -0.62
8 -0.62
9 0.28

> <PUBCHEM_EFFECTIVE_ROTOR_COUNT>
5.4

> <PUBCHEM_PHARMACOPHORE_FEATURES>
7
1 1 acceptor
1 3 acceptor
1 6 acceptor
1 8 acceptor
5 4 6 15 17 18 rings
6 7 8 16 19 21 22 rings
7 1 5 9 10 11 12 13 rings

> <PUBCHEM_HEAVY_ATOM_COUNT>
22

> <PUBCHEM_ATOM_DEF_STEREO_COUNT>
1

> <PUBCHEM_ATOM_UDEF_STEREO_COUNT>
0

> <PUBCHEM_BOND_DEF_STEREO_COUNT>
0

> <PUBCHEM_BOND_UDEF_STEREO_COUNT>
0

> <PUBCHEM_ISOTOPIC_ATOM_COUNT>
0

> <PUBCHEM_COMPONENT_COUNT>
1

> <PUBCHEM_CACTVS_TAUTO_COUNT>
1

> <PUBCHEM_CONFORMER_ID>
04809A0200000001

> <PUBCHEM_MMFF94_ENERGY>
62.1264

> <PUBCHEM_FEATURE_SELFOVERLAP>
35.524

> <PUBCHEM_SHAPE_FINGERPRINT>
10493431 412 18336546130849108580
11796584 16 12463279272705761501
12173636 292 18269825566226090334
12363563 72 9151176492873290832
12390115 104 18270976750742184019
12403259 118 18263910052124294305
12788726 201 17323542037805449550
12895836 83 18339645671550602640
12895837 130 17901396907098933156
13540713 5 18266158686853771322
14123255 52 18412260644610049215
14251764 38 17902784172750375861
14251764 75 18341343235736227033
14257110 125 18335704978784289516
14528608 73 18413385436906115333
1454969 45 18341331202102500599
146900 427 18342746182950921425
14774955 27 18335698330322523997
14787075 74 18413385458623694379
14790565 3 18412549820738181697
151778 21 18411415081708769156
15342168 16 18259986011036293700
15885798 251 9367352530487785098
15961568 22 17822016397367057181
17349148 13 12901839276853796809
18222031 100 12613043764262183147
18785283 64 18337107839705115990
204376 136 18342457032762196183
20465049 17 18339373963598444774
21033650 10 15338575859382612754
21365058 113 17839198311298323046
21709351 56 18193265308932149695
21756936 100 18267019634448484540
22620623 9 16987428913901378767
23227448 37 18268993265882983892
23558518 356 17834103526528199224
23559900 14 17977100163724073923
245318 6 17533237463702692420
25147074 1 18266440144544981378
2637199 183 18271812293627362550
3178227 256 18265623082593029898
3472631 163 18339929336944765124
350125 39 18336264531766485716
38570 142 17749966565305177876
394222 165 18335415716831561202
44154327 71 18410573976857110660
474 4 18334293154161435312
5048184 11 18338232769001681564
5104073 3 18187087205036094145
5252454 2 18337101367357946292
59755656 520 17386002931795861042
633830 44 18342736269818288055
6438754 60 10951778438762541413
6442390 28 18261397770918244066
7288768 16 17749952296832794994
7808743 9 18265052620989506224
8988823 20 13407082543132551391
960060 61 13110962054550187856
9999458 23 18262238798761470366

> <PUBCHEM_SHAPE_MULTIPOLES>
409.35
11.67
3.5
1
6.16
1.14
-0.11
-11.36
0.3
-2.14
-0.68
-0.43
0.13
-0.91

> <PUBCHEM_SHAPE_SELFOVERLAP>
868.392

> <PUBCHEM_SHAPE_VOLUME>
225.4

> <PUBCHEM_COORDINATE_TYPE>
2
5
10

$$$$
