75367816
  -OEChem-12032416383D

 47 48  0     1  0  0  0  0  0999 V2000
    3.1303   -2.6903    0.0018 O   0  0  0  0  0  0  0  0  0  0  0  0
   -0.3239   -1.5503   -0.4126 O   0  0  0  0  0  0  0  0  0  0  0  0
   -1.2740    3.6047    0.4463 O   0  0  0  0  0  0  0  0  0  0  0  0
    2.6095    1.1574   -1.4397 O   0  0  0  0  0  0  0  0  0  0  0  0
   -2.4883   -0.8207   -1.6495 O   0  0  0  0  0  0  0  0  0  0  0  0
    2.2854    0.0718    0.5755 N   0  0  0  0  0  0  0  0  0  0  0  0
    0.9114    1.9100   -0.0816 N   0  0  0  0  0  0  0  0  0  0  0  0
   -3.9534   -1.2065    0.1103 N   0  0  0  0  0  0  0  0  0  0  0  0
    1.2776   -0.7782    1.2292 C   0  0  0  0  0  0  0  0  0  0  0  0
    0.8132   -1.9492    0.3551 C   0  0  2  0  0  0  0  0  0  0  0  0
    3.6665   -0.4024    0.6817 C   0  0  0  0  0  0  0  0  0  0  0  0
    1.8449   -2.5550   -0.5934 C   0  0  0  0  0  0  0  0  0  0  0  0
    1.9814    1.0587   -0.3786 C   0  0  0  0  0  0  0  0  0  0  0  0
    3.9738   -1.5668   -0.2502 C   0  0  0  0  0  0  0  0  0  0  0  0
    0.5674    2.2847    1.2936 C   0  0  0  0  0  0  0  0  0  0  0  0
    0.4679    2.8782   -1.0805 C   0  0  0  0  0  0  0  0  0  0  0  0
   -0.9190    2.5915    1.3942 C   0  0  0  0  0  0  0  0  0  0  0  0
   -1.0138    3.1762   -0.8942 C   0  0  0  0  0  0  0  0  0  0  0  0
   -1.5102   -1.6001    0.3630 C   0  0  0  0  0  0  0  0  0  0  0  0
   -2.6909   -1.1714   -0.4829 C   0  0  0  0  0  0  0  0  0  0  0  0
   -5.1215   -0.8118   -0.6674 C   0  0  0  0  0  0  0  0  0  0  0  0
   -4.2343   -1.6307    1.4798 C   0  0  0  0  0  0  0  0  0  0  0  0
    0.4133   -0.1874    1.5100 H   0  0  0  0  0  0  0  0  0  0  0  0
    1.7204   -1.1576    2.1576 H   0  0  0  0  0  0  0  0  0  0  0  0
    0.5119   -2.7535    1.0416 H   0  0  0  0  0  0  0  0  0  0  0  0
    3.8457   -0.6860    1.7249 H   0  0  0  0  0  0  0  0  0  0  0  0
    4.3386    0.4306    0.4451 H   0  0  0  0  0  0  0  0  0  0  0  0
    1.5076   -3.5608   -0.8721 H   0  0  0  0  0  0  0  0  0  0  0  0
    1.8943   -2.0011   -1.5400 H   0  0  0  0  0  0  0  0  0  0  0  0
    3.9195   -1.2736   -1.3051 H   0  0  0  0  0  0  0  0  0  0  0  0
    5.0028   -1.8953   -0.0682 H   0  0  0  0  0  0  0  0  0  0  0  0
    1.1305    3.2087    1.4863 H   0  0  0  0  0  0  0  0  0  0  0  0
    0.9077    1.5923    2.0611 H   0  0  0  0  0  0  0  0  0  0  0  0
    0.6562    2.4997   -2.0903 H   0  0  0  0  0  0  0  0  0  0  0  0
    1.0673    3.7852   -0.9386 H   0  0  0  0  0  0  0  0  0  0  0  0
   -1.1590    2.9709    2.3922 H   0  0  0  0  0  0  0  0  0  0  0  0
   -1.5288    1.6985    1.2157 H   0  0  0  0  0  0  0  0  0  0  0  0
   -1.3248    3.9783   -1.5706 H   0  0  0  0  0  0  0  0  0  0  0  0
   -1.6281    2.2946   -1.1134 H   0  0  0  0  0  0  0  0  0  0  0  0
   -1.6836   -2.6318    0.6893 H   0  0  0  0  0  0  0  0  0  0  0  0
   -1.4565   -0.9341    1.2275 H   0  0  0  0  0  0  0  0  0  0  0  0
   -5.8074   -1.6619   -0.7281 H   0  0  0  0  0  0  0  0  0  0  0  0
   -4.8527   -0.5013   -1.6801 H   0  0  0  0  0  0  0  0  0  0  0  0
   -5.6160    0.0225   -0.1613 H   0  0  0  0  0  0  0  0  0  0  0  0
   -4.7382   -0.8120    2.0022 H   0  0  0  0  0  0  0  0  0  0  0  0
   -3.3344   -1.8960    2.0345 H   0  0  0  0  0  0  0  0  0  0  0  0
   -4.8956   -2.5015    1.4453 H   0  0  0  0  0  0  0  0  0  0  0  0
  1 12  1  0  0  0  0
  1 14  1  0  0  0  0
  2 10  1  0  0  0  0
  2 19  1  0  0  0  0
  3 17  1  0  0  0  0
  3 18  1  0  0  0  0
  4 13  2  0  0  0  0
  5 20  2  0  0  0  0
  6  9  1  0  0  0  0
  6 11  1  0  0  0  0
  6 13  1  0  0  0  0
  7 13  1  0  0  0  0
  7 15  1  0  0  0  0
  7 16  1  0  0  0  0
  8 20  1  0  0  0  0
  8 21  1  0  0  0  0
  8 22  1  0  0  0  0
  9 10  1  0  0  0  0
  9 23  1  0  0  0  0
  9 24  1  0  0  0  0
 10 12  1  0  0  0  0
 10 25  1  0  0  0  0
 11 14  1  0  0  0  0
 11 26  1  0  0  0  0
 11 27  1  0  0  0  0
 12 28  1  0  0  0  0
 12 29  1  0  0  0  0
 14 30  1  0  0  0  0
 14 31  1  0  0  0  0
 15 17  1  0  0  0  0
 15 32  1  0  0  0  0
 15 33  1  0  0  0  0
 16 18  1  0  0  0  0
 16 34  1  0  0  0  0
 16 35  1  0  0  0  0
 17 36  1  0  0  0  0
 17 37  1  0  0  0  0
 18 38  1  0  0  0  0
 18 39  1  0  0  0  0
 19 20  1  0  0  0  0
 19 40  1  0  0  0  0
 19 41  1  0  0  0  0
 21 42  1  0  0  0  0
 21 43  1  0  0  0  0
 21 44  1  0  0  0  0
 22 45  1  0  0  0  0
 22 46  1  0  0  0  0
 22 47  1  0  0  0  0
M  END
> <PUBCHEM_COMPOUND_CID>
75367816

> <PUBCHEM_CONFORMER_RMSD>
1.2

> <PUBCHEM_CONFORMER_DIVERSEORDER>
1
42
18
16
10
25
5
27
28
44
29
21
36
24
7
22
3
13
56
4
40
53
47
55
31
2
32
50
15
49
41
34
12
6
45
23
17
46
19
43
30
35
33
38
8
52
51
11
26
20
54
48
37
14
9
39
57

> <PUBCHEM_MMFF94_PARTIAL_CHARGES>
22
1 -0.56
10 0.28
11 0.3
12 0.28
13 0.69
14 0.28
15 0.3
16 0.3
17 0.28
18 0.28
19 0.34
2 -0.56
20 0.57
21 0.3
22 0.3
3 -0.56
4 -0.57
5 -0.57
6 -0.66
7 -0.66
8 -0.66
9 0.3

> <PUBCHEM_EFFECTIVE_ROTOR_COUNT>
8.6

> <PUBCHEM_PHARMACOPHORE_FEATURES>
7
1 1 acceptor
1 2 acceptor
1 3 acceptor
1 4 acceptor
1 5 acceptor
6 3 7 15 16 17 18 rings
7 1 6 9 10 11 12 14 rings

> <PUBCHEM_HEAVY_ATOM_COUNT>
22

> <PUBCHEM_ATOM_DEF_STEREO_COUNT>
1

> <PUBCHEM_ATOM_UDEF_STEREO_COUNT>
0

> <PUBCHEM_BOND_DEF_STEREO_COUNT>
0

> <PUBCHEM_BOND_UDEF_STEREO_COUNT>
0

> <PUBCHEM_ISOTOPIC_ATOM_COUNT>
0

> <PUBCHEM_COMPONENT_COUNT>
1

> <PUBCHEM_CACTVS_TAUTO_COUNT>
1

> <PUBCHEM_CONFORMER_ID>
047E058800000001

> <PUBCHEM_MMFF94_ENERGY>
66.9814

> <PUBCHEM_FEATURE_SELFOVERLAP>
35.536

> <PUBCHEM_SHAPE_FINGERPRINT>
10165383 225 17252326682912629885
104564 63 18340486664479591952
10688039 33 18260548896702186525
108634 29 18050557452953496847
11578080 2 17487593291458499850
116883 192 18339644434541706814
12035759 4 18189357769662109156
12156800 1 17695667010924581021
12293681 4 18260271845257545850
12422481 6 17984161270241316899
12788726 201 18408323255412636938
128993 33 17324079725156744293
13140716 1 18194108849563411258
14866123 147 17253424605044694194
151778 21 17684943779494471229
15210252 30 18115030821599116941
15420108 30 17553457568973953656
17357779 13 18268975536442361871
18785283 64 17973453388386091283
20261772 1 18123766265461588321
21041028 32 18410579461366921207
21160774 45 17905607700960603708
21236236 1 18268426829386958130
21524375 3 17180516504491548178
21641784 216 18261973859735403948
22289505 5 18336815438520995575
23557571 272 18199751341231289326
238 59 17615369956132048431
3052486 1 18044938965615300682
3524813 1 17895741980898813639
6438718 38 17842545250351618047
7832392 63 18053379082963032862
81228 2 18336262332468924048

> <PUBCHEM_SHAPE_MULTIPOLES>
408.46
7.08
4.3
1.35
6
3.52
-0.09
-5.89
0.26
-0.19
0.08
0.45
0.43
0.02

> <PUBCHEM_SHAPE_SELFOVERLAP>
816.628

> <PUBCHEM_SHAPE_VOLUME>
238.9

> <PUBCHEM_COORDINATE_TYPE>
2
5
10

$$$$
