38027067
  -OEChem-12032416143D

 69 71  0     1  0  0  0  0  0999 V2000
   -1.9967    2.1903    1.1203 O   0  0  0  0  0  0  0  0  0  0  0  0
   -7.8751   -0.5322   -1.1195 O   0  0  0  0  0  0  0  0  0  0  0  0
    3.6913   -1.2662   -2.2687 O   0  0  0  0  0  0  0  0  0  0  0  0
    3.9666   -0.1227   -0.2681 N   0  0  0  0  0  0  0  0  0  0  0  0
   -2.0182   -0.0743    1.6412 N   0  0  0  0  0  0  0  0  0  0  0  0
   -5.3317   -0.8492    0.1184 N   0  0  0  0  0  0  0  0  0  0  0  0
    3.3317   -2.4055    1.0462 N   0  0  0  0  0  0  0  0  0  0  0  0
    2.7313   -4.7932   -0.2970 N   0  0  0  0  0  0  0  0  0  0  0  0
    1.8731    1.9152   -0.9806 C   0  0  1  0  0  0  0  0  0  0  0  0
    3.2791    2.2135   -0.4027 C   0  0  1  0  0  0  0  0  0  0  0  0
    0.8012    2.7117   -0.2212 C   0  0  0  0  0  0  0  0  0  0  0  0
    0.7897    2.3847    1.2841 C   0  0  2  0  0  0  0  0  0  0  0  0
    1.7936    2.2345   -2.4768 C   0  0  0  0  0  0  0  0  0  0  0  0
    2.1856    2.3961    1.8734 C   0  0  0  0  0  0  0  0  0  0  0  0
    3.2862    2.3324    1.1033 C   0  0  0  0  0  0  0  0  0  0  0  0
    4.2926    1.1480   -0.8356 C   0  0  0  0  0  0  0  0  0  0  0  0
    0.0913    1.0471    1.5534 C   0  0  0  0  0  0  0  0  0  0  0  0
    0.6885    1.4166   -3.1375 C   0  0  0  0  0  0  0  0  0  0  0  0
    1.5637    3.7270   -2.6907 C   0  0  0  0  0  0  0  0  0  0  0  0
    2.2886    2.5285    3.3674 C   0  0  0  0  0  0  0  0  0  0  0  0
   -1.4102    1.1503    1.4072 C   0  0  0  0  0  0  0  0  0  0  0  0
    3.6868   -1.2494   -1.0406 C   0  0  0  0  0  0  0  0  0  0  0  0
   -3.4480   -0.2714    1.5724 C   0  0  0  0  0  0  0  0  0  0  0  0
   -3.8829   -0.6646    0.1683 C   0  0  0  0  0  0  0  0  0  0  0  0
   -5.7169   -1.6392   -1.0592 C   0  0  0  0  0  0  0  0  0  0  0  0
   -6.0226    0.4477    0.1026 C   0  0  0  0  0  0  0  0  0  0  0  0
    3.3399   -2.4889   -0.2990 C   0  0  0  0  0  0  0  0  0  0  0  0
   -7.2332   -1.8077   -1.0968 C   0  0  0  0  0  0  0  0  0  0  0  0
   -7.5315    0.2295    0.0386 C   0  0  0  0  0  0  0  0  0  0  0  0
    3.0450   -3.6617   -0.9587 C   0  0  0  0  0  0  0  0  0  0  0  0
    3.0181   -3.5369    1.7080 C   0  0  0  0  0  0  0  0  0  0  0  0
    2.7231   -4.7098    1.0482 C   0  0  0  0  0  0  0  0  0  0  0  0
    1.6577    0.8486   -0.8488 H   0  0  0  0  0  0  0  0  0  0  0  0
    3.6364    3.1773   -0.7867 H   0  0  0  0  0  0  0  0  0  0  0  0
   -0.1908    2.5479   -0.6533 H   0  0  0  0  0  0  0  0  0  0  0  0
    0.9991    3.7893   -0.2880 H   0  0  0  0  0  0  0  0  0  0  0  0
    0.2240    3.1885    1.7760 H   0  0  0  0  0  0  0  0  0  0  0  0
    2.7290    1.9611   -2.9758 H   0  0  0  0  0  0  0  0  0  0  0  0
    4.2638    2.3919    1.5780 H   0  0  0  0  0  0  0  0  0  0  0  0
    5.2926    1.4073   -0.4669 H   0  0  0  0  0  0  0  0  0  0  0  0
    4.3716    1.0772   -1.9238 H   0  0  0  0  0  0  0  0  0  0  0  0
    0.2769    0.7126    2.5814 H   0  0  0  0  0  0  0  0  0  0  0  0
    0.4590    0.2544    0.8925 H   0  0  0  0  0  0  0  0  0  0  0  0
   -0.3005    1.6463   -2.7293 H   0  0  0  0  0  0  0  0  0  0  0  0
    0.8668    0.3433   -3.0107 H   0  0  0  0  0  0  0  0  0  0  0  0
    0.6549    1.6187   -4.2138 H   0  0  0  0  0  0  0  0  0  0  0  0
    0.5462    4.0459   -2.4409 H   0  0  0  0  0  0  0  0  0  0  0  0
    1.6962    3.9623   -3.7540 H   0  0  0  0  0  0  0  0  0  0  0  0
    2.2811    4.3479   -2.1459 H   0  0  0  0  0  0  0  0  0  0  0  0
    1.7444    3.4150    3.7088 H   0  0  0  0  0  0  0  0  0  0  0  0
    3.3270    2.6345    3.6996 H   0  0  0  0  0  0  0  0  0  0  0  0
    1.8734    1.6499    3.8693 H   0  0  0  0  0  0  0  0  0  0  0  0
    3.9773   -0.2192    0.7434 H   0  0  0  0  0  0  0  0  0  0  0  0
   -1.4419   -0.8806    1.8645 H   0  0  0  0  0  0  0  0  0  0  0  0
   -3.9251    0.6528    1.9110 H   0  0  0  0  0  0  0  0  0  0  0  0
   -3.6973   -1.0614    2.2898 H   0  0  0  0  0  0  0  0  0  0  0  0
   -3.3752   -1.6070   -0.0789 H   0  0  0  0  0  0  0  0  0  0  0  0
   -3.5407    0.0687   -0.5740 H   0  0  0  0  0  0  0  0  0  0  0  0
   -5.2534   -2.6317   -1.0224 H   0  0  0  0  0  0  0  0  0  0  0  0
   -5.3810   -1.1397   -1.9774 H   0  0  0  0  0  0  0  0  0  0  0  0
   -5.7058    1.0378   -0.7675 H   0  0  0  0  0  0  0  0  0  0  0  0
   -5.8088    1.0315    1.0026 H   0  0  0  0  0  0  0  0  0  0  0  0
   -7.5976   -2.3857   -0.2387 H   0  0  0  0  0  0  0  0  0  0  0  0
   -7.5262   -2.3437   -2.0052 H   0  0  0  0  0  0  0  0  0  0  0  0
   -8.0450    1.1936   -0.0341 H   0  0  0  0  0  0  0  0  0  0  0  0
   -7.9059   -0.2786    0.9357 H   0  0  0  0  0  0  0  0  0  0  0  0
    3.0473   -3.7472   -2.0389 H   0  0  0  0  0  0  0  0  0  0  0  0
    3.0111   -3.4704    2.7889 H   0  0  0  0  0  0  0  0  0  0  0  0
    2.4710   -5.6185    1.5807 H   0  0  0  0  0  0  0  0  0  0  0  0
  1 21  2  0  0  0  0
  2 28  1  0  0  0  0
  2 29  1  0  0  0  0
  3 22  2  0  0  0  0
  4 16  1  0  0  0  0
  4 22  1  0  0  0  0
  4 53  1  0  0  0  0
  5 21  1  0  0  0  0
  5 23  1  0  0  0  0
  5 54  1  0  0  0  0
  6 24  1  0  0  0  0
  6 25  1  0  0  0  0
  6 26  1  0  0  0  0
  7 27  2  0  0  0  0
  7 31  1  0  0  0  0
  8 30  2  0  0  0  0
  8 32  1  0  0  0  0
  9 10  1  0  0  0  0
  9 11  1  0  0  0  0
  9 13  1  0  0  0  0
  9 33  1  0  0  0  0
 10 15  1  0  0  0  0
 10 16  1  0  0  0  0
 10 34  1  0  0  0  0
 11 12  1  0  0  0  0
 11 35  1  0  0  0  0
 11 36  1  0  0  0  0
 12 14  1  0  0  0  0
 12 17  1  0  0  0  0
 12 37  1  0  0  0  0
 13 18  1  0  0  0  0
 13 19  1  0  0  0  0
 13 38  1  0  0  0  0
 14 15  2  0  0  0  0
 14 20  1  0  0  0  0
 15 39  1  0  0  0  0
 16 40  1  0  0  0  0
 16 41  1  0  0  0  0
 17 21  1  0  0  0  0
 17 42  1  0  0  0  0
 17 43  1  0  0  0  0
 18 44  1  0  0  0  0
 18 45  1  0  0  0  0
 18 46  1  0  0  0  0
 19 47  1  0  0  0  0
 19 48  1  0  0  0  0
 19 49  1  0  0  0  0
 20 50  1  0  0  0  0
 20 51  1  0  0  0  0
 20 52  1  0  0  0  0
 22 27  1  0  0  0  0
 23 24  1  0  0  0  0
 23 55  1  0  0  0  0
 23 56  1  0  0  0  0
 24 57  1  0  0  0  0
 24 58  1  0  0  0  0
 25 28  1  0  0  0  0
 25 59  1  0  0  0  0
 25 60  1  0  0  0  0
 26 29  1  0  0  0  0
 26 61  1  0  0  0  0
 26 62  1  0  0  0  0
 27 30  1  0  0  0  0
 28 63  1  0  0  0  0
 28 64  1  0  0  0  0
 29 65  1  0  0  0  0
 29 66  1  0  0  0  0
 30 67  1  0  0  0  0
 31 32  2  0  0  0  0
 31 68  1  0  0  0  0
 32 69  1  0  0  0  0
M  END
> <PUBCHEM_COMPOUND_CID>
38027067

> <PUBCHEM_CONFORMER_RMSD>
1.2

> <PUBCHEM_CONFORMER_DIVERSEORDER>
1
49
117
50
52
109
48
22
26
64
93
41
113
51
34
36
33
97
56
14
68
72
92
61
66
80
82
75
74
71
90
118
70
59
45
21
44
7
77
94
40
111
101
38
53
5
85
76
103
20
112
99
105
3
106
95
23
96
73
65
104
88
18
69
78
55
10
116
57
47
108
15
91
84
67
37
27
29
28
2
86
13
6
98
81
46
58
42
32
89
102
11
35
83
87
39
60
114
79
19
17
43
8
9
31
30
115
54
16
4
12
63
107
62
100
110
24
25

> <PUBCHEM_MMFF94_PARTIAL_CHARGES>
33
1 -0.57
10 0.14
12 0.14
14 -0.28
15 -0.29
16 0.3
17 0.06
2 -0.56
20 0.14
21 0.57
22 0.54
23 0.3
24 0.27
25 0.27
26 0.27
27 0.4
28 0.28
29 0.28
3 -0.57
30 0.16
31 0.16
32 0.16
39 0.15
4 -0.73
5 -0.73
53 0.37
54 0.37
6 -0.81
67 0.15
68 0.15
69 0.15
7 -0.62
8 -0.62

> <PUBCHEM_EFFECTIVE_ROTOR_COUNT>
13

> <PUBCHEM_PHARMACOPHORE_FEATURES>
12
1 1 acceptor
1 2 acceptor
1 3 acceptor
1 4 donor
1 5 donor
1 6 cation
1 7 acceptor
1 8 acceptor
3 13 18 19 hydrophobe
6 2 6 25 26 28 29 rings
6 7 8 27 30 31 32 rings
6 9 10 11 12 14 15 rings

> <PUBCHEM_HEAVY_ATOM_COUNT>
32

> <PUBCHEM_ATOM_DEF_STEREO_COUNT>
3

> <PUBCHEM_ATOM_UDEF_STEREO_COUNT>
0

> <PUBCHEM_BOND_DEF_STEREO_COUNT>
0

> <PUBCHEM_BOND_UDEF_STEREO_COUNT>
0

> <PUBCHEM_ISOTOPIC_ATOM_COUNT>
0

> <PUBCHEM_COMPONENT_COUNT>
1

> <PUBCHEM_CACTVS_TAUTO_COUNT>
4

> <PUBCHEM_CONFORMER_ID>
02443F3B00000001

> <PUBCHEM_MMFF94_ENERGY>
61.3605

> <PUBCHEM_FEATURE_SELFOVERLAP>
60.901

> <PUBCHEM_SHAPE_FINGERPRINT>
10816530 23 17538010551274206381
11069576 57 18411991242945001342
11135609 149 18116974633892707711
12147406 95 17168686558161415569
131258 38 18201428194941992918
13533116 47 18343865520026208163
13947947 73 18263355903128964839
14918310 93 17968641784243711928
17134984 74 18340205305805017643
19026451 147 18337667504103612410
19315092 285 18202002088666775928
20775530 9 17901972754653923746
21703447 108 17775560966205181313
25222932 49 17775571944183695852
376196 1 16521332852364735076
4066623 53 17096075875610364638
59025328 239 18115319856187467764
5951187 136 16805888510184149837
59682541 52 18409720756482763935

> <PUBCHEM_SHAPE_MULTIPOLES>
616.03
14.83
5.72
2.82
45.84
6.51
-0.3
7.92
-4.16
-9.82
0.08
-2.29
-2.38
-1.1

> <PUBCHEM_SHAPE_SELFOVERLAP>
1265.066

> <PUBCHEM_SHAPE_VOLUME>
351.1

> <PUBCHEM_COORDINATE_TYPE>
2
5
10

$$$$
