11886128
  -OEChem-12032416143D

 45 49  0     1  0  0  0  0  0999 V2000
   -4.1018   -1.6932   -0.6216 S   0  0  0  0  0  0  0  0  0  0  0  0
   -4.2057    1.0418   -1.6494 S   0  0  0  0  0  0  0  0  0  0  0  0
   -0.8496    0.9150    1.7337 O   0  0  0  0  0  0  0  0  0  0  0  0
    0.3824   -1.8353    0.8341 O   0  0  0  0  0  0  0  0  0  0  0  0
   -4.6353   -2.4907    0.4660 O   0  0  0  0  0  0  0  0  0  0  0  0
   -4.4060   -2.0384   -1.9971 O   0  0  0  0  0  0  0  0  0  0  0  0
    2.0421    1.3659    0.2540 N   0  0  0  0  0  0  0  0  0  0  0  0
   -2.4177   -1.5589   -0.4507 N   0  0  0  0  0  0  0  0  0  0  0  0
    1.4801    2.5640    0.0642 N   0  0  0  0  0  0  0  0  0  0  0  0
    3.4220    2.4333   -1.0232 N   0  0  0  0  0  0  0  0  0  0  0  0
    2.3306    3.2154   -0.7196 N   0  0  0  0  0  0  0  0  0  0  0  0
    0.4116   -0.5029    0.2906 C   0  0  1  0  0  0  0  0  0  0  0  0
   -0.9496    0.1147    0.5453 C   0  0  1  0  0  0  0  0  0  0  0  0
    1.3789    0.3560    1.0829 C   0  0  2  0  0  0  0  0  0  0  0  0
   -1.8583   -1.0697    0.7861 C   0  0  2  0  0  0  0  0  0  0  0  0
    0.5058    0.9116    2.2026 C   0  0  0  0  0  0  0  0  0  0  0  0
   -0.9118   -2.0842    1.4004 C   0  0  0  0  0  0  0  0  0  0  0  0
    3.2211    1.2908   -0.4079 C   0  0  0  0  0  0  0  0  0  0  0  0
   -4.6273   -0.0226   -0.3814 C   0  0  0  0  0  0  0  0  0  0  0  0
    4.0854    0.1384   -0.4163 C   0  0  0  0  0  0  0  0  0  0  0  0
   -5.3128    0.6039    0.6273 C   0  0  0  0  0  0  0  0  0  0  0  0
    5.0795    0.0032    0.5544 C   0  0  0  0  0  0  0  0  0  0  0  0
    3.9317   -0.8452   -1.3949 C   0  0  0  0  0  0  0  0  0  0  0  0
   -5.4991    1.9906    0.3574 C   0  0  0  0  0  0  0  0  0  0  0  0
   -4.9459    2.3619   -0.8483 C   0  0  0  0  0  0  0  0  0  0  0  0
    5.9176   -1.1118    0.5463 C   0  0  0  0  0  0  0  0  0  0  0  0
    4.7696   -1.9603   -1.4028 C   0  0  0  0  0  0  0  0  0  0  0  0
    5.7626   -2.0935   -0.4322 C   0  0  0  0  0  0  0  0  0  0  0  0
    0.6468   -0.5914   -0.7747 H   0  0  0  0  0  0  0  0  0  0  0  0
   -1.2705    0.7757   -0.2653 H   0  0  0  0  0  0  0  0  0  0  0  0
    2.1852   -0.2340    1.5336 H   0  0  0  0  0  0  0  0  0  0  0  0
   -2.6482   -0.8449    1.5101 H   0  0  0  0  0  0  0  0  0  0  0  0
    0.5372    0.2475    3.0738 H   0  0  0  0  0  0  0  0  0  0  0  0
    0.7806    1.9154    2.5398 H   0  0  0  0  0  0  0  0  0  0  0  0
   -0.8283   -1.9416    2.4835 H   0  0  0  0  0  0  0  0  0  0  0  0
   -1.1961   -3.1235    1.2098 H   0  0  0  0  0  0  0  0  0  0  0  0
   -1.8446   -1.4448   -1.2960 H   0  0  0  0  0  0  0  0  0  0  0  0
   -5.6660    0.1012    1.5182 H   0  0  0  0  0  0  0  0  0  0  0  0
    5.2131    0.7596    1.3244 H   0  0  0  0  0  0  0  0  0  0  0  0
    3.1622   -0.7562   -2.1583 H   0  0  0  0  0  0  0  0  0  0  0  0
   -6.0122    2.6807    1.0145 H   0  0  0  0  0  0  0  0  0  0  0  0
   -4.9407    3.3453   -1.2969 H   0  0  0  0  0  0  0  0  0  0  0  0
    6.6906   -1.2157    1.3021 H   0  0  0  0  0  0  0  0  0  0  0  0
    4.6489   -2.7250   -2.1645 H   0  0  0  0  0  0  0  0  0  0  0  0
    6.4149   -2.9618   -0.4384 H   0  0  0  0  0  0  0  0  0  0  0  0
  1  5  2  0  0  0  0
  1  6  2  0  0  0  0
  1  8  1  0  0  0  0
  1 19  1  0  0  0  0
  2 19  1  0  0  0  0
  2 25  1  0  0  0  0
  3 13  1  0  0  0  0
  3 16  1  0  0  0  0
  4 12  1  0  0  0  0
  4 17  1  0  0  0  0
  7  9  1  0  0  0  0
  7 14  1  0  0  0  0
  7 18  1  0  0  0  0
  8 15  1  0  0  0  0
  8 37  1  0  0  0  0
  9 11  2  0  0  0  0
 10 11  1  0  0  0  0
 10 18  2  0  0  0  0
 12 13  1  0  0  0  0
 12 14  1  0  0  0  0
 12 29  1  0  0  0  0
 13 15  1  0  0  0  0
 13 30  1  0  0  0  0
 14 16  1  0  0  0  0
 14 31  1  0  0  0  0
 15 17  1  0  0  0  0
 15 32  1  0  0  0  0
 16 33  1  0  0  0  0
 16 34  1  0  0  0  0
 17 35  1  0  0  0  0
 17 36  1  0  0  0  0
 18 20  1  0  0  0  0
 19 21  2  0  0  0  0
 20 22  2  0  0  0  0
 20 23  1  0  0  0  0
 21 24  1  0  0  0  0
 21 38  1  0  0  0  0
 22 26  1  0  0  0  0
 22 39  1  0  0  0  0
 23 27  2  0  0  0  0
 23 40  1  0  0  0  0
 24 25  2  0  0  0  0
 24 41  1  0  0  0  0
 25 42  1  0  0  0  0
 26 28  2  0  0  0  0
 26 43  1  0  0  0  0
 27 28  1  0  0  0  0
 27 44  1  0  0  0  0
 28 45  1  0  0  0  0
M  END
> <PUBCHEM_COMPOUND_CID>
11886128

> <PUBCHEM_CONFORMER_RMSD>
0.8

> <PUBCHEM_CONFORMER_DIVERSEORDER>
1
47
82
92
185
105
86
135
173
174
79
62
59
24
80
114
106
111
123
108
170
145
161
176
38
175
132
101
152
109
137
115
58
120
159
186
102
169
65
178
144
136
26
95
126
131
13
54
12
52
156
150
99
76
98
39
124
89
93
116
181
83
36
189
63
107
119
155
141
20
192
29
148
180
171
172
188
140
118
164
100
35
90
190
167
9
162
73
183
151
165
87
143
22
130
110
154
69
147
177
182
84
2
91
33
184
81
70
74
72
146
32
19
23
163
10
56
168
158
49
153
31
166
67
117
44
125
41
40
128
139
30
78
94
77
4
42
43
179
61
88
104
142
48
129
55
191
97
51
15
3
66
6
8
113
21
71
157
34
18
68
187
122
27
14
53
17
11
25
85
64
121
133
16
160
75
149
112
96
7
138
134
5
57
50
127
37
60
46
103
28
45

> <PUBCHEM_MMFF94_PARTIAL_CHARGES>
36
1 1.5
10 -0.34
12 0.28
13 0.28
14 0.26
15 0.36
16 0.28
17 0.28
18 0.13
19 -0.02
2 -0.08
20 0.05
21 -0.15
22 -0.15
23 -0.15
24 -0.15
25 -0.11
26 -0.15
27 -0.15
28 -0.15
3 -0.56
37 0.42
38 0.15
39 0.15
4 -0.56
40 0.15
41 0.15
42 0.15
43 0.15
44 0.15
45 0.15
5 -0.65
6 -0.65
7 0.31
8 -0.91
9 -0.42

> <PUBCHEM_EFFECTIVE_ROTOR_COUNT>
6.2

> <PUBCHEM_PHARMACOPHORE_FEATURES>
11
1 3 acceptor
1 4 acceptor
1 5 acceptor
1 6 acceptor
1 8 donor
3 7 10 18 cation
5 2 19 21 24 25 rings
5 3 12 13 14 16 rings
5 4 12 13 15 17 rings
5 7 9 10 11 18 rings
6 20 22 23 26 27 28 rings

> <PUBCHEM_HEAVY_ATOM_COUNT>
28

> <PUBCHEM_ATOM_DEF_STEREO_COUNT>
4

> <PUBCHEM_ATOM_UDEF_STEREO_COUNT>
0

> <PUBCHEM_BOND_DEF_STEREO_COUNT>
0

> <PUBCHEM_BOND_UDEF_STEREO_COUNT>
0

> <PUBCHEM_ISOTOPIC_ATOM_COUNT>
0

> <PUBCHEM_COMPONENT_COUNT>
1

> <PUBCHEM_CACTVS_TAUTO_COUNT>
1

> <PUBCHEM_CONFORMER_ID>
00B55E3000000001

> <PUBCHEM_MMFF94_ENERGY>
60.097

> <PUBCHEM_FEATURE_SELFOVERLAP>
56.533

> <PUBCHEM_SHAPE_FINGERPRINT>
10447042 23 17418372489666728750
10613725 11 18411138008867860479
10670039 82 15864064339190875710
10815517 723 18194693570152732888
11135609 201 10738156623068991382
11578080 2 17532390823397136292
11796584 16 18130785642383258238
11828532 37 18260834856173400215
1200032 147 17608651614228653465
12596602 18 12035453817664184703
128238 76 8069729780906678609
13627167 48 17240489138416255828
13627175 23 18057046814422392921
13782708 43 18263656215553070163
14251751 18 18131627902454343598
14289585 56 17604431769530362957
14347332 77 18129939117731090119
146900 427 8214146252722811222
14787075 74 10953749893027961789
14955137 171 17895209822046186293
15003188 33 18410577331052696948
15183329 4 18113330903913734854
15420108 30 17477779978646346128
17349148 13 18060432308653383650
17844677 252 18261960746889103043
19311894 1 18410855452298272217
19377110 9 9583233882386694420
20511986 3 17703214192425180086
21279426 13 18408886204827812278
21315759 227 13829557817796478653
21709351 56 18408598167425897007
21864079 5 18114450245817083661
21987440 362 17761497985132494077
22079108 93 9150878469957080080
221357 26 18268988851415979223
22393880 68 18334848416497930041
23559900 14 18342737429675540746
3004659 81 18343025497559172662
3459 83 17986679177322462655
392239 28 10591779665948166500
4098825 35 18336270127818949668
437795 139 16127219317942941797
44062 13 18342739628598868303
463206 1 17774720995256595246
5207 123 18341055134088455102
5281201 14 18337674229810556533
5283173 99 18342457006448839641
613672 6 15410901777107020629
633830 44 18260824942787610763
6442390 28 9583513222970562500
6913067 236 13038901110205309752
7399639 24 17330559159721148208
8988823 20 17132109135580222120

> <PUBCHEM_SHAPE_MULTIPOLES>
535.54
14.61
3.04
1.6
0.73
0.75
0.07
-2.06
-4.45
-0.59
-0.64
-0.37
-0.13
0.21

> <PUBCHEM_SHAPE_SELFOVERLAP>
1148.566

> <PUBCHEM_SHAPE_VOLUME>
298.2

> <PUBCHEM_COORDINATE_TYPE>
2
5
10

$$$$
