38028161
  -OEChem-12032416343D

 61 63  0     1  0  0  0  0  0999 V2000
    3.4760   -1.7124    0.1274 O   0  0  0  0  0  0  0  0  0  0  0  0
    4.3246    3.0456   -0.9220 O   0  0  0  0  0  0  0  0  0  0  0  0
   -3.4323    0.3162   -1.6942 O   0  0  0  0  0  0  0  0  0  0  0  0
   -2.8657   -0.4631    0.4171 N   0  0  0  0  0  0  0  0  0  0  0  0
    3.4657    0.6081    0.2013 N   0  0  0  0  0  0  0  0  0  0  0  0
   -3.1322    4.2900   -0.3444 N   0  0  0  0  0  0  0  0  0  0  0  0
   -1.5517    3.4632    1.2759 N   0  0  0  0  0  0  0  0  0  0  0  0
   -0.7181   -2.2661   -0.6691 C   0  0  1  0  0  0  0  0  0  0  0  0
   -1.7993   -2.6560    0.3697 C   0  0  1  0  0  0  0  0  0  0  0  0
    0.6674   -2.7403   -0.2047 C   0  0  0  0  0  0  0  0  0  0  0  0
    1.0616   -2.1410    1.1584 C   0  0  2  0  0  0  0  0  0  0  0  0
   -1.0263   -2.8430   -2.0544 C   0  0  0  0  0  0  0  0  0  0  0  0
   -0.0637   -2.2484    2.1675 C   0  0  0  0  0  0  0  0  0  0  0  0
   -1.3334   -2.4923    1.7975 C   0  0  0  0  0  0  0  0  0  0  0  0
   -3.0864   -1.8511    0.1570 C   0  0  0  0  0  0  0  0  0  0  0  0
    1.5279   -0.6885    1.0090 C   0  0  0  0  0  0  0  0  0  0  0  0
   -0.3540   -2.0084   -3.1399 C   0  0  0  0  0  0  0  0  0  0  0  0
   -0.5783   -4.2987   -2.1361 C   0  0  0  0  0  0  0  0  0  0  0  0
    0.3117   -2.1143    3.6170 C   0  0  0  0  0  0  0  0  0  0  0  0
    2.9103   -0.6528    0.4079 C   0  0  0  0  0  0  0  0  0  0  0  0
    4.8012    0.7334   -0.3822 C   0  0  0  0  0  0  0  0  0  0  0  0
    2.8775    1.8791    0.6374 C   0  0  0  0  0  0  0  0  0  0  0  0
   -3.0588    0.5289   -0.5437 C   0  0  0  0  0  0  0  0  0  0  0  0
    4.8117    1.8118   -1.4563 C   0  0  0  0  0  0  0  0  0  0  0  0
    2.9719    2.9138   -0.4770 C   0  0  0  0  0  0  0  0  0  0  0  0
   -2.7605    1.9222   -0.1234 C   0  0  0  0  0  0  0  0  0  0  0  0
   -3.3789    3.0124   -0.7010 C   0  0  0  0  0  0  0  0  0  0  0  0
   -1.8469    2.2109    0.8696 C   0  0  0  0  0  0  0  0  0  0  0  0
   -2.2213    4.4407    0.6358 C   0  0  0  0  0  0  0  0  0  0  0  0
   -0.6903   -1.1738   -0.7546 H   0  0  0  0  0  0  0  0  0  0  0  0
   -2.0555   -3.7164    0.2519 H   0  0  0  0  0  0  0  0  0  0  0  0
    1.4271   -2.5194   -0.9601 H   0  0  0  0  0  0  0  0  0  0  0  0
    0.6755   -3.8287   -0.0617 H   0  0  0  0  0  0  0  0  0  0  0  0
    1.8849   -2.7561    1.5487 H   0  0  0  0  0  0  0  0  0  0  0  0
   -2.1026   -2.8083   -2.2517 H   0  0  0  0  0  0  0  0  0  0  0  0
   -2.0928   -2.6061    2.5688 H   0  0  0  0  0  0  0  0  0  0  0  0
   -3.8591   -2.1824    0.8615 H   0  0  0  0  0  0  0  0  0  0  0  0
   -3.4980   -1.9963   -0.8453 H   0  0  0  0  0  0  0  0  0  0  0  0
    1.5914   -0.2028    1.9889 H   0  0  0  0  0  0  0  0  0  0  0  0
    0.8424   -0.1084    0.3841 H   0  0  0  0  0  0  0  0  0  0  0  0
   -0.6955   -0.9683   -3.1017 H   0  0  0  0  0  0  0  0  0  0  0  0
   -0.6040   -2.3994   -4.1324 H   0  0  0  0  0  0  0  0  0  0  0  0
    0.7368   -2.0103   -3.0517 H   0  0  0  0  0  0  0  0  0  0  0  0
   -0.9721   -4.7447   -3.0580 H   0  0  0  0  0  0  0  0  0  0  0  0
   -0.9624   -4.9063   -1.3114 H   0  0  0  0  0  0  0  0  0  0  0  0
    0.5094   -4.4120   -2.1931 H   0  0  0  0  0  0  0  0  0  0  0  0
    1.0971   -2.8321    3.8746 H   0  0  0  0  0  0  0  0  0  0  0  0
   -0.5380   -2.3078    4.2807 H   0  0  0  0  0  0  0  0  0  0  0  0
    0.6747   -1.1064    3.8373 H   0  0  0  0  0  0  0  0  0  0  0  0
   -2.6324   -0.1978    1.3686 H   0  0  0  0  0  0  0  0  0  0  0  0
    5.1424   -0.2205   -0.7954 H   0  0  0  0  0  0  0  0  0  0  0  0
    5.4743    1.0093    0.4381 H   0  0  0  0  0  0  0  0  0  0  0  0
    3.4637    2.2062    1.5043 H   0  0  0  0  0  0  0  0  0  0  0  0
    1.8399    1.7724    0.9567 H   0  0  0  0  0  0  0  0  0  0  0  0
    5.8332    1.9789   -1.8120 H   0  0  0  0  0  0  0  0  0  0  0  0
    4.1984    1.5240   -2.3184 H   0  0  0  0  0  0  0  0  0  0  0  0
    2.3363    2.6419   -1.3282 H   0  0  0  0  0  0  0  0  0  0  0  0
    2.6416    3.8909   -0.1111 H   0  0  0  0  0  0  0  0  0  0  0  0
   -4.1165    2.8988   -1.4893 H   0  0  0  0  0  0  0  0  0  0  0  0
   -1.2790    1.4418    1.3828 H   0  0  0  0  0  0  0  0  0  0  0  0
   -2.0037    5.4566    0.9420 H   0  0  0  0  0  0  0  0  0  0  0  0
  1 20  2  0  0  0  0
  2 24  1  0  0  0  0
  2 25  1  0  0  0  0
  3 23  2  0  0  0  0
  4 15  1  0  0  0  0
  4 23  1  0  0  0  0
  4 50  1  0  0  0  0
  5 20  1  0  0  0  0
  5 21  1  0  0  0  0
  5 22  1  0  0  0  0
  6 27  2  0  0  0  0
  6 29  1  0  0  0  0
  7 28  1  0  0  0  0
  7 29  2  0  0  0  0
  8  9  1  0  0  0  0
  8 10  1  0  0  0  0
  8 12  1  0  0  0  0
  8 30  1  0  0  0  0
  9 14  1  0  0  0  0
  9 15  1  0  0  0  0
  9 31  1  0  0  0  0
 10 11  1  0  0  0  0
 10 32  1  0  0  0  0
 10 33  1  0  0  0  0
 11 13  1  0  0  0  0
 11 16  1  0  0  0  0
 11 34  1  0  0  0  0
 12 17  1  0  0  0  0
 12 18  1  0  0  0  0
 12 35  1  0  0  0  0
 13 14  2  0  0  0  0
 13 19  1  0  0  0  0
 14 36  1  0  0  0  0
 15 37  1  0  0  0  0
 15 38  1  0  0  0  0
 16 20  1  0  0  0  0
 16 39  1  0  0  0  0
 16 40  1  0  0  0  0
 17 41  1  0  0  0  0
 17 42  1  0  0  0  0
 17 43  1  0  0  0  0
 18 44  1  0  0  0  0
 18 45  1  0  0  0  0
 18 46  1  0  0  0  0
 19 47  1  0  0  0  0
 19 48  1  0  0  0  0
 19 49  1  0  0  0  0
 21 24  1  0  0  0  0
 21 51  1  0  0  0  0
 21 52  1  0  0  0  0
 22 25  1  0  0  0  0
 22 53  1  0  0  0  0
 22 54  1  0  0  0  0
 23 26  1  0  0  0  0
 24 55  1  0  0  0  0
 24 56  1  0  0  0  0
 25 57  1  0  0  0  0
 25 58  1  0  0  0  0
 26 27  1  0  0  0  0
 26 28  2  0  0  0  0
 27 59  1  0  0  0  0
 28 60  1  0  0  0  0
 29 61  1  0  0  0  0
M  END
> <PUBCHEM_COMPOUND_CID>
38028161

> <PUBCHEM_CONFORMER_RMSD>
1

> <PUBCHEM_CONFORMER_DIVERSEORDER>
1
77
199
49
48
72
68
65
44
21
28
148
118
246
127
71
67
211
238
66
91
89
128
224
117
234
229
186
73
159
214
184
196
195
64
37
94
198
98
145
134
119
197
23
111
116
243
149
112
35
172
173
141
138
225
103
83
248
96
170
34
187
39
18
90
50
17
171
227
11
151
122
226
19
181
60
87
56
231
62
115
213
155
59
51
139
88
129
247
10
82
245
239
168
2
78
135
9
208
235
81
131
223
99
15
193
164
241
160
147
55
27
86
92
54
53
104
110
3
57
188
130
165
152
182
43
183
236
45
154
242
40
107
58
30
121
240
38
150
97
124
42
237
204
63
178
25
232
207
216
220
192
176
194
174
76
132
215
46
203
22
169
200
166
205
113
153
108
80
206
6
190
156
133
158
106
79
142
167
179
29
47
123
93
157
189
24
75
4
84
95
5
20
85
105
180
136
31
41
102
109
33
219
202
210
70
120
143
7
209
12
163
233
217
228
125
230
218
74
101
221
61
140
177
212
201
14
32
244
191
13
175
222
162
137
36
69
16
161
126
146
26
144
100
8
114
185
52

> <PUBCHEM_MMFF94_PARTIAL_CHARGES>
29
1 -0.57
11 0.14
13 -0.28
14 -0.29
15 0.3
16 0.06
19 0.14
2 -0.56
20 0.57
21 0.3
22 0.3
23 0.54
24 0.28
25 0.28
26 0.09
27 0.16
28 0.16
29 0.47
3 -0.57
36 0.15
4 -0.73
5 -0.66
50 0.37
59 0.15
6 -0.62
60 0.15
61 0.15
7 -0.62
9 0.14

> <PUBCHEM_EFFECTIVE_ROTOR_COUNT>
10

> <PUBCHEM_PHARMACOPHORE_FEATURES>
10
1 1 acceptor
1 2 acceptor
1 3 acceptor
1 4 donor
1 6 acceptor
3 12 17 18 hydrophobe
3 6 7 29 cation
6 2 5 21 22 24 25 rings
6 6 7 26 27 28 29 rings
6 8 9 10 11 13 14 rings

> <PUBCHEM_HEAVY_ATOM_COUNT>
29

> <PUBCHEM_ATOM_DEF_STEREO_COUNT>
3

> <PUBCHEM_ATOM_UDEF_STEREO_COUNT>
0

> <PUBCHEM_BOND_DEF_STEREO_COUNT>
0

> <PUBCHEM_BOND_UDEF_STEREO_COUNT>
0

> <PUBCHEM_ISOTOPIC_ATOM_COUNT>
0

> <PUBCHEM_COMPONENT_COUNT>
1

> <PUBCHEM_CACTVS_TAUTO_COUNT>
2

> <PUBCHEM_CONFORMER_ID>
0244438100000001

> <PUBCHEM_MMFF94_ENERGY>
67.3176

> <PUBCHEM_FEATURE_SELFOVERLAP>
50.747

> <PUBCHEM_SHAPE_FINGERPRINT>
11221954 11 18267309716297206139
11513181 2 18201717297954331102
12107698 1 18336546014985445843
12156800 1 17032254856093181345
12788726 201 18190176969769387096
12978246 48 18336546010521777624
13122387 1 18409165545179968224
13761468 95 18055105209377487972
13994607 96 18043532939124924247
14279260 333 18334577945981734398
14787075 74 17970622111706616667
161222 619 18048350823511993081
17980427 23 17474065884196648443
19930381 70 16105008413745930146
20764821 26 17617937375786418000
21860390 5 17476912463887030503
23559900 14 16764204603468837277
26353 1 16980088681479736447
35225 105 18339641243154289436
469060 322 14563375210382629906
5048184 11 18336267821258468472
5081480 168 16766220033645867399
7288768 16 17676485102901937538

> <PUBCHEM_SHAPE_MULTIPOLES>
559.27
7.38
6.5
2.5
9.52
4.86
0.39
6.72
-2.54
-4.67
-0.72
-0.49
-2.97
-1.19

> <PUBCHEM_SHAPE_SELFOVERLAP>
1159.971

> <PUBCHEM_SHAPE_VOLUME>
313.9

> <PUBCHEM_COORDINATE_TYPE>
2
5
10

$$$$
