45361711
  -OEChem-12032416233D

 79 83  0     1  0  0  0  0  0999 V2000
    0.5606   -3.9980   -0.9925 O   0  0  0  0  0  0  0  0  0  0  0  0
   -4.2554    0.9938    1.3784 O   0  0  0  0  0  0  0  0  0  0  0  0
   -0.7975    0.0722   -1.8405 O   0  0  0  0  0  0  0  0  0  0  0  0
   -1.2325    3.6114   -0.0669 O   0  0  0  0  0  0  0  0  0  0  0  0
   -0.5851   -2.1112   -0.2615 N   0  0  0  0  0  0  0  0  0  0  0  0
   -3.0755   -0.7133    0.3304 N   0  0  0  0  0  0  0  0  0  0  0  0
   -7.8712    0.4590    1.0906 N   0  0  0  0  0  0  0  0  0  0  0  0
    0.3152    1.3458   -0.2406 N   0  0  0  0  0  0  0  0  0  0  0  0
    4.7191    0.8592   -1.2418 N   0  0  0  0  0  0  0  0  0  0  0  0
   -0.6947    4.1026   -2.2455 N   0  0  0  0  0  0  0  0  0  0  0  0
    1.8808   -2.1263   -0.4060 C   0  0  0  0  0  0  0  0  0  0  0  0
   -0.5826   -0.7891    0.3785 C   0  0  2  0  0  0  0  0  0  0  0  0
    2.8815   -2.5989   -1.4625 C   0  0  0  0  0  0  0  0  0  0  0  0
    2.4050   -2.2919    1.0219 C   0  0  0  0  0  0  0  0  0  0  0  0
   -1.8750   -0.5011    1.1438 C   0  0  0  0  0  0  0  0  0  0  0  0
   -1.8857   -2.7681   -0.4144 C   0  0  0  0  0  0  0  0  0  0  0  0
    0.5686   -2.8336   -0.5841 C   0  0  0  0  0  0  0  0  0  0  0  0
   -3.0180   -1.7830   -0.6708 C   0  0  0  0  0  0  0  0  0  0  0  0
    3.4577   -3.9822   -1.1650 C   0  0  0  0  0  0  0  0  0  0  0  0
    3.0041   -3.6715    1.2936 C   0  0  0  0  0  0  0  0  0  0  0  0
   -5.3893   -0.1933   -0.3294 C   0  0  0  0  0  0  0  0  0  0  0  0
    4.0377   -4.0592    0.2426 C   0  0  0  0  0  0  0  0  0  0  0  0
   -4.1969    0.0920    0.5395 C   0  0  0  0  0  0  0  0  0  0  0  0
   -6.2810   -1.2640    0.3028 C   0  0  0  0  0  0  0  0  0  0  0  0
   -6.1819    1.0865   -0.6039 C   0  0  0  0  0  0  0  0  0  0  0  0
   -0.3848    0.2416   -0.6961 C   0  0  0  0  0  0  0  0  0  0  0  0
   -7.0967   -0.7200    1.4767 C   0  0  0  0  0  0  0  0  0  0  0  0
   -7.0018    1.5315    0.6081 C   0  0  0  0  0  0  0  0  0  0  0  0
    0.6560    2.4689   -1.0839 C   0  0  2  0  0  0  0  0  0  0  0  0
    1.9296    3.1810   -0.6142 C   0  0  0  0  0  0  0  0  0  0  0  0
    3.1338    2.2712   -0.5940 C   0  0  0  0  0  0  0  0  0  0  0  0
   -0.5272    3.4254   -1.0558 C   0  0  0  0  0  0  0  0  0  0  0  0
    3.9668    1.9935    0.5258 C   0  0  0  0  0  0  0  0  0  0  0  0
    3.6215    1.5594   -1.6655 C   0  0  0  0  0  0  0  0  0  0  0  0
    4.9533    1.1052    0.0922 C   0  0  0  0  0  0  0  0  0  0  0  0
    3.9764    2.4139    1.8706 C   0  0  0  0  0  0  0  0  0  0  0  0
    5.9529    0.6143    0.9399 C   0  0  0  0  0  0  0  0  0  0  0  0
    4.9701    1.9311    2.7299 C   0  0  0  0  0  0  0  0  0  0  0  0
    5.9422    1.0451    2.2695 C   0  0  0  0  0  0  0  0  0  0  0  0
    1.7495   -1.0608   -0.6006 H   0  0  0  0  0  0  0  0  0  0  0  0
    0.2436   -0.7276    1.0882 H   0  0  0  0  0  0  0  0  0  0  0  0
    3.7129   -1.8847   -1.5049 H   0  0  0  0  0  0  0  0  0  0  0  0
    2.4233   -2.6014   -2.4592 H   0  0  0  0  0  0  0  0  0  0  0  0
    1.6259   -2.1159    1.7698 H   0  0  0  0  0  0  0  0  0  0  0  0
    3.1825   -1.5373    1.1971 H   0  0  0  0  0  0  0  0  0  0  0  0
   -1.9609   -1.1827    1.9993 H   0  0  0  0  0  0  0  0  0  0  0  0
   -1.8730    0.5191    1.5439 H   0  0  0  0  0  0  0  0  0  0  0  0
   -1.8383   -3.5045   -1.2240 H   0  0  0  0  0  0  0  0  0  0  0  0
   -2.0675   -3.3207    0.5158 H   0  0  0  0  0  0  0  0  0  0  0  0
   -2.8993   -1.3083   -1.6507 H   0  0  0  0  0  0  0  0  0  0  0  0
   -3.9585   -2.3379   -0.6912 H   0  0  0  0  0  0  0  0  0  0  0  0
    4.2554   -4.1928   -1.8879 H   0  0  0  0  0  0  0  0  0  0  0  0
    2.7178   -4.7749   -1.3052 H   0  0  0  0  0  0  0  0  0  0  0  0
    3.4692   -3.6793    2.2860 H   0  0  0  0  0  0  0  0  0  0  0  0
    2.2049   -4.4224    1.3142 H   0  0  0  0  0  0  0  0  0  0  0  0
   -5.0492   -0.5413   -1.3100 H   0  0  0  0  0  0  0  0  0  0  0  0
    4.9042   -3.3905    0.3187 H   0  0  0  0  0  0  0  0  0  0  0  0
    4.4007   -5.0745    0.4377 H   0  0  0  0  0  0  0  0  0  0  0  0
   -5.6943   -2.1188    0.6566 H   0  0  0  0  0  0  0  0  0  0  0  0
   -6.9698   -1.6479   -0.4612 H   0  0  0  0  0  0  0  0  0  0  0  0
   -5.5126    1.8999   -0.9099 H   0  0  0  0  0  0  0  0  0  0  0  0
   -6.8643    0.9077   -1.4457 H   0  0  0  0  0  0  0  0  0  0  0  0
   -6.4443   -0.4842    2.3258 H   0  0  0  0  0  0  0  0  0  0  0  0
   -7.7889   -1.4978    1.8180 H   0  0  0  0  0  0  0  0  0  0  0  0
   -7.6374    2.3703    0.3005 H   0  0  0  0  0  0  0  0  0  0  0  0
   -6.3820    1.9151    1.4232 H   0  0  0  0  0  0  0  0  0  0  0  0
   -8.4025    0.7918    1.8946 H   0  0  0  0  0  0  0  0  0  0  0  0
    0.5453    1.4110    0.7470 H   0  0  0  0  0  0  0  0  0  0  0  0
    0.7839    2.0944   -2.1074 H   0  0  0  0  0  0  0  0  0  0  0  0
    2.1463    4.0299   -1.2756 H   0  0  0  0  0  0  0  0  0  0  0  0
    1.7675    3.6079    0.3835 H   0  0  0  0  0  0  0  0  0  0  0  0
    3.2888    1.4863   -2.6915 H   0  0  0  0  0  0  0  0  0  0  0  0
    5.2765    0.2488   -1.8234 H   0  0  0  0  0  0  0  0  0  0  0  0
   -1.4400    4.7820   -2.3571 H   0  0  0  0  0  0  0  0  0  0  0  0
   -0.0900    3.9550   -3.0472 H   0  0  0  0  0  0  0  0  0  0  0  0
    3.2271    3.1033    2.2487 H   0  0  0  0  0  0  0  0  0  0  0  0
    6.7093   -0.0764    0.5825 H   0  0  0  0  0  0  0  0  0  0  0  0
    4.9821    2.2515    3.7683 H   0  0  0  0  0  0  0  0  0  0  0  0
    6.7044    0.6822    2.9543 H   0  0  0  0  0  0  0  0  0  0  0  0
  1 17  2  0  0  0  0
  2 23  2  0  0  0  0
  3 26  2  0  0  0  0
  4 32  2  0  0  0  0
  5 12  1  0  0  0  0
  5 16  1  0  0  0  0
  5 17  1  0  0  0  0
  6 15  1  0  0  0  0
  6 18  1  0  0  0  0
  6 23  1  0  0  0  0
  7 27  1  0  0  0  0
  7 28  1  0  0  0  0
  7 67  1  0  0  0  0
  8 26  1  0  0  0  0
  8 29  1  0  0  0  0
  8 68  1  0  0  0  0
  9 34  1  0  0  0  0
  9 35  1  0  0  0  0
  9 73  1  0  0  0  0
 10 32  1  0  0  0  0
 10 74  1  0  0  0  0
 10 75  1  0  0  0  0
 11 13  1  0  0  0  0
 11 14  1  0  0  0  0
 11 17  1  0  0  0  0
 11 40  1  0  0  0  0
 12 15  1  0  0  0  0
 12 26  1  0  0  0  0
 12 41  1  0  0  0  0
 13 19  1  0  0  0  0
 13 42  1  0  0  0  0
 13 43  1  0  0  0  0
 14 20  1  0  0  0  0
 14 44  1  0  0  0  0
 14 45  1  0  0  0  0
 15 46  1  0  0  0  0
 15 47  1  0  0  0  0
 16 18  1  0  0  0  0
 16 48  1  0  0  0  0
 16 49  1  0  0  0  0
 18 50  1  0  0  0  0
 18 51  1  0  0  0  0
 19 22  1  0  0  0  0
 19 52  1  0  0  0  0
 19 53  1  0  0  0  0
 20 22  1  0  0  0  0
 20 54  1  0  0  0  0
 20 55  1  0  0  0  0
 21 23  1  0  0  0  0
 21 24  1  0  0  0  0
 21 25  1  0  0  0  0
 21 56  1  0  0  0  0
 22 57  1  0  0  0  0
 22 58  1  0  0  0  0
 24 27  1  0  0  0  0
 24 59  1  0  0  0  0
 24 60  1  0  0  0  0
 25 28  1  0  0  0  0
 25 61  1  0  0  0  0
 25 62  1  0  0  0  0
 27 63  1  0  0  0  0
 27 64  1  0  0  0  0
 28 65  1  0  0  0  0
 28 66  1  0  0  0  0
 29 30  1  0  0  0  0
 29 32  1  0  0  0  0
 29 69  1  0  0  0  0
 30 31  1  0  0  0  0
 30 70  1  0  0  0  0
 30 71  1  0  0  0  0
 31 33  1  0  0  0  0
 31 34  2  0  0  0  0
 33 35  1  0  0  0  0
 33 36  2  0  0  0  0
 34 72  1  0  0  0  0
 35 37  2  0  0  0  0
 36 38  1  0  0  0  0
 36 76  1  0  0  0  0
 37 39  1  0  0  0  0
 37 77  1  0  0  0  0
 38 39  2  0  0  0  0
 38 78  1  0  0  0  0
 39 79  1  0  0  0  0
M  END
> <PUBCHEM_COMPOUND_CID>
45361711

> <PUBCHEM_CONFORMER_RMSD>
1.2

> <PUBCHEM_CONFORMER_DIVERSEORDER>
1
185
152
173
90
205
178
128
59
242
8
162
133
93
179
209
118
64
241
216
153
270
182
149
156
191
186
165
174
87
213
224
160
68
210
220
86
132
256
269
62
262
126
268
130
159
175
144
122
74
96
226
202
176
125
49
169
192
51
30
54
207
235
187
239
61
131
260
164
254
148
27
240
155
98
127
265
245
261
124
26
52
28
150
257
274
113
189
120
183
167
221
158
237
215
29
244
79
264
33
203
151
88
129
56
2
75
208
43
252
188
85
92
206
37
201
83
123
147
197
271
65
163
198
190
248
273
67
266
200
228
243
238
199
18
222
214
145
103
114
60
31
146
40
225
50
104
223
136
23
22
184
76
58
121
81
227
166
112
272
80
193
45
219
14
177
168
196
21
53
253
16
218
263
180
72
171
161
36
139
258
195
194
204
229
11
107
233
71
157
97
25
259
94
247
109
181
246
251
137
44
135
12
134
138
267
3
141
6
19
236
140
34
111
250
13
142
212
234
15
170
255
38
47
172
17
35
57
211
119
42
99
39
20
232
115
108
117
230
101
24
77
95
143
69
231
66
70
217
73
100
32
84
249
116
106
78
91
63
89
46
102
9
154
82
5
48
7
55
41
110
10
4
105

> <PUBCHEM_MMFF94_PARTIAL_CHARGES>
41
1 -0.57
10 -0.8
11 0.06
12 0.36
15 0.3
16 0.3
17 0.57
18 0.3
2 -0.57
21 0.06
23 0.57
26 0.57
27 0.27
28 0.27
29 0.36
3 -0.57
30 0.18
31 -0.18
32 0.57
34 -0.3
35 -0.15
36 -0.15
37 -0.15
38 -0.15
39 -0.15
4 -0.57
5 -0.66
6 -0.66
67 0.36
68 0.37
7 -0.9
72 0.15
73 0.27
74 0.37
75 0.37
76 0.15
77 0.15
78 0.15
79 0.15
8 -0.73
9 0.03

> <PUBCHEM_EFFECTIVE_ROTOR_COUNT>
13.6

> <PUBCHEM_PHARMACOPHORE_FEATURES>
15
1 1 acceptor
1 10 donor
1 2 acceptor
1 3 acceptor
1 4 acceptor
1 7 cation
1 7 donor
1 8 donor
1 9 cation
1 9 donor
5 9 31 33 34 35 rings
6 11 13 14 19 20 22 rings
6 33 35 36 37 38 39 rings
6 5 6 12 15 16 18 rings
6 7 21 24 25 27 28 rings

> <PUBCHEM_HEAVY_ATOM_COUNT>
39

> <PUBCHEM_ATOM_DEF_STEREO_COUNT>
2

> <PUBCHEM_ATOM_UDEF_STEREO_COUNT>
0

> <PUBCHEM_BOND_DEF_STEREO_COUNT>
0

> <PUBCHEM_BOND_UDEF_STEREO_COUNT>
0

> <PUBCHEM_ISOTOPIC_ATOM_COUNT>
0

> <PUBCHEM_COMPONENT_COUNT>
1

> <PUBCHEM_CACTVS_TAUTO_COUNT>
4

> <PUBCHEM_CONFORMER_ID>
02B42A2F00000001

> <PUBCHEM_MMFF94_ENERGY>
75.8313

> <PUBCHEM_FEATURE_SELFOVERLAP>
76.216

> <PUBCHEM_SHAPE_FINGERPRINT>
10006869 2 18270114613266820261
10675989 125 18338528550372524388
10939801 23 18116713109467225012
12422481 6 18114452435664491516
12741549 16 17343496701356894274
12925494 130 18341330084599055722
13140716 1 18193552500879648156
13811026 1 18334010563426897637
14020679 6 17677050273543543771
14117953 113 18410577292777683012
14725015 67 18117838807140813506
15420108 30 18271798072980596679
15781502 237 18266747878609004225
15815584 197 18264793063241469559
15968369 153 18268700632993039517
16112460 7 18269846315830282369
1979834 28 18410574007043142672
20511986 3 17774999115989707661
20775438 99 17686865386195843365
21033648 29 17986108732645959072
22223350 30 17612863799991862504
24771293 8 18342170111244493901
3411729 13 18410014350923793122
394071 54 18341616984050616627
4093350 32 17418103083168266783
4144715 1 18188221923001262595
513532 50 18060150825181775470
5171179 24 18196370308188455924
5265222 85 17901405694063788572
5385378 56 18413113866065824163

> <PUBCHEM_SHAPE_MULTIPOLES>
749.24
15.99
5.53
1.87
25.03
2.37
0.45
-4.01
8.64
-6.12
-1.78
-1.95
-0.96
1.33

> <PUBCHEM_SHAPE_SELFOVERLAP>
1597.765

> <PUBCHEM_SHAPE_VOLUME>
409.2

> <PUBCHEM_COORDINATE_TYPE>
2
5
10

$$$$
