7050394
  -OEChem-12032416123D

 54 58  0     1  0  0  0  0  0999 V2000
   -9.5869   -2.5384    0.4215 Cl  0  0  0  0  0  0  0  0  0  0  0  0
    1.5178    2.8114    0.3361 O   0  0  0  0  0  0  0  0  0  0  0  0
   -1.6206   -0.1516   -2.5908 O   0  0  0  0  0  0  0  0  0  0  0  0
    5.2855    1.4520    0.4951 O   0  0  0  0  0  0  0  0  0  0  0  0
    0.2123    0.2616   -1.2271 N   0  0  0  0  0  0  0  0  0  0  0  0
    4.3672   -0.4121   -0.4847 N   0  0  0  0  0  0  0  0  0  0  0  0
   -0.7430    2.4973    0.4593 N   0  0  0  0  0  0  0  0  0  0  0  0
    7.6444   -2.6404    0.8011 N   0  0  0  0  0  0  0  0  0  0  0  0
    0.7113    0.5483    0.1118 C   0  0  1  0  0  0  0  0  0  0  0  0
    3.0963    0.2078   -0.7756 C   0  0  2  0  0  0  0  0  0  0  0  0
    2.1268    0.0300    0.3922 C   0  0  0  0  0  0  0  0  0  0  0  0
    2.4805   -0.3844   -2.0387 C   0  0  0  0  0  0  0  0  0  0  0  0
    1.1547    0.2904   -2.3486 C   0  0  0  0  0  0  0  0  0  0  0  0
    0.5529    2.0480    0.2861 C   0  0  0  0  0  0  0  0  0  0  0  0
   -1.1536    0.1875   -1.5027 C   0  0  0  0  0  0  0  0  0  0  0  0
   -2.1170    0.6100   -0.4513 C   0  0  0  0  0  0  0  0  0  0  0  0
   -1.9381    1.7494    0.3551 C   0  0  0  0  0  0  0  0  0  0  0  0
    5.4020    0.2749    0.1489 C   0  0  0  0  0  0  0  0  0  0  0  0
   -3.3481   -0.0676   -0.4318 C   0  0  0  0  0  0  0  0  0  0  0  0
   -3.0227    2.2213    1.1126 C   0  0  0  0  0  0  0  0  0  0  0  0
   -4.3973    0.3871    0.3656 C   0  0  0  0  0  0  0  0  0  0  0  0
   -4.2392    1.5391    1.1272 C   0  0  0  0  0  0  0  0  0  0  0  0
    6.6230   -0.5017    0.4058 C   0  0  0  0  0  0  0  0  0  0  0  0
   -5.6575   -0.3236    0.3803 C   0  0  0  0  0  0  0  0  0  0  0  0
    7.8486    0.1302    0.4922 C   0  0  0  0  0  0  0  0  0  0  0  0
    6.5606   -1.8680    0.5633 C   0  0  0  0  0  0  0  0  0  0  0  0
   -6.8482    0.3719    0.5908 C   0  0  0  0  0  0  0  0  0  0  0  0
   -5.6823   -1.7042    0.1827 C   0  0  0  0  0  0  0  0  0  0  0  0
    8.9866   -0.6307    0.7361 C   0  0  0  0  0  0  0  0  0  0  0  0
   -8.0632   -0.3129    0.6038 C   0  0  0  0  0  0  0  0  0  0  0  0
   -6.8973   -2.3892    0.1957 C   0  0  0  0  0  0  0  0  0  0  0  0
    8.8322   -1.9999    0.8816 C   0  0  0  0  0  0  0  0  0  0  0  0
   -8.0878   -1.6935    0.4064 C   0  0  0  0  0  0  0  0  0  0  0  0
    0.0594    0.0622    0.8492 H   0  0  0  0  0  0  0  0  0  0  0  0
    3.2725    1.2778   -0.9400 H   0  0  0  0  0  0  0  0  0  0  0  0
    2.5321    0.5002    1.2972 H   0  0  0  0  0  0  0  0  0  0  0  0
    2.0555   -1.0434    0.6196 H   0  0  0  0  0  0  0  0  0  0  0  0
    2.3242   -1.4638   -1.9115 H   0  0  0  0  0  0  0  0  0  0  0  0
    3.1637   -0.2633   -2.8880 H   0  0  0  0  0  0  0  0  0  0  0  0
    1.3177    1.3467   -2.5959 H   0  0  0  0  0  0  0  0  0  0  0  0
    0.7034   -0.1740   -3.2318 H   0  0  0  0  0  0  0  0  0  0  0  0
    4.4849   -1.3790   -0.7678 H   0  0  0  0  0  0  0  0  0  0  0  0
   -0.8389    3.4517    0.7978 H   0  0  0  0  0  0  0  0  0  0  0  0
   -3.4789   -0.9254   -1.0884 H   0  0  0  0  0  0  0  0  0  0  0  0
   -2.9174    3.1103    1.7317 H   0  0  0  0  0  0  0  0  0  0  0  0
   -5.0209    1.9265    1.7746 H   0  0  0  0  0  0  0  0  0  0  0  0
    7.9431    1.2054    0.3709 H   0  0  0  0  0  0  0  0  0  0  0  0
    5.6337   -2.4304    0.5423 H   0  0  0  0  0  0  0  0  0  0  0  0
   -6.8814    1.4505    0.7184 H   0  0  0  0  0  0  0  0  0  0  0  0
   -4.7780   -2.2909    0.0452 H   0  0  0  0  0  0  0  0  0  0  0  0
    9.9636   -0.1669    0.8090 H   0  0  0  0  0  0  0  0  0  0  0  0
   -8.9841    0.2426    0.7623 H   0  0  0  0  0  0  0  0  0  0  0  0
   -6.9012   -3.4660    0.0467 H   0  0  0  0  0  0  0  0  0  0  0  0
    9.6888   -2.6381    1.0727 H   0  0  0  0  0  0  0  0  0  0  0  0
  1 33  1  0  0  0  0
  2 14  2  0  0  0  0
  3 15  2  0  0  0  0
  4 18  2  0  0  0  0
  5  9  1  0  0  0  0
  5 13  1  0  0  0  0
  5 15  1  0  0  0  0
  6 10  1  0  0  0  0
  6 18  1  0  0  0  0
  6 42  1  0  0  0  0
  7 14  1  0  0  0  0
  7 17  1  0  0  0  0
  7 43  1  0  0  0  0
  8 26  1  0  0  0  0
  8 32  2  0  0  0  0
  9 11  1  0  0  0  0
  9 14  1  0  0  0  0
  9 34  1  0  0  0  0
 10 11  1  0  0  0  0
 10 12  1  0  0  0  0
 10 35  1  0  0  0  0
 11 36  1  0  0  0  0
 11 37  1  0  0  0  0
 12 13  1  0  0  0  0
 12 38  1  0  0  0  0
 12 39  1  0  0  0  0
 13 40  1  0  0  0  0
 13 41  1  0  0  0  0
 15 16  1  0  0  0  0
 16 17  2  0  0  0  0
 16 19  1  0  0  0  0
 17 20  1  0  0  0  0
 18 23  1  0  0  0  0
 19 21  2  0  0  0  0
 19 44  1  0  0  0  0
 20 22  2  0  0  0  0
 20 45  1  0  0  0  0
 21 22  1  0  0  0  0
 21 24  1  0  0  0  0
 22 46  1  0  0  0  0
 23 25  1  0  0  0  0
 23 26  2  0  0  0  0
 24 27  2  0  0  0  0
 24 28  1  0  0  0  0
 25 29  2  0  0  0  0
 25 47  1  0  0  0  0
 26 48  1  0  0  0  0
 27 30  1  0  0  0  0
 27 49  1  0  0  0  0
 28 31  2  0  0  0  0
 28 50  1  0  0  0  0
 29 32  1  0  0  0  0
 29 51  1  0  0  0  0
 30 33  2  0  0  0  0
 30 52  1  0  0  0  0
 31 33  1  0  0  0  0
 31 53  1  0  0  0  0
 32 54  1  0  0  0  0
M  END
> <PUBCHEM_COMPOUND_CID>
7050394

> <PUBCHEM_CONFORMER_RMSD>
0.8

> <PUBCHEM_CONFORMER_DIVERSEORDER>
1
12
7
3
5
11
8
4
10
2
6
9

> <PUBCHEM_MMFF94_PARTIAL_CHARGES>
42
1 -0.18
10 0.3
13 0.3
14 0.57
15 0.54
16 0.09
17 0.12
18 0.54
19 -0.15
2 -0.57
20 -0.15
22 -0.15
23 0.09
25 -0.15
26 0.16
27 -0.15
28 -0.15
29 -0.15
3 -0.57
30 -0.15
31 -0.15
32 0.16
33 0.18
4 -0.57
42 0.37
43 0.37
44 0.15
45 0.15
46 0.15
47 0.15
48 0.15
49 0.15
5 -0.66
50 0.15
51 0.15
52 0.15
53 0.15
54 0.15
6 -0.73
7 -0.55
8 -0.62
9 0.36

> <PUBCHEM_EFFECTIVE_ROTOR_COUNT>
5

> <PUBCHEM_PHARMACOPHORE_FEATURES>
11
1 2 acceptor
1 3 acceptor
1 4 acceptor
1 6 donor
1 7 donor
1 8 acceptor
6 16 17 19 20 21 22 rings
6 24 27 28 30 31 33 rings
6 5 9 10 11 12 13 rings
6 8 23 25 26 29 32 rings
7 5 7 9 14 15 16 17 rings

> <PUBCHEM_HEAVY_ATOM_COUNT>
33

> <PUBCHEM_ATOM_DEF_STEREO_COUNT>
2

> <PUBCHEM_ATOM_UDEF_STEREO_COUNT>
0

> <PUBCHEM_BOND_DEF_STEREO_COUNT>
0

> <PUBCHEM_BOND_UDEF_STEREO_COUNT>
0

> <PUBCHEM_ISOTOPIC_ATOM_COUNT>
0

> <PUBCHEM_COMPONENT_COUNT>
1

> <PUBCHEM_CACTVS_TAUTO_COUNT>
6

> <PUBCHEM_CONFORMER_ID>
006B949A00000001

> <PUBCHEM_MMFF94_ENERGY>
116.1855

> <PUBCHEM_FEATURE_SELFOVERLAP>
55.849

> <PUBCHEM_SHAPE_FINGERPRINT>
10 15 17632857534111010868
10190206 1 12829480429509745919
10369192 42 10807939250118014705
10625338 86 13973973073720102603
106641 1 17775286079412298345
10670039 82 12035437342834821375
11135609 99 18336832013000510335
11386260 185 14779556724413288622
11408170 108 17821731598602500459
11408170 132 11746936499417636046
11411753 3 17415575215710626284
11456790 92 16917351441351607051
11607047 74 17315648558009726996
11621639 179 10159705646717954203
12013929 94 18410578392711245090
12035758 1 16917349233844099436
12166972 35 17821732719968623324
12202916 173 18272655667008503807
12539745 222 18261672589138809789
13383668 362 17630313371198946049
13540713 4 17129881412615246309
13540713 5 17129002060974133557
13811026 1 18271808991097991085
14068700 675 18113340821315417045
14117953 113 16081087091169770099
14150022 121 16917078724646994257
14251757 52 10807934860424112646
14415361 349 17095242539980324170
15183329 4 11530481129745280708
15198563 99 14924214998155596503
15347590 135 17418098697764707299
15392192 104 18202285806323647446
15690457 1 18186519908333233882
15706992 2 12967133847620156267
16728433 281 10882217861945383639
16994733 274 11167942446121047583
18603816 31 18262234525823223439
19301679 30 18129103325906379126
19302320 297 17131827708064702640
19611394 137 18131070471639393161
20105231 36 18201164253187738430
2026 5 17676482800926808378
21130935 74 18199188383152079306
21360443 89 18335697248370664618
22149856 69 16916526777782320033
23559900 14 13407377199785913108
23576562 1 7852987439354446291
3092352 35 11455888044566736892
3178227 256 16917065569066810962
3383291 50 18411704304981523203
3711267 37 11095892605043148747
3991529 128 16845291696663996896
4093350 32 13038913205603803564
4339292 15 16370718202929205722
4516262 110 11959739227057893681
4616759 239 17274831259788840675
504579 68 12757153459512743018
5104073 3 17416417471407570211
5385378 56 15482676745665545174
5758199 1 14189575230214341182
5937810 71 8285936683169856199
59682541 35 17775000198289707306
6081469 158 18113334233030055533
6691757 9 16056869243951040557
9689198 14 11743841369393898479
9896288 288 18057608659408422857
9953998 17 15985100830193098599
9962374 69 17845647175086593271
9980921 221 13623799497861877567

> <PUBCHEM_SHAPE_MULTIPOLES>
643.46
29.3
2.52
1.44
10.81
0.17
1.1
26.57
-12.26
-1.36
-0.94
0.49
-0.09
-1.1

> <PUBCHEM_SHAPE_SELFOVERLAP>
1415.382

> <PUBCHEM_SHAPE_VOLUME>
343.3

> <PUBCHEM_COORDINATE_TYPE>
2
5
10

$$$$
