26743147
  -OEChem-12032416183D

 57 60  0     1  0  0  0  0  0999 V2000
    4.6493    0.6891   -1.4059 O   0  0  0  0  0  0  0  0  0  0  0  0
   -3.0890   -1.2885   -1.5269 O   0  0  0  0  0  0  0  0  0  0  0  0
   -5.5905   -0.1606   -0.2964 O   0  0  0  0  0  0  0  0  0  0  0  0
    0.3232    3.0872    0.8147 N   0  0  0  0  0  0  0  0  0  0  0  0
    5.2196   -0.3185    0.6378 N   0  0  0  0  0  0  0  0  0  0  0  0
   -1.7195   -1.1016   -1.6696 N   0  0  0  0  0  0  0  0  0  0  0  0
    2.0124    1.1541   -0.6401 C   0  0  1  0  0  0  0  0  0  0  0  0
    0.5203    0.8907   -0.3267 C   0  0  2  0  0  0  0  0  0  0  0  0
    2.2607    2.6717   -0.6602 C   0  0  0  0  0  0  0  0  0  0  0  0
    0.0603    1.6522    0.9280 C   0  0  0  0  0  0  0  0  0  0  0  0
    1.7417    3.3645    0.5991 C   0  0  0  0  0  0  0  0  0  0  0  0
    0.1871   -0.5968   -0.2045 C   0  0  0  0  0  0  0  0  0  0  0  0
    2.9840    0.4551    0.3184 C   0  0  0  0  0  0  0  0  0  0  0  0
   -1.2744   -0.8508   -0.4350 C   0  0  0  0  0  0  0  0  0  0  0  0
    4.3722    0.3020   -0.2755 C   0  0  0  0  0  0  0  0  0  0  0  0
   -2.3074   -0.8662    0.5181 C   0  0  0  0  0  0  0  0  0  0  0  0
   -3.4271   -1.1458   -0.2199 C   0  0  0  0  0  0  0  0  0  0  0  0
    6.5871   -0.6397    0.4655 C   0  0  0  0  0  0  0  0  0  0  0  0
   -4.8472   -1.3125    0.1117 C   0  0  0  0  0  0  0  0  0  0  0  0
    7.2910   -1.2666    1.4936 C   0  0  0  0  0  0  0  0  0  0  0  0
    7.2308   -0.3294   -0.7323 C   0  0  0  0  0  0  0  0  0  0  0  0
    8.6390   -1.5832    1.3239 C   0  0  0  0  0  0  0  0  0  0  0  0
    8.5786   -0.6459   -0.9021 C   0  0  0  0  0  0  0  0  0  0  0  0
    9.2828   -1.2727    0.1261 C   0  0  0  0  0  0  0  0  0  0  0  0
   -6.9219   -0.1544    0.0118 C   0  0  0  0  0  0  0  0  0  0  0  0
   -7.4860   -1.2351    0.6896 C   0  0  0  0  0  0  0  0  0  0  0  0
   -7.7167    0.9327   -0.3514 C   0  0  0  0  0  0  0  0  0  0  0  0
   -8.8450   -1.2287    1.0042 C   0  0  0  0  0  0  0  0  0  0  0  0
   -9.0755    0.9392   -0.0369 C   0  0  0  0  0  0  0  0  0  0  0  0
   -9.6398   -0.1416    0.6409 C   0  0  0  0  0  0  0  0  0  0  0  0
    2.1935    0.7743   -1.6551 H   0  0  0  0  0  0  0  0  0  0  0  0
   -0.0463    1.2997   -1.1781 H   0  0  0  0  0  0  0  0  0  0  0  0
    1.7518    3.0998   -1.5346 H   0  0  0  0  0  0  0  0  0  0  0  0
    3.3252    2.8977   -0.7869 H   0  0  0  0  0  0  0  0  0  0  0  0
   -1.0176    1.5354    1.0725 H   0  0  0  0  0  0  0  0  0  0  0  0
    0.5465    1.2539    1.8271 H   0  0  0  0  0  0  0  0  0  0  0  0
    2.3243    3.0750    1.4805 H   0  0  0  0  0  0  0  0  0  0  0  0
    1.8701    4.4466    0.4835 H   0  0  0  0  0  0  0  0  0  0  0  0
    0.4637   -0.9875    0.7824 H   0  0  0  0  0  0  0  0  0  0  0  0
    0.7574   -1.1732   -0.9448 H   0  0  0  0  0  0  0  0  0  0  0  0
    2.6471   -0.5635    0.5384 H   0  0  0  0  0  0  0  0  0  0  0  0
    3.0619    0.9788    1.2767 H   0  0  0  0  0  0  0  0  0  0  0  0
    0.0138    3.5552    1.6660 H   0  0  0  0  0  0  0  0  0  0  0  0
   -2.2493   -0.7019    1.5840 H   0  0  0  0  0  0  0  0  0  0  0  0
    4.8277   -0.5792    1.5404 H   0  0  0  0  0  0  0  0  0  0  0  0
   -5.2211   -2.2067   -0.4031 H   0  0  0  0  0  0  0  0  0  0  0  0
   -4.9185   -1.4455    1.1989 H   0  0  0  0  0  0  0  0  0  0  0  0
    6.8014   -1.5140    2.4320 H   0  0  0  0  0  0  0  0  0  0  0  0
    6.7539    0.1548   -1.5727 H   0  0  0  0  0  0  0  0  0  0  0  0
    9.1873   -2.0712    2.1244 H   0  0  0  0  0  0  0  0  0  0  0  0
    9.0812   -0.4048   -1.8344 H   0  0  0  0  0  0  0  0  0  0  0  0
   10.3322   -1.5191   -0.0061 H   0  0  0  0  0  0  0  0  0  0  0  0
   -6.9349   -2.1165    0.9984 H   0  0  0  0  0  0  0  0  0  0  0  0
   -7.2827    1.7773   -0.8796 H   0  0  0  0  0  0  0  0  0  0  0  0
   -9.2858   -2.0704    1.5306 H   0  0  0  0  0  0  0  0  0  0  0  0
   -9.6944    1.7857   -0.3197 H   0  0  0  0  0  0  0  0  0  0  0  0
  -10.6979   -0.1367    0.8855 H   0  0  0  0  0  0  0  0  0  0  0  0
  1 15  2  0  0  0  0
  2  6  1  0  0  0  0
  2 17  1  0  0  0  0
  3 19  1  0  0  0  0
  3 25  1  0  0  0  0
  4 10  1  0  0  0  0
  4 11  1  0  0  0  0
  4 43  1  0  0  0  0
  5 15  1  0  0  0  0
  5 18  1  0  0  0  0
  5 45  1  0  0  0  0
  6 14  2  0  0  0  0
  7  8  1  0  0  0  0
  7  9  1  0  0  0  0
  7 13  1  0  0  0  0
  7 31  1  0  0  0  0
  8 10  1  0  0  0  0
  8 12  1  0  0  0  0
  8 32  1  0  0  0  0
  9 11  1  0  0  0  0
  9 33  1  0  0  0  0
  9 34  1  0  0  0  0
 10 35  1  0  0  0  0
 10 36  1  0  0  0  0
 11 37  1  0  0  0  0
 11 38  1  0  0  0  0
 12 14  1  0  0  0  0
 12 39  1  0  0  0  0
 12 40  1  0  0  0  0
 13 15  1  0  0  0  0
 13 41  1  0  0  0  0
 13 42  1  0  0  0  0
 14 16  1  0  0  0  0
 16 17  2  0  0  0  0
 16 44  1  0  0  0  0
 17 19  1  0  0  0  0
 18 20  2  0  0  0  0
 18 21  1  0  0  0  0
 19 46  1  0  0  0  0
 19 47  1  0  0  0  0
 20 22  1  0  0  0  0
 20 48  1  0  0  0  0
 21 23  2  0  0  0  0
 21 49  1  0  0  0  0
 22 24  2  0  0  0  0
 22 50  1  0  0  0  0
 23 24  1  0  0  0  0
 23 51  1  0  0  0  0
 24 52  1  0  0  0  0
 25 26  2  0  0  0  0
 25 27  1  0  0  0  0
 26 28  1  0  0  0  0
 26 53  1  0  0  0  0
 27 29  2  0  0  0  0
 27 54  1  0  0  0  0
 28 30  2  0  0  0  0
 28 55  1  0  0  0  0
 29 30  1  0  0  0  0
 29 56  1  0  0  0  0
 30 57  1  0  0  0  0
M  END
> <PUBCHEM_COMPOUND_CID>
26743147

> <PUBCHEM_CONFORMER_RMSD>
1.2

> <PUBCHEM_CONFORMER_DIVERSEORDER>
1
61
71
136
78
173
24
159
94
27
125
41
6
171
132
155
66
135
107
95
92
103
146
84
117
86
163
48
148
134
77
162
36
111
74
47
58
57
70
56
108
46
160
33
123
11
64
5
42
118
75
116
44
137
147
109
167
35
17
149
65
119
21
79
161
12
170
141
25
112
144
106
99
62
130
26
151
89
143
98
10
168
52
13
154
139
37
145
129
152
140
110
72
14
19
88
54
3
40
131
115
32
45
91
76
172
114
138
124
39
126
121
157
83
7
50
127
174
93
150
38
87
133
158
8
49
69
122
113
81
53
169
60
16
153
28
128
166
15
4
96
59
68
43
164
142
165
120
23
156
22
101
100
102
20
67
82
2
85
9
105
73
90
31
51
80
34
63
104
97
55
29
30
18

> <PUBCHEM_MMFF94_PARTIAL_CHARGES>
40
1 -0.57
10 0.27
11 0.27
12 0.18
13 0.06
14 0.11
15 0.57
16 -0.15
17 -0.04
18 0.12
19 0.46
2 -0.02
20 -0.15
21 -0.15
22 -0.15
23 -0.15
24 -0.15
25 0.08
26 -0.15
27 -0.15
28 -0.15
29 -0.15
3 -0.36
30 -0.15
4 -0.9
43 0.36
44 0.15
45 0.37
48 0.15
49 0.15
5 -0.55
50 0.15
51 0.15
52 0.15
53 0.15
54 0.15
55 0.15
56 0.15
57 0.15
6 -0.41

> <PUBCHEM_EFFECTIVE_ROTOR_COUNT>
10.2

> <PUBCHEM_PHARMACOPHORE_FEATURES>
10
1 1 acceptor
1 3 acceptor
1 4 cation
1 4 donor
1 5 donor
1 6 acceptor
5 2 6 14 16 17 rings
6 18 20 21 22 23 24 rings
6 25 26 27 28 29 30 rings
6 4 7 8 9 10 11 rings

> <PUBCHEM_HEAVY_ATOM_COUNT>
30

> <PUBCHEM_ATOM_DEF_STEREO_COUNT>
2

> <PUBCHEM_ATOM_UDEF_STEREO_COUNT>
0

> <PUBCHEM_BOND_DEF_STEREO_COUNT>
0

> <PUBCHEM_BOND_UDEF_STEREO_COUNT>
0

> <PUBCHEM_ISOTOPIC_ATOM_COUNT>
0

> <PUBCHEM_COMPONENT_COUNT>
1

> <PUBCHEM_CACTVS_TAUTO_COUNT>
2

> <PUBCHEM_CONFORMER_ID>
0198116B00000001

> <PUBCHEM_MMFF94_ENERGY>
70.5047

> <PUBCHEM_FEATURE_SELFOVERLAP>
50.747

> <PUBCHEM_SHAPE_FINGERPRINT>
10076449 9 13912323482546671471
10209105 3 18269275669338067222
10299344 5 17530684311845308371
10429389 143 12679467469721051091
10674148 151 17676486168032864496
10883706 142 17704074006782270351
11408170 108 17489034751962792902
11456790 92 18271534160778741841
11476731 38 18260270768459814220
12013929 2 17676202460717482479
12013929 94 8214130860383201721
12144603 126 18409733993577277796
12592606 108 18335982047082551211
12758862 56 18411415141622261491
13150687 139 10881396501073377560
14117953 113 18060144236770398358
14216079 64 18342740694215033094
14444916 359 17022619775934007291
14675019 173 18040999561735751253
15289351 153 18341326722398947889
15347591 1 18123470742079284119
15419008 145 18341050731926935657
15773216 30 14779813911639733888
16664035 1 18411981365126888328
1754911 235 8070028865523797899
19301679 30 18267303136961527794
19315958 150 16630809915825413686
20105231 36 14417853644372455169
21095086 128 16877661275376847619
21267235 1 18408322185907595084
21403212 168 17846779598421602423
21792934 111 18202277009766466512
21792961 116 18261664883450002886
22224240 67 11815898959548406860
232437 2 17894351072635133755
24893992 56 18411983603005452379
249057 3 18343864441900174759
2838139 119 18272366508656644677
335352 9 18413108381339781381
395649 100 12966835854832371533
4325135 7 10375870775388874363
439807 62 18040716966088151366
5028188 123 15430040985129361299
5219985 9 18410006642259194268
54039377 194 18260830388494938421
6058803 2 17483384610145367933
6081469 158 17561084687909851482
6126387 218 18060698398946437971
6691757 9 16056605395647356055
9663363 56 18412261740855318810

> <PUBCHEM_SHAPE_MULTIPOLES>
584.83
34.05
2.35
1.18
15.52
2.38
0.07
-16.37
-6.09
-1.32
-0.53
-0.95
-0.18
-0.68

> <PUBCHEM_SHAPE_SELFOVERLAP>
1246.956

> <PUBCHEM_SHAPE_VOLUME>
322

> <PUBCHEM_COORDINATE_TYPE>
2
5
10

$$$$
