11912310
  -OEChem-12032416113D

 61 62  0     1  0  0  0  0  0999 V2000
   -7.7332   -1.8240   -0.8861 F   0  0  0  0  0  0  0  0  0  0  0  0
    3.0230    1.3017   -0.3600 O   0  0  0  0  0  0  0  0  0  0  0  0
   -3.7512    2.3944    1.4059 O   0  0  0  0  0  0  0  0  0  0  0  0
    6.1826   -2.0624    1.8017 O   0  0  0  0  0  0  0  0  0  0  0  0
   -2.2600    1.3310   -0.0496 N   0  0  0  0  0  0  0  0  0  0  0  0
    3.9849   -0.5741    0.6186 N   0  0  0  0  0  0  0  0  0  0  0  0
    0.4276    0.2660   -0.2175 C   0  0  1  0  0  0  0  0  0  0  0  0
   -0.7988   -0.6042   -0.5938 C   0  0  2  0  0  0  0  0  0  0  0  0
    0.0542    1.3619    0.7951 C   0  0  0  0  0  0  0  0  0  0  0  0
   -1.9610    0.2968   -1.0503 C   0  0  0  0  0  0  0  0  0  0  0  0
   -1.1305    2.1889    0.3031 C   0  0  0  0  0  0  0  0  0  0  0  0
    1.6136   -0.5542    0.2892 C   0  0  0  0  0  0  0  0  0  0  0  0
   -1.2621   -1.5445    0.5259 C   0  0  0  0  0  0  0  0  0  0  0  0
    2.9270    0.1818    0.1348 C   0  0  0  0  0  0  0  0  0  0  0  0
   -2.3943   -2.4343    0.0584 C   0  0  0  0  0  0  0  0  0  0  0  0
   -3.4982    1.5341    0.5641 C   0  0  0  0  0  0  0  0  0  0  0  0
    5.3562   -0.1189    0.5957 C   0  0  2  0  0  0  0  0  0  0  0  0
    6.0512   -0.5296   -0.7147 C   0  0  0  0  0  0  0  0  0  0  0  0
   -4.6090    0.6543    0.1841 C   0  0  0  0  0  0  0  0  0  0  0  0
    7.4788    0.0286   -0.9002 C   0  0  0  0  0  0  0  0  0  0  0  0
    6.1030   -0.6430    1.8265 C   0  0  0  0  0  0  0  0  0  0  0  0
    7.4379    1.5597   -0.8900 C   0  0  0  0  0  0  0  0  0  0  0  0
    8.1362   -0.4585   -2.1919 C   0  0  0  0  0  0  0  0  0  0  0  0
   -5.0418    0.6103   -1.1412 C   0  0  0  0  0  0  0  0  0  0  0  0
   -5.2318   -0.1389    1.1479 C   0  0  0  0  0  0  0  0  0  0  0  0
   -6.0972   -0.2269   -1.5028 C   0  0  0  0  0  0  0  0  0  0  0  0
   -6.2871   -0.9760    0.7863 C   0  0  0  0  0  0  0  0  0  0  0  0
   -6.7199   -1.0200   -0.5390 C   0  0  0  0  0  0  0  0  0  0  0  0
    0.7298    0.7737   -1.1455 H   0  0  0  0  0  0  0  0  0  0  0  0
   -0.5077   -1.2272   -1.4513 H   0  0  0  0  0  0  0  0  0  0  0  0
   -0.1996    0.9076    1.7609 H   0  0  0  0  0  0  0  0  0  0  0  0
    0.9011    2.0324    0.9769 H   0  0  0  0  0  0  0  0  0  0  0  0
   -2.8170   -0.3046   -1.3376 H   0  0  0  0  0  0  0  0  0  0  0  0
   -1.6621    0.8336   -1.9605 H   0  0  0  0  0  0  0  0  0  0  0  0
   -1.4181    2.9145    1.0705 H   0  0  0  0  0  0  0  0  0  0  0  0
   -0.8558    2.7550   -0.5949 H   0  0  0  0  0  0  0  0  0  0  0  0
    1.4853   -0.8298    1.3426 H   0  0  0  0  0  0  0  0  0  0  0  0
    1.6999   -1.4806   -0.2929 H   0  0  0  0  0  0  0  0  0  0  0  0
   -0.4339   -2.1912    0.8358 H   0  0  0  0  0  0  0  0  0  0  0  0
   -1.5798   -0.9893    1.4150 H   0  0  0  0  0  0  0  0  0  0  0  0
   -3.3357   -1.9039   -0.0718 H   0  0  0  0  0  0  0  0  0  0  0  0
   -2.5790   -3.2132    0.8067 H   0  0  0  0  0  0  0  0  0  0  0  0
   -2.1460   -2.9377   -0.8817 H   0  0  0  0  0  0  0  0  0  0  0  0
    5.3199    0.9733    0.6631 H   0  0  0  0  0  0  0  0  0  0  0  0
    3.8038   -1.5159    0.9544 H   0  0  0  0  0  0  0  0  0  0  0  0
    5.4327   -0.2026   -1.5622 H   0  0  0  0  0  0  0  0  0  0  0  0
    6.0833   -1.6250   -0.7861 H   0  0  0  0  0  0  0  0  0  0  0  0
    8.1155   -0.3085   -0.0748 H   0  0  0  0  0  0  0  0  0  0  0  0
    5.5684   -0.3558    2.7391 H   0  0  0  0  0  0  0  0  0  0  0  0
    7.1153   -0.2343    1.8922 H   0  0  0  0  0  0  0  0  0  0  0  0
    6.7202    1.9469   -1.6212 H   0  0  0  0  0  0  0  0  0  0  0  0
    7.1742    1.9518    0.0965 H   0  0  0  0  0  0  0  0  0  0  0  0
    8.4222    1.9731   -1.1376 H   0  0  0  0  0  0  0  0  0  0  0  0
    9.1562   -0.0708   -2.2835 H   0  0  0  0  0  0  0  0  0  0  0  0
    8.1906   -1.5521   -2.2075 H   0  0  0  0  0  0  0  0  0  0  0  0
    7.5687   -0.1356   -3.0713 H   0  0  0  0  0  0  0  0  0  0  0  0
   -4.5840    1.2379   -1.9017 H   0  0  0  0  0  0  0  0  0  0  0  0
   -4.9011   -0.1166    2.1831 H   0  0  0  0  0  0  0  0  0  0  0  0
    6.6554   -2.3358    2.6062 H   0  0  0  0  0  0  0  0  0  0  0  0
   -6.4375   -0.2580   -2.5336 H   0  0  0  0  0  0  0  0  0  0  0  0
   -6.7713   -1.5947    1.5361 H   0  0  0  0  0  0  0  0  0  0  0  0
  1 28  1  0  0  0  0
  2 14  2  0  0  0  0
  3 16  2  0  0  0  0
  4 21  1  0  0  0  0
  4 59  1  0  0  0  0
  5 10  1  0  0  0  0
  5 11  1  0  0  0  0
  5 16  1  0  0  0  0
  6 14  1  0  0  0  0
  6 17  1  0  0  0  0
  6 45  1  0  0  0  0
  7  8  1  0  0  0  0
  7  9  1  0  0  0  0
  7 12  1  0  0  0  0
  7 29  1  0  0  0  0
  8 10  1  0  0  0  0
  8 13  1  0  0  0  0
  8 30  1  0  0  0  0
  9 11  1  0  0  0  0
  9 31  1  0  0  0  0
  9 32  1  0  0  0  0
 10 33  1  0  0  0  0
 10 34  1  0  0  0  0
 11 35  1  0  0  0  0
 11 36  1  0  0  0  0
 12 14  1  0  0  0  0
 12 37  1  0  0  0  0
 12 38  1  0  0  0  0
 13 15  1  0  0  0  0
 13 39  1  0  0  0  0
 13 40  1  0  0  0  0
 15 41  1  0  0  0  0
 15 42  1  0  0  0  0
 15 43  1  0  0  0  0
 16 19  1  0  0  0  0
 17 18  1  0  0  0  0
 17 21  1  0  0  0  0
 17 44  1  0  0  0  0
 18 20  1  0  0  0  0
 18 46  1  0  0  0  0
 18 47  1  0  0  0  0
 19 24  2  0  0  0  0
 19 25  1  0  0  0  0
 20 22  1  0  0  0  0
 20 23  1  0  0  0  0
 20 48  1  0  0  0  0
 21 49  1  0  0  0  0
 21 50  1  0  0  0  0
 22 51  1  0  0  0  0
 22 52  1  0  0  0  0
 22 53  1  0  0  0  0
 23 54  1  0  0  0  0
 23 55  1  0  0  0  0
 23 56  1  0  0  0  0
 24 26  1  0  0  0  0
 24 57  1  0  0  0  0
 25 27  2  0  0  0  0
 25 58  1  0  0  0  0
 26 28  2  0  0  0  0
 26 60  1  0  0  0  0
 27 28  1  0  0  0  0
 27 61  1  0  0  0  0
M  END
> <PUBCHEM_COMPOUND_CID>
11912310

> <PUBCHEM_CONFORMER_RMSD>
1.2

> <PUBCHEM_CONFORMER_DIVERSEORDER>
1
34
92
28
44
73
75
9
43
72
64
95
5
14
82
30
69
65
57
12
68
41
37
49
62
19
100
46
52
93
88
71
84
60
20
98
74
29
76
54
81
27
56
50
86
16
15
10
23
63
61
97
94
45
33
91
87
85
4
35
38
25
18
78
96
31
47
77
39
83
51
26
3
32
53
66
40
7
22
79
42
90
58
11
89
6
21
99
67
2
55
36
80
24
48
17
59
13
70
8

> <PUBCHEM_MMFF94_PARTIAL_CHARGES>
25
1 -0.19
10 0.3
11 0.3
12 0.06
14 0.57
16 0.54
17 0.3
19 0.09
2 -0.57
21 0.28
24 -0.15
25 -0.15
26 -0.15
27 -0.15
28 0.19
3 -0.57
4 -0.68
45 0.37
5 -0.66
57 0.15
58 0.15
59 0.4
6 -0.73
60 0.15
61 0.15

> <PUBCHEM_EFFECTIVE_ROTOR_COUNT>
11.2

> <PUBCHEM_PHARMACOPHORE_FEATURES>
9
1 15 hydrophobe
1 2 acceptor
1 3 acceptor
1 4 acceptor
1 4 donor
1 6 donor
3 20 22 23 hydrophobe
6 19 24 25 26 27 28 rings
6 5 7 8 9 10 11 rings

> <PUBCHEM_HEAVY_ATOM_COUNT>
28

> <PUBCHEM_ATOM_DEF_STEREO_COUNT>
3

> <PUBCHEM_ATOM_UDEF_STEREO_COUNT>
0

> <PUBCHEM_BOND_DEF_STEREO_COUNT>
0

> <PUBCHEM_BOND_UDEF_STEREO_COUNT>
0

> <PUBCHEM_ISOTOPIC_ATOM_COUNT>
0

> <PUBCHEM_COMPONENT_COUNT>
1

> <PUBCHEM_CACTVS_TAUTO_COUNT>
2

> <PUBCHEM_CONFORMER_ID>
00B5C47600000001

> <PUBCHEM_MMFF94_ENERGY>
61.0364

> <PUBCHEM_FEATURE_SELFOVERLAP>
45.673

> <PUBCHEM_SHAPE_FINGERPRINT>
10076449 9 18201726179614246049
11007060 377 18260272957627558704
11315181 36 15936412243570355141
11475781 23 13045944590757621968
12166972 35 18259983790317214324
12236239 1 17895192173560810672
13533116 47 17822570509247564410
13782708 43 17131824374410236750
13862211 1 18410568492405270387
14251764 18 18333732420880572034
14429380 56 17168147884138832948
14444916 359 16128383670354057180
14849402 71 15409751752321307475
14856354 85 17988640835522076615
15183329 4 18411699889664809246
15352257 5 17060341808048099766
1577012 14 18261396598708611816
15849732 13 17240766198229843414
17093844 174 11602827908463930245
21150785 3 17748827427433136732
21267235 1 18131072649161613221
23081809 10 18187646847854303328
23522609 53 18191894257157471080
23559900 14 18341329006836265560
2747138 104 18060135470515248209
3009799 131 14056720145060966173
328311 84 16702025262359854260
335352 9 18410852184186518671
3383291 50 18201715180372507487
34797466 226 17847061104412506560
445580 167 18412266168545147364
44880568 143 16009022835447558927
45377200 153 17987801937609089542
59755656 215 18272937103066563374
636775 8 18341058496525978983

> <PUBCHEM_SHAPE_MULTIPOLES>
541.38
23.83
1.98
1.51
23.79
0.09
-0.07
-5.5
-6.56
-1.29
0.5
1.56
-0.21
-1.69

> <PUBCHEM_SHAPE_SELFOVERLAP>
1102.548

> <PUBCHEM_SHAPE_VOLUME>
314.3

> <PUBCHEM_COORDINATE_TYPE>
2
5
10

$$$$
