11885122
  -OEChem-12032416113D

 57 61  0     1  0  0  0  0  0999 V2000
   -1.6743   -1.4003    1.8338 O   0  0  0  0  0  0  0  0  0  0  0  0
    3.3252    0.4624    1.4692 O   0  0  0  0  0  0  0  0  0  0  0  0
   -6.7610    1.9071    0.2734 O   0  0  0  0  0  0  0  0  0  0  0  0
    3.0494   -1.4170    0.1311 N   0  0  0  0  0  0  0  0  0  0  0  0
   -0.0298   -2.2200    0.3974 N   0  0  0  0  0  0  0  0  0  0  0  0
    2.0648   -3.4232    1.2463 C   0  0  1  0  0  0  0  0  0  0  0  0
    1.7425   -3.0883   -1.1682 C   0  0  2  0  0  0  0  0  0  0  0  0
    2.0290   -4.1396   -0.0982 C   0  0  0  0  0  0  0  0  0  0  0  0
    3.1651   -2.3476    1.2555 C   0  0  0  0  0  0  0  0  0  0  0  0
    0.6788   -2.8322    1.5298 C   0  0  0  0  0  0  0  0  0  0  0  0
    2.8789   -2.0472   -1.1866 C   0  0  0  0  0  0  0  0  0  0  0  0
    0.4161   -2.3969   -0.9145 C   0  0  0  0  0  0  0  0  0  0  0  0
   -0.3121   -1.9313   -1.9417 C   0  0  0  0  0  0  0  0  0  0  0  0
   -1.2310   -1.5460    0.6931 C   0  0  0  0  0  0  0  0  0  0  0  0
    3.1830   -0.0465    0.3545 C   0  0  0  0  0  0  0  0  0  0  0  0
   -2.0064   -1.0031   -0.4769 C   0  0  0  0  0  0  0  0  0  0  0  0
   -1.5379   -1.2201   -1.7150 C   0  0  0  0  0  0  0  0  0  0  0  0
    3.1394    0.8435   -0.8618 C   0  0  0  0  0  0  0  0  0  0  0  0
   -3.2518   -0.2411   -0.2799 C   0  0  0  0  0  0  0  0  0  0  0  0
    3.3359    2.2758   -0.4739 C   0  0  0  0  0  0  0  0  0  0  0  0
   -4.4790   -0.9044   -0.2477 C   0  0  0  0  0  0  0  0  0  0  0  0
   -3.2052    1.1449   -0.1257 C   0  0  0  0  0  0  0  0  0  0  0  0
    2.2331    3.0652   -0.1591 C   0  0  0  0  0  0  0  0  0  0  0  0
    4.6202    2.8112   -0.4301 C   0  0  0  0  0  0  0  0  0  0  0  0
   -5.6580   -0.1824   -0.0618 C   0  0  0  0  0  0  0  0  0  0  0  0
   -4.3843    1.8667    0.0603 C   0  0  0  0  0  0  0  0  0  0  0  0
   -5.6106    1.2031    0.0923 C   0  0  0  0  0  0  0  0  0  0  0  0
    2.4160    4.4001    0.2020 C   0  0  0  0  0  0  0  0  0  0  0  0
    4.8033    4.1459   -0.0689 C   0  0  0  0  0  0  0  0  0  0  0  0
    3.7011    4.9403    0.2471 C   0  0  0  0  0  0  0  0  0  0  0  0
   -6.6405    3.3209    0.4243 C   0  0  0  0  0  0  0  0  0  0  0  0
    2.2998   -4.1432    2.0400 H   0  0  0  0  0  0  0  0  0  0  0  0
    1.7176   -3.5912   -2.1438 H   0  0  0  0  0  0  0  0  0  0  0  0
    1.2567   -4.9191   -0.1009 H   0  0  0  0  0  0  0  0  0  0  0  0
    2.9873   -4.6357   -0.2940 H   0  0  0  0  0  0  0  0  0  0  0  0
    3.1575   -1.8075    2.2082 H   0  0  0  0  0  0  0  0  0  0  0  0
    4.1494   -2.8241    1.1672 H   0  0  0  0  0  0  0  0  0  0  0  0
    0.0217   -3.6362    1.8889 H   0  0  0  0  0  0  0  0  0  0  0  0
    0.7326   -2.1004    2.3456 H   0  0  0  0  0  0  0  0  0  0  0  0
    3.8315   -2.5350   -1.4280 H   0  0  0  0  0  0  0  0  0  0  0  0
    2.6959   -1.3093   -1.9707 H   0  0  0  0  0  0  0  0  0  0  0  0
    0.0163   -2.0465   -2.9694 H   0  0  0  0  0  0  0  0  0  0  0  0
   -2.0581   -0.8492   -2.5934 H   0  0  0  0  0  0  0  0  0  0  0  0
    2.1708    0.7288   -1.3625 H   0  0  0  0  0  0  0  0  0  0  0  0
    3.9207    0.5400   -1.5684 H   0  0  0  0  0  0  0  0  0  0  0  0
   -4.5322   -1.9841   -0.3654 H   0  0  0  0  0  0  0  0  0  0  0  0
   -2.2560    1.6755   -0.1477 H   0  0  0  0  0  0  0  0  0  0  0  0
    1.2273    2.6548   -0.1886 H   0  0  0  0  0  0  0  0  0  0  0  0
    5.4866    2.2017   -0.6723 H   0  0  0  0  0  0  0  0  0  0  0  0
   -6.6105   -0.7049   -0.0376 H   0  0  0  0  0  0  0  0  0  0  0  0
   -4.2752    2.9399    0.1734 H   0  0  0  0  0  0  0  0  0  0  0  0
    1.5579    5.0185    0.4488 H   0  0  0  0  0  0  0  0  0  0  0  0
    5.8040    4.5666   -0.0331 H   0  0  0  0  0  0  0  0  0  0  0  0
    3.8437    5.9796    0.5286 H   0  0  0  0  0  0  0  0  0  0  0  0
   -7.6517    3.7189    0.5583 H   0  0  0  0  0  0  0  0  0  0  0  0
   -6.2299    3.7881   -0.4773 H   0  0  0  0  0  0  0  0  0  0  0  0
   -6.0721    3.5826    1.3232 H   0  0  0  0  0  0  0  0  0  0  0  0
  1 14  2  0  0  0  0
  2 15  2  0  0  0  0
  3 27  1  0  0  0  0
  3 31  1  0  0  0  0
  4  9  1  0  0  0  0
  4 11  1  0  0  0  0
  4 15  1  0  0  0  0
  5 10  1  0  0  0  0
  5 12  1  0  0  0  0
  5 14  1  0  0  0  0
  6  8  1  0  0  0  0
  6  9  1  0  0  0  0
  6 10  1  0  0  0  0
  6 32  1  0  0  0  0
  7  8  1  0  0  0  0
  7 11  1  0  0  0  0
  7 12  1  0  0  0  0
  7 33  1  0  0  0  0
  8 34  1  0  0  0  0
  8 35  1  0  0  0  0
  9 36  1  0  0  0  0
  9 37  1  0  0  0  0
 10 38  1  0  0  0  0
 10 39  1  0  0  0  0
 11 40  1  0  0  0  0
 11 41  1  0  0  0  0
 12 13  2  0  0  0  0
 13 17  1  0  0  0  0
 13 42  1  0  0  0  0
 14 16  1  0  0  0  0
 15 18  1  0  0  0  0
 16 17  2  0  0  0  0
 16 19  1  0  0  0  0
 17 43  1  0  0  0  0
 18 20  1  0  0  0  0
 18 44  1  0  0  0  0
 18 45  1  0  0  0  0
 19 21  2  0  0  0  0
 19 22  1  0  0  0  0
 20 23  2  0  0  0  0
 20 24  1  0  0  0  0
 21 25  1  0  0  0  0
 21 46  1  0  0  0  0
 22 26  2  0  0  0  0
 22 47  1  0  0  0  0
 23 28  1  0  0  0  0
 23 48  1  0  0  0  0
 24 29  2  0  0  0  0
 24 49  1  0  0  0  0
 25 27  2  0  0  0  0
 25 50  1  0  0  0  0
 26 27  1  0  0  0  0
 26 51  1  0  0  0  0
 28 30  2  0  0  0  0
 28 52  1  0  0  0  0
 29 30  1  0  0  0  0
 29 53  1  0  0  0  0
 30 54  1  0  0  0  0
 31 55  1  0  0  0  0
 31 56  1  0  0  0  0
 31 57  1  0  0  0  0
M  END
> <PUBCHEM_COMPOUND_CID>
11885122

> <PUBCHEM_CONFORMER_RMSD>
0.8

> <PUBCHEM_CONFORMER_DIVERSEORDER>
1
17
19
27
12
10
15
16
2
28
21
9
23
6
11
22
20
25
18
8
14
24
3
4
13
26
7
5

> <PUBCHEM_MMFF94_PARTIAL_CHARGES>
40
1 -0.57
10 0.3
11 0.3
12 -0.03
13 -0.15
14 0.62
15 0.57
16 -0.01
17 -0.15
18 0.2
19 0.03
2 -0.57
20 -0.14
21 -0.15
22 -0.15
23 -0.15
24 -0.15
25 -0.15
26 -0.15
27 0.08
28 -0.15
29 -0.15
3 -0.36
30 -0.15
31 0.28
4 -0.66
42 0.15
43 0.15
46 0.15
47 0.15
48 0.15
49 0.15
5 -0.47
50 0.15
51 0.15
52 0.15
53 0.15
54 0.15
7 0.14
9 0.3

> <PUBCHEM_EFFECTIVE_ROTOR_COUNT>
6

> <PUBCHEM_PHARMACOPHORE_FEATURES>
8
1 1 acceptor
1 2 acceptor
1 3 acceptor
6 19 21 22 25 26 27 rings
6 20 23 24 28 29 30 rings
6 4 6 7 8 9 11 rings
6 5 12 13 14 16 17 rings
6 5 6 7 8 10 12 rings

> <PUBCHEM_HEAVY_ATOM_COUNT>
31

> <PUBCHEM_ATOM_DEF_STEREO_COUNT>
2

> <PUBCHEM_ATOM_UDEF_STEREO_COUNT>
0

> <PUBCHEM_BOND_DEF_STEREO_COUNT>
0

> <PUBCHEM_BOND_UDEF_STEREO_COUNT>
0

> <PUBCHEM_ISOTOPIC_ATOM_COUNT>
0

> <PUBCHEM_COMPONENT_COUNT>
1

> <PUBCHEM_CACTVS_TAUTO_COUNT>
1

> <PUBCHEM_CONFORMER_ID>
00B55A4200000001

> <PUBCHEM_MMFF94_ENERGY>
95.9729

> <PUBCHEM_FEATURE_SELFOVERLAP>
42.164

> <PUBCHEM_SHAPE_FINGERPRINT>
10483366 6 18340503192653074692
10673678 19 18343588443259662257
10675989 125 18341898484634172480
10937287 8 18194681694852002156
11386260 185 18054786187827896325
12633257 1 17603853512386994082
12925494 130 18408042935940637481
13590594 115 17834688097436802482
13944108 23 18337679594389084220
14251764 38 18339366254021320001
14251764 75 18269283520031752145
14790565 3 18267867374703628429
14849402 71 18335136467259780450
15082195 135 18269533023893695845
15142526 21 18262234537831912538
15198563 99 17838362696152522470
15400415 2 18266740383949679661
15513586 35 15654933147665115228
19301679 30 17399790506539903746
19302320 297 17765446349026791921
21475661 188 18409167701210943414
21716022 299 14475304118644374996
21792938 324 17761745414092625874
21860390 5 18339925900838916254
22122407 14 18338246951416398537
23559900 14 18268155249603831039
23845131 108 18115582802269523251
245318 6 17970358228525742821
25223398 141 16128074750267624655
3298306 158 18340770467450234281
3388396 114 16326521498298543284
3411729 13 18411702071740187469
3493558 16 18340494378890098481
474 4 18410288133651012942
508706 21 17263559306750837736
5109719 28 18338528508182045641
57527306 92 18127966417724706418
5776283 40 18267042690244965052
5951187 136 18200325337486856773
6036956 94 17110718419977150373
7288768 16 17898001580356991530
9849439 229 18198047278280261112
9981440 41 18191592062940948371

> <PUBCHEM_SHAPE_MULTIPOLES>
610.4
12.6
6.74
1.36
20.72
4.7
0.02
16.2
-0.99
-8.78
-0.66
-0.43
-1.26
-0.95

> <PUBCHEM_SHAPE_SELFOVERLAP>
1341.673

> <PUBCHEM_SHAPE_VOLUME>
322.3

> <PUBCHEM_COORDINATE_TYPE>
2
5
10

$$$$
