11886000
  -OEChem-12032416193D

 55 60  0     1  0  0  0  0  0999 V2000
   -5.4500   -1.0596   -0.0810 S   0  0  0  0  0  0  0  0  0  0  0  0
    0.0783   -0.6339   -1.0299 O   0  0  0  0  0  0  0  0  0  0  0  0
   -1.3792   -2.6868    0.7636 O   0  0  0  0  0  0  0  0  0  0  0  0
    2.0287   -1.5864    0.6900 O   0  0  0  0  0  0  0  0  0  0  0  0
    2.1945    0.5837    1.3923 O   0  0  0  0  0  0  0  0  0  0  0  0
   -3.1138    0.1324   -0.8050 N   0  0  0  0  0  0  0  0  0  0  0  0
   -2.5973    1.3244   -1.1230 N   0  0  0  0  0  0  0  0  0  0  0  0
   -4.7714    1.5154   -0.6677 N   0  0  0  0  0  0  0  0  0  0  0  0
   -3.6178    2.1691   -1.0377 N   0  0  0  0  0  0  0  0  0  0  0  0
    4.0044   -0.5336    0.4145 N   0  0  0  0  0  0  0  0  0  0  0  0
   -1.5819   -1.2731    0.5453 C   0  0  1  0  0  0  0  0  0  0  0  0
   -0.2081   -0.6547    0.3772 C   0  0  1  0  0  0  0  0  0  0  0  0
   -2.2617   -1.0589   -0.7931 C   0  0  2  0  0  0  0  0  0  0  0  0
    0.6853   -1.6238    1.1145 C   0  0  1  0  0  0  0  0  0  0  0  0
   -1.0873   -1.0320   -1.7660 C   0  0  0  0  0  0  0  0  0  0  0  0
    0.0295   -2.9513    0.8136 C   0  0  0  0  0  0  0  0  0  0  0  0
   -4.4347    0.2536   -0.5296 C   0  0  0  0  0  0  0  0  0  0  0  0
    2.7106   -0.4023    0.8805 C   0  0  0  0  0  0  0  0  0  0  0  0
    5.0332    0.4357    0.4175 C   0  0  0  0  0  0  0  0  0  0  0  0
   -7.0034   -0.1831    0.1173 C   0  0  0  0  0  0  0  0  0  0  0  0
    6.3022    0.1498   -0.0932 C   0  0  0  0  0  0  0  0  0  0  0  0
    4.7258    1.6809    0.9508 C   0  0  0  0  0  0  0  0  0  0  0  0
    7.2927    1.1600   -0.0628 C   0  0  0  0  0  0  0  0  0  0  0  0
   -7.8560   -0.0451   -0.9703 C   0  0  0  0  0  0  0  0  0  0  0  0
   -7.3372    0.3480    1.3565 C   0  0  0  0  0  0  0  0  0  0  0  0
    6.6194   -1.1071   -0.6336 C   0  0  0  0  0  0  0  0  0  0  0  0
    5.6999    2.6744    0.9803 C   0  0  0  0  0  0  0  0  0  0  0  0
    6.9755    2.4171    0.4772 C   0  0  0  0  0  0  0  0  0  0  0  0
    8.5714    0.8837   -0.5737 C   0  0  0  0  0  0  0  0  0  0  0  0
   -9.0634    0.6361   -0.8162 C   0  0  0  0  0  0  0  0  0  0  0  0
   -8.5447    1.0291    1.5105 C   0  0  0  0  0  0  0  0  0  0  0  0
    7.8951   -1.3642   -1.1365 C   0  0  0  0  0  0  0  0  0  0  0  0
    8.8694   -0.3708   -1.1065 C   0  0  0  0  0  0  0  0  0  0  0  0
   -9.4078    1.1731    0.4241 C   0  0  0  0  0  0  0  0  0  0  0  0
   -2.1292   -0.8830    1.4092 H   0  0  0  0  0  0  0  0  0  0  0  0
   -0.1662    0.3758    0.7397 H   0  0  0  0  0  0  0  0  0  0  0  0
   -2.9110   -1.8967   -1.0710 H   0  0  0  0  0  0  0  0  0  0  0  0
    0.6263   -1.4421    2.1962 H   0  0  0  0  0  0  0  0  0  0  0  0
   -0.8882   -2.0389   -2.1506 H   0  0  0  0  0  0  0  0  0  0  0  0
   -1.2230   -0.3688   -2.6255 H   0  0  0  0  0  0  0  0  0  0  0  0
    0.2359   -3.7018    1.5826 H   0  0  0  0  0  0  0  0  0  0  0  0
    0.3482   -3.3650   -0.1499 H   0  0  0  0  0  0  0  0  0  0  0  0
    4.2166   -1.4457    0.0279 H   0  0  0  0  0  0  0  0  0  0  0  0
    3.7733    1.9755    1.3619 H   0  0  0  0  0  0  0  0  0  0  0  0
   -7.6030   -0.4573   -1.9436 H   0  0  0  0  0  0  0  0  0  0  0  0
   -6.6762    0.2449    2.2131 H   0  0  0  0  0  0  0  0  0  0  0  0
    5.9086   -1.9252   -0.6881 H   0  0  0  0  0  0  0  0  0  0  0  0
    5.4694    3.6517    1.3950 H   0  0  0  0  0  0  0  0  0  0  0  0
    7.7213    3.2086    0.5107 H   0  0  0  0  0  0  0  0  0  0  0  0
    9.3484    1.6453   -0.5606 H   0  0  0  0  0  0  0  0  0  0  0  0
    8.1284   -2.3404   -1.5518 H   0  0  0  0  0  0  0  0  0  0  0  0
   -9.7355    0.7485   -1.6619 H   0  0  0  0  0  0  0  0  0  0  0  0
   -8.8131    1.4475    2.4762 H   0  0  0  0  0  0  0  0  0  0  0  0
    9.8623   -0.5716   -1.4981 H   0  0  0  0  0  0  0  0  0  0  0  0
  -10.3478    1.7035    0.5440 H   0  0  0  0  0  0  0  0  0  0  0  0
  1 17  1  0  0  0  0
  1 20  1  0  0  0  0
  2 12  1  0  0  0  0
  2 15  1  0  0  0  0
  3 11  1  0  0  0  0
  3 16  1  0  0  0  0
  4 14  1  0  0  0  0
  4 18  1  0  0  0  0
  5 18  2  0  0  0  0
  6  7  1  0  0  0  0
  6 13  1  0  0  0  0
  6 17  1  0  0  0  0
  7  9  2  0  0  0  0
  8  9  1  0  0  0  0
  8 17  2  0  0  0  0
 10 18  1  0  0  0  0
 10 19  1  0  0  0  0
 10 43  1  0  0  0  0
 11 12  1  0  0  0  0
 11 13  1  0  0  0  0
 11 35  1  0  0  0  0
 12 14  1  0  0  0  0
 12 36  1  0  0  0  0
 13 15  1  0  0  0  0
 13 37  1  0  0  0  0
 14 16  1  0  0  0  0
 14 38  1  0  0  0  0
 15 39  1  0  0  0  0
 15 40  1  0  0  0  0
 16 41  1  0  0  0  0
 16 42  1  0  0  0  0
 19 21  1  0  0  0  0
 19 22  2  0  0  0  0
 20 24  2  0  0  0  0
 20 25  1  0  0  0  0
 21 23  1  0  0  0  0
 21 26  2  0  0  0  0
 22 27  1  0  0  0  0
 22 44  1  0  0  0  0
 23 28  1  0  0  0  0
 23 29  2  0  0  0  0
 24 30  1  0  0  0  0
 24 45  1  0  0  0  0
 25 31  2  0  0  0  0
 25 46  1  0  0  0  0
 26 32  1  0  0  0  0
 26 47  1  0  0  0  0
 27 28  2  0  0  0  0
 27 48  1  0  0  0  0
 28 49  1  0  0  0  0
 29 33  1  0  0  0  0
 29 50  1  0  0  0  0
 30 34  2  0  0  0  0
 30 52  1  0  0  0  0
 31 34  1  0  0  0  0
 31 53  1  0  0  0  0
 32 33  2  0  0  0  0
 32 51  1  0  0  0  0
 33 54  1  0  0  0  0
 34 55  1  0  0  0  0
M  END
> <PUBCHEM_COMPOUND_CID>
11886000

> <PUBCHEM_CONFORMER_RMSD>
1

> <PUBCHEM_CONFORMER_DIVERSEORDER>
1
440
242
61
228
372
224
464
368
374
240
365
57
428
100
204
151
35
47
101
476
445
321
3
348
65
377
185
201
23
188
87
38
433
430
265
183
285
131
300
104
356
275
152
74
25
353
209
254
243
449
267
198
314
199
164
73
94
380
262
311
320
143
309
259
145
67
477
396
412
293
468
347
119
11
467
416
442
197
375
132
235
327
462
5
329
230
339
439
55
253
399
369
148
93
343
330
325
238
232
153
312
432
90
227
405
423
448
17
175
177
305
239
287
123
401
414
301
21
438
82
37
130
474
31
276
363
402
16
258
450
278
229
217
436
62
346
120
13
360
20
113
250
136
322
156
245
69
75
400
205
181
79
361
46
447
110
158
364
39
456
316
388
40
165
212
146
10
419
170
429
263
196
413
109
49
407
216
219
155
26
382
357
6
290
133
351
336
116
187
481
434
459
421
310
251
478
59
376
443
168
371
206
471
366
444
194
149
193
415
403
426
389
257
221
141
12
33
431
352
223
437
122
163
455
386
283
404
395
137
8
19
299
81
233
298
215
269
56
349
302
255
167
76
162
98
147
70
45
345
191
303
77
117
424
475
465
266
83
249
29
202
379
9
142
398
378
173
457
247
460
234
85
274
66
315
335
350
354
4
71
291
355
319
272
279
393
461
324
96
138
422
323
479
135
226
480
27
63
180
408
184
203
277
207
190
304
397
86
111
22
208
340
213
282
139
157
54
427
237
7
218
469
387
118
308
406
106
214
446
182
270
337
454
288
48
391
331
384
121
195
154
99
280
222
458
466
36
114
244
192
30
409
289
128
268
159
307
313
362
418
241
18
129
160
435
91
225
43
97
441
60
425
124
370
179
107
411
390
296
342
178
410
338
171
174
333
42
332
14
72
231
317
41
172
15
252
189
52
24
318
53
470
292
326
273
176
341
260
359
295
88
220
68
140
248
211
210
134
264
286
144
452
92
306
2
472
473
417
105
80
284
186
358
383
463
166
161
394
125
51
385
78
115
246
453
102
328
373
103
58
150
392
84
95
256
261
236
32
34
89
28
271
200
112
127
126
281
108
367
334
50
294
420
44
451
344
381
297
169
64

> <PUBCHEM_MMFF94_PARTIAL_CHARGES>
44
1 -0.16
10 -0.55
11 0.28
12 0.28
13 0.26
14 0.28
15 0.28
16 0.28
17 0.24
18 0.78
19 0.12
2 -0.56
20 0.1
22 -0.15
24 -0.15
25 -0.15
26 -0.15
27 -0.15
28 -0.15
29 -0.15
3 -0.56
30 -0.15
31 -0.15
32 -0.15
33 -0.15
34 -0.15
4 -0.43
43 0.37
44 0.15
45 0.15
46 0.15
47 0.15
48 0.15
49 0.15
5 -0.57
50 0.15
51 0.15
52 0.15
53 0.15
54 0.15
55 0.15
6 0.31
7 -0.42
8 -0.34

> <PUBCHEM_EFFECTIVE_ROTOR_COUNT>
8.2

> <PUBCHEM_PHARMACOPHORE_FEATURES>
11
1 10 donor
1 2 acceptor
1 3 acceptor
1 5 acceptor
3 6 8 17 cation
5 2 11 12 13 15 rings
5 3 11 12 14 16 rings
5 6 7 8 9 17 rings
6 19 21 22 23 27 28 rings
6 20 24 25 30 31 34 rings
6 21 23 26 29 32 33 rings

> <PUBCHEM_HEAVY_ATOM_COUNT>
34

> <PUBCHEM_ATOM_DEF_STEREO_COUNT>
4

> <PUBCHEM_ATOM_UDEF_STEREO_COUNT>
0

> <PUBCHEM_BOND_DEF_STEREO_COUNT>
0

> <PUBCHEM_BOND_UDEF_STEREO_COUNT>
0

> <PUBCHEM_ISOTOPIC_ATOM_COUNT>
0

> <PUBCHEM_COMPONENT_COUNT>
1

> <PUBCHEM_CACTVS_TAUTO_COUNT>
2

> <PUBCHEM_CONFORMER_ID>
00B55DB000000001

> <PUBCHEM_MMFF94_ENERGY>
102.6721

> <PUBCHEM_FEATURE_SELFOVERLAP>
56.552

> <PUBCHEM_SHAPE_FINGERPRINT>
10 15 17603581920372254219
10165383 225 18333168366656618018
106641 1 16081091480662905867
10674148 151 16917064451731885330
11135609 127 17274532248602838384
11374522 175 18128261082778566430
11828422 8 12964270792134983267
12098696 120 18334287673915411128
12202916 173 9943806694296299237
12522641 33 18272934899300240351
12539765 74 18272375273545796599
12643181 29 11599999951741083741
12664476 115 18409445895608320892
12758862 56 12607393404404512799
13560911 43 15502375633968356668
13947947 73 14405179586296663641
15183329 4 17060341838144440578
15188451 53 12247685972438730946
15392192 104 15285360617705745802
15840311 113 18412544344422757988
16992610 120 18040726866030532238
1754911 235 18341608218533659133
18335252 114 17988921184573828992
18608769 82 18334295404861714907
2026 5 9439135255858284281
21033648 29 18265042713158941520
21585482 111 18264488391547852493
22224240 67 18040149626604749003
23576562 1 17059195125185037609
23729398 52 18046344124418303010
24771293 8 18260547819303569023
2747138 104 17748831812906397657
3092352 35 17703789224169169351
4098825 35 18273213119034150726
4149490 64 8862356753462930269
44280117 145 18057038240744646847
4625314 4 18341611542427110375
5028188 123 18060133276145863879
5758199 1 18334293167653141731
59682541 35 16443067205459284165
6126387 218 11241965972051105679
6438161 24 10087639312647451025
6698420 124 18341899609925432771
6703917 75 18187656790318491010
9689198 14 18413390942927406409
9962374 69 8790591594673079147

> <PUBCHEM_SHAPE_MULTIPOLES>
655.17
32.62
2.35
1.35
10.56
0.02
0.04
14.35
3.57
-2.18
-0.56
0.73
-0.06
1.16

> <PUBCHEM_SHAPE_SELFOVERLAP>
1442.367

> <PUBCHEM_SHAPE_VOLUME>
354

> <PUBCHEM_COORDINATE_TYPE>
2
5
10

$$$$
