11883120
  -OEChem-12032416133D

 71 75  0     1  0  0  0  0  0999 V2000
   -0.3590    2.7333    0.5285 S   0  0  0  0  0  0  0  0  0  0  0  0
   -8.3712   -0.1882    0.6128 F   0  0  0  0  0  0  0  0  0  0  0  0
    7.1849    0.5746    0.7638 O   0  0  0  0  0  0  0  0  0  0  0  0
    6.7833    2.8363    0.0798 O   0  0  0  0  0  0  0  0  0  0  0  0
   -1.1303   -1.8733   -2.0072 O   0  0  0  0  0  0  0  0  0  0  0  0
   -0.3730   -5.0930    1.5679 O   0  0  0  0  0  0  0  0  0  0  0  0
   -3.5307   -0.4770   -0.6146 O   0  0  0  0  0  0  0  0  0  0  0  0
   -0.6957    0.3068   -0.3031 N   0  0  0  0  0  0  0  0  0  0  0  0
   -0.1061   -2.9192   -0.2050 N   0  0  0  0  0  0  0  0  0  0  0  0
   -2.6867    1.6029    0.1045 N   0  0  0  0  0  0  0  0  0  0  0  0
    3.1270    0.0663   -0.7472 C   0  0  2  0  0  0  0  0  0  0  0  0
    3.4087    1.0737    0.4533 C   0  0  1  0  0  0  0  0  0  0  0  0
    4.9098    1.4904    0.7008 C   0  0  1  0  0  0  0  0  0  0  0  0
    1.6657   -0.5474   -0.5430 C   0  0  1  0  0  0  0  0  0  0  0  0
    4.1552   -1.0936   -0.6992 C   0  0  0  0  0  0  0  0  0  0  0  0
    5.8056    0.2196    0.6719 C   0  0  1  0  0  0  0  0  0  0  0  0
    2.4199    2.2756    0.4312 C   0  0  0  0  0  0  0  0  0  0  0  0
    5.6003   -0.6320   -0.5759 C   0  0  0  0  0  0  0  0  0  0  0  0
    3.2101    0.7472   -2.1355 C   0  0  0  0  0  0  0  0  0  0  0  0
    0.6656    0.5316   -0.2154 C   0  0  0  0  0  0  0  0  0  0  0  0
    5.4455    2.5640   -0.2721 C   0  0  0  0  0  0  0  0  0  0  0  0
    5.0357    2.1127    2.1203 C   0  0  0  0  0  0  0  0  0  0  0  0
    1.0251    1.7847    0.2374 C   0  0  0  0  0  0  0  0  0  0  0  0
    1.1786   -1.4328   -1.6979 C   0  0  0  0  0  0  0  0  0  0  0  0
   -0.1262   -2.0891   -1.3237 C   0  0  0  0  0  0  0  0  0  0  0  0
   -1.3330    1.3996    0.0573 C   0  0  0  0  0  0  0  0  0  0  0  0
    1.0802   -3.5927    0.3336 C   0  0  0  0  0  0  0  0  0  0  0  0
   -1.3080   -3.0727    0.6146 C   0  0  0  0  0  0  0  0  0  0  0  0
    0.7515   -5.0380    0.6861 C   0  0  0  0  0  0  0  0  0  0  0  0
   -1.5377   -4.5395    0.9498 C   0  0  0  0  0  0  0  0  0  0  0  0
   -3.6878    0.6753   -0.2263 C   0  0  0  0  0  0  0  0  0  0  0  0
   -5.0840    1.1565   -0.0521 C   0  0  0  0  0  0  0  0  0  0  0  0
   -6.0777    0.2350    0.2018 C   0  0  0  0  0  0  0  0  0  0  0  0
   -5.3384    2.5082   -0.1496 C   0  0  0  0  0  0  0  0  0  0  0  0
   -7.3872    0.6863    0.3660 C   0  0  0  0  0  0  0  0  0  0  0  0
   -6.6479    2.9593    0.0143 C   0  0  0  0  0  0  0  0  0  0  0  0
   -7.6724    2.0485    0.2722 C   0  0  0  0  0  0  0  0  0  0  0  0
    3.1414    0.4938    1.3539 H   0  0  0  0  0  0  0  0  0  0  0  0
    1.7257   -1.1355    0.3777 H   0  0  0  0  0  0  0  0  0  0  0  0
    4.0689   -1.7226   -1.5930 H   0  0  0  0  0  0  0  0  0  0  0  0
    3.9323   -1.7459    0.1555 H   0  0  0  0  0  0  0  0  0  0  0  0
    5.5800   -0.4072    1.5453 H   0  0  0  0  0  0  0  0  0  0  0  0
    2.6682    2.9709   -0.3776 H   0  0  0  0  0  0  0  0  0  0  0  0
    2.4785    2.8303    1.3736 H   0  0  0  0  0  0  0  0  0  0  0  0
    6.2579   -1.5093   -0.5234 H   0  0  0  0  0  0  0  0  0  0  0  0
    5.9224   -0.0912   -1.4727 H   0  0  0  0  0  0  0  0  0  0  0  0
    4.1909    1.1664   -2.3466 H   0  0  0  0  0  0  0  0  0  0  0  0
    3.0331    0.0253   -2.9406 H   0  0  0  0  0  0  0  0  0  0  0  0
    2.4745    1.5474   -2.2558 H   0  0  0  0  0  0  0  0  0  0  0  0
    5.4640    2.2284   -1.3052 H   0  0  0  0  0  0  0  0  0  0  0  0
    4.8735    3.4962   -0.2311 H   0  0  0  0  0  0  0  0  0  0  0  0
    4.5270    3.0805    2.1835 H   0  0  0  0  0  0  0  0  0  0  0  0
    4.5868    1.4555    2.8743 H   0  0  0  0  0  0  0  0  0  0  0  0
    6.0713    2.2807    2.4316 H   0  0  0  0  0  0  0  0  0  0  0  0
    0.9878   -0.8284   -2.5935 H   0  0  0  0  0  0  0  0  0  0  0  0
    1.9014   -2.2007   -1.9828 H   0  0  0  0  0  0  0  0  0  0  0  0
    7.3719    0.8185    1.6853 H   0  0  0  0  0  0  0  0  0  0  0  0
    6.7809    3.5313    0.7594 H   0  0  0  0  0  0  0  0  0  0  0  0
   -2.9436    2.5177    0.4612 H   0  0  0  0  0  0  0  0  0  0  0  0
    1.9146   -3.5644   -0.3691 H   0  0  0  0  0  0  0  0  0  0  0  0
    1.3646   -3.0600    1.2478 H   0  0  0  0  0  0  0  0  0  0  0  0
   -1.1348   -2.4961    1.5308 H   0  0  0  0  0  0  0  0  0  0  0  0
   -2.1807   -2.6522    0.1086 H   0  0  0  0  0  0  0  0  0  0  0  0
    0.5343   -5.6279   -0.2124 H   0  0  0  0  0  0  0  0  0  0  0  0
    1.6013   -5.5036    1.1949 H   0  0  0  0  0  0  0  0  0  0  0  0
   -2.3711   -4.6389    1.6521 H   0  0  0  0  0  0  0  0  0  0  0  0
   -1.7822   -5.1213    0.0532 H   0  0  0  0  0  0  0  0  0  0  0  0
   -5.8735   -0.8282    0.2840 H   0  0  0  0  0  0  0  0  0  0  0  0
   -4.5812    3.2470   -0.3890 H   0  0  0  0  0  0  0  0  0  0  0  0
   -6.8723    4.0189   -0.0680 H   0  0  0  0  0  0  0  0  0  0  0  0
   -8.6924    2.3993    0.3977 H   0  0  0  0  0  0  0  0  0  0  0  0
  1 23  1  0  0  0  0
  1 26  1  0  0  0  0
  2 35  1  0  0  0  0
  3 16  1  0  0  0  0
  3 57  1  0  0  0  0
  4 21  1  0  0  0  0
  4 58  1  0  0  0  0
  5 25  2  0  0  0  0
  6 29  1  0  0  0  0
  6 30  1  0  0  0  0
  7 31  2  0  0  0  0
  8 20  1  0  0  0  0
  8 26  2  0  0  0  0
  9 25  1  0  0  0  0
  9 27  1  0  0  0  0
  9 28  1  0  0  0  0
 10 26  1  0  0  0  0
 10 31  1  0  0  0  0
 10 59  1  0  0  0  0
 11 12  1  0  0  0  0
 11 14  1  0  0  0  0
 11 15  1  0  0  0  0
 11 19  1  0  0  0  0
 12 13  1  0  0  0  0
 12 17  1  0  0  0  0
 12 38  1  0  0  0  0
 13 16  1  0  0  0  0
 13 21  1  0  0  0  0
 13 22  1  0  0  0  0
 14 20  1  0  0  0  0
 14 24  1  0  0  0  0
 14 39  1  0  0  0  0
 15 18  1  0  0  0  0
 15 40  1  0  0  0  0
 15 41  1  0  0  0  0
 16 18  1  0  0  0  0
 16 42  1  0  0  0  0
 17 23  1  0  0  0  0
 17 43  1  0  0  0  0
 17 44  1  0  0  0  0
 18 45  1  0  0  0  0
 18 46  1  0  0  0  0
 19 47  1  0  0  0  0
 19 48  1  0  0  0  0
 19 49  1  0  0  0  0
 20 23  2  0  0  0  0
 21 50  1  0  0  0  0
 21 51  1  0  0  0  0
 22 52  1  0  0  0  0
 22 53  1  0  0  0  0
 22 54  1  0  0  0  0
 24 25  1  0  0  0  0
 24 55  1  0  0  0  0
 24 56  1  0  0  0  0
 27 29  1  0  0  0  0
 27 60  1  0  0  0  0
 27 61  1  0  0  0  0
 28 30  1  0  0  0  0
 28 62  1  0  0  0  0
 28 63  1  0  0  0  0
 29 64  1  0  0  0  0
 29 65  1  0  0  0  0
 30 66  1  0  0  0  0
 30 67  1  0  0  0  0
 31 32  1  0  0  0  0
 32 33  2  0  0  0  0
 32 34  1  0  0  0  0
 33 35  1  0  0  0  0
 33 68  1  0  0  0  0
 34 36  2  0  0  0  0
 34 69  1  0  0  0  0
 35 37  2  0  0  0  0
 36 37  1  0  0  0  0
 36 70  1  0  0  0  0
 37 71  1  0  0  0  0
M  END
> <PUBCHEM_COMPOUND_CID>
11883120

> <PUBCHEM_CONFORMER_RMSD>
1

> <PUBCHEM_CONFORMER_DIVERSEORDER>
1
11
8
10
9
6
15
14
3
12
7
5
13
4
2

> <PUBCHEM_MMFF94_PARTIAL_CHARGES>
37
1 -0.08
10 -0.49
14 0.18
16 0.28
17 0.18
2 -0.19
20 0.05
21 0.28
23 -0.14
24 0.06
25 0.57
26 0.44
27 0.3
28 0.3
29 0.28
3 -0.68
30 0.28
31 0.54
32 0.09
33 -0.15
34 -0.15
35 0.19
36 -0.15
37 -0.15
4 -0.68
5 -0.57
57 0.4
58 0.4
59 0.37
6 -0.56
68 0.15
69 0.15
7 -0.57
70 0.15
71 0.15
8 -0.57
9 -0.66

> <PUBCHEM_EFFECTIVE_ROTOR_COUNT>
9.4

> <PUBCHEM_PHARMACOPHORE_FEATURES>
13
1 10 donor
1 3 acceptor
1 3 donor
1 4 acceptor
1 4 donor
1 5 acceptor
1 6 acceptor
1 7 acceptor
5 1 8 20 23 26 rings
6 11 12 13 15 16 18 rings
6 11 12 14 17 20 23 rings
6 32 33 34 35 36 37 rings
6 6 9 27 28 29 30 rings

> <PUBCHEM_HEAVY_ATOM_COUNT>
37

> <PUBCHEM_ATOM_DEF_STEREO_COUNT>
5

> <PUBCHEM_ATOM_UDEF_STEREO_COUNT>
0

> <PUBCHEM_BOND_DEF_STEREO_COUNT>
0

> <PUBCHEM_BOND_UDEF_STEREO_COUNT>
0

> <PUBCHEM_ISOTOPIC_ATOM_COUNT>
0

> <PUBCHEM_COMPONENT_COUNT>
1

> <PUBCHEM_CACTVS_TAUTO_COUNT>
3

> <PUBCHEM_CONFORMER_ID>
00B5527000000001

> <PUBCHEM_MMFF94_ENERGY>
123.9424

> <PUBCHEM_FEATURE_SELFOVERLAP>
66.12

> <PUBCHEM_SHAPE_FINGERPRINT>
10 15 18410856585937685801
10906281 52 18130518516939776020
11135926 11 18337381652955244215
11136131 41 18114739331597916499
11534866 41 17968392173845817387
11578080 2 16270213064451369090
11719270 70 18335701611619444209
12522641 33 18409166593789733273
12608794 3 18115292496992760756
13692114 37 18334858359511290163
14190465 44 18196642111485138872
14347332 77 9655034246643922468
14565420 104 18410854326557755343
14675020 138 18339633447725064505
14725015 67 18195527000524814314
14790565 3 18411418410203571548
15064986 266 18267304421335558372
15357212 105 17972610050399982748
15629462 23 17911785079672553567
15815584 197 18266764423428832469
15927050 60 18411978070692364919
16112460 7 18273219685701549512
16728300 4 17462541946234348906
18608769 82 18342459283905216991
19319366 153 18410852123387381983
21049683 118 18268687520404825802
21304304 249 18411419471856429156
21521721 280 18343868818260963465
21781051 124 18041580103515786475
22224240 67 18410573981457909701
22956985 138 17755578244266238426
3178227 256 18341058475510078273
3411729 13 18270399387205623543
4058900 60 18339649944752912025
4073 2 18409737236430755329
4093350 32 16558754481496561572
4340502 62 18408888403993512319
46939830 39 11023818492571030435
5109719 28 18341621421179140313
5265222 85 18337673126057365105
59520757 100 18188213221034186451
6086070 43 16558467617148037120
6669772 16 18411417289116737599

> <PUBCHEM_SHAPE_MULTIPOLES>
713.73
18.07
5.45
1.32
22.28
8.84
-0.24
-17.81
3.27
0.1
2.3
-1.31
0.46
1.07

> <PUBCHEM_SHAPE_SELFOVERLAP>
1525.056

> <PUBCHEM_SHAPE_VOLUME>
399.6

> <PUBCHEM_COORDINATE_TYPE>
2
5
10

$$$$
