7663180
  -OEChem-12032416133D

 38 39  0     1  0  0  0  0  0999 V2000
    2.1502   -2.5389    0.0317 O   0  0  0  0  0  0  0  0  0  0  0  0
    2.1795   -0.9354   -1.6309 O   0  0  0  0  0  0  0  0  0  0  0  0
    3.4484    2.8369   -0.7250 O   0  0  0  0  0  0  0  0  0  0  0  0
   -1.5213   -1.9659    1.1820 O   0  0  0  0  0  0  0  0  0  0  0  0
    2.1977    1.0547    0.0967 N   0  0  0  0  0  0  0  0  0  0  0  0
   -0.3150    0.0196    0.9315 N   0  0  0  0  0  0  0  0  0  0  0  0
   -4.7325    0.9707    0.4936 N   0  0  0  0  0  0  0  0  0  0  0  0
    2.1303   -0.2924    0.6914 C   0  0  1  0  0  0  0  0  0  0  0  0
    0.8942   -0.4964    1.5704 C   0  0  0  0  0  0  0  0  0  0  0  0
    0.9458    1.5868   -0.4616 C   0  0  0  0  0  0  0  0  0  0  0  0
   -0.2174    1.4181    0.5055 C   0  0  0  0  0  0  0  0  0  0  0  0
    2.1566   -1.2644   -0.4527 C   0  0  0  0  0  0  0  0  0  0  0  0
    3.3814    1.7730   -0.1036 C   0  0  0  0  0  0  0  0  0  0  0  0
   -1.4453   -0.7920    0.8224 C   0  0  0  0  0  0  0  0  0  0  0  0
   -2.6529   -0.2190    0.2141 C   0  0  0  0  0  0  0  0  0  0  0  0
    4.6371    1.1923    0.4978 C   0  0  0  0  0  0  0  0  0  0  0  0
   -2.8706   -0.3082   -1.1530 C   0  0  0  0  0  0  0  0  0  0  0  0
   -3.6006    0.4223    0.9894 C   0  0  0  0  0  0  0  0  0  0  0  0
    2.1729   -3.5728   -0.9575 C   0  0  0  0  0  0  0  0  0  0  0  0
   -4.0234    0.2440   -1.7004 C   0  0  0  0  0  0  0  0  0  0  0  0
   -4.9149    0.8669   -0.8419 C   0  0  0  0  0  0  0  0  0  0  0  0
    3.0237   -0.4846    1.2912 H   0  0  0  0  0  0  0  0  0  0  0  0
    0.7637   -1.5451    1.8557 H   0  0  0  0  0  0  0  0  0  0  0  0
    1.0141    0.0721    2.5014 H   0  0  0  0  0  0  0  0  0  0  0  0
    0.7400    1.0601   -1.3995 H   0  0  0  0  0  0  0  0  0  0  0  0
    1.0610    2.6470   -0.7101 H   0  0  0  0  0  0  0  0  0  0  0  0
   -0.0568    2.0200    1.4081 H   0  0  0  0  0  0  0  0  0  0  0  0
   -1.1387    1.7704    0.0375 H   0  0  0  0  0  0  0  0  0  0  0  0
    4.5398    1.1278    1.5847 H   0  0  0  0  0  0  0  0  0  0  0  0
    5.4847    1.8461    0.2701 H   0  0  0  0  0  0  0  0  0  0  0  0
    4.8443    0.2076    0.0711 H   0  0  0  0  0  0  0  0  0  0  0  0
   -2.1515   -0.8024   -1.8004 H   0  0  0  0  0  0  0  0  0  0  0  0
   -3.4807    0.5213    2.0638 H   0  0  0  0  0  0  0  0  0  0  0  0
    2.1680   -4.5367   -0.4419 H   0  0  0  0  0  0  0  0  0  0  0  0
    3.0835   -3.5009   -1.5598 H   0  0  0  0  0  0  0  0  0  0  0  0
    1.2832   -3.5088   -1.5913 H   0  0  0  0  0  0  0  0  0  0  0  0
   -4.2177    0.1889   -2.7653 H   0  0  0  0  0  0  0  0  0  0  0  0
   -5.8289    1.3136   -1.2191 H   0  0  0  0  0  0  0  0  0  0  0  0
  1 12  1  0  0  0  0
  1 19  1  0  0  0  0
  2 12  2  0  0  0  0
  3 13  2  0  0  0  0
  4 14  2  0  0  0  0
  5  8  1  0  0  0  0
  5 10  1  0  0  0  0
  5 13  1  0  0  0  0
  6  9  1  0  0  0  0
  6 11  1  0  0  0  0
  6 14  1  0  0  0  0
  7 18  1  0  0  0  0
  7 21  2  0  0  0  0
  8  9  1  0  0  0  0
  8 12  1  0  0  0  0
  8 22  1  0  0  0  0
  9 23  1  0  0  0  0
  9 24  1  0  0  0  0
 10 11  1  0  0  0  0
 10 25  1  0  0  0  0
 10 26  1  0  0  0  0
 11 27  1  0  0  0  0
 11 28  1  0  0  0  0
 13 16  1  0  0  0  0
 14 15  1  0  0  0  0
 15 17  1  0  0  0  0
 15 18  2  0  0  0  0
 16 29  1  0  0  0  0
 16 30  1  0  0  0  0
 16 31  1  0  0  0  0
 17 20  2  0  0  0  0
 17 32  1  0  0  0  0
 18 33  1  0  0  0  0
 19 34  1  0  0  0  0
 19 35  1  0  0  0  0
 19 36  1  0  0  0  0
 20 21  1  0  0  0  0
 20 37  1  0  0  0  0
 21 38  1  0  0  0  0
M  END
> <PUBCHEM_COMPOUND_CID>
7663180

> <PUBCHEM_CONFORMER_RMSD>
0.8

> <PUBCHEM_CONFORMER_DIVERSEORDER>
3
23
70
31
67
30
58
39
20
18
62
29
71
47
28
17
61
26
69
34
19
56
66
68
25
57
38
59
55
63
48
24
4
27
42
50
35
33
43
41
8
13
54
64
46
49
14
7
6
44
40
53
45
21
65
60
9
22
11
32
16
12
52
2
1
5
10
15
51
37
36

> <PUBCHEM_MMFF94_PARTIAL_CHARGES>
25
1 -0.43
10 0.3
11 0.3
12 0.66
13 0.57
14 0.54
15 0.09
16 0.06
17 -0.15
18 0.16
19 0.28
2 -0.57
20 -0.15
21 0.16
3 -0.57
32 0.15
33 0.15
37 0.15
38 0.15
4 -0.57
5 -0.66
6 -0.66
7 -0.62
8 0.36
9 0.3

> <PUBCHEM_EFFECTIVE_ROTOR_COUNT>
6.2

> <PUBCHEM_PHARMACOPHORE_FEATURES>
6
1 2 acceptor
1 3 acceptor
1 4 acceptor
1 7 acceptor
6 5 6 8 9 10 11 rings
6 7 15 17 18 20 21 rings

> <PUBCHEM_HEAVY_ATOM_COUNT>
21

> <PUBCHEM_ATOM_DEF_STEREO_COUNT>
1

> <PUBCHEM_ATOM_UDEF_STEREO_COUNT>
0

> <PUBCHEM_BOND_DEF_STEREO_COUNT>
0

> <PUBCHEM_BOND_UDEF_STEREO_COUNT>
0

> <PUBCHEM_ISOTOPIC_ATOM_COUNT>
0

> <PUBCHEM_COMPONENT_COUNT>
1

> <PUBCHEM_CACTVS_TAUTO_COUNT>
1

> <PUBCHEM_CONFORMER_ID>
0074EE4C00000003

> <PUBCHEM_MMFF94_ENERGY>
58.1282

> <PUBCHEM_FEATURE_SELFOVERLAP>
30.449

> <PUBCHEM_SHAPE_FINGERPRINT>
10906281 52 18334869298724122336
116883 192 18124029035855730828
11796584 16 15482088571532783029
12670546 177 18263630901025610207
12788726 201 16773528676709791521
13464514 151 18334574667792994552
13675066 3 16226040106726059840
15163728 17 17970370293389213220
15238133 3 14346068664730396309
15375358 24 18335701662826735897
17818456 19 16985195531091860697
18186145 218 18186803539557262603
20645477 56 17822010930289672873
20645477 70 18410575054741064067
21054139 6 17916288606073346262
21486144 27 18260554424282982723
21864079 5 18116425956553824393
22182313 1 18264510509827132282
22393880 68 17489296542476196125
2255824 54 18271810068771402718
23114952 82 18334577906198121620
231179 274 17894622673529295664
23402539 116 18262508294952826136
23557571 272 17676778664027375707
23559900 14 18410013226349048706
25 1 18335137630615402633
3060560 45 18413109481173175420
4072396 5 18335966628682462144
474 4 18409447015924651249
495365 180 18200299048134800320
633830 44 18336261224863148945
7364860 26 18341055121071690874
81539 233 18409450319149854980
8272917 22 18341613689636146399

> <PUBCHEM_SHAPE_MULTIPOLES>
393.75
8.78
2.72
1.39
6.01
1.78
-0.12
-3.79
-1.83
-3.86
-0.75
0.64
0.28
0.35

> <PUBCHEM_SHAPE_SELFOVERLAP>
823.441

> <PUBCHEM_SHAPE_VOLUME>
220.3

> <PUBCHEM_COORDINATE_TYPE>
2
5
10

$$$$
