38030795
  -OEChem-12032416263D

 69 72  0     1  0  0  0  0  0999 V2000
   -6.3822    4.0186    0.2601 O   0  0  0  0  0  0  0  0  0  0  0  0
    2.2385   -1.1838    0.6588 O   0  0  0  0  0  0  0  0  0  0  0  0
    6.7435    3.1913    0.1545 O   0  0  0  0  0  0  0  0  0  0  0  0
   -4.8902    0.0631    0.5039 N   0  0  0  0  0  0  0  0  0  0  0  0
    2.6135   -3.3136    0.0862 N   0  0  0  0  0  0  0  0  0  0  0  0
    3.7779   -2.6012   -0.1323 N   0  0  0  0  0  0  0  0  0  0  0  0
   -1.2525   -0.3387   -0.6364 C   0  0  1  0  0  0  0  0  0  0  0  0
   -2.7546   -0.6801   -0.4726 C   0  0  2  0  0  0  0  0  0  0  0  0
   -0.4831   -1.5517   -1.1812 C   0  0  0  0  0  0  0  0  0  0  0  0
   -0.6068   -2.7810   -0.2614 C   0  0  2  0  0  0  0  0  0  0  0  0
   -1.0404    0.8666   -1.5579 C   0  0  0  0  0  0  0  0  0  0  0  0
   -3.4552    0.3310    0.4421 C   0  0  0  0  0  0  0  0  0  0  0  0
   -2.9896   -2.0782    0.0493 C   0  0  0  0  0  0  0  0  0  0  0  0
   -2.0406   -3.0244    0.1637 C   0  0  0  0  0  0  0  0  0  0  0  0
    0.3129   -2.6530    0.9582 C   0  0  0  0  0  0  0  0  0  0  0  0
   -5.5152    0.6559    1.6940 C   0  0  0  0  0  0  0  0  0  0  0  0
   -5.5850    0.4717   -0.7246 C   0  0  0  0  0  0  0  0  0  0  0  0
    0.2901    1.5454   -1.2485 C   0  0  0  0  0  0  0  0  0  0  0  0
   -1.1007    0.4356   -3.0199 C   0  0  0  0  0  0  0  0  0  0  0  0
   -5.6711    2.1761    1.6247 C   0  0  0  0  0  0  0  0  0  0  0  0
   -5.7440    1.9854   -0.8772 C   0  0  0  0  0  0  0  0  0  0  0  0
   -6.4034    2.6000    0.3550 C   0  0  0  0  0  0  0  0  0  0  0  0
   -2.3697   -4.3967    0.6815 C   0  0  0  0  0  0  0  0  0  0  0  0
    1.7428   -2.4466    0.5478 C   0  0  0  0  0  0  0  0  0  0  0  0
    3.5127   -1.3635    0.2153 C   0  0  0  0  0  0  0  0  0  0  0  0
    4.3427   -0.1942    0.2006 C   0  0  0  0  0  0  0  0  0  0  0  0
    5.6641   -0.2821   -0.2376 C   0  0  0  0  0  0  0  0  0  0  0  0
    3.8285    1.0314    0.6241 C   0  0  0  0  0  0  0  0  0  0  0  0
    6.4712    0.8553   -0.2522 C   0  0  0  0  0  0  0  0  0  0  0  0
    4.6356    2.1689    0.6096 C   0  0  0  0  0  0  0  0  0  0  0  0
    5.9569    2.0809    0.1715 C   0  0  0  0  0  0  0  0  0  0  0  0
    6.1537    4.4115    0.6012 C   0  0  0  0  0  0  0  0  0  0  0  0
   -0.8556   -0.0907    0.3574 H   0  0  0  0  0  0  0  0  0  0  0  0
   -3.2071   -0.6577   -1.4690 H   0  0  0  0  0  0  0  0  0  0  0  0
    0.5620   -1.3103   -1.3924 H   0  0  0  0  0  0  0  0  0  0  0  0
   -0.9129   -1.8685   -2.1415 H   0  0  0  0  0  0  0  0  0  0  0  0
   -0.2762   -3.6466   -0.8537 H   0  0  0  0  0  0  0  0  0  0  0  0
   -1.8224    1.6156   -1.3963 H   0  0  0  0  0  0  0  0  0  0  0  0
   -3.2526    1.3633    0.1441 H   0  0  0  0  0  0  0  0  0  0  0  0
   -3.0196    0.2240    1.4461 H   0  0  0  0  0  0  0  0  0  0  0  0
   -4.0083   -2.3480    0.3185 H   0  0  0  0  0  0  0  0  0  0  0  0
    0.2733   -3.5662    1.5643 H   0  0  0  0  0  0  0  0  0  0  0  0
   -0.0037   -1.8332    1.6141 H   0  0  0  0  0  0  0  0  0  0  0  0
   -4.9604    0.3790    2.5988 H   0  0  0  0  0  0  0  0  0  0  0  0
   -6.5091    0.2057    1.8171 H   0  0  0  0  0  0  0  0  0  0  0  0
   -6.5865    0.0208   -0.7045 H   0  0  0  0  0  0  0  0  0  0  0  0
   -5.1200    0.0611   -1.6255 H   0  0  0  0  0  0  0  0  0  0  0  0
    1.1445    0.8861   -1.4293 H   0  0  0  0  0  0  0  0  0  0  0  0
    0.3294    1.8743   -0.2046 H   0  0  0  0  0  0  0  0  0  0  0  0
    0.4219    2.4328   -1.8775 H   0  0  0  0  0  0  0  0  0  0  0  0
   -0.2179   -0.1277   -3.3401 H   0  0  0  0  0  0  0  0  0  0  0  0
   -1.1294    1.3288   -3.6564 H   0  0  0  0  0  0  0  0  0  0  0  0
   -2.0009   -0.1391   -3.2563 H   0  0  0  0  0  0  0  0  0  0  0  0
   -6.2197    2.5368    2.5033 H   0  0  0  0  0  0  0  0  0  0  0  0
   -4.6890    2.6641    1.6713 H   0  0  0  0  0  0  0  0  0  0  0  0
   -4.7762    2.4654   -1.0671 H   0  0  0  0  0  0  0  0  0  0  0  0
   -6.3536    2.2051   -1.7625 H   0  0  0  0  0  0  0  0  0  0  0  0
   -7.4513    2.2825    0.4151 H   0  0  0  0  0  0  0  0  0  0  0  0
   -2.0879   -5.1577   -0.0536 H   0  0  0  0  0  0  0  0  0  0  0  0
   -3.4393   -4.5165    0.8844 H   0  0  0  0  0  0  0  0  0  0  0  0
   -1.8345   -4.5978    1.6143 H   0  0  0  0  0  0  0  0  0  0  0  0
   -6.8465    4.2642   -0.5583 H   0  0  0  0  0  0  0  0  0  0  0  0
    6.0859   -1.2268   -0.5725 H   0  0  0  0  0  0  0  0  0  0  0  0
    2.8043    1.1386    0.9723 H   0  0  0  0  0  0  0  0  0  0  0  0
    7.4996    0.7810   -0.5951 H   0  0  0  0  0  0  0  0  0  0  0  0
    4.1727    3.0885    0.9512 H   0  0  0  0  0  0  0  0  0  0  0  0
    6.9204    5.1892    0.5216 H   0  0  0  0  0  0  0  0  0  0  0  0
    5.8633    4.3557    1.6558 H   0  0  0  0  0  0  0  0  0  0  0  0
    5.3218    4.7158   -0.0431 H   0  0  0  0  0  0  0  0  0  0  0  0
  1 22  1  0  0  0  0
  1 62  1  0  0  0  0
  2 24  1  0  0  0  0
  2 25  1  0  0  0  0
  3 31  1  0  0  0  0
  3 32  1  0  0  0  0
  4 12  1  0  0  0  0
  4 16  1  0  0  0  0
  4 17  1  0  0  0  0
  5  6  1  0  0  0  0
  5 24  2  0  0  0  0
  6 25  2  0  0  0  0
  7  8  1  0  0  0  0
  7  9  1  0  0  0  0
  7 11  1  0  0  0  0
  7 33  1  0  0  0  0
  8 12  1  0  0  0  0
  8 13  1  0  0  0  0
  8 34  1  0  0  0  0
  9 10  1  0  0  0  0
  9 35  1  0  0  0  0
  9 36  1  0  0  0  0
 10 14  1  0  0  0  0
 10 15  1  0  0  0  0
 10 37  1  0  0  0  0
 11 18  1  0  0  0  0
 11 19  1  0  0  0  0
 11 38  1  0  0  0  0
 12 39  1  0  0  0  0
 12 40  1  0  0  0  0
 13 14  2  0  0  0  0
 13 41  1  0  0  0  0
 14 23  1  0  0  0  0
 15 24  1  0  0  0  0
 15 42  1  0  0  0  0
 15 43  1  0  0  0  0
 16 20  1  0  0  0  0
 16 44  1  0  0  0  0
 16 45  1  0  0  0  0
 17 21  1  0  0  0  0
 17 46  1  0  0  0  0
 17 47  1  0  0  0  0
 18 48  1  0  0  0  0
 18 49  1  0  0  0  0
 18 50  1  0  0  0  0
 19 51  1  0  0  0  0
 19 52  1  0  0  0  0
 19 53  1  0  0  0  0
 20 22  1  0  0  0  0
 20 54  1  0  0  0  0
 20 55  1  0  0  0  0
 21 22  1  0  0  0  0
 21 56  1  0  0  0  0
 21 57  1  0  0  0  0
 22 58  1  0  0  0  0
 23 59  1  0  0  0  0
 23 60  1  0  0  0  0
 23 61  1  0  0  0  0
 25 26  1  0  0  0  0
 26 27  2  0  0  0  0
 26 28  1  0  0  0  0
 27 29  1  0  0  0  0
 27 63  1  0  0  0  0
 28 30  2  0  0  0  0
 28 64  1  0  0  0  0
 29 31  2  0  0  0  0
 29 65  1  0  0  0  0
 30 31  1  0  0  0  0
 30 66  1  0  0  0  0
 32 67  1  0  0  0  0
 32 68  1  0  0  0  0
 32 69  1  0  0  0  0
M  END
> <PUBCHEM_COMPOUND_CID>
38030795

> <PUBCHEM_CONFORMER_RMSD>
1

> <PUBCHEM_CONFORMER_DIVERSEORDER>
1
198
108
20
289
192
204
18
9
240
106
249
88
166
184
179
171
130
292
196
56
55
22
208
254
247
67
237
73
161
75
121
320
13
258
142
319
260
65
163
280
284
177
110
314
181
259
160
54
267
26
228
242
102
246
164
41
48
81
167
111
215
231
135
299
151
57
301
270
205
269
90
277
31
137
168
300
159
21
2
52
263
133
58
256
271
175
122
95
93
303
154
266
232
45
8
132
59
10
91
153
11
265
304
74
97
229
165
107
230
119
191
220
4
201
92
6
117
172
146
239
195
203
69
183
66
141
77
173
245
169
150
30
64
87
306
147
174
180
272
155
33
274
49
152
214
285
308
283
311
23
112
109
101
3
310
34
234
217
78
313
136
262
5
241
316
207
255
94
182
218
148
206
252
89
321
15
281
149
318
72
125
257
35
190
138
317
145
278
221
276
279
80
268
162
202
115
212
63
251
82
105
118
213
209
128
186
225
264
295
27
157
25
210
32
24
197
158
236
187
211
194
98
131
84
222
261
302
188
297
288
243
100
275
124
227
144
139
70
37
79
178
176
104
235
307
296
315
62
43
189
219
14
129
19
312
127
298
305
103
53
253
42
134
290
291
44
86
286
50
123
61
273
60
36
193
96
85
116
17
185
76
293
126
223
309
83
140
238
29
120
51
244
114
216
68
47
71
99
7
282
143
250
113
248
16
200
28
170
233
39
199
40
224
12
46
294
226
156
38
287

> <PUBCHEM_MMFF94_PARTIAL_CHARGES>
31
1 -0.68
10 0.14
12 0.27
13 -0.29
14 -0.28
15 0.18
16 0.27
17 0.27
2 -0.28
22 0.28
23 0.14
24 0.3
25 0.43
26 0.05
27 -0.15
28 -0.15
29 -0.15
3 -0.36
30 -0.15
31 0.08
32 0.28
4 -0.81
41 0.15
5 -0.34
6 -0.34
62 0.4
63 0.15
64 0.15
65 0.15
66 0.15
8 0.14

> <PUBCHEM_EFFECTIVE_ROTOR_COUNT>
9

> <PUBCHEM_PHARMACOPHORE_FEATURES>
9
1 1 acceptor
1 1 donor
1 3 acceptor
1 4 cation
3 11 18 19 hydrophobe
5 2 5 6 24 25 rings
6 26 27 28 29 30 31 rings
6 4 16 17 20 21 22 rings
6 7 8 9 10 13 14 rings

> <PUBCHEM_HEAVY_ATOM_COUNT>
32

> <PUBCHEM_ATOM_DEF_STEREO_COUNT>
3

> <PUBCHEM_ATOM_UDEF_STEREO_COUNT>
0

> <PUBCHEM_BOND_DEF_STEREO_COUNT>
0

> <PUBCHEM_BOND_UDEF_STEREO_COUNT>
0

> <PUBCHEM_ISOTOPIC_ATOM_COUNT>
0

> <PUBCHEM_COMPONENT_COUNT>
1

> <PUBCHEM_CACTVS_TAUTO_COUNT>
1

> <PUBCHEM_CONFORMER_ID>
02444DCB00000001

> <PUBCHEM_MMFF94_ENERGY>
73.2096

> <PUBCHEM_FEATURE_SELFOVERLAP>
45.671

> <PUBCHEM_SHAPE_FINGERPRINT>
10864689 126 18341336669485280452
11007060 377 18410012178308352803
11112241 14 18260551108889841387
11410812 94 14548466761172009978
12013929 29 18200318697436346441
12422481 6 17530685385871657901
12645989 146 9006519229092590720
12677640 9 18195247943656739871
12788726 201 17417817179853609384
12925494 130 18411978104629473801
13402501 40 18120086441415924502
13726171 33 18263358265319078464
13944108 23 18127976308722951528
14020679 6 17385733525197236801
14251764 75 18411983554779156240
14347332 77 9223235143478649779
14394314 77 18412833460732143105
14790565 3 18338515210509219729
14840074 17 17822012025110642900
15840311 113 18266465300542662293
19309040 13 18201999945520384310
20691028 202 18411134736182350584
20775438 99 8788876296156818961
21033648 29 17968382247817361531
21585483 110 18337384934089335397
22122407 14 18270408178771778201
23569914 2 17200193163020024328
2747138 104 17827650462646918482
2748736 6 18411972568326932488
3388396 114 16686248696193456836
394071 54 18336833000172913301
469060 322 16733813333040839310
5104073 3 18114454661070117786
56638632 10 18409439315470835429
5718773 13 9151177536887934464

> <PUBCHEM_SHAPE_MULTIPOLES>
625.99
17.95
5.25
1.45
6.26
0.19
0.78
-22.89
-4.58
0.47
-1.47
-1.55
-0.47
0.13

> <PUBCHEM_SHAPE_SELFOVERLAP>
1318.037

> <PUBCHEM_SHAPE_VOLUME>
353.1

> <PUBCHEM_COORDINATE_TYPE>
2
5
10

$$$$
