75536637
  -OEChem-12032416313D

 49 51  0     1  0  0  0  0  0999 V2000
   -7.7517    1.9998    0.6887 F   0  0  0  0  0  0  0  0  0  0  0  0
   -7.5302   -0.1632    0.6508 F   0  0  0  0  0  0  0  0  0  0  0  0
    8.2779    2.1713   -0.1005 F   0  0  0  0  0  0  0  0  0  0  0  0
    0.2355    0.2352   -1.0140 O   0  0  0  0  0  0  0  0  0  0  0  0
   -1.0593   -2.4616    0.9750 O   0  0  0  0  0  0  0  0  0  0  0  0
    3.4836   -1.6276    1.4325 O   0  0  0  0  0  0  0  0  0  0  0  0
   -3.2076   -0.8956   -0.7009 N   0  0  0  0  0  0  0  0  0  0  0  0
    2.8099   -1.0080   -0.6994 N   0  0  0  0  0  0  0  0  0  0  0  0
   -4.1817    0.1546   -0.4092 C   0  0  0  0  0  0  0  0  0  0  0  0
   -1.8828   -0.5116   -0.2413 C   0  0  1  0  0  0  0  0  0  0  0  0
   -0.8998   -1.6662   -0.1836 C   0  0  1  0  0  0  0  0  0  0  0  0
   -5.3812    0.0292   -1.3566 C   0  0  0  0  0  0  0  0  0  0  0  0
   -4.6205    0.0645    1.0575 C   0  0  0  0  0  0  0  0  0  0  0  0
    0.4281   -0.9211   -0.1822 C   0  0  1  0  0  0  0  0  0  0  0  0
   -1.1770    0.4368   -1.1966 C   0  0  0  0  0  0  0  0  0  0  0  0
   -6.4541    1.0677   -1.0343 C   0  0  0  0  0  0  0  0  0  0  0  0
   -5.6930    1.1032    1.3809 C   0  0  0  0  0  0  0  0  0  0  0  0
   -6.8704    1.0030    0.4257 C   0  0  0  0  0  0  0  0  0  0  0  0
    1.5826   -1.7505   -0.7157 C   0  0  0  0  0  0  0  0  0  0  0  0
    3.6751   -1.0064    0.3905 C   0  0  0  0  0  0  0  0  0  0  0  0
    4.8927   -0.1651    0.2605 C   0  0  0  0  0  0  0  0  0  0  0  0
    5.5050    0.3562    1.4003 C   0  0  0  0  0  0  0  0  0  0  0  0
    5.4240    0.1031   -1.0010 C   0  0  0  0  0  0  0  0  0  0  0  0
    6.6483    1.1457    1.2786 C   0  0  0  0  0  0  0  0  0  0  0  0
    6.5673    0.8927   -1.1228 C   0  0  0  0  0  0  0  0  0  0  0  0
    7.1794    1.4140    0.0170 C   0  0  0  0  0  0  0  0  0  0  0  0
   -3.7434    1.1456   -0.5875 H   0  0  0  0  0  0  0  0  0  0  0  0
   -1.9191   -0.0654    0.7601 H   0  0  0  0  0  0  0  0  0  0  0  0
   -0.9922   -2.3080   -1.0686 H   0  0  0  0  0  0  0  0  0  0  0  0
   -5.8196   -0.9747   -1.2800 H   0  0  0  0  0  0  0  0  0  0  0  0
   -5.0567    0.1551   -2.3969 H   0  0  0  0  0  0  0  0  0  0  0  0
   -3.7807    0.2186    1.7431 H   0  0  0  0  0  0  0  0  0  0  0  0
   -5.0215   -0.9354    1.2715 H   0  0  0  0  0  0  0  0  0  0  0  0
   -3.4944   -1.7684   -0.2590 H   0  0  0  0  0  0  0  0  0  0  0  0
    0.6704   -0.5611    0.8264 H   0  0  0  0  0  0  0  0  0  0  0  0
   -1.4014    0.2140   -2.2462 H   0  0  0  0  0  0  0  0  0  0  0  0
   -1.4176    1.4873   -1.0084 H   0  0  0  0  0  0  0  0  0  0  0  0
   -6.0843    2.0734   -1.2677 H   0  0  0  0  0  0  0  0  0  0  0  0
   -7.3282    0.8977   -1.6730 H   0  0  0  0  0  0  0  0  0  0  0  0
   -5.2645    2.1116    1.3335 H   0  0  0  0  0  0  0  0  0  0  0  0
   -6.0425    0.9575    2.4094 H   0  0  0  0  0  0  0  0  0  0  0  0
    1.4063   -2.0285   -1.7606 H   0  0  0  0  0  0  0  0  0  0  0  0
    1.7039   -2.6669   -0.1282 H   0  0  0  0  0  0  0  0  0  0  0  0
   -0.9792   -1.8862    1.7546 H   0  0  0  0  0  0  0  0  0  0  0  0
    2.9937   -0.4164   -1.5025 H   0  0  0  0  0  0  0  0  0  0  0  0
    5.1040    0.1622    2.3917 H   0  0  0  0  0  0  0  0  0  0  0  0
    4.9968   -0.3081   -1.9107 H   0  0  0  0  0  0  0  0  0  0  0  0
    7.1249    1.5526    2.1656 H   0  0  0  0  0  0  0  0  0  0  0  0
    6.9856    1.0964   -2.1041 H   0  0  0  0  0  0  0  0  0  0  0  0
  1 18  1  0  0  0  0
  2 18  1  0  0  0  0
  3 26  1  0  0  0  0
  4 14  1  0  0  0  0
  4 15  1  0  0  0  0
  5 11  1  0  0  0  0
  5 44  1  0  0  0  0
  6 20  2  0  0  0  0
  7  9  1  0  0  0  0
  7 10  1  0  0  0  0
  7 34  1  0  0  0  0
  8 19  1  0  0  0  0
  8 20  1  0  0  0  0
  8 45  1  0  0  0  0
  9 12  1  0  0  0  0
  9 13  1  0  0  0  0
  9 27  1  0  0  0  0
 10 11  1  0  0  0  0
 10 15  1  0  0  0  0
 10 28  1  0  0  0  0
 11 14  1  0  0  0  0
 11 29  1  0  0  0  0
 12 16  1  0  0  0  0
 12 30  1  0  0  0  0
 12 31  1  0  0  0  0
 13 17  1  0  0  0  0
 13 32  1  0  0  0  0
 13 33  1  0  0  0  0
 14 19  1  0  0  0  0
 14 35  1  0  0  0  0
 15 36  1  0  0  0  0
 15 37  1  0  0  0  0
 16 18  1  0  0  0  0
 16 38  1  0  0  0  0
 16 39  1  0  0  0  0
 17 18  1  0  0  0  0
 17 40  1  0  0  0  0
 17 41  1  0  0  0  0
 19 42  1  0  0  0  0
 19 43  1  0  0  0  0
 20 21  1  0  0  0  0
 21 22  2  0  0  0  0
 21 23  1  0  0  0  0
 22 24  1  0  0  0  0
 22 46  1  0  0  0  0
 23 25  2  0  0  0  0
 23 47  1  0  0  0  0
 24 26  2  0  0  0  0
 24 48  1  0  0  0  0
 25 26  1  0  0  0  0
 25 49  1  0  0  0  0
M  END
> <PUBCHEM_COMPOUND_CID>
75536637

> <PUBCHEM_CONFORMER_RMSD>
1

> <PUBCHEM_CONFORMER_DIVERSEORDER>
1
36
28
15
58
64
61
49
16
66
75
56
39
22
23
37
71
41
73
31
44
50
32
54
45
26
60
74
21
14
40
76
13
72
20
12
67
47
33
65
59
24
57
18
5
30
48
69
8
62
11
70
52
35
42
43
55
46
27
34
63
68
7
3
17
38
25
10
19
29
51
9
2
6
4
53

> <PUBCHEM_MMFF94_PARTIAL_CHARGES>
29
1 -0.34
10 0.27
11 0.28
14 0.28
15 0.28
18 0.68
19 0.3
2 -0.34
20 0.54
21 0.09
22 -0.15
23 -0.15
24 -0.15
25 -0.15
26 0.19
3 -0.19
34 0.36
4 -0.56
44 0.4
45 0.37
46 0.15
47 0.15
48 0.15
49 0.15
5 -0.68
6 -0.57
7 -0.9
8 -0.73
9 0.27

> <PUBCHEM_EFFECTIVE_ROTOR_COUNT>
8.2

> <PUBCHEM_PHARMACOPHORE_FEATURES>
10
1 4 acceptor
1 5 acceptor
1 5 donor
1 6 acceptor
1 7 cation
1 7 donor
1 8 donor
5 4 10 11 14 15 rings
6 21 22 23 24 25 26 rings
6 9 12 13 16 17 18 rings

> <PUBCHEM_HEAVY_ATOM_COUNT>
26

> <PUBCHEM_ATOM_DEF_STEREO_COUNT>
3

> <PUBCHEM_ATOM_UDEF_STEREO_COUNT>
0

> <PUBCHEM_BOND_DEF_STEREO_COUNT>
0

> <PUBCHEM_BOND_UDEF_STEREO_COUNT>
0

> <PUBCHEM_ISOTOPIC_ATOM_COUNT>
0

> <PUBCHEM_COMPONENT_COUNT>
1

> <PUBCHEM_CACTVS_TAUTO_COUNT>
2

> <PUBCHEM_CONFORMER_ID>
048098FD00000001

> <PUBCHEM_MMFF94_ENERGY>
48.6426

> <PUBCHEM_FEATURE_SELFOVERLAP>
50.747

> <PUBCHEM_SHAPE_FINGERPRINT>
10 15 17458346342262858078
106641 1 18186524328350232867
10670039 82 14476969960423226179
10906281 52 18409456894391747374
11315181 36 18413386541503799983
11991303 11 13973669659644755861
12166972 35 13542458795558545562
125118 31 18338516335485189869
12760667 363 9151176462703057582
13533116 47 18340204073334240906
13540713 5 17243595361907507366
13668630 136 9367342630941706061
13673619 4 8430317935288518110
13685833 64 11530481129961603854
13782708 43 8214141854359879886
13862211 1 8862942779489701310
14251764 18 18186802500122604807
14347332 77 10375603589779355162
14556957 393 13973696069245139250
14849402 71 18411139169053083433
14933364 13 16988844981756124597
15048467 5 18272369767307512455
15183329 4 14117524237768065018
15188451 53 11097848597699804342
15419008 91 11098131257365816111
15461852 350 16845564328366582365
15706992 2 18272664458362894785
1577012 14 18060132124978609695
16994733 274 18342736282893139657
17093844 174 16443060579131862037
1768 124 12324232859325899960
1768 4 18413113883272275177
17980427 23 18114742749937709894
190975 80 16443068326160762587
2026 5 7997972362729875353
20281389 69 18412823555898273753
21033648 29 18058718235040871890
21130935 74 18041563525665301915
21150785 3 15769775762389788909
21424621 283 18342462495934184107
21637258 2 11746939793456695207
221357 26 15123511411249924338
22224240 67 18114181926219725235
23035841 295 7925907085179148253
23081809 10 17988066821316493935
23569943 247 8718561518401615357
23576562 1 15410026587970141681
24771293 8 18335419084159520749
3004659 81 12823292395058483182
3383291 50 10737289043163641989
4073 2 18342460348393280527
4340502 62 16370723717108044754
4403749 210 18186519909151145427
445580 37 16630812088830581561
5718773 13 8574444123276499512
5758199 1 18411139126097615939
59682541 35 17676492773776968137
59682541 52 14692576516235347084
59755656 215 11887957644165494156
6438161 24 9943806669179876396
9689198 14 18131073739940595745

> <PUBCHEM_SHAPE_MULTIPOLES>
485.68
25.01
1.82
1.37
0.42
0.22
-0.11
-17.97
-2.5
0.77
-0.33
0.03
-0.09
-0.57

> <PUBCHEM_SHAPE_SELFOVERLAP>
1023.774

> <PUBCHEM_SHAPE_VOLUME>
274.7

> <PUBCHEM_COORDINATE_TYPE>
2
5
10

$$$$
