51136741
  -OEChem-12032416143D

 59 61  0     1  0  0  0  0  0999 V2000
   -4.4978   -1.1022   -0.6569 O   0  0  0  0  0  0  0  0  0  0  0  0
    2.8845   -4.6806   -0.6079 O   0  0  0  0  0  0  0  0  0  0  0  0
    1.1115   -5.1462    0.7412 O   0  0  0  0  0  0  0  0  0  0  0  0
   -2.5238   -1.2507    0.5506 N   0  0  0  0  0  0  0  0  0  0  0  0
   -0.4941    2.0865   -0.1399 N   0  0  0  0  0  0  0  0  0  0  0  0
   -3.5700    0.8319    0.1535 N   0  0  0  0  0  0  0  0  0  0  0  0
   -0.0598   -0.9981    0.6505 C   0  0  2  0  0  0  0  0  0  0  0  0
    0.0701   -2.5314    0.4514 C   0  0  1  0  0  0  0  0  0  0  0  0
   -1.1545   -3.1194   -0.2729 C   0  0  0  0  0  0  0  0  0  0  0  0
   -1.4084   -0.6773    1.3177 C   0  0  0  0  0  0  0  0  0  0  0  0
   -2.4588   -2.7057    0.4071 C   0  0  0  0  0  0  0  0  0  0  0  0
    0.1066   -0.1847   -0.6384 C   0  0  0  0  0  0  0  0  0  0  0  0
    1.3618   -2.9370   -0.2579 C   0  0  0  0  0  0  0  0  0  0  0  0
    0.4699    1.2415   -0.3020 C   0  0  0  0  0  0  0  0  0  0  0  0
   -3.5935   -0.5460   -0.0247 C   0  0  0  0  0  0  0  0  0  0  0  0
    1.9047    1.6014   -0.1675 C   0  0  0  0  0  0  0  0  0  0  0  0
    1.7317   -4.3646    0.0360 C   0  0  0  0  0  0  0  0  0  0  0  0
    2.1955    2.7930    0.5088 C   0  0  0  0  0  0  0  0  0  0  0  0
    1.0604    3.6062    1.0564 C   0  0  0  0  0  0  0  0  0  0  0  0
   -0.1397    3.4847    0.1267 C   0  0  0  0  0  0  0  0  0  0  0  0
    2.9339    0.8021   -0.6684 C   0  0  0  0  0  0  0  0  0  0  0  0
   -4.5966    1.6949   -0.3866 C   0  0  0  0  0  0  0  0  0  0  0  0
    3.5276    3.1678    0.7046 C   0  0  0  0  0  0  0  0  0  0  0  0
    4.2607    1.1928   -0.4821 C   0  0  0  0  0  0  0  0  0  0  0  0
    4.5573    2.3703    0.2049 C   0  0  0  0  0  0  0  0  0  0  0  0
   -4.2386    2.1202   -1.8048 C   0  0  0  0  0  0  0  0  0  0  0  0
   -4.8077    2.9043    0.5158 C   0  0  0  0  0  0  0  0  0  0  0  0
    5.3671    0.3461   -1.0152 C   0  0  0  0  0  0  0  0  0  0  0  0
    0.7301   -0.6988    1.3537 H   0  0  0  0  0  0  0  0  0  0  0  0
    0.0810   -2.9648    1.4626 H   0  0  0  0  0  0  0  0  0  0  0  0
   -1.1688   -2.7702   -1.3134 H   0  0  0  0  0  0  0  0  0  0  0  0
   -1.1037   -4.2130   -0.3063 H   0  0  0  0  0  0  0  0  0  0  0  0
   -1.5177    0.3861    1.5182 H   0  0  0  0  0  0  0  0  0  0  0  0
   -1.4416   -1.1547    2.3064 H   0  0  0  0  0  0  0  0  0  0  0  0
   -2.5246   -3.1416    1.4110 H   0  0  0  0  0  0  0  0  0  0  0  0
   -3.3090   -3.0842   -0.1686 H   0  0  0  0  0  0  0  0  0  0  0  0
   -0.8259   -0.1688   -1.2167 H   0  0  0  0  0  0  0  0  0  0  0  0
    0.8340   -0.6201   -1.3201 H   0  0  0  0  0  0  0  0  0  0  0  0
    1.2715   -2.8230   -1.3436 H   0  0  0  0  0  0  0  0  0  0  0  0
    2.1905   -2.3154    0.1007 H   0  0  0  0  0  0  0  0  0  0  0  0
    1.3435    4.6607    1.1482 H   0  0  0  0  0  0  0  0  0  0  0  0
    0.8098    3.2326    2.0565 H   0  0  0  0  0  0  0  0  0  0  0  0
    0.0498    3.9921   -0.8275 H   0  0  0  0  0  0  0  0  0  0  0  0
   -1.0015    3.9810    0.5862 H   0  0  0  0  0  0  0  0  0  0  0  0
   -2.7532    1.2921    0.5307 H   0  0  0  0  0  0  0  0  0  0  0  0
    2.7478   -0.1181   -1.2086 H   0  0  0  0  0  0  0  0  0  0  0  0
   -5.5368    1.1317   -0.4247 H   0  0  0  0  0  0  0  0  0  0  0  0
    3.7707    4.0794    1.2438 H   0  0  0  0  0  0  0  0  0  0  0  0
    3.1560   -5.6078   -0.4379 H   0  0  0  0  0  0  0  0  0  0  0  0
    5.5883    2.6768    0.3613 H   0  0  0  0  0  0  0  0  0  0  0  0
   -5.0194    2.7583   -2.2312 H   0  0  0  0  0  0  0  0  0  0  0  0
   -4.1206    1.2490   -2.4583 H   0  0  0  0  0  0  0  0  0  0  0  0
   -3.2943    2.6760   -1.8255 H   0  0  0  0  0  0  0  0  0  0  0  0
   -5.6073    3.5458    0.1312 H   0  0  0  0  0  0  0  0  0  0  0  0
   -5.0825    2.5891    1.5283 H   0  0  0  0  0  0  0  0  0  0  0  0
   -3.8951    3.5059    0.5947 H   0  0  0  0  0  0  0  0  0  0  0  0
    5.5779   -0.4755   -0.3233 H   0  0  0  0  0  0  0  0  0  0  0  0
    5.1022   -0.0728   -1.9919 H   0  0  0  0  0  0  0  0  0  0  0  0
    6.2852    0.9271   -1.1541 H   0  0  0  0  0  0  0  0  0  0  0  0
  1 15  2  0  0  0  0
  2 17  1  0  0  0  0
  2 49  1  0  0  0  0
  3 17  2  0  0  0  0
  4 10  1  0  0  0  0
  4 11  1  0  0  0  0
  4 15  1  0  0  0  0
  5 14  2  0  0  0  0
  5 20  1  0  0  0  0
  6 15  1  0  0  0  0
  6 22  1  0  0  0  0
  6 45  1  0  0  0  0
  7  8  1  0  0  0  0
  7 10  1  0  0  0  0
  7 12  1  0  0  0  0
  7 29  1  0  0  0  0
  8  9  1  0  0  0  0
  8 13  1  0  0  0  0
  8 30  1  0  0  0  0
  9 11  1  0  0  0  0
  9 31  1  0  0  0  0
  9 32  1  0  0  0  0
 10 33  1  0  0  0  0
 10 34  1  0  0  0  0
 11 35  1  0  0  0  0
 11 36  1  0  0  0  0
 12 14  1  0  0  0  0
 12 37  1  0  0  0  0
 12 38  1  0  0  0  0
 13 17  1  0  0  0  0
 13 39  1  0  0  0  0
 13 40  1  0  0  0  0
 14 16  1  0  0  0  0
 16 18  2  0  0  0  0
 16 21  1  0  0  0  0
 18 19  1  0  0  0  0
 18 23  1  0  0  0  0
 19 20  1  0  0  0  0
 19 41  1  0  0  0  0
 19 42  1  0  0  0  0
 20 43  1  0  0  0  0
 20 44  1  0  0  0  0
 21 24  2  0  0  0  0
 21 46  1  0  0  0  0
 22 26  1  0  0  0  0
 22 27  1  0  0  0  0
 22 47  1  0  0  0  0
 23 25  2  0  0  0  0
 23 48  1  0  0  0  0
 24 25  1  0  0  0  0
 24 28  1  0  0  0  0
 25 50  1  0  0  0  0
 26 51  1  0  0  0  0
 26 52  1  0  0  0  0
 26 53  1  0  0  0  0
 27 54  1  0  0  0  0
 27 55  1  0  0  0  0
 27 56  1  0  0  0  0
 28 57  1  0  0  0  0
 28 58  1  0  0  0  0
 28 59  1  0  0  0  0
M  END
> <PUBCHEM_COMPOUND_CID>
51136741

> <PUBCHEM_CONFORMER_RMSD>
1

> <PUBCHEM_CONFORMER_DIVERSEORDER>
1
11
157
18
23
43
96
70
105
74
77
61
154
113
2
52
148
136
130
67
99
109
132
5
146
78
19
42
76
4
81
13
87
53
60
102
41
137
156
100
89
85
138
155
159
59
34
120
14
97
106
90
71
140
143
119
116
158
139
6
129
145
128
15
30
65
56
135
112
121
84
86
68
39
46
123
17
93
103
8
47
107
133
20
44
24
142
7
64
12
45
126
38
49
83
29
94
98
72
117
10
79
134
152
16
122
51
111
55
153
101
69
104
144
3
32
88
95
115
9
25
22
37
150
149
108
114
50
110
80
62
127
141
73
36
131
118
66
27
35
48
151
58
124
40
147
125
33
57
92
31
91
63
82
75
26
28
54
21

> <PUBCHEM_MMFF94_PARTIAL_CHARGES>
28
1 -0.57
10 0.3
11 0.3
12 0.06
13 0.06
14 0.3
15 0.69
16 0.09
17 0.66
18 -0.14
19 0.14
2 -0.65
20 0.25
21 -0.15
22 0.3
23 -0.15
24 -0.14
25 -0.15
28 0.14
3 -0.57
4 -0.66
45 0.37
46 0.15
48 0.15
49 0.5
5 -0.7
50 0.15
6 -0.73

> <PUBCHEM_EFFECTIVE_ROTOR_COUNT>
8.6

> <PUBCHEM_PHARMACOPHORE_FEATURES>
10
1 1 acceptor
1 2 acceptor
1 3 acceptor
1 5 acceptor
1 6 donor
3 2 3 17 anion
3 22 26 27 hydrophobe
6 16 18 21 23 24 25 rings
6 4 7 8 9 10 11 rings
6 5 14 16 18 19 20 rings

> <PUBCHEM_HEAVY_ATOM_COUNT>
28

> <PUBCHEM_ATOM_DEF_STEREO_COUNT>
2

> <PUBCHEM_ATOM_UDEF_STEREO_COUNT>
0

> <PUBCHEM_BOND_DEF_STEREO_COUNT>
0

> <PUBCHEM_BOND_UDEF_STEREO_COUNT>
0

> <PUBCHEM_ISOTOPIC_ATOM_COUNT>
0

> <PUBCHEM_COMPONENT_COUNT>
1

> <PUBCHEM_CACTVS_TAUTO_COUNT>
2

> <PUBCHEM_CONFORMER_ID>
030C48E500000001

> <PUBCHEM_MMFF94_ENERGY>
62.9912

> <PUBCHEM_FEATURE_SELFOVERLAP>
50.828

> <PUBCHEM_SHAPE_FINGERPRINT>
10411042 1 17617940232066159811
10940486 97 17756993672603712828
1100329 8 17402334771887040520
12403259 226 17908146830039032273
12422481 6 17897420870888030848
12788726 201 17546749057127223407
13140716 1 18410290320152876362
13642711 20 18411975836955086582
13690498 29 17255986974665284796
138480 1 18050284769585092339
14178342 30 17259332797059537112
14251757 5 17831881396617575036
14466204 15 18411132571708581688
14790565 3 18337678610899465444
15927050 60 18412546492438694671
17492 89 16897929965229556434
19591789 44 18338236076084035036
20028762 73 18055352706794197327
20642791 35 18194692462367305022
21033648 29 18198336462655105801
21279426 13 18411422791381229332
21796203 349 17044056730559311401
23559900 14 18195522602019965090
3298306 158 18410856559877342254
5265222 85 18117578403579541308
532947 4 18412270514846413254
5385378 56 18338806624066945841
59755656 215 18409448111789937645
79837 15 18119534477266829475
9709674 26 17477774940997522446
9981440 41 18337104687414814643

> <PUBCHEM_SHAPE_MULTIPOLES>
543.68
9.08
6.79
1.04
1
7.62
-0.12
-7.14
-2.16
-1.99
0.9
0.29
-0.33
1.27

> <PUBCHEM_SHAPE_SELFOVERLAP>
1134.961

> <PUBCHEM_SHAPE_VOLUME>
306.7

> <PUBCHEM_COORDINATE_TYPE>
2
5
10

$$$$
