71693898
  -OEChem-12032416293D

 46 48  0     1  0  0  0  0  0999 V2000
    1.1287    4.0930   -1.0226 O   0  0  0  0  0  0  0  0  0  0  0  0
    3.6222    2.9515   -0.8856 O   0  0  0  0  0  0  0  0  0  0  0  0
   -0.6232   -0.1669   -1.2861 O   0  0  0  0  0  0  0  0  0  0  0  0
    3.2626   -4.1606   -0.6183 O   0  0  0  0  0  0  0  0  0  0  0  0
   -0.3814    1.6443    0.1425 N   0  0  0  0  0  0  0  0  0  0  0  0
   -5.8791   -2.9244   -0.1578 N   0  0  0  0  0  0  0  0  0  0  0  0
    1.8856    1.0978    0.9773 C   0  0  2  0  0  0  0  0  0  0  0  0
    1.0297    1.8429   -0.0717 C   0  0  2  0  0  0  0  0  0  0  0  0
    1.4344    3.3048    0.1122 C   0  0  1  0  0  0  0  0  0  0  0  0
    3.1006    2.0182    1.2621 C   0  0  0  0  0  0  0  0  0  0  0  0
    2.9397    3.2214    0.3351 C   0  0  1  0  0  0  0  0  0  0  0  0
    2.2541   -0.3076    0.5510 C   0  0  0  0  0  0  0  0  0  0  0  0
    1.8590   -1.3978    1.3265 C   0  0  0  0  0  0  0  0  0  0  0  0
    2.9885   -0.5122   -0.6172 C   0  0  0  0  0  0  0  0  0  0  0  0
   -1.1001    0.6404   -0.4927 C   0  0  0  0  0  0  0  0  0  0  0  0
    2.1978   -2.6926    0.9336 C   0  0  0  0  0  0  0  0  0  0  0  0
    3.3276   -1.8070   -1.0099 C   0  0  0  0  0  0  0  0  0  0  0  0
    2.9323   -2.8972   -0.2347 C   0  0  0  0  0  0  0  0  0  0  0  0
   -2.5524    0.5847   -0.1853 C   0  0  0  0  0  0  0  0  0  0  0  0
   -3.2395   -0.6257   -0.2779 C   0  0  0  0  0  0  0  0  0  0  0  0
   -3.2293    1.7435    0.1956 C   0  0  0  0  0  0  0  0  0  0  0  0
   -4.6033   -0.6774    0.0102 C   0  0  0  0  0  0  0  0  0  0  0  0
   -4.5931    1.6917    0.4841 C   0  0  0  0  0  0  0  0  0  0  0  0
   -5.2801    0.4813    0.3912 C   0  0  0  0  0  0  0  0  0  0  0  0
    2.8258   -5.2288    0.2209 C   0  0  0  0  0  0  0  0  0  0  0  0
   -5.3072   -1.9173   -0.0825 C   0  0  0  0  0  0  0  0  0  0  0  0
    1.3155    1.0307    1.9157 H   0  0  0  0  0  0  0  0  0  0  0  0
    1.2554    1.5297   -1.0985 H   0  0  0  0  0  0  0  0  0  0  0  0
    0.9386    3.7419    0.9882 H   0  0  0  0  0  0  0  0  0  0  0  0
    3.0403    2.3565    2.3042 H   0  0  0  0  0  0  0  0  0  0  0  0
    4.0635    1.5127    1.1335 H   0  0  0  0  0  0  0  0  0  0  0  0
    3.3499    4.1453    0.7536 H   0  0  0  0  0  0  0  0  0  0  0  0
   -0.8243    2.2120    0.8575 H   0  0  0  0  0  0  0  0  0  0  0  0
    1.4976    4.9797   -0.8700 H   0  0  0  0  0  0  0  0  0  0  0  0
    4.5689    2.8696   -0.6790 H   0  0  0  0  0  0  0  0  0  0  0  0
    1.2856   -1.2540    2.2384 H   0  0  0  0  0  0  0  0  0  0  0  0
    3.3105    0.3198   -1.2356 H   0  0  0  0  0  0  0  0  0  0  0  0
    1.8584   -3.4933    1.5817 H   0  0  0  0  0  0  0  0  0  0  0  0
    3.9003   -1.9603   -1.9205 H   0  0  0  0  0  0  0  0  0  0  0  0
   -2.7138   -1.5327   -0.5698 H   0  0  0  0  0  0  0  0  0  0  0  0
   -2.7382    2.7105    0.2509 H   0  0  0  0  0  0  0  0  0  0  0  0
   -5.1218    2.5950    0.7743 H   0  0  0  0  0  0  0  0  0  0  0  0
   -6.3434    0.4574    0.6180 H   0  0  0  0  0  0  0  0  0  0  0  0
    3.1756   -6.1612   -0.2344 H   0  0  0  0  0  0  0  0  0  0  0  0
    1.7328   -5.2850    0.2647 H   0  0  0  0  0  0  0  0  0  0  0  0
    3.2788   -5.1696    1.2164 H   0  0  0  0  0  0  0  0  0  0  0  0
  1  9  1  0  0  0  0
  1 34  1  0  0  0  0
  2 11  1  0  0  0  0
  2 35  1  0  0  0  0
  3 15  2  0  0  0  0
  4 18  1  0  0  0  0
  4 25  1  0  0  0  0
  5  8  1  0  0  0  0
  5 15  1  0  0  0  0
  5 33  1  0  0  0  0
  6 26  3  0  0  0  0
  7  8  1  0  0  0  0
  7 10  1  0  0  0  0
  7 12  1  0  0  0  0
  7 27  1  0  0  0  0
  8  9  1  0  0  0  0
  8 28  1  0  0  0  0
  9 11  1  0  0  0  0
  9 29  1  0  0  0  0
 10 11  1  0  0  0  0
 10 30  1  0  0  0  0
 10 31  1  0  0  0  0
 11 32  1  0  0  0  0
 12 13  2  0  0  0  0
 12 14  1  0  0  0  0
 13 16  1  0  0  0  0
 13 36  1  0  0  0  0
 14 17  2  0  0  0  0
 14 37  1  0  0  0  0
 15 19  1  0  0  0  0
 16 18  2  0  0  0  0
 16 38  1  0  0  0  0
 17 18  1  0  0  0  0
 17 39  1  0  0  0  0
 19 20  1  0  0  0  0
 19 21  2  0  0  0  0
 20 22  2  0  0  0  0
 20 40  1  0  0  0  0
 21 23  1  0  0  0  0
 21 41  1  0  0  0  0
 22 24  1  0  0  0  0
 22 26  1  0  0  0  0
 23 24  2  0  0  0  0
 23 42  1  0  0  0  0
 24 43  1  0  0  0  0
 25 44  1  0  0  0  0
 25 45  1  0  0  0  0
 25 46  1  0  0  0  0
M  END
> <PUBCHEM_COMPOUND_CID>
71693898

> <PUBCHEM_CONFORMER_RMSD>
0.8

> <PUBCHEM_CONFORMER_DIVERSEORDER>
5
40
14
21
43
47
7
32
36
22
18
1
48
44
34
11
49
33
31
12
45
2
46
30
38
26
15
6
29
42
23
27
24
17
41
4
19
39
50
3
35
16
28
9
13
8
37
20
25
10

> <PUBCHEM_MMFF94_PARTIAL_CHARGES>
36
1 -0.68
11 0.28
12 -0.14
13 -0.15
14 -0.15
15 0.54
16 -0.15
17 -0.15
18 0.08
19 0.09
2 -0.68
20 -0.15
21 -0.15
22 0.07
23 -0.15
24 -0.15
25 0.28
26 0.48
3 -0.57
33 0.37
34 0.4
35 0.4
36 0.15
37 0.15
38 0.15
39 0.15
4 -0.36
40 0.15
41 0.15
42 0.15
43 0.15
5 -0.73
6 -0.56
7 0.14
8 0.3
9 0.28

> <PUBCHEM_EFFECTIVE_ROTOR_COUNT>
6

> <PUBCHEM_PHARMACOPHORE_FEATURES>
11
1 1 acceptor
1 1 donor
1 2 acceptor
1 2 donor
1 3 acceptor
1 4 acceptor
1 5 donor
1 6 acceptor
5 7 8 9 10 11 rings
6 12 13 14 16 17 18 rings
6 19 20 21 22 23 24 rings

> <PUBCHEM_HEAVY_ATOM_COUNT>
26

> <PUBCHEM_ATOM_DEF_STEREO_COUNT>
4

> <PUBCHEM_ATOM_UDEF_STEREO_COUNT>
0

> <PUBCHEM_BOND_DEF_STEREO_COUNT>
0

> <PUBCHEM_BOND_UDEF_STEREO_COUNT>
0

> <PUBCHEM_ISOTOPIC_ATOM_COUNT>
0

> <PUBCHEM_COMPONENT_COUNT>
1

> <PUBCHEM_CACTVS_TAUTO_COUNT>
2

> <PUBCHEM_CONFORMER_ID>
0445F64A00000005

> <PUBCHEM_MMFF94_ENERGY>
81.2836

> <PUBCHEM_FEATURE_SELFOVERLAP>
55.834

> <PUBCHEM_SHAPE_FINGERPRINT>
10928967 22 18043815286571054451
11405975 8 18343305830211726345
11421498 54 18059017301307543233
114674 6 18333447655426676443
12107183 9 18054800481679816105
12293681 25 17903887017108768828
12553582 1 18122053209160362322
12788726 201 17541386734844898426
12969540 37 18409445856420482078
13533116 47 18341610443542814083
13583140 156 17845356899606543481
13692114 37 17836636792755099506
138480 1 18338796698144128426
14863182 85 18337951315705639580
15042514 8 17331682349740932008
15250474 111 18270952574872915519
17492 89 18412824694782428235
17818456 19 17845097264501668713
17859628 70 18411419539848373283
1813 80 18056204561732238894
19319366 153 17983568890903132797
20028762 73 18124873718520622574
20286276 3 18410577258602495441
20567600 347 18189614024274261736
20645477 70 18335977670668761761
21033648 29 15767795396072354419
21065198 57 18340486673718477025
21197605 99 17831299772025629059
22950370 63 18195253208632932791
23379529 103 17837778824459444150
23559900 14 18341041922700467801
3117164 225 18270128886197772409
314173 41 18267306421804166838
3421961 26 18341047415594276808
4409770 3 17182218020026329869
5104073 3 18202288009419921713
6442390 28 18051410970239827072
7097593 13 18341887498507917493
7970288 3 17978792311518419059
8272917 22 18337111262741082545
9709674 26 18335140938309835507

> <PUBCHEM_SHAPE_MULTIPOLES>
501.63
10.71
5.88
1.03
17.7
3.22
0.06
6.46
0.21
-7.47
-0.41
-0.74
-0.09
-0.12

> <PUBCHEM_SHAPE_SELFOVERLAP>
1079.253

> <PUBCHEM_SHAPE_VOLUME>
274.8

> <PUBCHEM_COORDINATE_TYPE>
2
5
10

$$$$
