11883271
  -OEChem-12032416353D

 33 34  0     1  0  0  0  0  0999 V2000
    0.1754    0.3739   -1.0688 O   0  0  0  0  0  0  0  0  0  0  0  0
   -0.8183   -2.1852    0.2976 O   0  0  0  0  0  0  0  0  0  0  0  0
    2.4307   -0.6828    0.1573 O   0  0  0  0  0  0  0  0  0  0  0  0
   -4.7659   -0.2481    0.3872 O   0  0  0  0  0  0  0  0  0  0  0  0
    4.8435    0.0613   -0.7594 O   0  0  0  0  0  0  0  0  0  0  0  0
   -2.8155    0.8354   -0.2789 N   0  0  0  0  0  0  0  0  0  0  0  0
    4.8660    1.9829    0.5065 N   0  0  0  0  0  0  0  0  0  0  0  0
   -1.1768   -0.8003    0.4855 C   0  0  1  0  0  0  0  0  0  0  0  0
    0.0937    0.0089    0.3191 C   0  0  1  0  0  0  0  0  0  0  0  0
   -2.0556   -0.3329   -0.6512 C   0  0  2  0  0  0  0  0  0  0  0  0
    1.1653   -0.9840    0.7006 C   0  0  1  0  0  0  0  0  0  0  0  0
   -1.0389   -0.0095   -1.7324 C   0  0  0  0  0  0  0  0  0  0  0  0
    0.6069   -2.2803    0.1582 C   0  0  0  0  0  0  0  0  0  0  0  0
    2.9543    0.5396    0.6705 C   0  0  0  0  0  0  0  0  0  0  0  0
   -4.1112    0.7759    0.2104 C   0  0  0  0  0  0  0  0  0  0  0  0
   -4.6604    2.1372    0.5439 C   0  0  0  0  0  0  0  0  0  0  0  0
    4.3068    0.8079    0.0539 C   0  0  0  0  0  0  0  0  0  0  0  0
   -1.6246   -0.7053    1.4799 H   0  0  0  0  0  0  0  0  0  0  0  0
    0.0995    0.9292    0.9106 H   0  0  0  0  0  0  0  0  0  0  0  0
   -2.7500   -1.1071   -0.9954 H   0  0  0  0  0  0  0  0  0  0  0  0
    1.2302   -1.0614    1.7943 H   0  0  0  0  0  0  0  0  0  0  0  0
   -0.8113   -0.8972   -2.3329 H   0  0  0  0  0  0  0  0  0  0  0  0
   -1.3515    0.7921   -2.4086 H   0  0  0  0  0  0  0  0  0  0  0  0
    0.8503   -2.4284   -0.8999 H   0  0  0  0  0  0  0  0  0  0  0  0
    0.9720   -3.1526    0.7087 H   0  0  0  0  0  0  0  0  0  0  0  0
   -2.3523    1.7389   -0.3250 H   0  0  0  0  0  0  0  0  0  0  0  0
    2.3030    1.3828    0.4188 H   0  0  0  0  0  0  0  0  0  0  0  0
    3.0696    0.4684    1.7579 H   0  0  0  0  0  0  0  0  0  0  0  0
   -5.7437    2.0738    0.6787 H   0  0  0  0  0  0  0  0  0  0  0  0
   -4.2019    2.4973    1.4689 H   0  0  0  0  0  0  0  0  0  0  0  0
   -4.4504    2.8422   -0.2655 H   0  0  0  0  0  0  0  0  0  0  0  0
    5.7748    2.2898    0.1758 H   0  0  0  0  0  0  0  0  0  0  0  0
    4.3995    2.5818    1.1803 H   0  0  0  0  0  0  0  0  0  0  0  0
  1  9  1  0  0  0  0
  1 12  1  0  0  0  0
  2  8  1  0  0  0  0
  2 13  1  0  0  0  0
  3 11  1  0  0  0  0
  3 14  1  0  0  0  0
  4 15  2  0  0  0  0
  5 17  2  0  0  0  0
  6 10  1  0  0  0  0
  6 15  1  0  0  0  0
  6 26  1  0  0  0  0
  7 17  1  0  0  0  0
  7 32  1  0  0  0  0
  7 33  1  0  0  0  0
  8  9  1  0  0  0  0
  8 10  1  0  0  0  0
  8 18  1  0  0  0  0
  9 11  1  0  0  0  0
  9 19  1  0  0  0  0
 10 12  1  0  0  0  0
 10 20  1  0  0  0  0
 11 13  1  0  0  0  0
 11 21  1  0  0  0  0
 12 22  1  0  0  0  0
 12 23  1  0  0  0  0
 13 24  1  0  0  0  0
 13 25  1  0  0  0  0
 14 17  1  0  0  0  0
 14 27  1  0  0  0  0
 14 28  1  0  0  0  0
 15 16  1  0  0  0  0
 16 29  1  0  0  0  0
 16 30  1  0  0  0  0
 16 31  1  0  0  0  0
M  END
> <PUBCHEM_COMPOUND_CID>
11883271

> <PUBCHEM_CONFORMER_RMSD>
0.8

> <PUBCHEM_CONFORMER_DIVERSEORDER>
1
13
22
35
28
26
36
8
12
30
15
3
20
16
2
31
10
24
37
11
9
27
33
18
21
29
4
5
17
25
6
14
32
34
23
7
19

> <PUBCHEM_MMFF94_PARTIAL_CHARGES>
20
1 -0.56
10 0.3
11 0.28
12 0.28
13 0.28
14 0.34
15 0.57
16 0.06
17 0.57
2 -0.56
26 0.37
3 -0.56
32 0.37
33 0.37
4 -0.57
5 -0.57
6 -0.73
7 -0.8
8 0.28
9 0.28

> <PUBCHEM_EFFECTIVE_ROTOR_COUNT>
6.2

> <PUBCHEM_PHARMACOPHORE_FEATURES>
9
1 1 acceptor
1 2 acceptor
1 3 acceptor
1 4 acceptor
1 5 acceptor
1 6 donor
1 7 donor
5 1 8 9 10 12 rings
5 2 8 9 11 13 rings

> <PUBCHEM_HEAVY_ATOM_COUNT>
17

> <PUBCHEM_ATOM_DEF_STEREO_COUNT>
4

> <PUBCHEM_ATOM_UDEF_STEREO_COUNT>
0

> <PUBCHEM_BOND_DEF_STEREO_COUNT>
0

> <PUBCHEM_BOND_UDEF_STEREO_COUNT>
0

> <PUBCHEM_ISOTOPIC_ATOM_COUNT>
0

> <PUBCHEM_COMPONENT_COUNT>
1

> <PUBCHEM_CACTVS_TAUTO_COUNT>
4

> <PUBCHEM_CONFORMER_ID>
00B5530700000001

> <PUBCHEM_MMFF94_ENERGY>
42.4296

> <PUBCHEM_FEATURE_SELFOVERLAP>
46.4

> <PUBCHEM_SHAPE_FINGERPRINT>
10493431 412 18334857250781343353
10610426 29 11602825696223229551
10922049 32 18272091599540152295
11132069 177 17458347425043139439
11769659 78 11097866172305039873
12173636 292 18339636849618698342
12251169 10 17458065979867234919
12346645 44 18409163290500959683
12390115 104 18339094764299902872
12644460 14 17968373429928094210
14123255 52 18412259527908217184
14787075 74 18412259575754023443
14911166 2 13686295781469768253
14943859 89 18060136548351643747
15209294 21 18335420158122799193
15342168 16 18333453157464047892
15534591 1 18272926146103454263
16945 1 16950279589911002591
17834072 14 9943517522879767988
18186145 218 18339911680507842316
18785283 64 18188487961412441114
19784866 170 18114748131541897069
200 152 10447929472843150112
201361 129 18197777709131943979
20374829 77 10592045743261314089
204376 136 18334573546869755795
20645477 56 18334572490771914116
20645477 70 17060351712553706094
20871999 31 16916491687720079430
21069387 34 9511169794009918653
21501925 9 8502651519682192866
22079108 93 18410852204753967681
22224240 67 18186803599977013907
22713019 99 11672059752816974421
23493267 7 16845569820891281783
23500284 214 18334855047774324568
25 1 18342732996931810826
26918003 58 12757146883442994145
2916195 48 18200868573672524240
293599 30 18411702079908187248
3009799 131 11383830424695168723
347723 3 14549024264389474255
449060 50 18335421244754656927
458136 41 18334854961690901418
4990 188 17917997161328050886
5104073 3 18187650137883233003
633830 44 18199746951663468927
76465 3 9151174250995327440

> <PUBCHEM_SHAPE_MULTIPOLES>
310.54
9.59
1.93
1.02
2.01
0.26
0.37
-7.17
-1.16
-0.04
-0.45
-0.11
-0.02
-0.12

> <PUBCHEM_SHAPE_SELFOVERLAP>
641.402

> <PUBCHEM_SHAPE_VOLUME>
178.7

> <PUBCHEM_COORDINATE_TYPE>
2
5
10

$$$$
