38027463
  -OEChem-12032416263D

 66 67  0     1  0  0  0  0  0999 V2000
    3.1378    1.6516   -0.8754 O   0  0  0  0  0  0  0  0  0  0  0  0
   -3.2741   -0.7388    2.1179 O   0  0  0  0  0  0  0  0  0  0  0  0
   -3.1988    0.2920    0.0400 N   0  0  0  0  0  0  0  0  0  0  0  0
    2.8775   -0.6245   -1.2663 N   0  0  0  0  0  0  0  0  0  0  0  0
    5.8787   -1.7827    0.6100 N   0  0  0  0  0  0  0  0  0  0  0  0
   -0.9047    2.0626    0.8434 C   0  0  1  0  0  0  0  0  0  0  0  0
   -2.1945    2.5134    0.1134 C   0  0  1  0  0  0  0  0  0  0  0  0
    0.3357    2.6480    0.1513 C   0  0  0  0  0  0  0  0  0  0  0  0
    0.4355    2.2201   -1.3251 C   0  0  2  0  0  0  0  0  0  0  0  0
   -0.9151    2.4695    2.3202 C   0  0  0  0  0  0  0  0  0  0  0  0
   -0.8850    2.3853   -2.0497 C   0  0  0  0  0  0  0  0  0  0  0  0
   -2.0483    2.5285   -1.3902 C   0  0  0  0  0  0  0  0  0  0  0  0
   -3.3868    1.6315    0.5017 C   0  0  0  0  0  0  0  0  0  0  0  0
    0.9538    0.7832   -1.4498 C   0  0  0  0  0  0  0  0  0  0  0  0
   -0.0045    1.5530    3.1312 C   0  0  0  0  0  0  0  0  0  0  0  0
   -0.4912    3.9267    2.4734 C   0  0  0  0  0  0  0  0  0  0  0  0
   -0.8324    2.4280   -3.5516 C   0  0  0  0  0  0  0  0  0  0  0  0
    2.4349    0.6860   -1.1615 C   0  0  0  0  0  0  0  0  0  0  0  0
   -3.1563   -0.8070    0.8973 C   0  0  0  0  0  0  0  0  0  0  0  0
    4.2513   -1.0135   -1.0453 C   0  0  0  0  0  0  0  0  0  0  0  0
   -2.9275   -2.1308    0.2631 C   0  0  0  0  0  0  0  0  0  0  0  0
    4.4961   -1.3662    0.4145 C   0  0  0  0  0  0  0  0  0  0  0  0
   -3.4083   -3.2893    0.8731 C   0  0  0  0  0  0  0  0  0  0  0  0
   -2.2330   -2.2147   -0.9436 C   0  0  0  0  0  0  0  0  0  0  0  0
   -3.1945   -4.5320    0.2764 C   0  0  0  0  0  0  0  0  0  0  0  0
   -2.0191   -3.4572   -1.5403 C   0  0  0  0  0  0  0  0  0  0  0  0
    6.0083   -2.5884    1.8258 C   0  0  0  0  0  0  0  0  0  0  0  0
    6.7644   -0.6185    0.6768 C   0  0  0  0  0  0  0  0  0  0  0  0
   -2.4999   -4.6159   -0.9303 C   0  0  0  0  0  0  0  0  0  0  0  0
   -0.8354    0.9699    0.7923 H   0  0  0  0  0  0  0  0  0  0  0  0
   -2.4413    3.5416    0.4064 H   0  0  0  0  0  0  0  0  0  0  0  0
    1.2503    2.3778    0.6880 H   0  0  0  0  0  0  0  0  0  0  0  0
    0.2909    3.7447    0.1387 H   0  0  0  0  0  0  0  0  0  0  0  0
    1.1539    2.9017   -1.8020 H   0  0  0  0  0  0  0  0  0  0  0  0
   -1.9214    2.3638    2.7383 H   0  0  0  0  0  0  0  0  0  0  0  0
   -2.9599    2.6908   -1.9620 H   0  0  0  0  0  0  0  0  0  0  0  0
   -4.3016    2.0020    0.0232 H   0  0  0  0  0  0  0  0  0  0  0  0
   -3.5725    1.6470    1.5790 H   0  0  0  0  0  0  0  0  0  0  0  0
    0.8141    0.4068   -2.4705 H   0  0  0  0  0  0  0  0  0  0  0  0
    0.4181    0.0974   -0.7844 H   0  0  0  0  0  0  0  0  0  0  0  0
   -0.0393    1.8217    4.1928 H   0  0  0  0  0  0  0  0  0  0  0  0
    1.0402    1.6144    2.8111 H   0  0  0  0  0  0  0  0  0  0  0  0
   -0.3244    0.5088    3.0465 H   0  0  0  0  0  0  0  0  0  0  0  0
    0.5800    4.0831    2.3086 H   0  0  0  0  0  0  0  0  0  0  0  0
   -0.6837    4.2505    3.5039 H   0  0  0  0  0  0  0  0  0  0  0  0
   -1.0588    4.6025    1.8269 H   0  0  0  0  0  0  0  0  0  0  0  0
   -0.1367    3.2046   -3.8856 H   0  0  0  0  0  0  0  0  0  0  0  0
   -1.8101    2.6546   -3.9904 H   0  0  0  0  0  0  0  0  0  0  0  0
   -0.5057    1.4678   -3.9607 H   0  0  0  0  0  0  0  0  0  0  0  0
   -3.1864    0.1461   -0.9641 H   0  0  0  0  0  0  0  0  0  0  0  0
    2.2126   -1.3561   -1.5007 H   0  0  0  0  0  0  0  0  0  0  0  0
    4.4456   -1.8776   -1.6906 H   0  0  0  0  0  0  0  0  0  0  0  0
    4.8912   -0.1915   -1.3807 H   0  0  0  0  0  0  0  0  0  0  0  0
    4.2195   -0.5353    1.0772 H   0  0  0  0  0  0  0  0  0  0  0  0
    3.8139   -2.1904    0.6654 H   0  0  0  0  0  0  0  0  0  0  0  0
   -3.9556   -3.2436    1.8110 H   0  0  0  0  0  0  0  0  0  0  0  0
   -1.8184   -1.3396   -1.4354 H   0  0  0  0  0  0  0  0  0  0  0  0
   -3.5693   -5.4341    0.7510 H   0  0  0  0  0  0  0  0  0  0  0  0
   -1.4724   -3.5236   -2.4765 H   0  0  0  0  0  0  0  0  0  0  0  0
    5.3974   -3.4954    1.7553 H   0  0  0  0  0  0  0  0  0  0  0  0
    5.7050   -2.0347    2.7218 H   0  0  0  0  0  0  0  0  0  0  0  0
    7.0438   -2.9210    1.9591 H   0  0  0  0  0  0  0  0  0  0  0  0
    6.7561   -0.0474   -0.2565 H   0  0  0  0  0  0  0  0  0  0  0  0
    7.8023   -0.9395    0.8232 H   0  0  0  0  0  0  0  0  0  0  0  0
    6.5006    0.0570    1.4989 H   0  0  0  0  0  0  0  0  0  0  0  0
   -2.3321   -5.5834   -1.3942 H   0  0  0  0  0  0  0  0  0  0  0  0
  1 18  2  0  0  0  0
  2 19  2  0  0  0  0
  3 13  1  0  0  0  0
  3 19  1  0  0  0  0
  3 50  1  0  0  0  0
  4 18  1  0  0  0  0
  4 20  1  0  0  0  0
  4 51  1  0  0  0  0
  5 22  1  0  0  0  0
  5 27  1  0  0  0  0
  5 28  1  0  0  0  0
  6  7  1  0  0  0  0
  6  8  1  0  0  0  0
  6 10  1  0  0  0  0
  6 30  1  0  0  0  0
  7 12  1  0  0  0  0
  7 13  1  0  0  0  0
  7 31  1  0  0  0  0
  8  9  1  0  0  0  0
  8 32  1  0  0  0  0
  8 33  1  0  0  0  0
  9 11  1  0  0  0  0
  9 14  1  0  0  0  0
  9 34  1  0  0  0  0
 10 15  1  0  0  0  0
 10 16  1  0  0  0  0
 10 35  1  0  0  0  0
 11 12  2  0  0  0  0
 11 17  1  0  0  0  0
 12 36  1  0  0  0  0
 13 37  1  0  0  0  0
 13 38  1  0  0  0  0
 14 18  1  0  0  0  0
 14 39  1  0  0  0  0
 14 40  1  0  0  0  0
 15 41  1  0  0  0  0
 15 42  1  0  0  0  0
 15 43  1  0  0  0  0
 16 44  1  0  0  0  0
 16 45  1  0  0  0  0
 16 46  1  0  0  0  0
 17 47  1  0  0  0  0
 17 48  1  0  0  0  0
 17 49  1  0  0  0  0
 19 21  1  0  0  0  0
 20 22  1  0  0  0  0
 20 52  1  0  0  0  0
 20 53  1  0  0  0  0
 21 23  2  0  0  0  0
 21 24  1  0  0  0  0
 22 54  1  0  0  0  0
 22 55  1  0  0  0  0
 23 25  1  0  0  0  0
 23 56  1  0  0  0  0
 24 26  2  0  0  0  0
 24 57  1  0  0  0  0
 25 29  2  0  0  0  0
 25 58  1  0  0  0  0
 26 29  1  0  0  0  0
 26 59  1  0  0  0  0
 27 60  1  0  0  0  0
 27 61  1  0  0  0  0
 27 62  1  0  0  0  0
 28 63  1  0  0  0  0
 28 64  1  0  0  0  0
 28 65  1  0  0  0  0
 29 66  1  0  0  0  0
M  END
> <PUBCHEM_COMPOUND_CID>
38027463

> <PUBCHEM_CONFORMER_RMSD>
1

> <PUBCHEM_CONFORMER_DIVERSEORDER>
1
20
219
131
152
49
144
160
30
205
188
108
235
40
165
104
24
138
158
103
81
145
223
63
203
102
29
69
139
166
199
181
10
96
214
62
93
230
52
149
244
13
5
45
59
250
201
180
101
11
157
38
226
121
94
153
150
56
167
124
216
15
107
75
200
55
232
234
129
222
221
224
43
128
112
175
32
151
105
227
16
106
147
85
237
243
247
47
120
209
42
7
174
60
204
79
4
39
182
184
8
57
91
215
141
246
168
156
185
31
154
37
86
132
218
115
54
236
119
65
90
196
97
164
130
61
134
248
27
26
116
123
190
137
238
73
83
148
202
245
208
19
197
92
169
122
192
3
163
179
46
100
136
135
14
89
162
22
159
133
51
53
50
143
213
198
77
99
41
228
242
117
193
142
44
113
239
206
183
78
2
187
23
241
170
220
125
217
58
12
25
173
233
114
191
240
88
212
36
70
28
171
68
95
146
155
231
177
98
9
71
18
127
76
207
140
249
110
6
82
74
17
176
72
172
48
126
186
194
33
195
210
21
189
251
34
111
161
118
109
35
80
87
66
229
211
225
67
178
84
64

> <PUBCHEM_MMFF94_PARTIAL_CHARGES>
32
1 -0.57
11 -0.28
12 -0.29
13 0.3
14 0.06
17 0.14
18 0.57
19 0.54
2 -0.57
20 0.3
21 0.09
22 0.27
23 -0.15
24 -0.15
25 -0.15
26 -0.15
27 0.27
28 0.27
29 -0.15
3 -0.73
36 0.15
4 -0.73
5 -0.81
50 0.37
51 0.37
56 0.15
57 0.15
58 0.15
59 0.15
66 0.15
7 0.14
9 0.14

> <PUBCHEM_EFFECTIVE_ROTOR_COUNT>
11.8

> <PUBCHEM_PHARMACOPHORE_FEATURES>
8
1 1 acceptor
1 2 acceptor
1 3 donor
1 4 donor
1 5 cation
3 10 15 16 hydrophobe
6 21 23 24 25 26 29 rings
6 6 7 8 9 11 12 rings

> <PUBCHEM_HEAVY_ATOM_COUNT>
29

> <PUBCHEM_ATOM_DEF_STEREO_COUNT>
3

> <PUBCHEM_ATOM_UDEF_STEREO_COUNT>
0

> <PUBCHEM_BOND_DEF_STEREO_COUNT>
0

> <PUBCHEM_BOND_UDEF_STEREO_COUNT>
0

> <PUBCHEM_ISOTOPIC_ATOM_COUNT>
0

> <PUBCHEM_COMPONENT_COUNT>
1

> <PUBCHEM_CACTVS_TAUTO_COUNT>
4

> <PUBCHEM_CONFORMER_ID>
024440C700000001

> <PUBCHEM_MMFF94_ENERGY>
61.1754

> <PUBCHEM_FEATURE_SELFOVERLAP>
40.595

> <PUBCHEM_SHAPE_FINGERPRINT>
10483366 6 18116690994985827047
11552529 35 18341325609717354162
11578080 2 17838622511467447973
12156800 1 17466173731365957999
12523318 42 18339640028105623864
12712778 12 18341885247997893386
12977781 61 17766805649918536957
14020679 6 17345478063599995297
14114206 34 16515390880925941012
14251764 75 10700961741923189174
14674994 50 18338221713771602383
14844126 61 18335417937397964626
14863182 85 16898207037368877313
16728300 4 17895759470158981139
17980427 26 10715989617901855389
18603816 31 16736060507733877250
19319366 153 17038396947042051398
20775530 9 18052552250414280319
21049683 118 16264921900238418433
376196 1 15761906270150737032
5080951 261 18042951113391227200
6609424 69 11924275041987219222

> <PUBCHEM_SHAPE_MULTIPOLES>
570.12
10.05
6.3
2.85
23.79
4.61
-0.07
12
-3.55
-6.35
-0.38
-0.36
-2.75
-1.25

> <PUBCHEM_SHAPE_SELFOVERLAP>
1159.455

> <PUBCHEM_SHAPE_VOLUME>
330.5

> <PUBCHEM_COORDINATE_TYPE>
2
5
10

$$$$
