26744244
  -OEChem-12032416373D

 40 43  0     1  0  0  0  0  0999 V2000
    5.6053    2.5939    0.8066 Cl  0  0  0  0  0  0  0  0  0  0  0  0
   -3.1757   -0.7034   -1.1864 O   0  0  0  0  0  0  0  0  0  0  0  0
    0.1628   -4.6397    1.2310 O   0  0  0  0  0  0  0  0  0  0  0  0
    0.3034   -1.3694   -0.2032 N   0  0  1  0  0  0  0  0  0  0  0  0
   -2.0599    0.3312    0.4572 N   0  0  0  0  0  0  0  0  0  0  0  0
   -3.9554    0.4016   -0.8220 N   0  0  0  0  0  0  0  0  0  0  0  0
   -3.6900    2.2287    0.8781 C   0  0  0  0  0  0  0  0  0  0  0  0
   -1.0645   -1.7775   -0.5828 C   0  0  1  0  0  0  0  0  0  0  0  0
   -4.0074    3.4498    0.0657 C   0  0  0  0  0  0  0  0  0  0  0  0
   -2.7688    3.4129    0.9121 C   0  0  0  0  0  0  0  0  0  0  0  0
   -1.3596   -3.0174    0.2816 C   0  0  0  0  0  0  0  0  0  0  0  0
   -0.0833   -3.2552    1.0790 C   0  0  2  0  0  0  0  0  0  0  0  0
    0.9881   -2.5812    0.2431 C   0  0  0  0  0  0  0  0  0  0  0  0
   -3.2312    0.9611    0.1519 C   0  0  0  0  0  0  0  0  0  0  0  0
   -2.0789   -0.6709   -0.3850 C   0  0  0  0  0  0  0  0  0  0  0  0
    1.0218   -0.6982   -1.2786 C   0  0  0  0  0  0  0  0  0  0  0  0
    2.1694    0.1255   -0.7576 C   0  0  0  0  0  0  0  0  0  0  0  0
    1.9674    1.4613   -0.4101 C   0  0  0  0  0  0  0  0  0  0  0  0
    3.4342   -0.4468   -0.6219 C   0  0  0  0  0  0  0  0  0  0  0  0
    3.0303    2.2248    0.0726 C   0  0  0  0  0  0  0  0  0  0  0  0
    4.4970    0.3166   -0.1393 C   0  0  0  0  0  0  0  0  0  0  0  0
    4.2952    1.6523    0.2079 C   0  0  0  0  0  0  0  0  0  0  0  0
   -4.2956    2.0517    1.7600 H   0  0  0  0  0  0  0  0  0  0  0  0
   -1.0891   -2.0900   -1.6365 H   0  0  0  0  0  0  0  0  0  0  0  0
   -3.8791    3.4189   -1.0095 H   0  0  0  0  0  0  0  0  0  0  0  0
   -4.8258    4.0774    0.3978 H   0  0  0  0  0  0  0  0  0  0  0  0
   -1.8145    3.3519    0.4029 H   0  0  0  0  0  0  0  0  0  0  0  0
   -2.7554    4.0158    1.8121 H   0  0  0  0  0  0  0  0  0  0  0  0
   -1.5879   -3.8795   -0.3576 H   0  0  0  0  0  0  0  0  0  0  0  0
   -2.2107   -2.8820    0.9589 H   0  0  0  0  0  0  0  0  0  0  0  0
   -0.1532   -2.7912    2.0705 H   0  0  0  0  0  0  0  0  0  0  0  0
    1.2953   -3.2300   -0.5879 H   0  0  0  0  0  0  0  0  0  0  0  0
    1.8710   -2.3717    0.8551 H   0  0  0  0  0  0  0  0  0  0  0  0
    0.3488   -0.0130   -1.8128 H   0  0  0  0  0  0  0  0  0  0  0  0
    1.3713   -1.4027   -2.0457 H   0  0  0  0  0  0  0  0  0  0  0  0
   -0.5949   -5.0204    1.7070 H   0  0  0  0  0  0  0  0  0  0  0  0
    0.9862    1.9185   -0.5079 H   0  0  0  0  0  0  0  0  0  0  0  0
    3.6074   -1.4846   -0.8940 H   0  0  0  0  0  0  0  0  0  0  0  0
    2.8579    3.2641    0.3404 H   0  0  0  0  0  0  0  0  0  0  0  0
    5.4773   -0.1424   -0.0397 H   0  0  0  0  0  0  0  0  0  0  0  0
  1 22  1  0  0  0  0
  2  6  1  0  0  0  0
  2 15  1  0  0  0  0
  3 12  1  0  0  0  0
  3 36  1  0  0  0  0
  4  8  1  0  0  0  0
  4 13  1  0  0  0  0
  4 16  1  0  0  0  0
  5 14  1  0  0  0  0
  5 15  2  0  0  0  0
  6 14  2  0  0  0  0
  7  9  1  0  0  0  0
  7 10  1  0  0  0  0
  7 14  1  0  0  0  0
  7 23  1  0  0  0  0
  8 11  1  0  0  0  0
  8 15  1  0  0  0  0
  8 24  1  0  0  0  0
  9 10  1  0  0  0  0
  9 25  1  0  0  0  0
  9 26  1  0  0  0  0
 10 27  1  0  0  0  0
 10 28  1  0  0  0  0
 11 12  1  0  0  0  0
 11 29  1  0  0  0  0
 11 30  1  0  0  0  0
 12 13  1  0  0  0  0
 12 31  1  0  0  0  0
 13 32  1  0  0  0  0
 13 33  1  0  0  0  0
 16 17  1  0  0  0  0
 16 34  1  0  0  0  0
 16 35  1  0  0  0  0
 17 18  2  0  0  0  0
 17 19  1  0  0  0  0
 18 20  1  0  0  0  0
 18 37  1  0  0  0  0
 19 21  2  0  0  0  0
 19 38  1  0  0  0  0
 20 22  2  0  0  0  0
 20 39  1  0  0  0  0
 21 22  1  0  0  0  0
 21 40  1  0  0  0  0
M  END
> <PUBCHEM_COMPOUND_CID>
26744244

> <PUBCHEM_CONFORMER_RMSD>
0.8

> <PUBCHEM_CONFORMER_DIVERSEORDER>
1
6
42
27
18
37
47
30
2
26
17
24
45
15
34
39
46
28
20
5
40
29
11
38
7
36
44
32
22
41
16
4
35
10
8
43
13
3
21
19
23
31
25
12
9
14
33

> <PUBCHEM_MMFF94_PARTIAL_CHARGES>
31
1 -0.18
10 -0.2
12 0.28
13 0.27
14 0.43
15 0.3
16 0.41
17 -0.14
18 -0.15
19 -0.15
2 -0.02
20 -0.15
21 -0.15
22 0.18
23 0.1
25 0.1
26 0.1
27 0.1
28 0.1
3 -0.68
36 0.4
37 0.15
38 0.15
39 0.15
4 -0.81
40 0.15
5 -0.57
6 -0.41
7 -0.01
8 0.45
9 -0.2

> <PUBCHEM_EFFECTIVE_ROTOR_COUNT>
5.6

> <PUBCHEM_PHARMACOPHORE_FEATURES>
7
1 3 acceptor
1 3 donor
1 4 cation
3 5 6 14 cation
5 2 5 6 14 15 rings
5 4 8 11 12 13 rings
6 17 18 19 20 21 22 rings

> <PUBCHEM_HEAVY_ATOM_COUNT>
22

> <PUBCHEM_ATOM_DEF_STEREO_COUNT>
2

> <PUBCHEM_ATOM_UDEF_STEREO_COUNT>
0

> <PUBCHEM_BOND_DEF_STEREO_COUNT>
0

> <PUBCHEM_BOND_UDEF_STEREO_COUNT>
0

> <PUBCHEM_ISOTOPIC_ATOM_COUNT>
0

> <PUBCHEM_COMPONENT_COUNT>
1

> <PUBCHEM_CACTVS_TAUTO_COUNT>
1

> <PUBCHEM_CONFORMER_ID>
019815B400000001

> <PUBCHEM_MMFF94_ENERGY>
41.1881

> <PUBCHEM_FEATURE_SELFOVERLAP>
35.522

> <PUBCHEM_SHAPE_FINGERPRINT>
10291535 26 18196650924451314880
1100329 8 18122345675370113026
11036077 51 18336543910398515474
11370993 70 18341333305550116832
12107183 9 18335125476812477704
12293681 160 18049134942901390359
12788726 201 18121205747630836818
13140716 1 18336830766837034602
13464514 151 18269565948506721534
138480 1 17473266470317724819
13878862 14 17466217540650348813
13965767 371 17968938561339844492
14123255 52 18339929207937171721
14178342 30 18041862631260553163
14251764 75 17914629267266761057
14466204 15 18266453205624612880
15848702 68 17689153414079573637
17980427 23 17551484688563294631
17980427 26 18339068277674932710
20510252 161 18120375616509991259
20739085 24 17896889755290047652
20832881 197 18051143493042063054
21401589 2 18271816747450491881
21524375 3 18411985745487063239
21864079 5 18341051813656839309
22182937 141 18340497745611182427
23558518 356 18338242660016004406
23845131 108 18261118418404295283
283562 15 18337948008765509471
3117164 225 18338220649337182944
392239 28 18265909110762192139
474 4 18264487291492003003
5048184 11 18340489958915180577
57091435 65 17904487307159526449
57124632 79 18193831540204032153
5895379 119 16982091557958048121
59124914 9 18267873774478764304
5939293 188 17476364898648803325
6328613 192 18335991943615622980
633830 44 18341892944373260734
79837 15 18334018323415138715
84936 182 18268709420163213147
9709674 26 18196377146409757966
9849439 229 18337122184790565285
9981440 41 18410852191711174466

> <PUBCHEM_SHAPE_MULTIPOLES>
427.94
9.33
5.15
1.07
6.39
2.28
-0.01
-11.37
-0.67
-2.76
-2.51
-0.12
0.34
-0.07

> <PUBCHEM_SHAPE_SELFOVERLAP>
905.668

> <PUBCHEM_SHAPE_VOLUME>
243.1

> <PUBCHEM_COORDINATE_TYPE>
2
5
10

$$$$
