51137072
  -OEChem-12032416243D

 39 42  0     1  0  0  0  0  0999 V2000
   -6.5727    2.3211    0.7538 Cl  0  0  0  0  0  0  0  0  0  0  0  0
    3.4698   -1.7901    0.5745 S   0  0  0  0  0  0  0  0  0  0  0  0
   -1.3846   -0.5319   -0.1300 N   0  0  1  0  0  0  0  0  0  0  0  0
    2.6455    0.5820   -0.0132 N   0  0  0  0  0  0  0  0  0  0  0  0
    0.8037   -1.0037    0.5686 C   0  0  1  0  0  0  0  0  0  0  0  0
    0.0776   -0.1978    1.6597 C   0  0  0  0  0  0  0  0  0  0  0  0
   -0.0624   -0.8272   -0.6859 C   0  0  0  0  0  0  0  0  0  0  0  0
   -1.1331    0.4085    0.9619 C   0  0  0  0  0  0  0  0  0  0  0  0
   -2.2981    0.0076   -1.1265 C   0  0  0  0  0  0  0  0  0  0  0  0
    2.2474   -0.6156    0.3473 C   0  0  0  0  0  0  0  0  0  0  0  0
   -3.7342   -0.1010   -0.6877 C   0  0  0  0  0  0  0  0  0  0  0  0
    4.6617   -0.6158    0.1579 C   0  0  0  0  0  0  0  0  0  0  0  0
    4.0281    0.5977   -0.1260 C   0  0  0  0  0  0  0  0  0  0  0  0
   -4.4094    1.0284   -0.2247 C   0  0  0  0  0  0  0  0  0  0  0  0
   -4.3898   -1.3309   -0.7450 C   0  0  0  0  0  0  0  0  0  0  0  0
    6.0569   -0.7584    0.0873 C   0  0  0  0  0  0  0  0  0  0  0  0
    4.8213    1.7064   -0.4932 C   0  0  0  0  0  0  0  0  0  0  0  0
   -5.7403    0.9280    0.1810 C   0  0  0  0  0  0  0  0  0  0  0  0
   -5.7206   -1.4314   -0.3392 C   0  0  0  0  0  0  0  0  0  0  0  0
    6.8184    0.3543   -0.2785 C   0  0  0  0  0  0  0  0  0  0  0  0
    6.2107    1.5717   -0.5655 C   0  0  0  0  0  0  0  0  0  0  0  0
   -6.3959   -0.3020    0.1236 C   0  0  0  0  0  0  0  0  0  0  0  0
    0.7527   -2.0613    0.8663 H   0  0  0  0  0  0  0  0  0  0  0  0
   -0.2481   -0.8765    2.4581 H   0  0  0  0  0  0  0  0  0  0  0  0
    0.7022    0.5764    2.1177 H   0  0  0  0  0  0  0  0  0  0  0  0
    0.3013   -0.0015   -1.3120 H   0  0  0  0  0  0  0  0  0  0  0  0
   -0.0718   -1.7387   -1.2936 H   0  0  0  0  0  0  0  0  0  0  0  0
   -1.9803    0.4930    1.6496 H   0  0  0  0  0  0  0  0  0  0  0  0
   -0.8803    1.4102    0.5910 H   0  0  0  0  0  0  0  0  0  0  0  0
   -2.0475    1.0413   -1.4009 H   0  0  0  0  0  0  0  0  0  0  0  0
   -2.2096   -0.5652   -2.0607 H   0  0  0  0  0  0  0  0  0  0  0  0
   -3.8967    1.9865   -0.1789 H   0  0  0  0  0  0  0  0  0  0  0  0
   -3.8747   -2.2181   -1.1038 H   0  0  0  0  0  0  0  0  0  0  0  0
    6.5382   -1.7057    0.3099 H   0  0  0  0  0  0  0  0  0  0  0  0
    4.3569    2.6621   -0.7195 H   0  0  0  0  0  0  0  0  0  0  0  0
   -6.2310   -2.3891   -0.3837 H   0  0  0  0  0  0  0  0  0  0  0  0
    7.9000    0.2655   -0.3391 H   0  0  0  0  0  0  0  0  0  0  0  0
    6.8193    2.4262   -0.8484 H   0  0  0  0  0  0  0  0  0  0  0  0
   -7.4327   -0.3953    0.4365 H   0  0  0  0  0  0  0  0  0  0  0  0
  1 18  1  0  0  0  0
  2 10  1  0  0  0  0
  2 12  1  0  0  0  0
  3  7  1  0  0  0  0
  3  8  1  0  0  0  0
  3  9  1  0  0  0  0
  4 10  2  0  0  0  0
  4 13  1  0  0  0  0
  5  6  1  0  0  0  0
  5  7  1  0  0  0  0
  5 10  1  0  0  0  0
  5 23  1  0  0  0  0
  6  8  1  0  0  0  0
  6 24  1  0  0  0  0
  6 25  1  0  0  0  0
  7 26  1  0  0  0  0
  7 27  1  0  0  0  0
  8 28  1  0  0  0  0
  8 29  1  0  0  0  0
  9 11  1  0  0  0  0
  9 30  1  0  0  0  0
  9 31  1  0  0  0  0
 11 14  2  0  0  0  0
 11 15  1  0  0  0  0
 12 13  1  0  0  0  0
 12 16  2  0  0  0  0
 13 17  2  0  0  0  0
 14 18  1  0  0  0  0
 14 32  1  0  0  0  0
 15 19  2  0  0  0  0
 15 33  1  0  0  0  0
 16 20  1  0  0  0  0
 16 34  1  0  0  0  0
 17 21  1  0  0  0  0
 17 35  1  0  0  0  0
 18 22  2  0  0  0  0
 19 22  1  0  0  0  0
 19 36  1  0  0  0  0
 20 21  2  0  0  0  0
 20 37  1  0  0  0  0
 21 38  1  0  0  0  0
 22 39  1  0  0  0  0
M  END
> <PUBCHEM_COMPOUND_CID>
51137072

> <PUBCHEM_CONFORMER_RMSD>
0.6

> <PUBCHEM_CONFORMER_DIVERSEORDER>
1
169
66
206
213
147
138
208
180
39
183
81
15
174
46
134
30
162
207
198
97
184
45
139
171
120
101
135
31
86
48
84
214
140
199
146
34
128
109
59
149
157
131
130
197
36
212
123
190
145
204
77
196
203
64
194
71
142
33
148
159
75
177
24
217
143
112
90
108
132
205
136
88
41
188
176
150
193
119
211
121
200
47
153
56
62
165
220
126
102
96
210
172
152
110
16
187
182
79
63
201
70
4
23
202
9
6
32
13
117
215
52
55
80
127
29
166
186
51
8
99
195
107
22
192
170
124
28
67
158
2
133
179
118
35
27
168
17
191
111
137
125
50
160
40
87
7
5
74
37
163
104
116
18
167
42
105
69
12
73
38
3
94
141
43
60
57
11
10
100
83
53
61
155
85
82
14
103
58
44
122
114
65
219
78
68
54
91
98
154
164
181
175
173
76
26
189
115
113
19
161
92
144
106
49
95
178
25
129
93
221
185
21
72
20
151
89
218
216
156
209

> <PUBCHEM_MMFF94_PARTIAL_CHARGES>
29
1 -0.18
10 0.2
11 -0.14
12 0.04
13 0.23
14 -0.15
15 -0.15
16 -0.15
17 -0.15
18 0.18
19 -0.15
2 -0.08
20 -0.15
21 -0.15
22 -0.15
3 -0.81
32 0.15
33 0.15
34 0.15
35 0.15
36 0.15
37 0.15
38 0.15
39 0.15
4 -0.57
5 0.18
7 0.27
8 0.27
9 0.41

> <PUBCHEM_EFFECTIVE_ROTOR_COUNT>
4

> <PUBCHEM_PHARMACOPHORE_FEATURES>
6
1 3 cation
1 4 acceptor
5 2 4 10 12 13 rings
5 3 5 6 7 8 rings
6 11 14 15 18 19 22 rings
6 12 13 16 17 20 21 rings

> <PUBCHEM_HEAVY_ATOM_COUNT>
22

> <PUBCHEM_ATOM_DEF_STEREO_COUNT>
1

> <PUBCHEM_ATOM_UDEF_STEREO_COUNT>
0

> <PUBCHEM_BOND_DEF_STEREO_COUNT>
0

> <PUBCHEM_BOND_UDEF_STEREO_COUNT>
0

> <PUBCHEM_ISOTOPIC_ATOM_COUNT>
0

> <PUBCHEM_COMPONENT_COUNT>
1

> <PUBCHEM_CACTVS_TAUTO_COUNT>
1

> <PUBCHEM_CONFORMER_ID>
030C4A3000000001

> <PUBCHEM_MMFF94_ENERGY>
47.2442

> <PUBCHEM_FEATURE_SELFOVERLAP>
30.519

> <PUBCHEM_SHAPE_FINGERPRINT>
10 15 14056725668700054212
10066227 112 18340764854439726693
10299344 5 18341894108631469071
10411042 1 17829039924303275586
10554248 39 18056747742399551303
10595046 47 18409164407240007299
10638233 991 18341047505736297061
106641 1 12829498064697865964
10730089 173 18202003209716887489
11315181 36 18334575759732480991
11646440 116 16515407360926777356
11796584 16 14907893908072184574
12166972 35 18186802491612266044
12236239 1 18342175561748000494
12516196 113 9583519815270497750
12643181 29 14405182881016796412
12730499 353 17676488328897461866
12788726 201 17489310737306199587
12916748 109 16370722613269534564
13167372 99 18410575050593841712
13533116 47 16950553338874291314
13631057 29 18042966657226726459
13690498 29 17773305941393308791
14251752 14 17917711288067354672
14849402 71 18115034128734835181
14856354 85 18130509725679570623
14933364 13 18410857659251761181
15048467 5 18412544293336226669
15183329 4 18273214188185504217
15537594 2 16487252170758307734
18006028 8 12679464187949181970
19489759 90 8286202756187173055
20157964 124 18333450950531170578
21033648 29 17750516355542185504
21298829 104 18336550525250109636
21792961 116 17489593333643894143
2215653 11 13758354470719133988
22224240 67 16805044017230308201
23081809 10 18342166765686906263
23198884 109 18408323298135280859
23536379 177 18412261731231636698
23569914 152 13609212096807974089
23569943 247 17097197338800622322
23622692 88 13767927935937662154
2838139 119 17967529090823480764
29717793 49 17988648480690242694
3004659 81 18130788915607351774
314173 85 14836405839076290019
3545911 37 17894630361932088630
3663271 9 18334012779107926283
397830 11 15213882543273309101
4073 2 18041284352036629242
4325135 7 18334574659624897327
4340502 62 16443344265399629738
445580 37 17917438600931744769
5265222 85 17987514977768698375
5283156 175 17561086878586083622
542803 24 18412259540819460334
5758199 1 17967817149657716114
59682541 35 16153436068937678617
59755656 215 15123515787409992780
59755656 520 17458340866422818394
6328613 192 18341332206824342857
9996256 80 18333446551677551078

> <PUBCHEM_SHAPE_MULTIPOLES>
448.51
20.01
1.77
1.02
1.9
0.46
-0.16
6.2
1.48
0.64
-0.07
0.35
-0.01
-1.7

> <PUBCHEM_SHAPE_SELFOVERLAP>
957.329

> <PUBCHEM_SHAPE_VOLUME>
252

> <PUBCHEM_COORDINATE_TYPE>
2
5
10

$$$$
