56775625
  -OEChem-12032416323D

 55 58  0     1  0  0  0  0  0999 V2000
   -5.1785   -3.9643    0.6810 F   0  0  0  0  0  0  0  0  0  0  0  0
   -2.1651    3.2391   -2.6370 O   0  0  0  0  0  0  0  0  0  0  0  0
    2.7135    3.0326    0.3453 O   0  0  0  0  0  0  0  0  0  0  0  0
   -1.6776    1.1751   -0.4794 N   0  0  0  0  0  0  0  0  0  0  0  0
    1.5173    3.6457   -0.0072 N   0  0  0  0  0  0  0  0  0  0  0  0
    3.5569   -0.2083    1.2807 N   0  0  1  0  0  0  0  0  0  0  0  0
   -1.4883    2.5995   -0.7164 C   0  0  0  0  0  0  0  0  0  0  0  0
   -0.8962    2.7915   -2.1081 C   0  0  0  0  0  0  0  0  0  0  0  0
   -2.7651    3.1700   -1.3234 C   0  0  0  0  0  0  0  0  0  0  0  0
   -0.8436    3.3231    0.4734 C   0  0  0  0  0  0  0  0  0  0  0  0
    0.5706    2.9442    0.6226 C   0  0  0  0  0  0  0  0  0  0  0  0
   -2.4701    0.9766    0.7318 C   0  0  0  0  0  0  0  0  0  0  0  0
    1.1045    1.8872    1.3799 C   0  0  0  0  0  0  0  0  0  0  0  0
   -3.1937   -0.3436    0.7182 C   0  0  0  0  0  0  0  0  0  0  0  0
    2.4546    1.9868    1.1715 C   0  0  0  0  0  0  0  0  0  0  0  0
    3.6449    1.2024    1.6560 C   0  0  0  0  0  0  0  0  0  0  0  0
   -2.5812   -1.4802    1.2460 C   0  0  0  0  0  0  0  0  0  0  0  0
   -4.4769   -0.4300    0.1777 C   0  0  0  0  0  0  0  0  0  0  0  0
    3.9065   -0.3853   -0.1281 C   0  0  0  0  0  0  0  0  0  0  0  0
   -3.2516   -2.7032    1.2334 C   0  0  0  0  0  0  0  0  0  0  0  0
   -5.1473   -1.6531    0.1651 C   0  0  0  0  0  0  0  0  0  0  0  0
    4.4297   -1.0184    2.1296 C   0  0  0  0  0  0  0  0  0  0  0  0
    3.3297   -1.6559   -0.6936 C   0  0  0  0  0  0  0  0  0  0  0  0
   -4.5347   -2.7898    0.6931 C   0  0  0  0  0  0  0  0  0  0  0  0
    4.0616   -2.8419   -0.6328 C   0  0  0  0  0  0  0  0  0  0  0  0
    2.0635   -1.6470   -1.2784 C   0  0  0  0  0  0  0  0  0  0  0  0
    3.5270   -4.0189   -1.1570 C   0  0  0  0  0  0  0  0  0  0  0  0
    1.5290   -2.8239   -1.8024 C   0  0  0  0  0  0  0  0  0  0  0  0
    2.2607   -4.0099   -1.7417 C   0  0  0  0  0  0  0  0  0  0  0  0
   -0.5352    1.8998   -2.6318 H   0  0  0  0  0  0  0  0  0  0  0  0
   -0.1497    3.5848   -2.2142 H   0  0  0  0  0  0  0  0  0  0  0  0
   -3.0454    4.1702   -0.9756 H   0  0  0  0  0  0  0  0  0  0  0  0
   -3.6624    2.5429   -1.3372 H   0  0  0  0  0  0  0  0  0  0  0  0
   -1.3903    3.1795    1.4114 H   0  0  0  0  0  0  0  0  0  0  0  0
   -0.8956    4.4066    0.2935 H   0  0  0  0  0  0  0  0  0  0  0  0
   -0.8197    0.6274   -0.4239 H   0  0  0  0  0  0  0  0  0  0  0  0
   -3.2258    1.7600    0.8785 H   0  0  0  0  0  0  0  0  0  0  0  0
   -1.8318    1.0103    1.6230 H   0  0  0  0  0  0  0  0  0  0  0  0
    0.5913    1.1596    1.9907 H   0  0  0  0  0  0  0  0  0  0  0  0
    4.5805    1.6577    1.3058 H   0  0  0  0  0  0  0  0  0  0  0  0
    3.6413    1.3045    2.7498 H   0  0  0  0  0  0  0  0  0  0  0  0
   -1.5809   -1.4263    1.6675 H   0  0  0  0  0  0  0  0  0  0  0  0
   -4.9649    0.4475   -0.2379 H   0  0  0  0  0  0  0  0  0  0  0  0
    4.9935   -0.3545   -0.2885 H   0  0  0  0  0  0  0  0  0  0  0  0
    3.5151    0.4373   -0.7424 H   0  0  0  0  0  0  0  0  0  0  0  0
   -2.7747   -3.5885    1.6435 H   0  0  0  0  0  0  0  0  0  0  0  0
   -6.1461   -1.7210   -0.2558 H   0  0  0  0  0  0  0  0  0  0  0  0
    4.1923   -0.8553    3.1878 H   0  0  0  0  0  0  0  0  0  0  0  0
    5.4904   -0.7830    1.9843 H   0  0  0  0  0  0  0  0  0  0  0  0
    4.2790   -2.0888    1.9650 H   0  0  0  0  0  0  0  0  0  0  0  0
    5.0548   -2.8631   -0.1925 H   0  0  0  0  0  0  0  0  0  0  0  0
    1.4812   -0.7305   -1.3295 H   0  0  0  0  0  0  0  0  0  0  0  0
    4.0980   -4.9418   -1.1123 H   0  0  0  0  0  0  0  0  0  0  0  0
    0.5424   -2.8171   -2.2567 H   0  0  0  0  0  0  0  0  0  0  0  0
    1.8446   -4.9262   -2.1500 H   0  0  0  0  0  0  0  0  0  0  0  0
  1 24  1  0  0  0  0
  2  8  1  0  0  0  0
  2  9  1  0  0  0  0
  3  5  1  0  0  0  0
  3 15  1  0  0  0  0
  4  7  1  0  0  0  0
  4 12  1  0  0  0  0
  4 36  1  0  0  0  0
  5 11  2  0  0  0  0
  6 16  1  0  0  0  0
  6 19  1  0  0  0  0
  6 22  1  0  0  0  0
  7  8  1  0  0  0  0
  7  9  1  0  0  0  0
  7 10  1  0  0  0  0
  8 30  1  0  0  0  0
  8 31  1  0  0  0  0
  9 32  1  0  0  0  0
  9 33  1  0  0  0  0
 10 11  1  0  0  0  0
 10 34  1  0  0  0  0
 10 35  1  0  0  0  0
 11 13  1  0  0  0  0
 12 14  1  0  0  0  0
 12 37  1  0  0  0  0
 12 38  1  0  0  0  0
 13 15  2  0  0  0  0
 13 39  1  0  0  0  0
 14 17  2  0  0  0  0
 14 18  1  0  0  0  0
 15 16  1  0  0  0  0
 16 40  1  0  0  0  0
 16 41  1  0  0  0  0
 17 20  1  0  0  0  0
 17 42  1  0  0  0  0
 18 21  2  0  0  0  0
 18 43  1  0  0  0  0
 19 23  1  0  0  0  0
 19 44  1  0  0  0  0
 19 45  1  0  0  0  0
 20 24  2  0  0  0  0
 20 46  1  0  0  0  0
 21 24  1  0  0  0  0
 21 47  1  0  0  0  0
 22 48  1  0  0  0  0
 22 49  1  0  0  0  0
 22 50  1  0  0  0  0
 23 25  2  0  0  0  0
 23 26  1  0  0  0  0
 25 27  1  0  0  0  0
 25 51  1  0  0  0  0
 26 28  2  0  0  0  0
 26 52  1  0  0  0  0
 27 29  2  0  0  0  0
 27 53  1  0  0  0  0
 28 29  1  0  0  0  0
 28 54  1  0  0  0  0
 29 55  1  0  0  0  0
M  END
> <PUBCHEM_COMPOUND_CID>
56775625

> <PUBCHEM_CONFORMER_RMSD>
1.2

> <PUBCHEM_CONFORMER_DIVERSEORDER>
1
17
121
4
38
92
37
15
3
115
57
89
59
27
118
129
48
75
94
14
8
99
123
24
36
119
138
107
30
135
7
103
35
102
13
47
116
132
110
97
69
44
61
39
63
64
76
106
78
45
127
113
126
72
16
46
74
43
42
12
85
128
133
104
22
26
81
62
98
2
83
33
31
40
101
73
125
124
34
96
95
105
11
71
5
88
93
6
134
79
122
120
139
80
136
82
131
68
53
9
91
18
112
25
77
23
86
52
109
41
87
140
108
21
32
58
117
100
50
114
49
70
130
65
55
111
56
51
60
28
67
66
10
19
137
90
54
141
84
29
20

> <PUBCHEM_MMFF94_PARTIAL_CHARGES>
40
1 -0.19
10 0.18
11 0.11
12 0.41
13 -0.15
14 -0.14
15 -0.04
16 0.45
17 -0.15
18 -0.15
19 0.41
2 -0.52
20 -0.15
21 -0.15
22 0.27
23 -0.14
24 0.19
25 -0.15
26 -0.15
27 -0.15
28 -0.15
29 -0.15
3 -0.02
36 0.36
39 0.15
4 -0.84
42 0.15
43 0.15
46 0.15
47 0.15
5 -0.41
51 0.15
52 0.15
53 0.15
54 0.15
55 0.15
6 -0.81
7 0.21
8 0.26
9 0.26

> <PUBCHEM_EFFECTIVE_ROTOR_COUNT>
9.8

> <PUBCHEM_PHARMACOPHORE_FEATURES>
9
1 2 acceptor
1 4 cation
1 4 donor
1 5 acceptor
1 6 cation
4 2 7 8 9 rings
5 3 5 11 13 15 rings
6 14 17 18 20 21 24 rings
6 23 25 26 27 28 29 rings

> <PUBCHEM_HEAVY_ATOM_COUNT>
29

> <PUBCHEM_ATOM_DEF_STEREO_COUNT>
0

> <PUBCHEM_ATOM_UDEF_STEREO_COUNT>
0

> <PUBCHEM_BOND_DEF_STEREO_COUNT>
0

> <PUBCHEM_BOND_UDEF_STEREO_COUNT>
0

> <PUBCHEM_ISOTOPIC_ATOM_COUNT>
0

> <PUBCHEM_COMPONENT_COUNT>
1

> <PUBCHEM_CACTVS_TAUTO_COUNT>
1

> <PUBCHEM_CONFORMER_ID>
036253C900000001

> <PUBCHEM_MMFF94_ENERGY>
69.3704

> <PUBCHEM_FEATURE_SELFOVERLAP>
45.672

> <PUBCHEM_SHAPE_FINGERPRINT>
11374522 58 18125755360129060299
11828532 37 17895759620662366771
12202916 173 17546959158832826184
12293681 25 18054776300697044722
12712778 12 17542778716940663906
13402501 40 18341332188990092490
1361 2 17982171428799356659
1361 87 17840595795014241470
14020679 6 17122840028476628665
14863182 85 17907594866585814093
15322534 239 15892519373511072775
15420108 30 17043717488267915600
15664445 248 17679593512379192957
17974551 9 16843327766068118280
19301679 30 18194133034993818891
19319366 153 16108967046738039696
19611394 137 17480574946696835962
1979834 28 18127412460836165267
20764821 26 18050855420488774066
20775438 99 17907824394154477039
20775530 9 18266194854266553054
21285901 2 18261668272453713665
23428019 142 16755807589859728022
23572383 38 18196636420325611706
404807 14 18055368937787033451
4394409 98 16601517521090066498
445580 102 18271251491463590222
49967989 163 17261898558999547702
508706 21 18263076613620499623
5309563 4 18343026617907281394
66674814 147 17407078499025489247

> <PUBCHEM_SHAPE_MULTIPOLES>
562.85
10.09
6.6
2.04
2.31
0.94
-0.58
10.32
2.13
1.36
-1.85
-0.72
-0.41
5.13

> <PUBCHEM_SHAPE_SELFOVERLAP>
1203.566

> <PUBCHEM_SHAPE_VOLUME>
315.2

> <PUBCHEM_COORDINATE_TYPE>
2
5
10

$$$$
