75536302
  -OEChem-12032416303D

 57 60  0     1  0  0  0  0  0999 V2000
    3.3315   -0.1365    0.7048 O   0  0  0  0  0  0  0  0  0  0  0  0
    6.1085    0.6030    1.3604 O   0  0  0  0  0  0  0  0  0  0  0  0
   -0.3877   -1.8090    1.4504 O   0  0  0  0  0  0  0  0  0  0  0  0
    0.8958    1.1185   -2.0204 O   0  0  0  0  0  0  0  0  0  0  0  0
   -4.5608    2.1222    1.0222 O   0  0  0  0  0  0  0  0  0  0  0  0
    1.7228    2.0589   -0.0667 N   0  0  0  0  0  0  0  0  0  0  0  0
    0.9962   -1.9238    1.5025 N   0  0  0  0  0  0  0  0  0  0  0  0
    3.9046    1.1701    0.5645 C   0  0  1  0  0  0  0  0  0  0  0  0
    3.5003   -0.9988   -0.4229 C   0  0  1  0  0  0  0  0  0  0  0  0
    5.3974    1.0910    0.2196 C   0  0  2  0  0  0  0  0  0  0  0  0
    4.9833   -1.2005   -0.7300 C   0  0  0  0  0  0  0  0  0  0  0  0
    5.6758    0.1425   -0.9433 C   0  0  0  0  0  0  0  0  0  0  0  0
    2.8300   -2.3261   -0.0893 C   0  0  0  0  0  0  0  0  0  0  0  0
    3.1078    2.0170   -0.4256 C   0  0  0  0  0  0  0  0  0  0  0  0
    1.3723   -2.1473    0.2401 C   0  0  0  0  0  0  0  0  0  0  0  0
    0.2798   -2.1837   -0.6437 C   0  0  0  0  0  0  0  0  0  0  0  0
    0.7096    1.5991   -0.9055 C   0  0  0  0  0  0  0  0  0  0  0  0
   -0.8024   -1.9657    0.1673 C   0  0  0  0  0  0  0  0  0  0  0  0
   -0.6794    1.7366   -0.3971 C   0  0  0  0  0  0  0  0  0  0  0  0
   -2.2174   -1.8702   -0.0453 C   0  0  0  0  0  0  0  0  0  0  0  0
   -1.7416    1.8527   -1.2939 C   0  0  0  0  0  0  0  0  0  0  0  0
   -0.9217    1.7500    0.9765 C   0  0  0  0  0  0  0  0  0  0  0  0
   -2.7409   -2.0146   -1.3302 C   0  0  0  0  0  0  0  0  0  0  0  0
   -3.0702   -1.6331    1.0326 C   0  0  0  0  0  0  0  0  0  0  0  0
   -3.0461    1.9822   -0.8171 C   0  0  0  0  0  0  0  0  0  0  0  0
   -2.2261    1.8795    1.4533 C   0  0  0  0  0  0  0  0  0  0  0  0
   -3.2883    1.9956    0.5566 C   0  0  0  0  0  0  0  0  0  0  0  0
   -4.1173   -1.9217   -1.5371 C   0  0  0  0  0  0  0  0  0  0  0  0
   -4.4465   -1.5402    0.8258 C   0  0  0  0  0  0  0  0  0  0  0  0
   -4.9701   -1.6844   -0.4591 C   0  0  0  0  0  0  0  0  0  0  0  0
   -5.5993    2.2366    0.0504 C   0  0  0  0  0  0  0  0  0  0  0  0
    3.8060    1.6266    1.5579 H   0  0  0  0  0  0  0  0  0  0  0  0
    2.9979   -0.5610   -1.2928 H   0  0  0  0  0  0  0  0  0  0  0  0
    5.7910    2.0899    0.0011 H   0  0  0  0  0  0  0  0  0  0  0  0
    5.1098   -1.8303   -1.6178 H   0  0  0  0  0  0  0  0  0  0  0  0
    5.4696   -1.7167    0.1074 H   0  0  0  0  0  0  0  0  0  0  0  0
    6.7534   -0.0266   -1.0530 H   0  0  0  0  0  0  0  0  0  0  0  0
    5.3200    0.5884   -1.8794 H   0  0  0  0  0  0  0  0  0  0  0  0
    3.3241   -2.7928    0.7733 H   0  0  0  0  0  0  0  0  0  0  0  0
    2.9283   -3.0229   -0.9306 H   0  0  0  0  0  0  0  0  0  0  0  0
    3.2137    1.6515   -1.4509 H   0  0  0  0  0  0  0  0  0  0  0  0
    3.4747    3.0493   -0.4118 H   0  0  0  0  0  0  0  0  0  0  0  0
    7.0555    0.6051    1.1393 H   0  0  0  0  0  0  0  0  0  0  0  0
    1.4924    2.5235    0.8051 H   0  0  0  0  0  0  0  0  0  0  0  0
    0.2901   -2.3434   -1.7120 H   0  0  0  0  0  0  0  0  0  0  0  0
   -1.5719    1.8471   -2.3675 H   0  0  0  0  0  0  0  0  0  0  0  0
   -0.1270    1.6297    1.7066 H   0  0  0  0  0  0  0  0  0  0  0  0
   -2.1018   -2.1983   -2.1899 H   0  0  0  0  0  0  0  0  0  0  0  0
   -2.7008   -1.5144    2.0480 H   0  0  0  0  0  0  0  0  0  0  0  0
   -3.8238    2.0679   -1.5682 H   0  0  0  0  0  0  0  0  0  0  0  0
   -2.4100    1.8808    2.5242 H   0  0  0  0  0  0  0  0  0  0  0  0
   -4.5251   -2.0325   -2.5376 H   0  0  0  0  0  0  0  0  0  0  0  0
   -5.1107   -1.3531    1.6644 H   0  0  0  0  0  0  0  0  0  0  0  0
   -6.0415   -1.6100   -0.6202 H   0  0  0  0  0  0  0  0  0  0  0  0
   -6.5447    2.3202    0.5963 H   0  0  0  0  0  0  0  0  0  0  0  0
   -5.6704    1.3414   -0.5755 H   0  0  0  0  0  0  0  0  0  0  0  0
   -5.4918    3.1495   -0.5452 H   0  0  0  0  0  0  0  0  0  0  0  0
  1  8  1  0  0  0  0
  1  9  1  0  0  0  0
  2 10  1  0  0  0  0
  2 43  1  0  0  0  0
  3  7  1  0  0  0  0
  3 18  1  0  0  0  0
  4 17  2  0  0  0  0
  5 27  1  0  0  0  0
  5 31  1  0  0  0  0
  6 14  1  0  0  0  0
  6 17  1  0  0  0  0
  6 44  1  0  0  0  0
  7 15  2  0  0  0  0
  8 10  1  0  0  0  0
  8 14  1  0  0  0  0
  8 32  1  0  0  0  0
  9 11  1  0  0  0  0
  9 13  1  0  0  0  0
  9 33  1  0  0  0  0
 10 12  1  0  0  0  0
 10 34  1  0  0  0  0
 11 12  1  0  0  0  0
 11 35  1  0  0  0  0
 11 36  1  0  0  0  0
 12 37  1  0  0  0  0
 12 38  1  0  0  0  0
 13 15  1  0  0  0  0
 13 39  1  0  0  0  0
 13 40  1  0  0  0  0
 14 41  1  0  0  0  0
 14 42  1  0  0  0  0
 15 16  1  0  0  0  0
 16 18  2  0  0  0  0
 16 45  1  0  0  0  0
 17 19  1  0  0  0  0
 18 20  1  0  0  0  0
 19 21  2  0  0  0  0
 19 22  1  0  0  0  0
 20 23  2  0  0  0  0
 20 24  1  0  0  0  0
 21 25  1  0  0  0  0
 21 46  1  0  0  0  0
 22 26  2  0  0  0  0
 22 47  1  0  0  0  0
 23 28  1  0  0  0  0
 23 48  1  0  0  0  0
 24 29  2  0  0  0  0
 24 49  1  0  0  0  0
 25 27  2  0  0  0  0
 25 50  1  0  0  0  0
 26 27  1  0  0  0  0
 26 51  1  0  0  0  0
 28 30  2  0  0  0  0
 28 52  1  0  0  0  0
 29 30  1  0  0  0  0
 29 53  1  0  0  0  0
 30 54  1  0  0  0  0
 31 55  1  0  0  0  0
 31 56  1  0  0  0  0
 31 57  1  0  0  0  0
M  END
> <PUBCHEM_COMPOUND_CID>
75536302

> <PUBCHEM_CONFORMER_RMSD>
1.2

> <PUBCHEM_CONFORMER_DIVERSEORDER>
1
84
89
40
19
72
75
86
67
59
3
60
23
17
18
56
45
53
52
76
54
88
32
63
79
85
8
77
43
37
71
50
25
69
61
87
64
33
73
2
78
66
35
91
44
31
41
28
6
55
30
47
16
48
21
70
51
13
14
26
74
46
4
34
82
29
49
24
90
92
42
58
12
57
93
15
10
62
68
22
20
36
7
80
38
9
81
39
27
83
11
5
65

> <PUBCHEM_MMFF94_PARTIAL_CHARGES>
41
1 -0.56
10 0.28
13 0.18
14 0.3
15 0.11
16 -0.15
17 0.54
18 0.09
19 0.09
2 -0.68
20 0.05
21 -0.15
22 -0.15
23 -0.15
24 -0.15
25 -0.15
26 -0.15
27 0.08
28 -0.15
29 -0.15
3 -0.02
30 -0.15
31 0.28
4 -0.57
43 0.4
44 0.37
45 0.15
46 0.15
47 0.15
48 0.15
49 0.15
5 -0.36
50 0.15
51 0.15
52 0.15
53 0.15
54 0.15
6 -0.73
7 -0.41
8 0.28
9 0.28

> <PUBCHEM_EFFECTIVE_ROTOR_COUNT>
9.2

> <PUBCHEM_PHARMACOPHORE_FEATURES>
11
1 1 acceptor
1 2 acceptor
1 2 donor
1 4 acceptor
1 5 acceptor
1 6 donor
1 7 acceptor
5 3 7 15 16 18 rings
6 1 8 9 10 11 12 rings
6 19 21 22 25 26 27 rings
6 20 23 24 28 29 30 rings

> <PUBCHEM_HEAVY_ATOM_COUNT>
31

> <PUBCHEM_ATOM_DEF_STEREO_COUNT>
3

> <PUBCHEM_ATOM_UDEF_STEREO_COUNT>
0

> <PUBCHEM_BOND_DEF_STEREO_COUNT>
0

> <PUBCHEM_BOND_UDEF_STEREO_COUNT>
0

> <PUBCHEM_ISOTOPIC_ATOM_COUNT>
0

> <PUBCHEM_COMPONENT_COUNT>
1

> <PUBCHEM_CACTVS_TAUTO_COUNT>
2

> <PUBCHEM_CONFORMER_ID>
048097AE00000001

> <PUBCHEM_MMFF94_ENERGY>
73.2627

> <PUBCHEM_FEATURE_SELFOVERLAP>
55.826

> <PUBCHEM_SHAPE_FINGERPRINT>
10670039 82 18261405455447816662
1100329 8 18266460910637335441
11513181 2 18201720613379615191
11578080 2 16199055837039440795
12107698 1 18343300396914586166
12422481 6 18194150515045950819
12467345 10 18413673500156728253
12788726 201 18124895687384486261
13140716 1 18192147101433293674
13583140 156 14562818793580731342
14464042 87 18340486763717630983
144659 39 17988931046145593373
14840074 17 18270406112776626319
15297060 5 17917152689258890979
15484559 13 17039202348236786333
15575132 122 18342741827411166167
17357779 13 18336261344616084494
17492 54 18119513364019329437
20691752 17 17749108864061200398
21236236 1 18410856568667554638
21623110 236 18410294683808188849
21673915 165 18410293618445244380
21857420 4 15185668160293036398
23227448 37 18336829680664008863
23559900 14 18343294894539812233
3027735 51 18410576210076749699
3052486 1 18260552221323300334
338550 245 18334304187848289260
350125 39 18410580603759585161
392239 28 18202004360636254600
4340502 62 18341342080985934625
469060 322 17312822675692292999
508706 21 18260274052922891898
5171179 24 17701524324489109409
57527585 103 17532674483984835795
6287921 2 17267233402221769979

> <PUBCHEM_SHAPE_MULTIPOLES>
598.66
11.99
3.63
1.42
7.69
0.06
0.07
-1.61
-0.26
-2.81
0.02
-0.38
0
-0.49

> <PUBCHEM_SHAPE_SELFOVERLAP>
1290.081

> <PUBCHEM_SHAPE_VOLUME>
329.3

> <PUBCHEM_COORDINATE_TYPE>
2
5
10

$$$$
