11885917
  -OEChem-12032416223D

 60 63  0     1  0  0  0  0  0999 V2000
    0.9000    1.3755    2.5184 O   0  0  0  0  0  0  0  0  0  0  0  0
   -2.2247   -0.1131   -2.2816 O   0  0  0  0  0  0  0  0  0  0  0  0
    4.0439    0.4509   -1.0473 O   0  0  0  0  0  0  0  0  0  0  0  0
    5.6661   -1.8506   -0.5277 O   0  0  0  0  0  0  0  0  0  0  0  0
   -1.4788   -5.9055    0.6370 O   0  0  0  0  0  0  0  0  0  0  0  0
   -2.8730    1.5591   -0.8186 N   0  0  0  0  0  0  0  0  0  0  0  0
   -0.2907    2.4943    0.8477 N   0  0  0  0  0  0  0  0  0  0  0  0
   -3.2503   -0.7091   -0.2878 N   0  0  0  0  0  0  0  0  0  0  0  0
    3.1709    1.1864    0.9829 N   0  0  0  0  0  0  0  0  0  0  0  0
   -2.7462    3.1631    1.1080 C   0  0  1  0  0  0  0  0  0  0  0  0
   -1.5606    3.6733   -0.9807 C   0  0  2  0  0  0  0  0  0  0  0  0
   -2.4062    4.2826    0.1340 C   0  0  0  0  0  0  0  0  0  0  0  0
   -3.5319    2.0371    0.4076 C   0  0  0  0  0  0  0  0  0  0  0  0
   -1.4472    2.6468    1.7393 C   0  0  0  0  0  0  0  0  0  0  0  0
   -2.3906    2.6113   -1.7219 C   0  0  0  0  0  0  0  0  0  0  0  0
   -0.2903    3.0484   -0.4359 C   0  0  0  0  0  0  0  0  0  0  0  0
    0.8194    3.0006   -1.1921 C   0  0  0  0  0  0  0  0  0  0  0  0
    0.8471    1.8607    1.3874 C   0  0  0  0  0  0  0  0  0  0  0  0
   -2.7372    0.2067   -1.2060 C   0  0  0  0  0  0  0  0  0  0  0  0
    2.0544    1.8055    0.5035 C   0  0  0  0  0  0  0  0  0  0  0  0
    2.0131    2.3644   -0.7106 C   0  0  0  0  0  0  0  0  0  0  0  0
   -2.7985   -2.0310   -0.0514 C   0  0  0  0  0  0  0  0  0  0  0  0
    4.1019    0.5431    0.1763 C   0  0  0  0  0  0  0  0  0  0  0  0
   -3.4273   -2.8214    0.9108 C   0  0  0  0  0  0  0  0  0  0  0  0
   -1.7259   -2.5425   -0.7817 C   0  0  0  0  0  0  0  0  0  0  0  0
    5.2342   -0.0492    1.0021 C   0  0  0  0  0  0  0  0  0  0  0  0
   -2.9834   -4.1231    1.1426 C   0  0  0  0  0  0  0  0  0  0  0  0
   -1.2819   -3.8442   -0.5499 C   0  0  0  0  0  0  0  0  0  0  0  0
    6.2766   -0.7634    0.1555 C   0  0  0  0  0  0  0  0  0  0  0  0
   -1.9106   -4.6346    0.4123 C   0  0  0  0  0  0  0  0  0  0  0  0
    6.6049   -2.5569   -1.3272 C   0  0  0  0  0  0  0  0  0  0  0  0
   -0.3773   -6.3649   -0.1450 C   0  0  0  0  0  0  0  0  0  0  0  0
   -3.3817    3.5570    1.9111 H   0  0  0  0  0  0  0  0  0  0  0  0
   -1.3049    4.4709   -1.6905 H   0  0  0  0  0  0  0  0  0  0  0  0
   -3.3220    4.7262   -0.2753 H   0  0  0  0  0  0  0  0  0  0  0  0
   -1.8592    5.0861    0.6430 H   0  0  0  0  0  0  0  0  0  0  0  0
   -4.5175    2.4090    0.1022 H   0  0  0  0  0  0  0  0  0  0  0  0
   -3.6989    1.2346    1.1279 H   0  0  0  0  0  0  0  0  0  0  0  0
   -1.6217    1.6931    2.2532 H   0  0  0  0  0  0  0  0  0  0  0  0
   -1.1289    3.3541    2.5175 H   0  0  0  0  0  0  0  0  0  0  0  0
   -1.8104    2.1812   -2.5456 H   0  0  0  0  0  0  0  0  0  0  0  0
   -3.2793    3.0737   -2.1695 H   0  0  0  0  0  0  0  0  0  0  0  0
    0.8422    3.4167   -2.1938 H   0  0  0  0  0  0  0  0  0  0  0  0
    2.8607    2.4134   -1.3838 H   0  0  0  0  0  0  0  0  0  0  0  0
   -4.0239   -0.4173    0.2999 H   0  0  0  0  0  0  0  0  0  0  0  0
    3.1999    1.0042    1.9831 H   0  0  0  0  0  0  0  0  0  0  0  0
   -4.2643   -2.4350    1.4867 H   0  0  0  0  0  0  0  0  0  0  0  0
   -1.1806   -1.9689   -1.5211 H   0  0  0  0  0  0  0  0  0  0  0  0
    5.7083    0.7577    1.5719 H   0  0  0  0  0  0  0  0  0  0  0  0
    4.7883   -0.7591    1.7094 H   0  0  0  0  0  0  0  0  0  0  0  0
   -3.4773   -4.7344    1.8930 H   0  0  0  0  0  0  0  0  0  0  0  0
   -0.4402   -4.1771   -1.1478 H   0  0  0  0  0  0  0  0  0  0  0  0
    6.7110   -0.0700   -0.5745 H   0  0  0  0  0  0  0  0  0  0  0  0
    7.0762   -1.1402    0.8035 H   0  0  0  0  0  0  0  0  0  0  0  0
    7.0305   -1.8986   -2.0906 H   0  0  0  0  0  0  0  0  0  0  0  0
    7.4008   -2.9766   -0.7043 H   0  0  0  0  0  0  0  0  0  0  0  0
    6.0831   -3.3778   -1.8262 H   0  0  0  0  0  0  0  0  0  0  0  0
    0.5282   -5.7813    0.0534 H   0  0  0  0  0  0  0  0  0  0  0  0
   -0.1682   -7.3942    0.1646 H   0  0  0  0  0  0  0  0  0  0  0  0
   -0.6259   -6.3962   -1.2112 H   0  0  0  0  0  0  0  0  0  0  0  0
  1 18  2  0  0  0  0
  2 19  2  0  0  0  0
  3 23  2  0  0  0  0
  4 29  1  0  0  0  0
  4 31  1  0  0  0  0
  5 30  1  0  0  0  0
  5 32  1  0  0  0  0
  6 13  1  0  0  0  0
  6 15  1  0  0  0  0
  6 19  1  0  0  0  0
  7 14  1  0  0  0  0
  7 16  1  0  0  0  0
  7 18  1  0  0  0  0
  8 19  1  0  0  0  0
  8 22  1  0  0  0  0
  8 45  1  0  0  0  0
  9 20  1  0  0  0  0
  9 23  1  0  0  0  0
  9 46  1  0  0  0  0
 10 12  1  0  0  0  0
 10 13  1  0  0  0  0
 10 14  1  0  0  0  0
 10 33  1  0  0  0  0
 11 12  1  0  0  0  0
 11 15  1  0  0  0  0
 11 16  1  0  0  0  0
 11 34  1  0  0  0  0
 12 35  1  0  0  0  0
 12 36  1  0  0  0  0
 13 37  1  0  0  0  0
 13 38  1  0  0  0  0
 14 39  1  0  0  0  0
 14 40  1  0  0  0  0
 15 41  1  0  0  0  0
 15 42  1  0  0  0  0
 16 17  2  0  0  0  0
 17 21  1  0  0  0  0
 17 43  1  0  0  0  0
 18 20  1  0  0  0  0
 20 21  2  0  0  0  0
 21 44  1  0  0  0  0
 22 24  2  0  0  0  0
 22 25  1  0  0  0  0
 23 26  1  0  0  0  0
 24 27  1  0  0  0  0
 24 47  1  0  0  0  0
 25 28  2  0  0  0  0
 25 48  1  0  0  0  0
 26 29  1  0  0  0  0
 26 49  1  0  0  0  0
 26 50  1  0  0  0  0
 27 30  2  0  0  0  0
 27 51  1  0  0  0  0
 28 30  1  0  0  0  0
 28 52  1  0  0  0  0
 29 53  1  0  0  0  0
 29 54  1  0  0  0  0
 31 55  1  0  0  0  0
 31 56  1  0  0  0  0
 31 57  1  0  0  0  0
 32 58  1  0  0  0  0
 32 59  1  0  0  0  0
 32 60  1  0  0  0  0
M  END
> <PUBCHEM_COMPOUND_CID>
11885917

> <PUBCHEM_CONFORMER_RMSD>
1

> <PUBCHEM_CONFORMER_DIVERSEORDER>
1
30
51
9
33
49
10
28
40
41
54
18
32
53
46
6
23
14
34
5
24
37
29
25
12
21
52
26
7
19
43
35
38
47
15
22
13
20
36
31
48
50
16
39
17
42
3
11
27
4
44
8
45
2

> <PUBCHEM_MMFF94_PARTIAL_CHARGES>
38
1 -0.57
11 0.14
13 0.3
14 0.3
15 0.3
16 -0.03
17 -0.15
18 0.62
19 0.69
2 -0.57
20 0.12
21 -0.15
22 0.12
23 0.57
24 -0.15
25 -0.15
26 0.06
27 -0.15
28 -0.15
29 0.28
3 -0.57
30 0.08
31 0.28
32 0.28
4 -0.56
43 0.15
44 0.15
45 0.37
46 0.37
47 0.15
48 0.15
5 -0.36
51 0.15
52 0.15
6 -0.66
7 -0.47
8 -0.55
9 -0.54

> <PUBCHEM_EFFECTIVE_ROTOR_COUNT>
10

> <PUBCHEM_PHARMACOPHORE_FEATURES>
11
1 1 acceptor
1 2 acceptor
1 3 acceptor
1 4 acceptor
1 5 acceptor
1 8 donor
1 9 donor
6 22 24 25 27 28 30 rings
6 6 10 11 12 13 15 rings
6 7 10 11 12 14 16 rings
6 7 16 17 18 20 21 rings

> <PUBCHEM_HEAVY_ATOM_COUNT>
32

> <PUBCHEM_ATOM_DEF_STEREO_COUNT>
2

> <PUBCHEM_ATOM_UDEF_STEREO_COUNT>
0

> <PUBCHEM_BOND_DEF_STEREO_COUNT>
0

> <PUBCHEM_BOND_UDEF_STEREO_COUNT>
0

> <PUBCHEM_ISOTOPIC_ATOM_COUNT>
0

> <PUBCHEM_COMPONENT_COUNT>
1

> <PUBCHEM_CACTVS_TAUTO_COUNT>
4

> <PUBCHEM_CONFORMER_ID>
00B55D5D00000001

> <PUBCHEM_MMFF94_ENERGY>
101.7072

> <PUBCHEM_FEATURE_SELFOVERLAP>
57.379

> <PUBCHEM_SHAPE_FINGERPRINT>
10462674 296 17408513405430592910
12107183 9 17907034107714937755
12712778 12 18267558313657904186
12969540 37 17329425559275871809
13533116 47 16321756228231826915
14251757 5 18409443674651143682
14415361 192 16176537546628756172
14444916 359 18124328111629526049
14725015 67 18342170060169266015
150020 26 17841156859424654922
15419008 42 16534500668497151439
15439362 3 17183340621889568621
15664445 248 15440134759744495757
15927050 60 17981597179356484077
16719943 64 18266456499680035838
17627616 140 17689719658199428062
17909252 39 18121222249528080320
19958102 18 18266170631262478812
20609170 114 18192690445968317944
20771845 38 18267588996782765891
20775438 99 16756294106828130407
20775530 9 18050002499896799182
21133410 230 18118144510571132491
22956985 138 17832447306299407017
23379529 103 18337110193441412192
23428019 142 18339077065373120422
23466295 7 18410298033582051472
23516275 137 17400669033830963762
23523788 1 17466836655727251953
3383291 50 18411128143866467555
3737641 26 17690287426857988741
404807 14 18127403682298591503
4435113 14 17987533520081473718
5265222 85 18265900146902214148
56633871 153 18122349244482947219
70634741 139 18341900684758934932

> <PUBCHEM_SHAPE_MULTIPOLES>
609.27
10.04
8.94
1.66
24.74
14.42
-0.1
4.76
1.2
-8.47
-0.61
-0.25
-0.85
1.57

> <PUBCHEM_SHAPE_SELFOVERLAP>
1302.659

> <PUBCHEM_SHAPE_VOLUME>
330.1

> <PUBCHEM_COORDINATE_TYPE>
2
5
10

$$$$
