44716918
  -OEChem-12032416193D

 73 75  0     1  0  0  0  0  0999 V2000
    5.8385   -3.1293   -2.8858 F   0  0  0  0  0  0  0  0  0  0  0  0
   -4.1357   -0.2364   -0.3742 O   0  0  0  0  0  0  0  0  0  0  0  0
    1.7056    3.9983    0.2618 O   0  0  0  0  0  0  0  0  0  0  0  0
   -4.4512    2.1720   -1.6540 O   0  0  0  0  0  0  0  0  0  0  0  0
    4.3169    1.7613    1.7205 O   0  0  0  0  0  0  0  0  0  0  0  0
   -3.7827   -2.4875   -0.0864 O   0  0  0  0  0  0  0  0  0  0  0  0
    3.3153   -0.2895    2.1591 N   0  0  0  0  0  0  0  0  0  0  0  0
   -5.9184   -1.6044   -0.2908 N   0  0  0  0  0  0  0  0  0  0  0  0
   -0.3222    1.6162    0.5552 C   0  0  2  0  0  0  0  0  0  0  0  0
   -0.7848    1.5224   -0.9502 C   0  0  1  0  0  0  0  0  0  0  0  0
   -2.3099    1.2127   -1.2037 C   0  0  1  0  0  0  0  0  0  0  0  0
    1.2629    1.6084    0.5533 C   0  0  1  0  0  0  0  0  0  0  0  0
   -0.8377    0.3596    1.3070 C   0  0  0  0  0  0  0  0  0  0  0  0
   -0.2208    2.7004   -1.7748 C   0  0  0  0  0  0  0  0  0  0  0  0
   -2.7262   -0.0139   -0.3366 C   0  0  1  0  0  0  0  0  0  0  0  0
    1.8826    2.7155   -0.3308 C   0  0  1  0  0  0  0  0  0  0  0  0
   -2.3306    0.1068    1.1309 C   0  0  0  0  0  0  0  0  0  0  0  0
    1.3081    2.7170   -1.7445 C   0  0  0  0  0  0  0  0  0  0  0  0
   -0.8585    2.8680    1.2915 C   0  0  0  0  0  0  0  0  0  0  0  0
   -3.2454    2.4151   -0.9633 C   0  0  0  0  0  0  0  0  0  0  0  0
   -2.5075    0.8163   -2.6958 C   0  0  0  0  0  0  0  0  0  0  0  0
    1.9114    1.6297    1.9469 C   0  0  0  0  0  0  0  0  0  0  0  0
    3.3172    1.0776    1.9237 C   0  0  0  0  0  0  0  0  0  0  0  0
   -4.5422   -1.5358   -0.2360 C   0  0  0  0  0  0  0  0  0  0  0  0
    4.5205   -1.0860    2.1929 C   0  0  0  0  0  0  0  0  0  0  0  0
   -6.6654   -2.8356   -0.1763 C   0  0  0  0  0  0  0  0  0  0  0  0
    4.8720   -1.6308    0.8387 C   0  0  0  0  0  0  0  0  0  0  0  0
   -7.0295   -3.1617    1.2672 C   0  0  0  0  0  0  0  0  0  0  0  0
    4.3769   -2.8712    0.4359 C   0  0  0  0  0  0  0  0  0  0  0  0
    5.6940   -0.8970   -0.0166 C   0  0  0  0  0  0  0  0  0  0  0  0
   -7.9039   -2.0938    1.9088 C   0  0  0  0  0  0  0  0  0  0  0  0
    4.7038   -3.3777   -0.8220 C   0  0  0  0  0  0  0  0  0  0  0  0
    6.0209   -1.4032   -1.2743 C   0  0  0  0  0  0  0  0  0  0  0  0
    5.5260   -2.6436   -1.6771 C   0  0  0  0  0  0  0  0  0  0  0  0
   -0.2691    0.6296   -1.3432 H   0  0  0  0  0  0  0  0  0  0  0  0
    1.5567    0.6571    0.0824 H   0  0  0  0  0  0  0  0  0  0  0  0
   -0.2931   -0.5277    0.9577 H   0  0  0  0  0  0  0  0  0  0  0  0
   -0.6430    0.4392    2.3821 H   0  0  0  0  0  0  0  0  0  0  0  0
   -0.5247    2.6206   -2.8232 H   0  0  0  0  0  0  0  0  0  0  0  0
   -0.6054    3.6600   -1.4168 H   0  0  0  0  0  0  0  0  0  0  0  0
   -2.2021   -0.8853   -0.7559 H   0  0  0  0  0  0  0  0  0  0  0  0
    2.9641    2.5575   -0.4105 H   0  0  0  0  0  0  0  0  0  0  0  0
   -2.9247    0.8825    1.6266 H   0  0  0  0  0  0  0  0  0  0  0  0
   -2.5908   -0.8169    1.6632 H   0  0  0  0  0  0  0  0  0  0  0  0
    1.6592    3.5983   -2.2944 H   0  0  0  0  0  0  0  0  0  0  0  0
    1.6791    1.8345   -2.2809 H   0  0  0  0  0  0  0  0  0  0  0  0
   -0.4015    2.9701    2.2816 H   0  0  0  0  0  0  0  0  0  0  0  0
   -1.9333    2.8252    1.4687 H   0  0  0  0  0  0  0  0  0  0  0  0
   -0.6713    3.7966    0.7497 H   0  0  0  0  0  0  0  0  0  0  0  0
   -3.4851    2.5605    0.0908 H   0  0  0  0  0  0  0  0  0  0  0  0
   -2.8249    3.3442   -1.3565 H   0  0  0  0  0  0  0  0  0  0  0  0
   -3.4772    0.3392   -2.8794 H   0  0  0  0  0  0  0  0  0  0  0  0
   -1.7479    0.0901   -3.0087 H   0  0  0  0  0  0  0  0  0  0  0  0
   -2.4317    1.6792   -3.3662 H   0  0  0  0  0  0  0  0  0  0  0  0
    1.9611    2.6446    2.3579 H   0  0  0  0  0  0  0  0  0  0  0  0
    1.3363    1.0508    2.6749 H   0  0  0  0  0  0  0  0  0  0  0  0
    2.1394    4.6520   -0.3125 H   0  0  0  0  0  0  0  0  0  0  0  0
   -5.0320    2.9365   -1.5007 H   0  0  0  0  0  0  0  0  0  0  0  0
    2.4315   -0.7748    2.2835 H   0  0  0  0  0  0  0  0  0  0  0  0
   -6.4349   -0.7389   -0.4149 H   0  0  0  0  0  0  0  0  0  0  0  0
    4.3560   -1.9023    2.9053 H   0  0  0  0  0  0  0  0  0  0  0  0
    5.3461   -0.4814    2.5867 H   0  0  0  0  0  0  0  0  0  0  0  0
   -7.5688   -2.7256   -0.7853 H   0  0  0  0  0  0  0  0  0  0  0  0
   -6.0698   -3.6520   -0.5992 H   0  0  0  0  0  0  0  0  0  0  0  0
   -6.1182   -3.2813    1.8651 H   0  0  0  0  0  0  0  0  0  0  0  0
   -7.5605   -4.1202    1.2927 H   0  0  0  0  0  0  0  0  0  0  0  0
    3.7340   -3.4516    1.0923 H   0  0  0  0  0  0  0  0  0  0  0  0
    6.0891    0.0693    0.2846 H   0  0  0  0  0  0  0  0  0  0  0  0
   -7.3787   -1.1366    1.9832 H   0  0  0  0  0  0  0  0  0  0  0  0
   -8.8219   -1.9405    1.3326 H   0  0  0  0  0  0  0  0  0  0  0  0
   -8.1867   -2.3985    2.9215 H   0  0  0  0  0  0  0  0  0  0  0  0
    4.3180   -4.3429   -1.1363 H   0  0  0  0  0  0  0  0  0  0  0  0
    6.6609   -0.8322   -1.9403 H   0  0  0  0  0  0  0  0  0  0  0  0
  1 34  1  0  0  0  0
  2 15  1  0  0  0  0
  2 24  1  0  0  0  0
  3 16  1  0  0  0  0
  3 57  1  0  0  0  0
  4 20  1  0  0  0  0
  4 58  1  0  0  0  0
  5 23  2  0  0  0  0
  6 24  2  0  0  0  0
  7 23  1  0  0  0  0
  7 25  1  0  0  0  0
  7 59  1  0  0  0  0
  8 24  1  0  0  0  0
  8 26  1  0  0  0  0
  8 60  1  0  0  0  0
  9 10  1  0  0  0  0
  9 12  1  0  0  0  0
  9 13  1  0  0  0  0
  9 19  1  0  0  0  0
 10 11  1  0  0  0  0
 10 14  1  0  0  0  0
 10 35  1  0  0  0  0
 11 15  1  0  0  0  0
 11 20  1  0  0  0  0
 11 21  1  0  0  0  0
 12 16  1  0  0  0  0
 12 22  1  0  0  0  0
 12 36  1  0  0  0  0
 13 17  1  0  0  0  0
 13 37  1  0  0  0  0
 13 38  1  0  0  0  0
 14 18  1  0  0  0  0
 14 39  1  0  0  0  0
 14 40  1  0  0  0  0
 15 17  1  0  0  0  0
 15 41  1  0  0  0  0
 16 18  1  0  0  0  0
 16 42  1  0  0  0  0
 17 43  1  0  0  0  0
 17 44  1  0  0  0  0
 18 45  1  0  0  0  0
 18 46  1  0  0  0  0
 19 47  1  0  0  0  0
 19 48  1  0  0  0  0
 19 49  1  0  0  0  0
 20 50  1  0  0  0  0
 20 51  1  0  0  0  0
 21 52  1  0  0  0  0
 21 53  1  0  0  0  0
 21 54  1  0  0  0  0
 22 23  1  0  0  0  0
 22 55  1  0  0  0  0
 22 56  1  0  0  0  0
 25 27  1  0  0  0  0
 25 61  1  0  0  0  0
 25 62  1  0  0  0  0
 26 28  1  0  0  0  0
 26 63  1  0  0  0  0
 26 64  1  0  0  0  0
 27 29  2  0  0  0  0
 27 30  1  0  0  0  0
 28 31  1  0  0  0  0
 28 65  1  0  0  0  0
 28 66  1  0  0  0  0
 29 32  1  0  0  0  0
 29 67  1  0  0  0  0
 30 33  2  0  0  0  0
 30 68  1  0  0  0  0
 31 69  1  0  0  0  0
 31 70  1  0  0  0  0
 31 71  1  0  0  0  0
 32 34  2  0  0  0  0
 32 72  1  0  0  0  0
 33 34  1  0  0  0  0
 33 73  1  0  0  0  0
M  END
> <PUBCHEM_COMPOUND_CID>
44716918

> <PUBCHEM_CONFORMER_RMSD>
1.2

> <PUBCHEM_CONFORMER_DIVERSEORDER>
1
52
42
41
12
57
31
47
30
20
46
9
48
56
16
34
44
32
51
50
10
24
38
27
33
53
22
13
54
58
45
36
43
15
29
8
14
5
55
25
37
49
21
23
26
39
2
19
28
40
7
17
35
4
6
18
11
3

> <PUBCHEM_MMFF94_PARTIAL_CHARGES>
30
1 -0.19
15 0.28
16 0.28
2 -0.43
20 0.28
22 0.06
23 0.57
24 0.78
25 0.44
26 0.3
27 -0.14
29 -0.15
3 -0.68
30 -0.15
32 -0.15
33 -0.15
34 0.19
4 -0.68
5 -0.57
57 0.4
58 0.4
59 0.37
6 -0.57
60 0.37
67 0.15
68 0.15
7 -0.73
72 0.15
73 0.15
8 -0.73

> <PUBCHEM_EFFECTIVE_ROTOR_COUNT>
12.6

> <PUBCHEM_PHARMACOPHORE_FEATURES>
12
1 3 acceptor
1 3 donor
1 31 hydrophobe
1 4 acceptor
1 4 donor
1 5 acceptor
1 6 acceptor
1 7 donor
1 8 donor
6 27 29 30 32 33 34 rings
6 9 10 11 13 15 17 rings
6 9 10 12 14 16 18 rings

> <PUBCHEM_HEAVY_ATOM_COUNT>
34

> <PUBCHEM_ATOM_DEF_STEREO_COUNT>
5

> <PUBCHEM_ATOM_UDEF_STEREO_COUNT>
1

> <PUBCHEM_BOND_DEF_STEREO_COUNT>
0

> <PUBCHEM_BOND_UDEF_STEREO_COUNT>
0

> <PUBCHEM_ISOTOPIC_ATOM_COUNT>
0

> <PUBCHEM_COMPONENT_COUNT>
1

> <PUBCHEM_CACTVS_TAUTO_COUNT>
4

> <PUBCHEM_CONFORMER_ID>
02AA537600000001

> <PUBCHEM_MMFF94_ENERGY>
93.4218

> <PUBCHEM_FEATURE_SELFOVERLAP>
60.911

> <PUBCHEM_SHAPE_FINGERPRINT>
10883706 89 17560816390162181475
10981352 41 18270953665510012367
11607047 141 18269851950948310905
117089 54 17558563409217263542
12047536 79 16845299332187363081
12422481 6 14692572074732890584
12623949 98 18336540641748853445
12633257 1 15051722119070413440
13383661 66 18341618105011064642
1361 87 17986394382884905822
13782708 43 18409725205926490327
14040221 304 15142087788322751518
14556957 393 15285624474669034159
14739800 52 9943539495900773781
15475509 35 18131072688005982508
15484559 13 15949374703693379218
15510800 12 18129368329404499826
15669420 48 18334300907474112510
16989378 47 17385724742274407487
20587220 46 17757562128805297723
20715895 44 11386364846843362002
20775530 9 18339630209314740215
21796203 349 16056023638617674970
22864921 267 18202012049086949059
23559900 14 18340475682560011120
23569914 2 8429753774038560783
24893989 43 17608931228899256091
25269216 80 17676210173386917823
2838139 119 10809349948994985720
3862424 121 18335998509687195254
4394409 98 16027309612536240278
4408954 64 17560260040682132867
44344687 77 17387720368805459539
46194498 28 17968928820427895996
86090 222 18412538830128011602
9831232 110 18334289894772361667
9980921 177 17774182145081850171

> <PUBCHEM_SHAPE_MULTIPOLES>
653.12
17.27
4.93
2.45
13.14
0.42
-0.32
25.32
0.57
-0.09
-1.13
-1.93
-0.05
4.69

> <PUBCHEM_SHAPE_SELFOVERLAP>
1351.74

> <PUBCHEM_SHAPE_VOLUME>
371.4

> <PUBCHEM_COORDINATE_TYPE>
2
5
10

$$$$
