51136761
  -OEChem-12032416143D

 61 63  0     1  0  0  0  0  0999 V2000
    0.0430    2.4201    1.8756 S   0  0  0  0  0  0  0  0  0  0  0  0
    0.3965    3.5882    1.1003 O   0  0  0  0  0  0  0  0  0  0  0  0
    1.0481    1.5594    2.4585 O   0  0  0  0  0  0  0  0  0  0  0  0
   -5.9426   -1.2612   -2.3720 O   0  0  0  0  0  0  0  0  0  0  0  0
   -5.9744    0.3874   -0.8030 O   0  0  0  0  0  0  0  0  0  0  0  0
   -1.0389    1.4585    0.9582 N   0  0  1  0  0  0  0  0  0  0  0  0
   -0.1197   -2.9643    0.9000 N   0  0  0  0  0  0  0  0  0  0  0  0
   -2.0380   -0.7724    0.5110 C   0  0  2  0  0  0  0  0  0  0  0  0
   -3.2689   -0.0719   -0.1139 C   0  0  1  0  0  0  0  0  0  0  0  0
   -1.3960    0.1423    1.5664 C   0  0  0  0  0  0  0  0  0  0  0  0
   -2.9104    1.3246   -0.6441 C   0  0  0  0  0  0  0  0  0  0  0  0
   -2.2350    2.1732    0.4286 C   0  0  0  0  0  0  0  0  0  0  0  0
   -0.9915   -1.2294   -0.5134 C   0  0  0  0  0  0  0  0  0  0  0  0
   -3.9462   -0.9044   -1.2022 C   0  0  0  0  0  0  0  0  0  0  0  0
    0.1517   -1.9169    0.1936 C   0  0  0  0  0  0  0  0  0  0  0  0
    1.5204   -1.3582    0.0512 C   0  0  0  0  0  0  0  0  0  0  0  0
   -5.3791   -0.4949   -1.4029 C   0  0  0  0  0  0  0  0  0  0  0  0
    2.4690   -1.7628    0.9991 C   0  0  0  0  0  0  0  0  0  0  0  0
   -1.0599    2.9312    3.1677 C   0  0  0  0  0  0  0  0  0  0  0  0
    2.0450   -2.7060    2.0854 C   0  0  0  0  0  0  0  0  0  0  0  0
    0.9990   -3.6676    1.5370 C   0  0  0  0  0  0  0  0  0  0  0  0
    1.8681   -0.4601   -0.9598 C   0  0  0  0  0  0  0  0  0  0  0  0
    3.1686    0.0429   -1.0153 C   0  0  0  0  0  0  0  0  0  0  0  0
    3.5524    0.9941   -2.0984 C   0  0  0  0  0  0  0  0  0  0  0  0
    3.7646   -1.2414    0.9448 C   0  0  0  0  0  0  0  0  0  0  0  0
    4.1135   -0.3438   -0.0645 C   0  0  0  0  0  0  0  0  0  0  0  0
    4.7115    0.4198   -2.9706 C   0  0  0  0  0  0  0  0  0  0  0  0
    4.0364    2.3556   -1.5100 C   0  0  0  0  0  0  0  0  0  0  0  0
    2.4129    1.3579   -3.1070 C   0  0  0  0  0  0  0  0  0  0  0  0
   -2.4075   -1.6628    1.0389 H   0  0  0  0  0  0  0  0  0  0  0  0
   -3.9858    0.0696    0.7085 H   0  0  0  0  0  0  0  0  0  0  0  0
   -0.5234   -0.3285    2.0246 H   0  0  0  0  0  0  0  0  0  0  0  0
   -2.1204    0.3066    2.3738 H   0  0  0  0  0  0  0  0  0  0  0  0
   -2.2452    1.2410   -1.5123 H   0  0  0  0  0  0  0  0  0  0  0  0
   -3.8071    1.8498   -0.9915 H   0  0  0  0  0  0  0  0  0  0  0  0
   -2.9504    2.3709    1.2338 H   0  0  0  0  0  0  0  0  0  0  0  0
   -1.9383    3.1284   -0.0165 H   0  0  0  0  0  0  0  0  0  0  0  0
   -0.6873   -0.3804   -1.1197 H   0  0  0  0  0  0  0  0  0  0  0  0
   -1.4266   -1.9650   -1.2006 H   0  0  0  0  0  0  0  0  0  0  0  0
   -3.9572   -1.9597   -0.9044 H   0  0  0  0  0  0  0  0  0  0  0  0
   -3.4158   -0.8112   -2.1563 H   0  0  0  0  0  0  0  0  0  0  0  0
   -1.4738    2.0616    3.6782 H   0  0  0  0  0  0  0  0  0  0  0  0
   -1.8420    3.5754    2.7656 H   0  0  0  0  0  0  0  0  0  0  0  0
   -0.4695    3.5088    3.8845 H   0  0  0  0  0  0  0  0  0  0  0  0
    1.6309   -2.1221    2.9163 H   0  0  0  0  0  0  0  0  0  0  0  0
    2.9004   -3.2767    2.4636 H   0  0  0  0  0  0  0  0  0  0  0  0
    0.6062   -4.2767    2.3584 H   0  0  0  0  0  0  0  0  0  0  0  0
    1.4445   -4.3593    0.8110 H   0  0  0  0  0  0  0  0  0  0  0  0
    1.1464   -0.1924   -1.7163 H   0  0  0  0  0  0  0  0  0  0  0  0
    4.5070   -1.5309    1.6835 H   0  0  0  0  0  0  0  0  0  0  0  0
    5.1299    0.0388   -0.0859 H   0  0  0  0  0  0  0  0  0  0  0  0
    4.9747    1.1049   -3.7849 H   0  0  0  0  0  0  0  0  0  0  0  0
    5.6210    0.2514   -2.3835 H   0  0  0  0  0  0  0  0  0  0  0  0
    4.4240   -0.5393   -3.4173 H   0  0  0  0  0  0  0  0  0  0  0  0
    4.2900    3.0663   -2.3052 H   0  0  0  0  0  0  0  0  0  0  0  0
    3.2555    2.8101   -0.8886 H   0  0  0  0  0  0  0  0  0  0  0  0
    4.9288    2.2382   -0.8856 H   0  0  0  0  0  0  0  0  0  0  0  0
    2.7699    2.0648   -3.8660 H   0  0  0  0  0  0  0  0  0  0  0  0
    2.0507    0.4728   -3.6430 H   0  0  0  0  0  0  0  0  0  0  0  0
    1.5647    1.8346   -2.6015 H   0  0  0  0  0  0  0  0  0  0  0  0
   -6.8804   -1.0202   -2.5295 H   0  0  0  0  0  0  0  0  0  0  0  0
  1  2  2  0  0  0  0
  1  3  2  0  0  0  0
  1  6  1  0  0  0  0
  1 19  1  0  0  0  0
  4 17  1  0  0  0  0
  4 61  1  0  0  0  0
  5 17  2  0  0  0  0
  6 10  1  0  0  0  0
  6 12  1  0  0  0  0
  7 15  2  0  0  0  0
  7 21  1  0  0  0  0
  8  9  1  0  0  0  0
  8 10  1  0  0  0  0
  8 13  1  0  0  0  0
  8 30  1  0  0  0  0
  9 11  1  0  0  0  0
  9 14  1  0  0  0  0
  9 31  1  0  0  0  0
 10 32  1  0  0  0  0
 10 33  1  0  0  0  0
 11 12  1  0  0  0  0
 11 34  1  0  0  0  0
 11 35  1  0  0  0  0
 12 36  1  0  0  0  0
 12 37  1  0  0  0  0
 13 15  1  0  0  0  0
 13 38  1  0  0  0  0
 13 39  1  0  0  0  0
 14 17  1  0  0  0  0
 14 40  1  0  0  0  0
 14 41  1  0  0  0  0
 15 16  1  0  0  0  0
 16 18  2  0  0  0  0
 16 22  1  0  0  0  0
 18 20  1  0  0  0  0
 18 25  1  0  0  0  0
 19 42  1  0  0  0  0
 19 43  1  0  0  0  0
 19 44  1  0  0  0  0
 20 21  1  0  0  0  0
 20 45  1  0  0  0  0
 20 46  1  0  0  0  0
 21 47  1  0  0  0  0
 21 48  1  0  0  0  0
 22 23  2  0  0  0  0
 22 49  1  0  0  0  0
 23 24  1  0  0  0  0
 23 26  1  0  0  0  0
 24 27  1  0  0  0  0
 24 28  1  0  0  0  0
 24 29  1  0  0  0  0
 25 26  2  0  0  0  0
 25 50  1  0  0  0  0
 26 51  1  0  0  0  0
 27 52  1  0  0  0  0
 27 53  1  0  0  0  0
 27 54  1  0  0  0  0
 28 55  1  0  0  0  0
 28 56  1  0  0  0  0
 28 57  1  0  0  0  0
 29 58  1  0  0  0  0
 29 59  1  0  0  0  0
 29 60  1  0  0  0  0
M  END
> <PUBCHEM_COMPOUND_CID>
51136761

> <PUBCHEM_CONFORMER_RMSD>
1

> <PUBCHEM_CONFORMER_DIVERSEORDER>
1
10
95
97
90
119
87
89
22
83
51
77
115
86
45
18
124
12
104
71
102
2
24
57
58
56
85
49
79
88
113
120
107
76
109
26
69
19
28
105
75
14
108
81
55
60
42
101
46
103
20
31
33
13
111
41
92
106
125
118
54
30
121
17
21
47
44
27
68
61
7
93
100
35
66
91
34
32
122
110
80
98
50
99
67
59
11
29
36
53
16
72
82
37
5
74
23
43
117
39
9
78
96
73
15
70
112
4
63
62
94
64
25
40
8
114
3
52
65
123
48
84
38
116
6

> <PUBCHEM_MMFF94_PARTIAL_CHARGES>
27
1 1.33
10 0.36
12 0.36
13 0.06
14 0.06
15 0.3
16 0.09
17 0.66
18 -0.14
19 0.11
2 -0.65
20 0.14
21 0.25
22 -0.15
23 -0.14
24 0.14
25 -0.15
26 -0.15
3 -0.65
4 -0.65
49 0.15
5 -0.57
50 0.15
51 0.15
6 -0.85
61 0.5
7 -0.7

> <PUBCHEM_EFFECTIVE_ROTOR_COUNT>
7.6

> <PUBCHEM_PHARMACOPHORE_FEATURES>
10
1 2 acceptor
1 3 acceptor
1 4 acceptor
1 5 acceptor
1 7 acceptor
3 4 5 17 anion
4 24 27 28 29 hydrophobe
6 16 18 22 23 25 26 rings
6 6 8 9 10 11 12 rings
6 7 15 16 18 20 21 rings

> <PUBCHEM_HEAVY_ATOM_COUNT>
29

> <PUBCHEM_ATOM_DEF_STEREO_COUNT>
2

> <PUBCHEM_ATOM_UDEF_STEREO_COUNT>
0

> <PUBCHEM_BOND_DEF_STEREO_COUNT>
0

> <PUBCHEM_BOND_UDEF_STEREO_COUNT>
0

> <PUBCHEM_ISOTOPIC_ATOM_COUNT>
0

> <PUBCHEM_COMPONENT_COUNT>
1

> <PUBCHEM_CACTVS_TAUTO_COUNT>
1

> <PUBCHEM_CONFORMER_ID>
030C48F900000001

> <PUBCHEM_MMFF94_ENERGY>
77.1783

> <PUBCHEM_FEATURE_SELFOVERLAP>
50.846

> <PUBCHEM_SHAPE_FINGERPRINT>
11640471 11 18121801442778334960
12156800 1 13538211562940750056
12166972 35 18189039915885340874
12633257 1 12469204678375170358
12788726 201 18129668487462152401
13009979 54 17979623542366683234
13149001 5 18055921141030049299
13583140 156 16443074880180928770
13782708 43 15769780121702571334
14068700 675 18194106444386922226
14468879 13 16733277848959715733
14931854 50 18340496654948530860
15475509 8 17131284476242560113
15664445 248 17561077029487342235
17492 54 18341055223618168948
1813 80 17132111364425609805
19026451 147 18131345349694198564
192875 21 18187080611960392618
19319366 153 18335124402354280563
20578428 11 17982992730300280565
20600515 1 17346013654717202563
20642791 105 17825670229736583866
20642791 239 18337681913750122745
20691752 17 18412265055621012896
20715895 44 17895183364698879479
20775438 99 17127867378165009351
2132832 1 18045485426952084571
22182313 1 17979347887692832411
23419403 2 16535605179281223434
23557571 272 17203323369111958835
23559900 14 17895467047046797795
3493558 16 17752758040111842365
35225 105 16671408381747582764
394222 165 17530685420505891218
474 4 17822293465801948574
513532 50 17416956408177896601
57527585 21 17267835169921717188
6669772 16 18051675930972495137
6823239 73 17203886366547390677

> <PUBCHEM_SHAPE_MULTIPOLES>
567.22
9.47
3.71
3.05
8.82
0.76
0.23
-0.77
-9.36
-1.77
2.58
-0.45
-2.06
-3.36

> <PUBCHEM_SHAPE_SELFOVERLAP>
1174.648

> <PUBCHEM_SHAPE_VOLUME>
327.8

> <PUBCHEM_COORDINATE_TYPE>
2
5
10

$$$$
