26742857
  -OEChem-12032416183D

 62 65  0     1  0  0  0  0  0999 V2000
   -8.9882   -1.0088   -0.0800 F   0  0  0  0  0  0  0  0  0  0  0  0
   -7.4380   -0.0126   -1.2546 F   0  0  0  0  0  0  0  0  0  0  0  0
   -7.6510   -2.2114   -1.3215 F   0  0  0  0  0  0  0  0  0  0  0  0
    5.6141    1.8316    0.3791 O   0  0  0  0  0  0  0  0  0  0  0  0
   -0.9410    0.9685    2.3190 O   0  0  0  0  0  0  0  0  0  0  0  0
    3.2397   -3.8365   -1.1362 O   0  0  0  0  0  0  0  0  0  0  0  0
   -6.8430   -1.2367    0.5835 O   0  0  0  0  0  0  0  0  0  0  0  0
   -0.0055    2.3684    0.7353 N   0  0  0  0  0  0  0  0  0  0  0  0
    4.1927    0.8602   -1.1761 N   0  0  0  0  0  0  0  0  0  0  0  0
    4.5337   -2.5386    0.3498 N   0  0  0  0  0  0  0  0  0  0  0  0
   -1.6977    0.8413    0.1297 N   0  0  0  0  0  0  0  0  0  0  0  0
    4.9372   -4.7571    0.1879 N   0  0  0  0  0  0  0  0  0  0  0  0
    1.5404    2.7377   -1.1721 C   0  0  2  0  0  0  0  0  0  0  0  0
    2.5586    3.3461   -0.1763 C   0  0  1  0  0  0  0  0  0  0  0  0
    2.3566    2.8044    1.2526 C   0  0  0  0  0  0  0  0  0  0  0  0
    0.1143    2.9274   -0.6199 C   0  0  0  0  0  0  0  0  0  0  0  0
    1.7754    1.2592   -1.5327 C   0  0  0  0  0  0  0  0  0  0  0  0
    4.0172    3.2680   -0.6447 C   0  0  0  0  0  0  0  0  0  0  0  0
    0.9069    2.9704    1.7088 C   0  0  0  0  0  0  0  0  0  0  0  0
    3.1342    1.0009   -2.1739 C   0  0  0  0  0  0  0  0  0  0  0  0
    4.6877    1.9242   -0.4304 C   0  0  0  0  0  0  0  0  0  0  0  0
    4.7218   -0.4820   -0.9724 C   0  0  0  0  0  0  0  0  0  0  0  0
   -0.9020    1.3611    1.1501 C   0  0  0  0  0  0  0  0  0  0  0  0
    3.9954   -1.2223    0.1381 C   0  0  0  0  0  0  0  0  0  0  0  0
    5.6609   -2.7843    1.2319 C   0  0  0  0  0  0  0  0  0  0  0  0
    5.8478   -4.2937    1.2037 C   0  0  0  0  0  0  0  0  0  0  0  0
    4.1268   -3.7195   -0.3011 C   0  0  0  0  0  0  0  0  0  0  0  0
   -3.0071    0.3127    0.2456 C   0  0  0  0  0  0  0  0  0  0  0  0
   -3.6665   -0.1699   -0.8850 C   0  0  0  0  0  0  0  0  0  0  0  0
   -3.6366    0.2744    1.4897 C   0  0  0  0  0  0  0  0  0  0  0  0
   -4.9555   -0.6904   -0.7714 C   0  0  0  0  0  0  0  0  0  0  0  0
   -4.9258   -0.2461    1.6033 C   0  0  0  0  0  0  0  0  0  0  0  0
   -5.5851   -0.7284    0.4728 C   0  0  0  0  0  0  0  0  0  0  0  0
   -7.7184   -1.1181   -0.5324 C   0  0  0  0  0  0  0  0  0  0  0  0
    1.6032    3.3132   -2.1064 H   0  0  0  0  0  0  0  0  0  0  0  0
    2.3259    4.4214   -0.1343 H   0  0  0  0  0  0  0  0  0  0  0  0
    3.0188    3.3305    1.9501 H   0  0  0  0  0  0  0  0  0  0  0  0
    2.6197    1.7410    1.2987 H   0  0  0  0  0  0  0  0  0  0  0  0
   -0.1088    3.9990   -0.5366 H   0  0  0  0  0  0  0  0  0  0  0  0
   -0.6250    2.5250   -1.3139 H   0  0  0  0  0  0  0  0  0  0  0  0
    1.0040    0.9662   -2.2570 H   0  0  0  0  0  0  0  0  0  0  0  0
    1.6371    0.6154   -0.6572 H   0  0  0  0  0  0  0  0  0  0  0  0
    4.6013    4.0043   -0.0758 H   0  0  0  0  0  0  0  0  0  0  0  0
    4.1140    3.5649   -1.6947 H   0  0  0  0  0  0  0  0  0  0  0  0
    0.7808    2.5240    2.6998 H   0  0  0  0  0  0  0  0  0  0  0  0
    0.6482    4.0324    1.7937 H   0  0  0  0  0  0  0  0  0  0  0  0
    3.0795    0.0807   -2.7665 H   0  0  0  0  0  0  0  0  0  0  0  0
    3.4019    1.8040   -2.8689 H   0  0  0  0  0  0  0  0  0  0  0  0
    4.6905   -1.0414   -1.9147 H   0  0  0  0  0  0  0  0  0  0  0  0
    5.7833   -0.3960   -0.7090 H   0  0  0  0  0  0  0  0  0  0  0  0
    4.0325   -0.6697    1.0834 H   0  0  0  0  0  0  0  0  0  0  0  0
    2.9399   -1.3345   -0.1341 H   0  0  0  0  0  0  0  0  0  0  0  0
   -1.3279    0.8494   -0.8150 H   0  0  0  0  0  0  0  0  0  0  0  0
    5.4371   -2.4156    2.2373 H   0  0  0  0  0  0  0  0  0  0  0  0
    6.5391   -2.2630    0.8382 H   0  0  0  0  0  0  0  0  0  0  0  0
    6.8682   -4.5874    0.9430 H   0  0  0  0  0  0  0  0  0  0  0  0
    5.5685   -4.7586    2.1539 H   0  0  0  0  0  0  0  0  0  0  0  0
    4.8539   -5.7246   -0.1077 H   0  0  0  0  0  0  0  0  0  0  0  0
   -3.1834   -0.1534   -1.8586 H   0  0  0  0  0  0  0  0  0  0  0  0
   -3.1872    0.6576    2.3975 H   0  0  0  0  0  0  0  0  0  0  0  0
   -5.4175   -1.0903   -1.6690 H   0  0  0  0  0  0  0  0  0  0  0  0
   -5.4142   -0.2682    2.5737 H   0  0  0  0  0  0  0  0  0  0  0  0
  1 34  1  0  0  0  0
  2 34  1  0  0  0  0
  3 34  1  0  0  0  0
  4 21  2  0  0  0  0
  5 23  2  0  0  0  0
  6 27  2  0  0  0  0
  7 33  1  0  0  0  0
  7 34  1  0  0  0  0
  8 16  1  0  0  0  0
  8 19  1  0  0  0  0
  8 23  1  0  0  0  0
  9 20  1  0  0  0  0
  9 21  1  0  0  0  0
  9 22  1  0  0  0  0
 10 24  1  0  0  0  0
 10 25  1  0  0  0  0
 10 27  1  0  0  0  0
 11 23  1  0  0  0  0
 11 28  1  0  0  0  0
 11 53  1  0  0  0  0
 12 26  1  0  0  0  0
 12 27  1  0  0  0  0
 12 58  1  0  0  0  0
 13 14  1  0  0  0  0
 13 16  1  0  0  0  0
 13 17  1  0  0  0  0
 13 35  1  0  0  0  0
 14 15  1  0  0  0  0
 14 18  1  0  0  0  0
 14 36  1  0  0  0  0
 15 19  1  0  0  0  0
 15 37  1  0  0  0  0
 15 38  1  0  0  0  0
 16 39  1  0  0  0  0
 16 40  1  0  0  0  0
 17 20  1  0  0  0  0
 17 41  1  0  0  0  0
 17 42  1  0  0  0  0
 18 21  1  0  0  0  0
 18 43  1  0  0  0  0
 18 44  1  0  0  0  0
 19 45  1  0  0  0  0
 19 46  1  0  0  0  0
 20 47  1  0  0  0  0
 20 48  1  0  0  0  0
 22 24  1  0  0  0  0
 22 49  1  0  0  0  0
 22 50  1  0  0  0  0
 24 51  1  0  0  0  0
 24 52  1  0  0  0  0
 25 26  1  0  0  0  0
 25 54  1  0  0  0  0
 25 55  1  0  0  0  0
 26 56  1  0  0  0  0
 26 57  1  0  0  0  0
 28 29  2  0  0  0  0
 28 30  1  0  0  0  0
 29 31  1  0  0  0  0
 29 59  1  0  0  0  0
 30 32  2  0  0  0  0
 30 60  1  0  0  0  0
 31 33  2  0  0  0  0
 31 61  1  0  0  0  0
 32 33  1  0  0  0  0
 32 62  1  0  0  0  0
M  END
> <PUBCHEM_COMPOUND_CID>
26742857

> <PUBCHEM_CONFORMER_RMSD>
1

> <PUBCHEM_CONFORMER_DIVERSEORDER>
3
109
121
58
40
34
86
29
65
25
123
41
119
112
125
79
70
90
99
59
126
132
74
64
38
28
68
92
52
91
85
8
111
77
115
117
129
60
72
54
83
55
133
17
131
66
53
4
107
57
89
82
11
102
106
50
75
21
18
116
76
6
100
105
80
110
95
45
5
69
31
44
67
61
13
87
96
56
73
42
84
46
104
97
30
124
120
128
26
20
14
47
108
10
33
48
81
49
114
27
24
98
113
93
88
118
63
94
37
2
23
16
51
71
127
22
43
103
32
9
15
36
122
7
78
12
101
62
1
19
130
39
35

> <PUBCHEM_MMFF94_PARTIAL_CHARGES>
36
1 -0.34
10 -0.66
11 -0.55
12 -0.73
16 0.3
18 0.06
19 0.3
2 -0.34
20 0.3
21 0.57
22 0.3
23 0.69
24 0.3
25 0.3
26 0.3
27 0.69
28 0.12
29 -0.15
3 -0.34
30 -0.15
31 -0.15
32 -0.15
33 0.08
34 1.3
4 -0.57
5 -0.57
53 0.37
58 0.37
59 0.15
6 -0.57
60 0.15
61 0.15
62 0.15
7 -0.36
8 -0.66
9 -0.66

> <PUBCHEM_EFFECTIVE_ROTOR_COUNT>
10.4

> <PUBCHEM_PHARMACOPHORE_FEATURES>
10
1 11 donor
1 12 donor
1 4 acceptor
1 5 acceptor
1 6 acceptor
1 7 acceptor
5 10 12 25 26 27 rings
6 28 29 30 31 32 33 rings
6 8 13 14 15 16 19 rings
7 9 13 14 17 18 20 21 rings

> <PUBCHEM_HEAVY_ATOM_COUNT>
34

> <PUBCHEM_ATOM_DEF_STEREO_COUNT>
2

> <PUBCHEM_ATOM_UDEF_STEREO_COUNT>
0

> <PUBCHEM_BOND_DEF_STEREO_COUNT>
0

> <PUBCHEM_BOND_UDEF_STEREO_COUNT>
0

> <PUBCHEM_ISOTOPIC_ATOM_COUNT>
0

> <PUBCHEM_COMPONENT_COUNT>
1

> <PUBCHEM_CACTVS_TAUTO_COUNT>
8

> <PUBCHEM_CONFORMER_ID>
0198104900000003

> <PUBCHEM_MMFF94_ENERGY>
92.6679

> <PUBCHEM_FEATURE_SELFOVERLAP>
50.774

> <PUBCHEM_SHAPE_FINGERPRINT>
10622 236 18339648810960076138
11135609 149 18337090324759710389
11227150 75 17461143376134811026
11409948 35 18409445878882080287
13533116 47 18410014346628364557
13782708 43 18333171670235412111
14026016 60 18337376228665620791
14344974 204 17761486994728615978
14675020 138 18127680738069920032
14910700 183 18197770202284193112
15183329 4 18334580187433007993
15475509 35 18272927245831626624
17134984 74 18267589176670374550
18681886 176 15697175078628974976
19026451 147 18410012096804480346
19304671 126 11963973446332061158
19315092 285 18130790015108021488
19319366 153 18268713990752760628
19841028 212 18409730651528861995
20775438 99 18189611812203302042
20775530 9 17973751103108745896
21133410 58 18261387880020388219
21304303 94 18260830440335045050
21315764 119 17894351107754033645
21458453 9 12391503222400801325
23569914 152 17902764407637089621
25222932 49 18201449077510751140
3004659 81 16772688765885829913
345986 75 17989212512416818888
3534868 343 18262816166841711276
3729539 64 18408326592623357163
397830 11 10807932696240825693
4073 2 17981888850342676113
4440575 13 18271518797238326526
45266715 3 17530964662405881706
50009960 94 18042677317895709290
513532 50 17603861256202556888
5364581 5 9871744707560966045
5951187 136 14418424338204580726
59682541 52 18334575772163858073
9555976 147 17416414156083215465

> <PUBCHEM_SHAPE_MULTIPOLES>
629.5
20.29
5.58
1.72
43.35
4.34
0.2
20.34
-2.73
-13.76
0.55
0.05
-0.44
-2.34

> <PUBCHEM_SHAPE_SELFOVERLAP>
1330.67

> <PUBCHEM_SHAPE_VOLUME>
351.2

> <PUBCHEM_COORDINATE_TYPE>
2
5
10

$$$$
