40480283
  -OEChem-12032416413D

 55 59  0     1  0  0  0  0  0999 V2000
    0.2700    2.3329    1.2852 O   0  0  0  0  0  0  0  0  0  0  0  0
   -3.7122   -0.6807    2.6345 O   0  0  0  0  0  0  0  0  0  0  0  0
    2.2702   -1.1445   -1.4373 O   0  0  0  0  0  0  0  0  0  0  0  0
   -4.2508    0.3377    0.5979 N   0  0  0  0  0  0  0  0  0  0  0  0
   -1.6024    1.9542   -0.0602 N   0  0  0  0  0  0  0  0  0  0  0  0
    1.9313    0.8888   -0.3596 N   0  0  0  0  0  0  0  0  0  0  0  0
    9.2844   -0.1287    1.1280 N   0  0  0  0  0  0  0  0  0  0  0  0
   -3.9401    2.8065    0.5491 C   0  0  1  0  0  0  0  0  0  0  0  0
   -3.6127    1.4917   -1.5064 C   0  0  2  0  0  0  0  0  0  0  0  0
   -4.1803    2.7995   -0.9567 C   0  0  0  0  0  0  0  0  0  0  0  0
   -4.6426    1.6068    1.2106 C   0  0  0  0  0  0  0  0  0  0  0  0
   -2.4283    2.8051    0.8083 C   0  0  0  0  0  0  0  0  0  0  0  0
   -4.3541    0.2988   -0.8699 C   0  0  0  0  0  0  0  0  0  0  0  0
   -2.1267    1.3800   -1.2228 C   0  0  0  0  0  0  0  0  0  0  0  0
   -1.3263    0.7025   -2.0628 C   0  0  0  0  0  0  0  0  0  0  0  0
   -0.2406    1.8320    0.2824 C   0  0  0  0  0  0  0  0  0  0  0  0
   -3.8006   -0.7072    1.4082 C   0  0  0  0  0  0  0  0  0  0  0  0
    0.6116    1.0459   -0.6653 C   0  0  0  0  0  0  0  0  0  0  0  0
    0.0698    0.5329   -1.7749 C   0  0  0  0  0  0  0  0  0  0  0  0
   -3.3730   -1.9483    0.7544 C   0  0  0  0  0  0  0  0  0  0  0  0
   -2.0426   -2.1119    0.3684 C   0  0  0  0  0  0  0  0  0  0  0  0
   -4.2976   -2.9657    0.5188 C   0  0  0  0  0  0  0  0  0  0  0  0
    2.6859   -0.2032   -0.7661 C   0  0  0  0  0  0  0  0  0  0  0  0
   -1.6367   -3.2929   -0.2533 C   0  0  0  0  0  0  0  0  0  0  0  0
   -3.8918   -4.1467   -0.1028 C   0  0  0  0  0  0  0  0  0  0  0  0
   -2.5614   -4.3102   -0.4889 C   0  0  0  0  0  0  0  0  0  0  0  0
    4.1142   -0.1881   -0.3558 C   0  0  0  0  0  0  0  0  0  0  0  0
    5.0669   -0.8618   -1.1200 C   0  0  0  0  0  0  0  0  0  0  0  0
    4.5020    0.5014    0.7932 C   0  0  0  0  0  0  0  0  0  0  0  0
    6.4075   -0.8461   -0.7353 C   0  0  0  0  0  0  0  0  0  0  0  0
    5.8426    0.5170    1.1778 C   0  0  0  0  0  0  0  0  0  0  0  0
    6.7955   -0.1565    0.4136 C   0  0  0  0  0  0  0  0  0  0  0  0
    8.1689   -0.1412    0.8077 C   0  0  0  0  0  0  0  0  0  0  0  0
   -4.3638    3.7197    0.9848 H   0  0  0  0  0  0  0  0  0  0  0  0
   -3.7871    1.4709   -2.5900 H   0  0  0  0  0  0  0  0  0  0  0  0
   -3.6965    3.6633   -1.4295 H   0  0  0  0  0  0  0  0  0  0  0  0
   -5.2529    2.8731   -1.1736 H   0  0  0  0  0  0  0  0  0  0  0  0
   -4.4407    1.5964    2.2869 H   0  0  0  0  0  0  0  0  0  0  0  0
   -5.7288    1.6964    1.0873 H   0  0  0  0  0  0  0  0  0  0  0  0
   -2.0476    3.8261    0.6679 H   0  0  0  0  0  0  0  0  0  0  0  0
   -2.2181    2.5467    1.8537 H   0  0  0  0  0  0  0  0  0  0  0  0
   -5.4228    0.3479   -1.1129 H   0  0  0  0  0  0  0  0  0  0  0  0
   -3.9805   -0.6429   -1.2792 H   0  0  0  0  0  0  0  0  0  0  0  0
   -1.7120    0.2395   -2.9651 H   0  0  0  0  0  0  0  0  0  0  0  0
    0.6284    0.0047   -2.5379 H   0  0  0  0  0  0  0  0  0  0  0  0
    2.3008    1.5459    0.3190 H   0  0  0  0  0  0  0  0  0  0  0  0
   -1.3120   -1.3304    0.5567 H   0  0  0  0  0  0  0  0  0  0  0  0
   -5.3368   -2.8485    0.8151 H   0  0  0  0  0  0  0  0  0  0  0  0
   -0.6004   -3.4202   -0.5522 H   0  0  0  0  0  0  0  0  0  0  0  0
   -4.6117   -4.9389   -0.2865 H   0  0  0  0  0  0  0  0  0  0  0  0
   -2.2454   -5.2297   -0.9727 H   0  0  0  0  0  0  0  0  0  0  0  0
    4.7852   -1.4006   -2.0209 H   0  0  0  0  0  0  0  0  0  0  0  0
    3.7952    1.0075    1.4427 H   0  0  0  0  0  0  0  0  0  0  0  0
    7.1389   -1.3751   -1.3418 H   0  0  0  0  0  0  0  0  0  0  0  0
    6.1290    1.0514    2.0807 H   0  0  0  0  0  0  0  0  0  0  0  0
  1 16  2  0  0  0  0
  2 17  2  0  0  0  0
  3 23  2  0  0  0  0
  4 11  1  0  0  0  0
  4 13  1  0  0  0  0
  4 17  1  0  0  0  0
  5 12  1  0  0  0  0
  5 14  1  0  0  0  0
  5 16  1  0  0  0  0
  6 18  1  0  0  0  0
  6 23  1  0  0  0  0
  6 46  1  0  0  0  0
  7 33  3  0  0  0  0
  8 10  1  0  0  0  0
  8 11  1  0  0  0  0
  8 12  1  0  0  0  0
  8 34  1  0  0  0  0
  9 10  1  0  0  0  0
  9 13  1  0  0  0  0
  9 14  1  0  0  0  0
  9 35  1  0  0  0  0
 10 36  1  0  0  0  0
 10 37  1  0  0  0  0
 11 38  1  0  0  0  0
 11 39  1  0  0  0  0
 12 40  1  0  0  0  0
 12 41  1  0  0  0  0
 13 42  1  0  0  0  0
 13 43  1  0  0  0  0
 14 15  2  0  0  0  0
 15 19  1  0  0  0  0
 15 44  1  0  0  0  0
 16 18  1  0  0  0  0
 17 20  1  0  0  0  0
 18 19  2  0  0  0  0
 19 45  1  0  0  0  0
 20 21  2  0  0  0  0
 20 22  1  0  0  0  0
 21 24  1  0  0  0  0
 21 47  1  0  0  0  0
 22 25  2  0  0  0  0
 22 48  1  0  0  0  0
 23 27  1  0  0  0  0
 24 26  2  0  0  0  0
 24 49  1  0  0  0  0
 25 26  1  0  0  0  0
 25 50  1  0  0  0  0
 26 51  1  0  0  0  0
 27 28  2  0  0  0  0
 27 29  1  0  0  0  0
 28 30  1  0  0  0  0
 28 52  1  0  0  0  0
 29 31  2  0  0  0  0
 29 53  1  0  0  0  0
 30 32  2  0  0  0  0
 30 54  1  0  0  0  0
 31 32  1  0  0  0  0
 31 55  1  0  0  0  0
 32 33  1  0  0  0  0
M  END
> <PUBCHEM_COMPOUND_CID>
40480283

> <PUBCHEM_CONFORMER_RMSD>
0.8

> <PUBCHEM_CONFORMER_DIVERSEORDER>
1
8
13
10
11
7
4
3
12
5
6
2
9

> <PUBCHEM_MMFF94_PARTIAL_CHARGES>
43
1 -0.57
11 0.3
12 0.3
13 0.3
14 -0.03
15 -0.15
16 0.62
17 0.54
18 0.12
19 -0.15
2 -0.57
20 0.09
21 -0.15
22 -0.15
23 0.54
24 -0.15
25 -0.15
26 -0.15
27 0.09
28 -0.15
29 -0.15
3 -0.57
30 -0.15
31 -0.15
32 0.07
33 0.48
4 -0.66
44 0.15
45 0.15
46 0.37
47 0.15
48 0.15
49 0.15
5 -0.47
50 0.15
51 0.15
52 0.15
53 0.15
54 0.15
55 0.15
6 -0.54
7 -0.56
9 0.14

> <PUBCHEM_EFFECTIVE_ROTOR_COUNT>
6

> <PUBCHEM_PHARMACOPHORE_FEATURES>
10
1 1 acceptor
1 2 acceptor
1 3 acceptor
1 6 donor
1 7 acceptor
6 20 21 22 24 25 26 rings
6 27 28 29 30 31 32 rings
6 4 8 9 10 11 13 rings
6 5 14 15 16 18 19 rings
6 5 8 9 10 12 14 rings

> <PUBCHEM_HEAVY_ATOM_COUNT>
33

> <PUBCHEM_ATOM_DEF_STEREO_COUNT>
2

> <PUBCHEM_ATOM_UDEF_STEREO_COUNT>
0

> <PUBCHEM_BOND_DEF_STEREO_COUNT>
0

> <PUBCHEM_BOND_UDEF_STEREO_COUNT>
0

> <PUBCHEM_ISOTOPIC_ATOM_COUNT>
0

> <PUBCHEM_COMPONENT_COUNT>
1

> <PUBCHEM_CACTVS_TAUTO_COUNT>
6

> <PUBCHEM_CONFORMER_ID>
0269AE1B00000001

> <PUBCHEM_MMFF94_ENERGY>
98.2551

> <PUBCHEM_FEATURE_SELFOVERLAP>
52.33

> <PUBCHEM_SHAPE_FINGERPRINT>
10483366 6 18337657703926902095
10675989 125 17109871250557686789
11112241 14 17916028962737186879
11135609 187 18120086192377075581
11524674 6 18410292467831709855
12013929 27 14129638695801306586
12633257 1 17985575414199101969
12712778 12 18409173224639106607
14068700 675 18188770690513970391
14114206 34 16370992053732213581
14659021 117 18343294873549453685
14844126 61 18408326614024366795
14856354 85 18413389847758459652
15021287 119 16877666764413390420
15183329 4 14706925151478133272
15320294 125 18041001747583791615
15348495 7 18343300388387987400
19611394 137 18272650182376886856
20775530 9 17690862459192847199
22122407 14 15913332390058452112
22956985 138 17907014328673094761
23523787 8 17610855177206428319
249057 3 17895192182278061013
3383291 50 18411140255980398707
392239 28 18341618143986639896
397830 11 18270109249712712040
4073 2 18342173346362657478
4403749 210 18342447167411987604
4409770 3 18407757032852066581
44802255 64 17023731326655196439
4616759 239 18059568067023743226
484985 159 18261945336800023159
5080951 261 18114726192975439518
5364581 5 18269832181008865888
68570916 9 18187085096755900828
9953998 17 18334856096005301288

> <PUBCHEM_SHAPE_MULTIPOLES>
641.59
17.52
4.15
1.67
49.8
3.95
-0.04
2.2
-5.86
-9.29
-0.05
-0.71
-0.36
0.97

> <PUBCHEM_SHAPE_SELFOVERLAP>
1418.7

> <PUBCHEM_SHAPE_VOLUME>
334.2

> <PUBCHEM_COORDINATE_TYPE>
2
5
10

$$$$
