71693244
  -OEChem-12032416233D

 44 45  0     1  0  0  0  0  0999 V2000
   -3.0599   -1.5917    0.2916 O   0  0  0  0  0  0  0  0  0  0  0  0
   -4.1077    3.0651   -0.0464 O   0  0  0  0  0  0  0  0  0  0  0  0
   -6.6140   -1.1528    0.0826 O   0  0  0  0  0  0  0  0  0  0  0  0
    3.9030    0.1530   -1.4326 O   0  0  0  0  0  0  0  0  0  0  0  0
   -4.9350    0.4105    0.0153 N   0  0  0  0  0  0  0  0  0  0  0  0
    2.9305    0.3227    0.6974 N   0  0  0  0  0  0  0  0  0  0  0  0
   -3.5223    0.7566    0.1437 C   0  0  1  0  0  0  0  0  0  0  0  0
   -2.6413   -0.3923   -0.3712 C   0  0  1  0  0  0  0  0  0  0  0  0
   -1.1669   -0.2025   -0.0881 C   0  0  0  0  0  0  0  0  0  0  0  0
   -3.2472    2.0744   -0.5771 C   0  0  0  0  0  0  0  0  0  0  0  0
   -4.3655   -1.9679   -0.0946 C   0  0  0  0  0  0  0  0  0  0  0  0
   -5.4149   -0.8806    0.0337 C   0  0  0  0  0  0  0  0  0  0  0  0
   -0.7274   -0.0035    1.2207 C   0  0  0  0  0  0  0  0  0  0  0  0
   -0.2472   -0.2268   -1.1366 C   0  0  0  0  0  0  0  0  0  0  0  0
    6.5084   -0.0966   -0.2252 C   0  0  0  0  0  0  0  0  0  0  0  0
    1.5514    0.1461    0.4327 C   0  0  0  0  0  0  0  0  0  0  0  0
    0.6318    0.1707    1.4811 C   0  0  0  0  0  0  0  0  0  0  0  0
    1.1120   -0.0526   -0.8762 C   0  0  0  0  0  0  0  0  0  0  0  0
    5.3099    0.5499    0.4867 C   0  0  0  0  0  0  0  0  0  0  0  0
    3.9772    0.3266   -0.2207 C   0  0  0  0  0  0  0  0  0  0  0  0
    6.3063   -1.6099   -0.3246 C   0  0  0  0  0  0  0  0  0  0  0  0
    7.8188    0.2016    0.5078 C   0  0  0  0  0  0  0  0  0  0  0  0
   -3.3916    0.9002    1.2235 H   0  0  0  0  0  0  0  0  0  0  0  0
   -2.7903   -0.5266   -1.4520 H   0  0  0  0  0  0  0  0  0  0  0  0
   -5.6147    1.1609    0.0970 H   0  0  0  0  0  0  0  0  0  0  0  0
   -3.4461    1.9852   -1.6506 H   0  0  0  0  0  0  0  0  0  0  0  0
   -2.2138    2.4033   -0.4331 H   0  0  0  0  0  0  0  0  0  0  0  0
   -4.6673   -2.8080    0.5389 H   0  0  0  0  0  0  0  0  0  0  0  0
   -4.3526   -2.3161   -1.1337 H   0  0  0  0  0  0  0  0  0  0  0  0
   -1.4254    0.0074    2.0530 H   0  0  0  0  0  0  0  0  0  0  0  0
   -0.5757   -0.3801   -2.1611 H   0  0  0  0  0  0  0  0  0  0  0  0
    6.5843    0.3072   -1.2425 H   0  0  0  0  0  0  0  0  0  0  0  0
    0.9612    0.3221    2.5058 H   0  0  0  0  0  0  0  0  0  0  0  0
    1.7618   -0.0822   -1.7394 H   0  0  0  0  0  0  0  0  0  0  0  0
    5.2537    0.1705    1.5148 H   0  0  0  0  0  0  0  0  0  0  0  0
    5.4585    1.6349    0.5503 H   0  0  0  0  0  0  0  0  0  0  0  0
    3.1599    0.4730    1.6773 H   0  0  0  0  0  0  0  0  0  0  0  0
   -3.9193    3.8929   -0.5205 H   0  0  0  0  0  0  0  0  0  0  0  0
    5.4334   -1.8706   -0.9299 H   0  0  0  0  0  0  0  0  0  0  0  0
    7.1754   -2.0832   -0.7949 H   0  0  0  0  0  0  0  0  0  0  0  0
    6.1774   -2.0594    0.6662 H   0  0  0  0  0  0  0  0  0  0  0  0
    7.9885    1.2816    0.5700 H   0  0  0  0  0  0  0  0  0  0  0  0
    8.6700   -0.2417   -0.0196 H   0  0  0  0  0  0  0  0  0  0  0  0
    7.8046   -0.1985    1.5273 H   0  0  0  0  0  0  0  0  0  0  0  0
  1  8  1  0  0  0  0
  1 11  1  0  0  0  0
  2 10  1  0  0  0  0
  2 38  1  0  0  0  0
  3 12  2  0  0  0  0
  4 20  2  0  0  0  0
  5  7  1  0  0  0  0
  5 12  1  0  0  0  0
  5 25  1  0  0  0  0
  6 16  1  0  0  0  0
  6 20  1  0  0  0  0
  6 37  1  0  0  0  0
  7  8  1  0  0  0  0
  7 10  1  0  0  0  0
  7 23  1  0  0  0  0
  8  9  1  0  0  0  0
  8 24  1  0  0  0  0
  9 13  2  0  0  0  0
  9 14  1  0  0  0  0
 10 26  1  0  0  0  0
 10 27  1  0  0  0  0
 11 12  1  0  0  0  0
 11 28  1  0  0  0  0
 11 29  1  0  0  0  0
 13 17  1  0  0  0  0
 13 30  1  0  0  0  0
 14 18  2  0  0  0  0
 14 31  1  0  0  0  0
 15 19  1  0  0  0  0
 15 21  1  0  0  0  0
 15 22  1  0  0  0  0
 15 32  1  0  0  0  0
 16 17  2  0  0  0  0
 16 18  1  0  0  0  0
 17 33  1  0  0  0  0
 18 34  1  0  0  0  0
 19 20  1  0  0  0  0
 19 35  1  0  0  0  0
 19 36  1  0  0  0  0
 21 39  1  0  0  0  0
 21 40  1  0  0  0  0
 21 41  1  0  0  0  0
 22 42  1  0  0  0  0
 22 43  1  0  0  0  0
 22 44  1  0  0  0  0
M  END
> <PUBCHEM_COMPOUND_CID>
71693244

> <PUBCHEM_CONFORMER_RMSD>
0.8

> <PUBCHEM_CONFORMER_DIVERSEORDER>
2
28
32
6
39
9
22
37
30
14
34
38
16
36
18
41
11
4
29
21
19
8
7
20
33
12
17
25
5
31
35
13
40
15
10
23
42
27
24
3
26
1

> <PUBCHEM_MMFF94_PARTIAL_CHARGES>
26
1 -0.56
10 0.28
11 0.34
12 0.57
13 -0.15
14 -0.15
16 0.12
17 -0.15
18 -0.15
19 0.06
2 -0.68
20 0.57
25 0.37
3 -0.57
30 0.15
31 0.15
33 0.15
34 0.15
37 0.37
38 0.4
4 -0.57
5 -0.73
6 -0.55
7 0.3
8 0.42
9 -0.14

> <PUBCHEM_EFFECTIVE_ROTOR_COUNT>
7

> <PUBCHEM_PHARMACOPHORE_FEATURES>
10
1 1 acceptor
1 2 acceptor
1 2 donor
1 3 acceptor
1 4 acceptor
1 5 donor
1 6 donor
3 15 21 22 hydrophobe
6 1 5 7 8 11 12 rings
6 9 13 14 16 17 18 rings

> <PUBCHEM_HEAVY_ATOM_COUNT>
22

> <PUBCHEM_ATOM_DEF_STEREO_COUNT>
2

> <PUBCHEM_ATOM_UDEF_STEREO_COUNT>
0

> <PUBCHEM_BOND_DEF_STEREO_COUNT>
0

> <PUBCHEM_BOND_UDEF_STEREO_COUNT>
0

> <PUBCHEM_ISOTOPIC_ATOM_COUNT>
0

> <PUBCHEM_COMPONENT_COUNT>
1

> <PUBCHEM_CACTVS_TAUTO_COUNT>
9

> <PUBCHEM_CONFORMER_ID>
0445F3BC00000002

> <PUBCHEM_MMFF94_ENERGY>
57.075

> <PUBCHEM_FEATURE_SELFOVERLAP>
50.751

> <PUBCHEM_SHAPE_FINGERPRINT>
10 15 17845927525045668586
10595046 47 18261111898284814574
10638233 991 16878235224999893180
11315181 36 17676772049545683061
11524674 6 16630527362395349511
12091667 2 18260268551159398032
12107183 9 17684921406339634640
12166972 35 18408888455913603288
12236239 1 17603303769584069023
12403259 415 17775275075775015497
12741549 16 17346882273899454609
13073987 5 18410854318083709530
13288520 33 18408040741085365199
13533116 47 16733251384347041664
13885169 127 18409728435720570456
14123256 10 15864065486147706914
14251752 14 18339921524630757616
14251764 18 16128371614502259918
14251764 46 18187644721296806851
14933364 13 18412825794241146112
15183329 4 17095525085257926170
15778101 99 18339361843158771025
17844677 252 18411423929584498688
18927931 339 18335704962089690879
19489759 90 18409450288562902945
21033648 29 17632281372353254817
21150785 3 16515405196437313514
21267235 1 18187367679654676235
21315759 40 17022900151556643498
21623969 137 16988851583384824062
2297311 6 18410575106802625225
23035841 295 18040151842143163835
23081809 10 17603869988445465340
23198884 109 18040436594411672792
23402539 116 18260264161465509661
23536379 177 18409166598021247570
23557571 272 18343024380683189181
23559900 14 18338229491651237849
23569943 247 17097480996116429130
4073 2 18114186380385674130
4340502 62 18201721760810745726
54446538 1 18187083966361960820
59682541 35 16128371623256231370
59755656 520 16153426173179912059
6327066 14 17898562078475788573
7808743 9 18264768745321801681

> <PUBCHEM_SHAPE_MULTIPOLES>
419.31
18.11
1.7
1.03
19.9
0.71
0.04
-3.1
0.09
-2.98
-0.16
0.49
0.05
0.55

> <PUBCHEM_SHAPE_SELFOVERLAP>
865.774

> <PUBCHEM_SHAPE_VOLUME>
238.7

> <PUBCHEM_COORDINATE_TYPE>
2
5
10

$$$$
