45783508
  -OEChem-12032416313D

 55 59  0     1  0  0  0  0  0999 V2000
   -2.4230    2.1775   -1.4879 O   0  0  0  0  0  0  0  0  0  0  0  0
    7.5228   -0.2105    0.3719 O   0  0  0  0  0  0  0  0  0  0  0  0
   -4.3778    0.1861    0.9034 N   0  0  1  0  0  0  0  0  0  0  0  0
   -1.5905    1.0278    0.2448 N   0  0  0  0  0  0  0  0  0  0  0  0
    4.7768    0.3677    0.2154 N   0  0  0  0  0  0  0  0  0  0  0  0
   -1.0352    2.1426   -1.6743 N   0  0  0  0  0  0  0  0  0  0  0  0
    3.0699    1.3502   -1.0971 N   0  0  0  0  0  0  0  0  0  0  0  0
    0.6032   -3.4512    1.5610 N   0  0  0  0  0  0  0  0  0  0  0  0
   -4.1136    1.3913    0.0924 C   0  0  1  0  0  0  0  0  0  0  0  0
   -4.5594    2.5668    0.9817 C   0  0  0  0  0  0  0  0  0  0  0  0
   -5.1150    1.9222    2.2436 C   0  0  0  0  0  0  0  0  0  0  0  0
   -5.4871    0.5232    1.7956 C   0  0  0  0  0  0  0  0  0  0  0  0
   -4.6603   -0.9964    0.1000 C   0  0  0  0  0  0  0  0  0  0  0  0
   -2.6650    1.4988   -0.3359 C   0  0  0  0  0  0  0  0  0  0  0  0
   -3.4014   -1.6220   -0.4390 C   0  0  0  0  0  0  0  0  0  0  0  0
   -0.6156    1.4477   -0.6127 C   0  0  0  0  0  0  0  0  0  0  0  0
   -2.4075   -2.0586    0.4370 C   0  0  0  0  0  0  0  0  0  0  0  0
   -3.2299   -1.7660   -1.8159 C   0  0  0  0  0  0  0  0  0  0  0  0
    5.7682    1.3298   -0.2854 C   0  0  0  0  0  0  0  0  0  0  0  0
    5.2381   -1.0229    0.2897 C   0  0  0  0  0  0  0  0  0  0  0  0
    0.7695    1.1574   -0.3789 C   0  0  0  0  0  0  0  0  0  0  0  0
    7.0858    1.1457    0.4589 C   0  0  0  0  0  0  0  0  0  0  0  0
    6.5846   -1.0816    1.0026 C   0  0  0  0  0  0  0  0  0  0  0  0
    3.4224    0.6428   -0.0003 C   0  0  0  0  0  0  0  0  0  0  0  0
   -1.2422   -2.6391   -0.0638 C   0  0  0  0  0  0  0  0  0  0  0  0
   -2.0647   -2.3469   -2.3166 C   0  0  0  0  0  0  0  0  0  0  0  0
    1.1712    0.4325    0.7377 C   0  0  0  0  0  0  0  0  0  0  0  0
    2.5212    0.1662    0.9380 C   0  0  0  0  0  0  0  0  0  0  0  0
   -1.0707   -2.7834   -1.4405 C   0  0  0  0  0  0  0  0  0  0  0  0
    1.7491    1.5896   -1.2582 C   0  0  0  0  0  0  0  0  0  0  0  0
   -0.2239   -3.0873    0.8328 C   0  0  0  0  0  0  0  0  0  0  0  0
   -4.7429    1.3997   -0.8087 H   0  0  0  0  0  0  0  0  0  0  0  0
   -3.7537    3.2678    1.2253 H   0  0  0  0  0  0  0  0  0  0  0  0
   -5.3541    3.1298    0.4772 H   0  0  0  0  0  0  0  0  0  0  0  0
   -5.9682    2.4741    2.6489 H   0  0  0  0  0  0  0  0  0  0  0  0
   -4.3365    1.8824    3.0156 H   0  0  0  0  0  0  0  0  0  0  0  0
   -6.4473    0.5367    1.2644 H   0  0  0  0  0  0  0  0  0  0  0  0
   -5.5584   -0.1648    2.6436 H   0  0  0  0  0  0  0  0  0  0  0  0
   -5.1377   -1.7655    0.7237 H   0  0  0  0  0  0  0  0  0  0  0  0
   -5.3790   -0.7811   -0.7016 H   0  0  0  0  0  0  0  0  0  0  0  0
   -2.5433   -1.9510    1.5113 H   0  0  0  0  0  0  0  0  0  0  0  0
   -3.9947   -1.4287   -2.5103 H   0  0  0  0  0  0  0  0  0  0  0  0
    5.4239    2.3614   -0.1455 H   0  0  0  0  0  0  0  0  0  0  0  0
    5.9200    1.1579   -1.3582 H   0  0  0  0  0  0  0  0  0  0  0  0
    5.3418   -1.4094   -0.7317 H   0  0  0  0  0  0  0  0  0  0  0  0
    4.5289   -1.6672    0.8201 H   0  0  0  0  0  0  0  0  0  0  0  0
    6.9923    1.4313    1.5137 H   0  0  0  0  0  0  0  0  0  0  0  0
    7.8590    1.7782    0.0114 H   0  0  0  0  0  0  0  0  0  0  0  0
    6.4885   -0.8097    2.0608 H   0  0  0  0  0  0  0  0  0  0  0  0
    6.9868   -2.0986    0.9568 H   0  0  0  0  0  0  0  0  0  0  0  0
   -1.9308   -2.4580   -3.3886 H   0  0  0  0  0  0  0  0  0  0  0  0
    0.4556    0.0694    1.4707 H   0  0  0  0  0  0  0  0  0  0  0  0
    2.8346   -0.3864    1.8177 H   0  0  0  0  0  0  0  0  0  0  0  0
    1.5194    2.1604   -2.1531 H   0  0  0  0  0  0  0  0  0  0  0  0
   -0.1675   -3.2329   -1.8462 H   0  0  0  0  0  0  0  0  0  0  0  0
  1  6  1  0  0  0  0
  1 14  1  0  0  0  0
  2 22  1  0  0  0  0
  2 23  1  0  0  0  0
  3  9  1  0  0  0  0
  3 12  1  0  0  0  0
  3 13  1  0  0  0  0
  4 14  2  0  0  0  0
  4 16  1  0  0  0  0
  5 19  1  0  0  0  0
  5 20  1  0  0  0  0
  5 24  1  0  0  0  0
  6 16  2  0  0  0  0
  7 24  2  0  0  0  0
  7 30  1  0  0  0  0
  8 31  3  0  0  0  0
  9 10  1  0  0  0  0
  9 14  1  0  0  0  0
  9 32  1  0  0  0  0
 10 11  1  0  0  0  0
 10 33  1  0  0  0  0
 10 34  1  0  0  0  0
 11 12  1  0  0  0  0
 11 35  1  0  0  0  0
 11 36  1  0  0  0  0
 12 37  1  0  0  0  0
 12 38  1  0  0  0  0
 13 15  1  0  0  0  0
 13 39  1  0  0  0  0
 13 40  1  0  0  0  0
 15 17  2  0  0  0  0
 15 18  1  0  0  0  0
 16 21  1  0  0  0  0
 17 25  1  0  0  0  0
 17 41  1  0  0  0  0
 18 26  2  0  0  0  0
 18 42  1  0  0  0  0
 19 22  1  0  0  0  0
 19 43  1  0  0  0  0
 19 44  1  0  0  0  0
 20 23  1  0  0  0  0
 20 45  1  0  0  0  0
 20 46  1  0  0  0  0
 21 27  1  0  0  0  0
 21 30  2  0  0  0  0
 22 47  1  0  0  0  0
 22 48  1  0  0  0  0
 23 49  1  0  0  0  0
 23 50  1  0  0  0  0
 24 28  1  0  0  0  0
 25 29  2  0  0  0  0
 25 31  1  0  0  0  0
 26 29  1  0  0  0  0
 26 51  1  0  0  0  0
 27 28  2  0  0  0  0
 27 52  1  0  0  0  0
 28 53  1  0  0  0  0
 29 55  1  0  0  0  0
 30 54  1  0  0  0  0
M  END
> <PUBCHEM_COMPOUND_CID>
45783508

> <PUBCHEM_CONFORMER_RMSD>
1

> <PUBCHEM_CONFORMER_DIVERSEORDER>
1
162
119
73
4
105
165
58
12
49
140
150
111
22
175
2
129
26
10
63
176
141
17
160
118
179
60
20
46
33
35
123
131
95
189
146
27
172
44
62
133
11
37
158
102
110
112
93
116
164
54
135
180
38
30
15
151
103
137
187
32
106
36
18
145
14
21
69
68
159
98
91
48
155
149
183
19
178
161
24
157
5
8
114
181
127
156
47
86
144
81
92
125
16
121
170
147
132
188
148
75
80
171
74
152
89
136
34
70
96
56
190
108
174
143
184
192
72
84
50
6
61
77
126
169
117
107
173
55
99
23
9
76
177
124
65
185
166
66
115
59
191
53
25
113
94
78
90
168
97
51
134
167
83
109
64
163
186
31
41
122
57
28
138
130
52
45
142
120
153
79
13
29
42
154
182
88
3
139
40
71
104
7
82
67
85
39
100
87
43
128
101

> <PUBCHEM_MMFF94_PARTIAL_CHARGES>
36
1 -0.02
12 0.27
13 0.41
14 0.3
15 -0.14
16 0.46
17 -0.15
18 -0.15
19 0.37
2 -0.56
20 0.37
21 0.05
22 0.28
23 0.28
24 0.41
25 0.07
26 -0.15
27 -0.15
28 -0.15
29 -0.15
3 -0.81
30 0.16
31 0.48
4 -0.57
41 0.15
42 0.15
5 -0.84
51 0.15
52 0.15
53 0.15
54 0.15
55 0.15
6 -0.41
7 -0.62
8 -0.56
9 0.45

> <PUBCHEM_EFFECTIVE_ROTOR_COUNT>
7.2

> <PUBCHEM_PHARMACOPHORE_FEATURES>
10
1 2 acceptor
1 3 cation
1 8 acceptor
3 4 6 16 cation
3 5 7 24 cation
5 1 4 6 14 16 rings
5 3 9 10 11 12 rings
6 15 17 18 25 26 29 rings
6 2 5 19 20 22 23 rings
6 7 21 24 27 28 30 rings

> <PUBCHEM_HEAVY_ATOM_COUNT>
31

> <PUBCHEM_ATOM_DEF_STEREO_COUNT>
1

> <PUBCHEM_ATOM_UDEF_STEREO_COUNT>
0

> <PUBCHEM_BOND_DEF_STEREO_COUNT>
0

> <PUBCHEM_BOND_UDEF_STEREO_COUNT>
0

> <PUBCHEM_ISOTOPIC_ATOM_COUNT>
0

> <PUBCHEM_COMPONENT_COUNT>
1

> <PUBCHEM_CACTVS_TAUTO_COUNT>
1

> <PUBCHEM_CONFORMER_ID>
02BA99D400000001

> <PUBCHEM_MMFF94_ENERGY>
74.6427

> <PUBCHEM_FEATURE_SELFOVERLAP>
50.749

> <PUBCHEM_SHAPE_FINGERPRINT>
11135926 11 17821718435081509130
11445158 3 16878520023685263470
11524674 6 17775283850408778846
11578080 2 17914893369311093592
11756154 5 17751640085504334506
12156800 1 13106481278505823419
12422481 6 18337395924388166131
12522641 33 17899116241200364341
12597179 24 17489593324552696470
14068700 675 17915733387852309533
14394314 77 18408886217739672792
14765038 42 18341341010921419176
14840074 17 18040435494652124978
14856354 85 18059858389095506452
14866123 147 18408885169820464987
15021287 119 17967818257970866268
15183329 4 18187919600010996010
15274700 242 17676750008622983458
15420108 30 18200878354024823639
15439362 3 17322091348504283749
16110190 28 18408608071599564388
16112460 7 18338238275213234128
19438510 23 16055494764464581113
20554085 129 17631166391018221641
20775438 99 15964243424837261462
21236236 1 18411975888737338334
21403212 168 18340210700826883745
21796203 349 17825141230956727833
23516275 137 18125182475731900858
23522609 53 18193301730630158572
23559900 14 18196921391369252264
338550 245 18260271832841687286
3411729 13 18124892166238894841
484985 159 18200015357287105959
5104073 3 18341880932072706152
5265222 85 18200603621925202444
5364581 5 17700682124404940416
59755656 520 18202281372835813576
7226269 152 17846783983387877073
9896288 288 18195531385317951128
9953998 17 18342730845955191960

> <PUBCHEM_SHAPE_MULTIPOLES>
596.34
15.15
3.55
1.74
26.49
2.3
0.21
-5.15
-6.01
-3.43
0.15
-1.78
0.21
-2.4

> <PUBCHEM_SHAPE_SELFOVERLAP>
1297.234

> <PUBCHEM_SHAPE_VOLUME>
322.7

> <PUBCHEM_COORDINATE_TYPE>
2
5
10

$$$$
