11943122
  -OEChem-12032416403D

 51 54  0     1  0  0  0  0  0999 V2000
    0.6571   -0.0003    0.6905 O   0  0  0  0  0  0  0  0  0  0  0  0
   -0.3678    2.0395    0.8254 O   0  0  0  0  0  0  0  0  0  0  0  0
    4.3074    0.0404    1.4082 N   0  0  2  0  0  0  0  0  0  0  0  0
   -1.5661    0.0862    0.3470 N   0  0  0  0  0  0  0  0  0  0  0  0
    4.5507   -1.3971   -0.7462 C   0  0  2  0  0  0  0  0  0  0  0  0
    5.2079   -0.0104   -0.9312 C   0  0  2  0  0  0  0  0  0  0  0  0
    3.0698   -1.2130   -0.3666 C   0  0  0  0  0  0  0  0  0  0  0  0
    2.9778   -0.4813    0.9910 C   0  0  2  0  0  0  0  0  0  0  0  0
    4.9083    0.8474    0.3188 C   0  0  0  0  0  0  0  0  0  0  0  0
    5.2491   -2.0671    0.4526 C   0  0  0  0  0  0  0  0  0  0  0  0
    5.1934   -1.1211    1.6653 C   0  0  0  0  0  0  0  0  0  0  0  0
    4.7758    0.6948   -2.2149 C   0  0  0  0  0  0  0  0  0  0  0  0
    1.9019    0.6067    0.9783 C   0  0  0  0  0  0  0  0  0  0  0  0
    5.5219    2.0010   -2.4064 C   0  0  0  0  0  0  0  0  0  0  0  0
   -0.4396    0.8313    0.6371 C   0  0  0  0  0  0  0  0  0  0  0  0
   -2.8964    0.5408    0.2006 C   0  0  0  0  0  0  0  0  0  0  0  0
   -3.9374   -0.3427   -0.0970 C   0  0  0  0  0  0  0  0  0  0  0  0
   -3.1202    1.9018    0.3648 C   0  0  0  0  0  0  0  0  0  0  0  0
   -5.2494    0.1704   -0.2324 C   0  0  0  0  0  0  0  0  0  0  0  0
   -3.7179   -1.7198   -0.2645 C   0  0  0  0  0  0  0  0  0  0  0  0
   -4.4105    2.4063    0.2320 C   0  0  0  0  0  0  0  0  0  0  0  0
   -5.4692    1.5473   -0.0648 C   0  0  0  0  0  0  0  0  0  0  0  0
   -6.3031   -0.7086   -0.5314 C   0  0  0  0  0  0  0  0  0  0  0  0
   -4.7766   -2.5784   -0.5615 C   0  0  0  0  0  0  0  0  0  0  0  0
   -6.0668   -2.0738   -0.6947 C   0  0  0  0  0  0  0  0  0  0  0  0
    4.6511   -2.0136   -1.6456 H   0  0  0  0  0  0  0  0  0  0  0  0
    6.2951   -0.1659   -0.9889 H   0  0  0  0  0  0  0  0  0  0  0  0
    2.5393   -0.6748   -1.1591 H   0  0  0  0  0  0  0  0  0  0  0  0
    2.5900   -2.1964   -0.2812 H   0  0  0  0  0  0  0  0  0  0  0  0
    2.6504   -1.2183    1.7393 H   0  0  0  0  0  0  0  0  0  0  0  0
    5.8425    1.2961    0.6815 H   0  0  0  0  0  0  0  0  0  0  0  0
    4.2567    1.6979    0.0945 H   0  0  0  0  0  0  0  0  0  0  0  0
    6.2927   -2.2965    0.2072 H   0  0  0  0  0  0  0  0  0  0  0  0
    4.7549   -3.0166    0.6913 H   0  0  0  0  0  0  0  0  0  0  0  0
    4.8442   -1.6687    2.5496 H   0  0  0  0  0  0  0  0  0  0  0  0
    6.2019   -0.7698    1.9179 H   0  0  0  0  0  0  0  0  0  0  0  0
    3.7003    0.9021   -2.2143 H   0  0  0  0  0  0  0  0  0  0  0  0
    4.9747    0.0428   -3.0738 H   0  0  0  0  0  0  0  0  0  0  0  0
    2.1097    1.3674    0.2179 H   0  0  0  0  0  0  0  0  0  0  0  0
    1.8517    1.0922    1.9606 H   0  0  0  0  0  0  0  0  0  0  0  0
    5.2751    2.7386   -1.6378 H   0  0  0  0  0  0  0  0  0  0  0  0
    6.6053    1.8429   -2.3962 H   0  0  0  0  0  0  0  0  0  0  0  0
    5.2596    2.4406   -3.3746 H   0  0  0  0  0  0  0  0  0  0  0  0
   -1.3903   -0.9046    0.2293 H   0  0  0  0  0  0  0  0  0  0  0  0
   -2.3712    2.6431    0.5944 H   0  0  0  0  0  0  0  0  0  0  0  0
   -2.7389   -2.1791   -0.1747 H   0  0  0  0  0  0  0  0  0  0  0  0
   -4.5960    3.4691    0.3587 H   0  0  0  0  0  0  0  0  0  0  0  0
   -6.4695    1.9636   -0.1642 H   0  0  0  0  0  0  0  0  0  0  0  0
   -7.3197   -0.3362   -0.6400 H   0  0  0  0  0  0  0  0  0  0  0  0
   -4.5942   -3.6416   -0.6888 H   0  0  0  0  0  0  0  0  0  0  0  0
   -6.8906   -2.7429   -0.9258 H   0  0  0  0  0  0  0  0  0  0  0  0
  1 13  1  0  0  0  0
  1 15  1  0  0  0  0
  2 15  2  0  0  0  0
  3  8  1  0  0  0  0
  3  9  1  0  0  0  0
  3 11  1  0  0  0  0
  4 15  1  0  0  0  0
  4 16  1  0  0  0  0
  4 44  1  0  0  0  0
  5  6  1  0  0  0  0
  5  7  1  0  0  0  0
  5 10  1  0  0  0  0
  5 26  1  0  0  0  0
  6  9  1  0  0  0  0
  6 12  1  0  0  0  0
  6 27  1  0  0  0  0
  7  8  1  0  0  0  0
  7 28  1  0  0  0  0
  7 29  1  0  0  0  0
  8 13  1  0  0  0  0
  8 30  1  0  0  0  0
  9 31  1  0  0  0  0
  9 32  1  0  0  0  0
 10 11  1  0  0  0  0
 10 33  1  0  0  0  0
 10 34  1  0  0  0  0
 11 35  1  0  0  0  0
 11 36  1  0  0  0  0
 12 14  1  0  0  0  0
 12 37  1  0  0  0  0
 12 38  1  0  0  0  0
 13 39  1  0  0  0  0
 13 40  1  0  0  0  0
 14 41  1  0  0  0  0
 14 42  1  0  0  0  0
 14 43  1  0  0  0  0
 16 17  1  0  0  0  0
 16 18  2  0  0  0  0
 17 19  1  0  0  0  0
 17 20  2  0  0  0  0
 18 21  1  0  0  0  0
 18 45  1  0  0  0  0
 19 22  1  0  0  0  0
 19 23  2  0  0  0  0
 20 24  1  0  0  0  0
 20 46  1  0  0  0  0
 21 22  2  0  0  0  0
 21 47  1  0  0  0  0
 22 48  1  0  0  0  0
 23 25  1  0  0  0  0
 23 49  1  0  0  0  0
 24 25  2  0  0  0  0
 24 50  1  0  0  0  0
 25 51  1  0  0  0  0
M  END
> <PUBCHEM_COMPOUND_CID>
11943122

> <PUBCHEM_CONFORMER_RMSD>
0.8

> <PUBCHEM_CONFORMER_DIVERSEORDER>
1
115
89
15
53
9
74
11
106
113
99
111
72
41
119
19
98
108
23
114
107
88
103
47
62
76
29
54
4
80
56
120
91
60
8
35
65
112
28
12
105
51
49
93
85
109
68
2
58
64
84
110
13
79
48
17
43
90
61
3
55
67
21
117
70
37
50
18
63
71
26
104
69
66
40
5
82
83
87
118
32
73
86
75
57
100
116
95
16
39
38
102
34
33
6
59
31
77
14
45
42
24
30
25
97
10
44
36
96
94
46
22
78
20
101
92
81
27
52
7

> <PUBCHEM_MMFF94_PARTIAL_CHARGES>
25
1 -0.43
11 0.27
13 0.28
15 0.78
16 0.12
18 -0.15
2 -0.57
20 -0.15
21 -0.15
22 -0.15
23 -0.15
24 -0.15
25 -0.15
3 -0.81
4 -0.55
44 0.37
45 0.15
46 0.15
47 0.15
48 0.15
49 0.15
50 0.15
51 0.15
8 0.27
9 0.27

> <PUBCHEM_EFFECTIVE_ROTOR_COUNT>
7.2

> <PUBCHEM_PHARMACOPHORE_FEATURES>
7
1 14 hydrophobe
1 2 acceptor
1 3 cation
1 4 donor
6 16 17 18 19 21 22 rings
6 17 19 20 23 24 25 rings
8 3 5 6 7 8 9 10 11 rings

> <PUBCHEM_HEAVY_ATOM_COUNT>
25

> <PUBCHEM_ATOM_DEF_STEREO_COUNT>
3

> <PUBCHEM_ATOM_UDEF_STEREO_COUNT>
0

> <PUBCHEM_BOND_DEF_STEREO_COUNT>
0

> <PUBCHEM_BOND_UDEF_STEREO_COUNT>
0

> <PUBCHEM_ISOTOPIC_ATOM_COUNT>
0

> <PUBCHEM_COMPONENT_COUNT>
1

> <PUBCHEM_CACTVS_TAUTO_COUNT>
2

> <PUBCHEM_CONFORMER_ID>
00B63CD200000001

> <PUBCHEM_MMFF94_ENERGY>
77.0857

> <PUBCHEM_FEATURE_SELFOVERLAP>
35.546

> <PUBCHEM_SHAPE_FINGERPRINT>
10595046 47 18334860528010325300
10638233 991 17748831821285388077
11128504 68 17676490540251328108
11135609 99 18059005061716677606
11524674 6 16415474970283119367
12236239 1 18040715848916690881
12516196 113 17704066304861189841
12616971 3 17822011965171173424
12821665 9 18189345734678591717
13402501 40 18060135449104383895
13782708 43 17417804085047105247
13785724 45 9365979241251488388
14347332 77 18412259567259300549
14461889 52 18129366237718062570
14528608 73 18259990387803205396
15183329 4 18411983563754115015
15250474 111 18334565828814148907
15419008 42 17771621248523037933
15799311 1 18201171965740563723
17844677 252 18202001036052011977
17857418 61 18412541024639222187
18927931 339 18272649083002389415
19958102 18 18336816516679275055
21033648 144 16588030142559118598
21196832 93 17606408906512568555
21267235 1 18339358665520807779
21623969 137 16702017578294382318
220451 1 18412553089165401121
22061861 79 16558750096197697869
2297311 6 18273497892846119561
2303208 19 17131836468895574557
23081809 10 18259705579536104321
23198884 109 16805319986259580371
23522609 53 18265922218591604761
23559900 14 18271511096836315745
239999 70 17203326715735338754
2748736 6 8286215928789131259
3004659 81 18335983074112335586
329604 57 18413107281437886554
335352 9 18341887503736496725
34797466 226 17632579396123916584
394071 54 15123215676865688250
4073 2 18410009944329526539
4214541 1 18342732993064157113
4325135 7 18334012804835259036
497634 4 18409448077277653741
5104073 3 17846208930332524098
513532 50 18343310288688882372
6823239 73 18130776871806397833
7237137 82 18408884036397192909
86090 222 16343438262148971238
960060 61 18187651310335697648

> <PUBCHEM_SHAPE_MULTIPOLES>
492.79
19.06
2.48
1.5
2.78
0.1
-0.59
3.71
-5.03
2.04
-0.4
-3.29
-0.42
-2.89

> <PUBCHEM_SHAPE_SELFOVERLAP>
1063.845

> <PUBCHEM_SHAPE_VOLUME>
266.8

> <PUBCHEM_COORDINATE_TYPE>
2
5
10

$$$$
