75536707
  -OEChem-12032416343D

 53 55  0     1  0  0  0  0  0999 V2000
    4.5866   -1.6845   -0.0222 S   0  0  0  0  0  0  0  0  0  0  0  0
    0.2361   -1.5547    1.3649 O   0  0  0  0  0  0  0  0  0  0  0  0
   -0.6093   -1.3156   -2.1184 O   0  0  0  0  0  0  0  0  0  0  0  0
    4.6018   -2.1594   -1.3927 O   0  0  0  0  0  0  0  0  0  0  0  0
    5.4237   -2.3181    0.9785 O   0  0  0  0  0  0  0  0  0  0  0  0
   -2.8951   -0.4694   -0.1347 N   0  0  0  0  0  0  0  0  0  0  0  0
    2.9824   -1.6447    0.5427 N   0  0  0  0  0  0  0  0  0  0  0  0
   -1.7285   -1.3168    0.0513 C   0  0  1  0  0  0  0  0  0  0  0  0
   -0.5278   -0.8892   -0.7723 C   0  0  1  0  0  0  0  0  0  0  0  0
    0.6028   -1.5831   -0.0246 C   0  0  1  0  0  0  0  0  0  0  0  0
   -1.1658   -1.2477    1.4615 C   0  0  0  0  0  0  0  0  0  0  0  0
    1.9502   -0.9092   -0.2137 C   0  0  0  0  0  0  0  0  0  0  0  0
   -4.0948   -1.1028    0.3997 C   0  0  0  0  0  0  0  0  0  0  0  0
   -5.3112   -0.2319    0.2307 C   0  0  0  0  0  0  0  0  0  0  0  0
    5.0081    0.0322   -0.0358 C   0  0  0  0  0  0  0  0  0  0  0  0
   -5.5076    0.8626    1.0729 C   0  0  0  0  0  0  0  0  0  0  0  0
   -6.2432   -0.5211   -0.7659 C   0  0  0  0  0  0  0  0  0  0  0  0
    5.5725    0.6203    1.0962 C   0  0  0  0  0  0  0  0  0  0  0  0
    4.7737    0.7991   -1.1770 C   0  0  0  0  0  0  0  0  0  0  0  0
   -6.6360    1.6678    0.9184 C   0  0  0  0  0  0  0  0  0  0  0  0
   -7.3716    0.2841   -0.9204 C   0  0  0  0  0  0  0  0  0  0  0  0
   -7.5679    1.3786   -0.0783 C   0  0  0  0  0  0  0  0  0  0  0  0
    5.9026    1.9754    1.0868 C   0  0  0  0  0  0  0  0  0  0  0  0
    5.1037    2.1544   -1.1863 C   0  0  0  0  0  0  0  0  0  0  0  0
    5.6683    2.7426   -0.0544 C   0  0  0  0  0  0  0  0  0  0  0  0
   -8.7748    2.2396   -0.2427 C   0  0  0  0  0  0  0  0  0  0  0  0
    6.0212    4.1915   -0.0643 C   0  0  0  0  0  0  0  0  0  0  0  0
   -1.9684   -2.3565   -0.2128 H   0  0  0  0  0  0  0  0  0  0  0  0
   -0.4041    0.2008   -0.7535 H   0  0  0  0  0  0  0  0  0  0  0  0
    0.6785   -2.6375   -0.3217 H   0  0  0  0  0  0  0  0  0  0  0  0
   -1.2472   -0.2438    1.8940 H   0  0  0  0  0  0  0  0  0  0  0  0
   -1.6455   -1.9566    2.1432 H   0  0  0  0  0  0  0  0  0  0  0  0
    1.9201    0.1152    0.1740 H   0  0  0  0  0  0  0  0  0  0  0  0
    2.1992   -0.8822   -1.2788 H   0  0  0  0  0  0  0  0  0  0  0  0
   -3.0279   -0.3000   -1.1322 H   0  0  0  0  0  0  0  0  0  0  0  0
   -3.9792   -1.3174    1.4698 H   0  0  0  0  0  0  0  0  0  0  0  0
   -4.2684   -2.0692   -0.0914 H   0  0  0  0  0  0  0  0  0  0  0  0
   -0.7195   -2.2814   -2.1271 H   0  0  0  0  0  0  0  0  0  0  0  0
    2.8174   -1.7321    1.5533 H   0  0  0  0  0  0  0  0  0  0  0  0
   -4.7886    1.0974    1.8535 H   0  0  0  0  0  0  0  0  0  0  0  0
   -6.1021   -1.3694   -1.4304 H   0  0  0  0  0  0  0  0  0  0  0  0
    5.7568    0.0437    1.9982 H   0  0  0  0  0  0  0  0  0  0  0  0
    4.3329    0.3624   -2.0686 H   0  0  0  0  0  0  0  0  0  0  0  0
   -6.7771    2.5185    1.5798 H   0  0  0  0  0  0  0  0  0  0  0  0
   -8.0896    0.0498   -1.7019 H   0  0  0  0  0  0  0  0  0  0  0  0
    6.3418    2.4223    1.9748 H   0  0  0  0  0  0  0  0  0  0  0  0
    4.9172    2.7414   -2.0817 H   0  0  0  0  0  0  0  0  0  0  0  0
   -9.0890    2.6664    0.7159 H   0  0  0  0  0  0  0  0  0  0  0  0
   -9.6220    1.6630   -0.6294 H   0  0  0  0  0  0  0  0  0  0  0  0
   -8.5608    3.0575   -0.9378 H   0  0  0  0  0  0  0  0  0  0  0  0
    7.0494    4.3253   -0.4150 H   0  0  0  0  0  0  0  0  0  0  0  0
    5.3503    4.7572   -0.7199 H   0  0  0  0  0  0  0  0  0  0  0  0
    5.9322    4.6268    0.9368 H   0  0  0  0  0  0  0  0  0  0  0  0
  1  4  2  0  0  0  0
  1  5  2  0  0  0  0
  1  7  1  0  0  0  0
  1 15  1  0  0  0  0
  2 10  1  0  0  0  0
  2 11  1  0  0  0  0
  3  9  1  0  0  0  0
  3 38  1  0  0  0  0
  6  8  1  0  0  0  0
  6 13  1  0  0  0  0
  6 35  1  0  0  0  0
  7 12  1  0  0  0  0
  7 39  1  0  0  0  0
  8  9  1  0  0  0  0
  8 11  1  0  0  0  0
  8 28  1  0  0  0  0
  9 10  1  0  0  0  0
  9 29  1  0  0  0  0
 10 12  1  0  0  0  0
 10 30  1  0  0  0  0
 11 31  1  0  0  0  0
 11 32  1  0  0  0  0
 12 33  1  0  0  0  0
 12 34  1  0  0  0  0
 13 14  1  0  0  0  0
 13 36  1  0  0  0  0
 13 37  1  0  0  0  0
 14 16  2  0  0  0  0
 14 17  1  0  0  0  0
 15 18  2  0  0  0  0
 15 19  1  0  0  0  0
 16 20  1  0  0  0  0
 16 40  1  0  0  0  0
 17 21  2  0  0  0  0
 17 41  1  0  0  0  0
 18 23  1  0  0  0  0
 18 42  1  0  0  0  0
 19 24  2  0  0  0  0
 19 43  1  0  0  0  0
 20 22  2  0  0  0  0
 20 44  1  0  0  0  0
 21 22  1  0  0  0  0
 21 45  1  0  0  0  0
 22 26  1  0  0  0  0
 23 25  2  0  0  0  0
 23 46  1  0  0  0  0
 24 25  1  0  0  0  0
 24 47  1  0  0  0  0
 25 27  1  0  0  0  0
 26 48  1  0  0  0  0
 26 49  1  0  0  0  0
 26 50  1  0  0  0  0
 27 51  1  0  0  0  0
 27 52  1  0  0  0  0
 27 53  1  0  0  0  0
M  END
> <PUBCHEM_COMPOUND_CID>
75536707

> <PUBCHEM_CONFORMER_RMSD>
1.2

> <PUBCHEM_CONFORMER_DIVERSEORDER>
1
104
40
90
91
122
100
76
15
72
84
85
111
71
102
77
48
97
92
13
22
75
88
118
41
67
126
29
83
27
64
42
61
18
119
115
54
2
121
20
7
81
60
23
114
34
58
39
6
56
109
55
44
50
5
125
105
65
117
68
30
8
93
127
95
63
103
11
87
113
110
128
16
124
131
89
19
46
4
74
62
9
73
26
78
79
38
33
82
17
116
94
28
112
70
37
45
86
80
69
51
108
3
36
106
24
96
10
129
47
107
49
25
101
57
14
43
59
52
130
99
12
123
53
35
66
120
31
21
32
98

> <PUBCHEM_MMFF94_PARTIAL_CHARGES>
38
1 1.45
10 0.28
11 0.28
12 0.36
13 0.41
14 -0.14
15 -0.01
16 -0.15
17 -0.15
18 -0.15
19 -0.15
2 -0.56
20 -0.15
21 -0.15
22 -0.14
23 -0.15
24 -0.15
25 -0.14
26 0.14
27 0.14
3 -0.68
35 0.36
38 0.4
39 0.42
4 -0.65
40 0.15
41 0.15
42 0.15
43 0.15
44 0.15
45 0.15
46 0.15
47 0.15
5 -0.65
6 -0.9
7 -0.91
8 0.27
9 0.28

> <PUBCHEM_EFFECTIVE_ROTOR_COUNT>
8

> <PUBCHEM_PHARMACOPHORE_FEATURES>
11
1 2 acceptor
1 3 acceptor
1 3 donor
1 4 acceptor
1 5 acceptor
1 6 cation
1 6 donor
1 7 donor
5 2 8 9 10 11 rings
6 14 16 17 20 21 22 rings
6 15 18 19 23 24 25 rings

> <PUBCHEM_HEAVY_ATOM_COUNT>
27

> <PUBCHEM_ATOM_DEF_STEREO_COUNT>
3

> <PUBCHEM_ATOM_UDEF_STEREO_COUNT>
0

> <PUBCHEM_BOND_DEF_STEREO_COUNT>
0

> <PUBCHEM_BOND_UDEF_STEREO_COUNT>
0

> <PUBCHEM_ISOTOPIC_ATOM_COUNT>
0

> <PUBCHEM_COMPONENT_COUNT>
1

> <PUBCHEM_CACTVS_TAUTO_COUNT>
1

> <PUBCHEM_CONFORMER_ID>
0480994300000001

> <PUBCHEM_MMFF94_ENERGY>
50.6035

> <PUBCHEM_FEATURE_SELFOVERLAP>
55.84

> <PUBCHEM_SHAPE_FINGERPRINT>
10 15 16225770722467175391
10280341 67 17699842123840256344
10554248 39 17917426476091271687
10673678 19 18272374191393021782
10906281 52 17774739588528299947
11135609 127 18342731936396518608
11386260 185 18202011997647061636
11408170 132 14404636346723486971
11408170 253 17916028954633712497
117089 54 7924264440662581688
11991303 11 16343695578203388005
125118 31 18408323268033852689
12522641 24 17895750682571432842
12539765 74 18130512942599948287
13533116 47 17894910668736282754
13668630 136 12247668367436323853
13782708 43 9295292724895160147
13878862 14 18409440389296333964
13944108 23 18336551616382896836
14251757 52 18411134732203628065
14347332 77 10375604680273910555
14347424 109 18334290951291429882
14565420 104 18113333111405866362
15131766 46 18126838520525981468
15183329 4 17632861923393670553
15475509 35 11097854125069598020
155225 6 18045507667053022204
15840311 113 18335423435409530909
16994733 274 18339354262256020729
17134984 74 11600003245901833132
17686467 74 18114181961412588477
20157964 124 18412546509471026466
20281389 69 18187927244851893895
20771845 171 17489310733222579831
21033648 29 17603591858657617035
21130935 74 18113618988998699739
21298829 104 18337674230011692188
21344244 181 11455889169837593405
21521239 73 12247678266523506279
21585482 111 18335986462599588716
21641784 216 16271938077334944243
21792934 111 16226314937979116311
22122407 14 18339654398628431352
2303208 19 10879997930265956947
23081809 10 16702029638705344691
24771293 8 17895474842285209596
249057 25 17703236100467847274
27425 322 18413107281771079974
2748736 6 18409164445789341385
328310 630 18201727245509999241
33532 11 9295286145290235553
3472631 163 18130229367146170684
3534868 343 17488475065878339730
3711267 37 18200601285833090465
397638 26 16587742028148336209
397830 11 18114474460610636043
4073 2 18335140912688491331
4169191 19 18410012173829178237
44555599 121 18271249326757992161
465052 167 8070038761586831680
5104073 3 17822008765642480978
5718773 13 10087379802281704684
6328613 192 18341895195305414537
6898599 12 18129380578070973319

> <PUBCHEM_SHAPE_MULTIPOLES>
526.06
25.57
3.32
1.32
32.29
2.72
0.14
20.85
0.39
-6.27
-0.03
-0.44
-0.24
-0.41

> <PUBCHEM_SHAPE_SELFOVERLAP>
1092.967

> <PUBCHEM_SHAPE_VOLUME>
301.1

> <PUBCHEM_COORDINATE_TYPE>
2
5
10

$$$$
