51138057
  -OEChem-12032416233D

 60 64  0     1  0  0  0  0  0999 V2000
   -3.2556    2.5453   -1.1583 O   0  0  0  0  0  0  0  0  0  0  0  0
   -4.4010    1.5155    0.5827 N   0  0  0  0  0  0  0  0  0  0  0  0
   -2.1319   -0.2498   -0.5108 N   0  0  0  0  0  0  0  0  0  0  0  0
    2.5691    0.9019    0.9309 N   0  0  0  0  0  0  0  0  0  0  0  0
    5.9161    0.0225    0.4620 N   0  0  0  0  0  0  0  0  0  0  0  0
   -5.6647    2.1598    0.3658 C   0  0  0  0  0  0  0  0  0  0  0  0
   -6.9482    1.5318    0.8244 C   0  0  0  0  0  0  0  0  0  0  0  0
   -6.6422    1.6292   -0.6415 C   0  0  0  0  0  0  0  0  0  0  0  0
   -2.0848    0.9995    0.2352 C   0  0  1  0  0  0  0  0  0  0  0  0
   -1.6426   -1.4231    0.2255 C   0  0  2  0  0  0  0  0  0  0  0  0
   -0.8301    1.8046   -0.0974 C   0  0  0  0  0  0  0  0  0  0  0  0
   -0.1613   -1.3985    0.6158 C   0  0  0  0  0  0  0  0  0  0  0  0
    0.6639   -0.2370    0.6306 C   0  0  0  0  0  0  0  0  0  0  0  0
    0.4395    1.1529    0.3380 C   0  0  0  0  0  0  0  0  0  0  0  0
   -1.9962   -2.6219   -0.6730 C   0  0  0  0  0  0  0  0  0  0  0  0
   -3.2924    1.7675   -0.2081 C   0  0  0  0  0  0  0  0  0  0  0  0
    2.0033   -0.3479    1.0218 C   0  0  0  0  0  0  0  0  0  0  0  0
   -3.4805   -2.9960   -0.6146 C   0  0  0  0  0  0  0  0  0  0  0  0
    1.6376    1.8119    0.5269 C   0  0  0  0  0  0  0  0  0  0  0  0
    0.4393   -2.5981    1.0756 C   0  0  0  0  0  0  0  0  0  0  0  0
    2.5890   -1.5483    1.4271 C   0  0  0  0  0  0  0  0  0  0  0  0
    3.9460    1.2276    1.2354 C   0  0  0  0  0  0  0  0  0  0  0  0
    1.7766   -2.6744    1.4598 C   0  0  0  0  0  0  0  0  0  0  0  0
   -4.3941   -1.8536   -1.0608 C   0  0  0  0  0  0  0  0  0  0  0  0
   -3.7256   -4.2266   -1.4911 C   0  0  0  0  0  0  0  0  0  0  0  0
    4.9058    0.8579    0.1320 C   0  0  0  0  0  0  0  0  0  0  0  0
    4.7124    1.3778   -1.1378 C   0  0  0  0  0  0  0  0  0  0  0  0
    5.6139    1.0167   -2.1329 C   0  0  0  0  0  0  0  0  0  0  0  0
    6.7724   -0.3061   -0.5312 C   0  0  0  0  0  0  0  0  0  0  0  0
    6.6663    0.1589   -1.8321 C   0  0  0  0  0  0  0  0  0  0  0  0
   -5.5987    3.2388    0.4668 H   0  0  0  0  0  0  0  0  0  0  0  0
   -7.7151    2.1837    1.2241 H   0  0  0  0  0  0  0  0  0  0  0  0
   -6.9097    0.5505    1.2813 H   0  0  0  0  0  0  0  0  0  0  0  0
   -6.3993    0.7137   -1.1665 H   0  0  0  0  0  0  0  0  0  0  0  0
   -7.2016    2.3476   -1.2280 H   0  0  0  0  0  0  0  0  0  0  0  0
   -2.1482    0.8333    1.3190 H   0  0  0  0  0  0  0  0  0  0  0  0
   -2.2046   -1.5147    1.1652 H   0  0  0  0  0  0  0  0  0  0  0  0
   -0.9029    2.7919    0.3794 H   0  0  0  0  0  0  0  0  0  0  0  0
   -0.7596    1.9958   -1.1775 H   0  0  0  0  0  0  0  0  0  0  0  0
   -4.3369    0.8537    1.3516 H   0  0  0  0  0  0  0  0  0  0  0  0
   -1.6586   -0.1606   -1.4092 H   0  0  0  0  0  0  0  0  0  0  0  0
   -1.4411   -3.5216   -0.3927 H   0  0  0  0  0  0  0  0  0  0  0  0
   -1.6906   -2.4271   -1.7117 H   0  0  0  0  0  0  0  0  0  0  0  0
   -3.7436   -3.2654    0.4163 H   0  0  0  0  0  0  0  0  0  0  0  0
    1.8892    2.8576    0.4064 H   0  0  0  0  0  0  0  0  0  0  0  0
   -0.1483   -3.5079    1.1755 H   0  0  0  0  0  0  0  0  0  0  0  0
    3.6282   -1.6113    1.7303 H   0  0  0  0  0  0  0  0  0  0  0  0
    4.0130    2.3053    1.4282 H   0  0  0  0  0  0  0  0  0  0  0  0
    4.2104    0.7238    2.1725 H   0  0  0  0  0  0  0  0  0  0  0  0
    2.1855   -3.6225    1.7990 H   0  0  0  0  0  0  0  0  0  0  0  0
   -4.0625   -1.4012   -2.0009 H   0  0  0  0  0  0  0  0  0  0  0  0
   -4.4848   -1.0899   -0.2866 H   0  0  0  0  0  0  0  0  0  0  0  0
   -5.4128   -2.2249   -1.2254 H   0  0  0  0  0  0  0  0  0  0  0  0
   -3.4957   -4.0192   -2.5419 H   0  0  0  0  0  0  0  0  0  0  0  0
   -4.7716   -4.5459   -1.4306 H   0  0  0  0  0  0  0  0  0  0  0  0
   -3.1047   -5.0686   -1.1670 H   0  0  0  0  0  0  0  0  0  0  0  0
    3.8980    2.0551   -1.3690 H   0  0  0  0  0  0  0  0  0  0  0  0
    5.4981    1.4046   -3.1404 H   0  0  0  0  0  0  0  0  0  0  0  0
    7.5754   -0.9773   -0.2451 H   0  0  0  0  0  0  0  0  0  0  0  0
    7.3811   -0.1356   -2.5918 H   0  0  0  0  0  0  0  0  0  0  0  0
  1 16  2  0  0  0  0
  2  6  1  0  0  0  0
  2 16  1  0  0  0  0
  2 40  1  0  0  0  0
  3  9  1  0  0  0  0
  3 10  1  0  0  0  0
  3 41  1  0  0  0  0
  4 17  1  0  0  0  0
  4 19  1  0  0  0  0
  4 22  1  0  0  0  0
  5 26  1  0  0  0  0
  5 29  2  0  0  0  0
  6  7  1  0  0  0  0
  6  8  1  0  0  0  0
  6 31  1  0  0  0  0
  7  8  1  0  0  0  0
  7 32  1  0  0  0  0
  7 33  1  0  0  0  0
  8 34  1  0  0  0  0
  8 35  1  0  0  0  0
  9 11  1  0  0  0  0
  9 16  1  0  0  0  0
  9 36  1  0  0  0  0
 10 12  1  0  0  0  0
 10 15  1  0  0  0  0
 10 37  1  0  0  0  0
 11 14  1  0  0  0  0
 11 38  1  0  0  0  0
 11 39  1  0  0  0  0
 12 13  2  0  0  0  0
 12 20  1  0  0  0  0
 13 14  1  0  0  0  0
 13 17  1  0  0  0  0
 14 19  2  0  0  0  0
 15 18  1  0  0  0  0
 15 42  1  0  0  0  0
 15 43  1  0  0  0  0
 17 21  2  0  0  0  0
 18 24  1  0  0  0  0
 18 25  1  0  0  0  0
 18 44  1  0  0  0  0
 19 45  1  0  0  0  0
 20 23  2  0  0  0  0
 20 46  1  0  0  0  0
 21 23  1  0  0  0  0
 21 47  1  0  0  0  0
 22 26  1  0  0  0  0
 22 48  1  0  0  0  0
 22 49  1  0  0  0  0
 23 50  1  0  0  0  0
 24 51  1  0  0  0  0
 24 52  1  0  0  0  0
 24 53  1  0  0  0  0
 25 54  1  0  0  0  0
 25 55  1  0  0  0  0
 25 56  1  0  0  0  0
 26 27  2  0  0  0  0
 27 28  1  0  0  0  0
 27 57  1  0  0  0  0
 28 30  2  0  0  0  0
 28 58  1  0  0  0  0
 29 30  1  0  0  0  0
 29 59  1  0  0  0  0
 30 60  1  0  0  0  0
M  END
> <PUBCHEM_COMPOUND_CID>
51138057

> <PUBCHEM_CONFORMER_RMSD>
1

> <PUBCHEM_CONFORMER_DIVERSEORDER>
1
54
67
80
38
65
59
37
73
78
49
40
24
33
85
13
70
76
30
16
5
20
43
56
69
47
84
74
61
81
71
7
42
23
75
62
15
86
9
79
10
50
82
68
14
29
35
27
55
6
26
63
18
66
8
83
77
72
46
19
48
32
53
45
34
11
44
21
3
60
17
28
64
25
2
58
4
57
51
12
39
22
52
41
31
36

> <PUBCHEM_MMFF94_PARTIAL_CHARGES>
40
1 -0.57
10 0.41
11 0.18
12 -0.14
14 -0.18
16 0.57
17 -0.15
19 -0.3
2 -0.58
20 -0.15
21 -0.15
22 0.4
23 -0.15
26 0.17
27 -0.15
28 -0.15
29 0.16
3 -0.9
30 -0.15
31 0.1
32 0.1
33 0.1
34 0.1
35 0.1
4 0.05
40 0.37
41 0.36
45 0.15
46 0.15
47 0.15
5 -0.62
50 0.15
57 0.15
58 0.15
59 0.15
6 0.05
60 0.15
7 -0.2
8 -0.2
9 0.33

> <PUBCHEM_EFFECTIVE_ROTOR_COUNT>
8.4

> <PUBCHEM_PHARMACOPHORE_FEATURES>
11
1 1 acceptor
1 2 donor
1 3 cation
1 3 donor
1 4 cation
1 5 acceptor
3 18 24 25 hydrophobe
5 4 13 14 17 19 rings
6 12 13 17 20 21 23 rings
6 5 26 27 28 29 30 rings
7 3 9 10 11 12 13 14 rings

> <PUBCHEM_HEAVY_ATOM_COUNT>
30

> <PUBCHEM_ATOM_DEF_STEREO_COUNT>
2

> <PUBCHEM_ATOM_UDEF_STEREO_COUNT>
0

> <PUBCHEM_BOND_DEF_STEREO_COUNT>
0

> <PUBCHEM_BOND_UDEF_STEREO_COUNT>
0

> <PUBCHEM_ISOTOPIC_ATOM_COUNT>
0

> <PUBCHEM_COMPONENT_COUNT>
1

> <PUBCHEM_CACTVS_TAUTO_COUNT>
2

> <PUBCHEM_CONFORMER_ID>
030C4E0900000001

> <PUBCHEM_MMFF94_ENERGY>
73.4519

> <PUBCHEM_FEATURE_SELFOVERLAP>
55.952

> <PUBCHEM_SHAPE_FINGERPRINT>
10190108 129 18190193450123651371
10670039 82 18187081789266696228
10674148 151 17489312923914291632
11445158 3 17828750760163811407
12954195 1 18343586269320609527
13540713 5 18262216872732002066
13782708 43 17059774558310578335
13911987 19 18267010679906572045
14294032 229 18260543381806650941
1454969 45 18113902650377104845
14790565 3 18334296482681955529
14840074 17 17095246938321681828
15131766 46 16082233950617147452
15183329 4 17917999334871691776
15629462 23 16486705683947067609
15927050 60 18342735192151268263
15961568 22 16878231852702109764
16752209 62 18262516013657566258
19319366 153 18113898200084202307
19841028 212 14548465657444887244
21641784 216 17968362567559871559
22393880 68 18341886424702497824
23559900 14 17988636441043006552
25147074 1 18260816090675735762
3610482 184 18115043994833032468
38570 142 18334304136334847370
5171179 24 17984700279746914873
5252454 2 18335973186496291873
563151 40 18409173207770759771
59521120 56 18059573633713061599
59755656 215 18202004300189947548
59755656 520 18342174449768403805

> <PUBCHEM_SHAPE_MULTIPOLES>
591.59
16.28
3.79
1.52
4.11
3.43
0.37
-8.17
5.97
-6.29
0.68
1.64
0.42
-2.24

> <PUBCHEM_SHAPE_SELFOVERLAP>
1277.759

> <PUBCHEM_SHAPE_VOLUME>
324.5

> <PUBCHEM_COORDINATE_TYPE>
2
5
10

$$$$
