25313127
  -OEChem-12032416193D

 68 71  0     1  0  0  0  0  0999 V2000
    0.5456    6.3249    0.1532 F   0  0  0  0  0  0  0  0  0  0  0  0
    1.9042    4.6421    0.3765 F   0  0  0  0  0  0  0  0  0  0  0  0
    0.5980    5.2172    2.0169 F   0  0  0  0  0  0  0  0  0  0  0  0
   -3.7832    1.6983   -2.4952 O   0  0  0  0  0  0  0  0  0  0  0  0
   -3.9574   -5.9770    0.6106 O   0  0  0  0  0  0  0  0  0  0  0  0
   -5.6366   -4.4409    0.5718 O   0  0  0  0  0  0  0  0  0  0  0  0
   -3.8061    0.4350   -0.5260 N   0  0  0  0  0  0  0  0  0  0  0  0
    0.9981   -0.9331    0.3953 N   0  0  0  0  0  0  0  0  0  0  0  0
    3.8027   -1.3951    0.1126 N   0  0  0  0  0  0  0  0  0  0  0  0
   -2.7507   -1.2614    0.9519 C   0  0  2  0  0  0  0  0  0  0  0  0
   -3.8051   -2.2867    0.4624 C   0  0  1  0  0  0  0  0  0  0  0  0
   -3.3133    0.1670    0.8324 C   0  0  0  0  0  0  0  0  0  0  0  0
   -4.3243   -1.9373   -0.9427 C   0  0  0  0  0  0  0  0  0  0  0  0
   -1.4007   -1.3640    0.2309 C   0  0  0  0  0  0  0  0  0  0  0  0
   -4.8254   -0.4971   -1.0043 C   0  0  0  0  0  0  0  0  0  0  0  0
   -0.2743   -0.8409    1.1105 C   0  0  0  0  0  0  0  0  0  0  0  0
   -3.3056   -3.7306    0.5085 C   0  0  0  0  0  0  0  0  0  0  0  0
    1.5393   -2.2949    0.4806 C   0  0  0  0  0  0  0  0  0  0  0  0
    1.9670    0.0245    0.9428 C   0  0  0  0  0  0  0  0  0  0  0  0
   -3.3776    1.4738   -1.3559 C   0  0  0  0  0  0  0  0  0  0  0  0
    2.8433   -2.4195   -0.3113 C   0  0  0  0  0  0  0  0  0  0  0  0
    3.2844   -0.0223    0.1655 C   0  0  0  0  0  0  0  0  0  0  0  0
   -4.4449   -4.7105    0.5656 C   0  0  0  0  0  0  0  0  0  0  0  0
   -2.3529    2.3893   -0.8419 C   0  0  0  0  0  0  0  0  0  0  0  0
    5.1668   -1.5735   -0.1431 C   0  0  0  0  0  0  0  0  0  0  0  0
   -1.0016    2.1099   -1.0461 C   0  0  0  0  0  0  0  0  0  0  0  0
   -2.7303    3.5391   -0.1483 C   0  0  0  0  0  0  0  0  0  0  0  0
    5.5780   -2.3010   -1.2600 C   0  0  0  0  0  0  0  0  0  0  0  0
    6.1156   -1.0208    0.7170 C   0  0  0  0  0  0  0  0  0  0  0  0
   -0.0278    2.9802   -0.5565 C   0  0  0  0  0  0  0  0  0  0  0  0
   -1.7565    4.4095    0.3414 C   0  0  0  0  0  0  0  0  0  0  0  0
   -0.4053    4.1300    0.1373 C   0  0  0  0  0  0  0  0  0  0  0  0
    6.9379   -2.4759   -1.5167 C   0  0  0  0  0  0  0  0  0  0  0  0
    7.4755   -1.1955    0.4603 C   0  0  0  0  0  0  0  0  0  0  0  0
    7.8865   -1.9231   -0.6565 C   0  0  0  0  0  0  0  0  0  0  0  0
    0.6365    5.0603    0.6607 C   0  0  0  0  0  0  0  0  0  0  0  0
   -2.5863   -1.4642    2.0193 H   0  0  0  0  0  0  0  0  0  0  0  0
   -4.6573   -2.1942    1.1519 H   0  0  0  0  0  0  0  0  0  0  0  0
   -4.1752    0.2787    1.5026 H   0  0  0  0  0  0  0  0  0  0  0  0
   -2.5807    0.9082    1.1545 H   0  0  0  0  0  0  0  0  0  0  0  0
   -5.1369   -2.6085   -1.2405 H   0  0  0  0  0  0  0  0  0  0  0  0
   -3.5191   -2.0680   -1.6770 H   0  0  0  0  0  0  0  0  0  0  0  0
   -1.4236   -0.8426   -0.7315 H   0  0  0  0  0  0  0  0  0  0  0  0
   -1.1936   -2.4094   -0.0082 H   0  0  0  0  0  0  0  0  0  0  0  0
   -5.1244   -0.2538   -2.0290 H   0  0  0  0  0  0  0  0  0  0  0  0
   -5.7091   -0.3714   -0.3676 H   0  0  0  0  0  0  0  0  0  0  0  0
   -0.2360   -1.3721    2.0704 H   0  0  0  0  0  0  0  0  0  0  0  0
   -0.4859    0.2076    1.3491 H   0  0  0  0  0  0  0  0  0  0  0  0
   -2.6993   -3.9694   -0.3722 H   0  0  0  0  0  0  0  0  0  0  0  0
   -2.7039   -3.8863    1.4117 H   0  0  0  0  0  0  0  0  0  0  0  0
    0.8388   -3.0298    0.0709 H   0  0  0  0  0  0  0  0  0  0  0  0
    1.7243   -2.5733    1.5272 H   0  0  0  0  0  0  0  0  0  0  0  0
    2.1600   -0.1890    2.0030 H   0  0  0  0  0  0  0  0  0  0  0  0
    1.5752    1.0448    0.8878 H   0  0  0  0  0  0  0  0  0  0  0  0
    3.2489   -3.4247   -0.1412 H   0  0  0  0  0  0  0  0  0  0  0  0
    2.6331   -2.3141   -1.3835 H   0  0  0  0  0  0  0  0  0  0  0  0
    3.1315    0.3451   -0.8577 H   0  0  0  0  0  0  0  0  0  0  0  0
    3.9902    0.6612    0.6513 H   0  0  0  0  0  0  0  0  0  0  0  0
   -4.6757   -6.6441    0.6484 H   0  0  0  0  0  0  0  0  0  0  0  0
   -0.6941    1.2264   -1.5982 H   0  0  0  0  0  0  0  0  0  0  0  0
   -3.7804    3.7658    0.0168 H   0  0  0  0  0  0  0  0  0  0  0  0
    4.8677   -2.7328   -1.9592 H   0  0  0  0  0  0  0  0  0  0  0  0
    5.8160   -0.4625    1.6002 H   0  0  0  0  0  0  0  0  0  0  0  0
    1.0187    2.7518   -0.7372 H   0  0  0  0  0  0  0  0  0  0  0  0
   -2.0602    5.3026    0.8810 H   0  0  0  0  0  0  0  0  0  0  0  0
    7.2585   -3.0396   -2.3879 H   0  0  0  0  0  0  0  0  0  0  0  0
    8.2145   -0.7677    1.1315 H   0  0  0  0  0  0  0  0  0  0  0  0
    8.9453   -2.0591   -0.8564 H   0  0  0  0  0  0  0  0  0  0  0  0
  1 36  1  0  0  0  0
  2 36  1  0  0  0  0
  3 36  1  0  0  0  0
  4 20  2  0  0  0  0
  5 23  1  0  0  0  0
  5 59  1  0  0  0  0
  6 23  2  0  0  0  0
  7 12  1  0  0  0  0
  7 15  1  0  0  0  0
  7 20  1  0  0  0  0
  8 16  1  0  0  0  0
  8 18  1  0  0  0  0
  8 19  1  0  0  0  0
  9 21  1  0  0  0  0
  9 22  1  0  0  0  0
  9 25  1  0  0  0  0
 10 11  1  0  0  0  0
 10 12  1  0  0  0  0
 10 14  1  0  0  0  0
 10 37  1  0  0  0  0
 11 13  1  0  0  0  0
 11 17  1  0  0  0  0
 11 38  1  0  0  0  0
 12 39  1  0  0  0  0
 12 40  1  0  0  0  0
 13 15  1  0  0  0  0
 13 41  1  0  0  0  0
 13 42  1  0  0  0  0
 14 16  1  0  0  0  0
 14 43  1  0  0  0  0
 14 44  1  0  0  0  0
 15 45  1  0  0  0  0
 15 46  1  0  0  0  0
 16 47  1  0  0  0  0
 16 48  1  0  0  0  0
 17 23  1  0  0  0  0
 17 49  1  0  0  0  0
 17 50  1  0  0  0  0
 18 21  1  0  0  0  0
 18 51  1  0  0  0  0
 18 52  1  0  0  0  0
 19 22  1  0  0  0  0
 19 53  1  0  0  0  0
 19 54  1  0  0  0  0
 20 24  1  0  0  0  0
 21 55  1  0  0  0  0
 21 56  1  0  0  0  0
 22 57  1  0  0  0  0
 22 58  1  0  0  0  0
 24 26  2  0  0  0  0
 24 27  1  0  0  0  0
 25 28  2  0  0  0  0
 25 29  1  0  0  0  0
 26 30  1  0  0  0  0
 26 60  1  0  0  0  0
 27 31  2  0  0  0  0
 27 61  1  0  0  0  0
 28 33  1  0  0  0  0
 28 62  1  0  0  0  0
 29 34  2  0  0  0  0
 29 63  1  0  0  0  0
 30 32  2  0  0  0  0
 30 64  1  0  0  0  0
 31 32  1  0  0  0  0
 31 65  1  0  0  0  0
 32 36  1  0  0  0  0
 33 35  2  0  0  0  0
 33 66  1  0  0  0  0
 34 35  1  0  0  0  0
 34 67  1  0  0  0  0
 35 68  1  0  0  0  0
M  END
> <PUBCHEM_COMPOUND_CID>
25313127

> <PUBCHEM_CONFORMER_RMSD>
1.2

> <PUBCHEM_CONFORMER_DIVERSEORDER>
1
41
74
114
122
96
37
23
108
65
45
119
92
71
49
72
64
52
75
25
34
60
123
79
44
36
107
62
80
30
112
100
94
73
57
21
104
88
46
125
87
31
105
90
111
59
91
2
56
51
32
121
109
26
106
54
84
103
43
7
67
42
86
97
24
53
22
83
116
113
68
69
27
6
124
95
78
98
117
48
61
82
33
101
12
47
115
35
118
8
110
99
17
77
11
28
89
16
13
29
18
10
70
9
102
85
58
3
14
81
19
120
40
38
63
20
93
50
5
4
39
76
55
15
66

> <PUBCHEM_MMFF94_PARTIAL_CHARGES>
42
1 -0.34
12 0.3
15 0.3
16 0.27
17 0.06
18 0.27
19 0.27
2 -0.34
20 0.54
21 0.37
22 0.37
23 0.66
24 0.09
25 0.1
26 -0.15
27 -0.15
28 -0.15
29 -0.15
3 -0.34
30 -0.15
31 -0.15
32 -0.14
33 -0.15
34 -0.15
35 -0.15
36 1.16
4 -0.57
5 -0.65
59 0.5
6 -0.57
60 0.15
61 0.15
62 0.15
63 0.15
64 0.15
65 0.15
66 0.15
67 0.15
68 0.15
7 -0.66
8 -0.81
9 -0.84

> <PUBCHEM_EFFECTIVE_ROTOR_COUNT>
11.4

> <PUBCHEM_PHARMACOPHORE_FEATURES>
10
1 4 acceptor
1 5 acceptor
1 6 acceptor
1 8 cation
1 9 cation
3 5 6 23 anion
6 24 26 27 30 31 32 rings
6 25 28 29 33 34 35 rings
6 7 10 11 12 13 15 rings
6 8 9 18 19 21 22 rings

> <PUBCHEM_HEAVY_ATOM_COUNT>
36

> <PUBCHEM_ATOM_DEF_STEREO_COUNT>
2

> <PUBCHEM_ATOM_UDEF_STEREO_COUNT>
0

> <PUBCHEM_BOND_DEF_STEREO_COUNT>
0

> <PUBCHEM_BOND_UDEF_STEREO_COUNT>
0

> <PUBCHEM_ISOTOPIC_ATOM_COUNT>
0

> <PUBCHEM_COMPONENT_COUNT>
1

> <PUBCHEM_CACTVS_TAUTO_COUNT>
1

> <PUBCHEM_CONFORMER_ID>
01823F6700000001

> <PUBCHEM_MMFF94_ENERGY>
95.9451

> <PUBCHEM_FEATURE_SELFOVERLAP>
50.806

> <PUBCHEM_SHAPE_FINGERPRINT>
10290309 65 17757265986356456741
10454371 7 18265623087615445188
10816530 145 18341907246582649867
11049842 53 17400059895277612130
11093857 51 16815754621325276917
11434127 23 18268987579589261182
11445158 3 16845285086313617504
12788726 201 18119522146209481049
13911987 19 17900809462994105885
14068700 675 18114184155281378550
14856354 85 18341052904799968950
15324884 4 18055604404419162257
15400415 2 17473263176801411124
15876981 60 18261119568627407910
15968369 153 18201143418047904764
15968369 26 17105092197549871911
16114785 44 17910967846311624017
20101258 96 18335147539712122883
20775438 99 17689106449245403239
21033650 10 17974035889495406790
21057603 43 18053107500267111787
21772528 278 16695570931737638600
22956985 138 18119811575471171380
23559900 14 18266451204270372147
354706 132 17977111155152130812
4017518 198 16968583469264130092
469060 322 16010752341753212537
5171179 24 18192147311976004723
550186 7 17984135964267777916
57527452 28 16199567157655189461
6673363 416 18339658815184146748
9980921 221 18050310093767214358

> <PUBCHEM_SHAPE_MULTIPOLES>
686.49
15.4
8.88
1.32
35.21
7.04
-0.35
-18.38
-4.07
-11.67
2.79
-0.31
0.4
2.76

> <PUBCHEM_SHAPE_SELFOVERLAP>
1456.636

> <PUBCHEM_SHAPE_VOLUME>
382.5

> <PUBCHEM_COORDINATE_TYPE>
2
5
10

$$$$
