11887612
  -OEChem-12032416133D

 71 74  0     1  0  0  0  0  0999 V2000
    3.5602   -0.5968    1.1831 S   0  0  0  0  0  0  0  0  0  0  0  0
   -3.7073    4.7082    2.4386 F   0  0  0  0  0  0  0  0  0  0  0  0
   -0.1411   -0.6621    1.9089 O   0  0  0  0  0  0  0  0  0  0  0  0
    3.3300   -2.0260    1.1919 O   0  0  0  0  0  0  0  0  0  0  0  0
    4.1896    0.0631    2.3074 O   0  0  0  0  0  0  0  0  0  0  0  0
    0.6762   -4.5720    1.7555 O   0  0  0  0  0  0  0  0  0  0  0  0
   -1.9873    1.7172   -1.7755 O   0  0  0  0  0  0  0  0  0  0  0  0
    2.0949    0.2036    0.8175 N   0  0  2  0  0  0  0  0  0  0  0  0
   -0.2813   -2.3738    0.3375 N   0  0  0  0  0  0  0  0  0  0  0  0
   -0.0625    1.6475   -0.4488 N   0  0  0  0  0  0  0  0  0  0  0  0
   -1.1186   -4.3706    3.1740 N   0  0  0  0  0  0  0  0  0  0  0  0
   -2.8868   -3.1542   -0.9006 C   0  0  0  0  0  0  0  0  0  0  0  0
   -3.7246   -4.0332   -1.8391 C   0  0  0  0  0  0  0  0  0  0  0  0
   -3.7729   -2.1376   -0.1682 C   0  0  0  0  0  0  0  0  0  0  0  0
   -2.1142   -4.0144    0.0976 C   0  0  0  0  0  0  0  0  0  0  0  0
   -4.5480   -3.1933   -2.8127 C   0  0  0  0  0  0  0  0  0  0  0  0
   -4.5964   -1.3008   -1.1446 C   0  0  0  0  0  0  0  0  0  0  0  0
   -5.4210   -2.1782   -2.0815 C   0  0  0  0  0  0  0  0  0  0  0  0
   -1.2141   -3.2185    1.0479 C   0  0  1  0  0  0  0  0  0  0  0  0
    1.1501   -0.5056   -0.0891 C   0  0  2  0  0  0  0  0  0  0  0  0
    0.4450    0.4246   -1.0718 C   0  0  0  0  0  0  0  0  0  0  0  0
    2.1846    1.6719    0.6070 C   0  0  0  0  0  0  0  0  0  0  0  0
    0.1746   -1.1645    0.8335 C   0  0  0  0  0  0  0  0  0  0  0  0
    0.7807    2.2599    0.5838 C   0  0  0  0  0  0  0  0  0  0  0  0
   -0.4342   -4.1091    2.0061 C   0  0  0  0  0  0  0  0  0  0  0  0
   -1.2591    2.2051   -0.9125 C   0  0  0  0  0  0  0  0  0  0  0  0
    4.4935   -0.2101   -0.2650 C   0  0  0  0  0  0  0  0  0  0  0  0
   -1.6951    3.4835   -0.3296 C   0  0  0  0  0  0  0  0  0  0  0  0
    5.2654    0.9397   -0.2866 C   0  0  0  0  0  0  0  0  0  0  0  0
    4.4370   -1.0622   -1.3555 C   0  0  0  0  0  0  0  0  0  0  0  0
   -2.5100    3.4879    0.7995 C   0  0  0  0  0  0  0  0  0  0  0  0
   -1.2907    4.6832   -0.9097 C   0  0  0  0  0  0  0  0  0  0  0  0
    6.0016    1.2462   -1.4311 C   0  0  0  0  0  0  0  0  0  0  0  0
    5.1732   -0.7559   -2.4998 C   0  0  0  0  0  0  0  0  0  0  0  0
    5.9555    0.3984   -2.5377 C   0  0  0  0  0  0  0  0  0  0  0  0
   -2.9232    4.7000    1.3524 C   0  0  0  0  0  0  0  0  0  0  0  0
   -1.7039    5.8953   -0.3571 C   0  0  0  0  0  0  0  0  0  0  0  0
   -2.5201    5.9037    0.7741 C   0  0  0  0  0  0  0  0  0  0  0  0
   -2.1711   -2.5998   -1.5226 H   0  0  0  0  0  0  0  0  0  0  0  0
   -3.0698   -4.7050   -2.4069 H   0  0  0  0  0  0  0  0  0  0  0  0
   -4.4000   -4.6688   -1.2521 H   0  0  0  0  0  0  0  0  0  0  0  0
   -4.4474   -2.6561    0.5248 H   0  0  0  0  0  0  0  0  0  0  0  0
   -3.1700   -1.4437    0.4262 H   0  0  0  0  0  0  0  0  0  0  0  0
   -1.4951   -4.7321   -0.4582 H   0  0  0  0  0  0  0  0  0  0  0  0
   -2.8127   -4.6204    0.6898 H   0  0  0  0  0  0  0  0  0  0  0  0
   -3.8743   -2.6672   -3.5004 H   0  0  0  0  0  0  0  0  0  0  0  0
   -5.1785   -3.8494   -3.4232 H   0  0  0  0  0  0  0  0  0  0  0  0
   -5.2608   -0.6310   -0.5871 H   0  0  0  0  0  0  0  0  0  0  0  0
   -3.9256   -0.6654   -1.7360 H   0  0  0  0  0  0  0  0  0  0  0  0
   -6.1893   -2.7068   -1.5039 H   0  0  0  0  0  0  0  0  0  0  0  0
   -5.9448   -1.5493   -2.8100 H   0  0  0  0  0  0  0  0  0  0  0  0
   -1.8339   -2.5633    1.6715 H   0  0  0  0  0  0  0  0  0  0  0  0
    1.6736   -1.2684   -0.6729 H   0  0  0  0  0  0  0  0  0  0  0  0
   -0.3713   -0.0994   -1.5822 H   0  0  0  0  0  0  0  0  0  0  0  0
    1.1488    0.7469   -1.8496 H   0  0  0  0  0  0  0  0  0  0  0  0
    2.7469    2.1353    1.4239 H   0  0  0  0  0  0  0  0  0  0  0  0
    2.6842    1.8974   -0.3400 H   0  0  0  0  0  0  0  0  0  0  0  0
    0.0982   -2.7253   -0.5370 H   0  0  0  0  0  0  0  0  0  0  0  0
    0.8413    3.3393    0.4162 H   0  0  0  0  0  0  0  0  0  0  0  0
    0.2781    2.1013    1.5452 H   0  0  0  0  0  0  0  0  0  0  0  0
   -2.0441   -3.9981    3.3604 H   0  0  0  0  0  0  0  0  0  0  0  0
   -0.7126   -4.9590    3.8940 H   0  0  0  0  0  0  0  0  0  0  0  0
    5.3137    1.6144    0.5626 H   0  0  0  0  0  0  0  0  0  0  0  0
    3.8385   -1.9676   -1.3479 H   0  0  0  0  0  0  0  0  0  0  0  0
   -2.8290    2.5555    1.2575 H   0  0  0  0  0  0  0  0  0  0  0  0
   -0.6545    4.6869   -1.7908 H   0  0  0  0  0  0  0  0  0  0  0  0
    6.6101    2.1453   -1.4610 H   0  0  0  0  0  0  0  0  0  0  0  0
    5.1379   -1.4163   -3.3614 H   0  0  0  0  0  0  0  0  0  0  0  0
    6.5286    0.6369   -3.4288 H   0  0  0  0  0  0  0  0  0  0  0  0
   -1.3899    6.8325   -0.8071 H   0  0  0  0  0  0  0  0  0  0  0  0
   -2.8419    6.8473    1.2049 H   0  0  0  0  0  0  0  0  0  0  0  0
  1  4  2  0  0  0  0
  1  5  2  0  0  0  0
  1  8  1  0  0  0  0
  1 27  1  0  0  0  0
  2 36  1  0  0  0  0
  3 23  2  0  0  0  0
  6 25  2  0  0  0  0
  7 26  2  0  0  0  0
  8 20  1  0  0  0  0
  8 22  1  0  0  0  0
  9 19  1  0  0  0  0
  9 23  1  0  0  0  0
  9 58  1  0  0  0  0
 10 21  1  0  0  0  0
 10 24  1  0  0  0  0
 10 26  1  0  0  0  0
 11 25  1  0  0  0  0
 11 61  1  0  0  0  0
 11 62  1  0  0  0  0
 12 13  1  0  0  0  0
 12 14  1  0  0  0  0
 12 15  1  0  0  0  0
 12 39  1  0  0  0  0
 13 16  1  0  0  0  0
 13 40  1  0  0  0  0
 13 41  1  0  0  0  0
 14 17  1  0  0  0  0
 14 42  1  0  0  0  0
 14 43  1  0  0  0  0
 15 19  1  0  0  0  0
 15 44  1  0  0  0  0
 15 45  1  0  0  0  0
 16 18  1  0  0  0  0
 16 46  1  0  0  0  0
 16 47  1  0  0  0  0
 17 18  1  0  0  0  0
 17 48  1  0  0  0  0
 17 49  1  0  0  0  0
 18 50  1  0  0  0  0
 18 51  1  0  0  0  0
 19 25  1  0  0  0  0
 19 52  1  0  0  0  0
 20 21  1  0  0  0  0
 20 23  1  0  0  0  0
 20 53  1  0  0  0  0
 21 54  1  0  0  0  0
 21 55  1  0  0  0  0
 22 24  1  0  0  0  0
 22 56  1  0  0  0  0
 22 57  1  0  0  0  0
 24 59  1  0  0  0  0
 24 60  1  0  0  0  0
 26 28  1  0  0  0  0
 27 29  2  0  0  0  0
 27 30  1  0  0  0  0
 28 31  2  0  0  0  0
 28 32  1  0  0  0  0
 29 33  1  0  0  0  0
 29 63  1  0  0  0  0
 30 34  2  0  0  0  0
 30 64  1  0  0  0  0
 31 36  1  0  0  0  0
 31 65  1  0  0  0  0
 32 37  2  0  0  0  0
 32 66  1  0  0  0  0
 33 35  2  0  0  0  0
 33 67  1  0  0  0  0
 34 35  1  0  0  0  0
 34 68  1  0  0  0  0
 35 69  1  0  0  0  0
 36 38  2  0  0  0  0
 37 38  1  0  0  0  0
 37 70  1  0  0  0  0
 38 71  1  0  0  0  0
M  END
> <PUBCHEM_COMPOUND_CID>
11887612

> <PUBCHEM_CONFORMER_RMSD>
1.2

> <PUBCHEM_CONFORMER_DIVERSEORDER>
1
168
175
266
302
384
40
148
385
319
419
422
350
234
208
271
349
351
342
310
315
209
381
71
397
289
243
412
330
235
250
380
226
278
357
408
307
92
44
294
121
242
332
117
329
308
9
46
244
118
354
190
316
236
230
111
179
122
78
371
358
96
248
154
375
326
136
174
374
386
372
314
213
368
322
221
89
376
207
411
382
252
281
423
391
156
239
164
66
421
215
112
369
392
137
259
94
31
159
269
155
288
420
231
110
273
90
370
395
181
206
48
165
205
57
227
198
187
356
306
276
258
311
255
120
56
199
410
343
407
216
295
334
291
193
246
257
162
91
373
134
29
263
431
409
335
387
366
249
19
365
309
73
427
153
299
138
33
58
105
81
377
301
41
245
160
406
304
224
328
95
360
23
359
323
353
194
113
339
201
35
429
127
22
378
51
99
297
400
185
279
379
277
265
361
100
98
405
167
64
296
321
103
363
214
355
74
182
163
86
292
186
135
184
270
222
34
77
75
390
67
284
197
345
180
283
25
189
237
30
170
176
233
50
336
12
53
251
169
320
388
260
415
348
253
106
287
394
10
317
196
129
341
145
195
220
69
338
82
143
313
39
218
262
401
428
192
38
131
333
425
54
204
337
254
298
229
268
150
36
210
340
37
102
426
128
414
17
60
418
6
327
62
312
125
286
264
43
52
15
389
293
223
119
240
157
344
416
55
403
115
352
275
256
97
364
383
5
47
85
126
399
59
202
84
32
200
93
140
285
116
228
123
290
413
142
104
8
166
79
72
211
24
49
26
141
280
65
114
282
171
151
42
147
241
13
109
177
398
152
108
402
274
80
404
68
178
183
144
130
331
70
232
247
393
303
87
18
61
83
272
124
191
225
430
346
267
217
149
76
20
362
173
28
4
347
45
396
132
325
212
367
203
424
63
172
300
261
3
139
305
158
161
417
219
11
318
27
7
88
2
14
238
101
133
146
324
188
21
16
107

> <PUBCHEM_MMFF94_PARTIAL_CHARGES>
43
1 1.45
10 -0.66
11 -0.8
19 0.36
2 -0.19
20 0.42
21 0.3
22 0.36
23 0.57
24 0.3
25 0.57
26 0.54
27 -0.01
28 0.09
29 -0.15
3 -0.57
30 -0.15
31 -0.15
32 -0.15
33 -0.15
34 -0.15
35 -0.15
36 0.19
37 -0.15
38 -0.15
4 -0.65
5 -0.65
58 0.37
6 -0.57
61 0.37
62 0.37
63 0.15
64 0.15
65 0.15
66 0.15
67 0.15
68 0.15
69 0.15
7 -0.57
70 0.15
71 0.15
8 -0.85
9 -0.73

> <PUBCHEM_EFFECTIVE_ROTOR_COUNT>
12.4

> <PUBCHEM_PHARMACOPHORE_FEATURES>
11
1 11 donor
1 3 acceptor
1 4 acceptor
1 5 acceptor
1 6 acceptor
1 7 acceptor
1 9 donor
6 12 13 14 16 17 18 rings
6 27 29 30 33 34 35 rings
6 28 31 32 36 37 38 rings
6 8 10 20 21 22 24 rings

> <PUBCHEM_HEAVY_ATOM_COUNT>
38

> <PUBCHEM_ATOM_DEF_STEREO_COUNT>
2

> <PUBCHEM_ATOM_UDEF_STEREO_COUNT>
0

> <PUBCHEM_BOND_DEF_STEREO_COUNT>
0

> <PUBCHEM_BOND_UDEF_STEREO_COUNT>
0

> <PUBCHEM_ISOTOPIC_ATOM_COUNT>
0

> <PUBCHEM_COMPONENT_COUNT>
1

> <PUBCHEM_CACTVS_TAUTO_COUNT>
4

> <PUBCHEM_CONFORMER_ID>
00B563FC00000001

> <PUBCHEM_MMFF94_ENERGY>
81.5161

> <PUBCHEM_FEATURE_SELFOVERLAP>
55.842

> <PUBCHEM_SHAPE_FINGERPRINT>
10190206 1 18335712641506748764
10815517 723 18272103707612057673
11115154 58 18268141149494827535
11331351 85 17987523774568147357
11505856 67 18336561446924649916
11991303 11 18127430967787284372
12788726 201 18335414694966856546
12977781 61 17630591346622056294
14251757 5 17823697653957171846
14705955 166 17836317784259312680
14790565 3 18119544145475524168
15351339 4 18116689933791495111
15775530 1 18272365408707537664
15927050 60 17979058393785729650
16114785 44 18264512648999907648
19311894 1 18341608252962449991
21120745 212 18341336673063206597
22121540 332 17758996668971363083
4353968 344 18268164209770495212
437795 70 18342458196413737631
508180 173 18264754641038701983
563151 40 18194984944996528884
9658208 31 18128817435255246216

> <PUBCHEM_SHAPE_MULTIPOLES>
729.33
11.03
9.13
2.64
10.45
14.27
0.13
-7.86
-8.99
-13.17
4.04
-0.23
-2.35
-2.36

> <PUBCHEM_SHAPE_SELFOVERLAP>
1532.372

> <PUBCHEM_SHAPE_VOLUME>
411.4

> <PUBCHEM_COORDINATE_TYPE>
2
5
10

$$$$
