75536374
  -OEChem-12032416303D

 60 63  0     1  0  0  0  0  0999 V2000
    3.6273   -0.5496    0.3096 O   0  0  0  0  0  0  0  0  0  0  0  0
    6.4040   -0.7411    1.2801 O   0  0  0  0  0  0  0  0  0  0  0  0
   -0.4898   -0.8701   -1.6465 O   0  0  0  0  0  0  0  0  0  0  0  0
    1.3064    2.4744   -0.2909 O   0  0  0  0  0  0  0  0  0  0  0  0
   -5.0962   -1.6702   -0.0651 O   0  0  0  0  0  0  0  0  0  0  0  0
   -5.1647    2.5590   -0.9816 O   0  0  0  0  0  0  0  0  0  0  0  0
    2.1003    1.4391    1.6194 N   0  0  0  0  0  0  0  0  0  0  0  0
    0.7382   -0.5254   -2.1980 N   0  0  0  0  0  0  0  0  0  0  0  0
   -0.1773    1.5299    1.2637 N   0  0  0  0  0  0  0  0  0  0  0  0
    3.8040   -0.1655   -1.0561 C   0  0  1  0  0  0  0  0  0  0  0  0
    4.2390    0.3196    1.2716 C   0  0  1  0  0  0  0  0  0  0  0  0
    5.7381    0.4920    0.9948 C   0  0  2  0  0  0  0  0  0  0  0  0
    5.2890   -0.0961   -1.4086 C   0  0  0  0  0  0  0  0  0  0  0  0
    6.0230    0.8488   -0.4616 C   0  0  0  0  0  0  0  0  0  0  0  0
    3.0892   -1.1984   -1.9188 C   0  0  0  0  0  0  0  0  0  0  0  0
    3.4930    1.6490    1.3648 C   0  0  0  0  0  0  0  0  0  0  0  0
    1.6283   -1.3002   -1.5715 C   0  0  0  0  0  0  0  0  0  0  0  0
    1.0261   -2.1455   -0.6235 C   0  0  0  0  0  0  0  0  0  0  0  0
    1.0788    1.8747    0.7571 C   0  0  0  0  0  0  0  0  0  0  0  0
   -0.3054   -1.8357   -0.7102 C   0  0  0  0  0  0  0  0  0  0  0  0
   -1.4920   -2.2980   -0.0509 C   0  0  0  0  0  0  0  0  0  0  0  0
   -1.4449    1.7899    0.6927 C   0  0  0  0  0  0  0  0  0  0  0  0
   -2.7325   -1.7536   -0.3837 C   0  0  0  0  0  0  0  0  0  0  0  0
   -1.4053   -3.2908    0.9251 C   0  0  0  0  0  0  0  0  0  0  0  0
   -3.8862   -2.2021    0.2592 C   0  0  0  0  0  0  0  0  0  0  0  0
   -2.5590   -3.7393    1.5683 C   0  0  0  0  0  0  0  0  0  0  0  0
   -2.6041    1.3693    1.3449 C   0  0  0  0  0  0  0  0  0  0  0  0
   -1.5356    2.4686   -0.5226 C   0  0  0  0  0  0  0  0  0  0  0  0
   -3.7995   -3.1952    1.2351 C   0  0  0  0  0  0  0  0  0  0  0  0
   -3.8539    1.6277    0.7821 C   0  0  0  0  0  0  0  0  0  0  0  0
   -2.7856    2.7268   -1.0856 C   0  0  0  0  0  0  0  0  0  0  0  0
   -3.9447    2.3064   -0.4333 C   0  0  0  0  0  0  0  0  0  0  0  0
   -6.3077    2.1015   -0.2602 C   0  0  0  0  0  0  0  0  0  0  0  0
    3.3380    0.8125   -1.2210 H   0  0  0  0  0  0  0  0  0  0  0  0
    4.1254   -0.2014    2.2311 H   0  0  0  0  0  0  0  0  0  0  0  0
    6.1644    1.2474    1.6641 H   0  0  0  0  0  0  0  0  0  0  0  0
    5.4231    0.2359   -2.4443 H   0  0  0  0  0  0  0  0  0  0  0  0
    5.7378   -1.0941   -1.3259 H   0  0  0  0  0  0  0  0  0  0  0  0
    7.0983    0.7948   -0.6682 H   0  0  0  0  0  0  0  0  0  0  0  0
    5.7054    1.8790   -0.6603 H   0  0  0  0  0  0  0  0  0  0  0  0
    3.5401   -2.1886   -1.7708 H   0  0  0  0  0  0  0  0  0  0  0  0
    3.2003   -0.9509   -2.9817 H   0  0  0  0  0  0  0  0  0  0  0  0
    3.6163    2.2495    0.4592 H   0  0  0  0  0  0  0  0  0  0  0  0
    3.8867    2.2388    2.1999 H   0  0  0  0  0  0  0  0  0  0  0  0
    7.3564   -0.5988    1.1451 H   0  0  0  0  0  0  0  0  0  0  0  0
    1.8350    0.9905    2.4908 H   0  0  0  0  0  0  0  0  0  0  0  0
    1.5005   -2.8697    0.0225 H   0  0  0  0  0  0  0  0  0  0  0  0
   -0.1903    1.0293    2.1488 H   0  0  0  0  0  0  0  0  0  0  0  0
   -2.8346   -0.9812   -1.1424 H   0  0  0  0  0  0  0  0  0  0  0  0
   -0.4534   -3.7335    1.2066 H   0  0  0  0  0  0  0  0  0  0  0  0
   -2.4917   -4.5121    2.3285 H   0  0  0  0  0  0  0  0  0  0  0  0
   -2.5460    0.8379    2.2915 H   0  0  0  0  0  0  0  0  0  0  0  0
   -0.6855    2.8236   -1.0875 H   0  0  0  0  0  0  0  0  0  0  0  0
   -4.6908   -3.5530    1.7436 H   0  0  0  0  0  0  0  0  0  0  0  0
   -4.7126    1.2722    1.3413 H   0  0  0  0  0  0  0  0  0  0  0  0
   -2.8514    3.2552   -2.0329 H   0  0  0  0  0  0  0  0  0  0  0  0
   -5.7823   -2.0917    0.4805 H   0  0  0  0  0  0  0  0  0  0  0  0
   -7.1913    2.3885   -0.8395 H   0  0  0  0  0  0  0  0  0  0  0  0
   -6.3915    2.5931    0.7150 H   0  0  0  0  0  0  0  0  0  0  0  0
   -6.3212    1.0098   -0.1773 H   0  0  0  0  0  0  0  0  0  0  0  0
  1 10  1  0  0  0  0
  1 11  1  0  0  0  0
  2 12  1  0  0  0  0
  2 45  1  0  0  0  0
  3  8  1  0  0  0  0
  3 20  1  0  0  0  0
  4 19  2  0  0  0  0
  5 25  1  0  0  0  0
  5 57  1  0  0  0  0
  6 32  1  0  0  0  0
  6 33  1  0  0  0  0
  7 16  1  0  0  0  0
  7 19  1  0  0  0  0
  7 46  1  0  0  0  0
  8 17  2  0  0  0  0
  9 19  1  0  0  0  0
  9 22  1  0  0  0  0
  9 48  1  0  0  0  0
 10 13  1  0  0  0  0
 10 15  1  0  0  0  0
 10 34  1  0  0  0  0
 11 12  1  0  0  0  0
 11 16  1  0  0  0  0
 11 35  1  0  0  0  0
 12 14  1  0  0  0  0
 12 36  1  0  0  0  0
 13 14  1  0  0  0  0
 13 37  1  0  0  0  0
 13 38  1  0  0  0  0
 14 39  1  0  0  0  0
 14 40  1  0  0  0  0
 15 17  1  0  0  0  0
 15 41  1  0  0  0  0
 15 42  1  0  0  0  0
 16 43  1  0  0  0  0
 16 44  1  0  0  0  0
 17 18  1  0  0  0  0
 18 20  2  0  0  0  0
 18 47  1  0  0  0  0
 20 21  1  0  0  0  0
 21 23  2  0  0  0  0
 21 24  1  0  0  0  0
 22 27  2  0  0  0  0
 22 28  1  0  0  0  0
 23 25  1  0  0  0  0
 23 49  1  0  0  0  0
 24 26  2  0  0  0  0
 24 50  1  0  0  0  0
 25 29  2  0  0  0  0
 26 29  1  0  0  0  0
 26 51  1  0  0  0  0
 27 30  1  0  0  0  0
 27 52  1  0  0  0  0
 28 31  2  0  0  0  0
 28 53  1  0  0  0  0
 29 54  1  0  0  0  0
 30 32  2  0  0  0  0
 30 55  1  0  0  0  0
 31 32  1  0  0  0  0
 31 56  1  0  0  0  0
 33 58  1  0  0  0  0
 33 59  1  0  0  0  0
 33 60  1  0  0  0  0
M  END
> <PUBCHEM_COMPOUND_CID>
75536374

> <PUBCHEM_CONFORMER_RMSD>
1.4

> <PUBCHEM_CONFORMER_DIVERSEORDER>
1
39
13
65
52
14
23
73
58
43
30
62
42
36
53
34
25
28
79
9
37
75
77
56
51
70
55
59
47
61
44
2
60
72
4
33
48
38
21
29
66
26
41
69
57
76
67
64
6
7
16
68
32
8
20
49
74
27
63
22
10
45
78
50
15
35
11
54
31
12
71
40
5
17
46
19
18
24
3

> <PUBCHEM_MMFF94_PARTIAL_CHARGES>
44
1 -0.56
10 0.28
11 0.28
12 0.28
15 0.18
16 0.3
17 0.11
18 -0.15
19 0.69
2 -0.68
20 0.09
21 0.05
22 0.12
23 -0.15
24 -0.15
25 0.08
26 -0.15
27 -0.15
28 -0.15
29 -0.15
3 -0.02
30 -0.15
31 -0.15
32 0.08
33 0.28
4 -0.57
45 0.4
46 0.37
47 0.15
48 0.37
49 0.15
5 -0.53
50 0.15
51 0.15
52 0.15
53 0.15
54 0.15
55 0.15
56 0.15
57 0.45
6 -0.36
7 -0.73
8 -0.41
9 -0.55

> <PUBCHEM_EFFECTIVE_ROTOR_COUNT>
10.2

> <PUBCHEM_PHARMACOPHORE_FEATURES>
13
1 1 acceptor
1 2 acceptor
1 2 donor
1 4 acceptor
1 5 donor
1 6 acceptor
1 7 donor
1 8 acceptor
1 9 donor
5 3 8 17 18 20 rings
6 1 10 11 12 13 14 rings
6 21 23 24 25 26 29 rings
6 22 27 28 30 31 32 rings

> <PUBCHEM_HEAVY_ATOM_COUNT>
33

> <PUBCHEM_ATOM_DEF_STEREO_COUNT>
3

> <PUBCHEM_ATOM_UDEF_STEREO_COUNT>
0

> <PUBCHEM_BOND_DEF_STEREO_COUNT>
0

> <PUBCHEM_BOND_UDEF_STEREO_COUNT>
0

> <PUBCHEM_ISOTOPIC_ATOM_COUNT>
0

> <PUBCHEM_COMPONENT_COUNT>
1

> <PUBCHEM_CACTVS_TAUTO_COUNT>
9

> <PUBCHEM_CONFORMER_ID>
048097F600000001

> <PUBCHEM_MMFF94_ENERGY>
79.1902

> <PUBCHEM_FEATURE_SELFOVERLAP>
66.026

> <PUBCHEM_SHAPE_FINGERPRINT>
1100329 8 17905608800430436442
11112241 14 16844706721037126360
12128747 34 18269002977469263542
12422481 6 18056503818116486499
12597179 24 18341046320493647723
12788726 201 18116167738429031830
13402501 40 18202003239332849753
13617811 41 18188210889215429581
13726171 33 18268448982607166808
14040221 97 18127977619036564944
14363568 33 17476093787075120465
14725015 67 18267015244939804043
14784336 7 17330279372662290791
16067689 68 17750770239706789106
17627616 140 18118679924856528667
21033648 29 17846211185638792122
21057603 130 17531517687190918562
21360443 126 18408602544214213413
22182313 1 17846232050595041574
23378982 100 18114181991398459971
23559900 14 18198080087878417910
23569943 247 15481562867530653932
24893992 56 18116714214043953651
3052486 1 18334861623073848878
4058900 60 18049722915096790601
4093350 32 16486980531905368933
437795 51 18059579028060259265
469060 322 18189638149290368155
508706 21 18411141350674196239
56638632 10 16199298975132618288
57828716 16 17894917351193081355
59520757 100 18186519913387759067
59755656 215 18271803489229541249
6669772 16 18267296543674785515

> <PUBCHEM_SHAPE_MULTIPOLES>
628.97
12.86
4.3
1.76
8.53
1.67
0.21
-3.63
-0.99
-7.06
-0.83
1.22
0.26
2.35

> <PUBCHEM_SHAPE_SELFOVERLAP>
1350.597

> <PUBCHEM_SHAPE_VOLUME>
346.6

> <PUBCHEM_COORDINATE_TYPE>
2
5
10

$$$$
