56775549
  -OEChem-12032416273D

 46 48  0     0  0  0  0  0  0999 V2000
    0.6252    2.1167   -1.6920 O   0  0  0  0  0  0  0  0  0  0  0  0
    3.5851    0.1863    1.4189 O   0  0  0  0  0  0  0  0  0  0  0  0
    5.4915   -0.5751   -0.7788 O   0  0  0  0  0  0  0  0  0  0  0  0
   -1.7807    1.6476    0.0941 N   0  0  0  0  0  0  0  0  0  0  0  0
   -4.9811   -1.1080   -0.3835 N   0  0  0  0  0  0  0  0  0  0  0  0
    2.3083    0.6638    1.6888 N   0  0  0  0  0  0  0  0  0  0  0  0
   -0.3963    1.1912   -0.0623 C   0  0  0  0  0  0  0  0  0  0  0  0
   -2.6434    0.4952    0.3438 C   0  0  0  0  0  0  0  0  0  0  0  0
    0.4991    2.4055   -0.2810 C   0  0  0  0  0  0  0  0  0  0  0  0
   -0.1388    0.8991   -1.5361 C   0  0  0  0  0  0  0  0  0  0  0  0
    0.0012    0.1720    0.9610 C   0  0  0  0  0  0  0  0  0  0  0  0
   -2.6496   -0.4355   -0.8716 C   0  0  0  0  0  0  0  0  0  0  0  0
   -4.0725    0.9404    0.6680 C   0  0  0  0  0  0  0  0  0  0  0  0
   -3.6251   -1.5977   -0.6678 C   0  0  0  0  0  0  0  0  0  0  0  0
   -5.0016   -0.2666    0.8213 C   0  0  0  0  0  0  0  0  0  0  0  0
    1.4956   -0.0722    0.9253 C   0  0  0  0  0  0  0  0  0  0  0  0
   -5.9106   -2.2282   -0.2411 C   0  0  0  0  0  0  0  0  0  0  0  0
    2.1960   -1.0205    0.1599 C   0  0  0  0  0  0  0  0  0  0  0  0
    3.5053   -0.8163    0.5070 C   0  0  0  0  0  0  0  0  0  0  0  0
    4.7722   -1.4391    0.1054 C   0  0  0  0  0  0  0  0  0  0  0  0
    6.7200   -1.1588   -1.1793 C   0  0  0  0  0  0  0  0  0  0  0  0
   -2.3392   -0.0582    1.2389 H   0  0  0  0  0  0  0  0  0  0  0  0
   -2.1454    2.2012   -0.6807 H   0  0  0  0  0  0  0  0  0  0  0  0
    1.4857    2.4468    0.1820 H   0  0  0  0  0  0  0  0  0  0  0  0
    0.0353    3.3874   -0.1251 H   0  0  0  0  0  0  0  0  0  0  0  0
   -0.9697    0.9231   -2.2462 H   0  0  0  0  0  0  0  0  0  0  0  0
    0.4779    0.0281   -1.7745 H   0  0  0  0  0  0  0  0  0  0  0  0
   -0.4616   -0.8098    0.8091 H   0  0  0  0  0  0  0  0  0  0  0  0
   -0.2559    0.5037    1.9766 H   0  0  0  0  0  0  0  0  0  0  0  0
   -1.6820   -0.9045   -1.0624 H   0  0  0  0  0  0  0  0  0  0  0  0
   -2.9529    0.1110   -1.7744 H   0  0  0  0  0  0  0  0  0  0  0  0
   -4.4573    1.5921   -0.1283 H   0  0  0  0  0  0  0  0  0  0  0  0
   -4.0850    1.5298    1.5932 H   0  0  0  0  0  0  0  0  0  0  0  0
   -3.6350   -2.2004   -1.5844 H   0  0  0  0  0  0  0  0  0  0  0  0
   -3.2647   -2.2443    0.1434 H   0  0  0  0  0  0  0  0  0  0  0  0
   -4.7117   -0.8455    1.7082 H   0  0  0  0  0  0  0  0  0  0  0  0
   -6.0183    0.1066    0.9950 H   0  0  0  0  0  0  0  0  0  0  0  0
   -6.9311   -1.8634   -0.0794 H   0  0  0  0  0  0  0  0  0  0  0  0
   -5.6426   -2.8854    0.5940 H   0  0  0  0  0  0  0  0  0  0  0  0
   -5.9343   -2.8276   -1.1580 H   0  0  0  0  0  0  0  0  0  0  0  0
    1.8094   -1.7482   -0.5382 H   0  0  0  0  0  0  0  0  0  0  0  0
    4.5769   -2.3917   -0.4014 H   0  0  0  0  0  0  0  0  0  0  0  0
    5.3838   -1.6422    0.9925 H   0  0  0  0  0  0  0  0  0  0  0  0
    7.2301   -0.4625   -1.8504 H   0  0  0  0  0  0  0  0  0  0  0  0
    6.5444   -2.0950   -1.7182 H   0  0  0  0  0  0  0  0  0  0  0  0
    7.3623   -1.3385   -0.3116 H   0  0  0  0  0  0  0  0  0  0  0  0
  1  9  1  0  0  0  0
  1 10  1  0  0  0  0
  2  6  1  0  0  0  0
  2 19  1  0  0  0  0
  3 20  1  0  0  0  0
  3 21  1  0  0  0  0
  4  7  1  0  0  0  0
  4  8  1  0  0  0  0
  4 23  1  0  0  0  0
  5 14  1  0  0  0  0
  5 15  1  0  0  0  0
  5 17  1  0  0  0  0
  6 16  2  0  0  0  0
  7  9  1  0  0  0  0
  7 10  1  0  0  0  0
  7 11  1  0  0  0  0
  8 12  1  0  0  0  0
  8 13  1  0  0  0  0
  8 22  1  0  0  0  0
  9 24  1  0  0  0  0
  9 25  1  0  0  0  0
 10 26  1  0  0  0  0
 10 27  1  0  0  0  0
 11 16  1  0  0  0  0
 11 28  1  0  0  0  0
 11 29  1  0  0  0  0
 12 14  1  0  0  0  0
 12 30  1  0  0  0  0
 12 31  1  0  0  0  0
 13 15  1  0  0  0  0
 13 32  1  0  0  0  0
 13 33  1  0  0  0  0
 14 34  1  0  0  0  0
 14 35  1  0  0  0  0
 15 36  1  0  0  0  0
 15 37  1  0  0  0  0
 16 18  1  0  0  0  0
 17 38  1  0  0  0  0
 17 39  1  0  0  0  0
 17 40  1  0  0  0  0
 18 19  2  0  0  0  0
 18 41  1  0  0  0  0
 19 20  1  0  0  0  0
 20 42  1  0  0  0  0
 20 43  1  0  0  0  0
 21 44  1  0  0  0  0
 21 45  1  0  0  0  0
 21 46  1  0  0  0  0
M  END
> <PUBCHEM_COMPOUND_CID>
56775549

> <PUBCHEM_CONFORMER_RMSD>
0.8

> <PUBCHEM_CONFORMER_DIVERSEORDER>
1
43
137
131
120
85
59
32
52
4
50
58
71
15
115
62
69
44
127
19
123
90
66
89
74
38
60
110
64
78
63
91
12
118
80
100
124
51
45
130
103
30
122
8
101
40
94
83
132
54
116
31
86
6
2
138
47
111
29
75
133
27
93
70
39
96
107
3
73
102
9
18
135
88
112
17
53
67
57
87
55
76
35
41
56
114
5
11
25
105
82
128
113
7
24
42
134
108
129
46
20
98
92
21
13
22
126
14
119
79
117
61
95
84
136
16
49
109
37
23
121
10
81
26
77
99
28
68
104
97
65
34
72
48
33
106
125
36

> <PUBCHEM_MMFF94_PARTIAL_CHARGES>
21
1 -0.52
10 0.26
11 0.18
14 0.27
15 0.27
16 0.11
17 0.27
18 -0.15
19 -0.04
2 -0.02
20 0.46
21 0.28
23 0.36
3 -0.56
4 -0.84
41 0.15
5 -0.81
6 -0.41
7 0.21
8 0.27
9 0.26

> <PUBCHEM_EFFECTIVE_ROTOR_COUNT>
8

> <PUBCHEM_PHARMACOPHORE_FEATURES>
9
1 1 acceptor
1 3 acceptor
1 4 cation
1 4 donor
1 5 cation
1 6 acceptor
4 1 7 9 10 rings
5 2 6 16 18 19 rings
6 5 8 12 13 14 15 rings

> <PUBCHEM_HEAVY_ATOM_COUNT>
21

> <PUBCHEM_ATOM_DEF_STEREO_COUNT>
0

> <PUBCHEM_ATOM_UDEF_STEREO_COUNT>
0

> <PUBCHEM_BOND_DEF_STEREO_COUNT>
0

> <PUBCHEM_BOND_UDEF_STEREO_COUNT>
0

> <PUBCHEM_ISOTOPIC_ATOM_COUNT>
0

> <PUBCHEM_COMPONENT_COUNT>
1

> <PUBCHEM_CACTVS_TAUTO_COUNT>
1

> <PUBCHEM_CONFORMER_ID>
0362537D00000001

> <PUBCHEM_MMFF94_ENERGY>
43.7618

> <PUBCHEM_FEATURE_SELFOVERLAP>
45.671

> <PUBCHEM_SHAPE_FINGERPRINT>
10042902 136 18342174530919355439
10692045 39 11167951234309963876
11045977 3 17703784817031108747
11128504 68 17894918421230697286
11135609 201 11458690679074919431
11961588 58 12324234001628379475
12553582 1 17967806142041574083
12633257 1 15913041071196331983
12892183 10 17632569461853608985
13009979 54 18341059600928536401
13288520 33 18342740706740894451
13464513 79 18409165519731528050
13533116 47 18198054984057868067
13583140 156 17489005142189014001
13911987 19 16298394551955635610
13914758 101 12035440637179731644
14123256 34 18261959652116009099
14178000 29 18407758144473382868
14251732 14 18333734619777461014
14251764 18 12679167315815089808
14251764 30 18201443528397115510
14341114 176 17560799961041556739
14347332 77 17898004634648912370
14350574 20 18060700572817191410
14466204 15 10879997934471564994
14767858 380 17676779721000969214
15061688 2 8286196167317041664
15537594 2 18334013848238551251
15880784 105 17917992819306226907
17492 54 16732702761565781690
1813 80 18186512215703863429
18222031 100 18187919594977076217
18335252 98 18131636690991665886
18769570 83 8934998157462083446
193927 3 18261392295430722451
19489759 90 11386378040729363036
19784866 240 18410011074702249943
19784866 34 9943812196649831357
200 152 16877944889120359144
20388580 30 18186517739179466749
20645477 70 17823407379071752767
20871999 31 17530961350294589781
21267235 1 18412267263877741683
212916 134 8646480783390392092
21304304 249 17917709149838897495
21344244 246 17752216230098085180
21403212 168 12463293549034297062
22950370 63 18410576154379064970
23402539 116 17822293423194673346
23522609 53 18123781732224870680
23559900 14 18130496496367993705
23566358 27 17915728972293950592
23622692 88 18409449151283137093
2838139 119 11386374763379867366
2916195 48 7997680995841406334
312423 11 18187936135772092501
351380 180 7925907084715190854
351380 3 18407755937066252483
3737641 26 18269559329936173142
4325135 7 18341895221433868900
465052 167 17203612609674325238
5104073 3 17846206744252368114
5207 217 17095535006532159434
58807428 26 13183021821741418844
7970288 3 18333724715451657627

> <PUBCHEM_SHAPE_MULTIPOLES>
399.62
13.34
2.08
1.34
5.86
0.34
-0.1
-10.5
-1.5
-1.12
-0.58
0.8
0.32
-0.14

> <PUBCHEM_SHAPE_SELFOVERLAP>
826.687

> <PUBCHEM_SHAPE_VOLUME>
231.7

> <PUBCHEM_COORDINATE_TYPE>
2
5
10

$$$$
