7142490
  -OEChem-12032416133D

 60 65  0     1  0  0  0  0  0999 V2000
   -5.6007   -0.8444    1.8939 O   0  0  0  0  0  0  0  0  0  0  0  0
   -2.5739   -2.3419   -0.2021 O   0  0  0  0  0  0  0  0  0  0  0  0
    0.4390    1.8796   -1.2192 O   0  0  0  0  0  0  0  0  0  0  0  0
    8.3949   -0.6568   -0.7094 O   0  0  0  0  0  0  0  0  0  0  0  0
    8.7291    1.4184    0.4694 O   0  0  0  0  0  0  0  0  0  0  0  0
   -3.9709    0.1858    0.5875 N   0  0  0  0  0  0  0  0  0  0  0  0
   -1.2032    0.6537   -0.1464 N   0  0  0  0  0  0  0  0  0  0  0  0
   -9.1515    0.8956   -0.5125 N   0  0  0  0  0  0  0  0  0  0  0  0
   -0.3156   -2.1563   -0.4163 N   0  0  0  0  0  0  0  0  0  0  0  0
   -6.3517    0.1784   -0.0765 C   0  0  0  0  0  0  0  0  0  0  0  0
   -1.5473   -0.3997    0.7986 C   0  0  1  0  0  0  0  0  0  0  0  0
   -2.8822   -0.1443    1.5098 C   0  0  0  0  0  0  0  0  0  0  0  0
   -3.6152    0.9389   -0.6174 C   0  0  0  0  0  0  0  0  0  0  0  0
   -2.2544    1.6092   -0.4994 C   0  0  0  0  0  0  0  0  0  0  0  0
   -6.9061    1.5586    0.2789 C   0  0  0  0  0  0  0  0  0  0  0  0
   -7.4715   -0.8633   -0.0732 C   0  0  0  0  0  0  0  0  0  0  0  0
   -5.2764   -0.2130    0.8916 C   0  0  0  0  0  0  0  0  0  0  0  0
   -8.1069    1.9167   -0.5944 C   0  0  0  0  0  0  0  0  0  0  0  0
   -8.6514   -0.4135   -0.9324 C   0  0  0  0  0  0  0  0  0  0  0  0
   -1.5457   -1.6922   -0.0021 C   0  0  0  0  0  0  0  0  0  0  0  0
    0.1000    0.8843   -0.5771 C   0  0  0  0  0  0  0  0  0  0  0  0
    1.1472   -0.1296   -0.2800 C   0  0  0  0  0  0  0  0  0  0  0  0
    0.9378   -1.5180   -0.3135 C   0  0  0  0  0  0  0  0  0  0  0  0
    2.4563    0.3662   -0.1358 C   0  0  0  0  0  0  0  0  0  0  0  0
    2.0516   -2.3751   -0.2714 C   0  0  0  0  0  0  0  0  0  0  0  0
    3.5452   -0.5001   -0.0477 C   0  0  0  0  0  0  0  0  0  0  0  0
    3.3441   -1.8717   -0.1291 C   0  0  0  0  0  0  0  0  0  0  0  0
    4.8831    0.0289    0.1048 C   0  0  0  0  0  0  0  0  0  0  0  0
    5.9696   -0.6667   -0.4317 C   0  0  0  0  0  0  0  0  0  0  0  0
    5.0787    1.2398    0.7927 C   0  0  0  0  0  0  0  0  0  0  0  0
    7.2262   -0.1233   -0.2604 C   0  0  0  0  0  0  0  0  0  0  0  0
    7.4171    1.0617    0.4128 C   0  0  0  0  0  0  0  0  0  0  0  0
    6.3618    1.7685    0.9519 C   0  0  0  0  0  0  0  0  0  0  0  0
    9.3428    0.3256   -0.2439 C   0  0  0  0  0  0  0  0  0  0  0  0
   -5.9559    0.1972   -1.0978 H   0  0  0  0  0  0  0  0  0  0  0  0
   -0.7665   -0.4696    1.5661 H   0  0  0  0  0  0  0  0  0  0  0  0
   -3.1629   -1.0056    2.1264 H   0  0  0  0  0  0  0  0  0  0  0  0
   -2.7834    0.7156    2.1842 H   0  0  0  0  0  0  0  0  0  0  0  0
   -4.3659    1.6989   -0.8384 H   0  0  0  0  0  0  0  0  0  0  0  0
   -3.6102    0.2226   -1.4477 H   0  0  0  0  0  0  0  0  0  0  0  0
   -2.0006    2.1128   -1.4383 H   0  0  0  0  0  0  0  0  0  0  0  0
   -2.2678    2.3732    0.2876 H   0  0  0  0  0  0  0  0  0  0  0  0
   -6.1422    2.3364    0.1801 H   0  0  0  0  0  0  0  0  0  0  0  0
   -7.2100    1.5745    1.3349 H   0  0  0  0  0  0  0  0  0  0  0  0
   -7.8360   -1.0452    0.9467 H   0  0  0  0  0  0  0  0  0  0  0  0
   -7.0921   -1.8244   -0.4421 H   0  0  0  0  0  0  0  0  0  0  0  0
   -8.5230    2.8758   -0.2672 H   0  0  0  0  0  0  0  0  0  0  0  0
   -7.7945    2.0492   -1.6373 H   0  0  0  0  0  0  0  0  0  0  0  0
   -8.3630   -0.3806   -1.9900 H   0  0  0  0  0  0  0  0  0  0  0  0
   -9.4622   -1.1459   -0.8521 H   0  0  0  0  0  0  0  0  0  0  0  0
   -9.4759    0.8314    0.4528 H   0  0  0  0  0  0  0  0  0  0  0  0
   -0.3006   -3.1175   -0.7491 H   0  0  0  0  0  0  0  0  0  0  0  0
    2.6067    1.4439   -0.1415 H   0  0  0  0  0  0  0  0  0  0  0  0
    1.9174   -3.4546   -0.3141 H   0  0  0  0  0  0  0  0  0  0  0  0
    4.1550   -2.5905   -0.0518 H   0  0  0  0  0  0  0  0  0  0  0  0
    5.8692   -1.5889   -0.9937 H   0  0  0  0  0  0  0  0  0  0  0  0
    4.2568    1.7862    1.2486 H   0  0  0  0  0  0  0  0  0  0  0  0
    6.5178    2.6978    1.4879 H   0  0  0  0  0  0  0  0  0  0  0  0
    9.8824    0.7296   -1.1082 H   0  0  0  0  0  0  0  0  0  0  0  0
   10.0615   -0.1676    0.4206 H   0  0  0  0  0  0  0  0  0  0  0  0
  1 17  2  0  0  0  0
  2 20  2  0  0  0  0
  3 21  2  0  0  0  0
  4 31  1  0  0  0  0
  4 34  1  0  0  0  0
  5 32  1  0  0  0  0
  5 34  1  0  0  0  0
  6 12  1  0  0  0  0
  6 13  1  0  0  0  0
  6 17  1  0  0  0  0
  7 11  1  0  0  0  0
  7 14  1  0  0  0  0
  7 21  1  0  0  0  0
  8 18  1  0  0  0  0
  8 19  1  0  0  0  0
  8 51  1  0  0  0  0
  9 20  1  0  0  0  0
  9 23  1  0  0  0  0
  9 52  1  0  0  0  0
 10 15  1  0  0  0  0
 10 16  1  0  0  0  0
 10 17  1  0  0  0  0
 10 35  1  0  0  0  0
 11 12  1  0  0  0  0
 11 20  1  0  0  0  0
 11 36  1  0  0  0  0
 12 37  1  0  0  0  0
 12 38  1  0  0  0  0
 13 14  1  0  0  0  0
 13 39  1  0  0  0  0
 13 40  1  0  0  0  0
 14 41  1  0  0  0  0
 14 42  1  0  0  0  0
 15 18  1  0  0  0  0
 15 43  1  0  0  0  0
 15 44  1  0  0  0  0
 16 19  1  0  0  0  0
 16 45  1  0  0  0  0
 16 46  1  0  0  0  0
 18 47  1  0  0  0  0
 18 48  1  0  0  0  0
 19 49  1  0  0  0  0
 19 50  1  0  0  0  0
 21 22  1  0  0  0  0
 22 23  2  0  0  0  0
 22 24  1  0  0  0  0
 23 25  1  0  0  0  0
 24 26  2  0  0  0  0
 24 53  1  0  0  0  0
 25 27  2  0  0  0  0
 25 54  1  0  0  0  0
 26 27  1  0  0  0  0
 26 28  1  0  0  0  0
 27 55  1  0  0  0  0
 28 29  2  0  0  0  0
 28 30  1  0  0  0  0
 29 31  1  0  0  0  0
 29 56  1  0  0  0  0
 30 33  2  0  0  0  0
 30 57  1  0  0  0  0
 31 32  2  0  0  0  0
 32 33  1  0  0  0  0
 33 58  1  0  0  0  0
 34 59  1  0  0  0  0
 34 60  1  0  0  0  0
M  END
> <PUBCHEM_COMPOUND_CID>
7142490

> <PUBCHEM_CONFORMER_RMSD>
0.8

> <PUBCHEM_CONFORMER_DIVERSEORDER>
1
27
26
20
5
12
7
19
8
16
32
4
13
15
31
17
18
24
2
14
10
3
22
25
11
23
28
30
9
29
21
6

> <PUBCHEM_MMFF94_PARTIAL_CHARGES>
38
1 -0.57
10 0.06
11 0.36
12 0.3
13 0.3
14 0.3
17 0.57
18 0.27
19 0.27
2 -0.57
20 0.57
21 0.54
22 0.09
23 0.12
24 -0.15
25 -0.15
27 -0.15
29 -0.15
3 -0.57
30 -0.15
31 0.08
32 0.08
33 -0.15
34 0.56
4 -0.36
5 -0.36
51 0.36
52 0.37
53 0.15
54 0.15
55 0.15
56 0.15
57 0.15
58 0.15
6 -0.66
7 -0.66
8 -0.9
9 -0.55

> <PUBCHEM_EFFECTIVE_ROTOR_COUNT>
5.8

> <PUBCHEM_PHARMACOPHORE_FEATURES>
14
1 1 acceptor
1 2 acceptor
1 3 acceptor
1 4 acceptor
1 5 acceptor
1 8 cation
1 8 donor
1 9 donor
5 4 5 31 32 34 rings
6 22 23 24 25 26 27 rings
6 28 29 30 31 32 33 rings
6 6 7 11 12 13 14 rings
6 8 10 15 16 18 19 rings
7 7 9 11 20 21 22 23 rings

> <PUBCHEM_HEAVY_ATOM_COUNT>
34

> <PUBCHEM_ATOM_DEF_STEREO_COUNT>
1

> <PUBCHEM_ATOM_UDEF_STEREO_COUNT>
0

> <PUBCHEM_BOND_DEF_STEREO_COUNT>
0

> <PUBCHEM_BOND_UDEF_STEREO_COUNT>
0

> <PUBCHEM_ISOTOPIC_ATOM_COUNT>
0

> <PUBCHEM_COMPONENT_COUNT>
1

> <PUBCHEM_CACTVS_TAUTO_COUNT>
3

> <PUBCHEM_CONFORMER_ID>
006CFC5A00000001

> <PUBCHEM_MMFF94_ENERGY>
109.8905

> <PUBCHEM_FEATURE_SELFOVERLAP>
71.233

> <PUBCHEM_SHAPE_FINGERPRINT>
10 15 18260546727907284402
10050765 1 18051695442887406421
10165383 225 18343300375734823696
10625338 86 17095516292626487077
11315181 36 18130790045700351705
11456790 92 13984666932164104421
12013929 2 18334295341096399978
12089408 11 15841838837206815810
12133447 93 18267597826898604844
12522641 33 17775567516262325095
12664476 115 18408881846433532492
12741549 16 14345789466566641486
12838862 33 18335409175574782381
13811026 1 18334016112128985795
14117953 113 18408609162811466916
14251764 46 18410856563934769869
14394314 77 18342179930336993481
14856354 85 15410889678885872061
150020 25 18342459244174423123
15247644 1 14548739500090516236
15289351 153 18201719505999829578
15301273 46 18333734611356006672
15461852 350 17989486351321140807
15728490 51 18131348644282417479
15840311 113 18187649129030603020
15849732 13 18410012147974348573
16087824 20 18334574595781176037
16758388 162 18410282590013590890
1754911 235 18060135436340340165
18335252 114 17775566438557498336
18335252 98 12247684872241703805
19301679 30 12902089957004640112
19841028 212 16515675603531035106
21150785 3 14764631919322969650
22224240 67 18411418419114856818
24771293 8 18411705353121984565
249057 3 15195559126240578624
3092352 35 16200433568132343534
335352 9 18410293631256170212
3633792 109 18272937081369570009
395649 100 18339356474824347143
4017518 198 18202288004398071671
4325135 7 17988923371075978007
44389302 135 16009016295378399576
4625314 4 18343582957948128334
59682541 35 18335703866144770600
6009941 240 17386011689039167819
6201320 215 14346338066997565919
6523845 18 15051727569288836544
6691757 9 17274831285331894479
67123 10 18272650151784536213

> <PUBCHEM_SHAPE_MULTIPOLES>
650.43
29.34
2.04
1.01
1.89
0.49
-0.25
-10.37
1.49
-0.07
0.18
-0.81
-0.08
1.4

> <PUBCHEM_SHAPE_SELFOVERLAP>
1444.433

> <PUBCHEM_SHAPE_VOLUME>
341.5

> <PUBCHEM_COORDINATE_TYPE>
2
5
10

$$$$
