75366957
  -OEChem-12032416393D

 51 52  0     1  0  0  0  0  0999 V2000
    2.0483   -0.0231    0.6857 O   0  0  0  0  0  0  0  0  0  0  0  0
    4.5585    1.3886    1.3135 O   0  0  0  0  0  0  0  0  0  0  0  0
   -1.1867   -3.3880   -0.8154 O   0  0  0  0  0  0  0  0  0  0  0  0
   -0.2025    3.6891    0.0475 O   0  0  0  0  0  0  0  0  0  0  0  0
   -3.6750   -1.7623   -0.3583 O   0  0  0  0  0  0  0  0  0  0  0  0
    0.1927    1.5471   -0.7613 N   0  0  0  0  0  0  0  0  0  0  0  0
    0.2004   -3.3330   -0.8776 N   0  0  0  0  0  0  0  0  0  0  0  0
   -1.9410    2.1618   -0.1216 N   0  0  0  0  0  0  0  0  0  0  0  0
    2.4022    1.2926    0.2396 C   0  0  1  0  0  0  0  0  0  0  0  0
    2.4965   -1.0907   -0.1529 C   0  0  1  0  0  0  0  0  0  0  0  0
    3.9170    1.4245    0.0359 C   0  0  2  0  0  0  0  0  0  0  0  0
    4.0182   -1.0673   -0.2880 C   0  0  0  0  0  0  0  0  0  0  0  0
    4.4915    0.2880   -0.8055 C   0  0  0  0  0  0  0  0  0  0  0  0
    2.0278   -2.3964    0.4775 C   0  0  0  0  0  0  0  0  0  0  0  0
    1.5974    1.6896   -0.9962 C   0  0  0  0  0  0  0  0  0  0  0  0
    0.5686   -2.6519    0.2112 C   0  0  0  0  0  0  0  0  0  0  0  0
   -0.5321   -2.2556    0.9903 C   0  0  0  0  0  0  0  0  0  0  0  0
   -0.6155    2.5692   -0.2502 C   0  0  0  0  0  0  0  0  0  0  0  0
   -1.6111   -2.7430    0.3013 C   0  0  0  0  0  0  0  0  0  0  0  0
   -2.9803    3.0279    0.3831 C   0  0  0  0  0  0  0  0  0  0  0  0
   -3.0612   -2.7050    0.5250 C   0  0  0  0  0  0  0  0  0  0  0  0
   -3.6030    3.8329   -0.7508 C   0  0  0  0  0  0  0  0  0  0  0  0
   -4.0328    2.2150    1.1255 C   0  0  0  0  0  0  0  0  0  0  0  0
   -5.0778   -1.7101   -0.1582 C   0  0  0  0  0  0  0  0  0  0  0  0
    2.1107    1.9553    1.0646 H   0  0  0  0  0  0  0  0  0  0  0  0
    2.0456   -0.9876   -1.1471 H   0  0  0  0  0  0  0  0  0  0  0  0
    4.1577    2.3936   -0.4149 H   0  0  0  0  0  0  0  0  0  0  0  0
    4.3579   -1.8610   -0.9631 H   0  0  0  0  0  0  0  0  0  0  0  0
    4.4795   -1.2518    0.6905 H   0  0  0  0  0  0  0  0  0  0  0  0
    5.5874    0.3121   -0.7892 H   0  0  0  0  0  0  0  0  0  0  0  0
    4.1789    0.4058   -1.8496 H   0  0  0  0  0  0  0  0  0  0  0  0
    2.1914   -2.3817    1.5627 H   0  0  0  0  0  0  0  0  0  0  0  0
    2.6012   -3.2419    0.0759 H   0  0  0  0  0  0  0  0  0  0  0  0
    1.8343    1.0661   -1.8627 H   0  0  0  0  0  0  0  0  0  0  0  0
    1.8138    2.7289   -1.2678 H   0  0  0  0  0  0  0  0  0  0  0  0
    5.5108    1.5210    1.1680 H   0  0  0  0  0  0  0  0  0  0  0  0
   -0.2377    0.6492   -0.9607 H   0  0  0  0  0  0  0  0  0  0  0  0
   -0.5415   -1.6974    1.9148 H   0  0  0  0  0  0  0  0  0  0  0  0
   -2.1980    1.2404   -0.4633 H   0  0  0  0  0  0  0  0  0  0  0  0
   -2.5245    3.7300    1.0917 H   0  0  0  0  0  0  0  0  0  0  0  0
   -3.4901   -3.6991    0.3508 H   0  0  0  0  0  0  0  0  0  0  0  0
   -3.2726   -2.4175    1.5618 H   0  0  0  0  0  0  0  0  0  0  0  0
   -4.3790    4.5065   -0.3726 H   0  0  0  0  0  0  0  0  0  0  0  0
   -2.8478    4.4409   -1.2608 H   0  0  0  0  0  0  0  0  0  0  0  0
   -4.0569    3.1756   -1.5010 H   0  0  0  0  0  0  0  0  0  0  0  0
   -4.5199    1.4928    0.4607 H   0  0  0  0  0  0  0  0  0  0  0  0
   -4.8059    2.8659    1.5467 H   0  0  0  0  0  0  0  0  0  0  0  0
   -3.5792    1.6508    1.9477 H   0  0  0  0  0  0  0  0  0  0  0  0
   -5.4981   -0.9791   -0.8543 H   0  0  0  0  0  0  0  0  0  0  0  0
   -5.3095   -1.3902    0.8624 H   0  0  0  0  0  0  0  0  0  0  0  0
   -5.5327   -2.6846   -0.3604 H   0  0  0  0  0  0  0  0  0  0  0  0
  1  9  1  0  0  0  0
  1 10  1  0  0  0  0
  2 11  1  0  0  0  0
  2 36  1  0  0  0  0
  3  7  1  0  0  0  0
  3 19  1  0  0  0  0
  4 18  2  0  0  0  0
  5 21  1  0  0  0  0
  5 24  1  0  0  0  0
  6 15  1  0  0  0  0
  6 18  1  0  0  0  0
  6 37  1  0  0  0  0
  7 16  2  0  0  0  0
  8 18  1  0  0  0  0
  8 20  1  0  0  0  0
  8 39  1  0  0  0  0
  9 11  1  0  0  0  0
  9 15  1  0  0  0  0
  9 25  1  0  0  0  0
 10 12  1  0  0  0  0
 10 14  1  0  0  0  0
 10 26  1  0  0  0  0
 11 13  1  0  0  0  0
 11 27  1  0  0  0  0
 12 13  1  0  0  0  0
 12 28  1  0  0  0  0
 12 29  1  0  0  0  0
 13 30  1  0  0  0  0
 13 31  1  0  0  0  0
 14 16  1  0  0  0  0
 14 32  1  0  0  0  0
 14 33  1  0  0  0  0
 15 34  1  0  0  0  0
 15 35  1  0  0  0  0
 16 17  1  0  0  0  0
 17 19  2  0  0  0  0
 17 38  1  0  0  0  0
 19 21  1  0  0  0  0
 20 22  1  0  0  0  0
 20 23  1  0  0  0  0
 20 40  1  0  0  0  0
 21 41  1  0  0  0  0
 21 42  1  0  0  0  0
 22 43  1  0  0  0  0
 22 44  1  0  0  0  0
 22 45  1  0  0  0  0
 23 46  1  0  0  0  0
 23 47  1  0  0  0  0
 23 48  1  0  0  0  0
 24 49  1  0  0  0  0
 24 50  1  0  0  0  0
 24 51  1  0  0  0  0
M  END
> <PUBCHEM_COMPOUND_CID>
75366957

> <PUBCHEM_CONFORMER_RMSD>
1

> <PUBCHEM_CONFORMER_DIVERSEORDER>
1
57
32
39
82
29
67
71
26
64
58
15
72
37
76
30
54
77
56
62
50
75
2
13
6
42
27
97
48
53
41
40
95
66
44
11
79
25
94
92
99
21
31
22
78
55
60
98
65
24
17
33
7
69
36
93
63
91
70
47
85
10
83
23
35
46
14
80
81
59
88
68
84
19
87
86
89
5
90
20
51
8
45
9
96
12
74
52
18
16
34
73
61
3
49
28
38
4
43

> <PUBCHEM_MMFF94_PARTIAL_CHARGES>
24
1 -0.56
10 0.28
11 0.28
14 0.18
15 0.3
16 0.11
17 -0.15
18 0.69
19 -0.04
2 -0.68
20 0.3
21 0.46
24 0.28
3 -0.02
36 0.4
37 0.37
38 0.15
39 0.37
4 -0.57
5 -0.56
6 -0.73
7 -0.41
8 -0.73
9 0.28

> <PUBCHEM_EFFECTIVE_ROTOR_COUNT>
10.2

> <PUBCHEM_PHARMACOPHORE_FEATURES>
11
1 1 acceptor
1 2 acceptor
1 2 donor
1 4 acceptor
1 5 acceptor
1 6 donor
1 7 acceptor
1 8 donor
3 20 22 23 hydrophobe
5 3 7 16 17 19 rings
6 1 9 10 11 12 13 rings

> <PUBCHEM_HEAVY_ATOM_COUNT>
24

> <PUBCHEM_ATOM_DEF_STEREO_COUNT>
3

> <PUBCHEM_ATOM_UDEF_STEREO_COUNT>
0

> <PUBCHEM_BOND_DEF_STEREO_COUNT>
0

> <PUBCHEM_BOND_UDEF_STEREO_COUNT>
0

> <PUBCHEM_ISOTOPIC_ATOM_COUNT>
0

> <PUBCHEM_COMPONENT_COUNT>
1

> <PUBCHEM_CACTVS_TAUTO_COUNT>
3

> <PUBCHEM_CONFORMER_ID>
047E022D00000001

> <PUBCHEM_MMFF94_ENERGY>
30.9133

> <PUBCHEM_FEATURE_SELFOVERLAP>
55.873

> <PUBCHEM_SHAPE_FINGERPRINT>
10064457 181 18266463114066795804
104564 63 18337676411854591110
1100329 8 17904758886595130754
114674 6 17543635227480556593
11513181 2 18202002084425277607
11578080 2 17988629814757308106
11646440 116 18194126441654484187
116883 192 18266749150440745014
12038231 1 18193840336691965297
12293681 4 17898294054829798546
12788726 201 18191311683323744888
13122387 1 18194127545476428969
13140716 1 18265321812185300434
1361 2 17975974264049599637
138480 1 16680348085042601839
14681490 219 18339629145106915151
15238133 3 17750789042556891802
15629462 23 16914840037400059200
17138139 8 17912325872252899181
19930381 70 16751839439757529925
20567600 299 17477767243803938456
20645477 70 17757268180637079565
21197605 99 18337966593262605323
21673915 165 18411138026353899153
22113638 7 17979353385023955327
238 59 17831870044475627696
3014063 31 18338234972245850023
3052486 1 18334023782639811982
338550 245 18261968374951610933
5939293 188 17473264757111154838
6438718 38 18202561761322994231
653340 110 18412821417025971465
7832392 63 17979354493057387614
9777508 108 18412818106017753368

> <PUBCHEM_SHAPE_MULTIPOLES>
449.62
8.77
5.85
0.98
0.98
0.07
0.07
-2.79
0.43
5.89
-0.41
-0.1
-0.09
0.04

> <PUBCHEM_SHAPE_SELFOVERLAP>
906.533

> <PUBCHEM_SHAPE_VOLUME>
264.7

> <PUBCHEM_COORDINATE_TYPE>
2
5
10

$$$$
