71693803
  -OEChem-12032416403D

 38 39  0     1  0  0  0  0  0999 V2000
    1.7885    2.3167   -0.2715 S   0  0  0  0  0  0  0  0  0  0  0  0
    3.2775   -1.3747   -0.4706 O   0  0  0  0  0  0  0  0  0  0  0  0
    1.1325   -2.9915   -1.0380 O   0  0  0  0  0  0  0  0  0  0  0  0
    2.1691    1.8804   -1.6006 O   0  0  0  0  0  0  0  0  0  0  0  0
    2.5640    3.3217    0.4299 O   0  0  0  0  0  0  0  0  0  0  0  0
    1.6094    0.9686    0.7543 N   0  0  0  0  0  0  0  0  0  0  0  0
   -0.0943   -0.8303    0.8979 C   0  0  2  0  0  0  0  0  0  0  0  0
    1.1697   -0.3219    0.1735 C   0  0  2  0  0  0  0  0  0  0  0  0
    2.2078   -1.4040    0.4556 C   0  0  1  0  0  0  0  0  0  0  0  0
    0.0858   -2.3651    1.0285 C   0  0  0  0  0  0  0  0  0  0  0  0
    1.4036   -2.6924    0.3279 C   0  0  1  0  0  0  0  0  0  0  0  0
   -1.3771   -0.4096    0.2122 C   0  0  0  0  0  0  0  0  0  0  0  0
   -2.3288    0.3606    0.8804 C   0  0  0  0  0  0  0  0  0  0  0  0
   -1.6000   -0.8035   -1.1071 C   0  0  0  0  0  0  0  0  0  0  0  0
   -3.5036    0.7369    0.2292 C   0  0  0  0  0  0  0  0  0  0  0  0
   -2.1123    0.7944    2.2929 C   0  0  0  0  0  0  0  0  0  0  0  0
    0.1097    2.8982   -0.3463 C   0  0  0  0  0  0  0  0  0  0  0  0
   -2.7749   -0.4273   -1.7583 C   0  0  0  0  0  0  0  0  0  0  0  0
   -3.7267    0.3429   -1.0902 C   0  0  0  0  0  0  0  0  0  0  0  0
   -0.0700   -0.4529    1.9254 H   0  0  0  0  0  0  0  0  0  0  0  0
    1.0291   -0.2226   -0.9076 H   0  0  0  0  0  0  0  0  0  0  0  0
    2.6172   -1.3016    1.4686 H   0  0  0  0  0  0  0  0  0  0  0  0
    0.1722   -2.6153    2.0935 H   0  0  0  0  0  0  0  0  0  0  0  0
   -0.7585   -2.9337    0.6243 H   0  0  0  0  0  0  0  0  0  0  0  0
    1.9218   -3.5511    0.7650 H   0  0  0  0  0  0  0  0  0  0  0  0
    1.5442    1.0886    1.7719 H   0  0  0  0  0  0  0  0  0  0  0  0
    3.8424   -2.1449   -0.2884 H   0  0  0  0  0  0  0  0  0  0  0  0
    0.5865   -3.7959   -1.0580 H   0  0  0  0  0  0  0  0  0  0  0  0
   -0.8787   -1.4056   -1.6501 H   0  0  0  0  0  0  0  0  0  0  0  0
   -4.2556    1.3370    0.7347 H   0  0  0  0  0  0  0  0  0  0  0  0
   -2.0341   -0.0719    2.9582 H   0  0  0  0  0  0  0  0  0  0  0  0
   -1.2161    1.4169    2.3800 H   0  0  0  0  0  0  0  0  0  0  0  0
   -2.9505    1.3983    2.6590 H   0  0  0  0  0  0  0  0  0  0  0  0
    0.1087    3.8426   -0.8955 H   0  0  0  0  0  0  0  0  0  0  0  0
   -0.4990    2.1695   -0.8802 H   0  0  0  0  0  0  0  0  0  0  0  0
   -0.2569    3.0648    0.6677 H   0  0  0  0  0  0  0  0  0  0  0  0
   -2.9490   -0.7345   -2.7854 H   0  0  0  0  0  0  0  0  0  0  0  0
   -4.6413    0.6358   -1.5973 H   0  0  0  0  0  0  0  0  0  0  0  0
  1  4  2  0  0  0  0
  1  5  2  0  0  0  0
  1  6  1  0  0  0  0
  1 17  1  0  0  0  0
  2  9  1  0  0  0  0
  2 27  1  0  0  0  0
  3 11  1  0  0  0  0
  3 28  1  0  0  0  0
  6  8  1  0  0  0  0
  6 26  1  0  0  0  0
  7  8  1  0  0  0  0
  7 10  1  0  0  0  0
  7 12  1  0  0  0  0
  7 20  1  0  0  0  0
  8  9  1  0  0  0  0
  8 21  1  0  0  0  0
  9 11  1  0  0  0  0
  9 22  1  0  0  0  0
 10 11  1  0  0  0  0
 10 23  1  0  0  0  0
 10 24  1  0  0  0  0
 11 25  1  0  0  0  0
 12 13  1  0  0  0  0
 12 14  2  0  0  0  0
 13 15  2  0  0  0  0
 13 16  1  0  0  0  0
 14 18  1  0  0  0  0
 14 29  1  0  0  0  0
 15 19  1  0  0  0  0
 15 30  1  0  0  0  0
 16 31  1  0  0  0  0
 16 32  1  0  0  0  0
 16 33  1  0  0  0  0
 17 34  1  0  0  0  0
 17 35  1  0  0  0  0
 17 36  1  0  0  0  0
 18 19  2  0  0  0  0
 18 37  1  0  0  0  0
 19 38  1  0  0  0  0
M  END
> <PUBCHEM_COMPOUND_CID>
71693803

> <PUBCHEM_CONFORMER_RMSD>
0.6

> <PUBCHEM_CONFORMER_DIVERSEORDER>
1
31
42
40
39
27
19
22
35
21
36
18
20
33
5
41
15
23
17
16
34
13
30
10
8
14
32
29
2
3
25
38
24
28
11
37
12
6
4
26
9
7

> <PUBCHEM_MMFF94_PARTIAL_CHARGES>
25
1 1.33
11 0.28
12 -0.14
13 -0.14
14 -0.15
15 -0.15
16 0.14
17 0.11
18 -0.15
19 -0.15
2 -0.68
26 0.42
27 0.4
28 0.4
29 0.15
3 -0.68
30 0.15
37 0.15
38 0.15
4 -0.65
5 -0.65
6 -0.91
7 0.14
8 0.36
9 0.28

> <PUBCHEM_EFFECTIVE_ROTOR_COUNT>
4

> <PUBCHEM_PHARMACOPHORE_FEATURES>
9
1 2 acceptor
1 2 donor
1 3 acceptor
1 3 donor
1 4 acceptor
1 5 acceptor
1 6 donor
5 7 8 9 10 11 rings
6 12 13 14 15 18 19 rings

> <PUBCHEM_HEAVY_ATOM_COUNT>
19

> <PUBCHEM_ATOM_DEF_STEREO_COUNT>
4

> <PUBCHEM_ATOM_UDEF_STEREO_COUNT>
0

> <PUBCHEM_BOND_DEF_STEREO_COUNT>
0

> <PUBCHEM_BOND_UDEF_STEREO_COUNT>
0

> <PUBCHEM_ISOTOPIC_ATOM_COUNT>
0

> <PUBCHEM_COMPONENT_COUNT>
1

> <PUBCHEM_CACTVS_TAUTO_COUNT>
1

> <PUBCHEM_CONFORMER_ID>
0445F5EB00000001

> <PUBCHEM_MMFF94_ENERGY>
50.781

> <PUBCHEM_FEATURE_SELFOVERLAP>
45.7

> <PUBCHEM_SHAPE_FINGERPRINT>
10165383 225 17538609686100229692
104564 63 17905329528966438780
11640471 11 18060426819727741361
13134695 92 18117543059971687558
13140716 1 18335420213704127994
14115302 16 17631716211055924687
14250199 8 18411976945162188477
14614273 12 17543354207807426010
14817 1 16254824428172932553
16945 1 18337105657597569987
18219364 16 18114472248206268176
18981168 100 18118134781657648368
19765921 60 18126554846304046937
20645476 183 18202275884558673687
21524375 3 17899686044807700264
21639500 275 18335697247811209191
22112679 90 17632301146841484953
2255824 54 18412536609159835630
22907989 373 17180254820634655668
2334 1 18192435392348568522
23402539 116 18120936105863948330
23419403 2 17460912589628078880
23526113 38 17387134174209665467
23598291 2 18130793330516909037
238 59 18189604102836420295
25 1 18333455343565205206
2748010 2 18190472742713103930
350125 39 18046078304506623634
474 4 18339069479837974417
5845 1 17979062787283279394
6992083 37 17627514835112619163
7364860 26 18411974767307872813
7832392 63 18125152741287609825
81228 2 17325204031377291872
84936 182 18200582717729185329
9981440 41 17695890512744109480

> <PUBCHEM_SHAPE_MULTIPOLES>
366.4
5.01
3.5
1.57
2.49
1.24
-0.18
0.76
1.03
-3.82
0.26
1.06
0.04
-0.41

> <PUBCHEM_SHAPE_SELFOVERLAP>
751.73

> <PUBCHEM_SHAPE_VOLUME>
213.5

> <PUBCHEM_COORDINATE_TYPE>
2
5
10

$$$$
