26745538
  -OEChem-12032416183D

 39 41  0     1  0  0  0  0  0999 V2000
    5.8303   -0.9019    0.7519 F   0  0  0  0  0  0  0  0  0  0  0  0
   -3.1494    2.5395    0.2878 O   0  0  0  0  0  0  0  0  0  0  0  0
    0.9595    2.2524   -1.5407 O   0  0  0  0  0  0  0  0  0  0  0  0
   -1.3780    1.7569    1.5473 O   0  0  0  0  0  0  0  0  0  0  0  0
   -0.2609    0.5401   -0.5001 N   0  0  0  0  0  0  0  0  0  0  0  0
   -1.7797   -2.7368    0.4906 N   0  0  0  0  0  0  0  0  0  0  0  0
   -3.5389   -2.0445   -0.6988 N   0  0  0  0  0  0  0  0  0  0  0  0
   -1.5669    1.1891   -0.7881 C   0  0  1  0  0  0  0  0  0  0  0  0
   -2.6474    0.2352   -1.3398 C   0  0  0  0  0  0  0  0  0  0  0  0
   -0.2445   -0.7143    0.3072 C   0  0  0  0  0  0  0  0  0  0  0  0
   -1.4755   -1.4834    0.0490 C   0  0  0  0  0  0  0  0  0  0  0  0
   -2.5705   -1.0804   -0.6733 C   0  0  0  0  0  0  0  0  0  0  0  0
   -1.9934    1.8463    0.4936 C   0  0  0  0  0  0  0  0  0  0  0  0
    0.9111    1.2173   -0.8776 C   0  0  0  0  0  0  0  0  0  0  0  0
   -3.0323   -3.0308    0.0136 C   0  0  0  0  0  0  0  0  0  0  0  0
   -0.9591   -3.5987    1.3059 C   0  0  0  0  0  0  0  0  0  0  0  0
    2.2022    0.6606   -0.4495 C   0  0  0  0  0  0  0  0  0  0  0  0
    2.8676   -0.2597   -1.2595 C   0  0  0  0  0  0  0  0  0  0  0  0
    2.7626    1.0528    0.7662 C   0  0  0  0  0  0  0  0  0  0  0  0
   -3.6711    3.2192    1.4340 C   0  0  0  0  0  0  0  0  0  0  0  0
    4.0931   -0.7878   -0.8538 C   0  0  0  0  0  0  0  0  0  0  0  0
    3.9880    0.5246    1.1720 C   0  0  0  0  0  0  0  0  0  0  0  0
    4.6532   -0.3958    0.3621 C   0  0  0  0  0  0  0  0  0  0  0  0
   -1.4113    1.9993   -1.5108 H   0  0  0  0  0  0  0  0  0  0  0  0
   -2.4603    0.0772   -2.4096 H   0  0  0  0  0  0  0  0  0  0  0  0
   -3.6556    0.6518   -1.2471 H   0  0  0  0  0  0  0  0  0  0  0  0
   -0.1616   -0.4394    1.3633 H   0  0  0  0  0  0  0  0  0  0  0  0
    0.6311   -1.3131    0.0443 H   0  0  0  0  0  0  0  0  0  0  0  0
   -3.5223   -3.9735    0.2162 H   0  0  0  0  0  0  0  0  0  0  0  0
   -0.0532   -3.8422    0.7453 H   0  0  0  0  0  0  0  0  0  0  0  0
   -0.7101   -3.0687    2.2286 H   0  0  0  0  0  0  0  0  0  0  0  0
   -1.5098   -4.5130    1.5404 H   0  0  0  0  0  0  0  0  0  0  0  0
    2.4398   -0.5722   -2.2085 H   0  0  0  0  0  0  0  0  0  0  0  0
    2.2518    1.7688    1.4050 H   0  0  0  0  0  0  0  0  0  0  0  0
   -4.5902    3.7311    1.1366 H   0  0  0  0  0  0  0  0  0  0  0  0
   -2.9538    3.9642    1.7916 H   0  0  0  0  0  0  0  0  0  0  0  0
   -3.9091    2.5007    2.2241 H   0  0  0  0  0  0  0  0  0  0  0  0
    4.6114   -1.5044   -1.4841 H   0  0  0  0  0  0  0  0  0  0  0  0
    4.4243    0.8295    2.1186 H   0  0  0  0  0  0  0  0  0  0  0  0
  1 23  1  0  0  0  0
  2 13  1  0  0  0  0
  2 20  1  0  0  0  0
  3 14  2  0  0  0  0
  4 13  2  0  0  0  0
  5  8  1  0  0  0  0
  5 10  1  0  0  0  0
  5 14  1  0  0  0  0
  6 11  1  0  0  0  0
  6 15  1  0  0  0  0
  6 16  1  0  0  0  0
  7 12  1  0  0  0  0
  7 15  2  0  0  0  0
  8  9  1  0  0  0  0
  8 13  1  0  0  0  0
  8 24  1  0  0  0  0
  9 12  1  0  0  0  0
  9 25  1  0  0  0  0
  9 26  1  0  0  0  0
 10 11  1  0  0  0  0
 10 27  1  0  0  0  0
 10 28  1  0  0  0  0
 11 12  2  0  0  0  0
 14 17  1  0  0  0  0
 15 29  1  0  0  0  0
 16 30  1  0  0  0  0
 16 31  1  0  0  0  0
 16 32  1  0  0  0  0
 17 18  2  0  0  0  0
 17 19  1  0  0  0  0
 18 21  1  0  0  0  0
 18 33  1  0  0  0  0
 19 22  2  0  0  0  0
 19 34  1  0  0  0  0
 20 35  1  0  0  0  0
 20 36  1  0  0  0  0
 20 37  1  0  0  0  0
 21 23  2  0  0  0  0
 21 38  1  0  0  0  0
 22 23  1  0  0  0  0
 22 39  1  0  0  0  0
M  END
> <PUBCHEM_COMPOUND_CID>
26745538

> <PUBCHEM_CONFORMER_RMSD>
0.8

> <PUBCHEM_CONFORMER_DIVERSEORDER>
1
3
8
5
4
2
6
9
7

> <PUBCHEM_MMFF94_PARTIAL_CHARGES>
28
1 -0.19
10 0.48
11 -0.33
12 0.05
13 0.66
14 0.54
15 0.04
16 0.26
17 0.09
18 -0.15
19 -0.15
2 -0.43
20 0.28
21 -0.15
22 -0.15
23 0.19
29 0.15
3 -0.57
33 0.15
34 0.15
38 0.15
39 0.15
4 -0.57
5 -0.66
6 0.05
7 -0.57
8 0.36
9 0.18

> <PUBCHEM_EFFECTIVE_ROTOR_COUNT>
4.8

> <PUBCHEM_PHARMACOPHORE_FEATURES>
6
1 3 acceptor
1 4 acceptor
3 6 7 15 cation
5 6 7 11 12 15 rings
6 17 18 19 21 22 23 rings
6 5 8 9 10 11 12 rings

> <PUBCHEM_HEAVY_ATOM_COUNT>
23

> <PUBCHEM_ATOM_DEF_STEREO_COUNT>
1

> <PUBCHEM_ATOM_UDEF_STEREO_COUNT>
0

> <PUBCHEM_BOND_DEF_STEREO_COUNT>
0

> <PUBCHEM_BOND_UDEF_STEREO_COUNT>
0

> <PUBCHEM_ISOTOPIC_ATOM_COUNT>
0

> <PUBCHEM_COMPONENT_COUNT>
1

> <PUBCHEM_CACTVS_TAUTO_COUNT>
1

> <PUBCHEM_CONFORMER_ID>
01981AC200000001

> <PUBCHEM_MMFF94_ENERGY>
58.0792

> <PUBCHEM_FEATURE_SELFOVERLAP>
30.549

> <PUBCHEM_SHAPE_FINGERPRINT>
10366900 7 18058728151645630232
11315181 36 18409441497677497008
11578080 2 14978516639472644873
12293681 4 17845654742503081792
12346177 29 18410288103686098628
12363563 72 18196094571214641687
12506688 2 17759811733294302919
12553582 1 18121236525350330734
12788726 201 18267036118205925307
13134695 92 17766837608954744639
13140716 1 18048042057838179883
13583140 156 17060328622514324384
14178342 30 18411140208123218262
14866123 147 18410013200226154939
15099037 8 18262803006928923140
15420108 30 17907012881622439897
15842332 3 18042145287010801852
16752209 62 18041824216630316387
19591789 44 17689161114570540637
20197701 30 18198628718542703393
20510252 161 18339637961935989691
20600515 1 17684613869686020465
21033648 29 17274524478679549338
21452121 199 17905037406523052245
23184049 29 18190744326417048716
23419403 2 17835201882699366901
23503958 8 18411415120653703250
23557571 272 18194673989480232810
23558518 356 18338240473872499208
23559900 14 18265603459156180428
25147074 1 18115886229145590708
3027735 51 18410291406759295659
312423 11 18041290970865620500
394222 165 17196019137982281849
4340502 62 18127424350039350465
5104073 3 18341600513636637160
5385378 56 17761500188566871089
5486654 36 18260835903660052200
58807428 26 18192439567188707561
59755656 520 18268147556847313973
602551 16 18335696127473591426
6992083 37 18187089437854903484
81228 2 18339368577508709457
9709674 26 18045777046926365262
9981440 41 16701454537851229036

> <PUBCHEM_SHAPE_MULTIPOLES>
433.5
8.41
3.69
1.39
10.41
1.15
-0.05
0.73
-1.32
-5.57
-1.51
-0.01
-0.39
-0.86

> <PUBCHEM_SHAPE_SELFOVERLAP>
940.079

> <PUBCHEM_SHAPE_VOLUME>
239.4

> <PUBCHEM_COORDINATE_TYPE>
2
5
10

$$$$
