25313249
  -OEChem-12032416193D

 69 72  0     1  0  0  0  0  0999 V2000
   -4.2537   -2.3626    2.1060 O   0  0  0  0  0  0  0  0  0  0  0  0
   -3.8303    5.5957   -0.1460 O   0  0  0  0  0  0  0  0  0  0  0  0
   -5.5971    4.1742   -0.3423 O   0  0  0  0  0  0  0  0  0  0  0  0
    5.5809   -0.5134   -1.5716 O   0  0  0  0  0  0  0  0  0  0  0  0
   -4.1106   -0.8976    0.2876 N   0  0  0  0  0  0  0  0  0  0  0  0
    0.8036    0.2522   -0.2869 N   0  0  0  0  0  0  0  0  0  0  0  0
    3.6144    0.5019    0.1558 N   0  0  0  0  0  0  0  0  0  0  0  0
   -2.8895    0.8762   -0.9528 C   0  0  2  0  0  0  0  0  0  0  0  0
   -3.9031    1.9085   -0.3964 C   0  0  1  0  0  0  0  0  0  0  0  0
   -3.5403   -0.5180   -1.0128 C   0  0  0  0  0  0  0  0  0  0  0  0
   -4.5066    1.4449    0.9402 C   0  0  0  0  0  0  0  0  0  0  0  0
   -1.5707    0.8151   -0.1718 C   0  0  0  0  0  0  0  0  0  0  0  0
   -5.0942    0.0411    0.8240 C   0  0  0  0  0  0  0  0  0  0  0  0
   -0.4374    0.3181   -1.0579 C   0  0  0  0  0  0  0  0  0  0  0  0
   -3.3177    3.3143   -0.2644 C   0  0  0  0  0  0  0  0  0  0  0  0
    1.4276    1.5781   -0.2012 C   0  0  0  0  0  0  0  0  0  0  0  0
    1.7386   -0.7013   -0.8969 C   0  0  0  0  0  0  0  0  0  0  0  0
    2.6985    1.5342    0.6509 C   0  0  0  0  0  0  0  0  0  0  0  0
    3.0190   -0.8217   -0.0673 C   0  0  0  0  0  0  0  0  0  0  0  0
   -3.7831   -2.0441    1.0152 C   0  0  0  0  0  0  0  0  0  0  0  0
   -4.3933    4.3652   -0.2592 C   0  0  0  0  0  0  0  0  0  0  0  0
   -2.7914   -2.9630    0.4453 C   0  0  0  0  0  0  0  0  0  0  0  0
    4.9733    0.5647    0.4836 C   0  0  0  0  0  0  0  0  0  0  0  0
    5.9379    0.0564   -0.3862 C   0  0  0  0  0  0  0  0  0  0  0  0
   -1.4369   -2.7941    0.7320 C   0  0  0  0  0  0  0  0  0  0  0  0
   -3.2040   -4.0059   -0.3839 C   0  0  0  0  0  0  0  0  0  0  0  0
    5.3599    1.1440    1.6922 C   0  0  0  0  0  0  0  0  0  0  0  0
    7.2892    0.1272   -0.0474 C   0  0  0  0  0  0  0  0  0  0  0  0
    6.7111    1.2147    2.0310 C   0  0  0  0  0  0  0  0  0  0  0  0
   -0.4948   -3.6683    0.1896 C   0  0  0  0  0  0  0  0  0  0  0  0
   -2.2621   -4.8802   -0.9261 C   0  0  0  0  0  0  0  0  0  0  0  0
    7.6758    0.7063    1.1613 C   0  0  0  0  0  0  0  0  0  0  0  0
   -0.9075   -4.7112   -0.6395 C   0  0  0  0  0  0  0  0  0  0  0  0
    5.4947    0.3488   -2.7043 C   0  0  0  0  0  0  0  0  0  0  0  0
   -2.6639    1.1809   -1.9842 H   0  0  0  0  0  0  0  0  0  0  0  0
   -4.7265    1.9445   -1.1252 H   0  0  0  0  0  0  0  0  0  0  0  0
   -4.3753   -0.5025   -1.7249 H   0  0  0  0  0  0  0  0  0  0  0  0
   -2.8386   -1.2659   -1.3846 H   0  0  0  0  0  0  0  0  0  0  0  0
   -5.2911    2.1308    1.2772 H   0  0  0  0  0  0  0  0  0  0  0  0
   -3.7301    1.4448    1.7159 H   0  0  0  0  0  0  0  0  0  0  0  0
   -1.6689    0.1964    0.7260 H   0  0  0  0  0  0  0  0  0  0  0  0
   -1.3135    1.8137    0.1882 H   0  0  0  0  0  0  0  0  0  0  0  0
   -5.4543   -0.2905    1.8032 H   0  0  0  0  0  0  0  0  0  0  0  0
   -5.9533    0.0407    0.1427 H   0  0  0  0  0  0  0  0  0  0  0  0
   -0.3233    0.9452   -1.9517 H   0  0  0  0  0  0  0  0  0  0  0  0
   -0.6993   -0.6832   -1.4180 H   0  0  0  0  0  0  0  0  0  0  0  0
   -2.7399    3.4187    0.6605 H   0  0  0  0  0  0  0  0  0  0  0  0
   -2.6667    3.5269   -1.1205 H   0  0  0  0  0  0  0  0  0  0  0  0
    0.7534    2.3084    0.2581 H   0  0  0  0  0  0  0  0  0  0  0  0
    1.6774    1.9540   -1.2030 H   0  0  0  0  0  0  0  0  0  0  0  0
    1.9935   -0.3897   -1.9191 H   0  0  0  0  0  0  0  0  0  0  0  0
    1.2844   -1.6943   -0.9679 H   0  0  0  0  0  0  0  0  0  0  0  0
    3.1697    2.5242    0.6076 H   0  0  0  0  0  0  0  0  0  0  0  0
    2.4315    1.3285    1.6955 H   0  0  0  0  0  0  0  0  0  0  0  0
    2.7860   -1.2719    0.9070 H   0  0  0  0  0  0  0  0  0  0  0  0
    3.6914   -1.5191   -0.5751 H   0  0  0  0  0  0  0  0  0  0  0  0
   -4.5055    6.3074   -0.1391 H   0  0  0  0  0  0  0  0  0  0  0  0
   -1.1030   -1.9959    1.3887 H   0  0  0  0  0  0  0  0  0  0  0  0
   -4.2569   -4.1463   -0.6141 H   0  0  0  0  0  0  0  0  0  0  0  0
    4.6376    1.5368    2.4020 H   0  0  0  0  0  0  0  0  0  0  0  0
    8.0463   -0.2676   -0.7194 H   0  0  0  0  0  0  0  0  0  0  0  0
    7.0124    1.6623    2.9736 H   0  0  0  0  0  0  0  0  0  0  0  0
    0.5585   -3.5455    0.4230 H   0  0  0  0  0  0  0  0  0  0  0  0
   -2.5833   -5.6926   -1.5713 H   0  0  0  0  0  0  0  0  0  0  0  0
    8.7278    0.7605    1.4256 H   0  0  0  0  0  0  0  0  0  0  0  0
   -0.1742   -5.3935   -1.0594 H   0  0  0  0  0  0  0  0  0  0  0  0
    5.1850   -0.2488   -3.5661 H   0  0  0  0  0  0  0  0  0  0  0  0
    6.4701    0.7959   -2.9205 H   0  0  0  0  0  0  0  0  0  0  0  0
    4.7500    1.1337   -2.5382 H   0  0  0  0  0  0  0  0  0  0  0  0
  1 20  2  0  0  0  0
  2 21  1  0  0  0  0
  2 57  1  0  0  0  0
  3 21  2  0  0  0  0
  4 24  1  0  0  0  0
  4 34  1  0  0  0  0
  5 10  1  0  0  0  0
  5 13  1  0  0  0  0
  5 20  1  0  0  0  0
  6 14  1  0  0  0  0
  6 16  1  0  0  0  0
  6 17  1  0  0  0  0
  7 18  1  0  0  0  0
  7 19  1  0  0  0  0
  7 23  1  0  0  0  0
  8  9  1  0  0  0  0
  8 10  1  0  0  0  0
  8 12  1  0  0  0  0
  8 35  1  0  0  0  0
  9 11  1  0  0  0  0
  9 15  1  0  0  0  0
  9 36  1  0  0  0  0
 10 37  1  0  0  0  0
 10 38  1  0  0  0  0
 11 13  1  0  0  0  0
 11 39  1  0  0  0  0
 11 40  1  0  0  0  0
 12 14  1  0  0  0  0
 12 41  1  0  0  0  0
 12 42  1  0  0  0  0
 13 43  1  0  0  0  0
 13 44  1  0  0  0  0
 14 45  1  0  0  0  0
 14 46  1  0  0  0  0
 15 21  1  0  0  0  0
 15 47  1  0  0  0  0
 15 48  1  0  0  0  0
 16 18  1  0  0  0  0
 16 49  1  0  0  0  0
 16 50  1  0  0  0  0
 17 19  1  0  0  0  0
 17 51  1  0  0  0  0
 17 52  1  0  0  0  0
 18 53  1  0  0  0  0
 18 54  1  0  0  0  0
 19 55  1  0  0  0  0
 19 56  1  0  0  0  0
 20 22  1  0  0  0  0
 22 25  2  0  0  0  0
 22 26  1  0  0  0  0
 23 24  1  0  0  0  0
 23 27  2  0  0  0  0
 24 28  2  0  0  0  0
 25 30  1  0  0  0  0
 25 58  1  0  0  0  0
 26 31  2  0  0  0  0
 26 59  1  0  0  0  0
 27 29  1  0  0  0  0
 27 60  1  0  0  0  0
 28 32  1  0  0  0  0
 28 61  1  0  0  0  0
 29 32  2  0  0  0  0
 29 62  1  0  0  0  0
 30 33  2  0  0  0  0
 30 63  1  0  0  0  0
 31 33  1  0  0  0  0
 31 64  1  0  0  0  0
 32 65  1  0  0  0  0
 33 66  1  0  0  0  0
 34 67  1  0  0  0  0
 34 68  1  0  0  0  0
 34 69  1  0  0  0  0
M  END
> <PUBCHEM_COMPOUND_CID>
25313249

> <PUBCHEM_CONFORMER_RMSD>
1.2

> <PUBCHEM_CONFORMER_DIVERSEORDER>
1
149
61
175
187
158
103
156
146
122
157
102
115
129
77
65
32
176
139
49
121
89
165
99
100
185
189
194
174
195
186
94
84
170
202
125
207
80
59
190
91
164
56
131
104
95
144
71
155
48
73
152
52
90
197
179
124
182
97
64
208
188
163
6
101
58
127
43
201
29
108
138
150
181
130
140
119
162
72
19
55
128
105
123
111
39
199
193
21
180
113
53
10
112
92
196
178
79
183
83
134
51
41
184
206
126
87
160
76
98
205
133
161
36
120
25
74
67
147
24
46
106
168
143
93
16
62
37
109
169
66
54
96
70
63
40
209
57
34
167
198
145
44
116
26
159
191
3
78
204
110
7
81
107
69
203
166
114
177
23
82
68
141
38
142
137
47
171
35
12
14
118
117
42
200
28
20
85
17
136
154
18
2
86
132
27
50
45
75
151
33
148
11
31
30
88
173
22
9
153
60
135
192
172
13
5
8
15
4

> <PUBCHEM_MMFF94_PARTIAL_CHARGES>
40
1 -0.57
10 0.3
13 0.3
14 0.27
15 0.06
16 0.27
17 0.27
18 0.37
19 0.37
2 -0.65
20 0.54
21 0.66
22 0.09
23 0.1
24 0.08
25 -0.15
26 -0.15
27 -0.15
28 -0.15
29 -0.15
3 -0.57
30 -0.15
31 -0.15
32 -0.15
33 -0.15
34 0.28
4 -0.36
5 -0.66
57 0.5
58 0.15
59 0.15
6 -0.81
60 0.15
61 0.15
62 0.15
63 0.15
64 0.15
65 0.15
66 0.15
7 -0.84

> <PUBCHEM_EFFECTIVE_ROTOR_COUNT>
11.4

> <PUBCHEM_PHARMACOPHORE_FEATURES>
11
1 1 acceptor
1 2 acceptor
1 3 acceptor
1 4 acceptor
1 6 cation
1 7 cation
3 2 3 21 anion
6 22 25 26 30 31 33 rings
6 23 24 27 28 29 32 rings
6 5 8 9 10 11 13 rings
6 6 7 16 17 18 19 rings

> <PUBCHEM_HEAVY_ATOM_COUNT>
34

> <PUBCHEM_ATOM_DEF_STEREO_COUNT>
2

> <PUBCHEM_ATOM_UDEF_STEREO_COUNT>
0

> <PUBCHEM_BOND_DEF_STEREO_COUNT>
0

> <PUBCHEM_BOND_UDEF_STEREO_COUNT>
0

> <PUBCHEM_ISOTOPIC_ATOM_COUNT>
0

> <PUBCHEM_COMPONENT_COUNT>
1

> <PUBCHEM_CACTVS_TAUTO_COUNT>
1

> <PUBCHEM_CONFORMER_ID>
01823FE100000001

> <PUBCHEM_MMFF94_ENERGY>
110.5999

> <PUBCHEM_FEATURE_SELFOVERLAP>
55.882

> <PUBCHEM_SHAPE_FINGERPRINT>
10290309 65 18269280058424748147
10675989 125 17547006330316726673
10864689 126 18268999683308039606
10940486 97 18334298699017599148
11135609 187 18118104898235799453
11377469 6 17459467925885843277
11445158 3 14490771056440396350
14659021 117 18270385222266532543
14844126 61 18336262453065741963
14856354 85 17385450916090982464
15021287 119 16877656890468115092
15230672 131 18264491690124836622
15326921 28 18267288868325972465
15348495 7 18057881527929672080
15361156 5 18191875732941553958
15400415 2 18194681454102433125
15419008 42 17989213612350375006
15439362 3 17689432686049836693
15927050 60 18340199687661123982
15950262 2 15480460117429257211
18470217 77 17982423160995264921
21033648 29 18340768143867853700
21796203 349 17466831416019734667
21987440 362 18046627810943156156
23522609 53 17314534598665971868
255183 313 18199203917980334323
3383291 50 18339642373274649939
397830 11 17986384715087206056
4073 2 18411695487908724504
4516262 110 18049994499455311797
5080951 261 17968916682966128404
508706 21 18270682081499976302
5364581 5 18054499472938797968
57527306 92 15841287982456872667
9896288 288 18335422357336076323
9981440 41 18337952282357877801

> <PUBCHEM_SHAPE_MULTIPOLES>
661.28
17.55
6.3
1.55
32.78
0.42
0.14
-9.5
-3.71
-15.46
0.8
2.04
0.16
1.93

> <PUBCHEM_SHAPE_SELFOVERLAP>
1395.35

> <PUBCHEM_SHAPE_VOLUME>
368.4

> <PUBCHEM_COORDINATE_TYPE>
2
5
10

$$$$
