38029128
  -OEChem-12032416243D

 71 73  0     1  0  0  0  0  0999 V2000
    3.6673   -1.5313    1.5192 S   0  0  0  0  0  0  0  0  0  0  0  0
   -2.1784    2.8963   -0.5769 O   0  0  0  0  0  0  0  0  0  0  0  0
    3.5389   -1.5703    2.9634 O   0  0  0  0  0  0  0  0  0  0  0  0
    4.8455   -2.0813    0.8765 O   0  0  0  0  0  0  0  0  0  0  0  0
    3.4302    0.0664    0.9768 N   0  0  0  0  0  0  0  0  0  0  0  0
   -2.6654    1.7410    1.3744 N   0  0  0  0  0  0  0  0  0  0  0  0
   -4.6530   -0.8209   -1.6212 N   0  0  0  0  0  0  0  0  0  0  0  0
    1.7082    1.0224   -1.2815 C   0  0  1  0  0  0  0  0  0  0  0  0
    3.1003    1.5908   -0.9090 C   0  0  1  0  0  0  0  0  0  0  0  0
    0.6974    2.1632   -1.4742 C   0  0  0  0  0  0  0  0  0  0  0  0
    0.5484    3.0295   -0.2093 C   0  0  2  0  0  0  0  0  0  0  0  0
    1.7655    0.1609   -2.5469 C   0  0  0  0  0  0  0  0  0  0  0  0
    1.8939    3.4092    0.3748 C   0  0  0  0  0  0  0  0  0  0  0  0
    3.0254    2.7637    0.0402 C   0  0  0  0  0  0  0  0  0  0  0  0
    3.9987    0.5039   -0.3077 C   0  0  0  0  0  0  0  0  0  0  0  0
   -0.3273    2.3323    0.8377 C   0  0  0  0  0  0  0  0  0  0  0  0
    2.2290    0.9944   -3.7372 C   0  0  0  0  0  0  0  0  0  0  0  0
    0.4040   -0.4684   -2.8243 C   0  0  0  0  0  0  0  0  0  0  0  0
    1.9165    4.5790    1.3190 C   0  0  0  0  0  0  0  0  0  0  0  0
   -1.7984    2.3581    0.4663 C   0  0  0  0  0  0  0  0  0  0  0  0
    2.2675   -2.3581    0.8252 C   0  0  0  0  0  0  0  0  0  0  0  0
   -4.1096    1.6811    1.1616 C   0  0  0  0  0  0  0  0  0  0  0  0
   -2.1930    1.1111    2.6013 C   0  0  0  0  0  0  0  0  0  0  0  0
    2.3530   -2.9280   -0.4451 C   0  0  0  0  0  0  0  0  0  0  0  0
    1.0775   -2.4412    1.5482 C   0  0  0  0  0  0  0  0  0  0  0  0
   -4.5205    0.4275    0.4450 C   0  0  0  0  0  0  0  0  0  0  0  0
    1.2486   -3.5811   -0.9924 C   0  0  0  0  0  0  0  0  0  0  0  0
   -0.0270   -3.0941    1.0008 C   0  0  0  0  0  0  0  0  0  0  0  0
    0.0586   -3.6640   -0.2694 C   0  0  0  0  0  0  0  0  0  0  0  0
   -5.1297   -0.6207    1.1259 C   0  0  0  0  0  0  0  0  0  0  0  0
   -4.3063    0.2792   -0.9160 C   0  0  0  0  0  0  0  0  0  0  0  0
   -1.1220   -4.3632   -0.8542 C   0  0  0  0  0  0  0  0  0  0  0  0
   -5.5007   -1.7688    0.4348 C   0  0  0  0  0  0  0  0  0  0  0  0
   -5.2428   -1.8189   -0.9256 C   0  0  0  0  0  0  0  0  0  0  0  0
    1.3449    0.3856   -0.4666 H   0  0  0  0  0  0  0  0  0  0  0  0
    3.6157    1.9864   -1.7876 H   0  0  0  0  0  0  0  0  0  0  0  0
   -0.2829    1.7874   -1.7757 H   0  0  0  0  0  0  0  0  0  0  0  0
    1.0286    2.8379   -2.2726 H   0  0  0  0  0  0  0  0  0  0  0  0
    0.0596    3.9626   -0.5232 H   0  0  0  0  0  0  0  0  0  0  0  0
    2.4783   -0.6575   -2.4048 H   0  0  0  0  0  0  0  0  0  0  0  0
    3.9701    3.1095    0.4557 H   0  0  0  0  0  0  0  0  0  0  0  0
    5.0026    0.9021   -0.1175 H   0  0  0  0  0  0  0  0  0  0  0  0
    4.1088   -0.3359   -0.9982 H   0  0  0  0  0  0  0  0  0  0  0  0
   -0.2385    2.8576    1.7953 H   0  0  0  0  0  0  0  0  0  0  0  0
   -0.0073    1.2955    0.9805 H   0  0  0  0  0  0  0  0  0  0  0  0
    1.5554    1.8172   -3.9893 H   0  0  0  0  0  0  0  0  0  0  0  0
    2.2537    0.3523   -4.6275 H   0  0  0  0  0  0  0  0  0  0  0  0
    3.2443    1.3816   -3.6363 H   0  0  0  0  0  0  0  0  0  0  0  0
   -0.3107    0.2407   -3.2539 H   0  0  0  0  0  0  0  0  0  0  0  0
   -0.0364   -0.8984   -1.9195 H   0  0  0  0  0  0  0  0  0  0  0  0
    0.5118   -1.2795   -3.5537 H   0  0  0  0  0  0  0  0  0  0  0  0
    1.4599    5.4560    0.8488 H   0  0  0  0  0  0  0  0  0  0  0  0
    2.9370    4.8562    1.6046 H   0  0  0  0  0  0  0  0  0  0  0  0
    1.3704    4.3528    2.2392 H   0  0  0  0  0  0  0  0  0  0  0  0
    3.2734    0.7929    1.6858 H   0  0  0  0  0  0  0  0  0  0  0  0
   -4.4157    2.5450    0.5586 H   0  0  0  0  0  0  0  0  0  0  0  0
   -4.6235    1.7819    2.1250 H   0  0  0  0  0  0  0  0  0  0  0  0
   -2.7202    1.5620    3.4483 H   0  0  0  0  0  0  0  0  0  0  0  0
   -1.1253    1.2055    2.7899 H   0  0  0  0  0  0  0  0  0  0  0  0
   -2.4337    0.0444    2.5603 H   0  0  0  0  0  0  0  0  0  0  0  0
    3.2676   -2.8711   -1.0283 H   0  0  0  0  0  0  0  0  0  0  0  0
    0.9874   -1.9975    2.5356 H   0  0  0  0  0  0  0  0  0  0  0  0
    1.3275   -4.0203   -1.9833 H   0  0  0  0  0  0  0  0  0  0  0  0
   -0.9490   -3.1511    1.5732 H   0  0  0  0  0  0  0  0  0  0  0  0
   -5.3188   -0.5553    2.1938 H   0  0  0  0  0  0  0  0  0  0  0  0
   -3.8445    1.0613   -1.5090 H   0  0  0  0  0  0  0  0  0  0  0  0
   -1.1076   -5.4218   -0.5768 H   0  0  0  0  0  0  0  0  0  0  0  0
   -2.0587   -3.9194   -0.4997 H   0  0  0  0  0  0  0  0  0  0  0  0
   -1.1255   -4.2862   -1.9468 H   0  0  0  0  0  0  0  0  0  0  0  0
   -5.9760   -2.5986    0.9451 H   0  0  0  0  0  0  0  0  0  0  0  0
   -5.5121   -2.6924   -1.5101 H   0  0  0  0  0  0  0  0  0  0  0  0
  1  3  2  0  0  0  0
  1  4  2  0  0  0  0
  1  5  1  0  0  0  0
  1 21  1  0  0  0  0
  2 20  2  0  0  0  0
  5 15  1  0  0  0  0
  5 55  1  0  0  0  0
  6 20  1  0  0  0  0
  6 22  1  0  0  0  0
  6 23  1  0  0  0  0
  7 31  1  0  0  0  0
  7 34  2  0  0  0  0
  8  9  1  0  0  0  0
  8 10  1  0  0  0  0
  8 12  1  0  0  0  0
  8 35  1  0  0  0  0
  9 14  1  0  0  0  0
  9 15  1  0  0  0  0
  9 36  1  0  0  0  0
 10 11  1  0  0  0  0
 10 37  1  0  0  0  0
 10 38  1  0  0  0  0
 11 13  1  0  0  0  0
 11 16  1  0  0  0  0
 11 39  1  0  0  0  0
 12 17  1  0  0  0  0
 12 18  1  0  0  0  0
 12 40  1  0  0  0  0
 13 14  2  0  0  0  0
 13 19  1  0  0  0  0
 14 41  1  0  0  0  0
 15 42  1  0  0  0  0
 15 43  1  0  0  0  0
 16 20  1  0  0  0  0
 16 44  1  0  0  0  0
 16 45  1  0  0  0  0
 17 46  1  0  0  0  0
 17 47  1  0  0  0  0
 17 48  1  0  0  0  0
 18 49  1  0  0  0  0
 18 50  1  0  0  0  0
 18 51  1  0  0  0  0
 19 52  1  0  0  0  0
 19 53  1  0  0  0  0
 19 54  1  0  0  0  0
 21 24  2  0  0  0  0
 21 25  1  0  0  0  0
 22 26  1  0  0  0  0
 22 56  1  0  0  0  0
 22 57  1  0  0  0  0
 23 58  1  0  0  0  0
 23 59  1  0  0  0  0
 23 60  1  0  0  0  0
 24 27  1  0  0  0  0
 24 61  1  0  0  0  0
 25 28  2  0  0  0  0
 25 62  1  0  0  0  0
 26 30  1  0  0  0  0
 26 31  2  0  0  0  0
 27 29  2  0  0  0  0
 27 63  1  0  0  0  0
 28 29  1  0  0  0  0
 28 64  1  0  0  0  0
 29 32  1  0  0  0  0
 30 33  2  0  0  0  0
 30 65  1  0  0  0  0
 31 66  1  0  0  0  0
 32 67  1  0  0  0  0
 32 68  1  0  0  0  0
 32 69  1  0  0  0  0
 33 34  1  0  0  0  0
 33 70  1  0  0  0  0
 34 71  1  0  0  0  0
M  END
> <PUBCHEM_COMPOUND_CID>
38029128

> <PUBCHEM_CONFORMER_RMSD>
1.4

> <PUBCHEM_CONFORMER_DIVERSEORDER>
2
105
160
61
164
101
189
142
175
45
54
150
138
77
85
156
126
57
180
124
23
99
110
93
98
21
115
37
41
165
132
188
100
75
55
63
9
102
32
153
128
140
48
134
60
170
121
176
39
103
25
8
123
167
14
120
89
52
187
91
33
127
117
88
131
139
111
51
66
83
22
67
20
11
79
62
114
151
119
76
24
86
182
59
169
162
27
171
97
185
36
53
161
173
152
38
84
29
71
87
155
147
35
40
19
18
146
70
109
65
78
133
74
113
56
148
116
42
186
141
5
135
144
46
122
129
130
16
50
118
136
68
30
34
108
174
172
6
163
137
107
158
17
177
73
149
154
43
94
159
181
166
179
104
44
4
125
1
58
49
15
12
26
96
13
178
69
90
184
72
81
112
95
157
7
106
82
145
64
47
10
168
183
31
143
3
28
92
80

> <PUBCHEM_MMFF94_PARTIAL_CHARGES>
39
1 1.45
11 0.14
13 -0.28
14 -0.29
15 0.36
16 0.06
19 0.14
2 -0.57
20 0.57
21 -0.01
22 0.44
23 0.3
24 -0.15
25 -0.15
26 -0.14
27 -0.15
28 -0.15
29 -0.14
3 -0.65
30 -0.15
31 0.16
32 0.14
33 -0.15
34 0.16
4 -0.65
41 0.15
5 -0.91
55 0.42
6 -0.66
61 0.15
62 0.15
63 0.15
64 0.15
65 0.15
66 0.15
7 -0.62
70 0.15
71 0.15
9 0.14

> <PUBCHEM_EFFECTIVE_ROTOR_COUNT>
10.8

> <PUBCHEM_PHARMACOPHORE_FEATURES>
9
1 2 acceptor
1 3 acceptor
1 4 acceptor
1 5 donor
1 7 acceptor
3 12 17 18 hydrophobe
6 21 24 25 27 28 29 rings
6 7 26 30 31 33 34 rings
6 8 9 10 11 13 14 rings

> <PUBCHEM_HEAVY_ATOM_COUNT>
34

> <PUBCHEM_ATOM_DEF_STEREO_COUNT>
3

> <PUBCHEM_ATOM_UDEF_STEREO_COUNT>
0

> <PUBCHEM_BOND_DEF_STEREO_COUNT>
0

> <PUBCHEM_BOND_UDEF_STEREO_COUNT>
0

> <PUBCHEM_ISOTOPIC_ATOM_COUNT>
0

> <PUBCHEM_COMPONENT_COUNT>
1

> <PUBCHEM_CACTVS_TAUTO_COUNT>
1

> <PUBCHEM_CONFORMER_ID>
0244474800000002

> <PUBCHEM_MMFF94_ENERGY>
71.2453

> <PUBCHEM_FEATURE_SELFOVERLAP>
45.69

> <PUBCHEM_SHAPE_FINGERPRINT>
10675989 125 16824737674732853579
11513181 2 18197225745737112054
11828532 37 16100493810777221279
12156800 1 15765812203270546942
131258 38 18115294687763873402
15001296 14 18266454498378126915
20764821 26 18122936189953946971
21315764 371 17988921154440207432
35225 105 17467104119934806343
46194498 28 15069778320206742281
463206 1 18336838476656915145
469060 322 17550896556799677522
6287921 2 18127976295690492611
6669772 16 18051122898077591393
9896288 288 17840018539068179840

> <PUBCHEM_SHAPE_MULTIPOLES>
671
9.59
5.89
2.67
13.02
1.18
-1.26
1.63
1.49
-2.77
1.17
-1.63
0.02
-1.99

> <PUBCHEM_SHAPE_SELFOVERLAP>
1384.541

> <PUBCHEM_SHAPE_VOLUME>
387.5

> <PUBCHEM_COORDINATE_TYPE>
2
5
10

$$$$
