45783457
  -OEChem-12032416263D

 64 67  0     1  0  0  0  0  0999 V2000
   -2.6698   -0.9400    2.2372 O   0  0  0  0  0  0  0  0  0  0  0  0
    1.1146    1.1901   -2.0513 O   0  0  0  0  0  0  0  0  0  0  0  0
   -1.9475    3.8661    0.4785 O   0  0  0  0  0  0  0  0  0  0  0  0
    0.6163    3.4030   -0.4622 O   0  0  0  0  0  0  0  0  0  0  0  0
    3.9576   -1.0680    0.1793 O   0  0  0  0  0  0  0  0  0  0  0  0
    5.9119   -1.4628   -1.7884 O   0  0  0  0  0  0  0  0  0  0  0  0
   -3.3015   -1.5136   -1.3373 N   0  0  1  0  0  0  0  0  0  0  0  0
   -1.1079   -1.3242    0.6784 N   0  0  0  0  0  0  0  0  0  0  0  0
   -1.4398   -0.6384    2.8357 N   0  0  0  0  0  0  0  0  0  0  0  0
    1.2483   -0.2821    3.2308 N   0  0  0  0  0  0  0  0  0  0  0  0
   -3.5634   -1.7216    0.1010 C   0  0  1  0  0  0  0  0  0  0  0  0
   -3.9270   -3.2131    0.2206 C   0  0  0  0  0  0  0  0  0  0  0  0
   -3.9028   -3.7440   -1.2057 C   0  0  0  0  0  0  0  0  0  0  0  0
   -4.1077   -2.5036   -2.0516 C   0  0  0  0  0  0  0  0  0  0  0  0
   -3.5822   -0.1544   -1.7816 C   0  0  0  0  0  0  0  0  0  0  0  0
   -2.3842   -1.3359    0.9692 C   0  0  0  0  0  0  0  0  0  0  0  0
   -2.4653    0.7922   -1.4302 C   0  0  0  0  0  0  0  0  0  0  0  0
   -2.7200    1.9051   -0.6290 C   0  0  0  0  0  0  0  0  0  0  0  0
   -1.1754    0.5559   -1.9059 C   0  0  0  0  0  0  0  0  0  0  0  0
   -0.5684   -0.8896    1.8541 C   0  0  0  0  0  0  0  0  0  0  0  0
   -0.1404    1.4326   -1.5804 C   0  0  0  0  0  0  0  0  0  0  0  0
   -1.6850    2.7818   -0.3034 C   0  0  0  0  0  0  0  0  0  0  0  0
   -0.3953    2.5456   -0.7792 C   0  0  0  0  0  0  0  0  0  0  0  0
    0.8466   -0.7182    2.0158 C   0  0  0  0  0  0  0  0  0  0  0  0
    1.7086   -0.9940    0.9666 C   0  0  0  0  0  0  0  0  0  0  0  0
    3.0706   -0.8105    1.1780 C   0  0  0  0  0  0  0  0  0  0  0  0
    1.2891    0.0305   -2.8635 C   0  0  0  0  0  0  0  0  0  0  0  0
   -3.2924    4.0340    0.9229 C   0  0  0  0  0  0  0  0  0  0  0  0
    1.3532    3.1227    0.7259 C   0  0  0  0  0  0  0  0  0  0  0  0
    2.5794   -0.1154    3.3989 C   0  0  0  0  0  0  0  0  0  0  0  0
    3.5225   -0.3630    2.4145 C   0  0  0  0  0  0  0  0  0  0  0  0
    5.1613   -0.3011    0.1656 C   0  0  0  0  0  0  0  0  0  0  0  0
    5.6463   -0.1670   -1.2650 C   0  0  0  0  0  0  0  0  0  0  0  0
    6.3501   -1.3991   -3.1384 C   0  0  0  0  0  0  0  0  0  0  0  0
   -4.4376   -1.1397    0.4254 H   0  0  0  0  0  0  0  0  0  0  0  0
   -3.2459   -3.7848    0.8602 H   0  0  0  0  0  0  0  0  0  0  0  0
   -4.9388   -3.3138    0.6321 H   0  0  0  0  0  0  0  0  0  0  0  0
   -4.6727   -4.5018   -1.3782 H   0  0  0  0  0  0  0  0  0  0  0  0
   -2.9258   -4.1954   -1.4187 H   0  0  0  0  0  0  0  0  0  0  0  0
   -5.1696   -2.2271   -2.0705 H   0  0  0  0  0  0  0  0  0  0  0  0
   -3.7603   -2.6552   -3.0783 H   0  0  0  0  0  0  0  0  0  0  0  0
   -4.5504    0.2030   -1.4073 H   0  0  0  0  0  0  0  0  0  0  0  0
   -3.6655   -0.1305   -2.8774 H   0  0  0  0  0  0  0  0  0  0  0  0
   -3.7405    2.0374   -0.2864 H   0  0  0  0  0  0  0  0  0  0  0  0
   -1.0372   -0.3193   -2.5318 H   0  0  0  0  0  0  0  0  0  0  0  0
    1.3569   -1.3509    0.0049 H   0  0  0  0  0  0  0  0  0  0  0  0
    2.3496   -0.0165   -3.1326 H   0  0  0  0  0  0  0  0  0  0  0  0
    0.7266    0.1088   -3.8001 H   0  0  0  0  0  0  0  0  0  0  0  0
    1.0606   -0.8909   -2.3185 H   0  0  0  0  0  0  0  0  0  0  0  0
   -3.3187    4.9437    1.5319 H   0  0  0  0  0  0  0  0  0  0  0  0
   -3.6093    3.2096    1.5709 H   0  0  0  0  0  0  0  0  0  0  0  0
   -3.9782    4.1942    0.0840 H   0  0  0  0  0  0  0  0  0  0  0  0
    0.6844    2.9861    1.5819 H   0  0  0  0  0  0  0  0  0  0  0  0
    1.9697    2.2305    0.5845 H   0  0  0  0  0  0  0  0  0  0  0  0
    2.0115    3.9717    0.9290 H   0  0  0  0  0  0  0  0  0  0  0  0
    2.8802    0.2294    4.3828 H   0  0  0  0  0  0  0  0  0  0  0  0
    4.5716   -0.2248    2.6496 H   0  0  0  0  0  0  0  0  0  0  0  0
    5.9118   -0.8271    0.7665 H   0  0  0  0  0  0  0  0  0  0  0  0
    5.0057    0.7105    0.5604 H   0  0  0  0  0  0  0  0  0  0  0  0
    4.8710    0.3106   -1.8755 H   0  0  0  0  0  0  0  0  0  0  0  0
    6.5583    0.4391   -1.2960 H   0  0  0  0  0  0  0  0  0  0  0  0
    5.5765   -0.9548   -3.7722 H   0  0  0  0  0  0  0  0  0  0  0  0
    7.2772   -0.8228   -3.2143 H   0  0  0  0  0  0  0  0  0  0  0  0
    6.5429   -2.4175   -3.4861 H   0  0  0  0  0  0  0  0  0  0  0  0
  1  9  1  0  0  0  0
  1 16  1  0  0  0  0
  2 21  1  0  0  0  0
  2 27  1  0  0  0  0
  3 22  1  0  0  0  0
  3 28  1  0  0  0  0
  4 23  1  0  0  0  0
  4 29  1  0  0  0  0
  5 26  1  0  0  0  0
  5 32  1  0  0  0  0
  6 33  1  0  0  0  0
  6 34  1  0  0  0  0
  7 11  1  0  0  0  0
  7 14  1  0  0  0  0
  7 15  1  0  0  0  0
  8 16  2  0  0  0  0
  8 20  1  0  0  0  0
  9 20  2  0  0  0  0
 10 24  2  0  0  0  0
 10 30  1  0  0  0  0
 11 12  1  0  0  0  0
 11 16  1  0  0  0  0
 11 35  1  0  0  0  0
 12 13  1  0  0  0  0
 12 36  1  0  0  0  0
 12 37  1  0  0  0  0
 13 14  1  0  0  0  0
 13 38  1  0  0  0  0
 13 39  1  0  0  0  0
 14 40  1  0  0  0  0
 14 41  1  0  0  0  0
 15 17  1  0  0  0  0
 15 42  1  0  0  0  0
 15 43  1  0  0  0  0
 17 18  2  0  0  0  0
 17 19  1  0  0  0  0
 18 22  1  0  0  0  0
 18 44  1  0  0  0  0
 19 21  2  0  0  0  0
 19 45  1  0  0  0  0
 20 24  1  0  0  0  0
 21 23  1  0  0  0  0
 22 23  2  0  0  0  0
 24 25  1  0  0  0  0
 25 26  2  0  0  0  0
 25 46  1  0  0  0  0
 26 31  1  0  0  0  0
 27 47  1  0  0  0  0
 27 48  1  0  0  0  0
 27 49  1  0  0  0  0
 28 50  1  0  0  0  0
 28 51  1  0  0  0  0
 28 52  1  0  0  0  0
 29 53  1  0  0  0  0
 29 54  1  0  0  0  0
 29 55  1  0  0  0  0
 30 31  2  0  0  0  0
 30 56  1  0  0  0  0
 31 57  1  0  0  0  0
 32 33  1  0  0  0  0
 32 58  1  0  0  0  0
 32 59  1  0  0  0  0
 33 60  1  0  0  0  0
 33 61  1  0  0  0  0
 34 62  1  0  0  0  0
 34 63  1  0  0  0  0
 34 64  1  0  0  0  0
M  END
> <PUBCHEM_COMPOUND_CID>
45783457

> <PUBCHEM_CONFORMER_RMSD>
1.2

> <PUBCHEM_CONFORMER_DIVERSEORDER>
1
32
41
31
45
35
19
22
33
34
26
10
24
30
39
12
37
38
40
36
44
27
42
43
11
29
15
3
13
4
21
14
28
25
17
5
18
20
6
16
8
23
9
2
7

> <PUBCHEM_MMFF94_PARTIAL_CHARGES>
37
1 -0.02
10 -0.62
11 0.45
14 0.27
15 0.41
16 0.3
17 -0.14
18 -0.15
19 -0.15
2 -0.36
20 0.46
21 0.08
22 0.08
23 0.08
24 0.36
25 -0.15
26 0.08
27 0.28
28 0.28
29 0.28
3 -0.36
30 0.16
31 -0.15
32 0.28
33 0.28
34 0.28
4 -0.36
44 0.15
45 0.15
46 0.15
5 -0.36
56 0.15
57 0.15
6 -0.56
7 -0.81
8 -0.57
9 -0.41

> <PUBCHEM_EFFECTIVE_ROTOR_COUNT>
12

> <PUBCHEM_PHARMACOPHORE_FEATURES>
12
1 10 acceptor
1 2 acceptor
1 3 acceptor
1 4 acceptor
1 5 acceptor
1 6 acceptor
1 7 cation
3 8 9 20 cation
5 1 8 9 16 20 rings
5 7 11 12 13 14 rings
6 10 24 25 26 30 31 rings
6 17 18 19 21 22 23 rings

> <PUBCHEM_HEAVY_ATOM_COUNT>
34

> <PUBCHEM_ATOM_DEF_STEREO_COUNT>
1

> <PUBCHEM_ATOM_UDEF_STEREO_COUNT>
0

> <PUBCHEM_BOND_DEF_STEREO_COUNT>
0

> <PUBCHEM_BOND_UDEF_STEREO_COUNT>
0

> <PUBCHEM_ISOTOPIC_ATOM_COUNT>
0

> <PUBCHEM_COMPONENT_COUNT>
1

> <PUBCHEM_CACTVS_TAUTO_COUNT>
1

> <PUBCHEM_CONFORMER_ID>
02BA99A100000001

> <PUBCHEM_MMFF94_ENERGY>
109.0801

> <PUBCHEM_FEATURE_SELFOVERLAP>
60.913

> <PUBCHEM_SHAPE_FINGERPRINT>
11578080 2 17772209529918951973
11607047 141 17836379507910698787
12156800 1 17466837763638545257
12788726 201 17969489429592544701
13965767 371 9976288136307730979
17492 54 16588569959797617207
20775438 99 16743933414215292419
20905425 154 17680403835779781047
21792965 270 15385558708306894512
35225 105 18048026368333047657
3610482 184 17897469215393193118
469060 322 16763882815290743739
484985 159 15697713701522537613
6786 2 17697040232803013929

> <PUBCHEM_SHAPE_MULTIPOLES>
644.56
10.15
4.22
3.53
14.32
3.3
0.93
-8.27
-6.11
-5.98
-0.68
3.34
-1.16
0.38

> <PUBCHEM_SHAPE_SELFOVERLAP>
1373.499

> <PUBCHEM_SHAPE_VOLUME>
361.4

> <PUBCHEM_COORDINATE_TYPE>
2
5
10

$$$$
