40777115
  -OEChem-12032416213D

 56 60  0     1  0  0  0  0  0999 V2000
    3.0214    2.4383    1.6530 Br  0  0  0  0  0  0  0  0  0  0  0  0
   -5.6761    0.6957    1.8575 O   0  0  0  0  0  0  0  0  0  0  0  0
   -1.9235   -1.9730    1.4502 N   0  0  2  0  0  0  0  0  0  0  0  0
   -3.7455    1.2190    0.6615 N   0  0  0  0  0  0  0  0  0  0  0  0
    0.7150   -0.2822   -1.8666 N   0  0  0  0  0  0  0  0  0  0  0  0
    2.8497    0.8162   -1.6571 N   0  0  0  0  0  0  0  0  0  0  0  0
   -1.3571   -2.1040   -1.0885 C   0  0  2  0  0  0  0  0  0  0  0  0
   -2.7715   -1.0171    0.6903 C   0  0  2  0  0  0  0  0  0  0  0  0
   -0.0592   -1.9456   -0.2492 C   0  0  2  0  0  0  0  0  0  0  0  0
   -2.3101   -0.9298   -0.7804 C   0  0  0  0  0  0  0  0  0  0  0  0
   -2.0509   -3.3924   -0.5966 C   0  0  0  0  0  0  0  0  0  0  0  0
   -0.4882   -1.6727    1.2208 C   0  0  0  0  0  0  0  0  0  0  0  0
   -2.1996   -3.3350    0.9339 C   0  0  0  0  0  0  0  0  0  0  0  0
   -2.8322    0.3614    1.3517 C   0  0  0  0  0  0  0  0  0  0  0  0
    0.9952   -0.9614   -0.7351 C   0  0  0  0  0  0  0  0  0  0  0  0
   -5.8618    2.2749    0.1238 C   0  0  0  0  0  0  0  0  0  0  0  0
   -5.8272    2.1184   -1.3682 C   0  0  0  0  0  0  0  0  0  0  0  0
   -7.0795    1.7921   -0.6084 C   0  0  0  0  0  0  0  0  0  0  0  0
   -5.0966    1.3151    0.9731 C   0  0  0  0  0  0  0  0  0  0  0  0
    2.1648   -0.8088   -0.0189 C   0  0  0  0  0  0  0  0  0  0  0  0
    3.0647    0.1031   -0.5321 C   0  0  0  0  0  0  0  0  0  0  0  0
    1.6720    0.5775   -2.2650 C   0  0  0  0  0  0  0  0  0  0  0  0
    4.3265    0.3543    0.1222 C   0  0  0  0  0  0  0  0  0  0  0  0
    1.3992    1.3458   -3.5136 C   0  0  0  0  0  0  0  0  0  0  0  0
    4.4703    1.3399    1.0985 C   0  0  0  0  0  0  0  0  0  0  0  0
    5.4222   -0.4249   -0.2491 C   0  0  0  0  0  0  0  0  0  0  0  0
    5.7100    1.5465    1.7037 C   0  0  0  0  0  0  0  0  0  0  0  0
    6.6619   -0.2184    0.3560 C   0  0  0  0  0  0  0  0  0  0  0  0
    6.8059    0.7673    1.3325 C   0  0  0  0  0  0  0  0  0  0  0  0
   -1.1478   -2.1685   -2.1614 H   0  0  0  0  0  0  0  0  0  0  0  0
   -3.8004   -1.4072    0.6986 H   0  0  0  0  0  0  0  0  0  0  0  0
    0.4465   -2.9236   -0.2748 H   0  0  0  0  0  0  0  0  0  0  0  0
   -1.8086    0.0209   -0.9924 H   0  0  0  0  0  0  0  0  0  0  0  0
   -3.1850   -0.9834   -1.4403 H   0  0  0  0  0  0  0  0  0  0  0  0
   -1.4658   -4.2748   -0.8809 H   0  0  0  0  0  0  0  0  0  0  0  0
   -3.0358   -3.4893   -1.0695 H   0  0  0  0  0  0  0  0  0  0  0  0
    0.1151   -2.2973    1.8934 H   0  0  0  0  0  0  0  0  0  0  0  0
   -0.2707   -0.6423    1.5249 H   0  0  0  0  0  0  0  0  0  0  0  0
   -3.2109   -3.6473    1.2219 H   0  0  0  0  0  0  0  0  0  0  0  0
   -1.5230   -4.0568    1.4090 H   0  0  0  0  0  0  0  0  0  0  0  0
   -1.8603    0.8647    1.3433 H   0  0  0  0  0  0  0  0  0  0  0  0
   -3.1525    0.2671    2.3958 H   0  0  0  0  0  0  0  0  0  0  0  0
   -5.9062    3.2858    0.5163 H   0  0  0  0  0  0  0  0  0  0  0  0
   -3.3774    1.7901   -0.0938 H   0  0  0  0  0  0  0  0  0  0  0  0
   -5.2781    1.2910   -1.8012 H   0  0  0  0  0  0  0  0  0  0  0  0
   -5.8219    3.0197   -1.9691 H   0  0  0  0  0  0  0  0  0  0  0  0
   -7.9166    2.4732   -0.7001 H   0  0  0  0  0  0  0  0  0  0  0  0
   -7.3589    0.7488   -0.5265 H   0  0  0  0  0  0  0  0  0  0  0  0
    2.3669   -1.3727    0.8841 H   0  0  0  0  0  0  0  0  0  0  0  0
    1.8520    0.8345   -4.3681 H   0  0  0  0  0  0  0  0  0  0  0  0
    0.3228    1.4364   -3.6897 H   0  0  0  0  0  0  0  0  0  0  0  0
    1.8177    2.3548   -3.4449 H   0  0  0  0  0  0  0  0  0  0  0  0
    5.3303   -1.1979   -1.0087 H   0  0  0  0  0  0  0  0  0  0  0  0
    5.8428    2.3095    2.4666 H   0  0  0  0  0  0  0  0  0  0  0  0
    7.5153   -0.8249    0.0671 H   0  0  0  0  0  0  0  0  0  0  0  0
    7.7712    0.9279    1.8035 H   0  0  0  0  0  0  0  0  0  0  0  0
  1 25  1  0  0  0  0
  2 19  2  0  0  0  0
  3  8  1  0  0  0  0
  3 12  1  0  0  0  0
  3 13  1  0  0  0  0
  4 14  1  0  0  0  0
  4 19  1  0  0  0  0
  4 44  1  0  0  0  0
  5 15  2  0  0  0  0
  5 22  1  0  0  0  0
  6 21  1  0  0  0  0
  6 22  2  0  0  0  0
  7  9  1  0  0  0  0
  7 10  1  0  0  0  0
  7 11  1  0  0  0  0
  7 30  1  0  0  0  0
  8 10  1  0  0  0  0
  8 14  1  0  0  0  0
  8 31  1  0  0  0  0
  9 12  1  0  0  0  0
  9 15  1  0  0  0  0
  9 32  1  0  0  0  0
 10 33  1  0  0  0  0
 10 34  1  0  0  0  0
 11 13  1  0  0  0  0
 11 35  1  0  0  0  0
 11 36  1  0  0  0  0
 12 37  1  0  0  0  0
 12 38  1  0  0  0  0
 13 39  1  0  0  0  0
 13 40  1  0  0  0  0
 14 41  1  0  0  0  0
 14 42  1  0  0  0  0
 15 20  1  0  0  0  0
 16 17  1  0  0  0  0
 16 18  1  0  0  0  0
 16 19  1  0  0  0  0
 16 43  1  0  0  0  0
 17 18  1  0  0  0  0
 17 45  1  0  0  0  0
 17 46  1  0  0  0  0
 18 47  1  0  0  0  0
 18 48  1  0  0  0  0
 20 21  2  0  0  0  0
 20 49  1  0  0  0  0
 21 23  1  0  0  0  0
 22 24  1  0  0  0  0
 23 25  1  0  0  0  0
 23 26  2  0  0  0  0
 24 50  1  0  0  0  0
 24 51  1  0  0  0  0
 24 52  1  0  0  0  0
 25 27  2  0  0  0  0
 26 28  1  0  0  0  0
 26 53  1  0  0  0  0
 27 29  1  0  0  0  0
 27 54  1  0  0  0  0
 28 29  2  0  0  0  0
 28 55  1  0  0  0  0
 29 56  1  0  0  0  0
M  END
> <PUBCHEM_COMPOUND_CID>
40777115

> <PUBCHEM_CONFORMER_RMSD>
1

> <PUBCHEM_CONFORMER_DIVERSEORDER>
1
69
63
55
86
84
5
72
57
23
109
101
56
37
50
79
105
36
91
106
26
30
64
85
82
66
83
44
24
94
89
58
96
97
33
39
15
70
59
77
54
88
52
62
40
38
3
68
81
73
100
42
65
87
20
78
80
16
111
67
102
92
98
35
27
51
13
34
43
110
11
95
29
31
99
53
49
14
12
75
90
25
61
46
41
108
45
28
47
74
22
71
112
104
93
4
103
32
8
21
7
48
18
76
10
60
19
2
9
107
6
17

> <PUBCHEM_MMFF94_PARTIAL_CHARGES>
36
1 -0.11
12 0.27
13 0.27
14 0.3
15 0.17
16 -0.1
17 -0.2
18 -0.2
19 0.63
2 -0.57
20 -0.15
21 0.31
22 0.48
24 0.14
25 0.11
26 -0.15
27 -0.15
28 -0.15
29 -0.15
3 -0.81
4 -0.73
43 0.1
44 0.37
45 0.1
46 0.1
47 0.1
48 0.1
49 0.15
5 -0.62
53 0.15
54 0.15
55 0.15
56 0.15
6 -0.62
8 0.27
9 0.14

> <PUBCHEM_EFFECTIVE_ROTOR_COUNT>
7.8

> <PUBCHEM_PHARMACOPHORE_FEATURES>
9
1 1 hydrophobe
1 2 acceptor
1 3 cation
1 4 donor
1 5 acceptor
3 5 6 22 cation
6 23 25 26 27 28 29 rings
6 5 6 15 20 21 22 rings
8 3 7 8 9 10 11 12 13 rings

> <PUBCHEM_HEAVY_ATOM_COUNT>
29

> <PUBCHEM_ATOM_DEF_STEREO_COUNT>
3

> <PUBCHEM_ATOM_UDEF_STEREO_COUNT>
0

> <PUBCHEM_BOND_DEF_STEREO_COUNT>
0

> <PUBCHEM_BOND_UDEF_STEREO_COUNT>
0

> <PUBCHEM_ISOTOPIC_ATOM_COUNT>
0

> <PUBCHEM_COMPONENT_COUNT>
1

> <PUBCHEM_CACTVS_TAUTO_COUNT>
2

> <PUBCHEM_CONFORMER_ID>
026E359B00000001

> <PUBCHEM_MMFF94_ENERGY>
80.709

> <PUBCHEM_FEATURE_SELFOVERLAP>
45.671

> <PUBCHEM_SHAPE_FINGERPRINT>
10074138 170 18041845133706676035
10554248 39 15913060815588097292
10674148 151 17313111822514360962
10928967 22 14418684948114363656
11370993 144 18341609339588824718
11374522 165 17315895703750963157
11961588 58 17775278357414781499
12107183 9 17458630016399948240
12120059 20 9510016311833995101
12403259 118 17822023012396575969
12422481 6 17894914009682054094
12553582 1 16515952770856078066
12592606 108 8430300344004508241
12633257 1 16588033436709286107
12788726 201 15722161386080240892
13103583 49 16008756818068429025
13150687 139 18130224857404480695
13383661 66 9511168707663606213
13402501 40 18060138734527590504
13540713 5 17387989800140407054
13583140 156 17703228546237687806
13673619 4 12251903689667000494
13911987 19 15051735343538208952
14251764 30 8214134166832877393
14765038 42 16515973674498798528
14767858 380 13686294681847513708
14932701 244 17916575579446862031
14950920 106 16081665477446422633
15238133 3 18261120685772292588
15669420 48 16486964116788315925
15684973 49 18192160514901392278
16994733 274 16701744835571591737
17980427 23 18335984289276597684
19246450 95 17096071499065219809
20567600 254 18336823105195828641
20715895 44 17846788385966608920
21033648 29 18340756144219222336
21304303 282 18340758334769523431
21403212 168 17749384828679220871
21859007 373 18116431440535510564
23522609 53 16226637141782756830
23559900 14 17986702357767160766
2838139 119 17846498097690801601
33382 64 12540692609568373360
3459 39 18335415764466454545
3737641 26 12107774186254716136
437815 12 8718534031111346317
5104073 3 17459472328623045024
6009941 240 18411696613216368026
6058803 2 17171258500569206478
7918774 8 9007049189217114385
9981440 41 18341619239114610539
999808 66 12901541330281932456

> <PUBCHEM_SHAPE_MULTIPOLES>
576.96
16.39
3.17
2.28
1.23
1.62
-1.7
-13.68
4.74
3.96
0.66
-0.58
-0.87
1.64

> <PUBCHEM_SHAPE_SELFOVERLAP>
1232.447

> <PUBCHEM_SHAPE_VOLUME>
329.5

> <PUBCHEM_COORDINATE_TYPE>
2
5
10

$$$$
