56774828
  -OEChem-12032416403D

 61 64  0     1  0  0  0  0  0999 V2000
   -8.3018    2.3234   -1.4898 F   0  0  0  0  0  0  0  0  0  0  0  0
   -7.0781    3.8876   -0.6045 F   0  0  0  0  0  0  0  0  0  0  0  0
   -8.5869    2.8738    0.5885 F   0  0  0  0  0  0  0  0  0  0  0  0
   -1.1496   -2.5975   -1.9453 O   0  0  0  0  0  0  0  0  0  0  0  0
   -0.9496   -1.6980    2.1613 O   0  0  0  0  0  0  0  0  0  0  0  0
   -4.3370   -3.4350   -0.4688 O   0  0  0  0  0  0  0  0  0  0  0  0
    5.9965   -1.3319   -0.3897 O   0  0  0  0  0  0  0  0  0  0  0  0
   -2.8734   -1.7108    0.0801 N   0  0  0  0  0  0  0  0  0  0  0  0
    4.6641    0.4870    0.2775 N   0  0  0  0  0  0  0  0  0  0  0  0
    8.3363    0.3392    0.0535 N   0  0  0  0  0  0  0  0  0  0  0  0
    9.2370    1.3279   -0.0791 N   0  0  0  0  0  0  0  0  0  0  0  0
   -1.5404   -1.1236   -0.1048 C   0  0  1  0  0  0  0  0  0  0  0  0
   -0.5186   -1.8068    0.8088 C   0  0  1  0  0  0  0  0  0  0  0  0
   -1.1238   -1.2262   -1.5672 C   0  0  0  0  0  0  0  0  0  0  0  0
   -3.6608   -1.2484    1.2151 C   0  0  0  0  0  0  0  0  0  0  0  0
   -3.3092   -2.7905   -0.6854 C   0  0  0  0  0  0  0  0  0  0  0  0
    0.8536   -1.1990    0.6677 C   0  0  0  0  0  0  0  0  0  0  0  0
   -2.4647   -3.1054   -1.9150 C   0  0  0  0  0  0  0  0  0  0  0  0
   -4.6897   -0.2334    0.8090 C   0  0  0  0  0  0  0  0  0  0  0  0
    1.0462    0.1577    0.9281 C   0  0  0  0  0  0  0  0  0  0  0  0
    1.9312   -1.9939    0.2768 C   0  0  0  0  0  0  0  0  0  0  0  0
   -4.3019    1.0747    0.5187 C   0  0  0  0  0  0  0  0  0  0  0  0
   -6.0332   -0.5982    0.7210 C   0  0  0  0  0  0  0  0  0  0  0  0
    2.3162    0.7196    0.7981 C   0  0  0  0  0  0  0  0  0  0  0  0
    3.2012   -1.4322    0.1466 C   0  0  0  0  0  0  0  0  0  0  0  0
    3.3937   -0.0754    0.4074 C   0  0  0  0  0  0  0  0  0  0  0  0
   -5.2573    2.0179    0.1407 C   0  0  0  0  0  0  0  0  0  0  0  0
   -6.9888    0.3450    0.3430 C   0  0  0  0  0  0  0  0  0  0  0  0
   -6.6008    1.6530    0.0529 C   0  0  0  0  0  0  0  0  0  0  0  0
   -7.6217    2.6609   -0.3543 C   0  0  0  0  0  0  0  0  0  0  0  0
    5.8542   -0.1486   -0.1005 C   0  0  0  0  0  0  0  0  0  0  0  0
    7.0501    0.7312   -0.1759 C   0  0  0  0  0  0  0  0  0  0  0  0
    7.1138    2.0692   -0.4794 C   0  0  0  0  0  0  0  0  0  0  0  0
    8.4844    2.3821   -0.4049 C   0  0  0  0  0  0  0  0  0  0  0  0
    8.7891   -0.9854    0.4098 C   0  0  0  0  0  0  0  0  0  0  0  0
    9.1197    3.6896   -0.6402 C   0  0  0  0  0  0  0  0  0  0  0  0
   -1.6247   -0.0616    0.1459 H   0  0  0  0  0  0  0  0  0  0  0  0
   -0.4807   -2.8815    0.5940 H   0  0  0  0  0  0  0  0  0  0  0  0
   -1.8079   -0.6598   -2.2126 H   0  0  0  0  0  0  0  0  0  0  0  0
   -0.1207   -0.8336   -1.7547 H   0  0  0  0  0  0  0  0  0  0  0  0
   -3.0351   -0.7971    1.9882 H   0  0  0  0  0  0  0  0  0  0  0  0
   -4.1482   -2.1137    1.6809 H   0  0  0  0  0  0  0  0  0  0  0  0
   -2.3964   -4.1947   -2.0034 H   0  0  0  0  0  0  0  0  0  0  0  0
   -3.0062   -2.7350   -2.7935 H   0  0  0  0  0  0  0  0  0  0  0  0
   -0.8354   -0.7808    2.4612 H   0  0  0  0  0  0  0  0  0  0  0  0
    0.2244    0.7969    1.2385 H   0  0  0  0  0  0  0  0  0  0  0  0
    1.7949   -3.0520    0.0697 H   0  0  0  0  0  0  0  0  0  0  0  0
   -3.2640    1.3834    0.5954 H   0  0  0  0  0  0  0  0  0  0  0  0
   -6.3502   -1.6137    0.9429 H   0  0  0  0  0  0  0  0  0  0  0  0
    2.4520    1.7780    1.0053 H   0  0  0  0  0  0  0  0  0  0  0  0
    3.9832   -2.1123   -0.1601 H   0  0  0  0  0  0  0  0  0  0  0  0
   -4.9349    3.0321   -0.0783 H   0  0  0  0  0  0  0  0  0  0  0  0
   -8.0330    0.0514    0.2765 H   0  0  0  0  0  0  0  0  0  0  0  0
    4.7164    1.4803    0.4919 H   0  0  0  0  0  0  0  0  0  0  0  0
    6.2928    2.7276   -0.7253 H   0  0  0  0  0  0  0  0  0  0  0  0
    8.7088   -1.6253   -0.4721 H   0  0  0  0  0  0  0  0  0  0  0  0
    9.8311   -0.9358    0.7378 H   0  0  0  0  0  0  0  0  0  0  0  0
    8.1716   -1.3630    1.2284 H   0  0  0  0  0  0  0  0  0  0  0  0
    8.3781    4.4525   -0.8985 H   0  0  0  0  0  0  0  0  0  0  0  0
    9.8381    3.6282   -1.4642 H   0  0  0  0  0  0  0  0  0  0  0  0
    9.6509    4.0285    0.2553 H   0  0  0  0  0  0  0  0  0  0  0  0
  1 30  1  0  0  0  0
  2 30  1  0  0  0  0
  3 30  1  0  0  0  0
  4 14  1  0  0  0  0
  4 18  1  0  0  0  0
  5 13  1  0  0  0  0
  5 45  1  0  0  0  0
  6 16  2  0  0  0  0
  7 31  2  0  0  0  0
  8 12  1  0  0  0  0
  8 15  1  0  0  0  0
  8 16  1  0  0  0  0
  9 26  1  0  0  0  0
  9 31  1  0  0  0  0
  9 54  1  0  0  0  0
 10 11  1  0  0  0  0
 10 32  1  0  0  0  0
 10 35  1  0  0  0  0
 11 34  2  0  0  0  0
 12 13  1  0  0  0  0
 12 14  1  0  0  0  0
 12 37  1  0  0  0  0
 13 17  1  0  0  0  0
 13 38  1  0  0  0  0
 14 39  1  0  0  0  0
 14 40  1  0  0  0  0
 15 19  1  0  0  0  0
 15 41  1  0  0  0  0
 15 42  1  0  0  0  0
 16 18  1  0  0  0  0
 17 20  2  0  0  0  0
 17 21  1  0  0  0  0
 18 43  1  0  0  0  0
 18 44  1  0  0  0  0
 19 22  2  0  0  0  0
 19 23  1  0  0  0  0
 20 24  1  0  0  0  0
 20 46  1  0  0  0  0
 21 25  2  0  0  0  0
 21 47  1  0  0  0  0
 22 27  1  0  0  0  0
 22 48  1  0  0  0  0
 23 28  2  0  0  0  0
 23 49  1  0  0  0  0
 24 26  2  0  0  0  0
 24 50  1  0  0  0  0
 25 26  1  0  0  0  0
 25 51  1  0  0  0  0
 27 29  2  0  0  0  0
 27 52  1  0  0  0  0
 28 29  1  0  0  0  0
 28 53  1  0  0  0  0
 29 30  1  0  0  0  0
 31 32  1  0  0  0  0
 32 33  2  0  0  0  0
 33 34  1  0  0  0  0
 33 55  1  0  0  0  0
 34 36  1  0  0  0  0
 35 56  1  0  0  0  0
 35 57  1  0  0  0  0
 35 58  1  0  0  0  0
 36 59  1  0  0  0  0
 36 60  1  0  0  0  0
 36 61  1  0  0  0  0
M  END
> <PUBCHEM_COMPOUND_CID>
56774828

> <PUBCHEM_CONFORMER_RMSD>
1

> <PUBCHEM_CONFORMER_DIVERSEORDER>
1
73
83
28
68
5
32
21
35
62
66
89
76
78
16
90
82
77
59
51
41
36
71
65
91
56
6
49
92
29
86
7
40
67
87
52
17
64
72
39
20
81
45
53
74
55
24
93
15
80
54
75
43
57
30
34
47
3
61
25
11
42
70
10
60
46
13
79
23
14
84
50
58
18
8
9
33
69
44
88
48
4
31
63
37
85
26
27
38
19
2
12
22

> <PUBCHEM_MMFF94_PARTIAL_CHARGES>
47
1 -0.34
10 0.31
11 -0.71
12 0.3
13 0.42
14 0.28
15 0.44
16 0.57
17 -0.14
18 0.34
19 -0.14
2 -0.34
20 -0.15
21 -0.15
22 -0.15
23 -0.15
24 -0.15
25 -0.15
26 0.12
27 -0.15
28 -0.15
29 -0.14
3 -0.34
30 1.16
31 0.71
32 -0.24
33 -0.15
34 0.11
35 0.26
36 0.18
4 -0.56
45 0.4
46 0.15
47 0.15
48 0.15
49 0.15
5 -0.68
50 0.15
51 0.15
52 0.15
53 0.15
54 0.37
55 0.15
6 -0.57
7 -0.57
8 -0.66
9 -0.55

> <PUBCHEM_EFFECTIVE_ROTOR_COUNT>
9

> <PUBCHEM_PHARMACOPHORE_FEATURES>
11
1 11 acceptor
1 4 acceptor
1 5 acceptor
1 5 donor
1 6 acceptor
1 7 acceptor
1 9 donor
5 10 11 32 33 34 rings
6 17 20 21 24 25 26 rings
6 19 22 23 27 28 29 rings
6 4 8 12 14 16 18 rings

> <PUBCHEM_HEAVY_ATOM_COUNT>
36

> <PUBCHEM_ATOM_DEF_STEREO_COUNT>
2

> <PUBCHEM_ATOM_UDEF_STEREO_COUNT>
0

> <PUBCHEM_BOND_DEF_STEREO_COUNT>
0

> <PUBCHEM_BOND_UDEF_STEREO_COUNT>
0

> <PUBCHEM_ISOTOPIC_ATOM_COUNT>
0

> <PUBCHEM_COMPONENT_COUNT>
1

> <PUBCHEM_CACTVS_TAUTO_COUNT>
4

> <PUBCHEM_CONFORMER_ID>
036250AC00000001

> <PUBCHEM_MMFF94_ENERGY>
92.519

> <PUBCHEM_FEATURE_SELFOVERLAP>
55.825

> <PUBCHEM_SHAPE_FINGERPRINT>
10165383 225 17775575239183267579
11135609 187 18271247227136370490
11181472 205 18335984182450924098
11386260 185 15482379933313174208
11578821 258 18413111670916666664
11672396 43 10087640433412602984
12082328 90 18337672031173052686
12120059 9 14979955862092781294
13911987 19 17846496990401356171
15064986 266 18261117417930122442
15183329 4 17275112738669751234
15198563 99 15769508542757870112
15276724 80 18261386716257687972
15347591 1 18410293601160958618
15350500 55 18335136454258626133
15604295 49 18337107973023428816
15781502 685 17059779888433369506
15890870 6 18342174437289631625
16728433 281 18131075883620667169
16989713 51 17416401189240170159
16992727 255 18341052999389560008
16994733 274 18334293201986318256
19315958 150 18339367370179729215
20505436 4 18335696126788757579
20609170 92 18060424608168023479
20721686 146 18336826378161667781
21756936 100 18187365463051040971
23516275 100 17900254209844535021
23559900 14 16199868475233633602
23576562 1 18130216185712742981
249057 3 17203328953065264154
3525247 18 17465929468710133589
3711267 37 18336559260612196304
3918712 181 18261390005607102673
4073 2 18260834843004460890
4098825 35 18410292523735272018
44802255 64 18131074861386737079
4516262 110 18041268882260533327
4760202 170 18131345333184957584
4760202 70 11599715213010844906
5372103 7 18117268170071795125
6201320 82 18199484177233938897
6327066 14 18341047424769741359
636775 72 18260832626336852089
6697151 62 15697994163514876834
6698420 124 17822012025865407186

> <PUBCHEM_SHAPE_MULTIPOLES>
675.64
30.87
4.01
1.25
37.22
1.71
-0.23
33.91
-3.52
-4.77
-1.57
-1.23
-0.72
-0.96

> <PUBCHEM_SHAPE_SELFOVERLAP>
1462.002

> <PUBCHEM_SHAPE_VOLUME>
371

> <PUBCHEM_COORDINATE_TYPE>
2
5
10

$$$$
