75367646
  -OEChem-12032416383D

 46 48  0     1  0  0  0  0  0999 V2000
   -4.7200    1.1694   -1.6752 F   0  0  0  0  0  0  0  0  0  0  0  0
   -4.2201   -0.8002   -0.9172 F   0  0  0  0  0  0  0  0  0  0  0  0
   -5.1326    0.6693    0.4002 F   0  0  0  0  0  0  0  0  0  0  0  0
    4.4261    2.1342   -0.1530 O   0  0  0  0  0  0  0  0  0  0  0  0
    0.8914    2.3522    0.8027 O   0  0  0  0  0  0  0  0  0  0  0  0
    2.9441   -2.5867   -0.9608 O   0  0  0  0  0  0  0  0  0  0  0  0
    3.0373   -0.5497    0.1959 N   0  0  0  0  0  0  0  0  0  0  0  0
   -0.0193   -2.1446   -0.6841 N   0  0  0  0  0  0  0  0  0  0  0  0
   -1.1865   -2.3704   -0.0574 N   0  0  0  0  0  0  0  0  0  0  0  0
   -0.5346    1.3919   -0.7527 N   0  0  0  0  0  0  0  0  0  0  0  0
    1.9818    1.6831    0.1714 C   0  0  2  0  0  0  0  0  0  0  0  0
    2.3767    0.4757    1.0194 C   0  0  0  0  0  0  0  0  0  0  0  0
    4.4194   -0.2730   -0.2037 C   0  0  0  0  0  0  0  0  0  0  0  0
    3.1194    2.6851   -0.0471 C   0  0  0  0  0  0  0  0  0  0  0  0
    4.5450    1.0106   -1.0183 C   0  0  0  0  0  0  0  0  0  0  0  0
    2.4252   -1.7297   -0.2471 C   0  0  0  0  0  0  0  0  0  0  0  0
    1.0389   -1.9866    0.1619 C   0  0  0  0  0  0  0  0  0  0  0  0
    0.5283   -2.1177    1.4303 C   0  0  0  0  0  0  0  0  0  0  0  0
   -0.3632    1.9111    0.4838 C   0  0  0  0  0  0  0  0  0  0  0  0
   -0.8457   -2.3530    1.2339 C   0  0  0  0  0  0  0  0  0  0  0  0
    0.0087   -2.0923   -2.1274 C   0  0  0  0  0  0  0  0  0  0  0  0
   -1.3727    2.0180    1.4269 C   0  0  0  0  0  0  0  0  0  0  0  0
   -1.8749   -2.5678    2.2649 C   0  0  0  0  0  0  0  0  0  0  0  0
   -2.6395    1.5627    1.0787 C   0  0  0  0  0  0  0  0  0  0  0  0
   -2.8551    1.0222   -0.1841 C   0  0  0  0  0  0  0  0  0  0  0  0
   -1.7795    0.9598   -1.0552 C   0  0  0  0  0  0  0  0  0  0  0  0
   -4.1985    0.5265   -0.5867 C   0  0  0  0  0  0  0  0  0  0  0  0
    1.7085    1.3302   -0.8311 H   0  0  0  0  0  0  0  0  0  0  0  0
    3.0673    0.7670    1.8208 H   0  0  0  0  0  0  0  0  0  0  0  0
    1.5015    0.0855    1.5308 H   0  0  0  0  0  0  0  0  0  0  0  0
    4.8092   -1.1093   -0.7926 H   0  0  0  0  0  0  0  0  0  0  0  0
    5.0112   -0.2074    0.7167 H   0  0  0  0  0  0  0  0  0  0  0  0
    3.1467    3.4010    0.7829 H   0  0  0  0  0  0  0  0  0  0  0  0
    2.9159    3.2856   -0.9425 H   0  0  0  0  0  0  0  0  0  0  0  0
    5.5544    1.0531   -1.4412 H   0  0  0  0  0  0  0  0  0  0  0  0
    3.8370    1.0608   -1.8534 H   0  0  0  0  0  0  0  0  0  0  0  0
    1.0703   -2.0669    2.3642 H   0  0  0  0  0  0  0  0  0  0  0  0
    0.4493   -3.0228   -2.4932 H   0  0  0  0  0  0  0  0  0  0  0  0
   -1.0106   -1.9854   -2.5077 H   0  0  0  0  0  0  0  0  0  0  0  0
    0.6069   -1.2322   -2.4382 H   0  0  0  0  0  0  0  0  0  0  0  0
   -1.1875    2.4413    2.4081 H   0  0  0  0  0  0  0  0  0  0  0  0
   -2.6974   -1.8545    2.1469 H   0  0  0  0  0  0  0  0  0  0  0  0
   -2.2849   -3.5806    2.1954 H   0  0  0  0  0  0  0  0  0  0  0  0
   -1.4636   -2.4395    3.2714 H   0  0  0  0  0  0  0  0  0  0  0  0
   -3.4450    1.6361    1.8037 H   0  0  0  0  0  0  0  0  0  0  0  0
   -1.8880    0.5505   -2.0547 H   0  0  0  0  0  0  0  0  0  0  0  0
  1 27  1  0  0  0  0
  2 27  1  0  0  0  0
  3 27  1  0  0  0  0
  4 14  1  0  0  0  0
  4 15  1  0  0  0  0
  5 11  1  0  0  0  0
  5 19  1  0  0  0  0
  6 16  2  0  0  0  0
  7 12  1  0  0  0  0
  7 13  1  0  0  0  0
  7 16  1  0  0  0  0
  8  9  1  0  0  0  0
  8 17  1  0  0  0  0
  8 21  1  0  0  0  0
  9 20  2  0  0  0  0
 10 19  2  0  0  0  0
 10 26  1  0  0  0  0
 11 12  1  0  0  0  0
 11 14  1  0  0  0  0
 11 28  1  0  0  0  0
 12 29  1  0  0  0  0
 12 30  1  0  0  0  0
 13 15  1  0  0  0  0
 13 31  1  0  0  0  0
 13 32  1  0  0  0  0
 14 33  1  0  0  0  0
 14 34  1  0  0  0  0
 15 35  1  0  0  0  0
 15 36  1  0  0  0  0
 16 17  1  0  0  0  0
 17 18  2  0  0  0  0
 18 20  1  0  0  0  0
 18 37  1  0  0  0  0
 19 22  1  0  0  0  0
 20 23  1  0  0  0  0
 21 38  1  0  0  0  0
 21 39  1  0  0  0  0
 21 40  1  0  0  0  0
 22 24  2  0  0  0  0
 22 41  1  0  0  0  0
 23 42  1  0  0  0  0
 23 43  1  0  0  0  0
 23 44  1  0  0  0  0
 24 25  1  0  0  0  0
 24 45  1  0  0  0  0
 25 26  2  0  0  0  0
 25 27  1  0  0  0  0
 26 46  1  0  0  0  0
M  END
> <PUBCHEM_COMPOUND_CID>
75367646

> <PUBCHEM_CONFORMER_RMSD>
1

> <PUBCHEM_CONFORMER_DIVERSEORDER>
10
52
177
33
190
188
186
181
178
183
152
176
104
35
91
119
175
85
168
151
8
128
124
23
98
70
179
174
171
187
19
22
127
66
114
143
3
90
79
126
157
2
189
116
57
94
108
101
184
81
172
130
48
64
93
82
109
146
75
78
43
47
138
34
97
173
99
144
129
182
156
73
170
25
132
135
139
55
44
160
134
112
36
20
147
95
39
7
13
162
142
17
102
165
166
125
80
1
51
54
42
145
169
140
62
14
56
136
67
27
106
74
68
58
30
59
180
153
159
11
72
150
117
105
133
161
29
31
96
77
28
131
121
9
110
71
167
83
123
141
118
158
76
100
6
148
21
60
103
137
92
15
111
185
32
40
38
155
50
46
87
45
61
4
107
154
18
24
12
113
26
16
164
69
86
37
122
5
88
163
149
89
63
49
115
41
120
65
53
84

> <PUBCHEM_MMFF94_PARTIAL_CHARGES>
31
1 -0.34
10 -0.62
11 0.28
12 0.3
13 0.3
14 0.28
15 0.28
16 0.71
17 -0.24
18 -0.15
19 0.39
2 -0.34
20 0.11
21 0.26
22 -0.15
23 0.18
24 -0.15
25 -0.14
26 0.16
27 1.16
3 -0.34
37 0.15
4 -0.56
41 0.15
45 0.15
46 0.15
5 -0.36
6 -0.57
7 -0.66
8 0.31
9 -0.71

> <PUBCHEM_EFFECTIVE_ROTOR_COUNT>
6.4

> <PUBCHEM_PHARMACOPHORE_FEATURES>
6
1 4 acceptor
1 6 acceptor
1 9 acceptor
5 8 9 17 18 20 rings
6 10 19 22 24 25 26 rings
7 4 7 11 12 13 14 15 rings

> <PUBCHEM_HEAVY_ATOM_COUNT>
27

> <PUBCHEM_ATOM_DEF_STEREO_COUNT>
1

> <PUBCHEM_ATOM_UDEF_STEREO_COUNT>
0

> <PUBCHEM_BOND_DEF_STEREO_COUNT>
0

> <PUBCHEM_BOND_UDEF_STEREO_COUNT>
0

> <PUBCHEM_ISOTOPIC_ATOM_COUNT>
0

> <PUBCHEM_COMPONENT_COUNT>
1

> <PUBCHEM_CACTVS_TAUTO_COUNT>
1

> <PUBCHEM_CONFORMER_ID>
047E04DE0000000A

> <PUBCHEM_MMFF94_ENERGY>
67.9583

> <PUBCHEM_FEATURE_SELFOVERLAP>
30.448

> <PUBCHEM_SHAPE_FINGERPRINT>
104564 63 17976259363323866032
10688039 33 17391366473622278899
108634 29 18334583468118018394
11135609 187 18412261778725067457
11370993 70 18259980483276304941
12011746 2 18409735032283954662
12156800 1 17610944374332427895
12596599 1 17485656952671363643
12788726 201 17775015573814477329
13140716 1 18338512053998752296
13402501 40 18262525926194334515
13583140 156 16877953732606053136
14787075 74 18409443709100422943
17357779 13 18049158074998660179
17492 54 18408888404014624172
20691752 17 18117573824664108260
21197605 99 18194971962017703691
22182313 1 18196670694655361120
23227448 37 18041283286989669364
23419403 2 17480918195290339870
238 59 18411699850814801616
27425 322 16588025761961735837
3680242 22 18190457168987667810
392239 28 18335149657014552771
6287921 2 17629769967494034311

> <PUBCHEM_SHAPE_MULTIPOLES>
496.29
8.07
3.68
1.6
1.32
1.13
0.02
-3.82
-2.33
-0.9
0.7
1
0.79
0.68

> <PUBCHEM_SHAPE_SELFOVERLAP>
1057.804

> <PUBCHEM_SHAPE_VOLUME>
276.5

> <PUBCHEM_COORDINATE_TYPE>
2
5
10

$$$$
