51137519
  -OEChem-12032416203D

 54 57  0     1  0  0  0  0  0999 V2000
    1.6328   -1.1728    0.1729 O   0  0  0  0  0  0  0  0  0  0  0  0
   -8.3433    1.1848    0.3195 O   0  0  0  0  0  0  0  0  0  0  0  0
   -2.3903   -0.9221   -0.2833 N   0  0  1  0  0  0  0  0  0  0  0  0
    1.7255   -3.4073    0.1201 N   0  0  0  0  0  0  0  0  0  0  0  0
    3.0188   -2.9243    0.0485 N   0  0  0  0  0  0  0  0  0  0  0  0
    6.8951    2.3695   -0.0844 N   0  0  0  0  0  0  0  0  0  0  0  0
   -0.5553   -2.2657    0.2882 C   0  0  1  0  0  0  0  0  0  0  0  0
   -1.0833   -1.5538    1.5458 C   0  0  0  0  0  0  0  0  0  0  0  0
   -1.1883   -1.5041   -0.8841 C   0  0  0  0  0  0  0  0  0  0  0  0
   -1.9553   -0.4207    1.0203 C   0  0  0  0  0  0  0  0  0  0  0  0
   -2.9752    0.1221   -1.1115 C   0  0  0  0  0  0  0  0  0  0  0  0
    0.9505   -2.3504    0.1914 C   0  0  0  0  0  0  0  0  0  0  0  0
   -4.4043    0.4048   -0.7312 C   0  0  0  0  0  0  0  0  0  0  0  0
    2.9164   -1.6162    0.0823 C   0  0  0  0  0  0  0  0  0  0  0  0
   -5.4162   -0.4745   -1.1167 C   0  0  0  0  0  0  0  0  0  0  0  0
   -4.7162    1.5463    0.0074 C   0  0  0  0  0  0  0  0  0  0  0  0
    3.9292   -0.6017    0.0398 C   0  0  0  0  0  0  0  0  0  0  0  0
   -6.7399   -0.2123   -0.7640 C   0  0  0  0  0  0  0  0  0  0  0  0
   -6.0398    1.8087    0.3602 C   0  0  0  0  0  0  0  0  0  0  0  0
   -7.0518    0.9294   -0.0255 C   0  0  0  0  0  0  0  0  0  0  0  0
    5.2738   -0.9616   -0.0522 C   0  0  0  0  0  0  0  0  0  0  0  0
    3.5697    0.7452    0.0900 C   0  0  0  0  0  0  0  0  0  0  0  0
    5.8990    1.3720   -0.0435 C   0  0  0  0  0  0  0  0  0  0  0  0
    6.2586    0.0251   -0.0939 C   0  0  0  0  0  0  0  0  0  0  0  0
    4.5545    1.7320    0.0484 C   0  0  0  0  0  0  0  0  0  0  0  0
    6.5317    3.7720   -0.0404 C   0  0  0  0  0  0  0  0  0  0  0  0
    8.2949    2.0056   -0.1788 C   0  0  0  0  0  0  0  0  0  0  0  0
   -8.5913    2.3697    1.0748 C   0  0  0  0  0  0  0  0  0  0  0  0
   -0.9424   -3.2942    0.2951 H   0  0  0  0  0  0  0  0  0  0  0  0
   -1.6914   -2.2551    2.1309 H   0  0  0  0  0  0  0  0  0  0  0  0
   -0.2901   -1.1768    2.2000 H   0  0  0  0  0  0  0  0  0  0  0  0
   -1.4356   -2.1815   -1.7088 H   0  0  0  0  0  0  0  0  0  0  0  0
   -0.5174   -0.7253   -1.2703 H   0  0  0  0  0  0  0  0  0  0  0  0
   -1.3544    0.4934    0.9289 H   0  0  0  0  0  0  0  0  0  0  0  0
   -2.7923   -0.2238    1.6975 H   0  0  0  0  0  0  0  0  0  0  0  0
   -2.3760    1.0428   -1.1010 H   0  0  0  0  0  0  0  0  0  0  0  0
   -2.9862   -0.1995   -2.1627 H   0  0  0  0  0  0  0  0  0  0  0  0
   -5.1858   -1.3672   -1.6922 H   0  0  0  0  0  0  0  0  0  0  0  0
   -3.9362    2.2379    0.3151 H   0  0  0  0  0  0  0  0  0  0  0  0
   -7.5238   -0.9009   -1.0669 H   0  0  0  0  0  0  0  0  0  0  0  0
   -6.2115    2.7125    0.9347 H   0  0  0  0  0  0  0  0  0  0  0  0
    5.5763   -2.0053   -0.0928 H   0  0  0  0  0  0  0  0  0  0  0  0
    2.5328    1.0641    0.1617 H   0  0  0  0  0  0  0  0  0  0  0  0
    7.2899   -0.3059   -0.1656 H   0  0  0  0  0  0  0  0  0  0  0  0
    4.2242    2.7652    0.0908 H   0  0  0  0  0  0  0  0  0  0  0  0
    5.9029    4.0451   -0.8952 H   0  0  0  0  0  0  0  0  0  0  0  0
    6.0110    4.0170    0.8921 H   0  0  0  0  0  0  0  0  0  0  0  0
    7.4139    4.4205   -0.0834 H   0  0  0  0  0  0  0  0  0  0  0  0
    8.6081    1.4091    0.6854 H   0  0  0  0  0  0  0  0  0  0  0  0
    8.4984    1.4509   -1.1015 H   0  0  0  0  0  0  0  0  0  0  0  0
    8.9426    2.8892   -0.1975 H   0  0  0  0  0  0  0  0  0  0  0  0
   -8.1000    2.3336    2.0531 H   0  0  0  0  0  0  0  0  0  0  0  0
   -8.3261    3.2699    0.5099 H   0  0  0  0  0  0  0  0  0  0  0  0
   -9.6695    2.4150    1.2603 H   0  0  0  0  0  0  0  0  0  0  0  0
  1 12  1  0  0  0  0
  1 14  1  0  0  0  0
  2 20  1  0  0  0  0
  2 28  1  0  0  0  0
  3  9  1  0  0  0  0
  3 10  1  0  0  0  0
  3 11  1  0  0  0  0
  4  5  1  0  0  0  0
  4 12  2  0  0  0  0
  5 14  2  0  0  0  0
  6 23  1  0  0  0  0
  6 26  1  0  0  0  0
  6 27  1  0  0  0  0
  7  8  1  0  0  0  0
  7  9  1  0  0  0  0
  7 12  1  0  0  0  0
  7 29  1  0  0  0  0
  8 10  1  0  0  0  0
  8 30  1  0  0  0  0
  8 31  1  0  0  0  0
  9 32  1  0  0  0  0
  9 33  1  0  0  0  0
 10 34  1  0  0  0  0
 10 35  1  0  0  0  0
 11 13  1  0  0  0  0
 11 36  1  0  0  0  0
 11 37  1  0  0  0  0
 13 15  2  0  0  0  0
 13 16  1  0  0  0  0
 14 17  1  0  0  0  0
 15 18  1  0  0  0  0
 15 38  1  0  0  0  0
 16 19  2  0  0  0  0
 16 39  1  0  0  0  0
 17 21  2  0  0  0  0
 17 22  1  0  0  0  0
 18 20  2  0  0  0  0
 18 40  1  0  0  0  0
 19 20  1  0  0  0  0
 19 41  1  0  0  0  0
 21 24  1  0  0  0  0
 21 42  1  0  0  0  0
 22 25  2  0  0  0  0
 22 43  1  0  0  0  0
 23 24  2  0  0  0  0
 23 25  1  0  0  0  0
 24 44  1  0  0  0  0
 25 45  1  0  0  0  0
 26 46  1  0  0  0  0
 26 47  1  0  0  0  0
 26 48  1  0  0  0  0
 27 49  1  0  0  0  0
 27 50  1  0  0  0  0
 27 51  1  0  0  0  0
 28 52  1  0  0  0  0
 28 53  1  0  0  0  0
 28 54  1  0  0  0  0
M  END
> <PUBCHEM_COMPOUND_CID>
51137519

> <PUBCHEM_CONFORMER_RMSD>
0.8

> <PUBCHEM_CONFORMER_DIVERSEORDER>
1
53
48
79
74
121
93
5
69
18
68
57
96
26
66
80
28
54
92
58
2
29
91
52
33
44
76
89
19
120
43
8
7
34
47
107
102
82
94
113
15
22
64
51
9
101
11
14
81
104
31
78
77
95
87
122
75
41
45
42
115
99
65
46
23
32
27
111
3
108
67
112
85
4
35
124
106
37
25
119
39
70
98
114
117
13
105
63
10
36
116
123
55
56
17
21
38
97
71
72
86
20
61
83
30
90
6
88
62
40
73
59
109
24
50
103
49
110
84
125
60
16
100
118
12

> <PUBCHEM_MMFF94_PARTIAL_CHARGES>
35
1 -0.28
10 0.27
11 0.41
12 0.3
13 -0.14
14 0.43
15 -0.15
16 -0.15
17 0.05
18 -0.15
19 -0.15
2 -0.36
20 0.08
21 -0.15
22 -0.15
23 0.1
24 -0.15
25 -0.15
26 0.37
27 0.37
28 0.28
3 -0.81
38 0.15
39 0.15
4 -0.34
40 0.15
41 0.15
42 0.15
43 0.15
44 0.15
45 0.15
5 -0.34
6 -0.84
7 0.18
9 0.27

> <PUBCHEM_EFFECTIVE_ROTOR_COUNT>
7

> <PUBCHEM_PHARMACOPHORE_FEATURES>
7
1 2 acceptor
1 3 cation
1 6 cation
5 1 4 5 12 14 rings
5 3 7 8 9 10 rings
6 13 15 16 18 19 20 rings
6 17 21 22 23 24 25 rings

> <PUBCHEM_HEAVY_ATOM_COUNT>
28

> <PUBCHEM_ATOM_DEF_STEREO_COUNT>
1

> <PUBCHEM_ATOM_UDEF_STEREO_COUNT>
0

> <PUBCHEM_BOND_DEF_STEREO_COUNT>
0

> <PUBCHEM_BOND_UDEF_STEREO_COUNT>
0

> <PUBCHEM_ISOTOPIC_ATOM_COUNT>
0

> <PUBCHEM_COMPONENT_COUNT>
1

> <PUBCHEM_CACTVS_TAUTO_COUNT>
1

> <PUBCHEM_CONFORMER_ID>
030C4BEF00000001

> <PUBCHEM_MMFF94_ENERGY>
86.5022

> <PUBCHEM_FEATURE_SELFOVERLAP>
35.523

> <PUBCHEM_SHAPE_FINGERPRINT>
10 15 17676487250216721625
10074138 170 16298958666119761523
10319688 67 16370729244741355153
10411042 1 17833547891680517410
10595046 47 18341888559728934055
10673678 19 18342742901031742167
10838868 160 18341602728917342497
11135609 187 18412543219425987929
11273773 42 18342734143962327429
11374522 155 18187089502628170477
11828532 37 11671486954520050133
1200032 147 18260830414966115722
12035758 1 16805326591644981879
12539765 74 18130512954899203503
12821665 9 18340200891037554167
12895837 130 18269555112219480644
13248334 5 18265613174621091826
13540713 4 18263945335545576858
13690498 29 17415828331530296559
14142895 15 18411979170683163863
14294032 229 18198626725013733462
14394314 77 18412830162397797465
14565420 104 18113616759614988082
14617042 71 18411705362023363377
14849402 71 18411701006847325969
14931854 50 17917722326903763792
15064981 194 18196104445417820860
15183329 4 17203611480161457625
15475509 8 14045742608770573587
15519825 34 15502663779277256137
15685185 35 18338801242109361920
1577012 14 18342451547629893647
15840311 113 18338803295815230317
16087824 20 18408887344002487404
16126227 98 18410574028412471015
16992752 21 17987507282474493495
16993089 31 12894779416246213165
16994733 274 18412259511414157257
1768 4 18408046221484968065
17899979 129 18343589521233507670
18393751 57 17894348878133620723
19302320 297 18187083988354138676
19438510 23 18114459050320329338
20105231 36 11386633098360002856
20157964 124 18338517443428568226
20691028 202 18265613380800029892
20715895 44 18410011079181710240
21033648 29 17822016440970564882
21298829 104 18411138060576805892
21304303 64 18334574651066916581
21304304 249 9151172064720096864
21307412 95 13039181537721982637
21521721 280 18336267847771752827
21585481 104 17274273754999134852
21585482 111 18263078834166857269
23522609 53 17774730741222321825
23576562 1 16127503001044817393
24771293 8 18187364346306361493
25269216 80 17060045004823512501
270888 7 18409727400464718478
2747138 104 17531542979730830781
2748736 6 18410285956698595424
2838139 119 18334566919861890310
3014063 24 8718827591440173541
306946 40 17240751854278778549
34797466 226 18129946668241333551
3711267 37 18130235861306378569
397830 11 18187096052969683299
4073 2 18334579049261465131
4366758 26 18412833485995921273
437815 12 10952048961799759883
445580 126 18411409597304648802
474113 269 7997972350044472025
5080951 261 16588024663230863139
5385378 56 18259980453849973754
543368 44 18411416203396801543
5470011 282 14333127524947154584
5718773 13 9511467718843339252
57303763 176 17987244335812415784
5758199 1 18408041810310578519
5776283 40 18271242849884682080
5911458 16 18131074805704967353
59682541 35 17822017514991470137
59682541 52 17274834519615718822
6327066 14 18338797926932101574
6691757 9 15574710360924344875
9962374 69 9078823061793781160
9980921 177 18189315954377363608

> <PUBCHEM_SHAPE_MULTIPOLES>
544.56
25.72
3.54
0.96
12.87
0.24
-0.07
27.41
-0.06
-4.78
-0.45
1.25
-0.1
-1.35

> <PUBCHEM_SHAPE_SELFOVERLAP>
1173.004

> <PUBCHEM_SHAPE_VOLUME>
304

> <PUBCHEM_COORDINATE_TYPE>
2
5
10

$$$$
