75536685
  -OEChem-12032416303D

 54 56  0     1  0  0  0  0  0999 V2000
    5.9806   -0.9963    0.1053 S   0  0  0  0  0  0  0  0  0  0  0  0
    1.6382   -1.4279    1.4562 O   0  0  0  0  0  0  0  0  0  0  0  0
    0.8298   -1.6305   -2.0382 O   0  0  0  0  0  0  0  0  0  0  0  0
    6.0945   -1.5813   -1.2171 O   0  0  0  0  0  0  0  0  0  0  0  0
    6.8875   -1.4009    1.1624 O   0  0  0  0  0  0  0  0  0  0  0  0
   -7.7766    2.5113    1.0148 O   0  0  0  0  0  0  0  0  0  0  0  0
   -1.5958   -0.9819   -0.1481 N   0  0  0  0  0  0  0  0  0  0  0  0
    4.3797   -1.1587    0.6574 N   0  0  0  0  0  0  0  0  0  0  0  0
   -7.7339    0.7162   -0.5131 N   0  0  0  0  0  0  0  0  0  0  0  0
   -0.3151   -1.6166    0.1181 C   0  0  1  0  0  0  0  0  0  0  0  0
    0.8194   -1.0803   -0.7352 C   0  0  1  0  0  0  0  0  0  0  0  0
    2.0302   -1.5203    0.0765 C   0  0  1  0  0  0  0  0  0  0  0  0
    0.2040   -1.3369    1.5189 C   0  0  0  0  0  0  0  0  0  0  0  0
    3.2596   -0.6631   -0.1663 C   0  0  0  0  0  0  0  0  0  0  0  0
   -2.6919   -1.7459    0.4356 C   0  0  0  0  0  0  0  0  0  0  0  0
   -4.0256   -1.0943    0.1840 C   0  0  0  0  0  0  0  0  0  0  0  0
    6.1302    0.7573   -0.0600 C   0  0  0  0  0  0  0  0  0  0  0  0
   -4.4050    0.0255    0.9241 C   0  0  0  0  0  0  0  0  0  0  0  0
   -4.8821   -1.6103   -0.7886 C   0  0  0  0  0  0  0  0  0  0  0  0
   -5.6408    0.6291    0.6920 C   0  0  0  0  0  0  0  0  0  0  0  0
   -6.1180   -1.0068   -1.0208 C   0  0  0  0  0  0  0  0  0  0  0  0
    6.5754    1.5239    1.0169 C   0  0  0  0  0  0  0  0  0  0  0  0
    5.8032    1.3742   -1.2674 C   0  0  0  0  0  0  0  0  0  0  0  0
   -6.4973    0.1129   -0.2805 C   0  0  0  0  0  0  0  0  0  0  0  0
    6.6937    2.9077    0.8863 C   0  0  0  0  0  0  0  0  0  0  0  0
    5.9217    2.7580   -1.3981 C   0  0  0  0  0  0  0  0  0  0  0  0
    6.3668    3.5246   -0.3211 C   0  0  0  0  0  0  0  0  0  0  0  0
   -8.2831    1.8367    0.1242 C   0  0  0  0  0  0  0  0  0  0  0  0
   -9.6492    2.1745   -0.4184 C   0  0  0  0  0  0  0  0  0  0  0  0
   -0.3855   -2.7002   -0.0530 H   0  0  0  0  0  0  0  0  0  0  0  0
    0.7717    0.0131   -0.8136 H   0  0  0  0  0  0  0  0  0  0  0  0
    2.2744   -2.5718   -0.1247 H   0  0  0  0  0  0  0  0  0  0  0  0
   -0.0404   -0.3240    1.8594 H   0  0  0  0  0  0  0  0  0  0  0  0
   -0.1720   -2.0495    2.2592 H   0  0  0  0  0  0  0  0  0  0  0  0
    3.0635    0.3740    0.1281 H   0  0  0  0  0  0  0  0  0  0  0  0
    3.5209   -0.6909   -1.2284 H   0  0  0  0  0  0  0  0  0  0  0  0
   -1.7350   -0.9235   -1.1573 H   0  0  0  0  0  0  0  0  0  0  0  0
   -2.5639   -1.8451    1.5211 H   0  0  0  0  0  0  0  0  0  0  0  0
   -2.7043   -2.7668    0.0321 H   0  0  0  0  0  0  0  0  0  0  0  0
    0.8712   -2.5987   -1.9609 H   0  0  0  0  0  0  0  0  0  0  0  0
    4.2118   -1.1820    1.6710 H   0  0  0  0  0  0  0  0  0  0  0  0
   -3.7454    0.4354    1.6847 H   0  0  0  0  0  0  0  0  0  0  0  0
   -4.5987   -2.4808   -1.3742 H   0  0  0  0  0  0  0  0  0  0  0  0
   -5.8648    1.4914    1.3043 H   0  0  0  0  0  0  0  0  0  0  0  0
   -6.7752   -1.4194   -1.7821 H   0  0  0  0  0  0  0  0  0  0  0  0
    6.8285    1.0654    1.9685 H   0  0  0  0  0  0  0  0  0  0  0  0
    5.4522    0.7974   -2.1182 H   0  0  0  0  0  0  0  0  0  0  0  0
    7.0386    3.5051    1.7253 H   0  0  0  0  0  0  0  0  0  0  0  0
    5.6665    3.2387   -2.3379 H   0  0  0  0  0  0  0  0  0  0  0  0
    6.4583    4.6020   -0.4227 H   0  0  0  0  0  0  0  0  0  0  0  0
   -8.3002    0.2803   -1.2379 H   0  0  0  0  0  0  0  0  0  0  0  0
  -10.3212    1.3212   -0.2900 H   0  0  0  0  0  0  0  0  0  0  0  0
   -9.5734    2.4238   -1.4805 H   0  0  0  0  0  0  0  0  0  0  0  0
  -10.0601    3.0329    0.1201 H   0  0  0  0  0  0  0  0  0  0  0  0
  1  4  2  0  0  0  0
  1  5  2  0  0  0  0
  1  8  1  0  0  0  0
  1 17  1  0  0  0  0
  2 12  1  0  0  0  0
  2 13  1  0  0  0  0
  3 11  1  0  0  0  0
  3 40  1  0  0  0  0
  6 28  2  0  0  0  0
  7 10  1  0  0  0  0
  7 15  1  0  0  0  0
  7 37  1  0  0  0  0
  8 14  1  0  0  0  0
  8 41  1  0  0  0  0
  9 24  1  0  0  0  0
  9 28  1  0  0  0  0
  9 51  1  0  0  0  0
 10 11  1  0  0  0  0
 10 13  1  0  0  0  0
 10 30  1  0  0  0  0
 11 12  1  0  0  0  0
 11 31  1  0  0  0  0
 12 14  1  0  0  0  0
 12 32  1  0  0  0  0
 13 33  1  0  0  0  0
 13 34  1  0  0  0  0
 14 35  1  0  0  0  0
 14 36  1  0  0  0  0
 15 16  1  0  0  0  0
 15 38  1  0  0  0  0
 15 39  1  0  0  0  0
 16 18  2  0  0  0  0
 16 19  1  0  0  0  0
 17 22  2  0  0  0  0
 17 23  1  0  0  0  0
 18 20  1  0  0  0  0
 18 42  1  0  0  0  0
 19 21  2  0  0  0  0
 19 43  1  0  0  0  0
 20 24  2  0  0  0  0
 20 44  1  0  0  0  0
 21 24  1  0  0  0  0
 21 45  1  0  0  0  0
 22 25  1  0  0  0  0
 22 46  1  0  0  0  0
 23 26  2  0  0  0  0
 23 47  1  0  0  0  0
 25 27  2  0  0  0  0
 25 48  1  0  0  0  0
 26 27  1  0  0  0  0
 26 49  1  0  0  0  0
 27 50  1  0  0  0  0
 28 29  1  0  0  0  0
 29 52  1  0  0  0  0
 29 53  1  0  0  0  0
 29 54  1  0  0  0  0
M  END
> <PUBCHEM_COMPOUND_CID>
75536685

> <PUBCHEM_CONFORMER_RMSD>
1.2

> <PUBCHEM_CONFORMER_DIVERSEORDER>
1
178
96
115
107
105
19
21
52
83
159
78
180
131
62
113
74
114
2
61
38
161
31
41
153
67
66
68
172
162
139
16
26
187
181
143
49
167
81
126
128
36
147
102
150
28
186
183
27
75
146
112
156
69
142
103
121
80
160
164
56
174
145
98
92
144
32
173
13
141
60
118
182
3
179
135
119
76
163
168
170
44
125
10
24
72
87
37
148
9
18
20
84
90
71
42
154
45
7
53
93
189
64
15
122
136
120
34
11
12
108
155
88
158
188
25
97
40
94
58
4
5
152
43
109
157
117
50
17
106
124
57
185
22
169
133
48
89
111
130
86
123
127
99
166
190
171
137
6
65
132
85
46
104
176
77
63
8
82
110
91
54
101
35
23
165
14
39
116
129
177
59
70
151
79
51
33
184
29
149
47
134
100
55
138
73
175
95
30
140

> <PUBCHEM_MMFF94_PARTIAL_CHARGES>
42
1 1.45
10 0.27
11 0.28
12 0.28
13 0.28
14 0.36
15 0.41
16 -0.14
17 -0.01
18 -0.15
19 -0.15
2 -0.56
20 -0.15
21 -0.15
22 -0.15
23 -0.15
24 0.12
25 -0.15
26 -0.15
27 -0.15
28 0.57
29 0.06
3 -0.68
37 0.36
4 -0.65
40 0.4
41 0.42
42 0.15
43 0.15
44 0.15
45 0.15
46 0.15
47 0.15
48 0.15
49 0.15
5 -0.65
50 0.15
51 0.37
6 -0.57
7 -0.9
8 -0.91
9 -0.55

> <PUBCHEM_EFFECTIVE_ROTOR_COUNT>
10

> <PUBCHEM_PHARMACOPHORE_FEATURES>
13
1 2 acceptor
1 3 acceptor
1 3 donor
1 4 acceptor
1 5 acceptor
1 6 acceptor
1 7 cation
1 7 donor
1 8 donor
1 9 donor
5 2 10 11 12 13 rings
6 16 18 19 20 21 24 rings
6 17 22 23 25 26 27 rings

> <PUBCHEM_HEAVY_ATOM_COUNT>
29

> <PUBCHEM_ATOM_DEF_STEREO_COUNT>
3

> <PUBCHEM_ATOM_UDEF_STEREO_COUNT>
0

> <PUBCHEM_BOND_DEF_STEREO_COUNT>
0

> <PUBCHEM_BOND_UDEF_STEREO_COUNT>
0

> <PUBCHEM_ISOTOPIC_ATOM_COUNT>
0

> <PUBCHEM_COMPONENT_COUNT>
1

> <PUBCHEM_CACTVS_TAUTO_COUNT>
3

> <PUBCHEM_CONFORMER_ID>
0480992D00000001

> <PUBCHEM_MMFF94_ENERGY>
59.4805

> <PUBCHEM_FEATURE_SELFOVERLAP>
65.992

> <PUBCHEM_SHAPE_FINGERPRINT>
10 15 15140965071012814382
10066227 49 10015589402222061221
10533779 47 16226314934100920248
10554248 39 17988922245736940638
11135609 127 18273208729941142200
11408170 253 18130512916709260753
11991303 11 16271642407322404967
125118 31 18409449206600513368
12522641 24 18041555837615819858
12539765 74 18342744004933770479
12664476 115 18333449829639769284
13668630 136 12175615171276121363
13782708 43 9727366705492798346
14251757 52 18410853269758248488
14344974 52 18408881838243959621
15183329 4 17561089132990019426
15475509 35 10737280290715657604
1577012 14 18412825823704472159
15840311 113 18333170552821085790
16994733 274 18410570725450758457
17134984 74 10807939258908675300
1754908 1 16443068309603645921
17686467 74 18040999571189841473
1818759 1 11167934789175391421
2026 5 10735891555495180117
20691028 202 18336264629986263648
21033648 29 17313388962819472506
21130935 74 18040715896088466298
21344244 181 11815902271068763924
21521239 73 12391517485934398190
21585482 111 18336549438707896604
22002106 203 11383572049097886964
23576562 1 16486394625415248897
24771293 8 17822853212162909206
249057 25 17845946143407539986
328310 630 18343310292118069131
33532 11 9439405726632163177
3711267 37 18341900650130853793
3918712 181 18342733070163338792
397638 26 16443347580998181833
397830 11 17605003683185603674
406291 66 9871756779896974693
4073 2 18408324410764802739
44555599 121 18412831265354345856
4625314 4 18413672396060704286
5104073 3 15430895365060384234
5718773 13 9583520910787494217
6328613 192 18411982494038291547
9831232 110 8862406222806977816

> <PUBCHEM_SHAPE_MULTIPOLES>
556.37
30.22
3.26
1.32
31.9
2.76
0.13
26.49
0.76
-3.03
0.08
-1
-0.11
-1.18

> <PUBCHEM_SHAPE_SELFOVERLAP>
1156.101

> <PUBCHEM_SHAPE_VOLUME>
316.8

> <PUBCHEM_COORDINATE_TYPE>
2
5
10

$$$$
