7672458
  -OEChem-12032416413D

 54 58  0     1  0  0  0  0  0999 V2000
   -2.9046    1.2082   -0.5995 S   0  0  0  0  0  0  0  0  0  0  0  0
   -0.7713   -0.5326    1.9115 O   0  0  0  0  0  0  0  0  0  0  0  0
    3.4530    1.4213   -1.8604 O   0  0  0  0  0  0  0  0  0  0  0  0
    3.7652   -0.2489   -0.2782 N   0  0  0  0  0  0  0  0  0  0  0  0
    0.9262   -1.4667    0.6117 N   0  0  0  0  0  0  0  0  0  0  0  0
    3.7814    2.0381    0.3247 N   0  0  0  0  0  0  0  0  0  0  0  0
    3.2713   -1.9223    1.5279 C   0  0  1  0  0  0  0  0  0  0  0  0
    2.7507   -2.4657   -0.8085 C   0  0  2  0  0  0  0  0  0  0  0  0
    3.3172   -3.0341    0.4892 C   0  0  0  0  0  0  0  0  0  0  0  0
    4.1056   -0.7070    1.0778 C   0  0  0  0  0  0  0  0  0  0  0  0
    1.8065   -1.5473    1.7844 C   0  0  0  0  0  0  0  0  0  0  0  0
    3.6446   -1.3089   -1.2868 C   0  0  0  0  0  0  0  0  0  0  0  0
    1.3268   -1.9758   -0.6260 C   0  0  0  0  0  0  0  0  0  0  0  0
    0.4641   -2.0041   -1.6550 C   0  0  0  0  0  0  0  0  0  0  0  0
   -0.3702   -0.9578    0.8267 C   0  0  0  0  0  0  0  0  0  0  0  0
    3.6512    1.0928   -0.6861 C   0  0  0  0  0  0  0  0  0  0  0  0
   -1.2979   -0.9692   -0.3568 C   0  0  0  0  0  0  0  0  0  0  0  0
   -0.8685   -1.4882   -1.5162 C   0  0  0  0  0  0  0  0  0  0  0  0
   -2.6210   -0.4400   -0.2502 C   0  0  0  0  0  0  0  0  0  0  0  0
    3.6936    3.4579    0.0665 C   0  0  0  0  0  0  0  0  0  0  0  0
   -3.7835   -1.0881    0.1131 C   0  0  0  0  0  0  0  0  0  0  0  0
    5.0642    4.0161   -0.2941 C   0  0  0  0  0  0  0  0  0  0  0  0
    3.1002    4.1841    1.2673 C   0  0  0  0  0  0  0  0  0  0  0  0
   -4.9336   -0.2294    0.1088 C   0  0  0  0  0  0  0  0  0  0  0  0
   -4.5913    1.0730   -0.2677 C   0  0  0  0  0  0  0  0  0  0  0  0
   -6.2885   -0.5033    0.4154 C   0  0  0  0  0  0  0  0  0  0  0  0
   -5.5573    2.0954   -0.3443 C   0  0  0  0  0  0  0  0  0  0  0  0
   -7.2492    0.5087    0.3404 C   0  0  0  0  0  0  0  0  0  0  0  0
   -6.8851    1.7938   -0.0357 C   0  0  0  0  0  0  0  0  0  0  0  0
    3.7001   -2.2847    2.4706 H   0  0  0  0  0  0  0  0  0  0  0  0
    2.7741   -3.2583   -1.5678 H   0  0  0  0  0  0  0  0  0  0  0  0
    2.7324   -3.9005    0.8229 H   0  0  0  0  0  0  0  0  0  0  0  0
    4.3477   -3.3792    0.3416 H   0  0  0  0  0  0  0  0  0  0  0  0
    4.0025    0.0744    1.8297 H   0  0  0  0  0  0  0  0  0  0  0  0
    5.1671   -0.9824    1.0484 H   0  0  0  0  0  0  0  0  0  0  0  0
    1.3582   -2.3075    2.4388 H   0  0  0  0  0  0  0  0  0  0  0  0
    1.7432   -0.6007    2.3357 H   0  0  0  0  0  0  0  0  0  0  0  0
    4.6605   -1.6745   -1.4824 H   0  0  0  0  0  0  0  0  0  0  0  0
    3.2685   -0.9025   -2.2323 H   0  0  0  0  0  0  0  0  0  0  0  0
    0.7535   -2.3855   -2.6287 H   0  0  0  0  0  0  0  0  0  0  0  0
   -1.5019   -1.5230   -2.3980 H   0  0  0  0  0  0  0  0  0  0  0  0
    4.0911    1.7761    1.2495 H   0  0  0  0  0  0  0  0  0  0  0  0
    3.0245    3.6127   -0.7884 H   0  0  0  0  0  0  0  0  0  0  0  0
   -3.8180   -2.1395    0.3744 H   0  0  0  0  0  0  0  0  0  0  0  0
    5.0058    5.0879   -0.5103 H   0  0  0  0  0  0  0  0  0  0  0  0
    5.7792    3.8713    0.5237 H   0  0  0  0  0  0  0  0  0  0  0  0
    5.4720    3.5157   -1.1791 H   0  0  0  0  0  0  0  0  0  0  0  0
    2.1076    3.7877    1.5080 H   0  0  0  0  0  0  0  0  0  0  0  0
    2.9980    5.2555    1.0663 H   0  0  0  0  0  0  0  0  0  0  0  0
    3.7281    4.0619    2.1570 H   0  0  0  0  0  0  0  0  0  0  0  0
   -6.5890   -1.5053    0.7116 H   0  0  0  0  0  0  0  0  0  0  0  0
   -5.2815    3.1043   -0.6378 H   0  0  0  0  0  0  0  0  0  0  0  0
   -8.2855    0.2859    0.5781 H   0  0  0  0  0  0  0  0  0  0  0  0
   -7.6391    2.5743   -0.0912 H   0  0  0  0  0  0  0  0  0  0  0  0
  1 19  1  0  0  0  0
  1 25  1  0  0  0  0
  2 15  2  0  0  0  0
  3 16  2  0  0  0  0
  4 10  1  0  0  0  0
  4 12  1  0  0  0  0
  4 16  1  0  0  0  0
  5 11  1  0  0  0  0
  5 13  1  0  0  0  0
  5 15  1  0  0  0  0
  6 16  1  0  0  0  0
  6 20  1  0  0  0  0
  6 42  1  0  0  0  0
  7  9  1  0  0  0  0
  7 10  1  0  0  0  0
  7 11  1  0  0  0  0
  7 30  1  0  0  0  0
  8  9  1  0  0  0  0
  8 12  1  0  0  0  0
  8 13  1  0  0  0  0
  8 31  1  0  0  0  0
  9 32  1  0  0  0  0
  9 33  1  0  0  0  0
 10 34  1  0  0  0  0
 10 35  1  0  0  0  0
 11 36  1  0  0  0  0
 11 37  1  0  0  0  0
 12 38  1  0  0  0  0
 12 39  1  0  0  0  0
 13 14  2  0  0  0  0
 14 18  1  0  0  0  0
 14 40  1  0  0  0  0
 15 17  1  0  0  0  0
 17 18  2  0  0  0  0
 17 19  1  0  0  0  0
 18 41  1  0  0  0  0
 19 21  2  0  0  0  0
 20 22  1  0  0  0  0
 20 23  1  0  0  0  0
 20 43  1  0  0  0  0
 21 24  1  0  0  0  0
 21 44  1  0  0  0  0
 22 45  1  0  0  0  0
 22 46  1  0  0  0  0
 22 47  1  0  0  0  0
 23 48  1  0  0  0  0
 23 49  1  0  0  0  0
 23 50  1  0  0  0  0
 24 25  1  0  0  0  0
 24 26  2  0  0  0  0
 25 27  2  0  0  0  0
 26 28  1  0  0  0  0
 26 51  1  0  0  0  0
 27 29  1  0  0  0  0
 27 52  1  0  0  0  0
 28 29  2  0  0  0  0
 28 53  1  0  0  0  0
 29 54  1  0  0  0  0
M  END
> <PUBCHEM_COMPOUND_CID>
7672458

> <PUBCHEM_CONFORMER_RMSD>
0.8

> <PUBCHEM_CONFORMER_DIVERSEORDER>
1
12
7
5
10
3
6
8
9
11
2
4

> <PUBCHEM_MMFF94_PARTIAL_CHARGES>
32
1 -0.08
10 0.3
11 0.3
12 0.3
13 -0.03
14 -0.15
15 0.62
16 0.69
17 0.06
18 -0.15
19 -0.01
2 -0.57
20 0.3
21 -0.15
25 0.04
26 -0.15
27 -0.15
28 -0.15
29 -0.15
3 -0.57
4 -0.66
40 0.15
41 0.15
42 0.37
44 0.15
5 -0.47
51 0.15
52 0.15
53 0.15
54 0.15
6 -0.73
8 0.14

> <PUBCHEM_EFFECTIVE_ROTOR_COUNT>
5

> <PUBCHEM_PHARMACOPHORE_FEATURES>
9
1 2 acceptor
1 3 acceptor
1 6 donor
3 20 22 23 hydrophobe
5 1 19 21 24 25 rings
6 24 25 26 27 28 29 rings
6 4 7 8 9 10 12 rings
6 5 13 14 15 17 18 rings
6 5 7 8 9 11 13 rings

> <PUBCHEM_HEAVY_ATOM_COUNT>
29

> <PUBCHEM_ATOM_DEF_STEREO_COUNT>
2

> <PUBCHEM_ATOM_UDEF_STEREO_COUNT>
0

> <PUBCHEM_BOND_DEF_STEREO_COUNT>
0

> <PUBCHEM_BOND_UDEF_STEREO_COUNT>
0

> <PUBCHEM_ISOTOPIC_ATOM_COUNT>
0

> <PUBCHEM_COMPONENT_COUNT>
1

> <PUBCHEM_CACTVS_TAUTO_COUNT>
2

> <PUBCHEM_CONFORMER_ID>
0075128A00000001

> <PUBCHEM_MMFF94_ENERGY>
69.2535

> <PUBCHEM_FEATURE_SELFOVERLAP>
47.284

> <PUBCHEM_SHAPE_FINGERPRINT>
10673678 19 18201442505930842697
10675989 125 18272091655528624576
11578080 2 17677351505095483202
11720765 8 17775018869151385844
11796584 16 8718534048027289513
12166972 35 18129943352051781546
12236239 1 17168435840342674119
12633257 1 15937526143022197980
12788726 201 17346329197327201937
13533116 47 17313669222568683035
13878862 14 18189877782526980661
13944108 23 18409736123544239060
14251764 75 18266741479229085076
14739800 52 18334852835855890409
14844126 61 8900140877661635212
14849402 71 18113897174441202976
15439362 3 18268431408022406412
17844677 252 18337394812629641211
17980427 23 17984670490539402194
1813 80 14692567693987600899
18335252 114 18343018865865696644
21285901 2 12607402174110305858
21315764 268 18261951826558475709
21344244 78 18120638155540325658
21365058 113 17984438351493279886
21641784 216 17060066891607932001
22122407 14 18339371781755052273
23559900 14 18269560438032545487
23569914 2 17537390225312322253
25269216 80 15409748437335035477
2838139 119 18411696625210096421
3298306 158 18196371635344484776
3411729 13 18408885169735756957
34797466 226 18201165390736379991
376196 1 17841712113223605372
397830 11 18261120707732556059
4112364 45 18341036519500026744
5104073 3 18260274019291050169
57091435 61 18335701710092851840
5951187 136 18202010962201617492
59682541 52 9295285011576826353
7288768 16 17825098475078742888
9849439 229 18046068426330172212

> <PUBCHEM_SHAPE_MULTIPOLES>
573.97
15.21
4.23
1.47
26.04
4.86
-0.09
9.91
-0.74
-8.2
-0.28
-1.36
-0.53
-0.05

> <PUBCHEM_SHAPE_SELFOVERLAP>
1245.065

> <PUBCHEM_SHAPE_VOLUME>
315.5

> <PUBCHEM_COORDINATE_TYPE>
2
5
10

$$$$
