28962709
  -OEChem-12032416273D

 77 79  0     1  0  0  0  0  0999 V2000
   -1.4210   -1.6860   -0.8305 O   0  0  0  0  0  0  0  0  0  0  0  0
   -5.8920    1.0640   -0.5565 O   0  0  0  0  0  0  0  0  0  0  0  0
    4.7883    0.2224    1.4916 O   0  0  0  0  0  0  0  0  0  0  0  0
    3.5626    0.4072   -0.4785 N   0  0  0  0  0  0  0  0  0  0  0  0
   -5.8663   -0.9483    0.5855 N   0  0  0  0  0  0  0  0  0  0  0  0
   -0.4427    1.9025    0.0303 C   0  0  1  0  0  0  0  0  0  0  0  0
   -0.2790    0.3559   -0.1439 C   0  0  2  0  0  0  0  0  0  0  0  0
    1.1247    0.0080   -0.7574 C   0  0  1  0  0  0  0  0  0  0  0  0
   -1.5022   -0.2609   -0.8815 C   0  0  2  0  0  0  0  0  0  0  0  0
   -1.7847    2.2027    0.7389 C   0  0  0  0  0  0  0  0  0  0  0  0
    0.6951    2.4313    0.9339 C   0  0  0  0  0  0  0  0  0  0  0  0
   -2.8488    0.1287   -0.2285 C   0  0  1  0  0  0  0  0  0  0  0  0
    2.2594    0.6090    0.1191 C   0  0  2  0  0  0  0  0  0  0  0  0
   -2.9880    1.6340   -0.0015 C   0  0  0  0  0  0  0  0  0  0  0  0
    2.0826    2.1005    0.4029 C   0  0  0  0  0  0  0  0  0  0  0  0
   -0.4137    2.6590   -1.3220 C   0  0  0  0  0  0  0  0  0  0  0  0
   -4.0445   -0.3791   -1.0436 C   0  0  2  0  0  0  0  0  0  0  0  0
    1.3645   -1.5015   -0.9297 C   0  0  0  0  0  0  0  0  0  0  0  0
   -4.0027    0.2325   -2.4450 C   0  0  0  0  0  0  0  0  0  0  0  0
   -5.3492   -0.0225   -0.3269 C   0  0  0  0  0  0  0  0  0  0  0  0
    4.7149    0.2313    0.2656 C   0  0  0  0  0  0  0  0  0  0  0  0
    5.9216    0.0181   -0.6018 C   0  0  0  0  0  0  0  0  0  0  0  0
    7.1818    0.5759    0.0630 C   0  0  0  0  0  0  0  0  0  0  0  0
    6.0515   -1.4615   -0.9691 C   0  0  0  0  0  0  0  0  0  0  0  0
    7.7175   -0.3083    1.1887 C   0  0  0  0  0  0  0  0  0  0  0  0
    6.5843   -2.3184    0.1781 C   0  0  0  0  0  0  0  0  0  0  0  0
   -7.0967   -0.6295    1.3018 C   0  0  0  0  0  0  0  0  0  0  0  0
   -5.3080   -2.2647    0.8878 C   0  0  0  0  0  0  0  0  0  0  0  0
    7.8835   -1.7566    0.7437 C   0  0  0  0  0  0  0  0  0  0  0  0
   -6.8099    0.0866    2.6053 C   0  0  0  0  0  0  0  0  0  0  0  0
   -5.8828   -3.3325   -0.0199 C   0  0  0  0  0  0  0  0  0  0  0  0
   -0.2760   -0.0904    0.8636 H   0  0  0  0  0  0  0  0  0  0  0  0
    1.1903    0.4440   -1.7623 H   0  0  0  0  0  0  0  0  0  0  0  0
   -1.4415    0.0304   -1.9315 H   0  0  0  0  0  0  0  0  0  0  0  0
   -1.9166    3.2856    0.8605 H   0  0  0  0  0  0  0  0  0  0  0  0
   -1.7682    1.7816    1.7533 H   0  0  0  0  0  0  0  0  0  0  0  0
    0.5977    2.0007    1.9396 H   0  0  0  0  0  0  0  0  0  0  0  0
    0.6089    3.5185    1.0567 H   0  0  0  0  0  0  0  0  0  0  0  0
   -2.8904   -0.3503    0.7601 H   0  0  0  0  0  0  0  0  0  0  0  0
    2.2552    0.0843    1.0846 H   0  0  0  0  0  0  0  0  0  0  0  0
   -3.8633    1.8521    0.6204 H   0  0  0  0  0  0  0  0  0  0  0  0
   -3.1173    2.2007   -0.9250 H   0  0  0  0  0  0  0  0  0  0  0  0
    2.2889    2.6848   -0.5021 H   0  0  0  0  0  0  0  0  0  0  0  0
    2.8295    2.4296    1.1371 H   0  0  0  0  0  0  0  0  0  0  0  0
    0.5397    2.5553   -1.8461 H   0  0  0  0  0  0  0  0  0  0  0  0
   -0.5765    3.7321   -1.1663 H   0  0  0  0  0  0  0  0  0  0  0  0
   -1.1863    2.3107   -2.0131 H   0  0  0  0  0  0  0  0  0  0  0  0
   -3.9850   -1.4618   -1.1807 H   0  0  0  0  0  0  0  0  0  0  0  0
    1.1556   -2.0454   -0.0028 H   0  0  0  0  0  0  0  0  0  0  0  0
    2.3975   -1.7218   -1.2170 H   0  0  0  0  0  0  0  0  0  0  0  0
    0.7457   -1.9103   -1.7333 H   0  0  0  0  0  0  0  0  0  0  0  0
    3.6264    0.4486   -1.4916 H   0  0  0  0  0  0  0  0  0  0  0  0
   -1.4258   -1.9557    0.1037 H   0  0  0  0  0  0  0  0  0  0  0  0
   -4.0368    1.3234   -2.4720 H   0  0  0  0  0  0  0  0  0  0  0  0
   -4.8931   -0.0962   -2.9976 H   0  0  0  0  0  0  0  0  0  0  0  0
   -3.1502   -0.1113   -3.0356 H   0  0  0  0  0  0  0  0  0  0  0  0
    5.7705    0.5881   -1.5288 H   0  0  0  0  0  0  0  0  0  0  0  0
    7.9644    0.6721   -0.7011 H   0  0  0  0  0  0  0  0  0  0  0  0
    6.9997    1.5855    0.4508 H   0  0  0  0  0  0  0  0  0  0  0  0
    5.0897   -1.8677   -1.3044 H   0  0  0  0  0  0  0  0  0  0  0  0
    6.7410   -1.5514   -1.8186 H   0  0  0  0  0  0  0  0  0  0  0  0
    7.0665   -0.2660    2.0674 H   0  0  0  0  0  0  0  0  0  0  0  0
    8.6895    0.0806    1.5154 H   0  0  0  0  0  0  0  0  0  0  0  0
    6.7522   -3.3412   -0.1784 H   0  0  0  0  0  0  0  0  0  0  0  0
    5.8332   -2.3818    0.9745 H   0  0  0  0  0  0  0  0  0  0  0  0
   -7.7224    0.0144    0.6734 H   0  0  0  0  0  0  0  0  0  0  0  0
   -7.6666   -1.5473    1.4838 H   0  0  0  0  0  0  0  0  0  0  0  0
   -4.2206   -2.2447    0.7834 H   0  0  0  0  0  0  0  0  0  0  0  0
   -5.5116   -2.5084    1.9368 H   0  0  0  0  0  0  0  0  0  0  0  0
    8.6710   -1.8180   -0.0174 H   0  0  0  0  0  0  0  0  0  0  0  0
    8.2118   -2.3677    1.5920 H   0  0  0  0  0  0  0  0  0  0  0  0
   -6.2026   -0.5325    3.2735 H   0  0  0  0  0  0  0  0  0  0  0  0
   -6.2646    1.0203    2.4317 H   0  0  0  0  0  0  0  0  0  0  0  0
   -7.7442    0.3284    3.1212 H   0  0  0  0  0  0  0  0  0  0  0  0
   -6.9667   -3.4205    0.1063 H   0  0  0  0  0  0  0  0  0  0  0  0
   -5.6916   -3.1091   -1.0743 H   0  0  0  0  0  0  0  0  0  0  0  0
   -5.4366   -4.3054    0.2083 H   0  0  0  0  0  0  0  0  0  0  0  0
  1  9  1  0  0  0  0
  1 53  1  0  0  0  0
  2 20  2  0  0  0  0
  3 21  2  0  0  0  0
  4 13  1  0  0  0  0
  4 21  1  0  0  0  0
  4 52  1  0  0  0  0
  5 20  1  0  0  0  0
  5 27  1  0  0  0  0
  5 28  1  0  0  0  0
  6  7  1  0  0  0  0
  6 10  1  0  0  0  0
  6 11  1  0  0  0  0
  6 16  1  0  0  0  0
  7  8  1  0  0  0  0
  7  9  1  0  0  0  0
  7 32  1  0  0  0  0
  8 13  1  0  0  0  0
  8 18  1  0  0  0  0
  8 33  1  0  0  0  0
  9 12  1  0  0  0  0
  9 34  1  0  0  0  0
 10 14  1  0  0  0  0
 10 35  1  0  0  0  0
 10 36  1  0  0  0  0
 11 15  1  0  0  0  0
 11 37  1  0  0  0  0
 11 38  1  0  0  0  0
 12 14  1  0  0  0  0
 12 17  1  0  0  0  0
 12 39  1  0  0  0  0
 13 15  1  0  0  0  0
 13 40  1  0  0  0  0
 14 41  1  0  0  0  0
 14 42  1  0  0  0  0
 15 43  1  0  0  0  0
 15 44  1  0  0  0  0
 16 45  1  0  0  0  0
 16 46  1  0  0  0  0
 16 47  1  0  0  0  0
 17 19  1  0  0  0  0
 17 20  1  0  0  0  0
 17 48  1  0  0  0  0
 18 49  1  0  0  0  0
 18 50  1  0  0  0  0
 18 51  1  0  0  0  0
 19 54  1  0  0  0  0
 19 55  1  0  0  0  0
 19 56  1  0  0  0  0
 21 22  1  0  0  0  0
 22 23  1  0  0  0  0
 22 24  1  0  0  0  0
 22 57  1  0  0  0  0
 23 25  1  0  0  0  0
 23 58  1  0  0  0  0
 23 59  1  0  0  0  0
 24 26  1  0  0  0  0
 24 60  1  0  0  0  0
 24 61  1  0  0  0  0
 25 29  1  0  0  0  0
 25 62  1  0  0  0  0
 25 63  1  0  0  0  0
 26 29  1  0  0  0  0
 26 64  1  0  0  0  0
 26 65  1  0  0  0  0
 27 30  1  0  0  0  0
 27 66  1  0  0  0  0
 27 67  1  0  0  0  0
 28 31  1  0  0  0  0
 28 68  1  0  0  0  0
 28 69  1  0  0  0  0
 29 70  1  0  0  0  0
 29 71  1  0  0  0  0
 30 72  1  0  0  0  0
 30 73  1  0  0  0  0
 30 74  1  0  0  0  0
 31 75  1  0  0  0  0
 31 76  1  0  0  0  0
 31 77  1  0  0  0  0
M  END
> <PUBCHEM_COMPOUND_CID>
28962709

> <PUBCHEM_CONFORMER_RMSD>
1

> <PUBCHEM_CONFORMER_DIVERSEORDER>
1
70
49
114
54
67
109
27
22
13
119
16
102
128
113
28
37
86
99
76
6
56
112
73
74
9
7
47
48
39
32
82
14
30
108
127
115
25
91
45
120
110
83
129
8
62
69
125
43
124
2
68
57
87
105
23
66
85
31
118
5
64
34
17
78
96
55
79
72
84
61
36
21
97
38
10
107
80
117
59
40
51
4
11
58
29
44
94
12
122
53
104
106
103
100
46
18
98
63
126
95
116
123
65
35
77
121
41
20
88
92
50
60
52
24
15
111
81
26
75
19
33
42
90
89
71
3
101
93

> <PUBCHEM_MMFF94_PARTIAL_CHARGES>
15
1 -0.68
13 0.3
17 0.06
2 -0.57
20 0.57
21 0.57
22 0.06
27 0.3
28 0.3
3 -0.57
4 -0.73
5 -0.66
52 0.37
53 0.4
9 0.28

> <PUBCHEM_EFFECTIVE_ROTOR_COUNT>
10.8

> <PUBCHEM_PHARMACOPHORE_FEATURES>
9
1 1 acceptor
1 1 donor
1 19 hydrophobe
1 2 acceptor
1 3 acceptor
1 4 donor
6 22 23 24 25 26 29 rings
6 6 7 8 11 13 15 rings
6 6 7 9 10 12 14 rings

> <PUBCHEM_HEAVY_ATOM_COUNT>
31

> <PUBCHEM_ATOM_DEF_STEREO_COUNT>
7

> <PUBCHEM_ATOM_UDEF_STEREO_COUNT>
0

> <PUBCHEM_BOND_DEF_STEREO_COUNT>
0

> <PUBCHEM_BOND_UDEF_STEREO_COUNT>
0

> <PUBCHEM_ISOTOPIC_ATOM_COUNT>
0

> <PUBCHEM_COMPONENT_COUNT>
1

> <PUBCHEM_CACTVS_TAUTO_COUNT>
2

> <PUBCHEM_CONFORMER_ID>
01B9EF9500000001

> <PUBCHEM_MMFF94_ENERGY>
76.1815

> <PUBCHEM_FEATURE_SELFOVERLAP>
45.685

> <PUBCHEM_SHAPE_FINGERPRINT>
10554248 39 11097847489677682184
11007060 377 8574422132584761813
11135926 11 18334850585425272887
11646440 116 17847063294054277264
11963148 33 18335693949520120866
12120059 9 18192121928587760614
12166972 35 17676211294468497260
12236239 1 18187644679222840340
13668630 136 17676488324517721394
13673619 4 17822010943370104605
13685833 64 18412262839929194112
13782708 43 17968090971150664435
14251764 18 17846777404236190904
14767858 380 12396298170723167295
14849402 71 17560517438362683264
14955137 171 18341051921152509917
15131766 46 12821854286001130650
15142383 8 12895070704980139890
15183329 4 15410897366302409546
15352257 5 18259987076183421522
15461852 350 8070018961671916553
18335252 98 18409732864127323208
18608769 82 18410009953056688610
21130935 74 18272372035193040123
21150785 3 13551473678525141689
21267235 1 18413111645768296012
21424621 283 11312055448390755364
21792934 111 18202276996406966841
21792961 116 18114736045556479125
22122407 14 13470402344293388370
22149856 69 17846226510382531416
23522609 53 18123221079878791085
23559900 14 18341319097998677360
23576562 1 9582932663123655595
312425 54 16486968505743771646
3178227 256 18341901804743092418
335352 9 18272927237304989157
3383291 50 18409446998908917042
3711267 37 11527654350572214666
4093350 32 15267070199076094806
4169191 19 10303819778252356283
465052 167 18411139156199109172
4938544 92 13686291383829861637
5104073 3 17987242123112779258
58083652 198 17989194971686180769
6328613 192 9943518618365843574
636775 8 18339652157731876846
6691757 9 15626222459790978255
999808 66 18333735723483673595

> <PUBCHEM_SHAPE_MULTIPOLES>
610.4
22.36
2.73
1.55
17.68
0.44
-0.14
14.2
-8.18
-1.32
-0.12
-2.1
-0.07
0.52

> <PUBCHEM_SHAPE_SELFOVERLAP>
1242.088

> <PUBCHEM_SHAPE_VOLUME>
349.7

> <PUBCHEM_COORDINATE_TYPE>
2
5
10

$$$$
