45361595
  -OEChem-12032416313D

 72 74  0     1  0  0  0  0  0999 V2000
   -0.8702   -0.6348   -1.9024 O   0  0  0  0  0  0  0  0  0  0  0  0
   -5.2142    1.6206   -0.0453 O   0  0  0  0  0  0  0  0  0  0  0  0
    5.3073   -0.8732    1.1196 O   0  0  0  0  0  0  0  0  0  0  0  0
    7.6014   -1.9090   -0.2473 O   0  0  0  0  0  0  0  0  0  0  0  0
    4.1819    0.5393   -0.3404 N   0  0  0  0  0  0  0  0  0  0  0  0
   -5.2337   -0.6904   -0.2842 N   0  0  0  0  0  0  0  0  0  0  0  0
    0.2278    1.6294    0.9688 C   0  0  1  0  0  0  0  0  0  0  0  0
    0.3324    0.5023   -0.1119 C   0  0  2  0  0  0  0  0  0  0  0  0
    1.7404    0.5245   -0.8083 C   0  0  1  0  0  0  0  0  0  0  0  0
   -0.8898    0.5288   -1.0743 C   0  0  2  0  0  0  0  0  0  0  0  0
   -1.1237    1.5082    1.7116 C   0  0  0  0  0  0  0  0  0  0  0  0
   -2.2403    0.5125   -0.3210 C   0  0  1  0  0  0  0  0  0  0  0  0
    1.3554    1.4367    2.0090 C   0  0  0  0  0  0  0  0  0  0  0  0
    2.8687    0.4056    0.2545 C   0  0  2  0  0  0  0  0  0  0  0  0
   -2.3239    1.5734    0.7763 C   0  0  0  0  0  0  0  0  0  0  0  0
    2.7450    1.4231    1.3884 C   0  0  0  0  0  0  0  0  0  0  0  0
    0.3344    3.0497    0.3579 C   0  0  0  0  0  0  0  0  0  0  0  0
   -3.4278    0.6710   -1.2784 C   0  0  2  0  0  0  0  0  0  0  0  0
    1.9224   -0.5786   -1.8646 C   0  0  0  0  0  0  0  0  0  0  0  0
   -3.3630    1.9953   -2.0171 C   0  0  0  0  0  0  0  0  0  0  0  0
   -4.7048    0.5848   -0.4809 C   0  0  0  0  0  0  0  0  0  0  0  0
    5.2981   -0.1194    0.1502 C   0  0  0  0  0  0  0  0  0  0  0  0
   -6.4707   -0.8563    0.4819 C   0  0  0  0  0  0  0  0  0  0  0  0
   -4.6750   -1.9351   -0.8270 C   0  0  0  0  0  0  0  0  0  0  0  0
    6.5379    0.2035   -0.6686 C   0  0  0  0  0  0  0  0  0  0  0  0
   -6.2785   -1.8566    1.6186 C   0  0  0  0  0  0  0  0  0  0  0  0
   -4.4493   -2.9576    0.2848 C   0  0  0  0  0  0  0  0  0  0  0  0
   -5.7216   -3.1816    1.1005 C   0  0  0  0  0  0  0  0  0  0  0  0
    7.7857   -0.5020   -0.1601 C   0  0  0  0  0  0  0  0  0  0  0  0
    8.7475   -2.6141    0.2094 C   0  0  0  0  0  0  0  0  0  0  0  0
    0.2824   -0.4644    0.4148 H   0  0  0  0  0  0  0  0  0  0  0  0
    1.8583    1.4777   -1.3390 H   0  0  0  0  0  0  0  0  0  0  0  0
   -0.7886    1.3958   -1.7303 H   0  0  0  0  0  0  0  0  0  0  0  0
   -1.1595    0.5566    2.2592 H   0  0  0  0  0  0  0  0  0  0  0  0
   -1.2142    2.2988    2.4677 H   0  0  0  0  0  0  0  0  0  0  0  0
   -2.3315   -0.4672    0.1696 H   0  0  0  0  0  0  0  0  0  0  0  0
    1.3107    2.2273    2.7689 H   0  0  0  0  0  0  0  0  0  0  0  0
    1.2059    0.4890    2.5437 H   0  0  0  0  0  0  0  0  0  0  0  0
    2.8082   -0.5970    0.7000 H   0  0  0  0  0  0  0  0  0  0  0  0
   -3.2094    1.4179    1.4027 H   0  0  0  0  0  0  0  0  0  0  0  0
   -2.3972    2.5895    0.3838 H   0  0  0  0  0  0  0  0  0  0  0  0
    3.4795    1.1968    2.1722 H   0  0  0  0  0  0  0  0  0  0  0  0
    3.0063    2.4254    1.0274 H   0  0  0  0  0  0  0  0  0  0  0  0
    1.3001    3.2354   -0.1190 H   0  0  0  0  0  0  0  0  0  0  0  0
    0.2109    3.8132    1.1350 H   0  0  0  0  0  0  0  0  0  0  0  0
   -0.4277    3.2360   -0.4039 H   0  0  0  0  0  0  0  0  0  0  0  0
   -3.4116   -0.0815   -2.0686 H   0  0  0  0  0  0  0  0  0  0  0  0
    1.6587   -1.5619   -1.4619 H   0  0  0  0  0  0  0  0  0  0  0  0
    2.9548   -0.6342   -2.2246 H   0  0  0  0  0  0  0  0  0  0  0  0
    1.3152   -0.3793   -2.7520 H   0  0  0  0  0  0  0  0  0  0  0  0
    4.2931    1.1932   -1.1103 H   0  0  0  0  0  0  0  0  0  0  0  0
   -0.9174   -1.4166   -1.3262 H   0  0  0  0  0  0  0  0  0  0  0  0
   -3.3639    2.8794   -1.3753 H   0  0  0  0  0  0  0  0  0  0  0  0
   -4.2503    2.0978   -2.6559 H   0  0  0  0  0  0  0  0  0  0  0  0
   -2.5051    2.0597   -2.6916 H   0  0  0  0  0  0  0  0  0  0  0  0
   -6.8100    0.1020    0.8875 H   0  0  0  0  0  0  0  0  0  0  0  0
   -7.2412   -1.2092   -0.2138 H   0  0  0  0  0  0  0  0  0  0  0  0
   -5.3964   -2.3197   -1.5577 H   0  0  0  0  0  0  0  0  0  0  0  0
   -3.7294   -1.8034   -1.3481 H   0  0  0  0  0  0  0  0  0  0  0  0
    6.3372   -0.1038   -1.7022 H   0  0  0  0  0  0  0  0  0  0  0  0
    6.6935    1.2880   -0.6525 H   0  0  0  0  0  0  0  0  0  0  0  0
   -7.2316   -2.0273    2.1309 H   0  0  0  0  0  0  0  0  0  0  0  0
   -5.5823   -1.4390    2.3567 H   0  0  0  0  0  0  0  0  0  0  0  0
   -3.6539   -2.6019    0.9515 H   0  0  0  0  0  0  0  0  0  0  0  0
   -4.1120   -3.9073   -0.1449 H   0  0  0  0  0  0  0  0  0  0  0  0
   -5.5113   -3.8513    1.9417 H   0  0  0  0  0  0  0  0  0  0  0  0
   -6.4751   -3.6758    0.4751 H   0  0  0  0  0  0  0  0  0  0  0  0
    7.9806   -0.2222    0.8820 H   0  0  0  0  0  0  0  0  0  0  0  0
    8.6459   -0.2064   -0.7716 H   0  0  0  0  0  0  0  0  0  0  0  0
    9.6198   -2.3669   -0.4035 H   0  0  0  0  0  0  0  0  0  0  0  0
    8.9467   -2.3828    1.2602 H   0  0  0  0  0  0  0  0  0  0  0  0
    8.5506   -3.6858    0.1196 H   0  0  0  0  0  0  0  0  0  0  0  0
  1 10  1  0  0  0  0
  1 52  1  0  0  0  0
  2 21  2  0  0  0  0
  3 22  2  0  0  0  0
  4 29  1  0  0  0  0
  4 30  1  0  0  0  0
  5 14  1  0  0  0  0
  5 22  1  0  0  0  0
  5 51  1  0  0  0  0
  6 21  1  0  0  0  0
  6 23  1  0  0  0  0
  6 24  1  0  0  0  0
  7  8  1  0  0  0  0
  7 11  1  0  0  0  0
  7 13  1  0  0  0  0
  7 17  1  0  0  0  0
  8  9  1  0  0  0  0
  8 10  1  0  0  0  0
  8 31  1  0  0  0  0
  9 14  1  0  0  0  0
  9 19  1  0  0  0  0
  9 32  1  0  0  0  0
 10 12  1  0  0  0  0
 10 33  1  0  0  0  0
 11 15  1  0  0  0  0
 11 34  1  0  0  0  0
 11 35  1  0  0  0  0
 12 15  1  0  0  0  0
 12 18  1  0  0  0  0
 12 36  1  0  0  0  0
 13 16  1  0  0  0  0
 13 37  1  0  0  0  0
 13 38  1  0  0  0  0
 14 16  1  0  0  0  0
 14 39  1  0  0  0  0
 15 40  1  0  0  0  0
 15 41  1  0  0  0  0
 16 42  1  0  0  0  0
 16 43  1  0  0  0  0
 17 44  1  0  0  0  0
 17 45  1  0  0  0  0
 17 46  1  0  0  0  0
 18 20  1  0  0  0  0
 18 21  1  0  0  0  0
 18 47  1  0  0  0  0
 19 48  1  0  0  0  0
 19 49  1  0  0  0  0
 19 50  1  0  0  0  0
 20 53  1  0  0  0  0
 20 54  1  0  0  0  0
 20 55  1  0  0  0  0
 22 25  1  0  0  0  0
 23 26  1  0  0  0  0
 23 56  1  0  0  0  0
 23 57  1  0  0  0  0
 24 27  1  0  0  0  0
 24 58  1  0  0  0  0
 24 59  1  0  0  0  0
 25 29  1  0  0  0  0
 25 60  1  0  0  0  0
 25 61  1  0  0  0  0
 26 28  1  0  0  0  0
 26 62  1  0  0  0  0
 26 63  1  0  0  0  0
 27 28  1  0  0  0  0
 27 64  1  0  0  0  0
 27 65  1  0  0  0  0
 28 66  1  0  0  0  0
 28 67  1  0  0  0  0
 29 68  1  0  0  0  0
 29 69  1  0  0  0  0
 30 70  1  0  0  0  0
 30 71  1  0  0  0  0
 30 72  1  0  0  0  0
M  END
> <PUBCHEM_COMPOUND_CID>
45361595

> <PUBCHEM_CONFORMER_RMSD>
1

> <PUBCHEM_CONFORMER_DIVERSEORDER>
1
40
30
72
50
82
66
92
22
73
81
44
43
41
88
21
83
27
57
45
39
15
54
75
91
59
31
25
6
53
52
63
69
51
12
23
84
29
17
79
62
85
68
7
77
70
61
80
42
86
38
33
78
14
24
65
20
48
55
76
89
4
60
32
47
26
58
56
36
87
35
74
8
64
49
3
46
67
34
10
19
90
71
16
37
2
9
5
28
13
11
18

> <PUBCHEM_MMFF94_PARTIAL_CHARGES>
18
1 -0.68
10 0.28
14 0.3
18 0.06
2 -0.57
21 0.57
22 0.57
23 0.3
24 0.3
25 0.06
29 0.28
3 -0.57
30 0.28
4 -0.56
5 -0.73
51 0.37
52 0.4
6 -0.66

> <PUBCHEM_EFFECTIVE_ROTOR_COUNT>
10.8

> <PUBCHEM_PHARMACOPHORE_FEATURES>
10
1 1 acceptor
1 1 donor
1 2 acceptor
1 20 hydrophobe
1 3 acceptor
1 4 acceptor
1 5 donor
6 6 23 24 26 27 28 rings
6 7 8 10 11 12 15 rings
6 7 8 9 13 14 16 rings

> <PUBCHEM_HEAVY_ATOM_COUNT>
30

> <PUBCHEM_ATOM_DEF_STEREO_COUNT>
6

> <PUBCHEM_ATOM_UDEF_STEREO_COUNT>
1

> <PUBCHEM_BOND_DEF_STEREO_COUNT>
0

> <PUBCHEM_BOND_UDEF_STEREO_COUNT>
0

> <PUBCHEM_ISOTOPIC_ATOM_COUNT>
0

> <PUBCHEM_COMPONENT_COUNT>
1

> <PUBCHEM_CACTVS_TAUTO_COUNT>
2

> <PUBCHEM_CONFORMER_ID>
02B429BB00000001

> <PUBCHEM_MMFF94_ENERGY>
78.6012

> <PUBCHEM_FEATURE_SELFOVERLAP>
50.763

> <PUBCHEM_SHAPE_FINGERPRINT>
11646440 116 16845575318570317746
117089 54 17389396127838684107
12035758 1 16917072170099248564
12166972 35 18187367657705508692
12422481 6 16702313372824004445
13140716 1 17130693075513309780
13383668 90 17531527577176819846
13673619 4 18336547217903069809
13690498 29 18040710385887219037
13782708 43 18336259132544338150
14211702 104 18272377421683552534
14251751 18 18335985380351309971
14767858 380 14562525193626533150
14856354 85 18408322173102042205
14950920 106 17630334258448027531
14955137 171 18201435938609940353
15183329 4 15936406745579647872
15230672 131 18261665957260950723
15238133 3 13254805684406722120
15352257 5 18409449185215834858
15510800 12 18059869320647163526
17686467 74 18343295973715826712
18335252 98 18336829809898247160
20505436 4 16662040315341875725
20982279 24 18129401327939351182
21095123 293 10519685819131257282
21150785 3 16877944958034988766
21267235 1 17775288253531140716
21781051 124 18130518483292188182
21792961 116 18341325587514621572
21927370 108 17346325865281464536
22122407 14 11599430464805460530
23522609 53 15625383600695532272
23559900 14 18191017005860269957
23569943 247 15840720556540484470
23576562 1 11531068307557062378
2838139 119 9799690385354902539
3178227 256 17775289387154340162
3383291 50 17988921163558532774
392239 28 17560805480554729087
4107672 100 17968090880935161869
4169191 19 10881396517746629790
437795 83 12107776402458100606
465052 167 18273216417774534788
5104073 3 17917993901210847920
57527293 21 18055644064991146895
6009941 240 18271247119419316129
636775 8 18341341016192605366
6376802 90 18120091676095180165
7495541 125 18338517555303361909
8863177 126 18268989963227232555
9849439 229 11956968492612255947
999808 66 18272089404954314690

> <PUBCHEM_SHAPE_MULTIPOLES>
583.95
20.38
2.96
1.69
30.56
1.39
0.06
19.79
-1.57
-2.21
-0.81
-0.95
-0.41
1.83

> <PUBCHEM_SHAPE_SELFOVERLAP>
1189.426

> <PUBCHEM_SHAPE_VOLUME>
334.8

> <PUBCHEM_COORDINATE_TYPE>
2
5
10

$$$$
