45360648
  -OEChem-12032416393D

 68 73  0     1  0  0  0  0  0999 V2000
   -5.8461   -2.9413    0.0050 O   0  0  0  0  0  0  0  0  0  0  0  0
    1.9171   -0.9791   -1.9650 O   0  0  0  0  0  0  0  0  0  0  0  0
   -2.4187   -1.7143    0.2700 N   0  0  1  0  0  0  0  0  0  0  0  0
   -4.2353   -2.7680   -1.5910 N   0  0  0  0  0  0  0  0  0  0  0  0
   -3.8822    1.2988    1.6536 N   0  0  0  0  0  0  0  0  0  0  0  0
    2.8670   -1.4390    0.1166 N   0  0  0  0  0  0  0  0  0  0  0  0
   -1.5677    3.5432   -1.2119 N   0  0  0  0  0  0  0  0  0  0  0  0
   -3.6766   -2.2712    0.7835 C   0  0  1  0  0  0  0  0  0  0  0  0
   -3.2542   -0.0092    1.5593 C   0  0  1  0  0  0  0  0  0  0  0  0
   -1.9070   -2.3843   -0.9204 C   0  0  1  0  0  0  0  0  0  0  0  0
   -4.2503   -1.1630    1.6805 C   0  0  0  0  0  0  0  0  0  0  0  0
   -2.5786   -0.2630    0.2187 C   0  0  0  0  0  0  0  0  0  0  0  0
   -2.9303   -2.3460   -2.0446 C   0  0  0  0  0  0  0  0  0  0  0  0
   -0.5613   -1.8250   -1.3838 C   0  0  0  0  0  0  0  0  0  0  0  0
   -4.6813   -2.6641   -0.2957 C   0  0  0  0  0  0  0  0  0  0  0  0
    0.5074   -1.9126   -0.3041 C   0  0  0  0  0  0  0  0  0  0  0  0
   -2.9050    2.3257    1.9927 C   0  0  0  0  0  0  0  0  0  0  0  0
    1.8334   -1.3945   -0.8090 C   0  0  0  0  0  0  0  0  0  0  0  0
   -2.1030    2.7545    0.7928 C   0  0  0  0  0  0  0  0  0  0  0  0
    2.7636   -1.9384    1.5040 C   0  0  0  0  0  0  0  0  0  0  0  0
   -0.6887    2.6865    0.6511 C   0  0  0  0  0  0  0  0  0  0  0  0
    4.1945   -1.0172   -0.1054 C   0  0  0  0  0  0  0  0  0  0  0  0
   -2.6151    3.2854   -0.3687 C   0  0  0  0  0  0  0  0  0  0  0  0
    4.1421   -1.7921    2.1573 C   0  0  0  0  0  0  0  0  0  0  0  0
    4.9559   -1.2078    1.0495 C   0  0  0  0  0  0  0  0  0  0  0  0
   -0.3791    3.1872   -0.6153 C   0  0  0  0  0  0  0  0  0  0  0  0
    0.3610    2.2456    1.4811 C   0  0  0  0  0  0  0  0  0  0  0  0
    4.7684   -0.4813   -1.2491 C   0  0  0  0  0  0  0  0  0  0  0  0
    6.3002   -0.8701    1.0908 C   0  0  0  0  0  0  0  0  0  0  0  0
    0.9330    3.2694   -1.0950 C   0  0  0  0  0  0  0  0  0  0  0  0
   -1.7078    4.1065   -2.5375 C   0  0  0  0  0  0  0  0  0  0  0  0
    6.1239   -0.1384   -1.2162 C   0  0  0  0  0  0  0  0  0  0  0  0
    1.6784    2.3218    1.0147 C   0  0  0  0  0  0  0  0  0  0  0  0
    6.8848   -0.3310   -0.0548 C   0  0  0  0  0  0  0  0  0  0  0  0
    1.9576    2.8262   -0.2539 C   0  0  0  0  0  0  0  0  0  0  0  0
   -3.4655   -3.1722    1.3714 H   0  0  0  0  0  0  0  0  0  0  0  0
   -2.5226   -0.1415    2.3710 H   0  0  0  0  0  0  0  0  0  0  0  0
   -1.7434   -3.4378   -0.6511 H   0  0  0  0  0  0  0  0  0  0  0  0
   -4.3293   -1.4899    2.7238 H   0  0  0  0  0  0  0  0  0  0  0  0
   -5.2508   -0.8521    1.3555 H   0  0  0  0  0  0  0  0  0  0  0  0
   -1.6075    0.2227    0.1469 H   0  0  0  0  0  0  0  0  0  0  0  0
   -3.2109    0.0577   -0.6176 H   0  0  0  0  0  0  0  0  0  0  0  0
   -2.6389   -3.0161   -2.8607 H   0  0  0  0  0  0  0  0  0  0  0  0
   -3.0443   -1.3416   -2.4671 H   0  0  0  0  0  0  0  0  0  0  0  0
   -0.2315   -2.3961   -2.2626 H   0  0  0  0  0  0  0  0  0  0  0  0
   -0.6695   -0.7878   -1.7275 H   0  0  0  0  0  0  0  0  0  0  0  0
   -4.9083   -3.0509   -2.2968 H   0  0  0  0  0  0  0  0  0  0  0  0
   -4.5811    1.2701    2.3968 H   0  0  0  0  0  0  0  0  0  0  0  0
    0.6316   -2.9565    0.0045 H   0  0  0  0  0  0  0  0  0  0  0  0
    0.2208   -1.3211    0.5711 H   0  0  0  0  0  0  0  0  0  0  0  0
   -3.4527    3.2099    2.3443 H   0  0  0  0  0  0  0  0  0  0  0  0
   -2.2640    2.0240    2.8291 H   0  0  0  0  0  0  0  0  0  0  0  0
    2.4399   -2.9848    1.4848 H   0  0  0  0  0  0  0  0  0  0  0  0
    2.0057   -1.3561    2.0397 H   0  0  0  0  0  0  0  0  0  0  0  0
   -3.6350    3.4991   -0.6605 H   0  0  0  0  0  0  0  0  0  0  0  0
    4.1004   -1.1173    3.0178 H   0  0  0  0  0  0  0  0  0  0  0  0
    4.5352   -2.7642    2.4707 H   0  0  0  0  0  0  0  0  0  0  0  0
    0.1628    1.8460    2.4715 H   0  0  0  0  0  0  0  0  0  0  0  0
    4.2108   -0.3179   -2.1629 H   0  0  0  0  0  0  0  0  0  0  0  0
    6.8878   -1.0193    1.9904 H   0  0  0  0  0  0  0  0  0  0  0  0
    1.1572    3.6599   -2.0819 H   0  0  0  0  0  0  0  0  0  0  0  0
   -2.7643    4.2906   -2.7489 H   0  0  0  0  0  0  0  0  0  0  0  0
   -1.3051    3.3919   -3.2598 H   0  0  0  0  0  0  0  0  0  0  0  0
   -1.1539    5.0480   -2.5724 H   0  0  0  0  0  0  0  0  0  0  0  0
    6.5936    0.2831   -2.1010 H   0  0  0  0  0  0  0  0  0  0  0  0
    2.4919    1.9792    1.6488 H   0  0  0  0  0  0  0  0  0  0  0  0
    7.9364   -0.0580   -0.0485 H   0  0  0  0  0  0  0  0  0  0  0  0
    2.9881    2.8733   -0.5969 H   0  0  0  0  0  0  0  0  0  0  0  0
  1 15  2  0  0  0  0
  2 18  2  0  0  0  0
  3  8  1  0  0  0  0
  3 10  1  0  0  0  0
  3 12  1  0  0  0  0
  4 13  1  0  0  0  0
  4 15  1  0  0  0  0
  4 47  1  0  0  0  0
  5  9  1  0  0  0  0
  5 17  1  0  0  0  0
  5 48  1  0  0  0  0
  6 18  1  0  0  0  0
  6 20  1  0  0  0  0
  6 22  1  0  0  0  0
  7 23  1  0  0  0  0
  7 26  1  0  0  0  0
  7 31  1  0  0  0  0
  8 11  1  0  0  0  0
  8 15  1  0  0  0  0
  8 36  1  0  0  0  0
  9 11  1  0  0  0  0
  9 12  1  0  0  0  0
  9 37  1  0  0  0  0
 10 13  1  0  0  0  0
 10 14  1  0  0  0  0
 10 38  1  0  0  0  0
 11 39  1  0  0  0  0
 11 40  1  0  0  0  0
 12 41  1  0  0  0  0
 12 42  1  0  0  0  0
 13 43  1  0  0  0  0
 13 44  1  0  0  0  0
 14 16  1  0  0  0  0
 14 45  1  0  0  0  0
 14 46  1  0  0  0  0
 16 18  1  0  0  0  0
 16 49  1  0  0  0  0
 16 50  1  0  0  0  0
 17 19  1  0  0  0  0
 17 51  1  0  0  0  0
 17 52  1  0  0  0  0
 19 21  1  0  0  0  0
 19 23  2  0  0  0  0
 20 24  1  0  0  0  0
 20 53  1  0  0  0  0
 20 54  1  0  0  0  0
 21 26  1  0  0  0  0
 21 27  2  0  0  0  0
 22 25  1  0  0  0  0
 22 28  2  0  0  0  0
 23 55  1  0  0  0  0
 24 25  1  0  0  0  0
 24 56  1  0  0  0  0
 24 57  1  0  0  0  0
 25 29  2  0  0  0  0
 26 30  2  0  0  0  0
 27 33  1  0  0  0  0
 27 58  1  0  0  0  0
 28 32  1  0  0  0  0
 28 59  1  0  0  0  0
 29 34  1  0  0  0  0
 29 60  1  0  0  0  0
 30 35  1  0  0  0  0
 30 61  1  0  0  0  0
 31 62  1  0  0  0  0
 31 63  1  0  0  0  0
 31 64  1  0  0  0  0
 32 34  2  0  0  0  0
 32 65  1  0  0  0  0
 33 35  2  0  0  0  0
 33 66  1  0  0  0  0
 34 67  1  0  0  0  0
 35 68  1  0  0  0  0
M  END
> <PUBCHEM_COMPOUND_CID>
45360648

> <PUBCHEM_CONFORMER_RMSD>
1.4

> <PUBCHEM_CONFORMER_DIVERSEORDER>
3
134
120
41
57
49
165
105
76
81
131
73
66
158
83
77
107
159
65
115
173
137
9
10
140
21
39
70
42
135
155
144
82
123
45
132
75
20
113
174
71
168
157
103
163
60
27
12
149
177
34
5
125
97
161
127
156
145
118
143
67
38
150
129
85
18
119
142
22
138
141
74
68
153
102
11
64
99
169
133
110
31
96
92
19
95
166
122
15
33
80
69
164
124
90
167
104
106
101
128
121
136
111
50
146
44
62
126
40
23
116
172
160
17
114
59
61
93
147
46
175
152
109
58
130
89
86
79
43
88
87
13
56
48
47
28
51
139
16
32
26
35
4
151
112
162
52
30
84
98
8
170
14
63
29
78
7
154
100
148
108
54
37
55
6
72
117
91
171
25
1
36
176
24
2
53
94

> <PUBCHEM_MMFF94_PARTIAL_CHARGES>
43
1 -0.57
10 0.27
12 0.27
13 0.3
15 0.57
16 0.06
17 0.45
18 0.57
19 -0.18
2 -0.57
20 0.3
22 0.12
23 -0.3
24 0.14
25 -0.14
26 -0.15
27 -0.15
28 -0.15
29 -0.15
3 -0.81
30 -0.15
31 0.26
32 -0.15
33 -0.15
34 -0.15
35 -0.15
4 -0.73
47 0.37
48 0.36
5 -0.9
55 0.15
58 0.15
59 0.15
6 -0.48
60 0.15
61 0.15
65 0.15
66 0.15
67 0.15
68 0.15
7 0.05
8 0.33
9 0.27

> <PUBCHEM_EFFECTIVE_ROTOR_COUNT>
8.8

> <PUBCHEM_PHARMACOPHORE_FEATURES>
13
1 1 acceptor
1 2 acceptor
1 3 cation
1 4 donor
1 5 cation
1 5 donor
1 7 cation
5 3 8 9 11 12 rings
5 6 20 22 24 25 rings
5 7 19 21 23 26 rings
6 21 26 27 30 33 35 rings
6 22 25 28 29 32 34 rings
6 3 4 8 10 13 15 rings

> <PUBCHEM_HEAVY_ATOM_COUNT>
35

> <PUBCHEM_ATOM_DEF_STEREO_COUNT>
3

> <PUBCHEM_ATOM_UDEF_STEREO_COUNT>
0

> <PUBCHEM_BOND_DEF_STEREO_COUNT>
0

> <PUBCHEM_BOND_UDEF_STEREO_COUNT>
0

> <PUBCHEM_ISOTOPIC_ATOM_COUNT>
0

> <PUBCHEM_COMPONENT_COUNT>
1

> <PUBCHEM_CACTVS_TAUTO_COUNT>
3

> <PUBCHEM_CONFORMER_ID>
02B4260800000003

> <PUBCHEM_MMFF94_ENERGY>
85.2314

> <PUBCHEM_FEATURE_SELFOVERLAP>
66.339

> <PUBCHEM_SHAPE_FINGERPRINT>
10010297 198 18044101151115338450
10032420 55 18187078434644284296
10290309 65 18050577243815032799
10670039 82 18341057346176356918
10675989 125 17760932136281999316
11014199 57 18055630878719562758
11421498 54 18260822692547131754
11595378 159 18336829702165706482
12107698 1 18339927112083055835
12156800 1 17329086561896689297
12422481 6 18202294605872554888
12788726 201 18335692837112567506
13726171 33 18269007392816950096
14068700 675 18200588220040993135
14114206 34 17531239552522461433
14117953 113 18131632305592738655
14395042 24 18199767946376436923
144659 39 17753898212084414352
14674994 50 17916565606100615429
15276724 80 18341893039648479012
15324884 4 17477248983987617243
17686467 74 18340764966440764170
18336668 15 18200880672336486018
19315092 285 16445349847343763675
20511986 3 17532369760677205488
20764821 26 18409441497086926653
20775530 9 18339636845297357353
21033648 29 16988556888414945386
21133410 90 17489010648775080585
2132832 1 18200027477600262407
25019877 29 16415207827264590455
3504750 166 18267850706642966982
469060 322 18335430040768538586

> <PUBCHEM_SHAPE_MULTIPOLES>
683.64
12.53
5.37
2.11
15.64
4.38
-0.15
-9.69
1.82
-6.35
-1.81
-0.61
0.3
-1.37

> <PUBCHEM_SHAPE_SELFOVERLAP>
1497.953

> <PUBCHEM_SHAPE_VOLUME>
372.2

> <PUBCHEM_COORDINATE_TYPE>
2
5
10

$$$$
