45361661
  -OEChem-12032416353D

 71 74  0     1  0  0  0  0  0999 V2000
    8.7194    2.9796    0.5769 F   0  0  0  0  0  0  0  0  0  0  0  0
   -1.5483   -1.5262    1.9789 O   0  0  0  0  0  0  0  0  0  0  0  0
   -6.1873   -1.4980   -0.5662 O   0  0  0  0  0  0  0  0  0  0  0  0
    4.3407    1.3648   -0.0249 O   0  0  0  0  0  0  0  0  0  0  0  0
   -6.6965    1.5804   -0.5148 O   0  0  0  0  0  0  0  0  0  0  0  0
    3.3179   -0.6955   -0.2508 N   0  0  0  0  0  0  0  0  0  0  0  0
   -5.9844   -0.4426    1.4893 N   0  0  0  0  0  0  0  0  0  0  0  0
    5.5919   -0.6208    0.0230 N   0  0  0  0  0  0  0  0  0  0  0  0
   -0.7638   -0.4453   -1.5976 C   0  0  1  0  0  0  0  0  0  0  0  0
   -0.5340   -0.6688   -0.0659 C   0  0  2  0  0  0  0  0  0  0  0  0
    0.9243   -1.1827    0.2114 C   0  0  1  0  0  0  0  0  0  0  0  0
   -1.6742   -1.5254    0.5562 C   0  0  2  0  0  0  0  0  0  0  0  0
   -2.1664    0.1664   -1.8251 C   0  0  0  0  0  0  0  0  0  0  0  0
    0.2813    0.5664   -2.1220 C   0  0  0  0  0  0  0  0  0  0  0  0
   -3.0801   -0.9658    0.2371 C   0  0  1  0  0  0  0  0  0  0  0  0
    1.9660   -0.1954   -0.3860 C   0  0  2  0  0  0  0  0  0  0  0  0
   -3.2882   -0.6895   -1.2518 C   0  0  0  0  0  0  0  0  0  0  0  0
    1.7165    0.1340   -1.8576 C   0  0  0  0  0  0  0  0  0  0  0  0
   -0.6557   -1.7591   -2.4125 C   0  0  0  0  0  0  0  0  0  0  0  0
   -4.1906   -1.8931    0.7462 C   0  0  2  0  0  0  0  0  0  0  0  0
    1.2285   -1.3967    1.7039 C   0  0  0  0  0  0  0  0  0  0  0  0
   -4.0614   -3.2692    0.1026 C   0  0  0  0  0  0  0  0  0  0  0  0
   -5.5556   -1.2731    0.4640 C   0  0  0  0  0  0  0  0  0  0  0  0
    4.4238    0.1400   -0.0771 C   0  0  0  0  0  0  0  0  0  0  0  0
   -7.2462    0.2594    1.4502 C   0  0  0  0  0  0  0  0  0  0  0  0
    6.9162   -0.1583    0.2038 C   0  0  0  0  0  0  0  0  0  0  0  0
   -7.1255    1.5947    0.7746 C   0  0  0  0  0  0  0  0  0  0  0  0
    7.1698    1.2097    0.3038 C   0  0  0  0  0  0  0  0  0  0  0  0
    7.9691   -1.0702    0.2815 C   0  0  0  0  0  0  0  0  0  0  0  0
   -7.3640    2.8841    1.1903 C   0  0  0  0  0  0  0  0  0  0  0  0
    8.4759    1.6660    0.4817 C   0  0  0  0  0  0  0  0  0  0  0  0
    9.2752   -0.6140    0.4590 C   0  0  0  0  0  0  0  0  0  0  0  0
   -7.0623    3.7154    0.0853 C   0  0  0  0  0  0  0  0  0  0  0  0
   -6.6607    2.8747   -0.9268 C   0  0  0  0  0  0  0  0  0  0  0  0
    9.5286    0.7541    0.5594 C   0  0  0  0  0  0  0  0  0  0  0  0
   -0.5942    0.3168    0.4232 H   0  0  0  0  0  0  0  0  0  0  0  0
    1.0531   -2.1607   -0.2695 H   0  0  0  0  0  0  0  0  0  0  0  0
   -1.5435   -2.5548    0.2174 H   0  0  0  0  0  0  0  0  0  0  0  0
   -2.2149    1.1610   -1.3613 H   0  0  0  0  0  0  0  0  0  0  0  0
   -2.3447    0.3208   -2.8971 H   0  0  0  0  0  0  0  0  0  0  0  0
    0.1485    0.7261   -3.1996 H   0  0  0  0  0  0  0  0  0  0  0  0
    0.1208    1.5428   -1.6454 H   0  0  0  0  0  0  0  0  0  0  0  0
   -3.1867   -0.0065    0.7654 H   0  0  0  0  0  0  0  0  0  0  0  0
    1.9024    0.7442    0.1801 H   0  0  0  0  0  0  0  0  0  0  0  0
   -3.3650   -1.5995   -1.8497 H   0  0  0  0  0  0  0  0  0  0  0  0
   -4.2195   -0.1356   -1.4153 H   0  0  0  0  0  0  0  0  0  0  0  0
    2.3920    0.9377   -2.1780 H   0  0  0  0  0  0  0  0  0  0  0  0
    1.9723   -0.7274   -2.4866 H   0  0  0  0  0  0  0  0  0  0  0  0
    0.3387   -2.2099   -2.3612 H   0  0  0  0  0  0  0  0  0  0  0  0
   -0.8668   -1.5733   -3.4722 H   0  0  0  0  0  0  0  0  0  0  0  0
   -1.3597   -2.5229   -2.0706 H   0  0  0  0  0  0  0  0  0  0  0  0
   -4.0969   -2.0256    1.8318 H   0  0  0  0  0  0  0  0  0  0  0  0
    2.2881   -1.6095    1.8790 H   0  0  0  0  0  0  0  0  0  0  0  0
    0.9664   -0.5124    2.2938 H   0  0  0  0  0  0  0  0  0  0  0  0
    0.6890   -2.2632    2.0965 H   0  0  0  0  0  0  0  0  0  0  0  0
    3.4771   -1.6917   -0.3666 H   0  0  0  0  0  0  0  0  0  0  0  0
   -1.6116   -0.6065    2.2883 H   0  0  0  0  0  0  0  0  0  0  0  0
   -3.1604   -3.8022    0.4159 H   0  0  0  0  0  0  0  0  0  0  0  0
   -4.9024   -3.8946    0.4299 H   0  0  0  0  0  0  0  0  0  0  0  0
   -4.1113   -3.2672   -0.9882 H   0  0  0  0  0  0  0  0  0  0  0  0
   -5.3833   -0.2909    2.2941 H   0  0  0  0  0  0  0  0  0  0  0  0
    5.4861   -1.6302   -0.0397 H   0  0  0  0  0  0  0  0  0  0  0  0
   -7.5802    0.3882    2.4849 H   0  0  0  0  0  0  0  0  0  0  0  0
   -7.9873   -0.3511    0.9232 H   0  0  0  0  0  0  0  0  0  0  0  0
    6.4094    1.9759    0.2530 H   0  0  0  0  0  0  0  0  0  0  0  0
    7.7854   -2.1388    0.2049 H   0  0  0  0  0  0  0  0  0  0  0  0
   -7.7118    3.1892    2.1668 H   0  0  0  0  0  0  0  0  0  0  0  0
   10.0951   -1.3238    0.5194 H   0  0  0  0  0  0  0  0  0  0  0  0
   -7.1288    4.7924    0.0329 H   0  0  0  0  0  0  0  0  0  0  0  0
   -6.3347    3.0321   -1.9445 H   0  0  0  0  0  0  0  0  0  0  0  0
   10.5454    1.1096    0.6976 H   0  0  0  0  0  0  0  0  0  0  0  0
  1 31  1  0  0  0  0
  2 12  1  0  0  0  0
  2 57  1  0  0  0  0
  3 23  2  0  0  0  0
  4 24  2  0  0  0  0
  5 27  1  0  0  0  0
  5 34  1  0  0  0  0
  6 16  1  0  0  0  0
  6 24  1  0  0  0  0
  6 56  1  0  0  0  0
  7 23  1  0  0  0  0
  7 25  1  0  0  0  0
  7 61  1  0  0  0  0
  8 24  1  0  0  0  0
  8 26  1  0  0  0  0
  8 62  1  0  0  0  0
  9 10  1  0  0  0  0
  9 13  1  0  0  0  0
  9 14  1  0  0  0  0
  9 19  1  0  0  0  0
 10 11  1  0  0  0  0
 10 12  1  0  0  0  0
 10 36  1  0  0  0  0
 11 16  1  0  0  0  0
 11 21  1  0  0  0  0
 11 37  1  0  0  0  0
 12 15  1  0  0  0  0
 12 38  1  0  0  0  0
 13 17  1  0  0  0  0
 13 39  1  0  0  0  0
 13 40  1  0  0  0  0
 14 18  1  0  0  0  0
 14 41  1  0  0  0  0
 14 42  1  0  0  0  0
 15 17  1  0  0  0  0
 15 20  1  0  0  0  0
 15 43  1  0  0  0  0
 16 18  1  0  0  0  0
 16 44  1  0  0  0  0
 17 45  1  0  0  0  0
 17 46  1  0  0  0  0
 18 47  1  0  0  0  0
 18 48  1  0  0  0  0
 19 49  1  0  0  0  0
 19 50  1  0  0  0  0
 19 51  1  0  0  0  0
 20 22  1  0  0  0  0
 20 23  1  0  0  0  0
 20 52  1  0  0  0  0
 21 53  1  0  0  0  0
 21 54  1  0  0  0  0
 21 55  1  0  0  0  0
 22 58  1  0  0  0  0
 22 59  1  0  0  0  0
 22 60  1  0  0  0  0
 25 27  1  0  0  0  0
 25 63  1  0  0  0  0
 25 64  1  0  0  0  0
 26 28  2  0  0  0  0
 26 29  1  0  0  0  0
 27 30  2  0  0  0  0
 28 31  1  0  0  0  0
 28 65  1  0  0  0  0
 29 32  2  0  0  0  0
 29 66  1  0  0  0  0
 30 33  1  0  0  0  0
 30 67  1  0  0  0  0
 31 35  2  0  0  0  0
 32 35  1  0  0  0  0
 32 68  1  0  0  0  0
 33 34  2  0  0  0  0
 33 69  1  0  0  0  0
 34 70  1  0  0  0  0
 35 71  1  0  0  0  0
M  END
> <PUBCHEM_COMPOUND_CID>
45361661

> <PUBCHEM_CONFORMER_RMSD>
1.4

> <PUBCHEM_CONFORMER_DIVERSEORDER>
1
58
71
98
24
56
49
99
67
32
40
10
29
100
75
16
54
78
53
85
76
102
92
38
57
93
73
31
89
35
28
52
104
65
20
36
101
34
79
8
61
39
88
2
72
96
26
82
42
25
60
64
63
44
97
37
91
27
77
43
15
33
23
103
66
51
47
70
17
7
48
50
30
80
14
11
86
21
46
74
68
55
69
41
12
18
95
59
62
22
87
83
90
81
13
45
3
84
19
9
94
4
5
6

> <PUBCHEM_MMFF94_PARTIAL_CHARGES>
35
1 -0.19
12 0.28
16 0.3
2 -0.68
20 0.06
23 0.57
24 0.69
25 0.48
26 0.12
27 -0.04
28 -0.15
29 -0.15
3 -0.57
30 -0.15
31 0.19
32 -0.15
33 -0.15
34 -0.01
35 -0.15
4 -0.57
5 -0.28
56 0.37
57 0.4
6 -0.73
61 0.37
62 0.37
65 0.15
66 0.15
67 0.15
68 0.15
69 0.15
7 -0.73
70 0.15
71 0.15
8 -0.55

> <PUBCHEM_EFFECTIVE_ROTOR_COUNT>
10.6

> <PUBCHEM_PHARMACOPHORE_FEATURES>
13
1 2 acceptor
1 2 donor
1 22 hydrophobe
1 3 acceptor
1 4 acceptor
1 5 acceptor
1 6 donor
1 7 donor
1 8 donor
5 5 27 30 33 34 rings
6 26 28 29 31 32 35 rings
6 9 10 11 14 16 18 rings
6 9 10 12 13 15 17 rings

> <PUBCHEM_HEAVY_ATOM_COUNT>
35

> <PUBCHEM_ATOM_DEF_STEREO_COUNT>
6

> <PUBCHEM_ATOM_UDEF_STEREO_COUNT>
1

> <PUBCHEM_BOND_DEF_STEREO_COUNT>
0

> <PUBCHEM_BOND_UDEF_STEREO_COUNT>
0

> <PUBCHEM_ISOTOPIC_ATOM_COUNT>
0

> <PUBCHEM_COMPONENT_COUNT>
1

> <PUBCHEM_CACTVS_TAUTO_COUNT>
6

> <PUBCHEM_CONFORMER_ID>
02B429FD00000001

> <PUBCHEM_MMFF94_ENERGY>
89.1195

> <PUBCHEM_FEATURE_SELFOVERLAP>
66.04

> <PUBCHEM_SHAPE_FINGERPRINT>
10076449 9 12251910286573288860
10625338 86 18273500052777281169
11135926 11 16660636375556486003
11181472 205 17988087682346547120
11456790 92 17894636976187480104
11578821 258 17988644129451620480
12539765 74 18342182168115103846
12664476 115 17989208158005269865
1361 4 9295020045732552833
13947947 19 14620506865770532328
14040221 310 14620791588349374979
14150023 24 17846778490594600390
14415361 349 12535630475050931780
14444916 359 16732702736170973282
15604295 49 18342452694729865272
17324776 126 13193483774461249713
17852330 162 9510875095651907898
19315958 150 18341056220072317163
20721686 146 18270681957452216549
20982279 24 13768485294134133896
21133410 32 15984521409657061991
21267235 1 16298386881444855334
21756936 100 18409728440300465655
21781051 124 11963390769561641980
21781055 127 17750532714935251734
21867018 265 9943514219971348585
21927370 108 14201397157740559255
22149856 69 18260267448344910988
22288116 15 12031781466582567525
23522609 53 17169581625314699485
23576562 1 15410030989673193345
24771293 8 18113618997551126006
249057 3 15195285365547520858
3178227 256 15574721295884283546
3383291 50 16370724872396245114
4093350 32 18339642235819690306
4149490 64 10737273664088223416
4169191 19 17560807597957671483
4339292 15 12035736444467655865
437795 83 16702026318938303217
44280117 145 18192432089704237122
44802255 64 17489586762665672655
45377200 153 9655570816734547916
4625314 4 18272371988776529302
54039377 194 11169922684211968425
58083652 198 16081369704433705519
6201320 215 18271525286749216577
636775 72 18411139139056760961
6691757 9 17167860885560125971
9953998 17 18113618984507630471
999808 66 13912325677074284969

> <PUBCHEM_SHAPE_MULTIPOLES>
674.59
30.16
3.01
1.71
47.3
1.92
-0.66
21.97
11.27
-6.21
0.44
-1.6
-0.34
0.38

> <PUBCHEM_SHAPE_SELFOVERLAP>
1427.357

> <PUBCHEM_SHAPE_VOLUME>
375.3

> <PUBCHEM_COORDINATE_TYPE>
2
5
10

$$$$
