45784179
  -OEChem-12032416283D

 36 39  0     1  0  0  0  0  0999 V2000
    6.8717   -1.4309    0.4388 Cl  0  0  0  0  0  0  0  0  0  0  0  0
   -4.5442   -1.8962   -0.9940 S   0  0  0  0  0  0  0  0  0  0  0  0
    1.5346    0.5571   -0.6802 O   0  0  0  0  0  0  0  0  0  0  0  0
   -2.4206    1.1413   -0.1216 N   0  0  1  0  0  0  0  0  0  0  0  0
    2.0115    0.1814    1.5034 N   0  0  0  0  0  0  0  0  0  0  0  0
   -0.2904    1.0565    0.8553 C   0  0  1  0  0  0  0  0  0  0  0  0
   -0.5783    2.4885    0.3720 C   0  0  0  0  0  0  0  0  0  0  0  0
   -1.3411    0.1894    0.1488 C   0  0  0  0  0  0  0  0  0  0  0  0
   -1.7471    2.3506   -0.5950 C   0  0  0  0  0  0  0  0  0  0  0  0
    1.1237    0.5786    0.6186 C   0  0  0  0  0  0  0  0  0  0  0  0
   -3.3834    0.6298   -1.0858 C   0  0  0  0  0  0  0  0  0  0  0  0
   -4.3922   -0.2829   -0.4405 C   0  0  0  0  0  0  0  0  0  0  0  0
    3.1062   -0.1317    0.7345 C   0  0  0  0  0  0  0  0  0  0  0  0
    2.8180    0.0970   -0.6029 C   0  0  0  0  0  0  0  0  0  0  0  0
   -5.2655   -0.0048    0.5880 C   0  0  0  0  0  0  0  0  0  0  0  0
    4.3768   -0.6129    1.0812 C   0  0  0  0  0  0  0  0  0  0  0  0
    3.7042   -0.1161   -1.6514 C   0  0  0  0  0  0  0  0  0  0  0  0
   -6.0697   -1.1312    0.9262 C   0  0  0  0  0  0  0  0  0  0  0  0
   -5.7807   -2.2271    0.1433 C   0  0  0  0  0  0  0  0  0  0  0  0
    5.2993   -0.8403    0.0497 C   0  0  0  0  0  0  0  0  0  0  0  0
    4.9673   -0.5960   -1.2886 C   0  0  0  0  0  0  0  0  0  0  0  0
   -0.4722    1.0236    1.9386 H   0  0  0  0  0  0  0  0  0  0  0  0
   -0.8715    3.1081    1.2288 H   0  0  0  0  0  0  0  0  0  0  0  0
    0.2811    2.9700   -0.1064 H   0  0  0  0  0  0  0  0  0  0  0  0
   -0.9438   -0.2473   -0.7769 H   0  0  0  0  0  0  0  0  0  0  0  0
   -1.6707   -0.6302    0.7968 H   0  0  0  0  0  0  0  0  0  0  0  0
   -1.3711    2.2296   -1.6191 H   0  0  0  0  0  0  0  0  0  0  0  0
   -2.4000    3.2286   -0.5621 H   0  0  0  0  0  0  0  0  0  0  0  0
   -3.9620    1.4687   -1.4986 H   0  0  0  0  0  0  0  0  0  0  0  0
   -2.8901    0.1588   -1.9461 H   0  0  0  0  0  0  0  0  0  0  0  0
   -5.3295    0.9590    1.0770 H   0  0  0  0  0  0  0  0  0  0  0  0
    4.6306   -0.8010    2.1198 H   0  0  0  0  0  0  0  0  0  0  0  0
    3.4374    0.0761   -2.6831 H   0  0  0  0  0  0  0  0  0  0  0  0
   -6.8223   -1.1373    1.7040 H   0  0  0  0  0  0  0  0  0  0  0  0
   -6.2367   -3.2063    0.1848 H   0  0  0  0  0  0  0  0  0  0  0  0
    5.6972   -0.7786   -2.0749 H   0  0  0  0  0  0  0  0  0  0  0  0
  1 20  1  0  0  0  0
  2 12  1  0  0  0  0
  2 19  1  0  0  0  0
  3 10  1  0  0  0  0
  3 14  1  0  0  0  0
  4  8  1  0  0  0  0
  4  9  1  0  0  0  0
  4 11  1  0  0  0  0
  5 10  2  0  0  0  0
  5 13  1  0  0  0  0
  6  7  1  0  0  0  0
  6  8  1  0  0  0  0
  6 10  1  0  0  0  0
  6 22  1  0  0  0  0
  7  9  1  0  0  0  0
  7 23  1  0  0  0  0
  7 24  1  0  0  0  0
  8 25  1  0  0  0  0
  8 26  1  0  0  0  0
  9 27  1  0  0  0  0
  9 28  1  0  0  0  0
 11 12  1  0  0  0  0
 11 29  1  0  0  0  0
 11 30  1  0  0  0  0
 12 15  2  0  0  0  0
 13 14  2  0  0  0  0
 13 16  1  0  0  0  0
 14 17  1  0  0  0  0
 15 18  1  0  0  0  0
 15 31  1  0  0  0  0
 16 20  2  0  0  0  0
 16 32  1  0  0  0  0
 17 21  2  0  0  0  0
 17 33  1  0  0  0  0
 18 19  2  0  0  0  0
 18 34  1  0  0  0  0
 19 35  1  0  0  0  0
 20 21  1  0  0  0  0
 21 36  1  0  0  0  0
M  END
> <PUBCHEM_COMPOUND_CID>
45784179

> <PUBCHEM_CONFORMER_RMSD>
0.6

> <PUBCHEM_CONFORMER_DIVERSEORDER>
2
122
84
117
151
99
149
25
101
22
141
27
146
48
130
45
85
108
95
118
152
160
57
112
137
89
148
93
142
31
26
157
139
155
19
136
100
138
153
126
102
134
28
67
145
123
44
18
124
105
49
116
29
135
64
159
62
133
4
115
21
129
30
132
63
42
81
150
32
125
39
56
154
107
78
156
16
71
111
144
143
35
76
47
34
87
60
54
68
46
74
20
5
3
147
41
90
33
36
110
1
13
37
127
9
14
158
17
75
51
120
65
43
72
91
11
140
7
114
61
59
8
52
88
103
94
131
38
83
104
53
50
128
86
121
15
66
40
106
73
92
82
113
24
96
58
23
77
70
12
55
69
80
6
10
97
109
79
98
119

> <PUBCHEM_MMFF94_PARTIAL_CHARGES>
26
1 -0.18
10 0.3
11 0.45
12 -0.14
13 0.23
14 0.14
15 -0.15
16 -0.15
17 -0.15
18 -0.15
19 -0.11
2 -0.08
20 0.18
21 -0.15
3 -0.28
31 0.15
32 0.15
33 0.15
34 0.15
35 0.15
36 0.15
4 -0.81
5 -0.57
6 0.18
8 0.27
9 0.27

> <PUBCHEM_EFFECTIVE_ROTOR_COUNT>
4

> <PUBCHEM_PHARMACOPHORE_FEATURES>
5
1 4 cation
5 2 12 15 18 19 rings
5 3 5 10 13 14 rings
5 4 6 7 8 9 rings
6 13 14 16 17 20 21 rings

> <PUBCHEM_HEAVY_ATOM_COUNT>
21

> <PUBCHEM_ATOM_DEF_STEREO_COUNT>
1

> <PUBCHEM_ATOM_UDEF_STEREO_COUNT>
0

> <PUBCHEM_BOND_DEF_STEREO_COUNT>
0

> <PUBCHEM_BOND_UDEF_STEREO_COUNT>
0

> <PUBCHEM_ISOTOPIC_ATOM_COUNT>
0

> <PUBCHEM_COMPONENT_COUNT>
1

> <PUBCHEM_CACTVS_TAUTO_COUNT>
1

> <PUBCHEM_CONFORMER_ID>
02BA9C7300000002

> <PUBCHEM_MMFF94_ENERGY>
32.9088

> <PUBCHEM_FEATURE_SELFOVERLAP>
25.492

> <PUBCHEM_SHAPE_FINGERPRINT>
10693767 8 16951397716871662890
10763959 59 11530484424149279142
10928967 22 18335689594623366155
11089746 13 11025799820876300662
11128504 68 17385445448845209781
11796584 16 18053942845361624742
12166972 35 17748829618262415132
12236239 1 17894632522268899204
12553582 1 18336535101963676187
12633257 1 15482666905426107453
12969540 114 12973881541900172923
13103583 49 15410613718214314815
13288520 33 18335701633368528697
13402501 40 18060425715625994335
13668630 136 17967816012045738058
13673619 4 18261114114968169105
13690498 29 17821722867439811591
13740256 8 18411136974260842065
13862211 1 18411135861859316919
14251732 14 18340498819643280540
14251751 18 18413669114726256222
14251757 5 17096379504239794947
14251764 18 13830128404206382881
14251764 30 18336549412700124619
14341114 176 15410901751347636482
14466204 15 10952056641243346795
14528608 73 14273451500725424911
14576447 43 17894345566824144200
14765038 42 15267335237197061150
15003188 100 13912613791654028966
15142383 8 16128380332916547649
15183329 4 15864067663400668722
15348495 7 16701733955908123579
15461852 350 18260269612950152486
15475509 84 14045474297415133322
15537594 2 18334857212828712707
17138139 8 17822846606113519603
17780758 139 17775286062986777507
17844677 252 18342740723747229809
1813 80 18411705421873019045
190975 80 17845926441938748434
19141452 34 17275100665432124071
193927 3 18273498987567031309
200 152 17603304830050984105
20281389 69 9079108969187453358
20374829 77 18412825794019262237
20621476 21 17988653977452245142
21054139 6 17894628128612626058
21150785 3 18040724662870233558
212916 134 9079114427853724277
21315763 191 18408892836774210439
21521239 73 16805603668464515754
21623969 137 17132115736528419470
221357 26 15502370136526326823
22950370 63 18410298042731057645
23402539 116 18040716926705861285
235170 7 15502362423208479523
23522609 53 18120970323504762477
23559900 14 18261949747283010456
26918003 58 16845570915949329235
2767999 5 9079119942844809619
2838139 119 12324233988406036551
29717793 49 17676491610194226062
3004659 81 17821725048270406218
312425 54 16630533938153822399
314173 85 17988923366739111305
34797466 226 17988651813838494308
351380 3 18334294284123046827
3737641 26 17988090976017465743
465052 167 18341900722290170479
5104073 3 14188991390025568206
5283156 175 17968095287450053915
56616090 284 18113058242167458153
59682541 52 14129325266109586170
7495541 125 18202279217337309008
7970288 3 18410007771487940039
8863177 126 18044946911906549427

> <PUBCHEM_SHAPE_MULTIPOLES>
422.06
16.39
2.03
1.3
1.44
0.48
-0.16
-12.5
0.75
-2.32
-0.09
0.68
-0.1
0.01

> <PUBCHEM_SHAPE_SELFOVERLAP>
902.908

> <PUBCHEM_SHAPE_VOLUME>
238.5

> <PUBCHEM_COORDINATE_TYPE>
2
5
10

$$$$
