11879504
  -OEChem-12032416313D

 78 82  0     1  0  0  0  0  0999 V2000
    0.6729   -3.0566    0.0199 S   0  0  0  0  0  0  0  0  0  0  0  0
    7.7138    0.3628   -0.5793 O   0  0  0  0  0  0  0  0  0  0  0  0
    7.6078   -1.5209    0.8988 O   0  0  0  0  0  0  0  0  0  0  0  0
   -0.1443    2.0109   -1.4622 O   0  0  0  0  0  0  0  0  0  0  0  0
   -3.1306   -0.3776   -0.3558 O   0  0  0  0  0  0  0  0  0  0  0  0
   -0.1719   -0.6188   -0.1703 N   0  0  0  0  0  0  0  0  0  0  0  0
   -0.6096    3.4185    0.3277 N   0  0  0  0  0  0  0  0  0  0  0  0
   -1.8463   -2.3525   -0.1644 N   0  0  0  0  0  0  0  0  0  0  0  0
   -5.1707    2.7043   -0.8207 N   0  0  0  0  0  0  0  0  0  0  0  0
    3.4633    0.5462    0.3738 C   0  0  2  0  0  0  0  0  0  0  0  0
    4.0667   -0.7505   -0.3262 C   0  0  1  0  0  0  0  0  0  0  0  0
    5.6357   -0.9116   -0.3038 C   0  0  1  0  0  0  0  0  0  0  0  0
    1.9605    0.7285   -0.1380 C   0  0  1  0  0  0  0  0  0  0  0  0
    4.2806    1.7920   -0.0563 C   0  0  0  0  0  0  0  0  0  0  0  0
    6.2948    0.4359   -0.7138 C   0  0  1  0  0  0  0  0  0  0  0  0
    3.2984   -2.0358    0.0987 C   0  0  0  0  0  0  0  0  0  0  0  0
    5.7858    1.6243    0.0943 C   0  0  0  0  0  0  0  0  0  0  0  0
    3.4732    0.4548    1.9196 C   0  0  0  0  0  0  0  0  0  0  0  0
    1.2072   -0.5758   -0.0831 C   0  0  0  0  0  0  0  0  0  0  0  0
    6.2085   -1.4190    1.0381 C   0  0  0  0  0  0  0  0  0  0  0  0
    6.0516   -1.9711   -1.3632 C   0  0  0  0  0  0  0  0  0  0  0  0
    1.8279   -1.8052    0.0047 C   0  0  0  0  0  0  0  0  0  0  0  0
    1.1830    1.8558    0.5547 C   0  0  0  0  0  0  0  0  0  0  0  0
    0.0856    2.4102   -0.3239 C   0  0  0  0  0  0  0  0  0  0  0  0
   -0.5641   -1.8733   -0.1187 C   0  0  0  0  0  0  0  0  0  0  0  0
   -3.0253   -1.5970   -0.2774 C   0  0  0  0  0  0  0  0  0  0  0  0
   -4.2445   -2.4703   -0.2991 C   0  0  0  0  0  0  0  0  0  0  0  0
   -1.7124    4.1331   -0.2736 C   0  0  0  0  0  0  0  0  0  0  0  0
   -4.7316   -2.7216    1.1297 C   0  0  0  0  0  0  0  0  0  0  0  0
   -5.3344   -1.8233   -1.1566 C   0  0  0  0  0  0  0  0  0  0  0  0
   -6.0263   -3.5296    1.1503 C   0  0  0  0  0  0  0  0  0  0  0  0
   -6.6279   -2.6332   -1.1305 C   0  0  0  0  0  0  0  0  0  0  0  0
   -7.1100   -2.8785    0.2961 C   0  0  0  0  0  0  0  0  0  0  0  0
   -3.0299    3.4685    0.0028 C   0  0  0  0  0  0  0  0  0  0  0  0
   -3.3484    3.0108    1.2766 C   0  0  0  0  0  0  0  0  0  0  0  0
   -3.9672    3.2927   -1.0024 C   0  0  0  0  0  0  0  0  0  0  0  0
   -4.5769    2.4002    1.5029 C   0  0  0  0  0  0  0  0  0  0  0  0
   -5.4449    2.2723    0.4306 C   0  0  0  0  0  0  0  0  0  0  0  0
    3.8284   -0.6092   -1.3950 H   0  0  0  0  0  0  0  0  0  0  0  0
    2.0388    0.9672   -1.2094 H   0  0  0  0  0  0  0  0  0  0  0  0
    3.9791    2.6740    0.5200 H   0  0  0  0  0  0  0  0  0  0  0  0
    4.0671    2.0262   -1.1077 H   0  0  0  0  0  0  0  0  0  0  0  0
    6.0889    0.6243   -1.7759 H   0  0  0  0  0  0  0  0  0  0  0  0
    3.5501   -2.3210    1.1256 H   0  0  0  0  0  0  0  0  0  0  0  0
    3.5737   -2.8720   -0.5527 H   0  0  0  0  0  0  0  0  0  0  0  0
    6.0729    1.5291    1.1473 H   0  0  0  0  0  0  0  0  0  0  0  0
    6.2851    2.5380   -0.2529 H   0  0  0  0  0  0  0  0  0  0  0  0
    2.9094   -0.4044    2.2934 H   0  0  0  0  0  0  0  0  0  0  0  0
    4.4768    0.3987    2.3362 H   0  0  0  0  0  0  0  0  0  0  0  0
    3.0262    1.3469    2.3720 H   0  0  0  0  0  0  0  0  0  0  0  0
    6.0177   -0.7413    1.8663 H   0  0  0  0  0  0  0  0  0  0  0  0
    5.8175   -2.4068    1.3001 H   0  0  0  0  0  0  0  0  0  0  0  0
    5.6033   -1.7478   -2.3382 H   0  0  0  0  0  0  0  0  0  0  0  0
    5.7359   -2.9798   -1.0767 H   0  0  0  0  0  0  0  0  0  0  0  0
    7.1361   -2.0058   -1.5160 H   0  0  0  0  0  0  0  0  0  0  0  0
    0.7380    1.5109    1.4966 H   0  0  0  0  0  0  0  0  0  0  0  0
    1.8379    2.7016    0.7876 H   0  0  0  0  0  0  0  0  0  0  0  0
    8.0831    1.2071   -0.8896 H   0  0  0  0  0  0  0  0  0  0  0  0
    7.9599   -1.8499    1.7432 H   0  0  0  0  0  0  0  0  0  0  0  0
   -0.3446    3.6708    1.2757 H   0  0  0  0  0  0  0  0  0  0  0  0
   -1.9241   -3.3644   -0.1038 H   0  0  0  0  0  0  0  0  0  0  0  0
   -3.9876   -3.4345   -0.7588 H   0  0  0  0  0  0  0  0  0  0  0  0
   -1.5321    4.2091   -1.3518 H   0  0  0  0  0  0  0  0  0  0  0  0
   -1.7200    5.1462    0.1426 H   0  0  0  0  0  0  0  0  0  0  0  0
   -3.9624   -3.2528    1.7035 H   0  0  0  0  0  0  0  0  0  0  0  0
   -4.8923   -1.7648    1.6442 H   0  0  0  0  0  0  0  0  0  0  0  0
   -5.5541   -0.8083   -0.8007 H   0  0  0  0  0  0  0  0  0  0  0  0
   -4.9869   -1.7199   -2.1919 H   0  0  0  0  0  0  0  0  0  0  0  0
   -5.8292   -4.5432    0.7797 H   0  0  0  0  0  0  0  0  0  0  0  0
   -6.3813   -3.6305    2.1821 H   0  0  0  0  0  0  0  0  0  0  0  0
   -7.4044   -2.1061   -1.6965 H   0  0  0  0  0  0  0  0  0  0  0  0
   -6.4655   -3.5955   -1.6314 H   0  0  0  0  0  0  0  0  0  0  0  0
   -8.0004   -3.5170    0.2801 H   0  0  0  0  0  0  0  0  0  0  0  0
   -7.4078   -1.9250    0.7494 H   0  0  0  0  0  0  0  0  0  0  0  0
   -2.6573    3.1285    2.1065 H   0  0  0  0  0  0  0  0  0  0  0  0
   -3.7783    3.6289   -2.0173 H   0  0  0  0  0  0  0  0  0  0  0  0
   -4.8469    2.0363    2.4876 H   0  0  0  0  0  0  0  0  0  0  0  0
   -6.4148    1.8016    0.5543 H   0  0  0  0  0  0  0  0  0  0  0  0
  1 22  1  0  0  0  0
  1 25  1  0  0  0  0
  2 15  1  0  0  0  0
  2 58  1  0  0  0  0
  3 20  1  0  0  0  0
  3 59  1  0  0  0  0
  4 24  2  0  0  0  0
  5 26  2  0  0  0  0
  6 19  1  0  0  0  0
  6 25  2  0  0  0  0
  7 24  1  0  0  0  0
  7 28  1  0  0  0  0
  7 60  1  0  0  0  0
  8 25  1  0  0  0  0
  8 26  1  0  0  0  0
  8 61  1  0  0  0  0
  9 36  1  0  0  0  0
  9 38  2  0  0  0  0
 10 11  1  0  0  0  0
 10 13  1  0  0  0  0
 10 14  1  0  0  0  0
 10 18  1  0  0  0  0
 11 12  1  0  0  0  0
 11 16  1  0  0  0  0
 11 39  1  0  0  0  0
 12 15  1  0  0  0  0
 12 20  1  0  0  0  0
 12 21  1  0  0  0  0
 13 19  1  0  0  0  0
 13 23  1  0  0  0  0
 13 40  1  0  0  0  0
 14 17  1  0  0  0  0
 14 41  1  0  0  0  0
 14 42  1  0  0  0  0
 15 17  1  0  0  0  0
 15 43  1  0  0  0  0
 16 22  1  0  0  0  0
 16 44  1  0  0  0  0
 16 45  1  0  0  0  0
 17 46  1  0  0  0  0
 17 47  1  0  0  0  0
 18 48  1  0  0  0  0
 18 49  1  0  0  0  0
 18 50  1  0  0  0  0
 19 22  2  0  0  0  0
 20 51  1  0  0  0  0
 20 52  1  0  0  0  0
 21 53  1  0  0  0  0
 21 54  1  0  0  0  0
 21 55  1  0  0  0  0
 23 24  1  0  0  0  0
 23 56  1  0  0  0  0
 23 57  1  0  0  0  0
 26 27  1  0  0  0  0
 27 29  1  0  0  0  0
 27 30  1  0  0  0  0
 27 62  1  0  0  0  0
 28 34  1  0  0  0  0
 28 63  1  0  0  0  0
 28 64  1  0  0  0  0
 29 31  1  0  0  0  0
 29 65  1  0  0  0  0
 29 66  1  0  0  0  0
 30 32  1  0  0  0  0
 30 67  1  0  0  0  0
 30 68  1  0  0  0  0
 31 33  1  0  0  0  0
 31 69  1  0  0  0  0
 31 70  1  0  0  0  0
 32 33  1  0  0  0  0
 32 71  1  0  0  0  0
 32 72  1  0  0  0  0
 33 73  1  0  0  0  0
 33 74  1  0  0  0  0
 34 35  1  0  0  0  0
 34 36  2  0  0  0  0
 35 37  2  0  0  0  0
 35 75  1  0  0  0  0
 36 76  1  0  0  0  0
 37 38  1  0  0  0  0
 37 77  1  0  0  0  0
 38 78  1  0  0  0  0
M  END
> <PUBCHEM_COMPOUND_CID>
11879504

> <PUBCHEM_CONFORMER_RMSD>
1.2

> <PUBCHEM_CONFORMER_DIVERSEORDER>
1
29
12
42
33
25
9
34
22
35
41
5
15
36
20
6
37
30
28
39
23
40
4
26
7
27
32
43
45
17
14
31
13
44
24
2
11
16
8
38
3
18
19
10
21
46

> <PUBCHEM_MMFF94_PARTIAL_CHARGES>
34
1 -0.08
13 0.18
15 0.28
16 0.18
19 0.05
2 -0.68
20 0.28
22 -0.14
23 0.06
24 0.57
25 0.44
26 0.57
27 0.06
28 0.44
3 -0.68
34 -0.14
35 -0.15
36 0.16
37 -0.15
38 0.16
4 -0.57
5 -0.57
58 0.4
59 0.4
6 -0.57
60 0.37
61 0.37
7 -0.73
75 0.15
76 0.15
77 0.15
78 0.15
8 -0.49
9 -0.62

> <PUBCHEM_EFFECTIVE_ROTOR_COUNT>
11.4

> <PUBCHEM_PHARMACOPHORE_FEATURES>
14
1 2 acceptor
1 2 donor
1 3 acceptor
1 3 donor
1 4 acceptor
1 5 acceptor
1 7 donor
1 8 donor
1 9 acceptor
5 1 6 19 22 25 rings
6 10 11 12 14 15 17 rings
6 10 11 13 16 19 22 rings
6 27 29 30 31 32 33 rings
6 9 34 35 36 37 38 rings

> <PUBCHEM_HEAVY_ATOM_COUNT>
38

> <PUBCHEM_ATOM_DEF_STEREO_COUNT>
5

> <PUBCHEM_ATOM_UDEF_STEREO_COUNT>
0

> <PUBCHEM_BOND_DEF_STEREO_COUNT>
0

> <PUBCHEM_BOND_UDEF_STEREO_COUNT>
0

> <PUBCHEM_ISOTOPIC_ATOM_COUNT>
0

> <PUBCHEM_COMPONENT_COUNT>
1

> <PUBCHEM_CACTVS_TAUTO_COUNT>
6

> <PUBCHEM_CONFORMER_ID>
00B5445000000001

> <PUBCHEM_MMFF94_ENERGY>
101.9964

> <PUBCHEM_FEATURE_SELFOVERLAP>
71.195

> <PUBCHEM_SHAPE_FINGERPRINT>
10050765 1 18266178336244812958
100830 39 18410293566821370713
10462674 296 17912913174455000615
10670039 82 18411417327749831018
12107698 1 18341049717929297615
12166972 35 17895755222245934103
12645989 146 18198620128750803191
13383668 254 15769481102676058442
13782708 43 17775003505135405006
13811026 1 18411128169113590072
14068700 675 18129944610904330689
14790565 3 18410295779214733972
14856354 85 18341894035010812389
14955137 171 18192153913024643107
15001296 14 18335137588088300724
15264996 74 18060132112832107953
15276724 80 18271246135444095732
15400415 2 17617940227560812973
15483637 11 18338234865103977541
15968369 153 18059274544025768020
16090146 7 17023195941691624138
18608769 82 18411981330060177065
21133410 90 17274819186698724705
21236236 1 18412544305846621237
21360443 126 18335977563025872717
21792965 169 18260844717476444878
23569943 247 16589689190179828810
23576562 1 18261970583208613836
350125 39 18410855418038604760
469060 322 17240479195772375053
484989 97 18343305847412395380
5171179 24 18058999717658737472
59520647 119 18337389341327161557
6086070 43 17917989473610969584

> <PUBCHEM_SHAPE_MULTIPOLES>
742.47
19.26
5.49
1.2
8.96
2.85
0.19
-10.39
-0.08
-10.21
0.13
-0.34
0.04
0.09

> <PUBCHEM_SHAPE_SELFOVERLAP>
1567.995

> <PUBCHEM_SHAPE_VOLUME>
418.7

> <PUBCHEM_COORDINATE_TYPE>
2
5
10

$$$$
