44716920
  -OEChem-12032416343D

 77 79  0     1  0  0  0  0  0999 V2000
    4.6844   -0.3073   -0.1211 O   0  0  0  0  0  0  0  0  0  0  0  0
   -1.6828    2.9603   -1.2345 O   0  0  0  0  0  0  0  0  0  0  0  0
    4.9343    1.9745   -1.6273 O   0  0  0  0  0  0  0  0  0  0  0  0
   -2.7415    0.6920    2.2649 O   0  0  0  0  0  0  0  0  0  0  0  0
    4.7938   -1.7043    1.6985 O   0  0  0  0  0  0  0  0  0  0  0  0
   -8.5349   -2.1984   -1.1814 O   0  0  0  0  0  0  0  0  0  0  0  0
   -4.3705    0.2206    0.6957 N   0  0  0  0  0  0  0  0  0  0  0  0
    6.5255   -1.5672    0.1606 N   0  0  0  0  0  0  0  0  0  0  0  0
   -6.3989   -1.9236   -0.2967 N   0  0  0  0  0  0  0  0  0  0  0  0
    0.5239    0.9095   -0.3419 C   0  0  2  0  0  0  0  0  0  0  0  0
    1.6004    1.9411    0.1737 C   0  0  1  0  0  0  0  0  0  0  0  0
    3.1095    1.6008   -0.1311 C   0  0  1  0  0  0  0  0  0  0  0  0
   -0.8504    1.2903    0.3501 C   0  0  1  0  0  0  0  0  0  0  0  0
    0.9480   -0.5125    0.1144 C   0  0  0  0  0  0  0  0  0  0  0  0
    1.1846    3.3890   -0.1680 C   0  0  0  0  0  0  0  0  0  0  0  0
    3.3902    0.1280    0.2950 C   0  0  1  0  0  0  0  0  0  0  0  0
   -1.2717    2.7594    0.1141 C   0  0  1  0  0  0  0  0  0  0  0  0
    2.3819   -0.8749   -0.2548 C   0  0  0  0  0  0  0  0  0  0  0  0
   -0.1606    3.7442    0.4665 C   0  0  0  0  0  0  0  0  0  0  0  0
    0.3703    0.8919   -1.8822 C   0  0  0  0  0  0  0  0  0  0  0  0
    3.5292    1.8531   -1.5936 C   0  0  0  0  0  0  0  0  0  0  0  0
   -2.0225    0.3521    0.0200 C   0  0  0  0  0  0  0  0  0  0  0  0
    4.0226    2.5176    0.7339 C   0  0  0  0  0  0  0  0  0  0  0  0
   -3.0674    0.4420    1.1032 C   0  0  0  0  0  0  0  0  0  0  0  0
    5.2898   -1.2393    0.6775 C   0  0  0  0  0  0  0  0  0  0  0  0
   -4.8225   -0.0767   -0.6627 C   0  0  0  0  0  0  0  0  0  0  0  0
   -5.4901    0.2654    1.6248 C   0  0  0  0  0  0  0  0  0  0  0  0
   -6.2807   -0.4998   -0.5015 C   0  0  2  0  0  0  0  0  0  0  0  0
   -6.7271    0.2768    0.7361 C   0  0  0  0  0  0  0  0  0  0  0  0
    7.4206   -2.5247    0.7680 C   0  0  0  0  0  0  0  0  0  0  0  0
   -7.5213   -2.6518   -0.6564 C   0  0  0  0  0  0  0  0  0  0  0  0
    7.1900   -3.9413    0.2554 C   0  0  0  0  0  0  0  0  0  0  0  0
   -7.3715   -4.1189   -0.3546 C   0  0  0  0  0  0  0  0  0  0  0  0
    7.4152   -4.0679   -1.2446 C   0  0  0  0  0  0  0  0  0  0  0  0
    1.5382    1.8813    1.2736 H   0  0  0  0  0  0  0  0  0  0  0  0
   -0.6442    1.2117    1.4277 H   0  0  0  0  0  0  0  0  0  0  0  0
    0.8398   -0.5980    1.2038 H   0  0  0  0  0  0  0  0  0  0  0  0
    0.2923   -1.2738   -0.3229 H   0  0  0  0  0  0  0  0  0  0  0  0
    1.9220    4.1039    0.2102 H   0  0  0  0  0  0  0  0  0  0  0  0
    1.1330    3.5455   -1.2496 H   0  0  0  0  0  0  0  0  0  0  0  0
    3.3258    0.1026    1.3927 H   0  0  0  0  0  0  0  0  0  0  0  0
   -2.1417    2.9948    0.7385 H   0  0  0  0  0  0  0  0  0  0  0  0
    2.5993   -1.8754    0.1403 H   0  0  0  0  0  0  0  0  0  0  0  0
    2.4968   -0.9801   -1.3393 H   0  0  0  0  0  0  0  0  0  0  0  0
   -0.0387    3.7689    1.5568 H   0  0  0  0  0  0  0  0  0  0  0  0
   -0.4392    4.7569    0.1514 H   0  0  0  0  0  0  0  0  0  0  0  0
    1.2404    0.4734   -2.3880 H   0  0  0  0  0  0  0  0  0  0  0  0
   -0.4748    0.2663   -2.1885 H   0  0  0  0  0  0  0  0  0  0  0  0
    0.2127    1.8840   -2.3087 H   0  0  0  0  0  0  0  0  0  0  0  0
    3.2465    1.0385   -2.2615 H   0  0  0  0  0  0  0  0  0  0  0  0
    3.1110    2.7847   -1.9833 H   0  0  0  0  0  0  0  0  0  0  0  0
   -2.4301    0.5945   -0.9633 H   0  0  0  0  0  0  0  0  0  0  0  0
   -1.7159   -0.6971   -0.0039 H   0  0  0  0  0  0  0  0  0  0  0  0
    5.0592    2.1629    0.7724 H   0  0  0  0  0  0  0  0  0  0  0  0
    3.6728    2.5456    1.7727 H   0  0  0  0  0  0  0  0  0  0  0  0
    4.0400    3.5491    0.3660 H   0  0  0  0  0  0  0  0  0  0  0  0
   -1.9693    3.8852   -1.3219 H   0  0  0  0  0  0  0  0  0  0  0  0
    5.1888    2.1380   -2.5513 H   0  0  0  0  0  0  0  0  0  0  0  0
   -4.7473    0.8528   -1.2384 H   0  0  0  0  0  0  0  0  0  0  0  0
   -4.1931   -0.8427   -1.1260 H   0  0  0  0  0  0  0  0  0  0  0  0
   -5.4457   -0.6362    2.2456 H   0  0  0  0  0  0  0  0  0  0  0  0
   -5.4210    1.1432    2.2743 H   0  0  0  0  0  0  0  0  0  0  0  0
   -6.8739   -0.2280   -1.3809 H   0  0  0  0  0  0  0  0  0  0  0  0
   -7.6026   -0.1453    1.2385 H   0  0  0  0  0  0  0  0  0  0  0  0
   -6.9601    1.3108    0.4525 H   0  0  0  0  0  0  0  0  0  0  0  0
    6.8201   -1.1115   -0.6978 H   0  0  0  0  0  0  0  0  0  0  0  0
   -5.6364   -2.4020    0.1750 H   0  0  0  0  0  0  0  0  0  0  0  0
    7.2825   -2.4994    1.8544 H   0  0  0  0  0  0  0  0  0  0  0  0
    8.4429   -2.1984    0.5494 H   0  0  0  0  0  0  0  0  0  0  0  0
    7.8705   -4.6240    0.7771 H   0  0  0  0  0  0  0  0  0  0  0  0
    6.1681   -4.2623    0.4896 H   0  0  0  0  0  0  0  0  0  0  0  0
   -6.6117   -4.5521   -1.0109 H   0  0  0  0  0  0  0  0  0  0  0  0
   -8.3239   -4.6292   -0.5221 H   0  0  0  0  0  0  0  0  0  0  0  0
   -7.0761   -4.2601    0.6890 H   0  0  0  0  0  0  0  0  0  0  0  0
    6.6968   -3.4666   -1.8104 H   0  0  0  0  0  0  0  0  0  0  0  0
    8.4255   -3.7470   -1.5179 H   0  0  0  0  0  0  0  0  0  0  0  0
    7.2955   -5.1106   -1.5558 H   0  0  0  0  0  0  0  0  0  0  0  0
  1 16  1  0  0  0  0
  1 25  1  0  0  0  0
  2 17  1  0  0  0  0
  2 57  1  0  0  0  0
  3 21  1  0  0  0  0
  3 58  1  0  0  0  0
  4 24  2  0  0  0  0
  5 25  2  0  0  0  0
  6 31  2  0  0  0  0
  7 24  1  0  0  0  0
  7 26  1  0  0  0  0
  7 27  1  0  0  0  0
  8 25  1  0  0  0  0
  8 30  1  0  0  0  0
  8 66  1  0  0  0  0
  9 28  1  0  0  0  0
  9 31  1  0  0  0  0
  9 67  1  0  0  0  0
 10 11  1  0  0  0  0
 10 13  1  0  0  0  0
 10 14  1  0  0  0  0
 10 20  1  0  0  0  0
 11 12  1  0  0  0  0
 11 15  1  0  0  0  0
 11 35  1  0  0  0  0
 12 16  1  0  0  0  0
 12 21  1  0  0  0  0
 12 23  1  0  0  0  0
 13 17  1  0  0  0  0
 13 22  1  0  0  0  0
 13 36  1  0  0  0  0
 14 18  1  0  0  0  0
 14 37  1  0  0  0  0
 14 38  1  0  0  0  0
 15 19  1  0  0  0  0
 15 39  1  0  0  0  0
 15 40  1  0  0  0  0
 16 18  1  0  0  0  0
 16 41  1  0  0  0  0
 17 19  1  0  0  0  0
 17 42  1  0  0  0  0
 18 43  1  0  0  0  0
 18 44  1  0  0  0  0
 19 45  1  0  0  0  0
 19 46  1  0  0  0  0
 20 47  1  0  0  0  0
 20 48  1  0  0  0  0
 20 49  1  0  0  0  0
 21 50  1  0  0  0  0
 21 51  1  0  0  0  0
 22 24  1  0  0  0  0
 22 52  1  0  0  0  0
 22 53  1  0  0  0  0
 23 54  1  0  0  0  0
 23 55  1  0  0  0  0
 23 56  1  0  0  0  0
 26 28  1  0  0  0  0
 26 59  1  0  0  0  0
 26 60  1  0  0  0  0
 27 29  1  0  0  0  0
 27 61  1  0  0  0  0
 27 62  1  0  0  0  0
 28 29  1  0  0  0  0
 28 63  1  0  0  0  0
 29 64  1  0  0  0  0
 29 65  1  0  0  0  0
 30 32  1  0  0  0  0
 30 68  1  0  0  0  0
 30 69  1  0  0  0  0
 31 33  1  0  0  0  0
 32 34  1  0  0  0  0
 32 70  1  0  0  0  0
 32 71  1  0  0  0  0
 33 72  1  0  0  0  0
 33 73  1  0  0  0  0
 33 74  1  0  0  0  0
 34 75  1  0  0  0  0
 34 76  1  0  0  0  0
 34 77  1  0  0  0  0
M  END
> <PUBCHEM_COMPOUND_CID>
44716920

> <PUBCHEM_CONFORMER_RMSD>
1.2

> <PUBCHEM_CONFORMER_DIVERSEORDER>
1
30
26
36
38
43
37
14
41
23
44
17
40
39
15
45
33
35
34
46
10
18
7
21
28
42
31
16
2
32
19
27
24
29
13
25
8
11
22
20
12
3
5
4
9
6

> <PUBCHEM_MMFF94_PARTIAL_CHARGES>
25
1 -0.43
16 0.28
17 0.28
2 -0.68
21 0.28
22 0.06
24 0.57
25 0.78
26 0.3
27 0.3
28 0.3
3 -0.68
30 0.3
31 0.57
33 0.06
4 -0.57
5 -0.57
57 0.4
58 0.4
6 -0.57
66 0.37
67 0.37
7 -0.66
8 -0.73
9 -0.73

> <PUBCHEM_EFFECTIVE_ROTOR_COUNT>
13.6

> <PUBCHEM_PHARMACOPHORE_FEATURES>
13
1 2 acceptor
1 2 donor
1 3 acceptor
1 3 donor
1 34 hydrophobe
1 4 acceptor
1 5 acceptor
1 6 acceptor
1 8 donor
1 9 donor
5 7 26 27 28 29 rings
6 10 11 12 14 16 18 rings
6 10 11 13 15 17 19 rings

> <PUBCHEM_HEAVY_ATOM_COUNT>
34

> <PUBCHEM_ATOM_DEF_STEREO_COUNT>
6

> <PUBCHEM_ATOM_UDEF_STEREO_COUNT>
1

> <PUBCHEM_BOND_DEF_STEREO_COUNT>
0

> <PUBCHEM_BOND_UDEF_STEREO_COUNT>
0

> <PUBCHEM_ISOTOPIC_ATOM_COUNT>
0

> <PUBCHEM_COMPONENT_COUNT>
1

> <PUBCHEM_CACTVS_TAUTO_COUNT>
4

> <PUBCHEM_CONFORMER_ID>
02AA537800000001

> <PUBCHEM_MMFF94_ENERGY>
95.49

> <PUBCHEM_FEATURE_SELFOVERLAP>
65.987

> <PUBCHEM_SHAPE_FINGERPRINT>
10 15 13686007683970024354
10411042 1 18410852132093399608
10669705 251 18131355163864133126
10693767 8 18336541707064461843
11135609 99 18342736364160375535
12013929 27 18189612929760072631
12166972 35 18040437693718046605
12236239 1 17988368165275989761
12645989 146 18409733945568019003
12760667 363 18261396602697461937
13248334 5 18194400232587321848
13533116 47 18334579053492875360
13782708 43 17968371338558250939
13944108 23 8358265847752156406
14068700 675 18336263461850527088
14931854 50 17241050890643474258
15152005 304 18412554197015185031
15198563 99 16660637411006919949
15320294 125 17632290216450365271
16126227 98 9367047970130404339
16991971 28 18410855451602277838
19301676 85 18333733541625483315
19841028 212 18409725175170902474
20028762 73 18413389817536023370
208703 8 18411410709290247591
21130935 74 18342737459708702361
21267235 1 18336270029530255634
21424621 283 8646763400422422654
21585481 151 18058736784657385774
23522609 53 18122941743553343753
23559900 14 17531259382576409760
23569943 247 18338237068359228899
25269216 80 13623829253858819929
255183 451 18334861585247591652
3504750 166 18341896247799625857
406291 66 18411416185405373994
439807 62 18270119162761130755
474113 269 18341607080166709711
5104073 3 17774730882856262769
5718773 13 18411416202595344323
9555976 147 17417826006654974481
9962374 69 18408038524966961466

> <PUBCHEM_SHAPE_MULTIPOLES>
649.55
22.84
4.96
1.41
14.42
2.68
0.01
34.95
-1.01
-3.88
-0.92
-0.01
-0.17
-2.18

> <PUBCHEM_SHAPE_SELFOVERLAP>
1329.207

> <PUBCHEM_SHAPE_VOLUME>
371.3

> <PUBCHEM_COORDINATE_TYPE>
2
5
10

$$$$
