26742073
  -OEChem-12032416183D

 49 50  0     1  0  0  0  0  0999 V2000
   -1.6775    2.7536   -2.0061 O   0  0  0  0  0  0  0  0  0  0  0  0
   -1.1148   -1.5885    1.1500 O   0  0  0  0  0  0  0  0  0  0  0  0
    0.8650    2.5130    1.4935 O   0  0  0  0  0  0  0  0  0  0  0  0
    5.8458   -0.8677   -0.4587 O   0  0  0  0  0  0  0  0  0  0  0  0
   -2.9695   -0.2223    0.8680 N   0  0  0  0  0  0  0  0  0  0  0  0
   -0.1779    1.1244   -0.0423 N   0  0  0  0  0  0  0  0  0  0  0  0
   -3.0437   -2.5189    0.3182 N   0  0  0  0  0  0  0  0  0  0  0  0
   -1.5122    1.6749    0.1166 C   0  0  1  0  0  0  0  0  0  0  0  0
   -2.2231    1.6635   -1.2499 C   0  0  1  0  0  0  0  0  0  0  0  0
   -3.7470    1.8290   -1.2099 C   0  0  0  0  0  0  0  0  0  0  0  0
   -2.2345    0.9747    1.2758 C   0  0  0  0  0  0  0  0  0  0  0  0
   -4.4933    0.5172   -0.9503 C   0  0  0  0  0  0  0  0  0  0  0  0
   -4.3651    0.0032    0.4772 C   0  0  0  0  0  0  0  0  0  0  0  0
   -2.2939   -1.4548    0.8070 C   0  0  0  0  0  0  0  0  0  0  0  0
    0.9065    1.6010    0.6719 C   0  0  0  0  0  0  0  0  0  0  0  0
    2.2084    0.9498    0.3754 C   0  0  0  0  0  0  0  0  0  0  0  0
   -2.4949   -3.8489    0.1791 C   0  0  0  0  0  0  0  0  0  0  0  0
    3.3984    1.6534    0.5613 C   0  0  0  0  0  0  0  0  0  0  0  0
    2.2408   -0.3645   -0.0907 C   0  0  0  0  0  0  0  0  0  0  0  0
   -1.6599   -3.9754   -1.0783 C   0  0  0  0  0  0  0  0  0  0  0  0
    4.6208    1.0429    0.2809 C   0  0  0  0  0  0  0  0  0  0  0  0
    3.4631   -0.9751   -0.3712 C   0  0  0  0  0  0  0  0  0  0  0  0
    4.6530   -0.2714   -0.1854 C   0  0  0  0  0  0  0  0  0  0  0  0
    5.8052   -2.2132   -0.9321 C   0  0  0  0  0  0  0  0  0  0  0  0
   -1.3726    2.7211    0.4218 H   0  0  0  0  0  0  0  0  0  0  0  0
   -1.9733    0.7493   -1.8032 H   0  0  0  0  0  0  0  0  0  0  0  0
   -4.0875    2.2154   -2.1797 H   0  0  0  0  0  0  0  0  0  0  0  0
   -4.0319    2.5931   -0.4763 H   0  0  0  0  0  0  0  0  0  0  0  0
   -1.5223    0.6985    2.0633 H   0  0  0  0  0  0  0  0  0  0  0  0
   -2.9433    1.6705    1.7406 H   0  0  0  0  0  0  0  0  0  0  0  0
   -5.5577    0.6766   -1.1615 H   0  0  0  0  0  0  0  0  0  0  0  0
   -4.1458   -0.2481   -1.6552 H   0  0  0  0  0  0  0  0  0  0  0  0
   -4.8050    0.7249    1.1764 H   0  0  0  0  0  0  0  0  0  0  0  0
   -4.9566   -0.9074    0.5998 H   0  0  0  0  0  0  0  0  0  0  0  0
   -0.0676    0.3729   -0.7140 H   0  0  0  0  0  0  0  0  0  0  0  0
   -2.0364    2.6942   -2.9079 H   0  0  0  0  0  0  0  0  0  0  0  0
   -3.9685   -2.3717   -0.0642 H   0  0  0  0  0  0  0  0  0  0  0  0
   -1.8868   -4.0781    1.0605 H   0  0  0  0  0  0  0  0  0  0  0  0
   -3.3357   -4.5488    0.1493 H   0  0  0  0  0  0  0  0  0  0  0  0
    3.3938    2.6796    0.9191 H   0  0  0  0  0  0  0  0  0  0  0  0
    1.3428   -0.9609   -0.2189 H   0  0  0  0  0  0  0  0  0  0  0  0
   -2.2546   -3.7419   -1.9678 H   0  0  0  0  0  0  0  0  0  0  0  0
   -0.8054   -3.2908   -1.0619 H   0  0  0  0  0  0  0  0  0  0  0  0
   -1.2766   -4.9953   -1.1805 H   0  0  0  0  0  0  0  0  0  0  0  0
    5.5445    1.5961    0.4265 H   0  0  0  0  0  0  0  0  0  0  0  0
    3.4166   -2.0001   -0.7230 H   0  0  0  0  0  0  0  0  0  0  0  0
    6.8404   -2.5281   -1.0998 H   0  0  0  0  0  0  0  0  0  0  0  0
    5.2892   -2.2856   -1.8955 H   0  0  0  0  0  0  0  0  0  0  0  0
    5.3826   -2.8908   -0.1826 H   0  0  0  0  0  0  0  0  0  0  0  0
  1  9  1  0  0  0  0
  1 36  1  0  0  0  0
  2 14  2  0  0  0  0
  3 15  2  0  0  0  0
  4 23  1  0  0  0  0
  4 24  1  0  0  0  0
  5 11  1  0  0  0  0
  5 13  1  0  0  0  0
  5 14  1  0  0  0  0
  6  8  1  0  0  0  0
  6 15  1  0  0  0  0
  6 35  1  0  0  0  0
  7 14  1  0  0  0  0
  7 17  1  0  0  0  0
  7 37  1  0  0  0  0
  8  9  1  0  0  0  0
  8 11  1  0  0  0  0
  8 25  1  0  0  0  0
  9 10  1  0  0  0  0
  9 26  1  0  0  0  0
 10 12  1  0  0  0  0
 10 27  1  0  0  0  0
 10 28  1  0  0  0  0
 11 29  1  0  0  0  0
 11 30  1  0  0  0  0
 12 13  1  0  0  0  0
 12 31  1  0  0  0  0
 12 32  1  0  0  0  0
 13 33  1  0  0  0  0
 13 34  1  0  0  0  0
 15 16  1  0  0  0  0
 16 18  2  0  0  0  0
 16 19  1  0  0  0  0
 17 20  1  0  0  0  0
 17 38  1  0  0  0  0
 17 39  1  0  0  0  0
 18 21  1  0  0  0  0
 18 40  1  0  0  0  0
 19 22  2  0  0  0  0
 19 41  1  0  0  0  0
 20 42  1  0  0  0  0
 20 43  1  0  0  0  0
 20 44  1  0  0  0  0
 21 23  2  0  0  0  0
 21 45  1  0  0  0  0
 22 23  1  0  0  0  0
 22 46  1  0  0  0  0
 24 47  1  0  0  0  0
 24 48  1  0  0  0  0
 24 49  1  0  0  0  0
M  END
> <PUBCHEM_COMPOUND_CID>
26742073

> <PUBCHEM_CONFORMER_RMSD>
0.8

> <PUBCHEM_CONFORMER_DIVERSEORDER>
3
14
57
39
87
76
16
33
52
73
11
8
75
62
78
22
66
61
34
47
26
36
72
1
83
77
25
24
35
67
91
5
89
43
59
20
44
68
86
45
82
64
53
23
12
79
63
6
40
88
4
55
85
94
42
38
37
74
80
71
15
19
50
9
31
93
48
46
30
90
84
54
10
58
27
21
60
81
69
49
65
18
28
32
41
13
7
29
56
70
17
51
2
92

> <PUBCHEM_MMFF94_PARTIAL_CHARGES>
28
1 -0.68
11 0.3
13 0.3
14 0.69
15 0.54
16 0.09
17 0.3
18 -0.15
19 -0.15
2 -0.57
21 -0.15
22 -0.15
23 0.08
24 0.28
3 -0.57
35 0.37
36 0.4
37 0.37
4 -0.36
40 0.15
41 0.15
45 0.15
46 0.15
5 -0.66
6 -0.73
7 -0.73
8 0.3
9 0.28

> <PUBCHEM_EFFECTIVE_ROTOR_COUNT>
8.4

> <PUBCHEM_PHARMACOPHORE_FEATURES>
9
1 1 acceptor
1 1 donor
1 2 acceptor
1 3 acceptor
1 4 acceptor
1 6 donor
1 7 donor
6 16 18 19 21 22 23 rings
7 5 8 9 10 11 12 13 rings

> <PUBCHEM_HEAVY_ATOM_COUNT>
24

> <PUBCHEM_ATOM_DEF_STEREO_COUNT>
2

> <PUBCHEM_ATOM_UDEF_STEREO_COUNT>
0

> <PUBCHEM_BOND_DEF_STEREO_COUNT>
0

> <PUBCHEM_BOND_UDEF_STEREO_COUNT>
0

> <PUBCHEM_ISOTOPIC_ATOM_COUNT>
0

> <PUBCHEM_COMPONENT_COUNT>
1

> <PUBCHEM_CACTVS_TAUTO_COUNT>
4

> <PUBCHEM_CONFORMER_ID>
01980D3900000003

> <PUBCHEM_MMFF94_ENERGY>
60.8167

> <PUBCHEM_FEATURE_SELFOVERLAP>
45.674

> <PUBCHEM_SHAPE_FINGERPRINT>
107951 10 17458631051935687531
10803635 8 18187363169358513182
11014199 57 17688311608847981022
11552529 35 17772474735649482443
12422481 6 18122930847943520331
12555020 224 18413103953228713215
12596602 18 13470394540527319294
12633257 1 18130244712547588459
13402501 40 18413110537123622671
13544592 145 18410006637531853169
14251740 79 18335426712142575600
14251757 17 18264769865959196914
14910302 57 18335412474421233388
15927050 60 17263574205491208033
17357779 13 18121765390706820823
17627616 140 18191584147022024234
19141452 34 18339366365653124353
200 152 17775562026814033105
20693207 138 18410856564415383156
20775530 9 18051692449427518307
21344244 181 18126541601168732463
221490 88 18341054124839764216
22393880 68 18260827086245356138
23559900 14 18411697695284797880
3298306 158 18192702363178827967
4015057 19 18131059463443489152
44062 13 18408322207018850570
9709674 26 18340481278537998185

> <PUBCHEM_SHAPE_MULTIPOLES>
455.49
11.09
3.95
1.31
13.57
4.22
0.24
3.02
2.33
-2.79
0.77
-0.92
-0.52
2.01

> <PUBCHEM_SHAPE_SELFOVERLAP>
934.722

> <PUBCHEM_SHAPE_VOLUME>
259.1

> <PUBCHEM_COORDINATE_TYPE>
2
5
10

$$$$
