75536873
  -OEChem-12032416403D

 45 47  0     1  0  0  0  0  0999 V2000
   -5.5884    1.0414    0.2563 F   0  0  0  0  0  0  0  0  0  0  0  0
   -4.7155   -0.1380   -1.3409 F   0  0  0  0  0  0  0  0  0  0  0  0
   -4.9059    2.0166   -1.5635 F   0  0  0  0  0  0  0  0  0  0  0  0
    3.6907    3.2095    0.3513 O   0  0  0  0  0  0  0  0  0  0  0  0
    0.5449    1.7859    1.5892 O   0  0  0  0  0  0  0  0  0  0  0  0
    3.7078   -1.2444   -1.9505 O   0  0  0  0  0  0  0  0  0  0  0  0
    3.3568    0.2298   -0.1617 N   0  0  0  0  0  0  0  0  0  0  0  0
   -2.1080   -4.9580    0.9044 N   0  0  0  0  0  0  0  0  0  0  0  0
    1.6455    1.7983    0.6817 C   0  0  2  0  0  0  0  0  0  0  0  0
    2.5746    0.6336    1.0177 C   0  0  0  0  0  0  0  0  0  0  0  0
    4.4631    1.1115   -0.5426 C   0  0  0  0  0  0  0  0  0  0  0  0
    2.3244    3.1698    0.7436 C   0  0  0  0  0  0  0  0  0  0  0  0
    3.9964    2.5286   -0.8604 C   0  0  0  0  0  0  0  0  0  0  0  0
    3.0898   -0.9020   -0.9436 C   0  0  0  0  0  0  0  0  0  0  0  0
   -0.6957    1.6053    1.0427 C   0  0  0  0  0  0  0  0  0  0  0  0
    1.9751   -1.7708   -0.5466 C   0  0  0  0  0  0  0  0  0  0  0  0
   -1.1833    2.5148    0.1041 C   0  0  0  0  0  0  0  0  0  0  0  0
   -1.4738    0.5124    1.4246 C   0  0  0  0  0  0  0  0  0  0  0  0
    0.6937   -1.5327   -1.0436 C   0  0  0  0  0  0  0  0  0  0  0  0
    2.1979   -2.8354    0.3265 C   0  0  0  0  0  0  0  0  0  0  0  0
   -3.2270    1.2382   -0.0708 C   0  0  0  0  0  0  0  0  0  0  0  0
   -2.4489    2.3312   -0.4526 C   0  0  0  0  0  0  0  0  0  0  0  0
   -2.7394    0.3289    0.8679 C   0  0  0  0  0  0  0  0  0  0  0  0
   -0.3648   -2.3593   -0.6675 C   0  0  0  0  0  0  0  0  0  0  0  0
    1.1393   -3.6621    0.7028 C   0  0  0  0  0  0  0  0  0  0  0  0
   -0.1421   -3.4242    0.2057 C   0  0  0  0  0  0  0  0  0  0  0  0
   -4.5802    1.0416   -0.6655 C   0  0  0  0  0  0  0  0  0  0  0  0
   -1.2270   -4.2706    0.5912 C   0  0  0  0  0  0  0  0  0  0  0  0
    1.2916    1.6454   -0.3483 H   0  0  0  0  0  0  0  0  0  0  0  0
    3.2699    0.8958    1.8246 H   0  0  0  0  0  0  0  0  0  0  0  0
    1.9903   -0.2092    1.3959 H   0  0  0  0  0  0  0  0  0  0  0  0
    4.9800    0.7014   -1.4158 H   0  0  0  0  0  0  0  0  0  0  0  0
    5.1710    1.1154    0.2944 H   0  0  0  0  0  0  0  0  0  0  0  0
    1.7669    3.8901    0.1332 H   0  0  0  0  0  0  0  0  0  0  0  0
    2.2797    3.5597    1.7675 H   0  0  0  0  0  0  0  0  0  0  0  0
    4.8300    3.0722   -1.3176 H   0  0  0  0  0  0  0  0  0  0  0  0
    3.1587    2.5564   -1.5667 H   0  0  0  0  0  0  0  0  0  0  0  0
   -0.5961    3.3775   -0.1963 H   0  0  0  0  0  0  0  0  0  0  0  0
   -1.0981   -0.2000    2.1540 H   0  0  0  0  0  0  0  0  0  0  0  0
    0.5088   -0.7050   -1.7235 H   0  0  0  0  0  0  0  0  0  0  0  0
    3.1925   -3.0294    0.7198 H   0  0  0  0  0  0  0  0  0  0  0  0
   -2.8113    3.0521   -1.1801 H   0  0  0  0  0  0  0  0  0  0  0  0
   -3.3373   -0.5267    1.1705 H   0  0  0  0  0  0  0  0  0  0  0  0
   -1.3580   -2.1608   -1.0633 H   0  0  0  0  0  0  0  0  0  0  0  0
    1.3287   -4.4878    1.3845 H   0  0  0  0  0  0  0  0  0  0  0  0
  1 27  1  0  0  0  0
  2 27  1  0  0  0  0
  3 27  1  0  0  0  0
  4 12  1  0  0  0  0
  4 13  1  0  0  0  0
  5  9  1  0  0  0  0
  5 15  1  0  0  0  0
  6 14  2  0  0  0  0
  7 10  1  0  0  0  0
  7 11  1  0  0  0  0
  7 14  1  0  0  0  0
  8 28  3  0  0  0  0
  9 10  1  0  0  0  0
  9 12  1  0  0  0  0
  9 29  1  0  0  0  0
 10 30  1  0  0  0  0
 10 31  1  0  0  0  0
 11 13  1  0  0  0  0
 11 32  1  0  0  0  0
 11 33  1  0  0  0  0
 12 34  1  0  0  0  0
 12 35  1  0  0  0  0
 13 36  1  0  0  0  0
 13 37  1  0  0  0  0
 14 16  1  0  0  0  0
 15 17  2  0  0  0  0
 15 18  1  0  0  0  0
 16 19  2  0  0  0  0
 16 20  1  0  0  0  0
 17 22  1  0  0  0  0
 17 38  1  0  0  0  0
 18 23  2  0  0  0  0
 18 39  1  0  0  0  0
 19 24  1  0  0  0  0
 19 40  1  0  0  0  0
 20 25  2  0  0  0  0
 20 41  1  0  0  0  0
 21 22  2  0  0  0  0
 21 23  1  0  0  0  0
 21 27  1  0  0  0  0
 22 42  1  0  0  0  0
 23 43  1  0  0  0  0
 24 26  2  0  0  0  0
 24 44  1  0  0  0  0
 25 26  1  0  0  0  0
 25 45  1  0  0  0  0
 26 28  1  0  0  0  0
M  END
> <PUBCHEM_COMPOUND_CID>
75536873

> <PUBCHEM_CONFORMER_RMSD>
0.8

> <PUBCHEM_CONFORMER_DIVERSEORDER>
5
28
94
58
43
71
39
82
77
91
48
46
101
120
44
72
78
83
98
23
61
115
55
96
11
16
67
29
117
1
130
74
15
93
14
95
102
123
57
8
45
60
105
54
103
53
20
52
30
87
111
49
69
24
110
100
70
7
80
90
113
106
3
35
114
121
26
63
81
64
33
41
22
127
119
76
89
31
18
25
12
128
84
118
42
73
27
109
68
99
17
9
107
59
36
88
104
112
6
86
129
2
37
51
125
85
122
92
47
4
21
10
40
19
108
56
50
62
79
38
66
65
32
97
116
126
124
75
34
13

> <PUBCHEM_MMFF94_PARTIAL_CHARGES>
36
1 -0.34
10 0.3
11 0.3
12 0.28
13 0.28
14 0.54
15 0.08
16 0.09
17 -0.15
18 -0.15
19 -0.15
2 -0.34
20 -0.15
21 -0.14
22 -0.15
23 -0.15
24 -0.15
25 -0.15
26 0.07
27 1.16
28 0.48
3 -0.34
38 0.15
39 0.15
4 -0.56
40 0.15
41 0.15
42 0.15
43 0.15
44 0.15
45 0.15
5 -0.36
6 -0.57
7 -0.66
8 -0.56
9 0.28

> <PUBCHEM_EFFECTIVE_ROTOR_COUNT>
6.4

> <PUBCHEM_PHARMACOPHORE_FEATURES>
7
1 4 acceptor
1 5 acceptor
1 6 acceptor
1 8 acceptor
6 15 17 18 21 22 23 rings
6 16 19 20 24 25 26 rings
7 4 7 9 10 11 12 13 rings

> <PUBCHEM_HEAVY_ATOM_COUNT>
28

> <PUBCHEM_ATOM_DEF_STEREO_COUNT>
1

> <PUBCHEM_ATOM_UDEF_STEREO_COUNT>
0

> <PUBCHEM_BOND_DEF_STEREO_COUNT>
0

> <PUBCHEM_BOND_UDEF_STEREO_COUNT>
0

> <PUBCHEM_ISOTOPIC_ATOM_COUNT>
0

> <PUBCHEM_COMPONENT_COUNT>
1

> <PUBCHEM_CACTVS_TAUTO_COUNT>
1

> <PUBCHEM_CONFORMER_ID>
048099E900000005

> <PUBCHEM_MMFF94_ENERGY>
80.9543

> <PUBCHEM_FEATURE_SELFOVERLAP>
35.524

> <PUBCHEM_SHAPE_FINGERPRINT>
10688039 33 17543071633245578842
108634 29 18342462590218080806
1100329 8 18411134702302764058
11014199 57 16897648988047513563
11370993 70 18408323289250213564
12553582 1 17403758648482786048
12788726 201 17540806626618020162
13140716 1 18199190779411209432
13402501 40 17836651090606581083
1361 2 18336824290496493981
15276724 80 17116358915081477044
17138139 8 17773292729603953053
17492 54 18340503179203825804
18681886 176 18050278172442278514
19930381 70 18265330603962548457
20775438 99 18129641093707642943
21304304 249 18339912711774844866
21360442 67 18334849516684843263
21792965 270 15883228122435542488
22113638 7 15743324420202312954
22393880 68 18054232020760932492
23516275 137 17058959760571035919
23559900 14 18120364359600733345
238 59 18336835173526273578
3298306 158 18412257346212712201
4058900 60 18336836298845154309
463206 1 18272926111928332165
484989 97 18338530719235887543
6376802 137 17202487689611227762

> <PUBCHEM_SHAPE_MULTIPOLES>
526.84
8.51
5.85
1.34
6.12
6.53
-0.14
-6.49
-3.4
-0.17
1.34
0.08
-0.11
1.27

> <PUBCHEM_SHAPE_SELFOVERLAP>
1131.079

> <PUBCHEM_SHAPE_VOLUME>
289.6

> <PUBCHEM_COORDINATE_TYPE>
2
5
10

$$$$
