7114682
  -OEChem-12032416193D

 66 67  0     1  0  0  0  0  0999 V2000
    7.2554   -1.9298   -0.1013 F   0  0  0  0  0  0  0  0  0  0  0  0
   -2.2527   -0.4910    1.7986 O   0  0  0  0  0  0  0  0  0  0  0  0
   -4.0949    3.1052    1.4564 O   0  0  0  0  0  0  0  0  0  0  0  0
    2.9957   -0.0468    0.5660 O   0  0  0  0  0  0  0  0  0  0  0  0
   -2.5713   -4.8036    0.7685 O   0  0  0  0  0  0  0  0  0  0  0  0
   -3.4151   -3.0668   -0.4786 O   0  0  0  0  0  0  0  0  0  0  0  0
   -7.8309    2.2931   -1.6178 O   0  0  0  0  0  0  0  0  0  0  0  0
   -6.1374    1.0310   -2.4565 O   0  0  0  0  0  0  0  0  0  0  0  0
   -2.2161    1.9054    0.7842 N   0  0  0  0  0  0  0  0  0  0  0  0
    2.0133    2.0345    0.3476 N   0  0  0  0  0  0  0  0  0  0  0  0
   -1.2146   -1.4992   -0.0248 N   0  0  0  0  0  0  0  0  0  0  0  0
    4.2391    1.8043   -0.1675 N   0  0  0  0  0  0  0  0  0  0  0  0
    0.6915    1.6419    0.7726 C   0  0  2  0  0  0  0  0  0  0  0  0
   -1.6008    0.8655   -0.0564 C   0  0  1  0  0  0  0  0  0  0  0  0
   -0.1449    1.1673   -0.4190 C   0  0  0  0  0  0  0  0  0  0  0  0
   -0.0097    2.7964    1.4851 C   0  0  0  0  0  0  0  0  0  0  0  0
   -1.4159    2.3971    1.9122 C   0  0  0  0  0  0  0  0  0  0  0  0
   -1.7406   -0.4326    0.6838 C   0  0  0  0  0  0  0  0  0  0  0  0
   -3.5439    2.3333    0.6669 C   0  0  0  0  0  0  0  0  0  0  0  0
   -1.2039   -2.8539    0.4780 C   0  0  2  0  0  0  0  0  0  0  0  0
   -4.3244    1.8116   -0.5141 C   0  0  0  0  0  0  0  0  0  0  0  0
    0.0008   -3.6674   -0.0430 C   0  0  0  0  0  0  0  0  0  0  0  0
    3.0897    1.1430    0.2740 C   0  0  0  0  0  0  0  0  0  0  0  0
   -5.7322    2.3708   -0.4867 C   0  0  0  0  0  0  0  0  0  0  0  0
   -2.5201   -3.5693    0.1934 C   0  0  0  0  0  0  0  0  0  0  0  0
   -0.1249   -3.9458   -1.5438 C   0  0  0  0  0  0  0  0  0  0  0  0
    1.3514   -3.0076    0.2549 C   0  0  0  0  0  0  0  0  0  0  0  0
   -6.5623    1.8138   -1.6167 C   0  0  0  0  0  0  0  0  0  0  0  0
    5.5285    1.2604   -0.3736 C   0  0  0  0  0  0  0  0  0  0  0  0
   -3.7778   -5.5424    0.5506 C   0  0  0  0  0  0  0  0  0  0  0  0
    5.7611   -0.0932   -0.1303 C   0  0  0  0  0  0  0  0  0  0  0  0
    6.5669    2.0773   -0.8209 C   0  0  0  0  0  0  0  0  0  0  0  0
    7.0323   -0.6300   -0.3346 C   0  0  0  0  0  0  0  0  0  0  0  0
    7.8380    1.5405   -1.0250 C   0  0  0  0  0  0  0  0  0  0  0  0
    8.0707    0.1869   -0.7819 C   0  0  0  0  0  0  0  0  0  0  0  0
    0.8003    0.8078    1.4779 H   0  0  0  0  0  0  0  0  0  0  0  0
   -2.1579    0.7550   -0.9910 H   0  0  0  0  0  0  0  0  0  0  0  0
    0.3506    0.3201   -0.9059 H   0  0  0  0  0  0  0  0  0  0  0  0
   -0.1495    1.9692   -1.1716 H   0  0  0  0  0  0  0  0  0  0  0  0
   -0.0639    3.6680    0.8193 H   0  0  0  0  0  0  0  0  0  0  0  0
    0.5690    3.1074    2.3631 H   0  0  0  0  0  0  0  0  0  0  0  0
   -1.3734    1.6159    2.6781 H   0  0  0  0  0  0  0  0  0  0  0  0
   -1.9057    3.2605    2.3751 H   0  0  0  0  0  0  0  0  0  0  0  0
    2.1520    2.9848    0.0173 H   0  0  0  0  0  0  0  0  0  0  0  0
   -0.9368   -1.3536   -0.9901 H   0  0  0  0  0  0  0  0  0  0  0  0
   -1.1321   -2.7833    1.5716 H   0  0  0  0  0  0  0  0  0  0  0  0
   -4.3564    0.7172   -0.4675 H   0  0  0  0  0  0  0  0  0  0  0  0
   -3.8217    2.1140   -1.4397 H   0  0  0  0  0  0  0  0  0  0  0  0
    0.0008   -4.6409    0.4656 H   0  0  0  0  0  0  0  0  0  0  0  0
   -6.2333    2.1082    0.4524 H   0  0  0  0  0  0  0  0  0  0  0  0
   -5.7136    3.4624   -0.5854 H   0  0  0  0  0  0  0  0  0  0  0  0
   -0.1189   -3.0245   -2.1347 H   0  0  0  0  0  0  0  0  0  0  0  0
    0.7168   -4.5582   -1.8869 H   0  0  0  0  0  0  0  0  0  0  0  0
   -1.0386   -4.4991   -1.7817 H   0  0  0  0  0  0  0  0  0  0  0  0
    2.1758   -3.6743   -0.0193 H   0  0  0  0  0  0  0  0  0  0  0  0
    1.4448   -2.7787    1.3214 H   0  0  0  0  0  0  0  0  0  0  0  0
    1.4735   -2.0780   -0.3093 H   0  0  0  0  0  0  0  0  0  0  0  0
    4.1467    2.7974   -0.3657 H   0  0  0  0  0  0  0  0  0  0  0  0
   -4.6331   -5.0025    0.9676 H   0  0  0  0  0  0  0  0  0  0  0  0
   -3.9201   -5.7273   -0.5185 H   0  0  0  0  0  0  0  0  0  0  0  0
   -3.6851   -6.5033    1.0636 H   0  0  0  0  0  0  0  0  0  0  0  0
    5.0098   -0.7884    0.2158 H   0  0  0  0  0  0  0  0  0  0  0  0
    6.3990    3.1336   -1.0144 H   0  0  0  0  0  0  0  0  0  0  0  0
   -8.3579    1.9326   -2.3624 H   0  0  0  0  0  0  0  0  0  0  0  0
    8.6467    2.1764   -1.3734 H   0  0  0  0  0  0  0  0  0  0  0  0
    9.0602   -0.2313   -0.9409 H   0  0  0  0  0  0  0  0  0  0  0  0
  1 33  1  0  0  0  0
  2 18  2  0  0  0  0
  3 19  2  0  0  0  0
  4 23  2  0  0  0  0
  5 25  1  0  0  0  0
  5 30  1  0  0  0  0
  6 25  2  0  0  0  0
  7 28  1  0  0  0  0
  7 64  1  0  0  0  0
  8 28  2  0  0  0  0
  9 14  1  0  0  0  0
  9 17  1  0  0  0  0
  9 19  1  0  0  0  0
 10 13  1  0  0  0  0
 10 23  1  0  0  0  0
 10 44  1  0  0  0  0
 11 18  1  0  0  0  0
 11 20  1  0  0  0  0
 11 45  1  0  0  0  0
 12 23  1  0  0  0  0
 12 29  1  0  0  0  0
 12 58  1  0  0  0  0
 13 15  1  0  0  0  0
 13 16  1  0  0  0  0
 13 36  1  0  0  0  0
 14 15  1  0  0  0  0
 14 18  1  0  0  0  0
 14 37  1  0  0  0  0
 15 38  1  0  0  0  0
 15 39  1  0  0  0  0
 16 17  1  0  0  0  0
 16 40  1  0  0  0  0
 16 41  1  0  0  0  0
 17 42  1  0  0  0  0
 17 43  1  0  0  0  0
 19 21  1  0  0  0  0
 20 22  1  0  0  0  0
 20 25  1  0  0  0  0
 20 46  1  0  0  0  0
 21 24  1  0  0  0  0
 21 47  1  0  0  0  0
 21 48  1  0  0  0  0
 22 26  1  0  0  0  0
 22 27  1  0  0  0  0
 22 49  1  0  0  0  0
 24 28  1  0  0  0  0
 24 50  1  0  0  0  0
 24 51  1  0  0  0  0
 26 52  1  0  0  0  0
 26 53  1  0  0  0  0
 26 54  1  0  0  0  0
 27 55  1  0  0  0  0
 27 56  1  0  0  0  0
 27 57  1  0  0  0  0
 29 31  2  0  0  0  0
 29 32  1  0  0  0  0
 30 59  1  0  0  0  0
 30 60  1  0  0  0  0
 30 61  1  0  0  0  0
 31 33  1  0  0  0  0
 31 62  1  0  0  0  0
 32 34  2  0  0  0  0
 32 63  1  0  0  0  0
 33 35  2  0  0  0  0
 34 35  1  0  0  0  0
 34 65  1  0  0  0  0
 35 66  1  0  0  0  0
M  END
> <PUBCHEM_COMPOUND_CID>
7114682

> <PUBCHEM_CONFORMER_RMSD>
1.2

> <PUBCHEM_CONFORMER_DIVERSEORDER>
1
69
46
66
52
49
44
22
65
5
35
6
20
58
28
59
30
68
33
16
14
19
40
67
13
8
32
54
24
39
42
18
31
10
56
55
27
23
57
45
63
38
26
47
51
37
3
41
4
62
29
9
48
21
61
17
34
50
12
60
36
25
43
53
11
7
2
64
15

> <PUBCHEM_MMFF94_PARTIAL_CHARGES>
38
1 -0.19
10 -0.73
11 -0.73
12 -0.55
13 0.3
14 0.36
17 0.3
18 0.57
19 0.57
2 -0.57
20 0.36
21 0.06
23 0.69
24 0.06
25 0.66
28 0.66
29 0.12
3 -0.57
30 0.28
31 -0.15
32 -0.15
33 0.19
34 -0.15
35 -0.15
4 -0.57
44 0.37
45 0.37
5 -0.43
58 0.37
6 -0.57
62 0.15
63 0.15
64 0.5
65 0.15
66 0.15
7 -0.65
8 -0.57
9 -0.66

> <PUBCHEM_EFFECTIVE_ROTOR_COUNT>
15.2

> <PUBCHEM_PHARMACOPHORE_FEATURES>
13
1 10 donor
1 11 donor
1 12 donor
1 2 acceptor
1 3 acceptor
1 4 acceptor
1 6 acceptor
1 7 acceptor
1 8 acceptor
3 22 26 27 hydrophobe
3 7 8 28 anion
6 29 31 32 33 34 35 rings
6 9 13 14 15 16 17 rings

> <PUBCHEM_HEAVY_ATOM_COUNT>
35

> <PUBCHEM_ATOM_DEF_STEREO_COUNT>
3

> <PUBCHEM_ATOM_UDEF_STEREO_COUNT>
0

> <PUBCHEM_BOND_DEF_STEREO_COUNT>
0

> <PUBCHEM_BOND_UDEF_STEREO_COUNT>
0

> <PUBCHEM_ISOTOPIC_ATOM_COUNT>
0

> <PUBCHEM_COMPONENT_COUNT>
1

> <PUBCHEM_CACTVS_TAUTO_COUNT>
6

> <PUBCHEM_CONFORMER_ID>
006C8FBA00000001

> <PUBCHEM_MMFF94_ENERGY>
75.5304

> <PUBCHEM_FEATURE_SELFOVERLAP>
66.083

> <PUBCHEM_SHAPE_FINGERPRINT>
10483366 6 18342169012487571527
11135609 187 18338511929044137401
11991303 11 18187359948217573927
12522641 33 18335416817276722253
13540713 4 17984130732491904240
13911987 19 18409445848195239281
14866123 147 18341623658587972395
15276724 80 18050578631790699620
15439362 3 18120374251274822101
15927050 60 18342181016367418723
16067689 391 18059001926052559039
19301676 85 18268153054865012566
20721686 146 14563081465554649949
21344244 246 18268988692212195103
23559900 14 18272083950510100816
23569943 247 14043528115349180124
23576562 1 17968940919567625629
249057 3 18333735719643017036
3633792 109 18266177236253150388
4017518 198 18341899563271720734
4073 2 18342177821903638064
4409770 3 18338804519759434331
44802255 64 17749389256563831853
45266715 3 18269839722353869775
484989 97 18340203111492934785
4874694 18 18342453752124808124
5085150 59 18272644637220887222
563151 97 18195809566534910553
59755656 520 18409445869073535493

> <PUBCHEM_SHAPE_MULTIPOLES>
652
19.3
6.36
1.46
28.56
10.41
0.22
-11.99
11.01
-10.04
-0.84
-2.24
-0.82
1.26

> <PUBCHEM_SHAPE_SELFOVERLAP>
1342.125

> <PUBCHEM_SHAPE_VOLUME>
372.3

> <PUBCHEM_COORDINATE_TYPE>
2
5
10

$$$$
