26743171
  -OEChem-12032416193D

 64 67  0     1  0  0  0  0  0999 V2000
   -3.8125   -1.7672    1.4593 O   0  0  0  0  0  0  0  0  0  0  0  0
    0.4535    3.2943   -0.2727 O   0  0  0  0  0  0  0  0  0  0  0  0
    3.1717    1.2837   -0.5628 O   0  0  0  0  0  0  0  0  0  0  0  0
    2.9006   -2.4999    0.0075 O   0  0  0  0  0  0  0  0  0  0  0  0
   -4.2611    3.5051    0.2896 N   0  0  0  0  0  0  0  0  0  0  0  0
   -3.4002   -2.7158   -0.6218 N   0  0  0  0  0  0  0  0  0  0  0  0
   -0.8851    3.1307   -0.6079 N   0  0  0  0  0  0  0  0  0  0  0  0
   -4.7485    0.6194    0.1872 C   0  0  1  0  0  0  0  0  0  0  0  0
   -3.3324    1.1948    0.4302 C   0  0  2  0  0  0  0  0  0  0  0  0
   -5.6301    1.6262   -0.5669 C   0  0  0  0  0  0  0  0  0  0  0  0
   -3.4502    2.5829    1.0867 C   0  0  0  0  0  0  0  0  0  0  0  0
   -5.6205    2.9955    0.1119 C   0  0  0  0  0  0  0  0  0  0  0  0
   -2.4654    1.2630   -0.8341 C   0  0  0  0  0  0  0  0  0  0  0  0
   -4.7407   -0.7342   -0.5215 C   0  0  0  0  0  0  0  0  0  0  0  0
   -1.1018    1.8144   -0.5333 C   0  0  0  0  0  0  0  0  0  0  0  0
   -3.9460   -1.7745    0.2386 C   0  0  0  0  0  0  0  0  0  0  0  0
    0.0520    1.1041   -0.1592 C   0  0  0  0  0  0  0  0  0  0  0  0
    1.0007    2.0805   -0.0076 C   0  0  0  0  0  0  0  0  0  0  0  0
   -2.5913   -3.8240   -0.1687 C   0  0  0  0  0  0  0  0  0  0  0  0
    2.4199    2.0692    0.3665 C   0  0  0  0  0  0  0  0  0  0  0  0
   -1.1323   -3.4726   -0.1222 C   0  0  0  0  0  0  0  0  0  0  0  0
   -0.3958   -3.3920   -1.3042 C   0  0  0  0  0  0  0  0  0  0  0  0
   -0.5134   -3.2263    1.1033 C   0  0  0  0  0  0  0  0  0  0  0  0
    0.9595   -3.0655   -1.2606 C   0  0  0  0  0  0  0  0  0  0  0  0
    0.8420   -2.8998    1.1470 C   0  0  0  0  0  0  0  0  0  0  0  0
    4.5037    1.1340   -0.2959 C   0  0  0  0  0  0  0  0  0  0  0  0
    1.5784   -2.8194   -0.0349 C   0  0  0  0  0  0  0  0  0  0  0  0
    5.0603    1.7325    0.8343 C   0  0  0  0  0  0  0  0  0  0  0  0
    5.3067    0.3828   -1.1542 C   0  0  0  0  0  0  0  0  0  0  0  0
    6.4199    1.5799    1.1063 C   0  0  0  0  0  0  0  0  0  0  0  0
    6.6661    0.2301   -0.8821 C   0  0  0  0  0  0  0  0  0  0  0  0
    7.2227    0.8289    0.2481 C   0  0  0  0  0  0  0  0  0  0  0  0
    3.4697   -2.2609    1.2940 C   0  0  0  0  0  0  0  0  0  0  0  0
   -5.2070    0.4730    1.1767 H   0  0  0  0  0  0  0  0  0  0  0  0
   -2.8140    0.5551    1.1566 H   0  0  0  0  0  0  0  0  0  0  0  0
   -6.6616    1.2560   -0.6115 H   0  0  0  0  0  0  0  0  0  0  0  0
   -5.2902    1.7281   -1.6051 H   0  0  0  0  0  0  0  0  0  0  0  0
   -3.9247    2.4674    2.0711 H   0  0  0  0  0  0  0  0  0  0  0  0
   -2.4827    3.0370    1.3120 H   0  0  0  0  0  0  0  0  0  0  0  0
   -6.1898    3.7073   -0.4960 H   0  0  0  0  0  0  0  0  0  0  0  0
   -6.1267    2.9410    1.0833 H   0  0  0  0  0  0  0  0  0  0  0  0
   -2.9368    1.8604   -1.6228 H   0  0  0  0  0  0  0  0  0  0  0  0
   -2.3267    0.2601   -1.2544 H   0  0  0  0  0  0  0  0  0  0  0  0
   -4.3694   -0.6335   -1.5475 H   0  0  0  0  0  0  0  0  0  0  0  0
   -5.7666   -1.1162   -0.5982 H   0  0  0  0  0  0  0  0  0  0  0  0
   -3.8277    3.6407   -0.6228 H   0  0  0  0  0  0  0  0  0  0  0  0
    0.1756    0.0415   -0.0187 H   0  0  0  0  0  0  0  0  0  0  0  0
   -3.5605   -2.6327   -1.6214 H   0  0  0  0  0  0  0  0  0  0  0  0
   -2.7537   -4.6588   -0.8599 H   0  0  0  0  0  0  0  0  0  0  0  0
   -2.9469   -4.1495    0.8159 H   0  0  0  0  0  0  0  0  0  0  0  0
    2.7974    3.0996    0.3766 H   0  0  0  0  0  0  0  0  0  0  0  0
    2.4822    1.6332    1.3720 H   0  0  0  0  0  0  0  0  0  0  0  0
   -0.8676   -3.5810   -2.2649 H   0  0  0  0  0  0  0  0  0  0  0  0
   -1.0765   -3.2831    2.0311 H   0  0  0  0  0  0  0  0  0  0  0  0
    1.5279   -3.0032   -2.1844 H   0  0  0  0  0  0  0  0  0  0  0  0
    1.2588   -2.7188    2.1318 H   0  0  0  0  0  0  0  0  0  0  0  0
    4.5021    2.3331    1.5438 H   0  0  0  0  0  0  0  0  0  0  0  0
    4.8781   -0.0867   -2.0353 H   0  0  0  0  0  0  0  0  0  0  0  0
    6.8547    2.0463    1.9857 H   0  0  0  0  0  0  0  0  0  0  0  0
    7.2912   -0.3553   -1.5501 H   0  0  0  0  0  0  0  0  0  0  0  0
    8.2813    0.7100    0.4598 H   0  0  0  0  0  0  0  0  0  0  0  0
    4.5286   -2.0277    1.1414 H   0  0  0  0  0  0  0  0  0  0  0  0
    3.4282   -3.1548    1.9255 H   0  0  0  0  0  0  0  0  0  0  0  0
    3.0164   -1.3889    1.7776 H   0  0  0  0  0  0  0  0  0  0  0  0
  1 16  2  0  0  0  0
  2  7  1  0  0  0  0
  2 18  1  0  0  0  0
  3 20  1  0  0  0  0
  3 26  1  0  0  0  0
  4 27  1  0  0  0  0
  4 33  1  0  0  0  0
  5 11  1  0  0  0  0
  5 12  1  0  0  0  0
  5 46  1  0  0  0  0
  6 16  1  0  0  0  0
  6 19  1  0  0  0  0
  6 48  1  0  0  0  0
  7 15  2  0  0  0  0
  8  9  1  0  0  0  0
  8 10  1  0  0  0  0
  8 14  1  0  0  0  0
  8 34  1  0  0  0  0
  9 11  1  0  0  0  0
  9 13  1  0  0  0  0
  9 35  1  0  0  0  0
 10 12  1  0  0  0  0
 10 36  1  0  0  0  0
 10 37  1  0  0  0  0
 11 38  1  0  0  0  0
 11 39  1  0  0  0  0
 12 40  1  0  0  0  0
 12 41  1  0  0  0  0
 13 15  1  0  0  0  0
 13 42  1  0  0  0  0
 13 43  1  0  0  0  0
 14 16  1  0  0  0  0
 14 44  1  0  0  0  0
 14 45  1  0  0  0  0
 15 17  1  0  0  0  0
 17 18  2  0  0  0  0
 17 47  1  0  0  0  0
 18 20  1  0  0  0  0
 19 21  1  0  0  0  0
 19 49  1  0  0  0  0
 19 50  1  0  0  0  0
 20 51  1  0  0  0  0
 20 52  1  0  0  0  0
 21 22  2  0  0  0  0
 21 23  1  0  0  0  0
 22 24  1  0  0  0  0
 22 53  1  0  0  0  0
 23 25  2  0  0  0  0
 23 54  1  0  0  0  0
 24 27  2  0  0  0  0
 24 55  1  0  0  0  0
 25 27  1  0  0  0  0
 25 56  1  0  0  0  0
 26 28  2  0  0  0  0
 26 29  1  0  0  0  0
 28 30  1  0  0  0  0
 28 57  1  0  0  0  0
 29 31  2  0  0  0  0
 29 58  1  0  0  0  0
 30 32  2  0  0  0  0
 30 59  1  0  0  0  0
 31 32  1  0  0  0  0
 31 60  1  0  0  0  0
 32 61  1  0  0  0  0
 33 62  1  0  0  0  0
 33 63  1  0  0  0  0
 33 64  1  0  0  0  0
M  END
> <PUBCHEM_COMPOUND_CID>
26743171

> <PUBCHEM_CONFORMER_RMSD>
1.4

> <PUBCHEM_CONFORMER_DIVERSEORDER>
1
100
144
78
32
15
92
44
53
54
81
114
126
96
23
35
34
49
42
122
104
74
63
6
9
29
4
130
72
79
117
24
86
125
28
85
97
45
26
121
106
39
2
27
75
98
145
52
36
11
17
99
16
90
113
47
21
94
93
95
20
133
127
60
132
84
56
13
10
30
147
112
67
111
19
119
120
135
123
38
22
116
82
124
51
66
148
71
131
68
7
137
101
102
139
31
61
25
18
115
141
64
46
70
77
105
58
59
55
134
14
33
8
40
80
41
88
3
91
118
48
143
73
140
83
136
50
5
129
12
37
107
110
128
89
43
142
62
57
69
65
103
109
87
146
138
108
76

> <PUBCHEM_MMFF94_PARTIAL_CHARGES>
42
1 -0.57
11 0.27
12 0.27
13 0.18
14 0.06
15 0.11
16 0.57
17 -0.15
18 -0.04
19 0.44
2 -0.02
20 0.46
21 -0.14
22 -0.15
23 -0.15
24 -0.15
25 -0.15
26 0.08
27 0.08
28 -0.15
29 -0.15
3 -0.36
30 -0.15
31 -0.15
32 -0.15
33 0.28
4 -0.36
46 0.36
47 0.15
48 0.37
5 -0.9
53 0.15
54 0.15
55 0.15
56 0.15
57 0.15
58 0.15
59 0.15
6 -0.73
60 0.15
61 0.15
7 -0.41

> <PUBCHEM_EFFECTIVE_ROTOR_COUNT>
12.2

> <PUBCHEM_PHARMACOPHORE_FEATURES>
11
1 1 acceptor
1 3 acceptor
1 4 acceptor
1 5 cation
1 5 donor
1 6 donor
1 7 acceptor
5 2 7 15 17 18 rings
6 21 22 23 24 25 27 rings
6 26 28 29 30 31 32 rings
6 5 8 9 10 11 12 rings

> <PUBCHEM_HEAVY_ATOM_COUNT>
33

> <PUBCHEM_ATOM_DEF_STEREO_COUNT>
2

> <PUBCHEM_ATOM_UDEF_STEREO_COUNT>
0

> <PUBCHEM_BOND_DEF_STEREO_COUNT>
0

> <PUBCHEM_BOND_UDEF_STEREO_COUNT>
0

> <PUBCHEM_ISOTOPIC_ATOM_COUNT>
0

> <PUBCHEM_COMPONENT_COUNT>
1

> <PUBCHEM_CACTVS_TAUTO_COUNT>
2

> <PUBCHEM_CONFORMER_ID>
0198118300000001

> <PUBCHEM_MMFF94_ENERGY>
76.2227

> <PUBCHEM_FEATURE_SELFOVERLAP>
55.823

> <PUBCHEM_SHAPE_FINGERPRINT>
10675989 125 17615119984946766477
10864689 126 18268155262488057356
11135609 187 18264759979673060245
11135926 11 18337104575814593661
11513181 2 18202282481054071015
11524674 6 18201998845686898957
12422481 6 18337941347202623146
12788726 201 17904773528386238132
13140716 1 18264209119303152739
13402501 40 18340771532971070582
1361 2 18337674096524346929
14394314 77 18411418397218618304
144659 178 18192156107805848308
14725015 67 18123187072485542307
14790565 3 18267304227197288841
14866123 147 18338233885513979834
15297060 5 18202567271718614450
15439362 3 18121779423088364773
15790856 291 18194692690053793942
15927050 60 18341328903735659247
15968369 153 17982732171054879726
16112460 7 18338238141736406074
17627616 140 18261101938066453010
19311894 1 18050565436997772683
20642791 35 18121787127652200775
20721686 56 18407761451952258955
20764821 26 18264195933653405155
20771845 165 17825378575872453421
21796203 349 17043208989877717971
238918 7 18130235955468143702
3383291 50 18265050413170893515
338550 245 18261959660504827676
4073 2 18341893030758487416
4144715 1 18334585663295349458
5085150 59 18341887506670415267
5265222 85 18264219165010527980

> <PUBCHEM_SHAPE_MULTIPOLES>
640.7
14.87
5.85
1.15
15.61
3.4
-0.09
-10.46
-0.53
-4.38
-0.12
0.47
0.48
-0.04

> <PUBCHEM_SHAPE_SELFOVERLAP>
1359.476

> <PUBCHEM_SHAPE_VOLUME>
356.1

> <PUBCHEM_COORDINATE_TYPE>
2
5
10

$$$$
