11884208
  -OEChem-12032416133D

 49 53  0     1  0  0  0  0  0999 V2000
    6.3671    0.5742    1.1072 S   0  0  0  0  0  0  0  0  0  0  0  0
    2.0054    2.2752    0.5475 O   0  0  0  0  0  0  0  0  0  0  0  0
   -0.9185   -2.1177    0.8354 O   0  0  0  0  0  0  0  0  0  0  0  0
    4.9643    1.1435   -1.9874 O   0  0  0  0  0  0  0  0  0  0  0  0
    0.6781   -0.6849   -0.0292 N   0  0  0  0  0  0  0  0  0  0  0  0
    3.4253   -0.0431   -0.7305 N   0  0  0  0  0  0  0  0  0  0  0  0
   -0.2445    2.0093    0.7713 N   0  0  0  0  0  0  0  0  0  0  0  0
    0.9843    0.5298   -0.7712 C   0  0  2  0  0  0  0  0  0  0  0  0
    2.3044    0.4345   -1.5456 C   0  0  0  0  0  0  0  0  0  0  0  0
    1.7560   -1.6613    0.1338 C   0  0  0  0  0  0  0  0  0  0  0  0
    3.1013   -0.9837    0.3497 C   0  0  0  0  0  0  0  0  0  0  0  0
    0.9825    1.6533    0.2532 C   0  0  0  0  0  0  0  0  0  0  0  0
   -0.6106   -1.0160    0.3776 C   0  0  0  0  0  0  0  0  0  0  0  0
   -1.6795    0.0148    0.2914 C   0  0  0  0  0  0  0  0  0  0  0  0
   -1.4904    1.3769    0.5770 C   0  0  0  0  0  0  0  0  0  0  0  0
    4.7347    0.3503   -1.0723 C   0  0  0  0  0  0  0  0  0  0  0  0
   -2.9836   -0.4709    0.0825 C   0  0  0  0  0  0  0  0  0  0  0  0
   -2.6176    2.2057    0.7156 C   0  0  0  0  0  0  0  0  0  0  0  0
   -4.0870    0.3763    0.1759 C   0  0  0  0  0  0  0  0  0  0  0  0
    5.8325   -0.2296   -0.3026 C   0  0  0  0  0  0  0  0  0  0  0  0
   -3.9051    1.7127    0.5063 C   0  0  0  0  0  0  0  0  0  0  0  0
   -5.4197   -0.1406   -0.0470 C   0  0  0  0  0  0  0  0  0  0  0  0
    6.5376   -1.3813   -0.5504 C   0  0  0  0  0  0  0  0  0  0  0  0
    7.5388   -1.6116    0.4368 C   0  0  0  0  0  0  0  0  0  0  0  0
   -6.1509   -0.6672    1.0181 C   0  0  0  0  0  0  0  0  0  0  0  0
   -5.9744   -0.1121   -1.3267 C   0  0  0  0  0  0  0  0  0  0  0  0
    7.5552   -0.6243    1.3973 C   0  0  0  0  0  0  0  0  0  0  0  0
   -7.4359   -1.1653    0.8036 C   0  0  0  0  0  0  0  0  0  0  0  0
   -7.2596   -0.6102   -1.5411 C   0  0  0  0  0  0  0  0  0  0  0  0
   -7.9903   -1.1367   -0.4759 C   0  0  0  0  0  0  0  0  0  0  0  0
    0.1843    0.7252   -1.4961 H   0  0  0  0  0  0  0  0  0  0  0  0
    2.1993   -0.2841   -2.3683 H   0  0  0  0  0  0  0  0  0  0  0  0
    2.5565    1.4014   -1.9955 H   0  0  0  0  0  0  0  0  0  0  0  0
    1.5314   -2.3274    0.9736 H   0  0  0  0  0  0  0  0  0  0  0  0
    1.7728   -2.2744   -0.7755 H   0  0  0  0  0  0  0  0  0  0  0  0
    3.8809   -1.7448    0.4374 H   0  0  0  0  0  0  0  0  0  0  0  0
    3.0925   -0.4055    1.2810 H   0  0  0  0  0  0  0  0  0  0  0  0
   -0.2663    2.8924    1.2758 H   0  0  0  0  0  0  0  0  0  0  0  0
   -3.1428   -1.5253   -0.1405 H   0  0  0  0  0  0  0  0  0  0  0  0
   -2.5001    3.2596    0.9613 H   0  0  0  0  0  0  0  0  0  0  0  0
   -4.7517    2.3883    0.6013 H   0  0  0  0  0  0  0  0  0  0  0  0
    6.3506   -2.0324   -1.3949 H   0  0  0  0  0  0  0  0  0  0  0  0
    8.2125   -2.4586    0.4424 H   0  0  0  0  0  0  0  0  0  0  0  0
   -5.7338   -0.6970    2.0220 H   0  0  0  0  0  0  0  0  0  0  0  0
   -5.4184    0.2948   -2.1682 H   0  0  0  0  0  0  0  0  0  0  0  0
    8.2081   -0.5495    2.2555 H   0  0  0  0  0  0  0  0  0  0  0  0
   -8.0050   -1.5754    1.6328 H   0  0  0  0  0  0  0  0  0  0  0  0
   -7.6915   -0.5881   -2.5374 H   0  0  0  0  0  0  0  0  0  0  0  0
   -8.9909   -1.5245   -0.6430 H   0  0  0  0  0  0  0  0  0  0  0  0
  1 20  1  0  0  0  0
  1 27  1  0  0  0  0
  2 12  2  0  0  0  0
  3 13  2  0  0  0  0
  4 16  2  0  0  0  0
  5  8  1  0  0  0  0
  5 10  1  0  0  0  0
  5 13  1  0  0  0  0
  6  9  1  0  0  0  0
  6 11  1  0  0  0  0
  6 16  1  0  0  0  0
  7 12  1  0  0  0  0
  7 15  1  0  0  0  0
  7 38  1  0  0  0  0
  8  9  1  0  0  0  0
  8 12  1  0  0  0  0
  8 31  1  0  0  0  0
  9 32  1  0  0  0  0
  9 33  1  0  0  0  0
 10 11  1  0  0  0  0
 10 34  1  0  0  0  0
 10 35  1  0  0  0  0
 11 36  1  0  0  0  0
 11 37  1  0  0  0  0
 13 14  1  0  0  0  0
 14 15  2  0  0  0  0
 14 17  1  0  0  0  0
 15 18  1  0  0  0  0
 16 20  1  0  0  0  0
 17 19  2  0  0  0  0
 17 39  1  0  0  0  0
 18 21  2  0  0  0  0
 18 40  1  0  0  0  0
 19 21  1  0  0  0  0
 19 22  1  0  0  0  0
 20 23  2  0  0  0  0
 21 41  1  0  0  0  0
 22 25  2  0  0  0  0
 22 26  1  0  0  0  0
 23 24  1  0  0  0  0
 23 42  1  0  0  0  0
 24 27  2  0  0  0  0
 24 43  1  0  0  0  0
 25 28  1  0  0  0  0
 25 44  1  0  0  0  0
 26 29  2  0  0  0  0
 26 45  1  0  0  0  0
 27 46  1  0  0  0  0
 28 30  2  0  0  0  0
 28 47  1  0  0  0  0
 29 30  1  0  0  0  0
 29 48  1  0  0  0  0
 30 49  1  0  0  0  0
M  END
> <PUBCHEM_COMPOUND_CID>
11884208

> <PUBCHEM_CONFORMER_RMSD>
0.8

> <PUBCHEM_CONFORMER_DIVERSEORDER>
1
11
16
14
6
8
10
7
12
9
13
17
3
18
4
2
15
5

> <PUBCHEM_MMFF94_PARTIAL_CHARGES>
40
1 -0.08
10 0.3
11 0.3
12 0.57
13 0.54
14 0.09
15 0.12
16 0.71
17 -0.15
18 -0.15
2 -0.57
20 -0.05
21 -0.15
23 -0.15
24 -0.15
25 -0.15
26 -0.15
27 -0.11
28 -0.15
29 -0.15
3 -0.57
30 -0.15
38 0.37
39 0.15
4 -0.57
40 0.15
41 0.15
42 0.15
43 0.15
44 0.15
45 0.15
46 0.15
47 0.15
48 0.15
49 0.15
5 -0.66
6 -0.66
7 -0.55
8 0.36
9 0.3

> <PUBCHEM_EFFECTIVE_ROTOR_COUNT>
4

> <PUBCHEM_PHARMACOPHORE_FEATURES>
9
1 2 acceptor
1 3 acceptor
1 4 acceptor
1 7 donor
5 1 20 23 24 27 rings
6 14 15 17 18 19 21 rings
6 22 25 26 28 29 30 rings
6 5 6 8 9 10 11 rings
7 5 7 8 12 13 14 15 rings

> <PUBCHEM_HEAVY_ATOM_COUNT>
30

> <PUBCHEM_ATOM_DEF_STEREO_COUNT>
1

> <PUBCHEM_ATOM_UDEF_STEREO_COUNT>
0

> <PUBCHEM_BOND_DEF_STEREO_COUNT>
0

> <PUBCHEM_BOND_UDEF_STEREO_COUNT>
0

> <PUBCHEM_ISOTOPIC_ATOM_COUNT>
0

> <PUBCHEM_COMPONENT_COUNT>
1

> <PUBCHEM_CACTVS_TAUTO_COUNT>
3

> <PUBCHEM_CONFORMER_ID>
00B556B000000001

> <PUBCHEM_MMFF94_ENERGY>
106.0936

> <PUBCHEM_FEATURE_SELFOVERLAP>
45.702

> <PUBCHEM_SHAPE_FINGERPRINT>
10 15 17274818074074911868
106641 1 17203321230835267978
10670039 82 16950554460040344021
11135926 11 18261110747724761507
11181472 205 14418405530194982678
11646440 116 18202572786430034328
11719270 70 18186518800337575962
12107698 1 18060700597843495497
12166972 35 18040721380687434252
12236239 1 18113905935973955328
12516196 113 17346601871752008848
13692114 37 18410852188107926850
13811026 1 18411135818413401487
13862211 1 18413111653741091000
13914758 101 16515681117831218101
14068700 675 18343584044886798681
14251764 18 18411984667750821932
14767858 380 18410014347214005303
14849402 71 16128083568067474872
15131766 46 16300941167394424110
15183329 4 16370722608457855804
15188451 53 18334853888803106464
1577012 14 18261689094555755460
15849732 13 17967812756027835950
21033648 29 12829781777416120988
21130935 74 17631739253418623086
21267235 1 18342462547515820673
21521721 280 14620790505563831806
21781051 124 18041288776243061667
21792938 703 17915162728491478071
21792961 116 18113335302856726507
22149856 69 16845027735471908552
22224240 67 16415477155725075406
23522609 53 17912963636047210881
23559900 14 18265332983633030009
23569917 315 18334301937650274154
23576562 1 14707794916003752518
24771293 8 18060422430255594168
249057 25 18115038436824045932
3044373 193 17275106137790008352
3178227 256 18340780316237375819
335352 9 18335424586645596838
3383291 50 18411140246657416971
3418910 222 15841558504443584704
34797466 226 16630530648430068564
3633792 109 17604143731821842163
4098825 35 16733255773202257031
474113 269 16443612499393009234
484989 97 18189063156412569155
5104073 3 17844821277975671290
5283156 175 18410013221705791623
5758199 1 13110962028479327038
58260988 393 14333138446589903578
59682541 35 17703782652826514610
59755656 520 16950280754385600235
6081469 158 17894627059307778621
6394761 36 13695865917751031942
9663363 56 18059851771531415685
9689198 14 10952047874987937068
9962374 69 17202755034234841413

> <PUBCHEM_SHAPE_MULTIPOLES>
588.68
22.95
1.94
1.3
2.3
0.62
0.37
-10.1
0.04
-0.05
-0.45
-0.46
0.07
-0.66

> <PUBCHEM_SHAPE_SELFOVERLAP>
1294.874

> <PUBCHEM_SHAPE_VOLUME>
316

> <PUBCHEM_COORDINATE_TYPE>
2
5
10

$$$$
