11883041
  -OEChem-12032416123D

 77 81  0     1  0  0  0  0  0999 V2000
   -1.1677    2.9581    0.1329 S   0  0  0  0  0  0  0  0  0  0  0  0
    2.8113    3.9450    1.2039 F   0  0  0  0  0  0  0  0  0  0  0  0
    4.8319    0.6082   -1.5064 F   0  0  0  0  0  0  0  0  0  0  0  0
   -8.2194   -0.3937   -0.6822 O   0  0  0  0  0  0  0  0  0  0  0  0
   -8.1277    1.4500    0.8465 O   0  0  0  0  0  0  0  0  0  0  0  0
   -0.3579   -2.0747   -1.4669 O   0  0  0  0  0  0  0  0  0  0  0  0
    2.6070    0.2596   -0.2441 O   0  0  0  0  0  0  0  0  0  0  0  0
    6.1317   -1.8028    0.8918 O   0  0  0  0  0  0  0  0  0  0  0  0
   -0.3360    0.5201   -0.1061 N   0  0  0  0  0  0  0  0  0  0  0  0
    0.0653   -3.5319    0.2935 N   0  0  0  0  0  0  0  0  0  0  0  0
    1.3496    2.2409   -0.0246 N   0  0  0  0  0  0  0  0  0  0  0  0
   -3.9883   -0.6325    0.3418 C   0  0  2  0  0  0  0  0  0  0  0  0
   -4.5702    0.6864   -0.3346 C   0  0  1  0  0  0  0  0  0  0  0  0
   -6.1381    0.8581   -0.3361 C   0  0  1  0  0  0  0  0  0  0  0  0
   -2.4777   -0.8122   -0.1474 C   0  0  1  0  0  0  0  0  0  0  0  0
   -4.8060   -1.8607   -0.1355 C   0  0  0  0  0  0  0  0  0  0  0  0
   -6.7988   -0.4733   -0.7932 C   0  0  1  0  0  0  0  0  0  0  0  0
   -3.8010    1.9546    0.1377 C   0  0  0  0  0  0  0  0  0  0  0  0
   -6.3127   -1.6861   -0.0075 C   0  0  0  0  0  0  0  0  0  0  0  0
   -4.0257   -0.5814    1.8892 C   0  0  0  0  0  0  0  0  0  0  0  0
   -1.7169    0.4847   -0.0448 C   0  0  0  0  0  0  0  0  0  0  0  0
   -6.7318    1.3345    1.0080 C   0  0  0  0  0  0  0  0  0  0  0  0
   -6.5277    1.9480   -1.3746 C   0  0  0  0  0  0  0  0  0  0  0  0
   -2.3307    1.7160    0.0641 C   0  0  0  0  0  0  0  0  0  0  0  0
   -1.7206   -1.9628    0.5293 C   0  0  0  0  0  0  0  0  0  0  0  0
   -0.6112   -2.5019   -0.3437 C   0  0  0  0  0  0  0  0  0  0  0  0
    0.0636    1.7699   -0.0144 C   0  0  0  0  0  0  0  0  0  0  0  0
    1.1739   -4.2384   -0.3064 C   0  0  0  0  0  0  0  0  0  0  0  0
    2.5232    1.4780   -0.1362 C   0  0  0  0  0  0  0  0  0  0  0  0
    2.4907   -3.5907    0.0110 C   0  0  0  0  0  0  0  0  0  0  0  0
    3.7898    2.2570   -0.1510 C   0  0  0  0  0  0  0  0  0  0  0  0
    2.7671   -3.1759    1.3137 C   0  0  0  0  0  0  0  0  0  0  0  0
    3.4382   -3.4054   -0.9958 C   0  0  0  0  0  0  0  0  0  0  0  0
    3.8699    3.4711    0.5312 C   0  0  0  0  0  0  0  0  0  0  0  0
    4.8976    1.7739   -0.8473 C   0  0  0  0  0  0  0  0  0  0  0  0
    3.9909   -2.5757    1.6096 C   0  0  0  0  0  0  0  0  0  0  0  0
    4.6619   -2.8050   -0.6999 C   0  0  0  0  0  0  0  0  0  0  0  0
    4.9383   -2.3903    0.6028 C   0  0  0  0  0  0  0  0  0  0  0  0
    5.0579    4.2019    0.5170 C   0  0  0  0  0  0  0  0  0  0  0  0
    6.0856    2.5048   -0.8614 C   0  0  0  0  0  0  0  0  0  0  0  0
    6.1658    3.7188   -0.1792 C   0  0  0  0  0  0  0  0  0  0  0  0
    7.0546   -1.6440   -0.1845 C   0  0  0  0  0  0  0  0  0  0  0  0
   -4.3134    0.5714   -1.4021 H   0  0  0  0  0  0  0  0  0  0  0  0
   -2.5381   -1.0224   -1.2260 H   0  0  0  0  0  0  0  0  0  0  0  0
   -4.5752   -2.0688   -1.1887 H   0  0  0  0  0  0  0  0  0  0  0  0
   -4.5210   -2.7596    0.4227 H   0  0  0  0  0  0  0  0  0  0  0  0
   -6.5750   -0.6352   -1.8560 H   0  0  0  0  0  0  0  0  0  0  0  0
   -4.0588    2.8094   -0.4965 H   0  0  0  0  0  0  0  0  0  0  0  0
   -4.0695    2.2147    1.1670 H   0  0  0  0  0  0  0  0  0  0  0  0
   -6.6181   -1.6163    1.0423 H   0  0  0  0  0  0  0  0  0  0  0  0
   -6.8118   -2.5868   -0.3875 H   0  0  0  0  0  0  0  0  0  0  0  0
   -3.5930   -1.4882    2.3259 H   0  0  0  0  0  0  0  0  0  0  0  0
   -5.0361   -0.5290    2.2890 H   0  0  0  0  0  0  0  0  0  0  0  0
   -3.4630    0.2636    2.2954 H   0  0  0  0  0  0  0  0  0  0  0  0
   -6.5606    0.6340    1.8214 H   0  0  0  0  0  0  0  0  0  0  0  0
   -6.3390    2.3123    1.3029 H   0  0  0  0  0  0  0  0  0  0  0  0
   -6.0633    1.7468   -2.3470 H   0  0  0  0  0  0  0  0  0  0  0  0
   -6.2105    2.9464   -1.0561 H   0  0  0  0  0  0  0  0  0  0  0  0
   -7.6090    1.9944   -1.5459 H   0  0  0  0  0  0  0  0  0  0  0  0
   -1.2904   -1.6458    1.4878 H   0  0  0  0  0  0  0  0  0  0  0  0
   -2.3853   -2.8096    0.7280 H   0  0  0  0  0  0  0  0  0  0  0  0
   -8.5888   -1.2268   -1.0213 H   0  0  0  0  0  0  0  0  0  0  0  0
   -8.4928    1.7595    1.6928 H   0  0  0  0  0  0  0  0  0  0  0  0
   -0.2201   -3.8083    1.2288 H   0  0  0  0  0  0  0  0  0  0  0  0
    1.4235    3.2525    0.0394 H   0  0  0  0  0  0  0  0  0  0  0  0
    1.0102   -4.2862   -1.3888 H   0  0  0  0  0  0  0  0  0  0  0  0
    1.1671   -5.2620    0.0834 H   0  0  0  0  0  0  0  0  0  0  0  0
    2.0476   -3.3201    2.1152 H   0  0  0  0  0  0  0  0  0  0  0  0
    3.2355   -3.7249   -2.0147 H   0  0  0  0  0  0  0  0  0  0  0  0
    4.2013   -2.2557    2.6264 H   0  0  0  0  0  0  0  0  0  0  0  0
    5.3520   -2.6915   -1.5290 H   0  0  0  0  0  0  0  0  0  0  0  0
    5.1201    5.1470    1.0483 H   0  0  0  0  0  0  0  0  0  0  0  0
    6.9481    2.1276   -1.4030 H   0  0  0  0  0  0  0  0  0  0  0  0
    7.0909    4.2877   -0.1900 H   0  0  0  0  0  0  0  0  0  0  0  0
    7.9432   -1.1504    0.2225 H   0  0  0  0  0  0  0  0  0  0  0  0
    6.6595   -0.9919   -0.9689 H   0  0  0  0  0  0  0  0  0  0  0  0
    7.3794   -2.6128   -0.5790 H   0  0  0  0  0  0  0  0  0  0  0  0
  1 24  1  0  0  0  0
  1 27  1  0  0  0  0
  2 34  1  0  0  0  0
  3 35  1  0  0  0  0
  4 17  1  0  0  0  0
  4 62  1  0  0  0  0
  5 22  1  0  0  0  0
  5 63  1  0  0  0  0
  6 26  2  0  0  0  0
  7 29  2  0  0  0  0
  8 38  1  0  0  0  0
  8 42  1  0  0  0  0
  9 21  1  0  0  0  0
  9 27  2  0  0  0  0
 10 26  1  0  0  0  0
 10 28  1  0  0  0  0
 10 64  1  0  0  0  0
 11 27  1  0  0  0  0
 11 29  1  0  0  0  0
 11 65  1  0  0  0  0
 12 13  1  0  0  0  0
 12 15  1  0  0  0  0
 12 16  1  0  0  0  0
 12 20  1  0  0  0  0
 13 14  1  0  0  0  0
 13 18  1  0  0  0  0
 13 43  1  0  0  0  0
 14 17  1  0  0  0  0
 14 22  1  0  0  0  0
 14 23  1  0  0  0  0
 15 21  1  0  0  0  0
 15 25  1  0  0  0  0
 15 44  1  0  0  0  0
 16 19  1  0  0  0  0
 16 45  1  0  0  0  0
 16 46  1  0  0  0  0
 17 19  1  0  0  0  0
 17 47  1  0  0  0  0
 18 24  1  0  0  0  0
 18 48  1  0  0  0  0
 18 49  1  0  0  0  0
 19 50  1  0  0  0  0
 19 51  1  0  0  0  0
 20 52  1  0  0  0  0
 20 53  1  0  0  0  0
 20 54  1  0  0  0  0
 21 24  2  0  0  0  0
 22 55  1  0  0  0  0
 22 56  1  0  0  0  0
 23 57  1  0  0  0  0
 23 58  1  0  0  0  0
 23 59  1  0  0  0  0
 25 26  1  0  0  0  0
 25 60  1  0  0  0  0
 25 61  1  0  0  0  0
 28 30  1  0  0  0  0
 28 66  1  0  0  0  0
 28 67  1  0  0  0  0
 29 31  1  0  0  0  0
 30 32  2  0  0  0  0
 30 33  1  0  0  0  0
 31 34  2  0  0  0  0
 31 35  1  0  0  0  0
 32 36  1  0  0  0  0
 32 68  1  0  0  0  0
 33 37  2  0  0  0  0
 33 69  1  0  0  0  0
 34 39  1  0  0  0  0
 35 40  2  0  0  0  0
 36 38  2  0  0  0  0
 36 70  1  0  0  0  0
 37 38  1  0  0  0  0
 37 71  1  0  0  0  0
 39 41  2  0  0  0  0
 39 72  1  0  0  0  0
 40 41  1  0  0  0  0
 40 73  1  0  0  0  0
 41 74  1  0  0  0  0
 42 75  1  0  0  0  0
 42 76  1  0  0  0  0
 42 77  1  0  0  0  0
M  END
> <PUBCHEM_COMPOUND_CID>
11883041

> <PUBCHEM_CONFORMER_RMSD>
1.2

> <PUBCHEM_CONFORMER_DIVERSEORDER>
1
19
45
17
12
42
31
34
16
10
14
13
44
39
21
24
41
47
35
8
28
18
25
15
5
46
43
30
33
7
38
22
29
37
3
23
27
40
6
20
36
26
4
32
11
2
9

> <PUBCHEM_MMFF94_PARTIAL_CHARGES>
46
1 -0.08
10 -0.73
11 -0.49
15 0.18
17 0.28
18 0.18
2 -0.19
21 0.05
22 0.28
24 -0.14
25 0.06
26 0.57
27 0.44
28 0.44
29 0.54
3 -0.19
30 -0.14
31 0.09
32 -0.15
33 -0.15
34 0.19
35 0.19
36 -0.15
37 -0.15
38 0.08
39 -0.15
4 -0.68
40 -0.15
41 -0.15
42 0.28
5 -0.68
6 -0.57
62 0.4
63 0.4
64 0.37
65 0.37
68 0.15
69 0.15
7 -0.57
70 0.15
71 0.15
72 0.15
73 0.15
74 0.15
8 -0.36
9 -0.57

> <PUBCHEM_EFFECTIVE_ROTOR_COUNT>
11.2

> <PUBCHEM_PHARMACOPHORE_FEATURES>
14
1 10 donor
1 11 donor
1 4 acceptor
1 4 donor
1 5 acceptor
1 5 donor
1 6 acceptor
1 7 acceptor
1 8 acceptor
5 1 9 21 24 27 rings
6 12 13 14 16 17 19 rings
6 12 13 15 18 21 24 rings
6 30 32 33 36 37 38 rings
6 31 34 35 39 40 41 rings

> <PUBCHEM_HEAVY_ATOM_COUNT>
42

> <PUBCHEM_ATOM_DEF_STEREO_COUNT>
5

> <PUBCHEM_ATOM_UDEF_STEREO_COUNT>
0

> <PUBCHEM_BOND_DEF_STEREO_COUNT>
0

> <PUBCHEM_BOND_UDEF_STEREO_COUNT>
0

> <PUBCHEM_ISOTOPIC_ATOM_COUNT>
0

> <PUBCHEM_COMPONENT_COUNT>
1

> <PUBCHEM_CACTVS_TAUTO_COUNT>
6

> <PUBCHEM_CONFORMER_ID>
00B5522100000001

> <PUBCHEM_MMFF94_ENERGY>
131.6571

> <PUBCHEM_FEATURE_SELFOVERLAP>
71.195

> <PUBCHEM_SHAPE_FINGERPRINT>
10290309 65 18122625221426739440
10864689 126 18267875059201772988
11135926 11 18336536209353472204
11136131 41 18261664948513459130
12440605 4 18269278040118024635
12522641 33 18334859476682750124
12925494 130 18335983189907855410
13533116 47 18410855447317632712
13811026 1 18261390083612502019
14295345 954 18333734636598627632
14394314 77 18411140276700893713
14725015 67 18188763951836993922
15001296 14 18408601465707897490
15200665 1 17763463219873338674
15320467 1 17762338420100764882
15351339 4 18410301281579315856
15400415 2 18194964273593980236
15444296 7 18059846264967196030
15890870 6 18335425652088084878
15927050 60 18196931282410078670
15968369 153 18201429281473382782
16067689 302 18339929316219287263
16112460 7 18343029886783803488
18738133 686 18266156419384619218
19611394 137 18261126135796615898
22122407 14 18337682935714910851
22311459 1 18337953368204576667
23559900 14 18339070485477513115
25269216 80 15286225976338217923
3411729 13 18334856142759207554
394071 54 18271528589573519466
4073 2 18263367064978761953
5265222 85 17903645429483163204
5776283 40 18337685191506268190
99344 41 18410571816230266733
9961470 85 18268142231646990962

> <PUBCHEM_SHAPE_MULTIPOLES>
809.35
20.17
5.98
1.15
18.39
0.32
0.15
-6.32
-1.28
-11.29
0.46
0.02
0.24
-0.36

> <PUBCHEM_SHAPE_SELFOVERLAP>
1738.633

> <PUBCHEM_SHAPE_VOLUME>
450.9

> <PUBCHEM_COORDINATE_TYPE>
2
5
10

$$$$
