11882965
  -OEChem-12032416413D

 76 79  0     1  0  0  0  0  0999 V2000
   -0.3242   -2.5695   -0.2307 S   0  0  0  0  0  0  0  0  0  0  0  0
    7.0901   -0.0491   -0.7818 O   0  0  0  0  0  0  0  0  0  0  0  0
    6.8201   -2.2697    0.0787 O   0  0  0  0  0  0  0  0  0  0  0  0
   -1.3330    2.2359    1.9864 O   0  0  0  0  0  0  0  0  0  0  0  0
   -3.6591    0.5504    0.7325 O   0  0  0  0  0  0  0  0  0  0  0  0
   -1.3128    2.5430   -2.4799 O   0  0  0  0  0  0  0  0  0  0  0  0
   -0.7751   -0.1072    0.4225 N   0  0  0  0  0  0  0  0  0  0  0  0
   -0.2711    3.1406    0.1275 N   0  0  0  0  0  0  0  0  0  0  0  0
   -2.7011   -1.5314    0.1545 N   0  0  0  0  0  0  0  0  0  0  0  0
    3.0362    0.3631    0.7690 C   0  0  2  0  0  0  0  0  0  0  0  0
    3.3512   -0.7170   -0.3576 C   0  0  1  0  0  0  0  0  0  0  0  0
    4.8680   -1.0734   -0.6036 C   0  0  1  0  0  0  0  0  0  0  0  0
    1.5414    0.8833    0.5491 C   0  0  1  0  0  0  0  0  0  0  0  0
    4.0007    1.5675    0.6129 C   0  0  0  0  0  0  0  0  0  0  0  0
    5.6956    0.2403   -0.6888 C   0  0  1  0  0  0  0  0  0  0  0  0
    2.4280   -1.9631   -0.2249 C   0  0  0  0  0  0  0  0  0  0  0  0
    5.4661    1.1730    0.4953 C   0  0  0  0  0  0  0  0  0  0  0  0
    3.1781   -0.2045    2.2028 C   0  0  0  0  0  0  0  0  0  0  0  0
    0.5946   -0.2676    0.3242 C   0  0  0  0  0  0  0  0  0  0  0  0
    5.4756   -2.0406    0.4363 C   0  0  0  0  0  0  0  0  0  0  0  0
    5.0034   -1.7949   -1.9744 C   0  0  0  0  0  0  0  0  0  0  0  0
    1.0125   -1.5314   -0.0401 C   0  0  0  0  0  0  0  0  0  0  0  0
    1.0272    1.8281    1.6437 C   0  0  0  0  0  0  0  0  0  0  0  0
   -0.3269    2.4062    1.3031 C   0  0  0  0  0  0  0  0  0  0  0  0
   -1.3594   -1.2557    0.1585 C   0  0  0  0  0  0  0  0  0  0  0  0
   -3.7468   -0.6360    0.4344 C   0  0  0  0  0  0  0  0  0  0  0  0
   -5.0883   -1.2983    0.3287 C   0  0  0  0  0  0  0  0  0  0  0  0
   -1.4197    3.8067   -0.4427 C   0  0  0  0  0  0  0  0  0  0  0  0
   -6.0661   -0.6563    1.3154 C   0  0  0  0  0  0  0  0  0  0  0  0
   -5.6031   -1.2071   -1.1095 C   0  0  0  0  0  0  0  0  0  0  0  0
   -7.4708   -1.2371    1.1760 C   0  0  0  0  0  0  0  0  0  0  0  0
   -7.0090   -1.7865   -1.2432 C   0  0  0  0  0  0  0  0  0  0  0  0
   -7.9799   -1.1409   -0.2591 C   0  0  0  0  0  0  0  0  0  0  0  0
   -2.1693    2.9017   -1.4032 C   0  0  0  0  0  0  0  0  0  0  0  0
   -1.9731    1.6976   -3.4118 C   0  0  0  0  0  0  0  0  0  0  0  0
    3.0385   -0.2219   -1.2935 H   0  0  0  0  0  0  0  0  0  0  0  0
    1.5505    1.4215   -0.4091 H   0  0  0  0  0  0  0  0  0  0  0  0
    3.8967    2.2566    1.4592 H   0  0  0  0  0  0  0  0  0  0  0  0
    3.7289    2.1413   -0.2830 H   0  0  0  0  0  0  0  0  0  0  0  0
    5.4228    0.7863   -1.6021 H   0  0  0  0  0  0  0  0  0  0  0  0
    2.7260   -2.5807    0.6290 H   0  0  0  0  0  0  0  0  0  0  0  0
    2.5002   -2.5844   -1.1237 H   0  0  0  0  0  0  0  0  0  0  0  0
    5.8308    0.7193    1.4235 H   0  0  0  0  0  0  0  0  0  0  0  0
    6.0754    2.0764    0.3637 H   0  0  0  0  0  0  0  0  0  0  0  0
    2.9833    0.5680    2.9548 H   0  0  0  0  0  0  0  0  0  0  0  0
    4.1814   -0.5611    2.4228 H   0  0  0  0  0  0  0  0  0  0  0  0
    2.4838   -1.0262    2.3999 H   0  0  0  0  0  0  0  0  0  0  0  0
    4.9532   -3.0015    0.4775 H   0  0  0  0  0  0  0  0  0  0  0  0
    5.4939   -1.6266    1.4405 H   0  0  0  0  0  0  0  0  0  0  0  0
    4.5079   -1.2212   -2.7665 H   0  0  0  0  0  0  0  0  0  0  0  0
    6.0411   -1.9326   -2.2933 H   0  0  0  0  0  0  0  0  0  0  0  0
    4.5458   -2.7897   -1.9541 H   0  0  0  0  0  0  0  0  0  0  0  0
    0.9133    1.3017    2.5986 H   0  0  0  0  0  0  0  0  0  0  0  0
    1.7131    2.6658    1.8068 H   0  0  0  0  0  0  0  0  0  0  0  0
    7.2746   -0.3525   -1.6859 H   0  0  0  0  0  0  0  0  0  0  0  0
    6.8433   -3.0137   -0.5465 H   0  0  0  0  0  0  0  0  0  0  0  0
    0.6184    3.2722   -0.3436 H   0  0  0  0  0  0  0  0  0  0  0  0
   -2.9369   -2.4909   -0.0852 H   0  0  0  0  0  0  0  0  0  0  0  0
   -4.9881   -2.3580    0.6008 H   0  0  0  0  0  0  0  0  0  0  0  0
   -1.0387    4.6882   -0.9689 H   0  0  0  0  0  0  0  0  0  0  0  0
   -2.0830    4.1366    0.3634 H   0  0  0  0  0  0  0  0  0  0  0  0
   -6.1218    0.4283    1.1535 H   0  0  0  0  0  0  0  0  0  0  0  0
   -5.7108   -0.7982    2.3434 H   0  0  0  0  0  0  0  0  0  0  0  0
   -4.9250   -1.7386   -1.7884 H   0  0  0  0  0  0  0  0  0  0  0  0
   -5.6087   -0.1599   -1.4397 H   0  0  0  0  0  0  0  0  0  0  0  0
   -8.1569   -0.7080    1.8469 H   0  0  0  0  0  0  0  0  0  0  0  0
   -7.4635   -2.2879    1.4910 H   0  0  0  0  0  0  0  0  0  0  0  0
   -6.9755   -2.8686   -1.0662 H   0  0  0  0  0  0  0  0  0  0  0  0
   -7.3713   -1.6416   -2.2672 H   0  0  0  0  0  0  0  0  0  0  0  0
   -8.9597   -1.6255   -0.3361 H   0  0  0  0  0  0  0  0  0  0  0  0
   -8.1224   -0.0865   -0.5258 H   0  0  0  0  0  0  0  0  0  0  0  0
   -2.5003    1.9945   -0.8936 H   0  0  0  0  0  0  0  0  0  0  0  0
   -3.0467    3.4296   -1.7935 H   0  0  0  0  0  0  0  0  0  0  0  0
   -2.8384    2.2071   -3.8465 H   0  0  0  0  0  0  0  0  0  0  0  0
   -1.2711    1.4551   -4.2140 H   0  0  0  0  0  0  0  0  0  0  0  0
   -2.2865    0.7665   -2.9292 H   0  0  0  0  0  0  0  0  0  0  0  0
  1 22  1  0  0  0  0
  1 25  1  0  0  0  0
  2 15  1  0  0  0  0
  2 55  1  0  0  0  0
  3 20  1  0  0  0  0
  3 56  1  0  0  0  0
  4 24  2  0  0  0  0
  5 26  2  0  0  0  0
  6 34  1  0  0  0  0
  6 35  1  0  0  0  0
  7 19  1  0  0  0  0
  7 25  2  0  0  0  0
  8 24  1  0  0  0  0
  8 28  1  0  0  0  0
  8 57  1  0  0  0  0
  9 25  1  0  0  0  0
  9 26  1  0  0  0  0
  9 58  1  0  0  0  0
 10 11  1  0  0  0  0
 10 13  1  0  0  0  0
 10 14  1  0  0  0  0
 10 18  1  0  0  0  0
 11 12  1  0  0  0  0
 11 16  1  0  0  0  0
 11 36  1  0  0  0  0
 12 15  1  0  0  0  0
 12 20  1  0  0  0  0
 12 21  1  0  0  0  0
 13 19  1  0  0  0  0
 13 23  1  0  0  0  0
 13 37  1  0  0  0  0
 14 17  1  0  0  0  0
 14 38  1  0  0  0  0
 14 39  1  0  0  0  0
 15 17  1  0  0  0  0
 15 40  1  0  0  0  0
 16 22  1  0  0  0  0
 16 41  1  0  0  0  0
 16 42  1  0  0  0  0
 17 43  1  0  0  0  0
 17 44  1  0  0  0  0
 18 45  1  0  0  0  0
 18 46  1  0  0  0  0
 18 47  1  0  0  0  0
 19 22  2  0  0  0  0
 20 48  1  0  0  0  0
 20 49  1  0  0  0  0
 21 50  1  0  0  0  0
 21 51  1  0  0  0  0
 21 52  1  0  0  0  0
 23 24  1  0  0  0  0
 23 53  1  0  0  0  0
 23 54  1  0  0  0  0
 26 27  1  0  0  0  0
 27 29  1  0  0  0  0
 27 30  1  0  0  0  0
 27 59  1  0  0  0  0
 28 34  1  0  0  0  0
 28 60  1  0  0  0  0
 28 61  1  0  0  0  0
 29 31  1  0  0  0  0
 29 62  1  0  0  0  0
 29 63  1  0  0  0  0
 30 32  1  0  0  0  0
 30 64  1  0  0  0  0
 30 65  1  0  0  0  0
 31 33  1  0  0  0  0
 31 66  1  0  0  0  0
 31 67  1  0  0  0  0
 32 33  1  0  0  0  0
 32 68  1  0  0  0  0
 32 69  1  0  0  0  0
 33 70  1  0  0  0  0
 33 71  1  0  0  0  0
 34 72  1  0  0  0  0
 34 73  1  0  0  0  0
 35 74  1  0  0  0  0
 35 75  1  0  0  0  0
 35 76  1  0  0  0  0
M  END
> <PUBCHEM_COMPOUND_CID>
11882965

> <PUBCHEM_CONFORMER_RMSD>
1.2

> <PUBCHEM_CONFORMER_DIVERSEORDER>
1
20
17
13
6
14
10
22
12
15
11
4
16
8
5
18
19
9
21
7
3
2

> <PUBCHEM_MMFF94_PARTIAL_CHARGES>
27
1 -0.08
13 0.18
15 0.28
16 0.18
19 0.05
2 -0.68
20 0.28
22 -0.14
23 0.06
24 0.57
25 0.44
26 0.57
27 0.06
28 0.3
3 -0.68
34 0.28
35 0.28
4 -0.57
5 -0.57
55 0.4
56 0.4
57 0.37
58 0.37
6 -0.56
7 -0.57
8 -0.73
9 -0.49

> <PUBCHEM_EFFECTIVE_ROTOR_COUNT>
12.4

> <PUBCHEM_PHARMACOPHORE_FEATURES>
13
1 2 acceptor
1 2 donor
1 3 acceptor
1 3 donor
1 4 acceptor
1 5 acceptor
1 6 acceptor
1 8 donor
1 9 donor
5 1 7 19 22 25 rings
6 10 11 12 14 15 17 rings
6 10 11 13 16 19 22 rings
6 27 29 30 31 32 33 rings

> <PUBCHEM_HEAVY_ATOM_COUNT>
35

> <PUBCHEM_ATOM_DEF_STEREO_COUNT>
5

> <PUBCHEM_ATOM_UDEF_STEREO_COUNT>
0

> <PUBCHEM_BOND_DEF_STEREO_COUNT>
0

> <PUBCHEM_BOND_UDEF_STEREO_COUNT>
0

> <PUBCHEM_ISOTOPIC_ATOM_COUNT>
0

> <PUBCHEM_COMPONENT_COUNT>
1

> <PUBCHEM_CACTVS_TAUTO_COUNT>
6

> <PUBCHEM_CONFORMER_ID>
00B551D500000001

> <PUBCHEM_MMFF94_ENERGY>
94.7953

> <PUBCHEM_FEATURE_SELFOVERLAP>
66.119

> <PUBCHEM_SHAPE_FINGERPRINT>
10076449 9 18342463651174729164
11421498 54 15864615229282512561
12166972 35 18335143115599797933
12788726 201 17894907412781261569
13165053 103 17840006456655828582
13402501 40 18412544323179347875
13583140 156 17242468114150813592
13782708 43 18408881806823979779
13811026 1 18411691084923752385
14118638 360 18114186298965722974
14347332 77 18339078181879676298
15131766 46 14116362131841274242
15183329 4 17988928889729710243
15198563 99 18260830354489330421
15276724 80 18342176669860060732
15419008 47 17967808371725881797
15439362 3 18052253196379455433
15849732 13 15554450703862495447
17980427 26 16555912419995938537
20028762 73 17775569732043709471
21285901 2 18131082502133140742
21360443 126 18115861898493722253
21641784 216 18041857124532452772
23522609 53 17772221766540002041
23559900 14 18268143344249411475
23576562 1 18044929311425787823
24771293 8 17986944339902815392
335352 9 18272939358261730846
350125 39 18342745070522665088
4073 2 18267868465499000674
437815 12 18408601496511218261
469060 322 17677062252149432877
484989 97 18340484461709923918
58260988 393 16950832670203729116
59755656 215 18413109454797378991
6081469 158 18410289203925687671
6086070 43 17677603169648443972
7237137 82 18260831449504945452

> <PUBCHEM_SHAPE_MULTIPOLES>
679.84
18.01
3.5
1.94
14.01
2.82
1.14
-12.94
1.05
0.35
0.81
0.8
1.2
1.37

> <PUBCHEM_SHAPE_SELFOVERLAP>
1407.271

> <PUBCHEM_SHAPE_VOLUME>
391.4

> <PUBCHEM_COORDINATE_TYPE>
2
5
10

$$$$
