75367643
  -OEChem-12032416403D

 50 52  0     1  0  0  0  0  0999 V2000
   -5.6285   -3.1768   -1.1268 F   0  0  0  0  0  0  0  0  0  0  0  0
   -7.0130   -1.5239   -1.3604 F   0  0  0  0  0  0  0  0  0  0  0  0
   -6.9471   -2.6268    0.5122 F   0  0  0  0  0  0  0  0  0  0  0  0
   -0.6606    4.2402   -0.2134 O   0  0  0  0  0  0  0  0  0  0  0  0
   -2.2538    1.4297    1.4056 O   0  0  0  0  0  0  0  0  0  0  0  0
    3.0674    1.2743   -1.4004 O   0  0  0  0  0  0  0  0  0  0  0  0
    7.6391   -2.1654   -0.0696 O   0  0  0  0  0  0  0  0  0  0  0  0
    0.8705    1.5202   -0.6579 N   0  0  0  0  0  0  0  0  0  0  0  0
   -3.2723    0.3273   -0.3611 N   0  0  0  0  0  0  0  0  0  0  0  0
   -1.4063    1.9982    0.4056 C   0  0  2  0  0  0  0  0  0  0  0  0
   -0.2134    1.0575    0.2143 C   0  0  0  0  0  0  0  0  0  0  0  0
    0.6132    2.6456   -1.5602 C   0  0  0  0  0  0  0  0  0  0  0  0
   -0.9996    3.3915    0.8775 C   0  0  0  0  0  0  0  0  0  0  0  0
    0.6047    3.9686   -0.8061 C   0  0  0  0  0  0  0  0  0  0  0  0
    2.1373    0.9193   -0.6720 C   0  0  0  0  0  0  0  0  0  0  0  0
    2.3466   -0.2297    0.2854 C   0  0  0  0  0  0  0  0  0  0  0  0
    3.7485   -0.7431    0.1914 C   0  0  0  0  0  0  0  0  0  0  0  0
   -3.2163    0.5620    0.9691 C   0  0  0  0  0  0  0  0  0  0  0  0
    4.0604   -1.7598   -0.7113 C   0  0  0  0  0  0  0  0  0  0  0  0
    4.7442   -0.2043    1.0063 C   0  0  0  0  0  0  0  0  0  0  0  0
   -4.0666   -0.0192    1.8958 C   0  0  0  0  0  0  0  0  0  0  0  0
    5.3677   -2.2380   -0.7987 C   0  0  0  0  0  0  0  0  0  0  0  0
    6.0515   -0.6826    0.9189 C   0  0  0  0  0  0  0  0  0  0  0  0
    6.3634   -1.6994    0.0164 C   0  0  0  0  0  0  0  0  0  0  0  0
   -5.0370   -0.8981    1.4272 C   0  0  0  0  0  0  0  0  0  0  0  0
   -5.1261   -1.1650    0.0655 C   0  0  0  0  0  0  0  0  0  0  0  0
   -4.2283   -0.5324   -0.7794 C   0  0  0  0  0  0  0  0  0  0  0  0
   -6.1529   -2.0999   -0.4669 C   0  0  0  0  0  0  0  0  0  0  0  0
    8.6073   -1.5700    0.7931 C   0  0  0  0  0  0  0  0  0  0  0  0
   -1.9375    2.1409   -0.5439 H   0  0  0  0  0  0  0  0  0  0  0  0
    0.1986    0.8238    1.2018 H   0  0  0  0  0  0  0  0  0  0  0  0
   -0.5526    0.0976   -0.1935 H   0  0  0  0  0  0  0  0  0  0  0  0
   -0.3272    2.4624   -2.0904 H   0  0  0  0  0  0  0  0  0  0  0  0
    1.4056    2.6838   -2.3151 H   0  0  0  0  0  0  0  0  0  0  0  0
   -1.8487    3.8649    1.3843 H   0  0  0  0  0  0  0  0  0  0  0  0
   -0.1863    3.3601    1.6129 H   0  0  0  0  0  0  0  0  0  0  0  0
    1.3960    4.0241   -0.0493 H   0  0  0  0  0  0  0  0  0  0  0  0
    0.7808    4.7789   -1.5216 H   0  0  0  0  0  0  0  0  0  0  0  0
    1.6331   -1.0308    0.0614 H   0  0  0  0  0  0  0  0  0  0  0  0
    2.1625    0.1034    1.3125 H   0  0  0  0  0  0  0  0  0  0  0  0
    3.2940   -2.1863   -1.3530 H   0  0  0  0  0  0  0  0  0  0  0  0
    4.5139    0.5899    1.7117 H   0  0  0  0  0  0  0  0  0  0  0  0
   -3.9839    0.1995    2.9548 H   0  0  0  0  0  0  0  0  0  0  0  0
    5.6048   -3.0298   -1.5041 H   0  0  0  0  0  0  0  0  0  0  0  0
    6.7754   -0.2193    1.5806 H   0  0  0  0  0  0  0  0  0  0  0  0
   -5.7140   -1.3649    2.1370 H   0  0  0  0  0  0  0  0  0  0  0  0
   -4.2493   -0.7014   -1.8515 H   0  0  0  0  0  0  0  0  0  0  0  0
    9.5651   -2.0608    0.5914 H   0  0  0  0  0  0  0  0  0  0  0  0
    8.3716   -1.7501    1.8474 H   0  0  0  0  0  0  0  0  0  0  0  0
    8.7412   -0.5053    0.5734 H   0  0  0  0  0  0  0  0  0  0  0  0
  1 28  1  0  0  0  0
  2 28  1  0  0  0  0
  3 28  1  0  0  0  0
  4 13  1  0  0  0  0
  4 14  1  0  0  0  0
  5 10  1  0  0  0  0
  5 18  1  0  0  0  0
  6 15  2  0  0  0  0
  7 24  1  0  0  0  0
  7 29  1  0  0  0  0
  8 11  1  0  0  0  0
  8 12  1  0  0  0  0
  8 15  1  0  0  0  0
  9 18  2  0  0  0  0
  9 27  1  0  0  0  0
 10 11  1  0  0  0  0
 10 13  1  0  0  0  0
 10 30  1  0  0  0  0
 11 31  1  0  0  0  0
 11 32  1  0  0  0  0
 12 14  1  0  0  0  0
 12 33  1  0  0  0  0
 12 34  1  0  0  0  0
 13 35  1  0  0  0  0
 13 36  1  0  0  0  0
 14 37  1  0  0  0  0
 14 38  1  0  0  0  0
 15 16  1  0  0  0  0
 16 17  1  0  0  0  0
 16 39  1  0  0  0  0
 16 40  1  0  0  0  0
 17 19  2  0  0  0  0
 17 20  1  0  0  0  0
 18 21  1  0  0  0  0
 19 22  1  0  0  0  0
 19 41  1  0  0  0  0
 20 23  2  0  0  0  0
 20 42  1  0  0  0  0
 21 25  2  0  0  0  0
 21 43  1  0  0  0  0
 22 24  2  0  0  0  0
 22 44  1  0  0  0  0
 23 24  1  0  0  0  0
 23 45  1  0  0  0  0
 25 26  1  0  0  0  0
 25 46  1  0  0  0  0
 26 27  2  0  0  0  0
 26 28  1  0  0  0  0
 27 47  1  0  0  0  0
 29 48  1  0  0  0  0
 29 49  1  0  0  0  0
 29 50  1  0  0  0  0
M  END
> <PUBCHEM_COMPOUND_CID>
75367643

> <PUBCHEM_CONFORMER_RMSD>
1.2

> <PUBCHEM_CONFORMER_DIVERSEORDER>
1
145
4
73
28
26
36
47
128
108
22
126
71
23
81
122
39
125
11
74
35
24
106
147
18
58
31
60
130
103
48
107
76
88
37
21
96
121
29
97
85
116
142
87
6
30
53
5
19
93
82
109
127
56
110
17
123
84
94
129
141
89
34
63
90
2
69
25
146
105
27
59
92
113
14
144
9
119
133
50
95
136
139
100
8
101
132
86
12
131
16
66
15
75
46
65
78
10
91
33
3
104
38
149
114
102
13
138
77
120
83
140
42
143
44
112
72
7
40
117
98
62
134
51
111
115
68
52
137
45
118
148
67
99
80
41
32
20
70
57
61
43
55
150
79
49
64
54
124
135

> <PUBCHEM_MMFF94_PARTIAL_CHARGES>
36
1 -0.34
10 0.28
11 0.3
12 0.3
13 0.28
14 0.28
15 0.57
16 0.2
17 -0.14
18 0.39
19 -0.15
2 -0.34
20 -0.15
21 -0.15
22 -0.15
23 -0.15
24 0.08
25 -0.15
26 -0.14
27 0.16
28 1.16
29 0.28
3 -0.34
4 -0.56
41 0.15
42 0.15
43 0.15
44 0.15
45 0.15
46 0.15
47 0.15
5 -0.36
6 -0.57
7 -0.36
8 -0.66
9 -0.62

> <PUBCHEM_EFFECTIVE_ROTOR_COUNT>
8.4

> <PUBCHEM_PHARMACOPHORE_FEATURES>
6
1 4 acceptor
1 6 acceptor
1 7 acceptor
6 17 19 20 22 23 24 rings
6 9 18 21 25 26 27 rings
7 4 8 10 11 12 13 14 rings

> <PUBCHEM_HEAVY_ATOM_COUNT>
29

> <PUBCHEM_ATOM_DEF_STEREO_COUNT>
1

> <PUBCHEM_ATOM_UDEF_STEREO_COUNT>
0

> <PUBCHEM_BOND_DEF_STEREO_COUNT>
0

> <PUBCHEM_BOND_UDEF_STEREO_COUNT>
0

> <PUBCHEM_ISOTOPIC_ATOM_COUNT>
0

> <PUBCHEM_COMPONENT_COUNT>
1

> <PUBCHEM_CACTVS_TAUTO_COUNT>
1

> <PUBCHEM_CONFORMER_ID>
047E04DB00000001

> <PUBCHEM_MMFF94_ENERGY>
88.1339

> <PUBCHEM_FEATURE_SELFOVERLAP>
30.448

> <PUBCHEM_SHAPE_FINGERPRINT>
10577160 103 15864363475695522188
11211813 128 18341334410654385334
11410812 94 16298937663977246518
11475781 23 10737292325514889610
11497681 19 18412831270645968364
11552529 35 18124878950223936160
12166972 35 18040718099347705191
12218070 45 17775281694399220887
12623949 98 17917159316699442462
13540713 5 18265638579009632769
13631057 29 18262515893203263912
13782708 43 18197778809308729650
13885169 86 10087633819094655379
14068700 675 18409166601757617296
14344974 204 18266742377463163086
14556957 393 17168723929046464036
14950920 106 17132110225879364882
15064981 194 10446769500961041329
15131766 46 9150904811282248371
15183329 4 13406793311840594746
15188451 53 18060136553063452923
15510800 12 18114748230115311459
15728490 51 18271522104805541158
17686467 74 18410570700525064512
17780758 139 17560803200058879659
18222031 100 18333732416411499040
19303781 99 18337663243691311199
19315092 285 18060423538151110256
20028762 73 18413672409352002286
20691028 202 9583508820091364682
20775438 99 17761197118394161595
21095123 145 18339924819730951946
21315759 148 17130996352598498822
21424621 283 9007055768848263190
21756936 100 8934707903682891849
229767 44 17775282789663393295
23389318 12 18186807994071585486
23559900 14 17313948674984743653
23569914 152 12253558373869410946
23622692 118 18335141964628164676
25019877 29 17060340733874292151
2838139 119 11242263960686926578
3004659 81 18040432204643924578
312425 54 17560532689564327147
3627633 1 18337952277251559852
437815 12 18260263058107229677
4516262 110 9511470991935505923
5718773 13 18411980286588956363
5969126 39 18261673675712586388
6431902 208 18335144150550097658
6691757 9 18056767516498612633
7970288 3 18411983572249825183
9511036 111 16700876358756609055

> <PUBCHEM_SHAPE_MULTIPOLES>
541.55
20.54
4.19
1.39
12.94
3.81
0.13
-26.98
1.63
-2.8
-1.19
-0.96
0.12
-1.45

> <PUBCHEM_SHAPE_SELFOVERLAP>
1151.859

> <PUBCHEM_SHAPE_VOLUME>
301.2

> <PUBCHEM_COORDINATE_TYPE>
2
5
10

$$$$
