26743968
  -OEChem-12032416283D

 42 45  0     1  0  0  0  0  0999 V2000
   -4.6786   -4.0624    0.5405 F   0  0  0  0  0  0  0  0  0  0  0  0
   -2.3749    4.2638    1.7976 O   0  0  0  0  0  0  0  0  0  0  0  0
    1.8065    2.1814   -1.4686 O   0  0  0  0  0  0  0  0  0  0  0  0
   -1.5158    1.3734   -0.1204 N   0  0  1  0  0  0  0  0  0  0  0  0
    1.3668    0.6189    0.0746 N   0  0  0  0  0  0  0  0  0  0  0  0
    2.9723    1.4145   -1.3479 N   0  0  0  0  0  0  0  0  0  0  0  0
    5.7250   -1.5265   -0.0902 N   0  0  0  0  0  0  0  0  0  0  0  0
   -0.4494    2.3066   -0.5368 C   0  0  1  0  0  0  0  0  0  0  0  0
   -0.5096    3.4555    0.4869 C   0  0  0  0  0  0  0  0  0  0  0  0
   -1.6691    3.1012    1.4097 C   0  0  2  0  0  0  0  0  0  0  0  0
   -2.5259    2.1780    0.5643 C   0  0  0  0  0  0  0  0  0  0  0  0
   -2.0791    0.6134   -1.2287 C   0  0  0  0  0  0  0  0  0  0  0  0
    0.9121    1.6465   -0.5969 C   0  0  0  0  0  0  0  0  0  0  0  0
   -2.7739   -0.6359   -0.7560 C   0  0  0  0  0  0  0  0  0  0  0  0
   -2.0607   -1.8293   -0.6412 C   0  0  0  0  0  0  0  0  0  0  0  0
   -4.1302   -0.6003   -0.4327 C   0  0  0  0  0  0  0  0  0  0  0  0
    2.6343    0.5142   -0.4199 C   0  0  0  0  0  0  0  0  0  0  0  0
   -2.7041   -2.9869   -0.2036 C   0  0  0  0  0  0  0  0  0  0  0  0
   -4.7737   -1.7578    0.0049 C   0  0  0  0  0  0  0  0  0  0  0  0
    3.5393   -0.5011    0.0358 C   0  0  0  0  0  0  0  0  0  0  0  0
   -4.0605   -2.9512    0.1195 C   0  0  0  0  0  0  0  0  0  0  0  0
    3.1551   -1.4216    1.0046 C   0  0  0  0  0  0  0  0  0  0  0  0
    4.8236   -0.5954   -0.4753 C   0  0  0  0  0  0  0  0  0  0  0  0
    4.0544   -2.3946    1.4266 C   0  0  0  0  0  0  0  0  0  0  0  0
    5.3158   -2.4042    0.8531 C   0  0  0  0  0  0  0  0  0  0  0  0
   -0.6779    2.7273   -1.5264 H   0  0  0  0  0  0  0  0  0  0  0  0
    0.4144    3.5705    1.0654 H   0  0  0  0  0  0  0  0  0  0  0  0
   -0.6932    4.4091   -0.0237 H   0  0  0  0  0  0  0  0  0  0  0  0
   -1.3070    2.5840    2.3067 H   0  0  0  0  0  0  0  0  0  0  0  0
   -3.1853    1.5818    1.2030 H   0  0  0  0  0  0  0  0  0  0  0  0
   -3.1525    2.7572   -0.1268 H   0  0  0  0  0  0  0  0  0  0  0  0
   -1.2811    0.2990   -1.9157 H   0  0  0  0  0  0  0  0  0  0  0  0
   -2.7565    1.2204   -1.8448 H   0  0  0  0  0  0  0  0  0  0  0  0
   -1.7496    4.8421    2.2669 H   0  0  0  0  0  0  0  0  0  0  0  0
   -1.0027   -1.8702   -0.8867 H   0  0  0  0  0  0  0  0  0  0  0  0
   -4.6997    0.3208   -0.5228 H   0  0  0  0  0  0  0  0  0  0  0  0
   -2.1490   -3.9160   -0.1134 H   0  0  0  0  0  0  0  0  0  0  0  0
   -5.8300   -1.7307    0.2556 H   0  0  0  0  0  0  0  0  0  0  0  0
    2.1625   -1.4049    1.4474 H   0  0  0  0  0  0  0  0  0  0  0  0
    5.2012    0.0841   -1.2337 H   0  0  0  0  0  0  0  0  0  0  0  0
    3.7771   -3.1225    2.1803 H   0  0  0  0  0  0  0  0  0  0  0  0
    6.0540   -3.1428    1.1477 H   0  0  0  0  0  0  0  0  0  0  0  0
  1 21  1  0  0  0  0
  2 10  1  0  0  0  0
  2 34  1  0  0  0  0
  3  6  1  0  0  0  0
  3 13  1  0  0  0  0
  4  8  1  0  0  0  0
  4 11  1  0  0  0  0
  4 12  1  0  0  0  0
  5 13  2  0  0  0  0
  5 17  1  0  0  0  0
  6 17  2  0  0  0  0
  7 23  1  0  0  0  0
  7 25  2  0  0  0  0
  8  9  1  0  0  0  0
  8 13  1  0  0  0  0
  8 26  1  0  0  0  0
  9 10  1  0  0  0  0
  9 27  1  0  0  0  0
  9 28  1  0  0  0  0
 10 11  1  0  0  0  0
 10 29  1  0  0  0  0
 11 30  1  0  0  0  0
 11 31  1  0  0  0  0
 12 14  1  0  0  0  0
 12 32  1  0  0  0  0
 12 33  1  0  0  0  0
 14 15  2  0  0  0  0
 14 16  1  0  0  0  0
 15 18  1  0  0  0  0
 15 35  1  0  0  0  0
 16 19  2  0  0  0  0
 16 36  1  0  0  0  0
 17 20  1  0  0  0  0
 18 21  2  0  0  0  0
 18 37  1  0  0  0  0
 19 21  1  0  0  0  0
 19 38  1  0  0  0  0
 20 22  1  0  0  0  0
 20 23  2  0  0  0  0
 22 24  2  0  0  0  0
 22 39  1  0  0  0  0
 23 40  1  0  0  0  0
 24 25  1  0  0  0  0
 24 41  1  0  0  0  0
 25 42  1  0  0  0  0
M  END
> <PUBCHEM_COMPOUND_CID>
26743968

> <PUBCHEM_CONFORMER_RMSD>
0.8

> <PUBCHEM_CONFORMER_DIVERSEORDER>
1
36
47
61
65
69
28
35
48
52
30
60
67
29
11
64
14
10
57
66
13
51
59
63
39
53
46
2
38
22
41
54
5
25
9
58
12
50
68
37
55
4
6
19
43
62
33
17
26
42
18
56
15
31
40
20
7
23
44
27
32
21
16
8
45
49
24
3
34

> <PUBCHEM_MMFF94_PARTIAL_CHARGES>
33
1 -0.19
10 0.28
11 0.27
12 0.41
13 0.3
14 -0.14
15 -0.15
16 -0.15
17 0.46
18 -0.15
19 -0.15
2 -0.68
20 0.05
21 0.19
22 -0.15
23 0.16
24 -0.15
25 0.16
3 -0.02
34 0.4
35 0.15
36 0.15
37 0.15
38 0.15
39 0.15
4 -0.81
40 0.15
41 0.15
42 0.15
5 -0.57
6 -0.41
7 -0.62
8 0.45

> <PUBCHEM_EFFECTIVE_ROTOR_COUNT>
5

> <PUBCHEM_PHARMACOPHORE_FEATURES>
9
1 2 acceptor
1 2 donor
1 4 cation
1 7 acceptor
3 5 6 17 cation
5 3 5 6 13 17 rings
5 4 8 9 10 11 rings
6 14 15 16 18 19 21 rings
6 7 20 22 23 24 25 rings

> <PUBCHEM_HEAVY_ATOM_COUNT>
25

> <PUBCHEM_ATOM_DEF_STEREO_COUNT>
2

> <PUBCHEM_ATOM_UDEF_STEREO_COUNT>
0

> <PUBCHEM_BOND_DEF_STEREO_COUNT>
0

> <PUBCHEM_BOND_UDEF_STEREO_COUNT>
0

> <PUBCHEM_ISOTOPIC_ATOM_COUNT>
0

> <PUBCHEM_COMPONENT_COUNT>
1

> <PUBCHEM_CACTVS_TAUTO_COUNT>
1

> <PUBCHEM_CONFORMER_ID>
019814A000000001

> <PUBCHEM_MMFF94_ENERGY>
53.4947

> <PUBCHEM_FEATURE_SELFOVERLAP>
45.672

> <PUBCHEM_SHAPE_FINGERPRINT>
10074138 170 18058455309669892585
11315621 246 18191311468981679750
114674 6 17329709233096256195
11552529 35 18268703927369481648
12107183 9 18341065103066381987
12403259 118 10447385176323099109
12553582 1 18057888137399024581
12760667 363 18412256242812227911
12788726 201 18270415965209803709
12824470 246 18408041835732606085
13004483 165 18272085028472330349
13009979 54 18410579474478585604
13631057 29 18409449215601677350
13968360 50 17761208809670083861
14178342 30 18198346147979599742
14844126 61 18272079462089122355
14866123 147 18339927018168222867
15042514 8 18340491067121971581
15099037 8 18407760330865139100
15352361 1 18335415794267617830
15475509 35 17614009907994860835
15842332 3 18190203246601330836
16728300 4 18188790353248473699
17909252 39 18338237167375370602
19319366 153 17615978041706892324
19784866 135 18342455941576629217
20291156 8 18335696173932378230
20775530 9 18334847363804025462
23559900 14 18336532915266419845
23598288 3 18343022194418151133
23728640 28 18268433421423123689
25222932 49 17837775890838175318
3004659 81 18114455742678845022
345986 75 18057617657944987851
4435113 14 17484250660991183934
463206 1 18192992853308256170
484985 159 18263919943444747199
5486654 36 18337956679956060888
58807428 26 17622736318918934777
6679774 75 17398148995940174547
7970288 3 18408600379123999642
79837 15 17911810067733537889
88748 71 18189054347144364279

> <PUBCHEM_SHAPE_MULTIPOLES>
475.55
11.11
5.17
1.26
9.49
1.11
0.18
-12.35
1.28
-5.67
2.14
0.24
0.74
-2.27

> <PUBCHEM_SHAPE_SELFOVERLAP>
1039.033

> <PUBCHEM_SHAPE_VOLUME>
260.4

> <PUBCHEM_COORDINATE_TYPE>
2
5
10

$$$$
