75536800
  -OEChem-12032416393D

 42 44  0     1  0  0  0  0  0999 V2000
    0.0659   -0.9203    0.0863 O   0  0  0  0  0  0  0  0  0  0  0  0
   -1.1727    2.4517    0.1201 O   0  0  0  0  0  0  0  0  0  0  0  0
    3.4392    2.0069   -0.1553 O   0  0  0  0  0  0  0  0  0  0  0  0
   -3.3875    0.2222    0.1112 N   0  0  0  0  0  0  0  0  0  0  0  0
    2.5678    0.1811    0.9803 N   0  0  0  0  0  0  0  0  0  0  0  0
   -6.1708   -1.2633    0.4503 N   0  0  0  0  0  0  0  0  0  0  0  0
   -6.6399    0.4317   -0.9057 N   0  0  0  0  0  0  0  0  0  0  0  0
    7.1485   -1.3213   -0.5293 N   0  0  0  0  0  0  0  0  0  0  0  0
   -1.9952    0.1930   -0.3065 C   0  0  1  0  0  0  0  0  0  0  0  0
   -1.0938    1.0959    0.5152 C   0  0  1  0  0  0  0  0  0  0  0  0
    0.2734    0.4961    0.2160 C   0  0  1  0  0  0  0  0  0  0  0  0
   -1.3410   -1.1618   -0.0907 C   0  0  0  0  0  0  0  0  0  0  0  0
    1.2987    0.7672    1.3025 C   0  0  0  0  0  0  0  0  0  0  0  0
   -4.2510   -0.3812   -0.8968 C   0  0  0  0  0  0  0  0  0  0  0  0
   -5.6958   -0.3748   -0.4738 C   0  0  0  0  0  0  0  0  0  0  0  0
    3.5513    0.8588    0.2662 C   0  0  0  0  0  0  0  0  0  0  0  0
    4.8006    0.1034   -0.0089 C   0  0  0  0  0  0  0  0  0  0  0  0
   -7.5025   -1.0071    0.6185 C   0  0  0  0  0  0  0  0  0  0  0  0
   -7.7686    0.0427   -0.2286 C   0  0  0  0  0  0  0  0  0  0  0  0
    5.5731    0.4138   -1.1227 C   0  0  0  0  0  0  0  0  0  0  0  0
    5.2007   -0.9185    0.8450 C   0  0  0  0  0  0  0  0  0  0  0  0
    6.7276   -0.3217   -1.3364 C   0  0  0  0  0  0  0  0  0  0  0  0
    6.3721   -1.5944    0.5432 C   0  0  0  0  0  0  0  0  0  0  0  0
   -1.9090    0.4945   -1.3601 H   0  0  0  0  0  0  0  0  0  0  0  0
   -1.3319    1.0246    1.5838 H   0  0  0  0  0  0  0  0  0  0  0  0
    0.6546    0.8598   -0.7473 H   0  0  0  0  0  0  0  0  0  0  0  0
   -1.7000   -1.6580    0.8184 H   0  0  0  0  0  0  0  0  0  0  0  0
   -1.4881   -1.8416   -0.9355 H   0  0  0  0  0  0  0  0  0  0  0  0
    0.9842    0.3158    2.2499 H   0  0  0  0  0  0  0  0  0  0  0  0
    1.4239    1.8444    1.4557 H   0  0  0  0  0  0  0  0  0  0  0  0
   -3.6731    1.1914    0.2535 H   0  0  0  0  0  0  0  0  0  0  0  0
   -3.9565   -1.4196   -1.0918 H   0  0  0  0  0  0  0  0  0  0  0  0
   -4.1718    0.1658   -1.8447 H   0  0  0  0  0  0  0  0  0  0  0  0
   -0.9617    2.5069   -0.8273 H   0  0  0  0  0  0  0  0  0  0  0  0
    2.6997   -0.7904    1.2408 H   0  0  0  0  0  0  0  0  0  0  0  0
   -5.6361   -1.9793    0.9242 H   0  0  0  0  0  0  0  0  0  0  0  0
   -8.1160   -1.5760    1.3019 H   0  0  0  0  0  0  0  0  0  0  0  0
   -8.7155    0.5383   -0.3855 H   0  0  0  0  0  0  0  0  0  0  0  0
    5.2942    1.2001   -1.8159 H   0  0  0  0  0  0  0  0  0  0  0  0
    4.6581   -1.1893    1.7433 H   0  0  0  0  0  0  0  0  0  0  0  0
    7.3644   -0.1199   -2.1914 H   0  0  0  0  0  0  0  0  0  0  0  0
    6.7318   -2.3951    1.1811 H   0  0  0  0  0  0  0  0  0  0  0  0
  1 11  1  0  0  0  0
  1 12  1  0  0  0  0
  2 10  1  0  0  0  0
  2 34  1  0  0  0  0
  3 16  2  0  0  0  0
  4  9  1  0  0  0  0
  4 14  1  0  0  0  0
  4 31  1  0  0  0  0
  5 13  1  0  0  0  0
  5 16  1  0  0  0  0
  5 35  1  0  0  0  0
  6 15  1  0  0  0  0
  6 18  1  0  0  0  0
  6 36  1  0  0  0  0
  7 15  2  0  0  0  0
  7 19  1  0  0  0  0
  8 22  2  0  0  0  0
  8 23  1  0  0  0  0
  9 10  1  0  0  0  0
  9 12  1  0  0  0  0
  9 24  1  0  0  0  0
 10 11  1  0  0  0  0
 10 25  1  0  0  0  0
 11 13  1  0  0  0  0
 11 26  1  0  0  0  0
 12 27  1  0  0  0  0
 12 28  1  0  0  0  0
 13 29  1  0  0  0  0
 13 30  1  0  0  0  0
 14 15  1  0  0  0  0
 14 32  1  0  0  0  0
 14 33  1  0  0  0  0
 16 17  1  0  0  0  0
 17 20  2  0  0  0  0
 17 21  1  0  0  0  0
 18 19  2  0  0  0  0
 18 37  1  0  0  0  0
 19 38  1  0  0  0  0
 20 22  1  0  0  0  0
 20 39  1  0  0  0  0
 21 23  2  0  0  0  0
 21 40  1  0  0  0  0
 22 41  1  0  0  0  0
 23 42  1  0  0  0  0
M  END
> <PUBCHEM_COMPOUND_CID>
75536800

> <PUBCHEM_CONFORMER_RMSD>
0.8

> <PUBCHEM_CONFORMER_DIVERSEORDER>
1
165
26
51
92
132
143
81
73
135
60
125
129
168
27
55
85
99
16
185
44
148
62
134
133
43
58
154
159
128
152
76
102
10
35
80
178
167
9
49
172
137
67
106
63
103
162
109
118
20
21
144
111
56
53
181
174
169
75
108
146
5
94
139
155
78
138
124
40
117
59
115
41
8
86
65
72
14
149
79
70
131
184
140
120
7
150
32
96
61
123
151
161
121
112
98
66
22
91
163
88
25
180
89
147
157
82
122
95
110
28
173
160
153
6
142
116
69
68
145
179
130
158
15
183
182
127
50
156
4
83
170
19
74
11
29
93
23
39
48
31
126
171
64
38
47
105
166
107
176
12
87
175
2
71
90
141
97
164
104
17
119
52
18
136
177
24
101
3
113
30
114
100
46
45
57
13
36
84
33
34
77
37
54
42

> <PUBCHEM_MMFF94_PARTIAL_CHARGES>
33
1 -0.56
10 0.28
11 0.28
12 0.28
13 0.3
14 0.45
15 0.01
16 0.54
17 0.09
18 -0.3
19 0.08
2 -0.68
20 -0.15
21 -0.15
22 0.16
23 0.16
3 -0.57
31 0.36
34 0.4
35 0.37
36 0.27
37 0.15
38 0.15
39 0.15
4 -0.9
40 0.15
41 0.15
42 0.15
5 -0.73
6 0.03
7 -0.57
8 -0.62
9 0.27

> <PUBCHEM_EFFECTIVE_ROTOR_COUNT>
8

> <PUBCHEM_PHARMACOPHORE_FEATURES>
13
1 1 acceptor
1 2 acceptor
1 2 donor
1 3 acceptor
1 4 cation
1 4 donor
1 5 donor
1 6 donor
1 8 acceptor
3 6 7 15 cation
5 1 9 10 11 12 rings
5 6 7 15 18 19 rings
6 8 17 20 21 22 23 rings

> <PUBCHEM_HEAVY_ATOM_COUNT>
23

> <PUBCHEM_ATOM_DEF_STEREO_COUNT>
3

> <PUBCHEM_ATOM_UDEF_STEREO_COUNT>
0

> <PUBCHEM_BOND_DEF_STEREO_COUNT>
0

> <PUBCHEM_BOND_UDEF_STEREO_COUNT>
0

> <PUBCHEM_ISOTOPIC_ATOM_COUNT>
0

> <PUBCHEM_COMPONENT_COUNT>
1

> <PUBCHEM_CACTVS_TAUTO_COUNT>
2

> <PUBCHEM_CONFORMER_ID>
048099A000000001

> <PUBCHEM_MMFF94_ENERGY>
42.4675

> <PUBCHEM_FEATURE_SELFOVERLAP>
65.975

> <PUBCHEM_SHAPE_FINGERPRINT>
10 15 11239995663782167642
10299344 5 18334296461655550795
106641 1 9007050280080506197
11315181 36 12612752411941898839
11524674 6 16343699950348336711
11638347 137 12463578374244007764
12166972 35 18040436607038768317
13533116 47 16515952688608102584
13673619 4 18060418010322718408
13685833 64 17846779607290565760
14216079 64 17989208122759424750
14251752 14 18412822474004436629
14251764 18 17275388720087728960
14294032 229 18124040035663615593
14347424 109 15769770273885893234
14429380 56 11891337598802166631
14933364 13 17822008714155061645
15131766 46 13325130474496156826
15183329 4 18342177756249396506
15849732 13 17385444336428055535
20157964 124 8286208257771468216
21150785 3 16950284009426796014
21267235 1 18411983554826732729
21781051 124 18337116755798772899
220451 1 16588015823681174299
221357 26 17603584119585771396
22224240 67 11314029084389097537
22956985 138 17555749711843777846
23035841 295 18342737429802316275
23081809 10 14418398980749598837
23522609 53 18127722437227317528
23559900 14 18270391827657332024
246663 6 18272373070221882499
28498 318 17846499210155487165
3004659 81 18413107273517981840
328311 84 18411140255626555051
34797466 226 16298106484146129286
4107672 100 17967808315770104541
4339292 15 10663519523888251181
445580 37 17168136803007203653
5207 217 13551191091589894073
5758199 1 12757146858190246141
59682541 35 10231746791003946326
59755656 215 18342738494442808431
59755656 520 18040428919648824523
6438161 24 18187639177464790506

> <PUBCHEM_SHAPE_MULTIPOLES>
430.82
23.5
1.52
1.04
14.46
0.42
0.06
-8.98
4.2
-0.91
-0.17
-0.8
-0.01
0.1

> <PUBCHEM_SHAPE_SELFOVERLAP>
913.212

> <PUBCHEM_SHAPE_VOLUME>
238.2

> <PUBCHEM_COORDINATE_TYPE>
2
5
10

$$$$
