75367803
  -OEChem-12032416383D

 44 45  0     1  0  0  0  0  0999 V2000
   -0.2035    3.7967   -0.5010 O   0  0  0  0  0  0  0  0  0  0  0  0
    1.7869    0.8072   -0.7410 O   0  0  0  0  0  0  0  0  0  0  0  0
    3.6801   -0.7154   -1.6606 O   0  0  0  0  0  0  0  0  0  0  0  0
   -1.6931    1.2561    0.5248 N   0  0  2  0  0  0  0  0  0  0  0  0
   -2.2834   -2.0155    0.8212 N   0  0  0  0  0  0  0  0  0  0  0  0
    4.6148   -1.2627    0.3934 N   0  0  0  0  0  0  0  0  0  0  0  0
   -0.3619    0.6737    0.3230 C   0  0  0  0  0  0  0  0  0  0  0  0
    0.7662    1.6076   -0.1431 C   0  0  2  0  0  0  0  0  0  0  0  0
   -1.6818    2.6088    1.0835 C   0  0  0  0  0  0  0  0  0  0  0  0
    0.3343    2.6552   -1.1603 C   0  0  0  0  0  0  0  0  0  0  0  0
   -1.5378    3.6361   -0.0402 C   0  0  0  0  0  0  0  0  0  0  0  0
   -2.5212    0.3529    1.3248 C   0  0  0  0  0  0  0  0  0  0  0  0
   -2.9374   -0.8653    0.5440 C   0  0  0  0  0  0  0  0  0  0  0  0
    2.6125    0.2057    0.2436 C   0  0  0  0  0  0  0  0  0  0  0  0
   -3.9471   -0.7548   -0.3985 C   0  0  0  0  0  0  0  0  0  0  0  0
    3.6796   -0.6327   -0.4285 C   0  0  0  0  0  0  0  0  0  0  0  0
   -4.3089   -1.8986   -1.1015 C   0  0  0  0  0  0  0  0  0  0  0  0
   -2.6621   -3.1062    0.1179 C   0  0  0  0  0  0  0  0  0  0  0  0
   -3.6590   -3.1007   -0.8443 C   0  0  0  0  0  0  0  0  0  0  0  0
    5.6666   -2.0730   -0.2082 C   0  0  0  0  0  0  0  0  0  0  0  0
    4.6564   -1.1751    1.8512 C   0  0  0  0  0  0  0  0  0  0  0  0
   -0.4476   -0.1434   -0.4057 H   0  0  0  0  0  0  0  0  0  0  0  0
   -0.0215    0.2039    1.2555 H   0  0  0  0  0  0  0  0  0  0  0  0
    1.1759    2.1391    0.7275 H   0  0  0  0  0  0  0  0  0  0  0  0
   -0.9064    2.7265    1.8496 H   0  0  0  0  0  0  0  0  0  0  0  0
   -2.6431    2.8253    1.5663 H   0  0  0  0  0  0  0  0  0  0  0  0
   -0.3669    2.2577   -1.9041 H   0  0  0  0  0  0  0  0  0  0  0  0
    1.2102    3.0029   -1.7203 H   0  0  0  0  0  0  0  0  0  0  0  0
   -2.2017    3.4156   -0.8856 H   0  0  0  0  0  0  0  0  0  0  0  0
   -1.8453    4.6141    0.3471 H   0  0  0  0  0  0  0  0  0  0  0  0
   -3.4506    0.8484    1.6379 H   0  0  0  0  0  0  0  0  0  0  0  0
   -2.0198    0.0597    2.2569 H   0  0  0  0  0  0  0  0  0  0  0  0
    3.1042    0.9868    0.8335 H   0  0  0  0  0  0  0  0  0  0  0  0
    2.0258   -0.4548    0.8887 H   0  0  0  0  0  0  0  0  0  0  0  0
   -4.4483    0.1875   -0.5923 H   0  0  0  0  0  0  0  0  0  0  0  0
   -5.0956   -1.8534   -1.8486 H   0  0  0  0  0  0  0  0  0  0  0  0
   -2.1246   -4.0182    0.3556 H   0  0  0  0  0  0  0  0  0  0  0  0
   -3.9244   -4.0047   -1.3803 H   0  0  0  0  0  0  0  0  0  0  0  0
    6.6372   -1.6473    0.0630 H   0  0  0  0  0  0  0  0  0  0  0  0
    5.5862   -2.1042   -1.2976 H   0  0  0  0  0  0  0  0  0  0  0  0
    5.5922   -3.0926    0.1812 H   0  0  0  0  0  0  0  0  0  0  0  0
    4.6066   -2.1872    2.2637 H   0  0  0  0  0  0  0  0  0  0  0  0
    3.8341   -0.5904    2.2637 H   0  0  0  0  0  0  0  0  0  0  0  0
    5.6017   -0.7090    2.1444 H   0  0  0  0  0  0  0  0  0  0  0  0
  1 10  1  0  0  0  0
  1 11  1  0  0  0  0
  2  8  1  0  0  0  0
  2 14  1  0  0  0  0
  3 16  2  0  0  0  0
  4  7  1  0  0  0  0
  4  9  1  0  0  0  0
  4 12  1  0  0  0  0
  5 13  1  0  0  0  0
  5 18  2  0  0  0  0
  6 16  1  0  0  0  0
  6 20  1  0  0  0  0
  6 21  1  0  0  0  0
  7  8  1  0  0  0  0
  7 22  1  0  0  0  0
  7 23  1  0  0  0  0
  8 10  1  0  0  0  0
  8 24  1  0  0  0  0
  9 11  1  0  0  0  0
  9 25  1  0  0  0  0
  9 26  1  0  0  0  0
 10 27  1  0  0  0  0
 10 28  1  0  0  0  0
 11 29  1  0  0  0  0
 11 30  1  0  0  0  0
 12 13  1  0  0  0  0
 12 31  1  0  0  0  0
 12 32  1  0  0  0  0
 13 15  2  0  0  0  0
 14 16  1  0  0  0  0
 14 33  1  0  0  0  0
 14 34  1  0  0  0  0
 15 17  1  0  0  0  0
 15 35  1  0  0  0  0
 17 19  2  0  0  0  0
 17 36  1  0  0  0  0
 18 19  1  0  0  0  0
 18 37  1  0  0  0  0
 19 38  1  0  0  0  0
 20 39  1  0  0  0  0
 20 40  1  0  0  0  0
 20 41  1  0  0  0  0
 21 42  1  0  0  0  0
 21 43  1  0  0  0  0
 21 44  1  0  0  0  0
M  END
> <PUBCHEM_COMPOUND_CID>
75367803

> <PUBCHEM_CONFORMER_RMSD>
1

> <PUBCHEM_CONFORMER_DIVERSEORDER>
1
151
11
140
40
170
125
48
47
81
6
108
7
18
90
183
126
57
173
178
101
138
166
145
93
30
148
161
186
132
45
74
117
69
83
64
34
171
22
72
137
157
36
70
135
88
41
9
143
91
26
168
147
136
76
133
187
118
59
172
29
13
75
33
62
134
180
79
175
155
114
156
67
27
154
149
127
51
115
182
28
94
68
163
162
97
84
82
52
50
87
49
60
2
104
20
19
122
109
169
77
103
5
46
105
142
99
141
179
12
176
14
3
86
95
66
167
112
16
71
100
31
165
42
53
8
65
78
188
128
111
121
131
24
102
110
164
63
150
159
113
152
54
58
17
116
43
32
4
160
61
80
139
174
73
10
184
44
181
144
153
119
85
21
185
146
15
92
39
130
37
23
124
35
25
56
55
38
98
96
106
158
120
123
107
177
129
89

> <PUBCHEM_MMFF94_PARTIAL_CHARGES>
25
1 -0.56
10 0.28
11 0.28
12 0.41
13 0.17
14 0.34
15 -0.15
16 0.57
17 -0.15
18 0.16
19 -0.15
2 -0.56
20 0.3
21 0.3
3 -0.57
35 0.15
36 0.15
37 0.15
38 0.15
4 -0.81
5 -0.62
6 -0.66
7 0.27
8 0.28
9 0.27

> <PUBCHEM_EFFECTIVE_ROTOR_COUNT>
7.4

> <PUBCHEM_PHARMACOPHORE_FEATURES>
7
1 1 acceptor
1 2 acceptor
1 3 acceptor
1 4 cation
1 5 acceptor
6 5 13 15 17 18 19 rings
7 1 4 7 8 9 10 11 rings

> <PUBCHEM_HEAVY_ATOM_COUNT>
21

> <PUBCHEM_ATOM_DEF_STEREO_COUNT>
1

> <PUBCHEM_ATOM_UDEF_STEREO_COUNT>
0

> <PUBCHEM_BOND_DEF_STEREO_COUNT>
0

> <PUBCHEM_BOND_UDEF_STEREO_COUNT>
0

> <PUBCHEM_ISOTOPIC_ATOM_COUNT>
0

> <PUBCHEM_COMPONENT_COUNT>
1

> <PUBCHEM_CACTVS_TAUTO_COUNT>
1

> <PUBCHEM_CONFORMER_ID>
047E057B00000001

> <PUBCHEM_MMFF94_ENERGY>
60.6699

> <PUBCHEM_FEATURE_SELFOVERLAP>
35.534

> <PUBCHEM_SHAPE_FINGERPRINT>
10483366 6 18192695784190926525
11056379 131 18267878181421152468
11265709 11 18409731785125245857
11552529 35 18271525274232943072
12363563 72 18339085989681950855
12523318 42 18268132185649667346
12553582 1 18336281109818203930
13004483 165 18412537743189294893
13083527 12 18264476455585420960
13583140 156 15338839707776473906
13931106 250 18264201413926192933
14844126 61 18263927635620353120
14866123 147 18268713818768952035
15352361 1 18412261778566311574
17539 30 18337945697709237525
19032999 76 18337372912291024162
19141452 34 18270689666580688233
20621476 51 18338797819199359310
20626108 58 18269831080911324547
20671657 53 18337952419327215555
20775530 9 18196660820024569719
21452121 199 18268709600520574377
23114952 82 17756980482890644949
23559900 14 18270673276785124161
23622692 118 18410011027272909084
23728640 28 18265061223587337593
255183 313 18056211185115823993
257057 1 18339083799533791281
3027735 51 18196643013221996855
339767 52 18336535097342246098
397830 11 18200011960717379178
463206 1 18260263092119646539
5924683 9 18339636733791679442
602551 16 18340208462996039218
613672 6 18337944709740340714
6433294 58 17330558060310461335
88748 71 18192998347051254755

> <PUBCHEM_SHAPE_MULTIPOLES>
399.62
10.06
4.56
1.3
11.85
2.71
0.14
-11.73
-0.17
-3.51
-0.7
0.51
-0.1
-1.24

> <PUBCHEM_SHAPE_SELFOVERLAP>
810.526

> <PUBCHEM_SHAPE_VOLUME>
230.8

> <PUBCHEM_COORDINATE_TYPE>
2
5
10

$$$$
