11913101
  -OEChem-12032416373D

 67 73  0     1  0  0  0  0  0999 V2000
   -0.4963    2.4323   -1.2154 O   0  0  0  0  0  0  0  0  0  0  0  0
   -2.0870   -0.0971   -1.9114 O   0  0  0  0  0  0  0  0  0  0  0  0
    1.4374    0.5392   -1.8300 O   0  0  0  0  0  0  0  0  0  0  0  0
    2.4580   -0.2758    0.0472 O   0  0  0  0  0  0  0  0  0  0  0  0
   -6.9445   -3.6331   -0.4155 O   0  0  0  0  0  0  0  0  0  0  0  0
   -9.2622   -3.1220   -0.8332 O   0  0  0  0  0  0  0  0  0  0  0  0
    8.9134    0.6460    0.2126 O   0  0  0  0  0  0  0  0  0  0  0  0
   -3.1122    2.4979    0.4636 N   0  0  0  0  0  0  0  0  0  0  0  0
   -5.0103    1.1747    0.6616 N   0  0  0  0  0  0  0  0  0  0  0  0
   -4.3678    2.7084    2.4057 N   0  0  0  0  0  0  0  0  0  0  0  0
    3.6713    0.7906   -1.6471 N   0  0  0  0  0  0  0  0  0  0  0  0
   -2.0028    0.6763   -0.6959 C   0  0  1  0  0  0  0  0  0  0  0  0
   -0.5675    1.1482   -0.5746 C   0  0  1  0  0  0  0  0  0  0  0  0
   -2.7965    1.9536   -0.8397 C   0  0  2  0  0  0  0  0  0  0  0  0
    0.1896    0.0950   -1.3474 C   0  0  1  0  0  0  0  0  0  0  0  0
   -1.8205    2.8615   -1.5676 C   0  0  0  0  0  0  0  0  0  0  0  0
   -0.7713   -0.2298   -2.4687 C   0  0  0  0  0  0  0  0  0  0  0  0
   -4.2113    2.1100    1.2095 C   0  0  0  0  0  0  0  0  0  0  0  0
    2.5369    0.2967   -1.0328 C   0  0  0  0  0  0  0  0  0  0  0  0
   -6.0718    0.8205    1.4152 C   0  0  0  0  0  0  0  0  0  0  0  0
   -5.4492    2.3071    3.1059 C   0  0  0  0  0  0  0  0  0  0  0  0
   -6.3442    1.3577    2.6568 C   0  0  0  0  0  0  0  0  0  0  0  0
    5.0033    0.7525   -1.1754 C   0  0  0  0  0  0  0  0  0  0  0  0
   -6.9302   -0.1825    0.8318 C   0  0  0  0  0  0  0  0  0  0  0  0
    5.2907    0.1614    0.0548 C   0  0  0  0  0  0  0  0  0  0  0  0
    6.0300    1.3073   -1.9396 C   0  0  0  0  0  0  0  0  0  0  0  0
   -6.4109   -1.4399    0.5142 C   0  0  0  0  0  0  0  0  0  0  0  0
   -8.2825    0.1157    0.5880 C   0  0  0  0  0  0  0  0  0  0  0  0
   -7.2698   -2.3654   -0.0421 C   0  0  0  0  0  0  0  0  0  0  0  0
   -9.1309   -0.8400    0.0238 C   0  0  0  0  0  0  0  0  0  0  0  0
   -8.5932   -2.0736   -0.2806 C   0  0  0  0  0  0  0  0  0  0  0  0
    6.6049    0.1249    0.5210 C   0  0  0  0  0  0  0  0  0  0  0  0
    7.3441    1.2709   -1.4734 C   0  0  0  0  0  0  0  0  0  0  0  0
    7.6315    0.6796   -0.2432 C   0  0  0  0  0  0  0  0  0  0  0  0
   -8.2119   -4.1066   -0.9154 C   0  0  0  0  0  0  0  0  0  0  0  0
    9.3749   -0.5446    0.7489 C   0  0  0  0  0  0  0  0  0  0  0  0
    9.1166   -1.7499    0.0964 C   0  0  0  0  0  0  0  0  0  0  0  0
   10.0972   -0.5383    1.9420 C   0  0  0  0  0  0  0  0  0  0  0  0
    9.5807   -2.9492    0.6371 C   0  0  0  0  0  0  0  0  0  0  0  0
   10.5613   -1.7374    2.4828 C   0  0  0  0  0  0  0  0  0  0  0  0
   10.3031   -2.9429    1.8302 C   0  0  0  0  0  0  0  0  0  0  0  0
   -2.3120    0.0263    0.1287 H   0  0  0  0  0  0  0  0  0  0  0  0
   -0.2222    1.2712    0.4559 H   0  0  0  0  0  0  0  0  0  0  0  0
   -3.7027    1.8445   -1.4465 H   0  0  0  0  0  0  0  0  0  0  0  0
    0.2881   -0.8093   -0.7311 H   0  0  0  0  0  0  0  0  0  0  0  0
   -1.9336    3.9224   -1.3236 H   0  0  0  0  0  0  0  0  0  0  0  0
   -1.9170    2.7482   -2.6532 H   0  0  0  0  0  0  0  0  0  0  0  0
   -0.6736    0.4607   -3.3139 H   0  0  0  0  0  0  0  0  0  0  0  0
   -0.6357   -1.2456   -2.8522 H   0  0  0  0  0  0  0  0  0  0  0  0
   -2.4784    3.1628    0.8924 H   0  0  0  0  0  0  0  0  0  0  0  0
    3.5351    1.2374   -2.5506 H   0  0  0  0  0  0  0  0  0  0  0  0
   -5.5796    2.7847    4.0711 H   0  0  0  0  0  0  0  0  0  0  0  0
   -7.1963    1.0635    3.2570 H   0  0  0  0  0  0  0  0  0  0  0  0
   -5.3710   -1.6929    0.6956 H   0  0  0  0  0  0  0  0  0  0  0  0
    4.5480   -0.2825    0.7030 H   0  0  0  0  0  0  0  0  0  0  0  0
    5.8195    1.7711   -2.8998 H   0  0  0  0  0  0  0  0  0  0  0  0
   -8.6890    1.0958    0.8286 H   0  0  0  0  0  0  0  0  0  0  0  0
  -10.1737   -0.6137   -0.1672 H   0  0  0  0  0  0  0  0  0  0  0  0
    6.7973   -0.3207    1.4935 H   0  0  0  0  0  0  0  0  0  0  0  0
    8.1398    1.7047   -2.0728 H   0  0  0  0  0  0  0  0  0  0  0  0
   -8.0877   -4.4006   -1.9640 H   0  0  0  0  0  0  0  0  0  0  0  0
   -8.5105   -4.9877   -0.3358 H   0  0  0  0  0  0  0  0  0  0  0  0
    8.5755   -1.7818   -0.8456 H   0  0  0  0  0  0  0  0  0  0  0  0
   10.3008    0.3978    2.4547 H   0  0  0  0  0  0  0  0  0  0  0  0
    9.3840   -3.8874    0.1266 H   0  0  0  0  0  0  0  0  0  0  0  0
   11.1239   -1.7325    3.4118 H   0  0  0  0  0  0  0  0  0  0  0  0
   10.6656   -3.8764    2.2505 H   0  0  0  0  0  0  0  0  0  0  0  0
  1 13  1  0  0  0  0
  1 16  1  0  0  0  0
  2 12  1  0  0  0  0
  2 17  1  0  0  0  0
  3 15  1  0  0  0  0
  3 19  1  0  0  0  0
  4 19  2  0  0  0  0
  5 29  1  0  0  0  0
  5 35  1  0  0  0  0
  6 31  1  0  0  0  0
  6 35  1  0  0  0  0
  7 34  1  0  0  0  0
  7 36  1  0  0  0  0
  8 14  1  0  0  0  0
  8 18  1  0  0  0  0
  8 50  1  0  0  0  0
  9 18  1  0  0  0  0
  9 20  2  0  0  0  0
 10 18  2  0  0  0  0
 10 21  1  0  0  0  0
 11 19  1  0  0  0  0
 11 23  1  0  0  0  0
 11 51  1  0  0  0  0
 12 13  1  0  0  0  0
 12 14  1  0  0  0  0
 12 42  1  0  0  0  0
 13 15  1  0  0  0  0
 13 43  1  0  0  0  0
 14 16  1  0  0  0  0
 14 44  1  0  0  0  0
 15 17  1  0  0  0  0
 15 45  1  0  0  0  0
 16 46  1  0  0  0  0
 16 47  1  0  0  0  0
 17 48  1  0  0  0  0
 17 49  1  0  0  0  0
 20 22  1  0  0  0  0
 20 24  1  0  0  0  0
 21 22  2  0  0  0  0
 21 52  1  0  0  0  0
 22 53  1  0  0  0  0
 23 25  2  0  0  0  0
 23 26  1  0  0  0  0
 24 27  2  0  0  0  0
 24 28  1  0  0  0  0
 25 32  1  0  0  0  0
 25 55  1  0  0  0  0
 26 33  2  0  0  0  0
 26 56  1  0  0  0  0
 27 29  1  0  0  0  0
 27 54  1  0  0  0  0
 28 30  2  0  0  0  0
 28 57  1  0  0  0  0
 29 31  2  0  0  0  0
 30 31  1  0  0  0  0
 30 58  1  0  0  0  0
 32 34  2  0  0  0  0
 32 59  1  0  0  0  0
 33 34  1  0  0  0  0
 33 60  1  0  0  0  0
 35 61  1  0  0  0  0
 35 62  1  0  0  0  0
 36 37  2  0  0  0  0
 36 38  1  0  0  0  0
 37 39  1  0  0  0  0
 37 63  1  0  0  0  0
 38 40  2  0  0  0  0
 38 64  1  0  0  0  0
 39 41  2  0  0  0  0
 39 65  1  0  0  0  0
 40 41  1  0  0  0  0
 40 66  1  0  0  0  0
 41 67  1  0  0  0  0
M  END
> <PUBCHEM_COMPOUND_CID>
11913101

> <PUBCHEM_CONFORMER_RMSD>
1.2

> <PUBCHEM_CONFORMER_DIVERSEORDER>
1
116
113
102
114
127
50
92
147
158
51
140
98
104
21
115
95
109
41
73
17
110
71
136
91
59
106
35
123
77
65
66
121
16
111
90
167
31
144
61
124
81
38
94
9
142
70
85
64
11
87
74
48
137
163
32
20
161
154
43
153
33
156
103
49
37
118
47
82
107
5
18
56
129
96
97
60
151
24
148
80
131
45
162
145
23
42
58
168
93
8
72
117
108
105
143
25
128
112
39
120
79
69
83
86
4
68
122
12
67
63
76
100
155
146
130
89
119
29
34
14
152
125
165
15
101
139
62
78
133
88
30
7
150
10
138
141
99
6
135
19
159
126
134
55
53
27
84
54
28
46
132
149
2
44
57
160
36
26
75
169
13
166
157
22
164
40
3
52

> <PUBCHEM_MMFF94_PARTIAL_CHARGES>
56
1 -0.56
10 -0.62
11 -0.55
12 0.28
13 0.28
14 0.37
15 0.28
16 0.28
17 0.28
18 0.72
19 0.78
2 -0.56
20 0.31
21 0.16
22 -0.15
23 0.12
25 -0.15
26 -0.15
27 -0.15
28 -0.15
29 0.08
3 -0.43
30 -0.15
31 0.08
32 -0.15
33 -0.15
34 0.08
35 0.56
36 0.08
37 -0.15
38 -0.15
39 -0.15
4 -0.57
40 -0.15
41 -0.15
5 -0.36
50 0.4
51 0.37
52 0.15
53 0.15
54 0.15
55 0.15
56 0.15
57 0.15
58 0.15
59 0.15
6 -0.36
60 0.15
63 0.15
64 0.15
65 0.15
66 0.15
67 0.15
7 -0.17
8 -0.87
9 -0.62

> <PUBCHEM_EFFECTIVE_ROTOR_COUNT>
10.8

> <PUBCHEM_PHARMACOPHORE_FEATURES>
17
1 1 acceptor
1 11 donor
1 2 acceptor
1 4 acceptor
1 5 acceptor
1 6 acceptor
1 7 acceptor
1 8 donor
1 9 acceptor
4 8 9 10 18 cation
5 1 12 13 14 16 rings
5 2 12 13 15 17 rings
5 5 6 29 31 35 rings
6 23 25 26 32 33 34 rings
6 24 27 28 29 30 31 rings
6 36 37 38 39 40 41 rings
6 9 10 18 20 21 22 rings

> <PUBCHEM_HEAVY_ATOM_COUNT>
41

> <PUBCHEM_ATOM_DEF_STEREO_COUNT>
4

> <PUBCHEM_ATOM_UDEF_STEREO_COUNT>
0

> <PUBCHEM_BOND_DEF_STEREO_COUNT>
0

> <PUBCHEM_BOND_UDEF_STEREO_COUNT>
0

> <PUBCHEM_ISOTOPIC_ATOM_COUNT>
0

> <PUBCHEM_COMPONENT_COUNT>
1

> <PUBCHEM_CACTVS_TAUTO_COUNT>
6

> <PUBCHEM_CONFORMER_ID>
00B5C78D00000001

> <PUBCHEM_MMFF94_ENERGY>
141.9177

> <PUBCHEM_FEATURE_SELFOVERLAP>
87.151

> <PUBCHEM_SHAPE_FINGERPRINT>
10029044 110 12463559683174426986
10100884 174 18198622323468937871
10625338 86 15626508267708928714
10952577 141 8213879076294310579
11408170 108 17530970146166215947
11456790 92 17703788120467854848
11578821 258 11527648814148236906
11672396 167 13334998493273084240
12098696 120 15698001808493385000
12144600 37 17488483904641090743
12559416 138 17313373484442912634
13383668 254 12175614131425116390
13740195 50 17704349987229407808
14040221 8 9367348125059576542
14279260 333 18335702789269502787
15274700 208 15123502640294287455
16992727 255 11025788826219095703
16993089 31 16298389020839390642
1768 4 14620795998389276561
19302320 297 16917060084789817568
19611394 137 17631740486480009857
20156587 128 9223238451848231184
21585481 104 9007067868277668008
21792965 270 16343414120343424696
21792965 39 17845941732914451462
21895431 317 17676758770641552314
25025965 108 18040992925651842306
4339292 15 16443059479403728604
437795 160 17989207053381178586
4403749 210 17489316244430472045
44389302 135 18337388245910216642
44575985 377 15984528027569091143
45270241 37 11527954461512203428
4616759 239 17989213642098426987
474113 269 17603865615409460580
9962374 69 18040719169459115558

> <PUBCHEM_SHAPE_MULTIPOLES>
782.75
43.25
3.67
2.45
59.34
2.95
-1.13
38.79
-20.13
-6.26
-0.07
-0.03
-1.1
-8.55

> <PUBCHEM_SHAPE_SELFOVERLAP>
1749.729

> <PUBCHEM_SHAPE_VOLUME>
413.5

> <PUBCHEM_COORDINATE_TYPE>
2
5
10

$$$$
