7127894
  -OEChem-12032416113D

 57 58  0     1  0  0  0  0  0999 V2000
    7.5247   -1.0630    0.5635 S   0  0  0  0  0  0  0  0  0  0  0  0
   -6.0475    2.6493   -0.3140 F   0  0  0  0  0  0  0  0  0  0  0  0
   -9.9384    0.0692    0.4511 F   0  0  0  0  0  0  0  0  0  0  0  0
   -0.7326   -0.5734   -2.3315 O   0  0  0  0  0  0  0  0  0  0  0  0
    0.7590   -3.3287   -0.4430 O   0  0  0  0  0  0  0  0  0  0  0  0
    2.2510    0.9008    2.0429 O   0  0  0  0  0  0  0  0  0  0  0  0
   -3.7481   -1.8026    0.3924 O   0  0  0  0  0  0  0  0  0  0  0  0
    8.6409   -0.1787    0.8521 O   0  0  0  0  0  0  0  0  0  0  0  0
    6.9892   -1.9381    1.5925 O   0  0  0  0  0  0  0  0  0  0  0  0
    4.4726    2.4563   -1.8835 O   0  0  0  0  0  0  0  0  0  0  0  0
   -2.2098   -0.1304   -0.0345 N   0  0  0  0  0  0  0  0  0  0  0  0
    3.4078    0.9255    0.0191 N   0  0  0  0  0  0  0  0  0  0  0  0
   -4.4420    0.4075    0.0122 N   0  0  0  0  0  0  0  0  0  0  0  0
    5.9232    3.5061   -0.4451 N   0  0  0  0  0  0  0  0  0  0  0  0
   -0.6795   -1.5806   -1.3188 C   0  0  1  0  0  0  0  0  0  0  0  0
    0.7249   -2.1970   -1.3101 C   0  0  1  0  0  0  0  0  0  0  0  0
   -1.0325   -0.9601    0.0465 C   0  0  1  0  0  0  0  0  0  0  0  0
    1.8010   -1.1799   -0.8928 C   0  0  0  0  0  0  0  0  0  0  0  0
    1.3547   -0.2566    0.2052 C   0  0  0  0  0  0  0  0  0  0  0  0
    0.0903   -0.1543    0.6417 C   0  0  0  0  0  0  0  0  0  0  0  0
    2.3671    0.5755    0.8618 C   0  0  0  0  0  0  0  0  0  0  0  0
    4.5226    1.7439    0.4389 C   0  0  1  0  0  0  0  0  0  0  0  0
    5.6885    0.9015    0.9614 C   0  0  0  0  0  0  0  0  0  0  0  0
    6.1994   -0.0886   -0.0773 C   0  0  0  0  0  0  0  0  0  0  0  0
   -3.5074   -0.6227    0.1483 C   0  0  0  0  0  0  0  0  0  0  0  0
    4.9585    2.5728   -0.7611 C   0  0  0  0  0  0  0  0  0  0  0  0
    7.9905   -2.0816   -0.8177 C   0  0  0  0  0  0  0  0  0  0  0  0
   -5.8495    0.3231    0.1235 C   0  0  0  0  0  0  0  0  0  0  0  0
   -6.6156    1.4649   -0.0458 C   0  0  0  0  0  0  0  0  0  0  0  0
   -6.4330   -0.9025    0.4007 C   0  0  0  0  0  0  0  0  0  0  0  0
   -8.0034    1.3788    0.0654 C   0  0  0  0  0  0  0  0  0  0  0  0
   -7.8206   -0.9886    0.5120 C   0  0  0  0  0  0  0  0  0  0  0  0
   -8.6059    0.1520    0.3443 C   0  0  0  0  0  0  0  0  0  0  0  0
   -1.4281   -2.3387   -1.5764 H   0  0  0  0  0  0  0  0  0  0  0  0
    0.9775   -2.5579   -2.3146 H   0  0  0  0  0  0  0  0  0  0  0  0
   -1.2440   -1.7742    0.7521 H   0  0  0  0  0  0  0  0  0  0  0  0
    2.7032   -1.7203   -0.5812 H   0  0  0  0  0  0  0  0  0  0  0  0
    2.0460   -0.5842   -1.7806 H   0  0  0  0  0  0  0  0  0  0  0  0
   -0.1638    0.5146    1.4611 H   0  0  0  0  0  0  0  0  0  0  0  0
   -2.0991    0.8470   -0.2885 H   0  0  0  0  0  0  0  0  0  0  0  0
    4.1817    2.4268    1.2263 H   0  0  0  0  0  0  0  0  0  0  0  0
    5.3558    0.3485    1.8495 H   0  0  0  0  0  0  0  0  0  0  0  0
    6.5101    1.5446    1.2976 H   0  0  0  0  0  0  0  0  0  0  0  0
    3.4115    0.6254   -0.9492 H   0  0  0  0  0  0  0  0  0  0  0  0
   -0.1841    0.1794   -2.0559 H   0  0  0  0  0  0  0  0  0  0  0  0
    0.0808   -3.9539   -0.7506 H   0  0  0  0  0  0  0  0  0  0  0  0
    5.4155   -0.7866   -0.3871 H   0  0  0  0  0  0  0  0  0  0  0  0
    6.5862    0.4268   -0.9617 H   0  0  0  0  0  0  0  0  0  0  0  0
    8.8141   -2.7258   -0.5029 H   0  0  0  0  0  0  0  0  0  0  0  0
    7.1324   -2.6881   -1.1130 H   0  0  0  0  0  0  0  0  0  0  0  0
    8.3114   -1.4373   -1.6382 H   0  0  0  0  0  0  0  0  0  0  0  0
   -4.0757    1.3342   -0.1911 H   0  0  0  0  0  0  0  0  0  0  0  0
    6.2861    3.6230    0.4952 H   0  0  0  0  0  0  0  0  0  0  0  0
    6.2933    4.1305   -1.1541 H   0  0  0  0  0  0  0  0  0  0  0  0
   -5.8968   -1.8286    0.5439 H   0  0  0  0  0  0  0  0  0  0  0  0
   -8.6149    2.2667   -0.0651 H   0  0  0  0  0  0  0  0  0  0  0  0
   -8.2915   -1.9430    0.7291 H   0  0  0  0  0  0  0  0  0  0  0  0
  1  8  2  0  0  0  0
  1  9  2  0  0  0  0
  1 24  1  0  0  0  0
  1 27  1  0  0  0  0
  2 29  1  0  0  0  0
  3 33  1  0  0  0  0
  4 15  1  0  0  0  0
  4 45  1  0  0  0  0
  5 16  1  0  0  0  0
  5 46  1  0  0  0  0
  6 21  2  0  0  0  0
  7 25  2  0  0  0  0
 10 26  2  0  0  0  0
 11 17  1  0  0  0  0
 11 25  1  0  0  0  0
 11 40  1  0  0  0  0
 12 21  1  0  0  0  0
 12 22  1  0  0  0  0
 12 44  1  0  0  0  0
 13 25  1  0  0  0  0
 13 28  1  0  0  0  0
 13 52  1  0  0  0  0
 14 26  1  0  0  0  0
 14 53  1  0  0  0  0
 14 54  1  0  0  0  0
 15 16  1  0  0  0  0
 15 17  1  0  0  0  0
 15 34  1  0  0  0  0
 16 18  1  0  0  0  0
 16 35  1  0  0  0  0
 17 20  1  0  0  0  0
 17 36  1  0  0  0  0
 18 19  1  0  0  0  0
 18 37  1  0  0  0  0
 18 38  1  0  0  0  0
 19 20  2  0  0  0  0
 19 21  1  0  0  0  0
 20 39  1  0  0  0  0
 22 23  1  0  0  0  0
 22 26  1  0  0  0  0
 22 41  1  0  0  0  0
 23 24  1  0  0  0  0
 23 42  1  0  0  0  0
 23 43  1  0  0  0  0
 24 47  1  0  0  0  0
 24 48  1  0  0  0  0
 27 49  1  0  0  0  0
 27 50  1  0  0  0  0
 27 51  1  0  0  0  0
 28 29  2  0  0  0  0
 28 30  1  0  0  0  0
 29 31  1  0  0  0  0
 30 32  2  0  0  0  0
 30 55  1  0  0  0  0
 31 33  2  0  0  0  0
 31 56  1  0  0  0  0
 32 33  1  0  0  0  0
 32 57  1  0  0  0  0
M  END
> <PUBCHEM_COMPOUND_CID>
7127894

> <PUBCHEM_CONFORMER_RMSD>
1.2

> <PUBCHEM_CONFORMER_DIVERSEORDER>
1
291
165
45
141
295
153
180
74
232
89
77
191
283
190
309
173
96
129
182
251
72
298
33
276
148
205
277
261
32
259
208
204
98
136
166
85
203
254
189
71
87
81
250
306
38
54
163
303
114
134
292
239
275
192
323
325
244
257
61
11
308
265
293
58
281
175
209
297
174
108
125
289
66
280
88
267
64
330
65
294
305
301
34
272
151
214
326
322
91
40
154
5
271
202
215
233
130
225
128
187
193
135
219
312
311
122
199
317
137
109
273
247
29
241
269
246
18
102
307
48
286
41
218
221
177
288
107
327
86
328
282
243
198
183
333
278
103
200
144
6
194
184
27
253
147
229
150
160
104
316
15
266
223
117
188
222
201
279
319
83
252
268
227
207
302
52
290
164
8
236
121
168
152
171
255
3
78
46
248
42
47
321
231
36
57
131
336
146
196
21
249
262
115
181
212
37
287
216
30
314
285
75
320
234
140
68
296
116
179
238
126
206
256
142
14
186
100
263
143
22
161
95
299
213
260
310
9
159
300
17
274
94
178
226
19
237
315
28
158
24
185
82
23
133
197
7
92
167
270
228
60
264
55
332
113
240
50
313
93
59
335
318
210
329
119
258
20
284
145
56
49
162
4
106
195
97
110
169
245
13
35
172
84
12
99
127
242
101
235
139
105
25
334
51
63
156
123
324
10
112
138
90
304
217
43
157
211
155
331
170
53
2
62
76
120
224
69
118
220
80
26
111
31
230
176
149
124
67
16
70
132
44
39
79
73

> <PUBCHEM_MMFF94_PARTIAL_CHARGES>
43
1 1.09
10 -0.57
11 -0.73
12 -0.73
13 -0.55
14 -0.8
15 0.28
16 0.28
17 0.44
18 0.14
19 -0.12
2 -0.19
20 -0.29
21 0.62
22 0.36
24 0.11
25 0.69
26 0.57
27 0.11
28 0.12
29 0.19
3 -0.19
30 -0.15
31 -0.15
32 -0.15
33 0.19
39 0.15
4 -0.68
40 0.37
44 0.37
45 0.4
46 0.4
5 -0.68
52 0.37
53 0.37
54 0.37
55 0.15
56 0.15
57 0.15
6 -0.57
7 -0.57
8 -0.65
9 -0.65

> <PUBCHEM_EFFECTIVE_ROTOR_COUNT>
11.8

> <PUBCHEM_PHARMACOPHORE_FEATURES>
15
1 10 acceptor
1 11 donor
1 12 donor
1 13 donor
1 14 donor
1 4 acceptor
1 4 donor
1 5 acceptor
1 5 donor
1 6 acceptor
1 7 acceptor
1 8 acceptor
1 9 acceptor
6 15 16 17 18 19 20 rings
6 28 29 30 31 32 33 rings

> <PUBCHEM_HEAVY_ATOM_COUNT>
33

> <PUBCHEM_ATOM_DEF_STEREO_COUNT>
4

> <PUBCHEM_ATOM_UDEF_STEREO_COUNT>
0

> <PUBCHEM_BOND_DEF_STEREO_COUNT>
0

> <PUBCHEM_BOND_UDEF_STEREO_COUNT>
0

> <PUBCHEM_ISOTOPIC_ATOM_COUNT>
0

> <PUBCHEM_COMPONENT_COUNT>
1

> <PUBCHEM_CACTVS_TAUTO_COUNT>
12

> <PUBCHEM_CONFORMER_ID>
006CC35600000001

> <PUBCHEM_MMFF94_ENERGY>
66.4785

> <PUBCHEM_FEATURE_SELFOVERLAP>
76.204

> <PUBCHEM_SHAPE_FINGERPRINT>
10 15 18261395585633997497
10580692 12 18335420157895972178
11719270 70 18131633374538584414
12522641 24 17676486151454128528
15131766 46 17975698608548074708
15183329 4 15913339012840304677
15289351 153 18059288743482814354
15301273 46 17022619775500937546
1577012 14 18270678796113271292
15840311 113 18041000682331565380
15961568 22 18407762539132931445
17980427 23 17895757443192516639
19611394 137 18115600382456058305
21403212 168 18272929410690419518
21591340 7 18131625699532000007
24893992 56 17988639736084366227
2838139 119 18130780183611564013
4073 2 18409736184274894907
4625314 4 18260266382744251831
9962374 69 11963681062506612281

> <PUBCHEM_SHAPE_MULTIPOLES>
607.42
29.35
2.79
1.29
26.24
0.8
0.27
4.57
-5.81
-4.04
0.93
-1.66
-0.05
-0.54

> <PUBCHEM_SHAPE_SELFOVERLAP>
1255.423

> <PUBCHEM_SHAPE_VOLUME>
349

> <PUBCHEM_COORDINATE_TYPE>
2
5
10

$$$$
