44716332
  -OEChem-12032416163D

 60 64  0     1  0  0  0  0  0999 V2000
    3.3243   -3.7055    0.1852 S   0  0  0  0  0  0  0  0  0  0  0  0
    4.3020    1.6761    0.4011 O   0  0  0  0  0  0  0  0  0  0  0  0
   -3.9567    0.6390    0.7793 N   0  0  2  0  0  0  0  0  0  0  0  0
   -1.0177   -3.0984    0.9803 N   0  0  0  0  0  0  0  0  0  0  0  0
   -1.7286    3.2929   -0.7266 N   0  0  0  0  0  0  0  0  0  0  0  0
    0.2779   -3.4432    0.8868 N   0  0  0  0  0  0  0  0  0  0  0  0
   -3.2715   -0.8768   -1.2247 C   0  0  2  0  0  0  0  0  0  0  0  0
   -2.7830   -1.4932    0.1153 C   0  0  2  0  0  0  0  0  0  0  0  0
   -3.2934    1.4549   -0.2717 C   0  0  2  0  0  0  0  0  0  0  0  0
   -2.6974    0.5483   -1.3700 C   0  0  0  0  0  0  0  0  0  0  0  0
   -4.8055   -0.7392   -1.1183 C   0  0  0  0  0  0  0  0  0  0  0  0
   -3.0475   -0.4433    1.2321 C   0  0  0  0  0  0  0  0  0  0  0  0
   -5.1580    0.0124    0.1773 C   0  0  0  0  0  0  0  0  0  0  0  0
   -2.2491    2.4124    0.3063 C   0  0  0  0  0  0  0  0  0  0  0  0
   -1.3699   -2.0557    0.1746 C   0  0  0  0  0  0  0  0  0  0  0  0
   -0.2252   -1.6929   -0.4920 C   0  0  0  0  0  0  0  0  0  0  0  0
    0.7568   -2.5812   -0.0141 C   0  0  0  0  0  0  0  0  0  0  0  0
   -0.7256    4.2009   -0.1840 C   0  0  0  0  0  0  0  0  0  0  0  0
   -1.8784   -3.8290    1.8814 C   0  0  0  0  0  0  0  0  0  0  0  0
    2.1706   -2.6001   -0.4306 C   0  0  0  0  0  0  0  0  0  0  0  0
    0.6129    3.5292   -0.0279 C   0  0  0  0  0  0  0  0  0  0  0  0
    2.7213   -1.7388   -1.3540 C   0  0  0  0  0  0  0  0  0  0  0  0
    1.2187    3.4635    1.2268 C   0  0  0  0  0  0  0  0  0  0  0  0
    1.2469    2.9722   -1.1385 C   0  0  0  0  0  0  0  0  0  0  0  0
    4.1088   -1.9901   -1.5589 C   0  0  0  0  0  0  0  0  0  0  0  0
    4.5656   -3.0334   -0.7842 C   0  0  0  0  0  0  0  0  0  0  0  0
    2.4585    2.8410    1.3709 C   0  0  0  0  0  0  0  0  0  0  0  0
    2.4868    2.3498   -0.9945 C   0  0  0  0  0  0  0  0  0  0  0  0
    3.0926    2.2842    0.2602 C   0  0  0  0  0  0  0  0  0  0  0  0
    4.8636    1.6440    1.7124 C   0  0  0  0  0  0  0  0  0  0  0  0
   -2.9924   -1.4997   -2.0811 H   0  0  0  0  0  0  0  0  0  0  0  0
   -3.4522   -2.3463    0.3029 H   0  0  0  0  0  0  0  0  0  0  0  0
   -4.0690    2.0866   -0.7308 H   0  0  0  0  0  0  0  0  0  0  0  0
   -2.9730    0.9486   -2.3541 H   0  0  0  0  0  0  0  0  0  0  0  0
   -1.6072    0.5418   -1.3337 H   0  0  0  0  0  0  0  0  0  0  0  0
   -5.2798   -1.7275   -1.1164 H   0  0  0  0  0  0  0  0  0  0  0  0
   -5.1922   -0.1955   -1.9889 H   0  0  0  0  0  0  0  0  0  0  0  0
   -2.1131   -0.0224    1.6205 H   0  0  0  0  0  0  0  0  0  0  0  0
   -3.5037   -0.9461    2.0951 H   0  0  0  0  0  0  0  0  0  0  0  0
   -5.6219   -0.6716    0.8994 H   0  0  0  0  0  0  0  0  0  0  0  0
   -5.9161    0.7776   -0.0304 H   0  0  0  0  0  0  0  0  0  0  0  0
   -2.7139    3.0072    1.1034 H   0  0  0  0  0  0  0  0  0  0  0  0
   -1.4305    1.8430    0.7595 H   0  0  0  0  0  0  0  0  0  0  0  0
   -0.1106   -0.9111   -1.2257 H   0  0  0  0  0  0  0  0  0  0  0  0
   -2.4983    3.8400   -1.1124 H   0  0  0  0  0  0  0  0  0  0  0  0
   -0.5909    5.0324   -0.8878 H   0  0  0  0  0  0  0  0  0  0  0  0
   -1.0647    4.6604    0.7529 H   0  0  0  0  0  0  0  0  0  0  0  0
   -2.3638   -3.1213    2.5568 H   0  0  0  0  0  0  0  0  0  0  0  0
   -1.2798   -4.5346    2.4641 H   0  0  0  0  0  0  0  0  0  0  0  0
   -2.6161   -4.3746    1.2882 H   0  0  0  0  0  0  0  0  0  0  0  0
    2.1784   -0.9582   -1.8718 H   0  0  0  0  0  0  0  0  0  0  0  0
    0.7345    3.8921    2.1003 H   0  0  0  0  0  0  0  0  0  0  0  0
    0.7898    3.0192   -2.1235 H   0  0  0  0  0  0  0  0  0  0  0  0
    4.7398   -1.4331   -2.2392 H   0  0  0  0  0  0  0  0  0  0  0  0
    5.5690   -3.4330   -0.7408 H   0  0  0  0  0  0  0  0  0  0  0  0
    2.8719    2.8249    2.3736 H   0  0  0  0  0  0  0  0  0  0  0  0
    2.9761    1.9176   -1.8631 H   0  0  0  0  0  0  0  0  0  0  0  0
    5.0735    2.6522    2.0853 H   0  0  0  0  0  0  0  0  0  0  0  0
    4.2394    1.0670    2.4031 H   0  0  0  0  0  0  0  0  0  0  0  0
    5.8242    1.1236    1.6396 H   0  0  0  0  0  0  0  0  0  0  0  0
  1 20  1  0  0  0  0
  1 26  1  0  0  0  0
  2 29  1  0  0  0  0
  2 30  1  0  0  0  0
  3  9  1  0  0  0  0
  3 12  1  0  0  0  0
  3 13  1  0  0  0  0
  4  6  1  0  0  0  0
  4 15  1  0  0  0  0
  4 19  1  0  0  0  0
  5 14  1  0  0  0  0
  5 18  1  0  0  0  0
  5 45  1  0  0  0  0
  6 17  2  0  0  0  0
  7  8  1  0  0  0  0
  7 10  1  0  0  0  0
  7 11  1  0  0  0  0
  7 31  1  0  0  0  0
  8 12  1  0  0  0  0
  8 15  1  0  0  0  0
  8 32  1  0  0  0  0
  9 10  1  0  0  0  0
  9 14  1  0  0  0  0
  9 33  1  0  0  0  0
 10 34  1  0  0  0  0
 10 35  1  0  0  0  0
 11 13  1  0  0  0  0
 11 36  1  0  0  0  0
 11 37  1  0  0  0  0
 12 38  1  0  0  0  0
 12 39  1  0  0  0  0
 13 40  1  0  0  0  0
 13 41  1  0  0  0  0
 14 42  1  0  0  0  0
 14 43  1  0  0  0  0
 15 16  2  0  0  0  0
 16 17  1  0  0  0  0
 16 44  1  0  0  0  0
 17 20  1  0  0  0  0
 18 21  1  0  0  0  0
 18 46  1  0  0  0  0
 18 47  1  0  0  0  0
 19 48  1  0  0  0  0
 19 49  1  0  0  0  0
 19 50  1  0  0  0  0
 20 22  2  0  0  0  0
 21 23  2  0  0  0  0
 21 24  1  0  0  0  0
 22 25  1  0  0  0  0
 22 51  1  0  0  0  0
 23 27  1  0  0  0  0
 23 52  1  0  0  0  0
 24 28  2  0  0  0  0
 24 53  1  0  0  0  0
 25 26  2  0  0  0  0
 25 54  1  0  0  0  0
 26 55  1  0  0  0  0
 27 29  2  0  0  0  0
 27 56  1  0  0  0  0
 28 29  1  0  0  0  0
 28 57  1  0  0  0  0
 30 58  1  0  0  0  0
 30 59  1  0  0  0  0
 30 60  1  0  0  0  0
M  END
> <PUBCHEM_COMPOUND_CID>
44716332

> <PUBCHEM_CONFORMER_RMSD>
1

> <PUBCHEM_CONFORMER_DIVERSEORDER>
1
50
48
43
30
63
54
45
39
47
33
24
40
35
32
59
11
44
46
7
12
57
38
14
41
58
31
52
55
9
34
42
2
36
62
17
23
10
22
56
18
49
19
25
29
51
6
21
60
4
27
26
13
28
16
5
37
20
8
53
15
61
3

> <PUBCHEM_MMFF94_PARTIAL_CHARGES>
36
1 -0.08
12 0.27
13 0.27
14 0.27
15 -0.33
16 -0.15
17 0.29
18 0.41
19 0.26
2 -0.36
20 0.04
21 -0.14
22 -0.15
23 -0.15
24 -0.15
25 -0.15
26 -0.11
27 -0.15
28 -0.15
29 0.08
3 -0.81
30 0.28
4 0.31
44 0.15
45 0.36
5 -0.9
51 0.15
52 0.15
53 0.15
54 0.15
55 0.15
56 0.15
57 0.15
6 -0.71
8 0.18
9 0.27

> <PUBCHEM_EFFECTIVE_ROTOR_COUNT>
8.2

> <PUBCHEM_PHARMACOPHORE_FEATURES>
9
1 2 acceptor
1 3 cation
1 5 cation
1 5 donor
1 6 acceptor
5 1 20 22 25 26 rings
5 4 6 15 16 17 rings
6 21 23 24 27 28 29 rings
8 3 7 8 9 10 11 12 13 rings

> <PUBCHEM_HEAVY_ATOM_COUNT>
30

> <PUBCHEM_ATOM_DEF_STEREO_COUNT>
3

> <PUBCHEM_ATOM_UDEF_STEREO_COUNT>
0

> <PUBCHEM_BOND_DEF_STEREO_COUNT>
0

> <PUBCHEM_BOND_UDEF_STEREO_COUNT>
0

> <PUBCHEM_ISOTOPIC_ATOM_COUNT>
0

> <PUBCHEM_COMPONENT_COUNT>
1

> <PUBCHEM_CACTVS_TAUTO_COUNT>
1

> <PUBCHEM_CONFORMER_ID>
02AA512C00000001

> <PUBCHEM_MMFF94_ENERGY>
70.8842

> <PUBCHEM_FEATURE_SELFOVERLAP>
45.672

> <PUBCHEM_SHAPE_FINGERPRINT>
10006869 2 17040921963301341857
10864689 126 17188690850122729852
1100329 8 17908424658251457092
12156800 1 16300336182110935492
12422481 6 18124564593409572450
12788726 201 18050301271340489550
12838863 1 18123443202448626702
13122387 1 18266456499447686844
13140716 1 18051412073830495057
13402501 40 18411696629921749188
14647877 51 18270112402054806352
14725015 67 18192712250119319865
150020 26 18051697934437703280
19930381 70 18410011082954379543
20642791 35 18195240019484770541
20721686 56 18410294705404468106
20764821 26 18192727841209268380
20775530 9 18340210665750032532
21344244 246 18268976752635915127
21860390 5 18343866636749821846
238918 7 18199167625395516752
3027735 51 18339912788794689965
3052486 1 17903912263221849290
3298306 158 18197781209530394046
354706 35 17260455393477374061
392239 28 18051693240265431538
469060 322 17686091325429850737
5047190 69 18051686652229328314
5081480 168 17843156716524945646
508706 21 18335704991526415886
5171179 24 18200022925066550514
532947 4 18410004460415587045

> <PUBCHEM_SHAPE_MULTIPOLES>
595.44
9.15
6.78
1.51
0.06
1.72
-0.18
-2.29
0.69
-4.64
-1.38
-0.39
-0.24
2.16

> <PUBCHEM_SHAPE_SELFOVERLAP>
1272.636

> <PUBCHEM_SHAPE_VOLUME>
334.2

> <PUBCHEM_COORDINATE_TYPE>
2
5
10

$$$$
