75536262
  -OEChem-12032416303D

 55 58  0     1  0  0  0  0  0999 V2000
   -6.2681   -1.4669    1.4894 F   0  0  0  0  0  0  0  0  0  0  0  0
    2.8766   -0.8072    0.6709 O   0  0  0  0  0  0  0  0  0  0  0  0
    5.3814   -0.8216    2.2246 O   0  0  0  0  0  0  0  0  0  0  0  0
   -0.9105   -1.5659   -1.7709 O   0  0  0  0  0  0  0  0  0  0  0  0
   -0.5203    1.4835   -1.8987 O   0  0  0  0  0  0  0  0  0  0  0  0
    1.6743    1.7679    0.4671 N   0  0  0  0  0  0  0  0  0  0  0  0
    0.4252   -1.7281   -2.1182 N   0  0  0  0  0  0  0  0  0  0  0  0
    3.5426    0.3491    1.1948 C   0  0  1  0  0  0  0  0  0  0  0  0
    5.0636    0.1513    1.2258 C   0  0  2  0  0  0  0  0  0  0  0  0
    3.3145   -1.2269   -0.6237 C   0  0  1  0  0  0  0  0  0  0  0  0
    5.6114   -0.3532   -0.1065 C   0  0  0  0  0  0  0  0  0  0  0  0
    4.8079   -1.5492   -0.6091 C   0  0  0  0  0  0  0  0  0  0  0  0
    3.1205    1.6127    0.4480 C   0  0  0  0  0  0  0  0  0  0  0  0
    2.4982   -2.4550   -1.0079 C   0  0  0  0  0  0  0  0  0  0  0  0
    1.0211   -2.1658   -1.0053 C   0  0  0  0  0  0  0  0  0  0  0  0
    1.2690    2.9784   -0.2358 C   0  0  0  0  0  0  0  0  0  0  0  0
    0.1205   -2.2976    0.0657 C   0  0  0  0  0  0  0  0  0  0  0  0
   -0.2249    3.1649   -0.2159 C   0  0  0  0  0  0  0  0  0  0  0  0
   -1.0795   -1.9082   -0.4681 C   0  0  0  0  0  0  0  0  0  0  0  0
   -2.4168   -1.7936    0.0370 C   0  0  0  0  0  0  0  0  0  0  0  0
   -1.0488    2.4082   -1.0490 C   0  0  0  0  0  0  0  0  0  0  0  0
   -0.7830    4.1066    0.6486 C   0  0  0  0  0  0  0  0  0  0  0  0
   -2.4310    2.5936   -1.0179 C   0  0  0  0  0  0  0  0  0  0  0  0
   -2.1652    4.2920    0.6795 C   0  0  0  0  0  0  0  0  0  0  0  0
   -2.6923   -2.1249    1.3636 C   0  0  0  0  0  0  0  0  0  0  0  0
   -3.4423   -1.3515   -0.7989 C   0  0  0  0  0  0  0  0  0  0  0  0
   -2.9892    3.5355   -0.1536 C   0  0  0  0  0  0  0  0  0  0  0  0
   -3.9931   -2.0144    1.8544 C   0  0  0  0  0  0  0  0  0  0  0  0
   -4.7433   -1.2413   -0.3082 C   0  0  0  0  0  0  0  0  0  0  0  0
   -5.0187   -1.5727    1.0184 C   0  0  0  0  0  0  0  0  0  0  0  0
    3.1932    0.4332    2.2324 H   0  0  0  0  0  0  0  0  0  0  0  0
    5.5636    1.0818    1.5167 H   0  0  0  0  0  0  0  0  0  0  0  0
    3.1107   -0.4311   -1.3500 H   0  0  0  0  0  0  0  0  0  0  0  0
    6.6622   -0.6486   -0.0040 H   0  0  0  0  0  0  0  0  0  0  0  0
    5.5708    0.4493   -0.8522 H   0  0  0  0  0  0  0  0  0  0  0  0
    5.1496   -1.8333   -1.6108 H   0  0  0  0  0  0  0  0  0  0  0  0
    4.9977   -2.4029    0.0538 H   0  0  0  0  0  0  0  0  0  0  0  0
    3.4722    1.5888   -0.5890 H   0  0  0  0  0  0  0  0  0  0  0  0
    3.5927    2.4780    0.9296 H   0  0  0  0  0  0  0  0  0  0  0  0
    2.6832   -3.2679   -0.2933 H   0  0  0  0  0  0  0  0  0  0  0  0
    2.8016   -2.8214   -1.9963 H   0  0  0  0  0  0  0  0  0  0  0  0
    1.2429    0.9535    0.0300 H   0  0  0  0  0  0  0  0  0  0  0  0
    6.3501   -0.8985    2.2623 H   0  0  0  0  0  0  0  0  0  0  0  0
    1.6087    2.9569   -1.2797 H   0  0  0  0  0  0  0  0  0  0  0  0
    1.7489    3.8536    0.2210 H   0  0  0  0  0  0  0  0  0  0  0  0
    0.3248   -2.6280    1.0736 H   0  0  0  0  0  0  0  0  0  0  0  0
   -0.1549    4.7022    1.3058 H   0  0  0  0  0  0  0  0  0  0  0  0
   -3.0848    2.0108   -1.6612 H   0  0  0  0  0  0  0  0  0  0  0  0
   -2.6000    5.0248    1.3530 H   0  0  0  0  0  0  0  0  0  0  0  0
   -1.9145   -2.4719    2.0389 H   0  0  0  0  0  0  0  0  0  0  0  0
   -3.2673   -1.0823   -1.8374 H   0  0  0  0  0  0  0  0  0  0  0  0
   -4.0654    3.6793   -0.1290 H   0  0  0  0  0  0  0  0  0  0  0  0
   -1.2425    1.0468   -2.3822 H   0  0  0  0  0  0  0  0  0  0  0  0
   -4.2084   -2.2722    2.8872 H   0  0  0  0  0  0  0  0  0  0  0  0
   -5.5422   -0.8965   -0.9582 H   0  0  0  0  0  0  0  0  0  0  0  0
  1 30  1  0  0  0  0
  2  8  1  0  0  0  0
  2 10  1  0  0  0  0
  3  9  1  0  0  0  0
  3 43  1  0  0  0  0
  4  7  1  0  0  0  0
  4 19  1  0  0  0  0
  5 21  1  0  0  0  0
  5 53  1  0  0  0  0
  6 13  1  0  0  0  0
  6 16  1  0  0  0  0
  6 42  1  0  0  0  0
  7 15  2  0  0  0  0
  8  9  1  0  0  0  0
  8 13  1  0  0  0  0
  8 31  1  0  0  0  0
  9 11  1  0  0  0  0
  9 32  1  0  0  0  0
 10 12  1  0  0  0  0
 10 14  1  0  0  0  0
 10 33  1  0  0  0  0
 11 12  1  0  0  0  0
 11 34  1  0  0  0  0
 11 35  1  0  0  0  0
 12 36  1  0  0  0  0
 12 37  1  0  0  0  0
 13 38  1  0  0  0  0
 13 39  1  0  0  0  0
 14 15  1  0  0  0  0
 14 40  1  0  0  0  0
 14 41  1  0  0  0  0
 15 17  1  0  0  0  0
 16 18  1  0  0  0  0
 16 44  1  0  0  0  0
 16 45  1  0  0  0  0
 17 19  2  0  0  0  0
 17 46  1  0  0  0  0
 18 21  1  0  0  0  0
 18 22  2  0  0  0  0
 19 20  1  0  0  0  0
 20 25  2  0  0  0  0
 20 26  1  0  0  0  0
 21 23  2  0  0  0  0
 22 24  1  0  0  0  0
 22 47  1  0  0  0  0
 23 27  1  0  0  0  0
 23 48  1  0  0  0  0
 24 27  2  0  0  0  0
 24 49  1  0  0  0  0
 25 28  1  0  0  0  0
 25 50  1  0  0  0  0
 26 29  2  0  0  0  0
 26 51  1  0  0  0  0
 27 52  1  0  0  0  0
 28 30  2  0  0  0  0
 28 54  1  0  0  0  0
 29 30  1  0  0  0  0
 29 55  1  0  0  0  0
M  END
> <PUBCHEM_COMPOUND_CID>
75536262

> <PUBCHEM_CONFORMER_RMSD>
1.2

> <PUBCHEM_CONFORMER_DIVERSEORDER>
1
87
102
16
66
117
41
50
12
97
84
17
93
42
59
77
20
113
81
40
23
89
45
104
38
85
72
55
32
79
36
44
118
67
10
96
69
91
37
64
83
100
68
6
111
54
47
27
30
56
99
71
53
3
90
82
115
33
101
22
48
106
74
63
24
15
112
19
14
73
114
94
43
92
52
49
105
70
75
11
86
39
13
60
7
116
28
98
95
4
26
108
46
61
78
29
109
107
9
62
88
18
51
25
110
80
5
76
31
58
103
65
34
57
21
8
35
2

> <PUBCHEM_MMFF94_PARTIAL_CHARGES>
40
1 -0.19
10 0.28
13 0.27
14 0.18
15 0.11
16 0.41
17 -0.15
18 -0.14
19 0.09
2 -0.56
20 0.05
21 0.08
22 -0.15
23 -0.15
24 -0.15
25 -0.15
26 -0.15
27 -0.15
28 -0.15
29 -0.15
3 -0.68
30 0.19
4 -0.02
42 0.36
43 0.4
46 0.15
47 0.15
48 0.15
49 0.15
5 -0.53
50 0.15
51 0.15
52 0.15
53 0.45
54 0.15
55 0.15
6 -0.9
7 -0.41
8 0.28
9 0.28

> <PUBCHEM_EFFECTIVE_ROTOR_COUNT>
8.2

> <PUBCHEM_PHARMACOPHORE_FEATURES>
11
1 2 acceptor
1 3 acceptor
1 3 donor
1 5 donor
1 6 cation
1 6 donor
1 7 acceptor
5 4 7 15 17 19 rings
6 18 21 22 23 24 27 rings
6 2 8 9 10 11 12 rings
6 20 25 26 28 29 30 rings

> <PUBCHEM_HEAVY_ATOM_COUNT>
30

> <PUBCHEM_ATOM_DEF_STEREO_COUNT>
3

> <PUBCHEM_ATOM_UDEF_STEREO_COUNT>
0

> <PUBCHEM_BOND_DEF_STEREO_COUNT>
0

> <PUBCHEM_BOND_UDEF_STEREO_COUNT>
0

> <PUBCHEM_ISOTOPIC_ATOM_COUNT>
0

> <PUBCHEM_COMPONENT_COUNT>
1

> <PUBCHEM_CACTVS_TAUTO_COUNT>
3

> <PUBCHEM_CONFORMER_ID>
0480978600000001

> <PUBCHEM_MMFF94_ENERGY>
58.1472

> <PUBCHEM_FEATURE_SELFOVERLAP>
55.823

> <PUBCHEM_SHAPE_FINGERPRINT>
10006869 2 18121489160412842023
10119406 146 16828695315419720310
10316853 100 17906467532519058553
10688039 33 18334017202544179310
10864689 126 17402626143074997789
12156800 1 18123785017463064652
12293681 4 18260553367753079890
12422481 6 18270697402096084201
12633257 1 18263362658274075834
12655364 131 16548580970877758344
12788726 201 18334017211482293192
13075007 39 17971205960812469715
13135754 10 18336835203622913732
13402501 40 18412258411501491877
13561361 72 18338238150310906040
13726171 33 18337687351711917580
14363568 33 17977116969371933860
14790565 3 17183624836844196740
14840074 17 18198909295485763492
150020 26 17831027084815100513
15276724 80 18271246132009257308
15420108 30 17554044729637105092
15840311 113 17272600282208474915
15968369 153 18201994421849965533
17980427 23 17916590981005160111
20764821 26 18265903444945934753
21360443 126 18190177897514315813
21796203 349 18121237612146122128
22182313 1 18130788902690574198
23845131 108 17689157807984403233
3052486 1 18334859364569871908
3187 122 18334290955090713660
469060 322 17095808715485131149
508706 21 18338234843148898429
5283268 108 18410017658306710106
6004065 56 18338795736763193879
653340 110 18269556052664616616
9777508 108 18122914118412320649

> <PUBCHEM_SHAPE_MULTIPOLES>
576.67
10.89
5.36
1.67
3.8
6.55
0.11
-6.5
5.29
-4.7
-0.05
-0.03
-0.71
1.79

> <PUBCHEM_SHAPE_SELFOVERLAP>
1241.325

> <PUBCHEM_SHAPE_VOLUME>
317.6

> <PUBCHEM_COORDINATE_TYPE>
2
5
10

$$$$
