11912019
  -OEChem-12032416293D

 66 70  0     1  0  0  0  0  0999 V2000
    0.9991    4.0743   -0.7341 O   0  0  0  0  0  0  0  0  0  0  0  0
   -0.0520    2.8386    1.9327 O   0  0  0  0  0  0  0  0  0  0  0  0
    2.9966    1.9004    0.1029 N   0  0  0  0  0  0  0  0  0  0  0  0
   -2.2816    2.4851   -0.4521 N   0  0  0  0  0  0  0  0  0  0  0  0
   -2.9037    2.5562   -1.6238 N   0  0  0  0  0  0  0  0  0  0  0  0
   -3.7964    1.5537   -1.6626 N   0  0  0  0  0  0  0  0  0  0  0  0
   -3.9128   -1.4957    0.2999 N   0  0  2  0  0  0  0  0  0  0  0  0
    0.6968    2.3084    0.8263 C   0  0  1  0  0  0  0  0  0  0  0  0
    0.1548    2.9453   -0.4382 C   0  0  1  0  0  0  0  0  0  0  0  0
    2.1350    2.7746    0.8959 C   0  0  2  0  0  0  0  0  0  0  0  0
   -1.2320    3.4287   -0.0592 C   0  0  2  0  0  0  0  0  0  0  0  0
    2.0504    4.1430    0.2402 C   0  0  0  0  0  0  0  0  0  0  0  0
   -1.1084    3.6752    1.4408 C   0  0  0  0  0  0  0  0  0  0  0  0
    4.3592   -0.1426    0.0587 C   0  0  0  0  0  0  0  0  0  0  0  0
    3.4679    0.7745    0.8940 C   0  0  0  0  0  0  0  0  0  0  0  0
    3.6234   -0.6103   -1.2042 C   0  0  0  0  0  0  0  0  0  0  0  0
    4.8333   -1.3421    0.8906 C   0  0  0  0  0  0  0  0  0  0  0  0
    4.4753   -1.5718   -2.0296 C   0  0  0  0  0  0  0  0  0  0  0  0
    5.6832   -2.3024    0.0616 C   0  0  0  0  0  0  0  0  0  0  0  0
    4.9518   -2.7580   -1.1972 C   0  0  0  0  0  0  0  0  0  0  0  0
   -2.8012    1.4239    0.2358 C   0  0  0  0  0  0  0  0  0  0  0  0
   -3.7712    0.8147   -0.5200 C   0  0  0  0  0  0  0  0  0  0  0  0
   -4.6305   -0.3410   -0.2739 C   0  0  0  0  0  0  0  0  0  0  0  0
   -3.1616   -2.1834   -0.7430 C   0  0  0  0  0  0  0  0  0  0  0  0
   -4.8582   -2.3992    0.9443 C   0  0  0  0  0  0  0  0  0  0  0  0
   -2.0324   -3.0011   -0.1746 C   0  0  0  0  0  0  0  0  0  0  0  0
   -0.7718   -2.4279   -0.0071 C   0  0  0  0  0  0  0  0  0  0  0  0
   -2.2468   -4.3317    0.1851 C   0  0  0  0  0  0  0  0  0  0  0  0
    0.2745   -3.1852    0.5198 C   0  0  0  0  0  0  0  0  0  0  0  0
   -1.2005   -5.0889    0.7121 C   0  0  0  0  0  0  0  0  0  0  0  0
    0.0600   -4.5155    0.8794 C   0  0  0  0  0  0  0  0  0  0  0  0
    0.5610    1.2226    0.8459 H   0  0  0  0  0  0  0  0  0  0  0  0
    0.1853    2.2768   -1.3045 H   0  0  0  0  0  0  0  0  0  0  0  0
    2.5148    2.8910    1.9176 H   0  0  0  0  0  0  0  0  0  0  0  0
   -1.4963    4.3707   -0.5562 H   0  0  0  0  0  0  0  0  0  0  0  0
    1.7686    4.9075    0.9736 H   0  0  0  0  0  0  0  0  0  0  0  0
    2.9760    4.4749   -0.2410 H   0  0  0  0  0  0  0  0  0  0  0  0
   -2.0232    3.4852    2.0096 H   0  0  0  0  0  0  0  0  0  0  0  0
   -0.8061    4.7112    1.6316 H   0  0  0  0  0  0  0  0  0  0  0  0
    5.2477    0.4243   -0.2542 H   0  0  0  0  0  0  0  0  0  0  0  0
    3.8066    2.4223   -0.2317 H   0  0  0  0  0  0  0  0  0  0  0  0
    4.0395    1.1335    1.7592 H   0  0  0  0  0  0  0  0  0  0  0  0
    2.6186    0.1981    1.2806 H   0  0  0  0  0  0  0  0  0  0  0  0
    2.6843   -1.1071   -0.9284 H   0  0  0  0  0  0  0  0  0  0  0  0
    3.3576    0.2398   -1.8429 H   0  0  0  0  0  0  0  0  0  0  0  0
    5.4171   -0.9936    1.7508 H   0  0  0  0  0  0  0  0  0  0  0  0
    3.9675   -1.8842    1.2925 H   0  0  0  0  0  0  0  0  0  0  0  0
    5.3436   -1.0361   -2.4327 H   0  0  0  0  0  0  0  0  0  0  0  0
    3.8966   -1.9331   -2.8872 H   0  0  0  0  0  0  0  0  0  0  0  0
    5.9507   -3.1748    0.6683 H   0  0  0  0  0  0  0  0  0  0  0  0
    6.6216   -1.8088   -0.2196 H   0  0  0  0  0  0  0  0  0  0  0  0
    5.6133   -3.3902   -1.8002 H   0  0  0  0  0  0  0  0  0  0  0  0
    4.0897   -3.3748   -0.9148 H   0  0  0  0  0  0  0  0  0  0  0  0
   -2.4323    1.1735    1.2210 H   0  0  0  0  0  0  0  0  0  0  0  0
   -5.1680   -0.6304   -1.1867 H   0  0  0  0  0  0  0  0  0  0  0  0
   -5.3998   -0.0011    0.4332 H   0  0  0  0  0  0  0  0  0  0  0  0
   -3.8091   -2.8128   -1.3700 H   0  0  0  0  0  0  0  0  0  0  0  0
   -2.7086   -1.4702   -1.4458 H   0  0  0  0  0  0  0  0  0  0  0  0
   -4.3501   -3.2002    1.4885 H   0  0  0  0  0  0  0  0  0  0  0  0
   -5.4439   -1.8661    1.7029 H   0  0  0  0  0  0  0  0  0  0  0  0
   -5.5613   -2.8480    0.2330 H   0  0  0  0  0  0  0  0  0  0  0  0
   -0.5912   -1.3915   -0.2805 H   0  0  0  0  0  0  0  0  0  0  0  0
   -3.2194   -4.7969    0.0495 H   0  0  0  0  0  0  0  0  0  0  0  0
    1.2559   -2.7386    0.6511 H   0  0  0  0  0  0  0  0  0  0  0  0
   -1.3664   -6.1257    0.9896 H   0  0  0  0  0  0  0  0  0  0  0  0
    0.8749   -5.1051    1.2891 H   0  0  0  0  0  0  0  0  0  0  0  0
  1  9  1  0  0  0  0
  1 12  1  0  0  0  0
  2  8  1  0  0  0  0
  2 13  1  0  0  0  0
  3 10  1  0  0  0  0
  3 15  1  0  0  0  0
  3 41  1  0  0  0  0
  4  5  1  0  0  0  0
  4 11  1  0  0  0  0
  4 21  1  0  0  0  0
  5  6  2  0  0  0  0
  6 22  1  0  0  0  0
  7 23  1  0  0  0  0
  7 24  1  0  0  0  0
  7 25  1  0  0  0  0
  8  9  1  0  0  0  0
  8 10  1  0  0  0  0
  8 32  1  0  0  0  0
  9 11  1  0  0  0  0
  9 33  1  0  0  0  0
 10 12  1  0  0  0  0
 10 34  1  0  0  0  0
 11 13  1  0  0  0  0
 11 35  1  0  0  0  0
 12 36  1  0  0  0  0
 12 37  1  0  0  0  0
 13 38  1  0  0  0  0
 13 39  1  0  0  0  0
 14 15  1  0  0  0  0
 14 16  1  0  0  0  0
 14 17  1  0  0  0  0
 14 40  1  0  0  0  0
 15 42  1  0  0  0  0
 15 43  1  0  0  0  0
 16 18  1  0  0  0  0
 16 44  1  0  0  0  0
 16 45  1  0  0  0  0
 17 19  1  0  0  0  0
 17 46  1  0  0  0  0
 17 47  1  0  0  0  0
 18 20  1  0  0  0  0
 18 48  1  0  0  0  0
 18 49  1  0  0  0  0
 19 20  1  0  0  0  0
 19 50  1  0  0  0  0
 19 51  1  0  0  0  0
 20 52  1  0  0  0  0
 20 53  1  0  0  0  0
 21 22  2  0  0  0  0
 21 54  1  0  0  0  0
 22 23  1  0  0  0  0
 23 55  1  0  0  0  0
 23 56  1  0  0  0  0
 24 26  1  0  0  0  0
 24 57  1  0  0  0  0
 24 58  1  0  0  0  0
 25 59  1  0  0  0  0
 25 60  1  0  0  0  0
 25 61  1  0  0  0  0
 26 27  2  0  0  0  0
 26 28  1  0  0  0  0
 27 29  1  0  0  0  0
 27 62  1  0  0  0  0
 28 30  2  0  0  0  0
 28 63  1  0  0  0  0
 29 31  2  0  0  0  0
 29 64  1  0  0  0  0
 30 31  1  0  0  0  0
 30 65  1  0  0  0  0
 31 66  1  0  0  0  0
M  END
> <PUBCHEM_COMPOUND_CID>
11912019

> <PUBCHEM_CONFORMER_RMSD>
1.4

> <PUBCHEM_CONFORMER_DIVERSEORDER>
1
18
32
23
16
36
22
4
35
42
5
26
20
12
10
40
41
29
15
37
30
11
27
13
3
39
25
17
33
38
9
19
21
2
31
34
28
6
43
24
14
8
7

> <PUBCHEM_MMFF94_PARTIAL_CHARGES>
32
1 -0.56
10 0.27
11 0.26
12 0.28
13 0.28
15 0.27
2 -0.56
21 -0.3
22 0.05
23 0.45
24 0.41
25 0.27
26 -0.14
27 -0.15
28 -0.15
29 -0.15
3 -0.9
30 -0.15
31 -0.15
4 0.31
41 0.36
5 -0.42
54 0.15
6 -0.23
62 0.15
63 0.15
64 0.15
65 0.15
66 0.15
7 -0.81
8 0.28
9 0.28

> <PUBCHEM_EFFECTIVE_ROTOR_COUNT>
10.4

> <PUBCHEM_PHARMACOPHORE_FEATURES>
10
1 1 acceptor
1 2 acceptor
1 3 cation
1 3 donor
1 7 cation
5 1 8 9 10 12 rings
5 2 8 9 11 13 rings
5 4 5 6 21 22 rings
6 14 16 17 18 19 20 rings
6 26 27 28 29 30 31 rings

> <PUBCHEM_HEAVY_ATOM_COUNT>
31

> <PUBCHEM_ATOM_DEF_STEREO_COUNT>
4

> <PUBCHEM_ATOM_UDEF_STEREO_COUNT>
0

> <PUBCHEM_BOND_DEF_STEREO_COUNT>
0

> <PUBCHEM_BOND_UDEF_STEREO_COUNT>
0

> <PUBCHEM_ISOTOPIC_ATOM_COUNT>
0

> <PUBCHEM_COMPONENT_COUNT>
1

> <PUBCHEM_CACTVS_TAUTO_COUNT>
1

> <PUBCHEM_CONFORMER_ID>
00B5C35300000001

> <PUBCHEM_MMFF94_ENERGY>
61.6227

> <PUBCHEM_FEATURE_SELFOVERLAP>
51.443

> <PUBCHEM_SHAPE_FINGERPRINT>
10305334 12 17842847620698060425
108634 29 18200032825098576118
11374522 175 17257919924228812695
11828532 37 18335705004992430447
12712778 12 18336537227867278506
12788726 201 18337689546186758214
13122387 1 18411694374731356099
14251757 5 18336844051682993750
14725015 67 18339914935776482985
150020 26 17984424310696497514
15320467 1 17905324379263980970
15351339 4 18120649128781028098
17627616 140 17544760023697407198
17977149 70 18410288099697151586
19315092 285 15192429997831708197
19611394 137 18272076177493929690
20764821 26 18411141341757291967
20775530 9 18268995452058332052
22223350 30 17973463271491571603
23379529 103 18410291436507328280
325973 47 18339078310570816286
437795 70 18057057826133055486
437795 96 18196644310481422786
4394409 98 17827337900585330884
4461854 278 16391567510827434922
463206 1 18051695438988188656
474144 1 17679853809151352242
54324442 115 18340776961699885638
6433294 58 18122624117767414872

> <PUBCHEM_SHAPE_MULTIPOLES>
601.32
10.35
8.08
1.39
6.58
1.44
0.24
6.9
2.23
-1.85
-1.68
0.42
-0.34
2.06

> <PUBCHEM_SHAPE_SELFOVERLAP>
1272.923

> <PUBCHEM_SHAPE_VOLUME>
336.7

> <PUBCHEM_COORDINATE_TYPE>
2
5
10

$$$$
