26743884
  -OEChem-12032416213D

 50 53  0     1  0  0  0  0  0999 V2000
    0.8041   -1.1792    1.5414 F   0  0  0  0  0  0  0  0  0  0  0  0
    2.3873   -2.5830    2.0877 F   0  0  0  0  0  0  0  0  0  0  0  0
    0.3309   -3.0032    2.6962 F   0  0  0  0  0  0  0  0  0  0  0  0
   -4.7283    2.8838    2.1387 O   0  0  0  0  0  0  0  0  0  0  0  0
   -0.9582    1.4321   -2.1742 O   0  0  0  0  0  0  0  0  0  0  0  0
    0.9162   -3.2097    0.4947 O   0  0  0  0  0  0  0  0  0  0  0  0
   -3.0022    0.2602    0.4334 N   0  0  1  0  0  0  0  0  0  0  0  0
   -0.1317    1.4277   -0.0925 N   0  0  0  0  0  0  0  0  0  0  0  0
    0.4359    1.4406   -2.3086 N   0  0  0  0  0  0  0  0  0  0  0  0
   -2.6636    1.4144   -0.4237 C   0  0  1  0  0  0  0  0  0  0  0  0
   -3.0553    2.6504    0.4074 C   0  0  0  0  0  0  0  0  0  0  0  0
   -3.6460    2.0890    1.6948 C   0  0  2  0  0  0  0  0  0  0  0  0
   -4.0956    0.6950    1.3004 C   0  0  0  0  0  0  0  0  0  0  0  0
   -3.3453   -0.9365   -0.3238 C   0  0  0  0  0  0  0  0  0  0  0  0
   -1.2074    1.4252   -0.8385 C   0  0  0  0  0  0  0  0  0  0  0  0
   -2.1199   -1.6531   -0.8255 C   0  0  0  0  0  0  0  0  0  0  0  0
   -1.1581   -2.1058    0.0776 C   0  0  0  0  0  0  0  0  0  0  0  0
   -1.9460   -1.8638   -2.1935 C   0  0  0  0  0  0  0  0  0  0  0  0
    0.8516    1.4371   -1.0386 C   0  0  0  0  0  0  0  0  0  0  0  0
   -0.0223   -2.7691   -0.3870 C   0  0  0  0  0  0  0  0  0  0  0  0
   -0.8102   -2.5270   -2.6582 C   0  0  0  0  0  0  0  0  0  0  0  0
    2.2407    1.4445   -0.6813 C   0  0  0  0  0  0  0  0  0  0  0  0
    0.1515   -2.9798   -1.7550 C   0  0  0  0  0  0  0  0  0  0  0  0
    2.6160    1.4405    0.6622 C   0  0  0  0  0  0  0  0  0  0  0  0
    3.2166    1.4542   -1.6781 C   0  0  0  0  0  0  0  0  0  0  0  0
    3.9670    1.4460    1.0090 C   0  0  0  0  0  0  0  0  0  0  0  0
    4.5677    1.4599   -1.3312 C   0  0  0  0  0  0  0  0  0  0  0  0
    4.9430    1.4556    0.0123 C   0  0  0  0  0  0  0  0  0  0  0  0
    4.3688    1.4416    2.4452 C   0  0  0  0  0  0  0  0  0  0  0  0
    1.0927   -2.4874    1.7083 C   0  0  0  0  0  0  0  0  0  0  0  0
   -3.2875    1.4215   -1.3287 H   0  0  0  0  0  0  0  0  0  0  0  0
   -2.2108    3.3112    0.6336 H   0  0  0  0  0  0  0  0  0  0  0  0
   -3.7984    3.2502   -0.1331 H   0  0  0  0  0  0  0  0  0  0  0  0
   -2.8850    2.0439    2.4835 H   0  0  0  0  0  0  0  0  0  0  0  0
   -4.2098    0.0511    2.1788 H   0  0  0  0  0  0  0  0  0  0  0  0
   -5.0603    0.7289    0.7767 H   0  0  0  0  0  0  0  0  0  0  0  0
   -4.0448   -0.7140   -1.1403 H   0  0  0  0  0  0  0  0  0  0  0  0
   -3.8701   -1.6513    0.3258 H   0  0  0  0  0  0  0  0  0  0  0  0
   -4.3858    3.7794    2.3006 H   0  0  0  0  0  0  0  0  0  0  0  0
   -1.3397   -1.9674    1.1399 H   0  0  0  0  0  0  0  0  0  0  0  0
   -2.6858   -1.5145   -2.9087 H   0  0  0  0  0  0  0  0  0  0  0  0
   -0.6740   -2.6896   -3.7233 H   0  0  0  0  0  0  0  0  0  0  0  0
    1.0346   -3.4949   -2.1229 H   0  0  0  0  0  0  0  0  0  0  0  0
    1.8700    1.4347    1.4540 H   0  0  0  0  0  0  0  0  0  0  0  0
    2.9625    1.4572   -2.7350 H   0  0  0  0  0  0  0  0  0  0  0  0
    5.3279    1.4678   -2.1069 H   0  0  0  0  0  0  0  0  0  0  0  0
    5.9991    1.4617    0.2687 H   0  0  0  0  0  0  0  0  0  0  0  0
    4.3342    2.4587    2.8482 H   0  0  0  0  0  0  0  0  0  0  0  0
    3.7013    0.8040    3.0349 H   0  0  0  0  0  0  0  0  0  0  0  0
    5.3836    1.0506    2.5760 H   0  0  0  0  0  0  0  0  0  0  0  0
  1 30  1  0  0  0  0
  2 30  1  0  0  0  0
  3 30  1  0  0  0  0
  4 12  1  0  0  0  0
  4 39  1  0  0  0  0
  5  9  1  0  0  0  0
  5 15  1  0  0  0  0
  6 20  1  0  0  0  0
  6 30  1  0  0  0  0
  7 10  1  0  0  0  0
  7 13  1  0  0  0  0
  7 14  1  0  0  0  0
  8 15  2  0  0  0  0
  8 19  1  0  0  0  0
  9 19  2  0  0  0  0
 10 11  1  0  0  0  0
 10 15  1  0  0  0  0
 10 31  1  0  0  0  0
 11 12  1  0  0  0  0
 11 32  1  0  0  0  0
 11 33  1  0  0  0  0
 12 13  1  0  0  0  0
 12 34  1  0  0  0  0
 13 35  1  0  0  0  0
 13 36  1  0  0  0  0
 14 16  1  0  0  0  0
 14 37  1  0  0  0  0
 14 38  1  0  0  0  0
 16 17  2  0  0  0  0
 16 18  1  0  0  0  0
 17 20  1  0  0  0  0
 17 40  1  0  0  0  0
 18 21  2  0  0  0  0
 18 41  1  0  0  0  0
 19 22  1  0  0  0  0
 20 23  2  0  0  0  0
 21 23  1  0  0  0  0
 21 42  1  0  0  0  0
 22 24  1  0  0  0  0
 22 25  2  0  0  0  0
 23 43  1  0  0  0  0
 24 26  2  0  0  0  0
 24 44  1  0  0  0  0
 25 27  1  0  0  0  0
 25 45  1  0  0  0  0
 26 28  1  0  0  0  0
 26 29  1  0  0  0  0
 27 28  2  0  0  0  0
 27 46  1  0  0  0  0
 28 47  1  0  0  0  0
 29 48  1  0  0  0  0
 29 49  1  0  0  0  0
 29 50  1  0  0  0  0
M  END
> <PUBCHEM_COMPOUND_CID>
26743884

> <PUBCHEM_CONFORMER_RMSD>
1.2

> <PUBCHEM_CONFORMER_DIVERSEORDER>
1
49
114
98
50
60
25
83
13
39
92
79
64
96
88
16
34
68
84
110
95
4
122
120
37
36
38
42
93
82
111
100
66
23
105
87
73
121
11
104
101
113
12
53
5
112
48
85
118
90
102
2
115
40
69
29
80
77
28
78
63
6
65
74
109
117
62
70
81
89
71
7
15
106
116
99
26
72
45
56
22
19
75
94
61
108
119
32
31
47
58
18
35
3
20
107
27
30
33
21
14
59
55
44
24
52
97
67
17
43
41
103
10
46
86
57
8
54
51
9
76
91

> <PUBCHEM_MMFF94_PARTIAL_CHARGES>
38
1 -0.34
10 0.45
12 0.28
13 0.27
14 0.41
15 0.3
16 -0.14
17 -0.15
18 -0.15
19 0.46
2 -0.34
20 0.08
21 -0.15
22 0.05
23 -0.15
24 -0.15
25 -0.15
26 -0.14
27 -0.15
28 -0.15
29 0.14
3 -0.34
30 1.3
39 0.4
4 -0.68
40 0.15
41 0.15
42 0.15
43 0.15
44 0.15
45 0.15
46 0.15
47 0.15
5 -0.02
6 -0.36
7 -0.81
8 -0.57
9 -0.41

> <PUBCHEM_EFFECTIVE_ROTOR_COUNT>
7

> <PUBCHEM_PHARMACOPHORE_FEATURES>
9
1 4 acceptor
1 4 donor
1 6 acceptor
1 7 cation
3 8 9 19 cation
5 5 8 9 15 19 rings
5 7 10 11 12 13 rings
6 16 17 18 20 21 23 rings
6 22 24 25 26 27 28 rings

> <PUBCHEM_HEAVY_ATOM_COUNT>
30

> <PUBCHEM_ATOM_DEF_STEREO_COUNT>
2

> <PUBCHEM_ATOM_UDEF_STEREO_COUNT>
0

> <PUBCHEM_BOND_DEF_STEREO_COUNT>
0

> <PUBCHEM_BOND_UDEF_STEREO_COUNT>
0

> <PUBCHEM_ISOTOPIC_ATOM_COUNT>
0

> <PUBCHEM_COMPONENT_COUNT>
1

> <PUBCHEM_CACTVS_TAUTO_COUNT>
1

> <PUBCHEM_CONFORMER_ID>
0198144C00000001

> <PUBCHEM_MMFF94_ENERGY>
71.4035

> <PUBCHEM_FEATURE_SELFOVERLAP>
45.672

> <PUBCHEM_SHAPE_FINGERPRINT>
10382601 240 18188505566018487879
12047536 79 17685810955204916937
12156800 1 16376975630112066930
12422481 6 18043795516830588632
12741549 16 16763392046853351787
12788726 201 17835814357856978485
131258 38 16312474120261391339
133893 2 18117830015532078429
14251757 17 17131563816029700452
14840074 17 17603871147527908212
15420108 30 18270966735311239365
16120349 306 18116687760252804616
20600515 1 17254233201356979812
20691752 17 17895204293832127686
21315764 21 15195288607957795944
23419403 2 17114170538183941519
23728640 28 18126013899104352767
3027735 51 17827039017984856855
3411729 13 18193860153740232177
35225 105 17766881507082377377
469060 322 17677319645175514453
5265222 85 17984172458921760972
57527452 28 16311543757393437138
6287921 2 18336823074577429898
6438718 38 18195536006865460318
81228 2 18050278468915678676

> <PUBCHEM_SHAPE_MULTIPOLES>
563.01
8
4.33
2.68
5.59
2.38
-0.54
-7.79
-2.38
-2.92
-1.02
0.88
1
-2.27

> <PUBCHEM_SHAPE_SELFOVERLAP>
1227.111

> <PUBCHEM_SHAPE_VOLUME>
309.6

> <PUBCHEM_COORDINATE_TYPE>
2
5
10

$$$$
