7051746
  -OEChem-12032416363D

 69 74  0     1  0  0  0  0  0999 V2000
   -2.5325    1.1418   -2.0870 O   0  0  0  0  0  0  0  0  0  0  0  0
    2.2562    1.8182   -0.7608 N   0  0  2  0  0  0  0  0  0  0  0  0
   -0.9241    1.7733   -0.5211 N   0  0  0  0  0  0  0  0  0  0  0  0
    3.3867   -2.1946   -0.1187 N   0  0  0  0  0  0  0  0  0  0  0  0
   -5.2604    0.0819    1.9118 N   0  0  0  0  0  0  0  0  0  0  0  0
    0.6643    3.7510   -0.8888 C   0  0  1  0  0  0  0  0  0  0  0  0
    0.8087    2.4446    1.1771 C   0  0  2  0  0  0  0  0  0  0  0  0
    0.6429    3.8598    0.6300 C   0  0  0  0  0  0  0  0  0  0  0  0
    2.0001    3.1354   -1.3565 C   0  0  0  0  0  0  0  0  0  0  0  0
    2.1618    1.8643    0.7061 C   0  0  0  0  0  0  0  0  0  0  0  0
   -0.5526    2.9339   -1.3433 C   0  0  0  0  0  0  0  0  0  0  0  0
   -0.3354    1.5554    0.7267 C   0  0  0  0  0  0  0  0  0  0  0  0
    3.5519    1.2938   -1.1855 C   0  0  0  0  0  0  0  0  0  0  0  0
   -0.7683    0.5550    1.5103 C   0  0  0  0  0  0  0  0  0  0  0  0
   -1.9668    0.9604   -1.0072 C   0  0  0  0  0  0  0  0  0  0  0  0
    3.7549   -0.0997   -0.6588 C   0  0  0  0  0  0  0  0  0  0  0  0
   -2.4072   -0.1742   -0.1216 C   0  0  0  0  0  0  0  0  0  0  0  0
   -1.8158   -0.3238    1.0732 C   0  0  0  0  0  0  0  0  0  0  0  0
    4.9319   -0.5866   -0.0602 C   0  0  0  0  0  0  0  0  0  0  0  0
    2.8195   -1.0872   -0.6898 C   0  0  0  0  0  0  0  0  0  0  0  0
   -3.4590   -1.1131   -0.5496 C   0  0  0  0  0  0  0  0  0  0  0  0
    4.6766   -1.9180    0.2750 C   0  0  0  0  0  0  0  0  0  0  0  0
   -4.8058   -0.8777   -0.2643 C   0  0  0  0  0  0  0  0  0  0  0  0
    6.1972   -0.0428    0.2379 C   0  0  0  0  0  0  0  0  0  0  0  0
   -3.0905   -2.2605   -1.2556 C   0  0  0  0  0  0  0  0  0  0  0  0
    5.6271   -2.7361    0.8960 C   0  0  0  0  0  0  0  0  0  0  0  0
    2.7139   -3.4663    0.0392 C   0  0  0  0  0  0  0  0  0  0  0  0
   -5.2401    0.3382    0.4892 C   0  0  0  0  0  0  0  0  0  0  0  0
    7.1578   -0.8494    0.8589 C   0  0  0  0  0  0  0  0  0  0  0  0
   -5.7790   -1.7852   -0.6826 C   0  0  0  0  0  0  0  0  0  0  0  0
    6.8750   -2.1750    1.1821 C   0  0  0  0  0  0  0  0  0  0  0  0
   -4.0637   -3.1680   -1.6738 C   0  0  0  0  0  0  0  0  0  0  0  0
   -5.4080   -2.9304   -1.3875 C   0  0  0  0  0  0  0  0  0  0  0  0
   -6.1884   -1.0082    2.2384 C   0  0  0  0  0  0  0  0  0  0  0  0
   -5.6292    1.2898    2.6608 C   0  0  0  0  0  0  0  0  0  0  0  0
    0.5903    4.7532   -1.3292 H   0  0  0  0  0  0  0  0  0  0  0  0
    0.8213    2.5039    2.2735 H   0  0  0  0  0  0  0  0  0  0  0  0
   -0.2965    4.3086    0.9764 H   0  0  0  0  0  0  0  0  0  0  0  0
    1.4573    4.5055    0.9806 H   0  0  0  0  0  0  0  0  0  0  0  0
    1.9812    3.0453   -2.4498 H   0  0  0  0  0  0  0  0  0  0  0  0
    2.8136    3.8304   -1.1071 H   0  0  0  0  0  0  0  0  0  0  0  0
    2.9728    2.4804    1.1193 H   0  0  0  0  0  0  0  0  0  0  0  0
    2.2630    0.8712    1.1577 H   0  0  0  0  0  0  0  0  0  0  0  0
   -1.4338    3.5902   -1.3420 H   0  0  0  0  0  0  0  0  0  0  0  0
   -0.4275    2.6004   -2.3813 H   0  0  0  0  0  0  0  0  0  0  0  0
    4.3657    1.9542   -0.8611 H   0  0  0  0  0  0  0  0  0  0  0  0
    3.5943    1.2426   -2.2812 H   0  0  0  0  0  0  0  0  0  0  0  0
   -0.3240    0.3600    2.4806 H   0  0  0  0  0  0  0  0  0  0  0  0
   -2.0946   -1.1266    1.7495 H   0  0  0  0  0  0  0  0  0  0  0  0
    1.8049   -1.1085   -1.0658 H   0  0  0  0  0  0  0  0  0  0  0  0
    6.4367    0.9880   -0.0067 H   0  0  0  0  0  0  0  0  0  0  0  0
   -2.0472   -2.4612   -1.4885 H   0  0  0  0  0  0  0  0  0  0  0  0
    5.4132   -3.7688    1.1501 H   0  0  0  0  0  0  0  0  0  0  0  0
    2.6798   -3.7084    1.1045 H   0  0  0  0  0  0  0  0  0  0  0  0
    1.6974   -3.3956   -0.3563 H   0  0  0  0  0  0  0  0  0  0  0  0
    3.2749   -4.2240   -0.5138 H   0  0  0  0  0  0  0  0  0  0  0  0
   -4.5852    1.1862    0.2552 H   0  0  0  0  0  0  0  0  0  0  0  0
   -6.2301    0.6546    0.1287 H   0  0  0  0  0  0  0  0  0  0  0  0
    8.1355   -0.4355    1.0911 H   0  0  0  0  0  0  0  0  0  0  0  0
   -6.8337   -1.6116   -0.4866 H   0  0  0  0  0  0  0  0  0  0  0  0
    7.6359   -2.7835    1.6641 H   0  0  0  0  0  0  0  0  0  0  0  0
   -3.7750   -4.0590   -2.2236 H   0  0  0  0  0  0  0  0  0  0  0  0
   -6.1660   -3.6350   -1.7168 H   0  0  0  0  0  0  0  0  0  0  0  0
   -7.1913   -0.8474    1.8267 H   0  0  0  0  0  0  0  0  0  0  0  0
   -6.2962   -1.0927    3.3273 H   0  0  0  0  0  0  0  0  0  0  0  0
   -5.8062   -1.9853    1.9284 H   0  0  0  0  0  0  0  0  0  0  0  0
   -5.5810    1.1045    3.7395 H   0  0  0  0  0  0  0  0  0  0  0  0
   -6.6384    1.6369    2.4117 H   0  0  0  0  0  0  0  0  0  0  0  0
   -4.9223    2.1004    2.4513 H   0  0  0  0  0  0  0  0  0  0  0  0
  1 15  2  0  0  0  0
  2  9  1  0  0  0  0
  2 10  1  0  0  0  0
  2 13  1  0  0  0  0
  3 11  1  0  0  0  0
  3 12  1  0  0  0  0
  3 15  1  0  0  0  0
  4 20  1  0  0  0  0
  4 22  1  0  0  0  0
  4 27  1  0  0  0  0
  5 28  1  0  0  0  0
  5 34  1  0  0  0  0
  5 35  1  0  0  0  0
  6  8  1  0  0  0  0
  6  9  1  0  0  0  0
  6 11  1  0  0  0  0
  6 36  1  0  0  0  0
  7  8  1  0  0  0  0
  7 10  1  0  0  0  0
  7 12  1  0  0  0  0
  7 37  1  0  0  0  0
  8 38  1  0  0  0  0
  8 39  1  0  0  0  0
  9 40  1  0  0  0  0
  9 41  1  0  0  0  0
 10 42  1  0  0  0  0
 10 43  1  0  0  0  0
 11 44  1  0  0  0  0
 11 45  1  0  0  0  0
 12 14  2  0  0  0  0
 13 16  1  0  0  0  0
 13 46  1  0  0  0  0
 13 47  1  0  0  0  0
 14 18  1  0  0  0  0
 14 48  1  0  0  0  0
 15 17  1  0  0  0  0
 16 19  1  0  0  0  0
 16 20  2  0  0  0  0
 17 18  2  0  0  0  0
 17 21  1  0  0  0  0
 18 49  1  0  0  0  0
 19 22  1  0  0  0  0
 19 24  2  0  0  0  0
 20 50  1  0  0  0  0
 21 23  1  0  0  0  0
 21 25  2  0  0  0  0
 22 26  2  0  0  0  0
 23 28  1  0  0  0  0
 23 30  2  0  0  0  0
 24 29  1  0  0  0  0
 24 51  1  0  0  0  0
 25 32  1  0  0  0  0
 25 52  1  0  0  0  0
 26 31  1  0  0  0  0
 26 53  1  0  0  0  0
 27 54  1  0  0  0  0
 27 55  1  0  0  0  0
 27 56  1  0  0  0  0
 28 57  1  0  0  0  0
 28 58  1  0  0  0  0
 29 31  2  0  0  0  0
 29 59  1  0  0  0  0
 30 33  1  0  0  0  0
 30 60  1  0  0  0  0
 31 61  1  0  0  0  0
 32 33  2  0  0  0  0
 32 62  1  0  0  0  0
 33 63  1  0  0  0  0
 34 64  1  0  0  0  0
 34 65  1  0  0  0  0
 34 66  1  0  0  0  0
 35 67  1  0  0  0  0
 35 68  1  0  0  0  0
 35 69  1  0  0  0  0
M  END
> <PUBCHEM_COMPOUND_CID>
7051746

> <PUBCHEM_CONFORMER_RMSD>
0.8

> <PUBCHEM_CONFORMER_DIVERSEORDER>
3
22
9
8
19
34
16
11
33
25
20
29
15
23
12
21
6
35
1
31
32
4
24
10
7
27
18
30
5
28
26
17
13
14
2

> <PUBCHEM_MMFF94_PARTIAL_CHARGES>
43
1 -0.57
10 0.27
11 0.3
12 -0.03
13 0.45
14 -0.15
15 0.62
16 -0.18
17 -0.01
18 -0.15
2 -0.81
20 -0.3
21 0.03
22 -0.15
23 -0.14
24 -0.15
25 -0.15
26 -0.15
27 0.26
28 0.41
29 -0.15
3 -0.47
30 -0.15
31 -0.15
32 -0.15
33 -0.15
34 0.27
35 0.27
4 0.05
48 0.15
49 0.15
5 -0.81
50 0.15
51 0.15
52 0.15
53 0.15
59 0.15
60 0.15
61 0.15
62 0.15
63 0.15
7 0.14
9 0.27

> <PUBCHEM_EFFECTIVE_ROTOR_COUNT>
6

> <PUBCHEM_PHARMACOPHORE_FEATURES>
10
1 1 acceptor
1 2 cation
1 4 cation
1 5 cation
5 4 16 19 20 22 rings
6 19 22 24 26 29 31 rings
6 2 6 7 8 9 10 rings
6 21 23 25 30 32 33 rings
6 3 12 14 15 17 18 rings
6 3 6 7 8 11 12 rings

> <PUBCHEM_HEAVY_ATOM_COUNT>
35

> <PUBCHEM_ATOM_DEF_STEREO_COUNT>
2

> <PUBCHEM_ATOM_UDEF_STEREO_COUNT>
0

> <PUBCHEM_BOND_DEF_STEREO_COUNT>
0

> <PUBCHEM_BOND_UDEF_STEREO_COUNT>
0

> <PUBCHEM_ISOTOPIC_ATOM_COUNT>
0

> <PUBCHEM_COMPONENT_COUNT>
1

> <PUBCHEM_CACTVS_TAUTO_COUNT>
1

> <PUBCHEM_CONFORMER_ID>
006B99E200000003

> <PUBCHEM_MMFF94_ENERGY>
99.416

> <PUBCHEM_FEATURE_SELFOVERLAP>
52.395

> <PUBCHEM_SHAPE_FINGERPRINT>
10622 236 17752186307261829194
11135926 11 17897457313912722092
12107183 9 18272099279659265001
12128747 34 16486976137869073523
12144603 126 18340499923608514000
12166972 35 18040713663221702742
12218070 45 17916849336009607030
12422481 6 17987528021974278925
13631057 29 18337668621448366060
13782708 43 17312823783799130002
14068700 675 18272085024361791248
14117953 113 18270962345348495215
14394314 77 18341894091277539904
1454969 45 18336266834486329964
15021287 119 18408611361818670625
15250474 111 18201159978877341367
15392192 29 18337127708513789594
16110190 28 18273213092942496014
17818456 19 17988379113057982801
19246450 95 18128266580172525497
19315092 285 17845087565995404907
20028762 73 18343580738405663222
20775438 99 17687160398593439470
20775530 9 18261670385730415606
21033650 10 16661464270053606223
23522609 53 18195274254015491940
23559900 14 18267007535562651871
23569914 152 17757229801521181311
23569943 247 18334288760848424179
2838139 119 7853852797791258670
3680242 22 18411706478065747438
4112364 45 14189000275964705402
439807 62 18334288799323456639
463206 1 18337392737828511018
5104073 3 17559963289133964705
513202 73 18113905949138815477
6201320 77 16734701605497260265
9555976 147 17632308899695421059

> <PUBCHEM_SHAPE_MULTIPOLES>
694.49
16.63
4.57
1.88
5.06
1.32
0.57
-15.23
5.97
1.52
-1.29
-2.84
0.31
-3.28

> <PUBCHEM_SHAPE_SELFOVERLAP>
1534.705

> <PUBCHEM_SHAPE_VOLUME>
369.8

> <PUBCHEM_COORDINATE_TYPE>
2
5
10

$$$$
