11884461
  -OEChem-12032416363D

 59 62  0     1  0  0  0  0  0999 V2000
    2.1607    1.0318    1.3323 S   0  0  0  0  0  0  0  0  0  0  0  0
    2.2105    0.7863    2.7581 O   0  0  0  0  0  0  0  0  0  0  0  0
    1.5063    2.2091    0.8019 O   0  0  0  0  0  0  0  0  0  0  0  0
   -2.9597   -2.2668    1.5238 O   0  0  0  0  0  0  0  0  0  0  0  0
    7.6959    0.9652   -0.7004 O   0  0  0  0  0  0  0  0  0  0  0  0
   -5.0800    1.2916   -0.9845 O   0  0  0  0  0  0  0  0  0  0  0  0
   -7.1515    2.6068    0.4910 O   0  0  0  0  0  0  0  0  0  0  0  0
    1.5358   -0.3544    0.5468 N   0  0  2  0  0  0  0  0  0  0  0  0
   -1.1747   -1.9063    0.0595 N   0  0  0  0  0  0  0  0  0  0  0  0
   -4.7034   -0.7841    0.0026 N   0  0  0  0  0  0  0  0  0  0  0  0
    1.1773   -2.8245    0.4869 C   0  0  1  0  0  0  0  0  0  0  0  0
    0.7398   -1.4810   -1.5222 C   0  0  2  0  0  0  0  0  0  0  0  0
    1.3048   -2.8109   -1.0307 C   0  0  0  0  0  0  0  0  0  0  0  0
    1.9744   -1.6649    1.1064 C   0  0  0  0  0  0  0  0  0  0  0  0
    1.5740   -0.3225   -0.9459 C   0  0  0  0  0  0  0  0  0  0  0  0
   -0.3090   -2.7799    0.8628 C   0  0  0  0  0  0  0  0  0  0  0  0
   -0.7181   -1.3291   -1.1296 C   0  0  0  0  0  0  0  0  0  0  0  0
   -1.5598   -0.6270   -1.9067 C   0  0  0  0  0  0  0  0  0  0  0  0
   -2.5085   -1.7645    0.4934 C   0  0  0  0  0  0  0  0  0  0  0  0
   -3.4081   -0.9553   -0.3886 C   0  0  0  0  0  0  0  0  0  0  0  0
   -2.9310   -0.4368   -1.5251 C   0  0  0  0  0  0  0  0  0  0  0  0
    3.8180    1.0116    0.7237 C   0  0  0  0  0  0  0  0  0  0  0  0
    4.1181    1.6868   -0.4479 C   0  0  0  0  0  0  0  0  0  0  0  0
    4.7905    0.3208    1.4279 C   0  0  0  0  0  0  0  0  0  0  0  0
    5.4274    1.6710   -0.9289 C   0  0  0  0  0  0  0  0  0  0  0  0
    6.0998    0.3050    0.9470 C   0  0  0  0  0  0  0  0  0  0  0  0
   -5.4645    0.3333   -0.3191 C   0  0  0  0  0  0  0  0  0  0  0  0
    6.4181    0.9800   -0.2315 C   0  0  0  0  0  0  0  0  0  0  0  0
   -6.8677    0.2324    0.2601 C   0  0  0  0  0  0  0  0  0  0  0  0
   -7.7347    1.4377   -0.0698 C   0  0  0  0  0  0  0  0  0  0  0  0
    7.9519    1.6768   -1.9101 C   0  0  0  0  0  0  0  0  0  0  0  0
   -7.9327    3.7618    0.2169 C   0  0  0  0  0  0  0  0  0  0  0  0
    1.5998   -3.7582    0.8791 H   0  0  0  0  0  0  0  0  0  0  0  0
    0.8295   -1.4584   -2.6164 H   0  0  0  0  0  0  0  0  0  0  0  0
    2.3550   -2.9172   -1.3289 H   0  0  0  0  0  0  0  0  0  0  0  0
    0.7587   -3.6538   -1.4724 H   0  0  0  0  0  0  0  0  0  0  0  0
    1.8302   -1.6760    2.1919 H   0  0  0  0  0  0  0  0  0  0  0  0
    3.0386   -1.8195    0.8999 H   0  0  0  0  0  0  0  0  0  0  0  0
    2.6038   -0.4298   -1.3019 H   0  0  0  0  0  0  0  0  0  0  0  0
    1.1773    0.6321   -1.3093 H   0  0  0  0  0  0  0  0  0  0  0  0
   -0.4318   -2.5168    1.9209 H   0  0  0  0  0  0  0  0  0  0  0  0
   -0.7276   -3.7899    0.7536 H   0  0  0  0  0  0  0  0  0  0  0  0
   -1.2281   -0.1658   -2.8312 H   0  0  0  0  0  0  0  0  0  0  0  0
   -3.5327    0.1115   -2.2401 H   0  0  0  0  0  0  0  0  0  0  0  0
   -5.0444   -1.3974    0.7389 H   0  0  0  0  0  0  0  0  0  0  0  0
    3.3612    2.2292   -1.0063 H   0  0  0  0  0  0  0  0  0  0  0  0
    4.5633   -0.2135    2.3452 H   0  0  0  0  0  0  0  0  0  0  0  0
    5.6051    2.2154   -1.8500 H   0  0  0  0  0  0  0  0  0  0  0  0
    6.8674   -0.2355    1.4941 H   0  0  0  0  0  0  0  0  0  0  0  0
   -7.3380   -0.6794   -0.1243 H   0  0  0  0  0  0  0  0  0  0  0  0
   -6.7680    0.1402    1.3484 H   0  0  0  0  0  0  0  0  0  0  0  0
   -7.8201    1.5565   -1.1565 H   0  0  0  0  0  0  0  0  0  0  0  0
   -8.7369    1.2911    0.3489 H   0  0  0  0  0  0  0  0  0  0  0  0
    7.7670    2.7500   -1.7926 H   0  0  0  0  0  0  0  0  0  0  0  0
    9.0169    1.5588   -2.1355 H   0  0  0  0  0  0  0  0  0  0  0  0
    7.3977    1.2500   -2.7530 H   0  0  0  0  0  0  0  0  0  0  0  0
   -7.4396    4.6262    0.6699 H   0  0  0  0  0  0  0  0  0  0  0  0
   -8.0062    3.9279   -0.8622 H   0  0  0  0  0  0  0  0  0  0  0  0
   -8.9317    3.6618    0.6524 H   0  0  0  0  0  0  0  0  0  0  0  0
  1  2  2  0  0  0  0
  1  3  2  0  0  0  0
  1  8  1  0  0  0  0
  1 22  1  0  0  0  0
  4 19  2  0  0  0  0
  5 28  1  0  0  0  0
  5 31  1  0  0  0  0
  6 27  2  0  0  0  0
  7 30  1  0  0  0  0
  7 32  1  0  0  0  0
  8 14  1  0  0  0  0
  8 15  1  0  0  0  0
  9 16  1  0  0  0  0
  9 17  1  0  0  0  0
  9 19  1  0  0  0  0
 10 20  1  0  0  0  0
 10 27  1  0  0  0  0
 10 45  1  0  0  0  0
 11 13  1  0  0  0  0
 11 14  1  0  0  0  0
 11 16  1  0  0  0  0
 11 33  1  0  0  0  0
 12 13  1  0  0  0  0
 12 15  1  0  0  0  0
 12 17  1  0  0  0  0
 12 34  1  0  0  0  0
 13 35  1  0  0  0  0
 13 36  1  0  0  0  0
 14 37  1  0  0  0  0
 14 38  1  0  0  0  0
 15 39  1  0  0  0  0
 15 40  1  0  0  0  0
 16 41  1  0  0  0  0
 16 42  1  0  0  0  0
 17 18  2  0  0  0  0
 18 21  1  0  0  0  0
 18 43  1  0  0  0  0
 19 20  1  0  0  0  0
 20 21  2  0  0  0  0
 21 44  1  0  0  0  0
 22 23  2  0  0  0  0
 22 24  1  0  0  0  0
 23 25  1  0  0  0  0
 23 46  1  0  0  0  0
 24 26  2  0  0  0  0
 24 47  1  0  0  0  0
 25 28  2  0  0  0  0
 25 48  1  0  0  0  0
 26 28  1  0  0  0  0
 26 49  1  0  0  0  0
 27 29  1  0  0  0  0
 29 30  1  0  0  0  0
 29 50  1  0  0  0  0
 29 51  1  0  0  0  0
 30 52  1  0  0  0  0
 30 53  1  0  0  0  0
 31 54  1  0  0  0  0
 31 55  1  0  0  0  0
 31 56  1  0  0  0  0
 32 57  1  0  0  0  0
 32 58  1  0  0  0  0
 32 59  1  0  0  0  0
M  END
> <PUBCHEM_COMPOUND_CID>
11884461

> <PUBCHEM_CONFORMER_RMSD>
1

> <PUBCHEM_CONFORMER_DIVERSEORDER>
1
18
14
23
15
13
16
20
36
8
24
11
37
5
34
29
26
3
35
2
7
28
12
27
21
17
22
32
31
9
25
33
19
30
6
4
10

> <PUBCHEM_MMFF94_PARTIAL_CHARGES>
37
1 1.45
10 -0.54
12 0.14
14 0.36
15 0.36
16 0.3
17 -0.03
18 -0.15
19 0.62
2 -0.65
20 0.12
21 -0.15
22 -0.01
23 -0.15
24 -0.15
25 -0.15
26 -0.15
27 0.57
28 0.08
29 0.06
3 -0.65
30 0.28
31 0.28
32 0.28
4 -0.57
43 0.15
44 0.15
45 0.37
46 0.15
47 0.15
48 0.15
49 0.15
5 -0.36
6 -0.57
7 -0.56
8 -0.85
9 -0.47

> <PUBCHEM_EFFECTIVE_ROTOR_COUNT>
9

> <PUBCHEM_PHARMACOPHORE_FEATURES>
11
1 10 donor
1 2 acceptor
1 3 acceptor
1 4 acceptor
1 5 acceptor
1 6 acceptor
1 7 acceptor
6 22 23 24 25 26 28 rings
6 8 11 12 13 14 15 rings
6 9 11 12 13 16 17 rings
6 9 17 18 19 20 21 rings

> <PUBCHEM_HEAVY_ATOM_COUNT>
32

> <PUBCHEM_ATOM_DEF_STEREO_COUNT>
2

> <PUBCHEM_ATOM_UDEF_STEREO_COUNT>
0

> <PUBCHEM_BOND_DEF_STEREO_COUNT>
0

> <PUBCHEM_BOND_UDEF_STEREO_COUNT>
0

> <PUBCHEM_ISOTOPIC_ATOM_COUNT>
0

> <PUBCHEM_COMPONENT_COUNT>
1

> <PUBCHEM_CACTVS_TAUTO_COUNT>
2

> <PUBCHEM_CONFORMER_ID>
00B557AD00000001

> <PUBCHEM_MMFF94_ENERGY>
84.3691

> <PUBCHEM_FEATURE_SELFOVERLAP>
57.429

> <PUBCHEM_SHAPE_FINGERPRINT>
10 15 17603585236007826839
10165383 225 18333731346574538135
10190206 1 17703802391916692712
10670039 82 15841559548706062835
10674148 151 18343581863623323160
10693767 8 11023822860056547165
11578080 2 18335425655918919491
1200032 147 18260551095509132275
12633257 1 17750212833838721203
12758862 65 10881407517316286660
13944108 23 18270680857518926833
14068700 675 8862941688900629463
14931854 50 17632580422642141241
14951699 99 18337390440522083357
15052358 14 17703514384921763630
15183329 4 18131075943623107840
15238133 3 18410853286933018160
15510800 12 11025805237194831081
17349148 13 13901084377972481722
17899979 129 18129105524613311967
19303781 99 8646187218450671121
21033648 29 18198892785742150520
21033650 10 14189304734087214283
21365058 27 16081366380419331146
21585482 111 18263925445873652677
22149856 69 12829758566853599556
23522609 53 17604721096228626990
24771293 8 18260550014032097941
24893992 56 18272366521261783067
2747138 104 13262392254899165676
2838139 119 18059563720543322765
3411729 13 18336543832920571583
4058900 60 18411985732707987787
4093350 32 17988925531329009990
4280585 95 10592043561797658117
4461854 278 14562538362065290401
474113 269 16128107638050404732
508180 173 17632572781810633833
5265222 85 17974580392822287158
5385378 56 18335696109714025874
5718773 13 9943805586442046149
59682541 35 12612753549459665332
59682541 52 16630531704543377782
59755656 215 17632298977740432428
9689198 14 18041002868875697724

> <PUBCHEM_SHAPE_MULTIPOLES>
612.24
20.71
3.31
1.72
12.72
0.17
-0.11
23.89
2.69
3.67
-0.32
-1.77
-0.06
-0.97

> <PUBCHEM_SHAPE_SELFOVERLAP>
1297.732

> <PUBCHEM_SHAPE_VOLUME>
341.8

> <PUBCHEM_COORDINATE_TYPE>
2
5
10

$$$$
