75536725
  -OEChem-12032416333D

 49 50  0     1  0  0  0  0  0999 V2000
    0.3581    0.4038   -1.2036 O   0  0  0  0  0  0  0  0  0  0  0  0
   -0.5779   -1.9169    1.3740 O   0  0  0  0  0  0  0  0  0  0  0  0
    3.9230   -0.6973    1.2817 O   0  0  0  0  0  0  0  0  0  0  0  0
   -2.9534   -0.8652   -0.3943 N   0  0  0  0  0  0  0  0  0  0  0  0
   -6.6597    0.9190    0.6930 N   0  0  0  0  0  0  0  0  0  0  0  0
    3.0399   -0.5783   -0.8637 N   0  0  0  0  0  0  0  0  0  0  0  0
    5.0109    0.5162   -0.3699 N   0  0  0  0  0  0  0  0  0  0  0  0
   -1.6362   -0.3102   -0.1288 C   0  0  1  0  0  0  0  0  0  0  0  0
   -0.5614   -1.3622    0.0730 C   0  0  1  0  0  0  0  0  0  0  0  0
   -3.9873    0.1549   -0.2362 C   0  0  0  0  0  0  0  0  0  0  0  0
    0.6990   -0.5462   -0.1802 C   0  0  1  0  0  0  0  0  0  0  0  0
   -1.0751    0.4709   -1.3058 C   0  0  0  0  0  0  0  0  0  0  0  0
   -4.2985    0.3967    1.2452 C   0  0  0  0  0  0  0  0  0  0  0  0
   -5.2601   -0.2599   -0.9817 C   0  0  0  0  0  0  0  0  0  0  0  0
   -5.4628    1.3756    1.4040 C   0  0  0  0  0  0  0  0  0  0  0  0
   -6.3869    0.7446   -0.7359 C   0  0  0  0  0  0  0  0  0  0  0  0
    1.8783   -1.3881   -0.6338 C   0  0  0  0  0  0  0  0  0  0  0  0
    3.9872   -0.2893    0.1228 C   0  0  0  0  0  0  0  0  0  0  0  0
    6.1174    0.9607    0.4443 C   0  0  0  0  0  0  0  0  0  0  0  0
    6.5969    2.3309   -0.0168 C   0  0  0  0  0  0  0  0  0  0  0  0
    7.2485   -0.0596    0.4125 C   0  0  0  0  0  0  0  0  0  0  0  0
   -1.6399    0.3238    0.7661 H   0  0  0  0  0  0  0  0  0  0  0  0
   -0.6608   -2.1737   -0.6587 H   0  0  0  0  0  0  0  0  0  0  0  0
   -3.6577    1.1014   -0.6854 H   0  0  0  0  0  0  0  0  0  0  0  0
    0.9788    0.0245    0.7151 H   0  0  0  0  0  0  0  0  0  0  0  0
   -3.1389   -1.6445    0.2365 H   0  0  0  0  0  0  0  0  0  0  0  0
   -1.3507    0.0273   -2.2695 H   0  0  0  0  0  0  0  0  0  0  0  0
   -1.3867    1.5197   -1.3074 H   0  0  0  0  0  0  0  0  0  0  0  0
   -3.4342    0.8043    1.7798 H   0  0  0  0  0  0  0  0  0  0  0  0
   -4.5581   -0.5503    1.7378 H   0  0  0  0  0  0  0  0  0  0  0  0
   -5.5858   -1.2555   -0.6510 H   0  0  0  0  0  0  0  0  0  0  0  0
   -5.0628   -0.3305   -2.0584 H   0  0  0  0  0  0  0  0  0  0  0  0
   -5.7038    1.4742    2.4682 H   0  0  0  0  0  0  0  0  0  0  0  0
   -5.1714    2.3718    1.0490 H   0  0  0  0  0  0  0  0  0  0  0  0
   -6.1392    1.7110   -1.1920 H   0  0  0  0  0  0  0  0  0  0  0  0
   -7.2984    0.3853   -1.2260 H   0  0  0  0  0  0  0  0  0  0  0  0
    1.6556   -1.8827   -1.5856 H   0  0  0  0  0  0  0  0  0  0  0  0
    2.1143   -2.1556    0.1110 H   0  0  0  0  0  0  0  0  0  0  0  0
   -7.4038    1.6059    0.8118 H   0  0  0  0  0  0  0  0  0  0  0  0
   -0.4918   -1.1926    2.0167 H   0  0  0  0  0  0  0  0  0  0  0  0
    3.1730   -0.1823   -1.7891 H   0  0  0  0  0  0  0  0  0  0  0  0
    5.0153    0.7386   -1.3608 H   0  0  0  0  0  0  0  0  0  0  0  0
    5.7651    1.0496    1.4791 H   0  0  0  0  0  0  0  0  0  0  0  0
    6.9558    2.3001   -1.0518 H   0  0  0  0  0  0  0  0  0  0  0  0
    5.7825    3.0623    0.0276 H   0  0  0  0  0  0  0  0  0  0  0  0
    7.4131    2.6940    0.6164 H   0  0  0  0  0  0  0  0  0  0  0  0
    7.6254   -0.2023   -0.6065 H   0  0  0  0  0  0  0  0  0  0  0  0
    6.9070   -1.0350    0.7759 H   0  0  0  0  0  0  0  0  0  0  0  0
    8.0836    0.2617    1.0436 H   0  0  0  0  0  0  0  0  0  0  0  0
  1 11  1  0  0  0  0
  1 12  1  0  0  0  0
  2  9  1  0  0  0  0
  2 40  1  0  0  0  0
  3 18  2  0  0  0  0
  4  8  1  0  0  0  0
  4 10  1  0  0  0  0
  4 26  1  0  0  0  0
  5 15  1  0  0  0  0
  5 16  1  0  0  0  0
  5 39  1  0  0  0  0
  6 17  1  0  0  0  0
  6 18  1  0  0  0  0
  6 41  1  0  0  0  0
  7 18  1  0  0  0  0
  7 19  1  0  0  0  0
  7 42  1  0  0  0  0
  8  9  1  0  0  0  0
  8 12  1  0  0  0  0
  8 22  1  0  0  0  0
  9 11  1  0  0  0  0
  9 23  1  0  0  0  0
 10 13  1  0  0  0  0
 10 14  1  0  0  0  0
 10 24  1  0  0  0  0
 11 17  1  0  0  0  0
 11 25  1  0  0  0  0
 12 27  1  0  0  0  0
 12 28  1  0  0  0  0
 13 15  1  0  0  0  0
 13 29  1  0  0  0  0
 13 30  1  0  0  0  0
 14 16  1  0  0  0  0
 14 31  1  0  0  0  0
 14 32  1  0  0  0  0
 15 33  1  0  0  0  0
 15 34  1  0  0  0  0
 16 35  1  0  0  0  0
 16 36  1  0  0  0  0
 17 37  1  0  0  0  0
 17 38  1  0  0  0  0
 19 20  1  0  0  0  0
 19 21  1  0  0  0  0
 19 43  1  0  0  0  0
 20 44  1  0  0  0  0
 20 45  1  0  0  0  0
 20 46  1  0  0  0  0
 21 47  1  0  0  0  0
 21 48  1  0  0  0  0
 21 49  1  0  0  0  0
M  END
> <PUBCHEM_COMPOUND_CID>
75536725

> <PUBCHEM_CONFORMER_RMSD>
0.8

> <PUBCHEM_CONFORMER_DIVERSEORDER>
1
60
68
66
251
105
106
89
220
24
219
168
121
160
29
197
48
28
143
164
239
64
155
57
109
35
136
119
242
260
61
258
215
88
86
231
236
100
257
208
211
34
255
207
243
125
104
158
80
253
177
118
228
190
14
210
95
232
172
188
205
233
82
84
18
72
252
75
101
224
22
193
150
122
51
113
115
180
134
169
87
124
59
241
63
221
103
166
76
69
141
149
12
114
140
156
206
65
112
244
9
170
209
234
130
42
261
10
108
37
187
203
213
235
5
62
245
171
58
178
92
53
25
176
174
227
222
47
70
183
15
4
77
154
148
93
111
126
230
262
120
41
249
259
107
199
151
32
83
214
46
78
102
246
33
31
43
138
110
116
195
132
254
248
133
52
30
162
55
20
212
153
157
229
67
250
181
161
198
216
152
71
173
135
6
85
185
23
201
16
226
99
256
189
79
200
90
3
191
21
129
97
204
74
223
165
123
238
96
127
159
50
94
167
202
147
7
163
49
240
247
218
39
137
225
131
128
91
192
117
38
54
184
98
142
186
73
2
19
263
139
237
145
36
40
217
8
56
17
179
26
81
13
146
27
194
144
44
11
196
45
182
175

> <PUBCHEM_MMFF94_PARTIAL_CHARGES>
22
1 -0.56
10 0.27
11 0.28
12 0.28
15 0.27
16 0.27
17 0.3
18 0.69
19 0.3
2 -0.68
26 0.36
3 -0.57
39 0.36
4 -0.9
40 0.4
41 0.37
42 0.37
5 -0.9
6 -0.73
7 -0.73
8 0.27
9 0.28

> <PUBCHEM_EFFECTIVE_ROTOR_COUNT>
9.2

> <PUBCHEM_PHARMACOPHORE_FEATURES>
13
1 1 acceptor
1 2 acceptor
1 2 donor
1 3 acceptor
1 4 cation
1 4 donor
1 5 cation
1 5 donor
1 6 donor
1 7 donor
3 19 20 21 hydrophobe
5 1 8 9 11 12 rings
6 5 10 13 14 15 16 rings

> <PUBCHEM_HEAVY_ATOM_COUNT>
21

> <PUBCHEM_ATOM_DEF_STEREO_COUNT>
3

> <PUBCHEM_ATOM_UDEF_STEREO_COUNT>
0

> <PUBCHEM_BOND_DEF_STEREO_COUNT>
0

> <PUBCHEM_BOND_UDEF_STEREO_COUNT>
0

> <PUBCHEM_ISOTOPIC_ATOM_COUNT>
0

> <PUBCHEM_COMPONENT_COUNT>
1

> <PUBCHEM_CACTVS_TAUTO_COUNT>
3

> <PUBCHEM_CONFORMER_ID>
0480995500000001

> <PUBCHEM_MMFF94_ENERGY>
18.3171

> <PUBCHEM_FEATURE_SELFOVERLAP>
66.021

> <PUBCHEM_SHAPE_FINGERPRINT>
10 15 17095245838783614740
10087517 78 18202284667640660993
106641 1 18113341942369699347
10670039 82 14548747179001255010
10906281 52 18337687389822499132
11315181 36 18342736343571047615
11524674 6 15791734113629866393
117890 112 18343866619321577446
12236239 1 18271525304572072471
12596602 18 18261115175017918587
12616971 3 16081374097995831806
12670543 26 12751245782866601179
13167372 99 18201722825899149496
13288520 33 11458426839001433271
13533116 47 18041554738114572330
13540713 5 17025737024194422558
13631057 29 18340199821854844159
13668630 136 11743836975885337653
13685833 64 11314307248399372300
13862211 1 8214145152994885844
14123256 10 14979956969212998425
14251752 14 15051734166511519252
14251764 18 18260831539778061447
14341114 176 17676485065133493924
14528608 73 16845850191570461814
15048467 5 18130787854095769109
15183329 4 14620802591475136866
15348495 7 16588316036941236152
15716309 27 12757151281299471249
17834072 8 14333406753006726632
17980427 23 18188209930745976702
20281389 69 18408602543913396332
20526848 3 18202569475042124544
20567600 247 10953737828539271192
21150785 3 15123787392193264581
21637258 2 12396300395642749331
22224240 67 18040998445085847715
23035841 295 11241971477840729541
23081809 10 17703502221041871871
23402539 116 17968089854290518775
2838139 119 17775283871810197240
2916195 48 18407760335186174693
4340502 62 15791729694076804792
445580 37 17132121246749920505
465052 167 10881406421893423192
5104073 3 17241904265815919464
543368 44 18273497862781354921
559249 180 12179842810606780137
59682541 35 16877950472404206208
59682541 52 15769510755193638420
59755656 215 12895359884606343172

> <PUBCHEM_SHAPE_MULTIPOLES>
394.64
19.77
1.54
1.22
10.77
0.35
0.16
11.22
1.83
1.04
0.23
-0.89
-0.01
-0.91

> <PUBCHEM_SHAPE_SELFOVERLAP>
785.153

> <PUBCHEM_SHAPE_VOLUME>
234

> <PUBCHEM_COORDINATE_TYPE>
2
5
10

$$$$
