71693033
  -OEChem-12032416293D

 64 67  0     1  0  0  0  0  0999 V2000
    3.7170   -0.1756   -2.1828 O   0  0  0  0  0  0  0  0  0  0  0  0
    3.4955    0.7845   -0.0816 N   0  0  0  0  0  0  0  0  0  0  0  0
   -3.0778    0.0081    1.5602 N   0  0  0  0  0  0  0  0  0  0  0  0
   -2.0015   -0.7661   -0.2236 N   0  0  0  0  0  0  0  0  0  0  0  0
    0.8243    1.9893   -0.7574 C   0  0  1  0  0  0  0  0  0  0  0  0
    2.0062    2.7159   -0.0680 C   0  0  1  0  0  0  0  0  0  0  0  0
   -0.4867    2.2651   -0.0054 C   0  0  0  0  0  0  0  0  0  0  0  0
   -0.4228    1.8076    1.4641 C   0  0  2  0  0  0  0  0  0  0  0  0
    0.6784    2.4059   -2.2242 C   0  0  0  0  0  0  0  0  0  0  0  0
    0.8542    2.2634    2.1407 C   0  0  0  0  0  0  0  0  0  0  0  0
    1.9244    2.6785    1.4401 C   0  0  0  0  0  0  0  0  0  0  0  0
    3.3514    2.1370   -0.5210 C   0  0  0  0  0  0  0  0  0  0  0  0
   -0.5918    0.2885    1.5775 C   0  0  0  0  0  0  0  0  0  0  0  0
   -0.0313    1.3144   -3.0193 C   0  0  0  0  0  0  0  0  0  0  0  0
   -0.0747    3.7282   -2.3294 C   0  0  0  0  0  0  0  0  0  0  0  0
    0.8571    2.2743    3.6440 C   0  0  0  0  0  0  0  0  0  0  0  0
   -1.8723   -0.1702    0.9405 C   0  0  0  0  0  0  0  0  0  0  0  0
    3.6700   -0.2841   -0.9603 C   0  0  0  0  0  0  0  0  0  0  0  0
   -4.0497   -0.5069    0.7413 C   0  0  0  0  0  0  0  0  0  0  0  0
   -3.3527   -0.9841   -0.3652 C   0  0  0  0  0  0  0  0  0  0  0  0
   -5.4363   -0.5937    0.8696 C   0  0  0  0  0  0  0  0  0  0  0  0
    3.7782   -1.6327   -0.3467 C   0  0  0  0  0  0  0  0  0  0  0  0
   -4.0652   -1.5868   -1.4156 C   0  0  0  0  0  0  0  0  0  0  0  0
   -6.1295   -1.1965   -0.1852 C   0  0  0  0  0  0  0  0  0  0  0  0
   -5.4581   -1.6849   -1.3084 C   0  0  0  0  0  0  0  0  0  0  0  0
    3.3979   -2.7619   -1.0718 C   0  0  0  0  0  0  0  0  0  0  0  0
    4.2616   -1.7695    0.9545 C   0  0  0  0  0  0  0  0  0  0  0  0
   -7.6161   -1.3189   -0.1070 C   0  0  0  0  0  0  0  0  0  0  0  0
    3.5011   -4.0282   -0.4957 C   0  0  0  0  0  0  0  0  0  0  0  0
    4.3648   -3.0357    1.5306 C   0  0  0  0  0  0  0  0  0  0  0  0
    3.9845   -4.1650    0.8055 C   0  0  0  0  0  0  0  0  0  0  0  0
    1.0056    0.9082   -0.7245 H   0  0  0  0  0  0  0  0  0  0  0  0
    1.9978    3.7768   -0.3478 H   0  0  0  0  0  0  0  0  0  0  0  0
   -1.3503    1.8397   -0.5232 H   0  0  0  0  0  0  0  0  0  0  0  0
   -0.6729    3.3470    0.0396 H   0  0  0  0  0  0  0  0  0  0  0  0
   -1.2663    2.2919    1.9769 H   0  0  0  0  0  0  0  0  0  0  0  0
    1.6634    2.5395   -2.6830 H   0  0  0  0  0  0  0  0  0  0  0  0
    2.7979    3.0394    1.9797 H   0  0  0  0  0  0  0  0  0  0  0  0
    4.1757    2.7017   -0.0684 H   0  0  0  0  0  0  0  0  0  0  0  0
    3.4834    2.2085   -1.6039 H   0  0  0  0  0  0  0  0  0  0  0  0
   -0.5999   -0.0221    2.6297 H   0  0  0  0  0  0  0  0  0  0  0  0
    0.2479   -0.2405    1.1102 H   0  0  0  0  0  0  0  0  0  0  0  0
   -1.0484    1.1314   -2.6591 H   0  0  0  0  0  0  0  0  0  0  0  0
    0.5216    0.3703   -2.9678 H   0  0  0  0  0  0  0  0  0  0  0  0
   -0.1025    1.5960   -4.0757 H   0  0  0  0  0  0  0  0  0  0  0  0
   -1.1448    3.6329   -2.1175 H   0  0  0  0  0  0  0  0  0  0  0  0
   -0.0077    4.0989   -3.3598 H   0  0  0  0  0  0  0  0  0  0  0  0
    0.3514    4.5091   -1.6927 H   0  0  0  0  0  0  0  0  0  0  0  0
    1.7811    2.6986    4.0512 H   0  0  0  0  0  0  0  0  0  0  0  0
    0.7599    1.2590    4.0396 H   0  0  0  0  0  0  0  0  0  0  0  0
    0.0247    2.8773    4.0213 H   0  0  0  0  0  0  0  0  0  0  0  0
    3.4580    0.6186    0.9179 H   0  0  0  0  0  0  0  0  0  0  0  0
   -3.2285    0.4427    2.4610 H   0  0  0  0  0  0  0  0  0  0  0  0
   -5.9448   -0.2118    1.7482 H   0  0  0  0  0  0  0  0  0  0  0  0
   -3.5524   -1.9693   -2.2923 H   0  0  0  0  0  0  0  0  0  0  0  0
   -6.0132   -2.1523   -2.1187 H   0  0  0  0  0  0  0  0  0  0  0  0
    3.0146   -2.6756   -2.0851 H   0  0  0  0  0  0  0  0  0  0  0  0
    4.5992   -0.9217    1.5428 H   0  0  0  0  0  0  0  0  0  0  0  0
   -7.8910   -2.2963    0.3018 H   0  0  0  0  0  0  0  0  0  0  0  0
   -8.0467   -0.5398    0.5312 H   0  0  0  0  0  0  0  0  0  0  0  0
   -8.0716   -1.2094   -1.0971 H   0  0  0  0  0  0  0  0  0  0  0  0
    3.2044   -4.9075   -1.0599 H   0  0  0  0  0  0  0  0  0  0  0  0
    4.7482   -3.1436    2.5411 H   0  0  0  0  0  0  0  0  0  0  0  0
    4.0662   -5.1509    1.2536 H   0  0  0  0  0  0  0  0  0  0  0  0
  1 18  2  0  0  0  0
  2 12  1  0  0  0  0
  2 18  1  0  0  0  0
  2 52  1  0  0  0  0
  3 17  1  0  0  0  0
  3 19  1  0  0  0  0
  3 53  1  0  0  0  0
  4 17  2  0  0  0  0
  4 20  1  0  0  0  0
  5  6  1  0  0  0  0
  5  7  1  0  0  0  0
  5  9  1  0  0  0  0
  5 32  1  0  0  0  0
  6 11  1  0  0  0  0
  6 12  1  0  0  0  0
  6 33  1  0  0  0  0
  7  8  1  0  0  0  0
  7 34  1  0  0  0  0
  7 35  1  0  0  0  0
  8 10  1  0  0  0  0
  8 13  1  0  0  0  0
  8 36  1  0  0  0  0
  9 14  1  0  0  0  0
  9 15  1  0  0  0  0
  9 37  1  0  0  0  0
 10 11  2  0  0  0  0
 10 16  1  0  0  0  0
 11 38  1  0  0  0  0
 12 39  1  0  0  0  0
 12 40  1  0  0  0  0
 13 17  1  0  0  0  0
 13 41  1  0  0  0  0
 13 42  1  0  0  0  0
 14 43  1  0  0  0  0
 14 44  1  0  0  0  0
 14 45  1  0  0  0  0
 15 46  1  0  0  0  0
 15 47  1  0  0  0  0
 15 48  1  0  0  0  0
 16 49  1  0  0  0  0
 16 50  1  0  0  0  0
 16 51  1  0  0  0  0
 18 22  1  0  0  0  0
 19 20  2  0  0  0  0
 19 21  1  0  0  0  0
 20 23  1  0  0  0  0
 21 24  2  0  0  0  0
 21 54  1  0  0  0  0
 22 26  2  0  0  0  0
 22 27  1  0  0  0  0
 23 25  2  0  0  0  0
 23 55  1  0  0  0  0
 24 25  1  0  0  0  0
 24 28  1  0  0  0  0
 25 56  1  0  0  0  0
 26 29  1  0  0  0  0
 26 57  1  0  0  0  0
 27 30  2  0  0  0  0
 27 58  1  0  0  0  0
 28 59  1  0  0  0  0
 28 60  1  0  0  0  0
 28 61  1  0  0  0  0
 29 31  2  0  0  0  0
 29 62  1  0  0  0  0
 30 31  1  0  0  0  0
 30 63  1  0  0  0  0
 31 64  1  0  0  0  0
M  END
> <PUBCHEM_COMPOUND_CID>
71693033

> <PUBCHEM_CONFORMER_RMSD>
1

> <PUBCHEM_CONFORMER_DIVERSEORDER>
1
26
33
136
70
90
81
120
106
84
139
36
10
82
100
71
57
45
62
126
58
118
95
137
77
97
116
60
124
56
145
74
39
31
108
112
63
50
54
135
40
78
130
52
65
138
93
43
147
107
131
140
13
105
114
38
134
12
67
141
143
2
89
14
4
46
61
9
73
20
80
122
111
94
24
27
8
49
30
98
35
75
125
142
87
28
18
132
110
133
148
23
104
96
41
66
51
48
129
7
86
53
15
79
146
16
85
99
91
103
17
37
47
59
128
6
29
115
117
64
32
72
127
22
21
109
123
144
92
68
44
19
34
119
121
113
88
3
11
5
83
55
69
25
102
42
101
76

> <PUBCHEM_MMFF94_PARTIAL_CHARGES>
37
1 -0.57
10 -0.28
11 -0.29
12 0.3
13 0.18
16 0.14
17 0.01
18 0.54
19 -0.15
2 -0.73
20 0.23
21 -0.15
22 0.09
23 -0.15
24 -0.14
25 -0.15
26 -0.15
27 -0.15
28 0.14
29 -0.15
3 0.03
30 -0.15
31 -0.15
38 0.15
4 -0.57
52 0.37
53 0.27
54 0.15
55 0.15
56 0.15
57 0.15
58 0.15
6 0.14
62 0.15
63 0.15
64 0.15
8 0.14

> <PUBCHEM_EFFECTIVE_ROTOR_COUNT>
7.8

> <PUBCHEM_PHARMACOPHORE_FEATURES>
9
1 1 acceptor
1 2 donor
1 3 donor
3 3 4 17 cation
3 9 14 15 hydrophobe
5 3 4 17 19 20 rings
6 19 20 21 23 24 25 rings
6 22 26 27 29 30 31 rings
6 5 6 7 8 10 11 rings

> <PUBCHEM_HEAVY_ATOM_COUNT>
31

> <PUBCHEM_ATOM_DEF_STEREO_COUNT>
3

> <PUBCHEM_ATOM_UDEF_STEREO_COUNT>
0

> <PUBCHEM_BOND_DEF_STEREO_COUNT>
0

> <PUBCHEM_BOND_UDEF_STEREO_COUNT>
0

> <PUBCHEM_ISOTOPIC_ATOM_COUNT>
0

> <PUBCHEM_COMPONENT_COUNT>
1

> <PUBCHEM_CACTVS_TAUTO_COUNT>
6

> <PUBCHEM_CONFORMER_ID>
0445F2E900000001

> <PUBCHEM_MMFF94_ENERGY>
67.3807

> <PUBCHEM_FEATURE_SELFOVERLAP>
45.778

> <PUBCHEM_SHAPE_FINGERPRINT>
10622 236 18193279581335808226
11069576 57 18336275557085198310
11135609 149 18262777632473005431
11552529 35 17697320612695381250
12156800 1 17027929197303671424
12422481 6 17980222806753616097
12977781 61 17974817650725738776
131258 38 17987787648368362262
13165053 137 14511844966350225171
13533116 47 18272372027072233395
13947947 73 18410851028566289079
14068700 675 18059306366160825834
14347332 77 18343863312803447201
14429115 67 18339081493115091958
14705955 166 14907634319732473226
15183329 4 17560531702755401425
15664445 248 17822009869333219356
1813 80 18336548222503469491
18681886 176 15122397716875908304
19026451 147 18410290285904752610
19315092 285 18341897368469189040
20775530 9 18191881032778463338
21285901 2 17894623768972705876
21315764 21 12180415570328770658
21458453 9 12894777190930673543
23559900 14 18040998492815914619
25222932 49 16768722956187466295
3004659 81 17988651821584046087
3027735 51 17535470314167867026
345986 75 18131073692780377874
376196 1 16522728158537846997
463206 1 18200314449697586746
484985 159 17401772921925048150
5081480 168 18040426669095679583
513532 50 17604419829462587977
57527573 199 15681931724219104772
57527585 103 17407119855513131998
6438754 60 17895192156064794403
9831232 110 18042409200599903499

> <PUBCHEM_SHAPE_MULTIPOLES>
617.15
12.57
4.96
2.69
21.36
1.43
0.3
15.01
-0.69
-7.24
-0.32
-0.95
-2.45
-0.83

> <PUBCHEM_SHAPE_SELFOVERLAP>
1323.673

> <PUBCHEM_SHAPE_VOLUME>
340.6

> <PUBCHEM_COORDINATE_TYPE>
2
5
10

$$$$
