11911964
  -OEChem-12032416113D

 54 59  0     1  0  0  0  0  0999 V2000
   -2.9292   -0.8249   -0.6237 S   0  0  0  0  0  0  0  0  0  0  0  0
   -1.1758    2.4093   -1.1680 O   0  0  0  0  0  0  0  0  0  0  0  0
    3.0906    0.2408   -2.6892 O   0  0  0  0  0  0  0  0  0  0  0  0
    3.5606    1.0921   -0.5853 N   0  0  0  0  0  0  0  0  0  0  0  0
    0.7218    2.2359    0.1785 N   0  0  0  0  0  0  0  0  0  0  0  0
    1.6821   -6.0183    1.2466 N   0  0  0  0  0  0  0  0  0  0  0  0
    2.9006    3.4781   -0.3465 C   0  0  1  0  0  0  0  0  0  0  0  0
    2.7843    1.9761    1.6008 C   0  0  2  0  0  0  0  0  0  0  0  0
    3.1469    3.3921    1.1560 C   0  0  0  0  0  0  0  0  0  0  0  0
    3.7716    2.4495   -1.0920 C   0  0  0  0  0  0  0  0  0  0  0  0
    1.4043    3.2702   -0.6133 C   0  0  0  0  0  0  0  0  0  0  0  0
    3.6900    0.9584    0.8763 C   0  0  0  0  0  0  0  0  0  0  0  0
    1.3307    1.6643    1.2996 C   0  0  0  0  0  0  0  0  0  0  0  0
    0.6488    0.8070    2.0763 C   0  0  0  0  0  0  0  0  0  0  0  0
   -0.6011    1.9232   -0.1926 C   0  0  0  0  0  0  0  0  0  0  0  0
    3.1815    0.0676   -1.4729 C   0  0  0  0  0  0  0  0  0  0  0  0
   -1.3232    0.9346    0.6801 C   0  0  0  0  0  0  0  0  0  0  0  0
   -0.7015    0.4378    1.7590 C   0  0  0  0  0  0  0  0  0  0  0  0
    2.8619   -1.2295   -0.8928 C   0  0  0  0  0  0  0  0  0  0  0  0
   -2.6596    0.5347    0.3749 C   0  0  0  0  0  0  0  0  0  0  0  0
    1.5540   -1.5134   -0.5080 C   0  0  0  0  0  0  0  0  0  0  0  0
    3.8656   -2.1804   -0.7272 C   0  0  0  0  0  0  0  0  0  0  0  0
   -3.8465    1.1066    0.7836 C   0  0  0  0  0  0  0  0  0  0  0  0
   -5.0046    0.4276    0.2758 C   0  0  0  0  0  0  0  0  0  0  0  0
   -4.6429   -0.6634   -0.5205 C   0  0  0  0  0  0  0  0  0  0  0  0
    1.2478   -2.7564    0.0462 C   0  0  0  0  0  0  0  0  0  0  0  0
    3.5595   -3.4234   -0.1732 C   0  0  0  0  0  0  0  0  0  0  0  0
    2.2505   -3.7113    0.2135 C   0  0  0  0  0  0  0  0  0  0  0  0
   -6.3829    0.6945    0.4593 C   0  0  0  0  0  0  0  0  0  0  0  0
   -5.6123   -1.4839   -1.1302 C   0  0  0  0  0  0  0  0  0  0  0  0
   -7.3471   -0.1173   -0.1441 C   0  0  0  0  0  0  0  0  0  0  0  0
   -6.9634   -1.1946   -0.9301 C   0  0  0  0  0  0  0  0  0  0  0  0
    1.9371   -4.9836    0.7833 C   0  0  0  0  0  0  0  0  0  0  0  0
    3.1812    4.4748   -0.7086 H   0  0  0  0  0  0  0  0  0  0  0  0
    2.9669    1.8978    2.6803 H   0  0  0  0  0  0  0  0  0  0  0  0
    2.5416    4.1352    1.6902 H   0  0  0  0  0  0  0  0  0  0  0  0
    4.1975    3.6085    1.3847 H   0  0  0  0  0  0  0  0  0  0  0  0
    3.5761    2.5011   -2.1680 H   0  0  0  0  0  0  0  0  0  0  0  0
    4.8332    2.6827   -0.9454 H   0  0  0  0  0  0  0  0  0  0  0  0
    0.8745    4.2070   -0.3922 H   0  0  0  0  0  0  0  0  0  0  0  0
    1.2297    3.0692   -1.6779 H   0  0  0  0  0  0  0  0  0  0  0  0
    4.7419    1.1520    1.1202 H   0  0  0  0  0  0  0  0  0  0  0  0
    3.4699   -0.0568    1.2147 H   0  0  0  0  0  0  0  0  0  0  0  0
    1.1052    0.3372    2.9412 H   0  0  0  0  0  0  0  0  0  0  0  0
   -1.1836   -0.2750    2.4217 H   0  0  0  0  0  0  0  0  0  0  0  0
    0.7626   -0.7883   -0.6627 H   0  0  0  0  0  0  0  0  0  0  0  0
    4.8885   -1.9657   -1.0250 H   0  0  0  0  0  0  0  0  0  0  0  0
   -3.8931    1.9806    1.4231 H   0  0  0  0  0  0  0  0  0  0  0  0
    0.2215   -2.9674    0.3373 H   0  0  0  0  0  0  0  0  0  0  0  0
    4.3522   -4.1573   -0.0485 H   0  0  0  0  0  0  0  0  0  0  0  0
   -6.6990    1.5349    1.0724 H   0  0  0  0  0  0  0  0  0  0  0  0
   -5.3212   -2.3293   -1.7471 H   0  0  0  0  0  0  0  0  0  0  0  0
   -8.4015    0.0978    0.0044 H   0  0  0  0  0  0  0  0  0  0  0  0
   -7.7202   -1.8203   -1.3952 H   0  0  0  0  0  0  0  0  0  0  0  0
  1 20  1  0  0  0  0
  1 25  1  0  0  0  0
  2 15  2  0  0  0  0
  3 16  2  0  0  0  0
  4 10  1  0  0  0  0
  4 12  1  0  0  0  0
  4 16  1  0  0  0  0
  5 11  1  0  0  0  0
  5 13  1  0  0  0  0
  5 15  1  0  0  0  0
  6 33  3  0  0  0  0
  7  9  1  0  0  0  0
  7 10  1  0  0  0  0
  7 11  1  0  0  0  0
  7 34  1  0  0  0  0
  8  9  1  0  0  0  0
  8 12  1  0  0  0  0
  8 13  1  0  0  0  0
  8 35  1  0  0  0  0
  9 36  1  0  0  0  0
  9 37  1  0  0  0  0
 10 38  1  0  0  0  0
 10 39  1  0  0  0  0
 11 40  1  0  0  0  0
 11 41  1  0  0  0  0
 12 42  1  0  0  0  0
 12 43  1  0  0  0  0
 13 14  2  0  0  0  0
 14 18  1  0  0  0  0
 14 44  1  0  0  0  0
 15 17  1  0  0  0  0
 16 19  1  0  0  0  0
 17 18  2  0  0  0  0
 17 20  1  0  0  0  0
 18 45  1  0  0  0  0
 19 21  2  0  0  0  0
 19 22  1  0  0  0  0
 20 23  2  0  0  0  0
 21 26  1  0  0  0  0
 21 46  1  0  0  0  0
 22 27  2  0  0  0  0
 22 47  1  0  0  0  0
 23 24  1  0  0  0  0
 23 48  1  0  0  0  0
 24 25  1  0  0  0  0
 24 29  2  0  0  0  0
 25 30  2  0  0  0  0
 26 28  2  0  0  0  0
 26 49  1  0  0  0  0
 27 28  1  0  0  0  0
 27 50  1  0  0  0  0
 28 33  1  0  0  0  0
 29 31  1  0  0  0  0
 29 51  1  0  0  0  0
 30 32  1  0  0  0  0
 30 52  1  0  0  0  0
 31 32  2  0  0  0  0
 31 53  1  0  0  0  0
 32 54  1  0  0  0  0
M  END
> <PUBCHEM_COMPOUND_CID>
11911964

> <PUBCHEM_CONFORMER_RMSD>
0.8

> <PUBCHEM_CONFORMER_DIVERSEORDER>
1
11
7
5
15
4
6
10
9
13
12
3
8
2
14

> <PUBCHEM_MMFF94_PARTIAL_CHARGES>
41
1 -0.08
10 0.3
11 0.3
12 0.3
13 -0.03
14 -0.15
15 0.62
16 0.54
17 0.06
18 -0.15
19 0.09
2 -0.57
20 -0.01
21 -0.15
22 -0.15
23 -0.15
25 0.04
26 -0.15
27 -0.15
28 0.07
29 -0.15
3 -0.57
30 -0.15
31 -0.15
32 -0.15
33 0.48
4 -0.66
44 0.15
45 0.15
46 0.15
47 0.15
48 0.15
49 0.15
5 -0.47
50 0.15
51 0.15
52 0.15
53 0.15
54 0.15
6 -0.56
8 0.14

> <PUBCHEM_EFFECTIVE_ROTOR_COUNT>
4

> <PUBCHEM_PHARMACOPHORE_FEATURES>
9
1 2 acceptor
1 3 acceptor
1 6 acceptor
5 1 20 23 24 25 rings
6 19 21 22 26 27 28 rings
6 24 25 29 30 31 32 rings
6 4 7 8 9 10 12 rings
6 5 13 14 15 17 18 rings
6 5 7 8 9 11 13 rings

> <PUBCHEM_HEAVY_ATOM_COUNT>
33

> <PUBCHEM_ATOM_DEF_STEREO_COUNT>
2

> <PUBCHEM_ATOM_UDEF_STEREO_COUNT>
0

> <PUBCHEM_BOND_DEF_STEREO_COUNT>
0

> <PUBCHEM_BOND_UDEF_STEREO_COUNT>
0

> <PUBCHEM_ISOTOPIC_ATOM_COUNT>
0

> <PUBCHEM_COMPONENT_COUNT>
1

> <PUBCHEM_CACTVS_TAUTO_COUNT>
1

> <PUBCHEM_CONFORMER_ID>
00B5C31C00000001

> <PUBCHEM_MMFF94_ENERGY>
89.963

> <PUBCHEM_FEATURE_SELFOVERLAP>
47.328

> <PUBCHEM_SHAPE_FINGERPRINT>
10675989 125 18200315540651188833
11014199 57 17473265375112679150
11135609 149 18191564386103160335
11796584 16 17489314109488620189
12107183 9 17912091551896366801
13004483 165 17400080773397889402
13150687 139 18043550498033094380
13533116 47 18273497888387875313
1361 2 18337673125946257221
13617811 41 18335697300174165741
14068700 675 18122630453456339950
14675020 138 18270388507668419336
15001296 14 18131066091289845743
15183329 4 17417821664712335521
15264996 163 17324084732967824843
15324115 91 18408609175137010782
15324884 4 17683836528314905832
15484559 13 18341056323572765998
15664445 248 18339643459326245821
15968369 26 18261657247515882027
17909252 39 18335701585891916473
19026451 147 18201162048903956014
19315092 285 18130785625129101329
19319366 153 18412539946508226255
20511986 3 17703219724269256621
20721686 124 18261384590006354722
20764821 26 18266173010152998299
20775438 99 18337662122636320595
20775530 9 18051973623803828750
21360442 67 18264204897830725375
23569914 152 17469568865292248983
239999 70 17846786234114231180
3004659 81 17846788403236187333
4073 2 18268711791813433075
4340502 62 17631445829653185840
44280117 145 17258782513192850030
46194498 28 18113616824345446117
463206 1 18272086144873592482
484989 97 18193294085440295058
513532 50 17632297908430751684
6700243 42 16154005551911150379
70251023 43 18190463753378319171

> <PUBCHEM_SHAPE_MULTIPOLES>
656.29
12.92
5.73
1.6
31.05
7.86
-0.03
1.52
-3.17
-9.45
1.57
-1.14
-0.3
-0.87

> <PUBCHEM_SHAPE_SELFOVERLAP>
1459.978

> <PUBCHEM_SHAPE_VOLUME>
349.3

> <PUBCHEM_COORDINATE_TYPE>
2
5
10

$$$$
