45784012
  -OEChem-12032416203D

 39 41  0     1  0  0  0  0  0999 V2000
   -3.8313    0.2654   -1.6863 O   0  0  0  0  0  0  0  0  0  0  0  0
   -5.2612    1.5518   -0.0115 O   0  0  0  0  0  0  0  0  0  0  0  0
   -2.4966   -0.7655   -0.1067 N   0  0  0  0  0  0  0  0  0  0  0  0
    2.0074   -1.5916    0.0277 N   0  0  0  0  0  0  0  0  0  0  0  0
    0.7716    0.2224   -0.3213 N   0  0  0  0  0  0  0  0  0  0  0  0
   -0.4630   -1.9892   -0.2429 C   0  0  1  0  0  0  0  0  0  0  0  0
   -1.0887   -2.1857    1.1469 C   0  0  0  0  0  0  0  0  0  0  0  0
   -1.6571   -1.4804   -1.0601 C   0  0  0  0  0  0  0  0  0  0  0  0
   -2.0894   -1.0424    1.2661 C   0  0  0  0  0  0  0  0  0  0  0  0
    0.7557   -1.0845   -0.1844 C   0  0  0  0  0  0  0  0  0  0  0  0
   -3.5270    0.0649   -0.5094 C   0  0  0  0  0  0  0  0  0  0  0  0
    2.8899   -0.5419    0.0274 C   0  0  0  0  0  0  0  0  0  0  0  0
    2.0942    0.5791   -0.1923 C   0  0  0  0  0  0  0  0  0  0  0  0
   -4.2944    0.7344    0.6023 C   0  0  0  0  0  0  0  0  0  0  0  0
    4.2735   -0.4787    0.1953 C   0  0  0  0  0  0  0  0  0  0  0  0
    2.6978    1.8465   -0.2507 C   0  0  0  0  0  0  0  0  0  0  0  0
    4.8577    0.7907    0.1342 C   0  0  0  0  0  0  0  0  0  0  0  0
    4.0857    1.9341   -0.0847 C   0  0  0  0  0  0  0  0  0  0  0  0
    6.3355    0.9241    0.3062 C   0  0  0  0  0  0  0  0  0  0  0  0
   -6.0605    2.2466    0.9442 C   0  0  0  0  0  0  0  0  0  0  0  0
   -0.1325   -2.9532   -0.6508 H   0  0  0  0  0  0  0  0  0  0  0  0
   -1.6299   -3.1404    1.1656 H   0  0  0  0  0  0  0  0  0  0  0  0
   -0.3678   -2.1922    1.9703 H   0  0  0  0  0  0  0  0  0  0  0  0
   -2.2532   -2.3147   -1.4477 H   0  0  0  0  0  0  0  0  0  0  0  0
   -1.3813   -0.8294   -1.8957 H   0  0  0  0  0  0  0  0  0  0  0  0
   -1.6213   -0.1374    1.6679 H   0  0  0  0  0  0  0  0  0  0  0  0
   -2.9503   -1.3042    1.8871 H   0  0  0  0  0  0  0  0  0  0  0  0
    2.2432   -2.5659    0.1623 H   0  0  0  0  0  0  0  0  0  0  0  0
   -4.7828   -0.0272    1.2184 H   0  0  0  0  0  0  0  0  0  0  0  0
   -3.6117    1.3410    1.2062 H   0  0  0  0  0  0  0  0  0  0  0  0
    4.8608   -1.3744    0.3665 H   0  0  0  0  0  0  0  0  0  0  0  0
    2.1065    2.7407   -0.4200 H   0  0  0  0  0  0  0  0  0  0  0  0
    4.5566    2.9136   -0.1275 H   0  0  0  0  0  0  0  0  0  0  0  0
    6.5733    1.1407    1.3524 H   0  0  0  0  0  0  0  0  0  0  0  0
    6.8550    0.0054    0.0131 H   0  0  0  0  0  0  0  0  0  0  0  0
    6.7325    1.7299   -0.3205 H   0  0  0  0  0  0  0  0  0  0  0  0
   -6.6012    1.5362    1.5767 H   0  0  0  0  0  0  0  0  0  0  0  0
   -5.4356    2.9014    1.5590 H   0  0  0  0  0  0  0  0  0  0  0  0
   -6.7865    2.8594    0.4034 H   0  0  0  0  0  0  0  0  0  0  0  0
  1 11  2  0  0  0  0
  2 14  1  0  0  0  0
  2 20  1  0  0  0  0
  3  8  1  0  0  0  0
  3  9  1  0  0  0  0
  3 11  1  0  0  0  0
  4 10  1  0  0  0  0
  4 12  1  0  0  0  0
  4 28  1  0  0  0  0
  5 10  2  0  0  0  0
  5 13  1  0  0  0  0
  6  7  1  0  0  0  0
  6  8  1  0  0  0  0
  6 10  1  0  0  0  0
  6 21  1  0  0  0  0
  7  9  1  0  0  0  0
  7 22  1  0  0  0  0
  7 23  1  0  0  0  0
  8 24  1  0  0  0  0
  8 25  1  0  0  0  0
  9 26  1  0  0  0  0
  9 27  1  0  0  0  0
 11 14  1  0  0  0  0
 12 13  2  0  0  0  0
 12 15  1  0  0  0  0
 13 16  1  0  0  0  0
 14 29  1  0  0  0  0
 14 30  1  0  0  0  0
 15 17  2  0  0  0  0
 15 31  1  0  0  0  0
 16 18  2  0  0  0  0
 16 32  1  0  0  0  0
 17 18  1  0  0  0  0
 17 19  1  0  0  0  0
 18 33  1  0  0  0  0
 19 34  1  0  0  0  0
 19 35  1  0  0  0  0
 19 36  1  0  0  0  0
 20 37  1  0  0  0  0
 20 38  1  0  0  0  0
 20 39  1  0  0  0  0
M  END
> <PUBCHEM_COMPOUND_CID>
45784012

> <PUBCHEM_CONFORMER_RMSD>
0.8

> <PUBCHEM_CONFORMER_DIVERSEORDER>
1
21
12
35
15
16
6
8
33
39
30
7
22
17
5
13
41
3
29
4
20
43
2
9
10
26
42
14
23
19
28
31
25
32
18
34
36
27
37
40
24
38
11
44

> <PUBCHEM_MMFF94_PARTIAL_CHARGES>
23
1 -0.57
10 0.01
11 0.57
12 -0.15
13 0.23
14 0.34
15 -0.15
16 -0.15
17 -0.14
18 -0.15
19 0.14
2 -0.56
20 0.28
28 0.27
3 -0.66
31 0.15
32 0.15
33 0.15
4 0.03
5 -0.57
6 0.18
8 0.3
9 0.3

> <PUBCHEM_EFFECTIVE_ROTOR_COUNT>
5

> <PUBCHEM_PHARMACOPHORE_FEATURES>
7
1 1 acceptor
1 2 acceptor
1 4 donor
3 4 5 10 cation
5 3 6 7 8 9 rings
5 4 5 10 12 13 rings
6 12 13 15 16 17 18 rings

> <PUBCHEM_HEAVY_ATOM_COUNT>
20

> <PUBCHEM_ATOM_DEF_STEREO_COUNT>
1

> <PUBCHEM_ATOM_UDEF_STEREO_COUNT>
0

> <PUBCHEM_BOND_DEF_STEREO_COUNT>
0

> <PUBCHEM_BOND_UDEF_STEREO_COUNT>
0

> <PUBCHEM_ISOTOPIC_ATOM_COUNT>
0

> <PUBCHEM_COMPONENT_COUNT>
1

> <PUBCHEM_CACTVS_TAUTO_COUNT>
2

> <PUBCHEM_CONFORMER_ID>
02BA9BCC00000001

> <PUBCHEM_MMFF94_ENERGY>
40.4072

> <PUBCHEM_FEATURE_SELFOVERLAP>
35.643

> <PUBCHEM_SHAPE_FINGERPRINT>
10411042 1 17474109795668891398
11089746 13 18060129981974532192
12107183 9 18264200323384470794
122479 349 18408326613739484259
12293681 160 17418376865821958627
12596602 18 13551478055086553037
12633257 1 16370736954154974633
12892183 10 15864343593801303923
13103583 49 12757432705327444613
13583140 156 15430300465177323797
14576447 43 9799696991462703996
14790565 3 17470172922183766884
15188451 53 14635163356307071065
15238133 3 18187656807741005572
15415430 10 8214139660042872617
1601671 61 18334011722899340764
17357779 13 12535626072534802035
17834072 32 18411139164203591564
1813 80 8718541765883509107
20621476 66 18410860983926161548
20645477 56 17821441374286374799
21033648 29 18271519905323278904
21315759 148 14490465353579373752
21421861 104 17749937879197346786
21637258 2 11530770331573878457
23402539 116 18060697307924693148
23402655 69 18201716258255610110
23559900 14 18412262840251350306
270888 7 18270964540567425609
2838139 119 18272928328158142385
3268164 11 14692303845081938722
335352 9 18410293593313776926
3472631 163 18131070411995459205
351380 3 10953746612053125913
4259306 186 10375869671434677241
4325135 7 18341893031032508375
46194498 28 13181866192634897457
465052 167 11098154248905259593
474 4 18411420566756585059
5104073 3 17969495082418184232
5385378 56 18262800662124874930
57724786 102 18187089494127360812
59124914 9 18411136931068693216
59682541 35 18335151908320922241
59682541 52 16486420854168641917
6328613 192 18263368139559667892
633830 44 18340768144210576495
7970288 3 8142094151764094680

> <PUBCHEM_SHAPE_MULTIPOLES>
384.91
13.09
2.33
1.02
1.4
0.16
0.04
10.69
-1.7
1.36
-0.36
1.1
-0.18
-0.52

> <PUBCHEM_SHAPE_SELFOVERLAP>
824.286

> <PUBCHEM_SHAPE_VOLUME>
215

> <PUBCHEM_COORDINATE_TYPE>
2
5
10

$$$$
