45783306
  -OEChem-12032416273D

 41 44  0     1  0  0  0  0  0999 V2000
    3.3317   -1.8730   -0.0012 O   0  0  0  0  0  0  0  0  0  0  0  0
   -5.0321    2.5589   -0.1116 O   0  0  0  0  0  0  0  0  0  0  0  0
    4.3522    1.2646   -1.0868 N   0  0  0  0  0  0  0  0  0  0  0  0
   -3.2097    0.4222    0.0021 N   0  0  0  0  0  0  0  0  0  0  0  0
    1.8175   -0.2228    0.0341 N   0  0  0  0  0  0  0  0  0  0  0  0
    2.0771   -2.4948   -0.0339 N   0  0  0  0  0  0  0  0  0  0  0  0
   -2.9679   -1.9308   -0.0702 N   0  0  0  0  0  0  0  0  0  0  0  0
    4.2986    0.3671    0.0785 C   0  0  1  0  0  0  0  0  0  0  0  0
    4.3455    1.2898    1.3059 C   0  0  0  0  0  0  0  0  0  0  0  0
    4.4775    2.6947    0.7363 C   0  0  0  0  0  0  0  0  0  0  0  0
    5.0511    2.4675   -0.6461 C   0  0  0  0  0  0  0  0  0  0  0  0
    3.0884   -0.5367    0.0382 C   0  0  0  0  0  0  0  0  0  0  0  0
   -3.1139    1.4217   -1.0674 C   0  0  0  0  0  0  0  0  0  0  0  0
   -4.5320    0.3051    0.6321 C   0  0  0  0  0  0  0  0  0  0  0  0
   -3.7004    2.7455   -0.5897 C   0  0  0  0  0  0  0  0  0  0  0  0
   -5.0421    1.6884    1.0196 C   0  0  0  0  0  0  0  0  0  0  0  0
   -2.3889   -0.7099   -0.0257 C   0  0  0  0  0  0  0  0  0  0  0  0
    1.2361   -1.4566   -0.0107 C   0  0  0  0  0  0  0  0  0  0  0  0
   -0.1904   -1.6175   -0.0298 C   0  0  0  0  0  0  0  0  0  0  0  0
   -1.0193   -0.5013   -0.0041 C   0  0  0  0  0  0  0  0  0  0  0  0
   -0.7487   -2.8902   -0.0756 C   0  0  0  0  0  0  0  0  0  0  0  0
   -2.1303   -2.9919   -0.0941 C   0  0  0  0  0  0  0  0  0  0  0  0
    5.2007   -0.2582    0.0722 H   0  0  0  0  0  0  0  0  0  0  0  0
    3.4657    1.2126    1.9537 H   0  0  0  0  0  0  0  0  0  0  0  0
    5.2293    1.0536    1.9109 H   0  0  0  0  0  0  0  0  0  0  0  0
    5.1142    3.3339    1.3550 H   0  0  0  0  0  0  0  0  0  0  0  0
    3.4878    3.1630    0.6678 H   0  0  0  0  0  0  0  0  0  0  0  0
    6.1308    2.2844   -0.6041 H   0  0  0  0  0  0  0  0  0  0  0  0
    4.8701    3.3132   -1.3156 H   0  0  0  0  0  0  0  0  0  0  0  0
    3.4000    1.5312   -1.3432 H   0  0  0  0  0  0  0  0  0  0  0  0
   -2.0803    1.5887   -1.3888 H   0  0  0  0  0  0  0  0  0  0  0  0
   -3.6785    1.0574   -1.9346 H   0  0  0  0  0  0  0  0  0  0  0  0
   -5.2248   -0.1607   -0.0796 H   0  0  0  0  0  0  0  0  0  0  0  0
   -4.4875   -0.3204    1.5316 H   0  0  0  0  0  0  0  0  0  0  0  0
   -3.7381    3.4580   -1.4198 H   0  0  0  0  0  0  0  0  0  0  0  0
   -3.0872    3.1911    0.2030 H   0  0  0  0  0  0  0  0  0  0  0  0
   -4.4369    2.1271    1.8222 H   0  0  0  0  0  0  0  0  0  0  0  0
   -6.0727    1.6185    1.3819 H   0  0  0  0  0  0  0  0  0  0  0  0
   -0.6113    0.5039    0.0484 H   0  0  0  0  0  0  0  0  0  0  0  0
   -0.1527   -3.7966   -0.0975 H   0  0  0  0  0  0  0  0  0  0  0  0
   -2.6158   -3.9617   -0.1298 H   0  0  0  0  0  0  0  0  0  0  0  0
  1  6  1  0  0  0  0
  1 12  1  0  0  0  0
  2 15  1  0  0  0  0
  2 16  1  0  0  0  0
  3  8  1  0  0  0  0
  3 11  1  0  0  0  0
  3 30  1  0  0  0  0
  4 13  1  0  0  0  0
  4 14  1  0  0  0  0
  4 17  1  0  0  0  0
  5 12  2  0  0  0  0
  5 18  1  0  0  0  0
  6 18  2  0  0  0  0
  7 17  2  0  0  0  0
  7 22  1  0  0  0  0
  8  9  1  0  0  0  0
  8 12  1  0  0  0  0
  8 23  1  0  0  0  0
  9 10  1  0  0  0  0
  9 24  1  0  0  0  0
  9 25  1  0  0  0  0
 10 11  1  0  0  0  0
 10 26  1  0  0  0  0
 10 27  1  0  0  0  0
 11 28  1  0  0  0  0
 11 29  1  0  0  0  0
 13 15  1  0  0  0  0
 13 31  1  0  0  0  0
 13 32  1  0  0  0  0
 14 16  1  0  0  0  0
 14 33  1  0  0  0  0
 14 34  1  0  0  0  0
 15 35  1  0  0  0  0
 15 36  1  0  0  0  0
 16 37  1  0  0  0  0
 16 38  1  0  0  0  0
 17 20  1  0  0  0  0
 18 19  1  0  0  0  0
 19 20  2  0  0  0  0
 19 21  1  0  0  0  0
 20 39  1  0  0  0  0
 21 22  2  0  0  0  0
 21 40  1  0  0  0  0
 22 41  1  0  0  0  0
M  END
> <PUBCHEM_COMPOUND_CID>
45783306

> <PUBCHEM_CONFORMER_RMSD>
0.8

> <PUBCHEM_CONFORMER_DIVERSEORDER>
1
9
20
23
26
17
18
12
8
15
10
24
6
25
21
11
16
13
2
4
19
22
7
27
14
5
3

> <PUBCHEM_MMFF94_PARTIAL_CHARGES>
24
1 -0.02
11 0.27
12 0.3
13 0.37
14 0.37
15 0.28
16 0.28
17 0.41
18 0.46
19 0.05
2 -0.56
20 -0.15
21 -0.15
22 0.16
3 -0.9
30 0.36
39 0.15
4 -0.84
40 0.15
41 0.15
5 -0.57
6 -0.41
7 -0.62
8 0.45

> <PUBCHEM_EFFECTIVE_ROTOR_COUNT>
5.2

> <PUBCHEM_PHARMACOPHORE_FEATURES>
9
1 2 acceptor
1 3 cation
1 3 donor
3 4 7 17 cation
3 5 6 18 cation
5 1 5 6 12 18 rings
5 3 8 9 10 11 rings
6 2 4 13 14 15 16 rings
6 7 17 19 20 21 22 rings

> <PUBCHEM_HEAVY_ATOM_COUNT>
22

> <PUBCHEM_ATOM_DEF_STEREO_COUNT>
1

> <PUBCHEM_ATOM_UDEF_STEREO_COUNT>
0

> <PUBCHEM_BOND_DEF_STEREO_COUNT>
0

> <PUBCHEM_BOND_UDEF_STEREO_COUNT>
0

> <PUBCHEM_ISOTOPIC_ATOM_COUNT>
0

> <PUBCHEM_COMPONENT_COUNT>
1

> <PUBCHEM_CACTVS_TAUTO_COUNT>
1

> <PUBCHEM_CONFORMER_ID>
02BA990A00000001

> <PUBCHEM_MMFF94_ENERGY>
52.1557

> <PUBCHEM_FEATURE_SELFOVERLAP>
45.672

> <PUBCHEM_SHAPE_FINGERPRINT>
10498660 4 18272374221753211632
10615611 76 17387423547816058036
10670039 82 18190749820229119804
11405975 8 18334852806049848706
11595378 159 16732976492827558828
11796584 16 12175323748854564173
12107183 9 18190726571602847106
12173636 292 18410288142299106623
12390115 104 18270133395285379915
12769317 202 18271517615984663272
12978246 48 18334579052891930356
13590594 115 16395508586004021435
13878862 14 18118383086633847405
13965767 371 18040986311776628822
14251764 38 18123187076574956616
14251764 75 18341903935411518033
14468879 13 18333456447334923163
14790565 3 18269843008531741777
14848178 5 8574714576654991516
14848178 96 18341045242246256240
14950920 106 16733253578215961040
15342168 16 18410576158710955741
16760501 71 18410300220258735257
1768 210 18128232649382494157
17810953 82 18337393734065809924
17834072 32 18411419505303667797
17868525 174 18118110374007527330
17959699 21 18412827988568222122
193927 3 8718827612925644072
20286276 3 18410296912881378582
20645477 56 18408325466930377839
20715895 44 18267012852194458040
21302155 148 18334300893613894717
21315763 87 12829493700526452468
21315764 268 18188768319491504189
21734292 116 18410855438775411185
23227448 37 18411981398943028421
23559900 14 18130223758056778794
245318 6 17460895130802968316
283562 15 18265044916024509819
2838139 119 18342167864982009316
350125 39 18340771554725332531
5104073 3 18333729134988375090
633830 44 18128534864993128103
636775 72 17763464316235932120
7064713 232 18334574680920658788
7808743 9 18337670918470067928
7970288 3 8718243734035134473
960060 61 12823294615577654760

> <PUBCHEM_SHAPE_MULTIPOLES>
416.11
12.26
3.89
0.91
3.41
0.27
-0.05
-12.1
-1.07
-1.17
0.23
0.19
-0.5
0.16

> <PUBCHEM_SHAPE_SELFOVERLAP>
896.537

> <PUBCHEM_SHAPE_VOLUME>
229.4

> <PUBCHEM_COORDINATE_TYPE>
2
5
10

$$$$
