11885228
  -OEChem-12032416113D

 58 62  0     1  0  0  0  0  0999 V2000
    4.9658    2.1982   -0.1621 S   0  0  0  0  0  0  0  0  0  0  0  0
   -1.3591   -0.8534    1.6433 O   0  0  0  0  0  0  0  0  0  0  0  0
    3.5396    0.3994    2.3464 O   0  0  0  0  0  0  0  0  0  0  0  0
    0.3474   -1.3945    0.1484 N   0  0  0  0  0  0  0  0  0  0  0  0
    3.4598   -0.9391    0.4292 N   0  0  0  0  0  0  0  0  0  0  0  0
   -4.2783   -1.6716   -0.0108 N   0  0  0  0  0  0  0  0  0  0  0  0
    2.2040   -3.0647    0.7230 C   0  0  2  0  0  0  0  0  0  0  0  0
    2.2031   -1.9364   -1.4654 C   0  0  2  0  0  0  0  0  0  0  0  0
    2.2635   -3.3017   -0.7823 C   0  0  0  0  0  0  0  0  0  0  0  0
    0.8532   -2.4244    1.0681 C   0  0  0  0  0  0  0  0  0  0  0  0
    3.3908   -2.1948    1.1762 C   0  0  0  0  0  0  0  0  0  0  0  0
    3.4176   -1.0884   -1.0348 C   0  0  0  0  0  0  0  0  0  0  0  0
    0.9231   -1.2044   -1.1104 C   0  0  0  0  0  0  0  0  0  0  0  0
    0.3705   -0.3459   -1.9823 C   0  0  0  0  0  0  0  0  0  0  0  0
   -0.8021   -0.6902    0.5562 C   0  0  0  0  0  0  0  0  0  0  0  0
    3.5043    0.2723    1.1235 C   0  0  0  0  0  0  0  0  0  0  0  0
   -1.3703    0.2995   -0.4246 C   0  0  0  0  0  0  0  0  0  0  0  0
   -0.7906    0.4195   -1.6282 C   0  0  0  0  0  0  0  0  0  0  0  0
   -2.5291    1.1384   -0.0762 C   0  0  0  0  0  0  0  0  0  0  0  0
    3.4831    1.5148    0.3441 C   0  0  0  0  0  0  0  0  0  0  0  0
   -3.8356    0.7214   -0.3399 C   0  0  0  0  0  0  0  0  0  0  0  0
   -2.3058    2.3762    0.5309 C   0  0  0  0  0  0  0  0  0  0  0  0
    2.3991    2.2531   -0.0637 C   0  0  0  0  0  0  0  0  0  0  0  0
   -4.1156   -0.5961   -0.9885 C   0  0  0  0  0  0  0  0  0  0  0  0
   -4.9135    1.5382    0.0018 C   0  0  0  0  0  0  0  0  0  0  0  0
    2.7907    3.4035   -0.8072 C   0  0  0  0  0  0  0  0  0  0  0  0
   -3.3837    3.1930    0.8724 C   0  0  0  0  0  0  0  0  0  0  0  0
    4.1592    3.4954   -0.9357 C   0  0  0  0  0  0  0  0  0  0  0  0
   -4.6876    2.7741    0.6079 C   0  0  0  0  0  0  0  0  0  0  0  0
   -4.5499   -2.9397   -0.6866 C   0  0  0  0  0  0  0  0  0  0  0  0
   -5.3536   -1.3514    0.9271 C   0  0  0  0  0  0  0  0  0  0  0  0
    2.2760   -4.0243    1.2495 H   0  0  0  0  0  0  0  0  0  0  0  0
    2.2548   -2.0926   -2.5507 H   0  0  0  0  0  0  0  0  0  0  0  0
    1.4297   -3.9368   -1.1069 H   0  0  0  0  0  0  0  0  0  0  0  0
    3.1895   -3.8243   -1.0512 H   0  0  0  0  0  0  0  0  0  0  0  0
    0.0854   -3.2102    1.0807 H   0  0  0  0  0  0  0  0  0  0  0  0
    0.8748   -2.0078    2.0829 H   0  0  0  0  0  0  0  0  0  0  0  0
    3.3299   -2.0033    2.2527 H   0  0  0  0  0  0  0  0  0  0  0  0
    4.3336   -2.7252    0.9952 H   0  0  0  0  0  0  0  0  0  0  0  0
    4.3485   -1.5881   -1.3298 H   0  0  0  0  0  0  0  0  0  0  0  0
    3.4024   -0.1211   -1.5422 H   0  0  0  0  0  0  0  0  0  0  0  0
    0.8067   -0.1691   -2.9599 H   0  0  0  0  0  0  0  0  0  0  0  0
   -1.1594    1.1213   -2.3704 H   0  0  0  0  0  0  0  0  0  0  0  0
   -1.2960    2.7185    0.7453 H   0  0  0  0  0  0  0  0  0  0  0  0
    1.3738    1.9925    0.1630 H   0  0  0  0  0  0  0  0  0  0  0  0
   -5.0180   -0.5020   -1.6112 H   0  0  0  0  0  0  0  0  0  0  0  0
   -3.3238   -0.8510   -1.7023 H   0  0  0  0  0  0  0  0  0  0  0  0
   -5.9366    1.2394   -0.2099 H   0  0  0  0  0  0  0  0  0  0  0  0
    2.1035    4.1277   -1.2249 H   0  0  0  0  0  0  0  0  0  0  0  0
   -3.2077    4.1555    1.3438 H   0  0  0  0  0  0  0  0  0  0  0  0
    4.7237    4.2625   -1.4467 H   0  0  0  0  0  0  0  0  0  0  0  0
   -5.5265    3.4118    0.8706 H   0  0  0  0  0  0  0  0  0  0  0  0
   -3.7306   -3.1960   -1.3678 H   0  0  0  0  0  0  0  0  0  0  0  0
   -5.4822   -2.9118   -1.2623 H   0  0  0  0  0  0  0  0  0  0  0  0
   -4.6173   -3.7571    0.0399 H   0  0  0  0  0  0  0  0  0  0  0  0
   -6.2953   -1.1012    0.4251 H   0  0  0  0  0  0  0  0  0  0  0  0
   -5.0748   -0.5530    1.6214 H   0  0  0  0  0  0  0  0  0  0  0  0
   -5.5541   -2.2157    1.5731 H   0  0  0  0  0  0  0  0  0  0  0  0
  1 20  1  0  0  0  0
  1 28  1  0  0  0  0
  2 15  2  0  0  0  0
  3 16  2  0  0  0  0
  4 10  1  0  0  0  0
  4 13  1  0  0  0  0
  4 15  1  0  0  0  0
  5 11  1  0  0  0  0
  5 12  1  0  0  0  0
  5 16  1  0  0  0  0
  6 24  1  0  0  0  0
  6 30  1  0  0  0  0
  6 31  1  0  0  0  0
  7  9  1  0  0  0  0
  7 10  1  0  0  0  0
  7 11  1  0  0  0  0
  7 32  1  0  0  0  0
  8  9  1  0  0  0  0
  8 12  1  0  0  0  0
  8 13  1  0  0  0  0
  8 33  1  0  0  0  0
  9 34  1  0  0  0  0
  9 35  1  0  0  0  0
 10 36  1  0  0  0  0
 10 37  1  0  0  0  0
 11 38  1  0  0  0  0
 11 39  1  0  0  0  0
 12 40  1  0  0  0  0
 12 41  1  0  0  0  0
 13 14  2  0  0  0  0
 14 18  1  0  0  0  0
 14 42  1  0  0  0  0
 15 17  1  0  0  0  0
 16 20  1  0  0  0  0
 17 18  2  0  0  0  0
 17 19  1  0  0  0  0
 18 43  1  0  0  0  0
 19 21  1  0  0  0  0
 19 22  2  0  0  0  0
 20 23  2  0  0  0  0
 21 24  1  0  0  0  0
 21 25  2  0  0  0  0
 22 27  1  0  0  0  0
 22 44  1  0  0  0  0
 23 26  1  0  0  0  0
 23 45  1  0  0  0  0
 24 46  1  0  0  0  0
 24 47  1  0  0  0  0
 25 29  1  0  0  0  0
 25 48  1  0  0  0  0
 26 28  2  0  0  0  0
 26 49  1  0  0  0  0
 27 29  2  0  0  0  0
 27 50  1  0  0  0  0
 28 51  1  0  0  0  0
 29 52  1  0  0  0  0
 30 53  1  0  0  0  0
 30 54  1  0  0  0  0
 30 55  1  0  0  0  0
 31 56  1  0  0  0  0
 31 57  1  0  0  0  0
 31 58  1  0  0  0  0
M  END
> <PUBCHEM_COMPOUND_CID>
11885228

> <PUBCHEM_CONFORMER_RMSD>
0.8

> <PUBCHEM_CONFORMER_DIVERSEORDER>
1
13
15
9
19
10
14
3
18
6
4
16
21
20
11
17
12
7
2
5
8

> <PUBCHEM_MMFF94_PARTIAL_CHARGES>
38
1 -0.08
10 0.3
11 0.3
12 0.3
13 -0.03
14 -0.15
15 0.62
16 0.71
17 -0.01
18 -0.15
19 0.03
2 -0.57
20 -0.05
21 -0.14
22 -0.15
23 -0.15
24 0.41
25 -0.15
26 -0.15
27 -0.15
28 -0.11
29 -0.15
3 -0.57
30 0.27
31 0.27
4 -0.47
42 0.15
43 0.15
44 0.15
45 0.15
48 0.15
49 0.15
5 -0.66
50 0.15
51 0.15
52 0.15
6 -0.81
8 0.14

> <PUBCHEM_EFFECTIVE_ROTOR_COUNT>
6

> <PUBCHEM_PHARMACOPHORE_FEATURES>
8
1 2 acceptor
1 3 acceptor
1 6 cation
5 1 20 23 26 28 rings
6 19 21 22 25 27 29 rings
6 4 13 14 15 17 18 rings
6 4 7 8 9 10 13 rings
6 5 7 8 9 11 12 rings

> <PUBCHEM_HEAVY_ATOM_COUNT>
31

> <PUBCHEM_ATOM_DEF_STEREO_COUNT>
2

> <PUBCHEM_ATOM_UDEF_STEREO_COUNT>
0

> <PUBCHEM_BOND_DEF_STEREO_COUNT>
0

> <PUBCHEM_BOND_UDEF_STEREO_COUNT>
0

> <PUBCHEM_ISOTOPIC_ATOM_COUNT>
0

> <PUBCHEM_COMPONENT_COUNT>
1

> <PUBCHEM_CACTVS_TAUTO_COUNT>
1

> <PUBCHEM_CONFORMER_ID>
00B55AAC00000001

> <PUBCHEM_MMFF94_ENERGY>
91.1228

> <PUBCHEM_FEATURE_SELFOVERLAP>
42.191

> <PUBCHEM_SHAPE_FINGERPRINT>
11405975 8 18269554932068509947
12422481 6 17693903364836494330
12633257 1 17968365763474644248
12788726 201 17761766673906453126
13224815 77 18411141307787930611
13583140 156 18189321378050736823
13782708 43 16444171046836212098
13965767 371 17699254739458047842
14251764 38 18409732858972896257
14289901 80 18413387627175996939
14787075 74 18193835079515079023
14849402 71 18334017173307745716
17349148 13 16950567653626079571
17492 89 18413109433618006807
17844677 252 18341056224804549707
19315092 285 17024560439531299721
20691752 17 17603305920935520188
21315764 371 16733260256873853377
21859007 373 17461433625840535445
21860390 5 18268993090263987484
23559900 14 18128259990985661895
249057 3 17982451499447926783
3493558 16 18340771446655480609
392239 28 18337112366668717907
474 4 18409727344187402284
5081480 168 17556057669181886540
5104073 3 18334867074073137321
5312544 6 18263359359849442516
6086070 43 17755275908632793093
6287921 2 18341331115126689478
9981440 41 18264773327418254624

> <PUBCHEM_SHAPE_MULTIPOLES>
615.13
11.01
4.57
1.54
7.53
1.04
-0.04
3.91
-1.21
-1.74
0.04
-0.78
-0.38
-1.29

> <PUBCHEM_SHAPE_SELFOVERLAP>
1334.127

> <PUBCHEM_SHAPE_VOLUME>
338.2

> <PUBCHEM_COORDINATE_TYPE>
2
5
10

$$$$
