7144217
  -OEChem-12032416233D

 58 62  0     1  0  0  0  0  0999 V2000
   -2.9134    5.6196   -0.4033 S   0  0  0  0  0  0  0  0  0  0  0  0
   -1.6971   -4.0591    2.2584 O   0  0  0  0  0  0  0  0  0  0  0  0
    2.3565   -2.8349   -0.8744 O   0  0  0  0  0  0  0  0  0  0  0  0
    3.4138   -0.8230    0.2324 O   0  0  0  0  0  0  0  0  0  0  0  0
    0.4375   -1.7578   -1.6189 N   0  0  0  0  0  0  0  0  0  0  0  0
   -1.8035   -2.4972    0.5162 N   0  0  0  0  0  0  0  0  0  0  0  0
   -1.5641   -3.2056   -1.9359 C   0  0  1  0  0  0  0  0  0  0  0  0
   -1.8600   -0.8327   -1.3673 C   0  0  2  0  0  0  0  0  0  0  0  0
   -2.4072   -1.9734   -2.2237 C   0  0  0  0  0  0  0  0  0  0  0  0
   -0.0880   -2.9507   -2.2827 C   0  0  0  0  0  0  0  0  0  0  0  0
   -1.7484   -3.5880   -0.4668 C   0  0  0  0  0  0  0  0  0  0  0  0
   -0.3935   -0.5548   -1.7590 C   0  0  0  0  0  0  0  0  0  0  0  0
   -1.9574   -1.1516    0.1271 C   0  0  0  0  0  0  0  0  0  0  0  0
   -2.1560   -0.1935    1.0696 C   0  0  0  0  0  0  0  0  0  0  0  0
   -1.8133   -2.8985    1.8640 C   0  0  0  0  0  0  0  0  0  0  0  0
    1.6757   -1.8112   -0.9796 C   0  0  0  0  0  0  0  0  0  0  0  0
   -2.1686   -0.5696    2.4706 C   0  0  0  0  0  0  0  0  0  0  0  0
   -1.9957   -1.8290    2.8711 C   0  0  0  0  0  0  0  0  0  0  0  0
   -2.3414    1.2290    0.7082 C   0  0  0  0  0  0  0  0  0  0  0  0
    2.1838   -0.5237   -0.3815 C   0  0  0  0  0  0  0  0  0  0  0  0
   -1.2333    2.0628    0.5958 C   0  0  0  0  0  0  0  0  0  0  0  0
   -3.6227    1.7236    0.4845 C   0  0  0  0  0  0  0  0  0  0  0  0
   -1.4079    3.4045    0.2565 C   0  0  0  0  0  0  0  0  0  0  0  0
   -3.7975    3.0653    0.1450 C   0  0  0  0  0  0  0  0  0  0  0  0
   -2.6900    3.9058    0.0309 C   0  0  0  0  0  0  0  0  0  0  0  0
    4.3347    0.1958    0.3335 C   0  0  0  0  0  0  0  0  0  0  0  0
    3.8925    1.5054    0.4459 C   0  0  0  0  0  0  0  0  0  0  0  0
    5.6884   -0.1060    0.3206 C   0  0  0  0  0  0  0  0  0  0  0  0
   -1.9601    5.7377   -1.9434 C   0  0  0  0  0  0  0  0  0  0  0  0
    4.8255    2.5373    0.5476 C   0  0  0  0  0  0  0  0  0  0  0  0
    6.6213    0.9261    0.4225 C   0  0  0  0  0  0  0  0  0  0  0  0
    6.1897    2.2477    0.5359 C   0  0  0  0  0  0  0  0  0  0  0  0
   -1.9099   -4.0415   -2.5566 H   0  0  0  0  0  0  0  0  0  0  0  0
   -2.4525    0.0560   -1.6115 H   0  0  0  0  0  0  0  0  0  0  0  0
   -2.3535   -1.7135   -3.2880 H   0  0  0  0  0  0  0  0  0  0  0  0
   -3.4632   -2.1616   -1.9923 H   0  0  0  0  0  0  0  0  0  0  0  0
    0.5161   -3.8303   -2.0365 H   0  0  0  0  0  0  0  0  0  0  0  0
    0.0169   -2.7830   -3.3618 H   0  0  0  0  0  0  0  0  0  0  0  0
   -2.7022   -4.1239   -0.3636 H   0  0  0  0  0  0  0  0  0  0  0  0
   -0.9716   -4.2992   -0.1581 H   0  0  0  0  0  0  0  0  0  0  0  0
   -0.3410   -0.2604   -2.8148 H   0  0  0  0  0  0  0  0  0  0  0  0
    0.0100    0.2799   -1.1873 H   0  0  0  0  0  0  0  0  0  0  0  0
   -2.3120    0.2116    3.2114 H   0  0  0  0  0  0  0  0  0  0  0  0
   -2.0009   -2.1000    3.9201 H   0  0  0  0  0  0  0  0  0  0  0  0
    1.4777   -0.1747    0.3783 H   0  0  0  0  0  0  0  0  0  0  0  0
    2.2935    0.1990   -1.1992 H   0  0  0  0  0  0  0  0  0  0  0  0
   -0.2288    1.6915    0.7807 H   0  0  0  0  0  0  0  0  0  0  0  0
   -4.4947    1.0799    0.5693 H   0  0  0  0  0  0  0  0  0  0  0  0
   -0.5309    4.0426    0.1825 H   0  0  0  0  0  0  0  0  0  0  0  0
   -4.8043    3.4378   -0.0275 H   0  0  0  0  0  0  0  0  0  0  0  0
    2.8397    1.7676    0.4832 H   0  0  0  0  0  0  0  0  0  0  0  0
    6.0270   -1.1340    0.2321 H   0  0  0  0  0  0  0  0  0  0  0  0
   -2.0931    6.7350   -2.3707 H   0  0  0  0  0  0  0  0  0  0  0  0
   -0.8952    5.5817   -1.7529 H   0  0  0  0  0  0  0  0  0  0  0  0
   -2.3129    4.9975   -2.6667 H   0  0  0  0  0  0  0  0  0  0  0  0
    4.4899    3.5660    0.6417 H   0  0  0  0  0  0  0  0  0  0  0  0
    7.6837    0.7006    0.4137 H   0  0  0  0  0  0  0  0  0  0  0  0
    6.9161    3.0510    0.6167 H   0  0  0  0  0  0  0  0  0  0  0  0
  1 25  1  0  0  0  0
  1 29  1  0  0  0  0
  2 15  2  0  0  0  0
  3 16  2  0  0  0  0
  4 20  1  0  0  0  0
  4 26  1  0  0  0  0
  5 10  1  0  0  0  0
  5 12  1  0  0  0  0
  5 16  1  0  0  0  0
  6 11  1  0  0  0  0
  6 13  1  0  0  0  0
  6 15  1  0  0  0  0
  7  9  1  0  0  0  0
  7 10  1  0  0  0  0
  7 11  1  0  0  0  0
  7 33  1  0  0  0  0
  8  9  1  0  0  0  0
  8 12  1  0  0  0  0
  8 13  1  0  0  0  0
  8 34  1  0  0  0  0
  9 35  1  0  0  0  0
  9 36  1  0  0  0  0
 10 37  1  0  0  0  0
 10 38  1  0  0  0  0
 11 39  1  0  0  0  0
 11 40  1  0  0  0  0
 12 41  1  0  0  0  0
 12 42  1  0  0  0  0
 13 14  2  0  0  0  0
 14 17  1  0  0  0  0
 14 19  1  0  0  0  0
 15 18  1  0  0  0  0
 16 20  1  0  0  0  0
 17 18  2  0  0  0  0
 17 43  1  0  0  0  0
 18 44  1  0  0  0  0
 19 21  2  0  0  0  0
 19 22  1  0  0  0  0
 20 45  1  0  0  0  0
 20 46  1  0  0  0  0
 21 23  1  0  0  0  0
 21 47  1  0  0  0  0
 22 24  2  0  0  0  0
 22 48  1  0  0  0  0
 23 25  2  0  0  0  0
 23 49  1  0  0  0  0
 24 25  1  0  0  0  0
 24 50  1  0  0  0  0
 26 27  2  0  0  0  0
 26 28  1  0  0  0  0
 27 30  1  0  0  0  0
 27 51  1  0  0  0  0
 28 31  2  0  0  0  0
 28 52  1  0  0  0  0
 29 53  1  0  0  0  0
 29 54  1  0  0  0  0
 29 55  1  0  0  0  0
 30 32  2  0  0  0  0
 30 56  1  0  0  0  0
 31 32  1  0  0  0  0
 31 57  1  0  0  0  0
 32 58  1  0  0  0  0
M  END
> <PUBCHEM_COMPOUND_CID>
7144217

> <PUBCHEM_CONFORMER_RMSD>
1

> <PUBCHEM_CONFORMER_DIVERSEORDER>
1
9
2
5
11
8
15
7
16
12
10
14
18
4
17
13
6
3

> <PUBCHEM_MMFF94_PARTIAL_CHARGES>
41
1 -0.33
10 0.3
11 0.3
12 0.3
13 -0.03
14 -0.03
15 0.62
16 0.57
17 -0.15
18 -0.14
19 0.03
2 -0.57
20 0.34
21 -0.15
22 -0.15
23 -0.15
24 -0.15
25 0.1
26 0.08
27 -0.15
28 -0.15
29 0.23
3 -0.57
30 -0.15
31 -0.15
32 -0.15
4 -0.36
43 0.15
44 0.15
47 0.15
48 0.15
49 0.15
5 -0.66
50 0.15
51 0.15
52 0.15
56 0.15
57 0.15
58 0.15
6 -0.47
8 0.14

> <PUBCHEM_EFFECTIVE_ROTOR_COUNT>
7

> <PUBCHEM_PHARMACOPHORE_FEATURES>
9
1 2 acceptor
1 29 hydrophobe
1 3 acceptor
1 4 acceptor
6 19 21 22 23 24 25 rings
6 26 27 28 30 31 32 rings
6 5 7 8 9 10 12 rings
6 6 13 14 15 17 18 rings
6 6 7 8 9 11 13 rings

> <PUBCHEM_HEAVY_ATOM_COUNT>
32

> <PUBCHEM_ATOM_DEF_STEREO_COUNT>
2

> <PUBCHEM_ATOM_UDEF_STEREO_COUNT>
0

> <PUBCHEM_BOND_DEF_STEREO_COUNT>
0

> <PUBCHEM_BOND_UDEF_STEREO_COUNT>
0

> <PUBCHEM_ISOTOPIC_ATOM_COUNT>
0

> <PUBCHEM_COMPONENT_COUNT>
1

> <PUBCHEM_CACTVS_TAUTO_COUNT>
1

> <PUBCHEM_CONFORMER_ID>
006D031900000001

> <PUBCHEM_MMFF94_ENERGY>
98.993

> <PUBCHEM_FEATURE_SELFOVERLAP>
47.254

> <PUBCHEM_SHAPE_FINGERPRINT>
10483366 6 18057866113413353389
10653451 467 18411146861819357913
10670039 82 18057048119934006764
10871710 139 18128812121989927726
11370993 144 18187645778608036666
11582403 64 17904202525611872735
12107183 9 18196922281181739770
12156800 1 16981469406423318855
12788726 201 18266156453063829179
14468879 13 18341616958127312363
14950920 106 17968373554888041778
15219462 58 18043832917100782163
15264996 74 17916566748340532332
15513586 35 17980770647065227640
16067690 210 18046319059099134648
16993438 75 18412820287940527360
17974551 9 17462022976350925906
18681886 176 16830085098290301607
20101258 96 18124032592146771920
21304303 64 18200307857745714199
21475661 188 17834675993828234332
21857420 4 9896087893997997120
21927370 108 17693943303595889790
238 59 17483120345287227927
376196 1 17978229357448644477
469060 322 17911805978861667082
50677037 204 17477204303290765128
508706 21 18342742935997784796
5109719 28 17977675204016566329
6036956 94 18264486359295326404
6608658 132 17979359982421263812
7288768 16 18262235512820740877
9981440 41 18342737373324182826

> <PUBCHEM_SHAPE_MULTIPOLES>
634.82
9.99
7.35
2.29
24.93
7.41
0.33
10.15
2.46
-8.71
-2.24
-2.15
-2.38
2.01

> <PUBCHEM_SHAPE_SELFOVERLAP>
1373.326

> <PUBCHEM_SHAPE_VOLUME>
348.7

> <PUBCHEM_COORDINATE_TYPE>
2
5
10

$$$$
