7051361
  -OEChem-12032416393D

 51 54  0     1  0  0  0  0  0999 V2000
    1.6440   -1.9043   -0.9708 S   0  0  0  0  0  0  0  0  0  0  0  0
    5.8150    2.6345    0.7059 F   0  0  0  0  0  0  0  0  0  0  0  0
    4.2891    2.9466   -0.8035 F   0  0  0  0  0  0  0  0  0  0  0  0
    3.7175    2.6809    1.2777 F   0  0  0  0  0  0  0  0  0  0  0  0
   -1.3909   -2.6353   -0.9909 O   0  0  0  0  0  0  0  0  0  0  0  0
   -3.5419    2.5564   -2.5557 O   0  0  0  0  0  0  0  0  0  0  0  0
    1.9500   -3.1543   -1.6405 O   0  0  0  0  0  0  0  0  0  0  0  0
    0.8910   -0.8722   -1.6581 O   0  0  0  0  0  0  0  0  0  0  0  0
   -4.0026    1.6326   -0.4739 N   0  0  0  0  0  0  0  0  0  0  0  0
   -2.6457   -1.1511    0.3179 N   0  0  0  0  0  0  0  0  0  0  0  0
    0.9339   -2.2218    0.5326 N   0  0  0  0  0  0  0  0  0  0  0  0
   -5.0956   -0.5922   -0.1645 C   0  0  1  0  0  0  0  0  0  0  0  0
   -3.9503    0.4788    1.7303 C   0  0  2  0  0  0  0  0  0  0  0  0
   -5.1852   -0.3275    1.3335 C   0  0  0  0  0  0  0  0  0  0  0  0
   -5.0573    0.7330   -0.9453 C   0  0  0  0  0  0  0  0  0  0  0  0
   -3.8630   -1.4606   -0.4424 C   0  0  0  0  0  0  0  0  0  0  0  0
   -3.9511    1.8267    0.9828 C   0  0  0  0  0  0  0  0  0  0  0  0
   -2.6755   -0.2826    1.4173 C   0  0  0  0  0  0  0  0  0  0  0  0
   -1.5767   -0.1013    2.1726 C   0  0  0  0  0  0  0  0  0  0  0  0
   -1.4755   -1.8489   -0.0484 C   0  0  0  0  0  0  0  0  0  0  0  0
   -3.1965    2.2940   -1.4006 C   0  0  0  0  0  0  0  0  0  0  0  0
   -0.2911   -1.5897    0.8082 C   0  0  0  0  0  0  0  0  0  0  0  0
   -0.3441   -0.7728    1.8607 C   0  0  0  0  0  0  0  0  0  0  0  0
   -1.8194    2.6939   -0.9345 C   0  0  0  0  0  0  0  0  0  0  0  0
    3.1800   -1.1883   -0.4643 C   0  0  0  0  0  0  0  0  0  0  0  0
    3.2575    0.1811   -0.2811 C   0  0  0  0  0  0  0  0  0  0  0  0
    4.2744   -2.0105   -0.2623 C   0  0  0  0  0  0  0  0  0  0  0  0
    4.4690    0.7464    0.1171 C   0  0  0  0  0  0  0  0  0  0  0  0
    5.4857   -1.4451    0.1360 C   0  0  0  0  0  0  0  0  0  0  0  0
    5.5830   -0.0668    0.3257 C   0  0  0  0  0  0  0  0  0  0  0  0
    4.5723    2.2206    0.3183 C   0  0  0  0  0  0  0  0  0  0  0  0
   -5.9847   -1.1439   -0.4942 H   0  0  0  0  0  0  0  0  0  0  0  0
   -4.0054    0.6809    2.8079 H   0  0  0  0  0  0  0  0  0  0  0  0
   -5.2302   -1.2714    1.8912 H   0  0  0  0  0  0  0  0  0  0  0  0
   -6.0997    0.2297    1.5700 H   0  0  0  0  0  0  0  0  0  0  0  0
   -4.9342    0.5397   -2.0169 H   0  0  0  0  0  0  0  0  0  0  0  0
   -6.0070    1.2673   -0.8199 H   0  0  0  0  0  0  0  0  0  0  0  0
   -3.6188   -1.4526   -1.5122 H   0  0  0  0  0  0  0  0  0  0  0  0
   -4.1063   -2.5035   -0.1972 H   0  0  0  0  0  0  0  0  0  0  0  0
   -3.0869    2.4360    1.2630 H   0  0  0  0  0  0  0  0  0  0  0  0
   -4.8433    2.4046    1.2543 H   0  0  0  0  0  0  0  0  0  0  0  0
   -1.5758    0.5746    3.0213 H   0  0  0  0  0  0  0  0  0  0  0  0
    0.5123   -0.5752    2.4967 H   0  0  0  0  0  0  0  0  0  0  0  0
   -1.8802    3.6241   -0.3640 H   0  0  0  0  0  0  0  0  0  0  0  0
   -1.1736    2.8527   -1.8033 H   0  0  0  0  0  0  0  0  0  0  0  0
   -1.3721    1.9074   -0.3224 H   0  0  0  0  0  0  0  0  0  0  0  0
    1.5862   -2.1934    1.3291 H   0  0  0  0  0  0  0  0  0  0  0  0
    2.3936    0.8217   -0.4335 H   0  0  0  0  0  0  0  0  0  0  0  0
    4.2166   -3.0860   -0.3976 H   0  0  0  0  0  0  0  0  0  0  0  0
    6.3527   -2.0784    0.3001 H   0  0  0  0  0  0  0  0  0  0  0  0
    6.5349    0.3550    0.6363 H   0  0  0  0  0  0  0  0  0  0  0  0
  1  7  2  0  0  0  0
  1  8  2  0  0  0  0
  1 11  1  0  0  0  0
  1 25  1  0  0  0  0
  2 31  1  0  0  0  0
  3 31  1  0  0  0  0
  4 31  1  0  0  0  0
  5 20  2  0  0  0  0
  6 21  2  0  0  0  0
  9 15  1  0  0  0  0
  9 17  1  0  0  0  0
  9 21  1  0  0  0  0
 10 16  1  0  0  0  0
 10 18  1  0  0  0  0
 10 20  1  0  0  0  0
 11 22  1  0  0  0  0
 11 47  1  0  0  0  0
 12 14  1  0  0  0  0
 12 15  1  0  0  0  0
 12 16  1  0  0  0  0
 12 32  1  0  0  0  0
 13 14  1  0  0  0  0
 13 17  1  0  0  0  0
 13 18  1  0  0  0  0
 13 33  1  0  0  0  0
 14 34  1  0  0  0  0
 14 35  1  0  0  0  0
 15 36  1  0  0  0  0
 15 37  1  0  0  0  0
 16 38  1  0  0  0  0
 16 39  1  0  0  0  0
 17 40  1  0  0  0  0
 17 41  1  0  0  0  0
 18 19  2  0  0  0  0
 19 23  1  0  0  0  0
 19 42  1  0  0  0  0
 20 22  1  0  0  0  0
 21 24  1  0  0  0  0
 22 23  2  0  0  0  0
 23 43  1  0  0  0  0
 24 44  1  0  0  0  0
 24 45  1  0  0  0  0
 24 46  1  0  0  0  0
 25 26  1  0  0  0  0
 25 27  2  0  0  0  0
 26 28  2  0  0  0  0
 26 48  1  0  0  0  0
 27 29  1  0  0  0  0
 27 49  1  0  0  0  0
 28 30  1  0  0  0  0
 28 31  1  0  0  0  0
 29 30  2  0  0  0  0
 29 50  1  0  0  0  0
 30 51  1  0  0  0  0
M  END
> <PUBCHEM_COMPOUND_CID>
7051361

> <PUBCHEM_CONFORMER_RMSD>
0.8

> <PUBCHEM_CONFORMER_DIVERSEORDER>
1
18
5
22
11
16
13
27
4
7
12
32
3
8
20
17
21
26
14
24
33
10
15
30
23
2
9
31
28
25
19
6
29

> <PUBCHEM_MMFF94_PARTIAL_CHARGES>
36
1 1.45
10 -0.47
11 -0.75
13 0.14
15 0.3
16 0.3
17 0.3
18 -0.03
19 -0.15
2 -0.34
20 0.62
21 0.57
22 0.21
23 -0.15
24 0.06
25 -0.01
26 -0.15
27 -0.15
28 -0.14
29 -0.15
3 -0.34
30 -0.15
31 1.16
4 -0.34
42 0.15
43 0.15
47 0.42
48 0.15
49 0.15
5 -0.57
50 0.15
51 0.15
6 -0.57
7 -0.65
8 -0.65
9 -0.66

> <PUBCHEM_EFFECTIVE_ROTOR_COUNT>
6

> <PUBCHEM_PHARMACOPHORE_FEATURES>
9
1 11 donor
1 5 acceptor
1 6 acceptor
1 7 acceptor
1 8 acceptor
6 10 12 13 14 16 18 rings
6 10 18 19 20 22 23 rings
6 25 26 27 28 29 30 rings
6 9 12 13 14 15 17 rings

> <PUBCHEM_HEAVY_ATOM_COUNT>
31

> <PUBCHEM_ATOM_DEF_STEREO_COUNT>
2

> <PUBCHEM_ATOM_UDEF_STEREO_COUNT>
0

> <PUBCHEM_BOND_DEF_STEREO_COUNT>
0

> <PUBCHEM_BOND_UDEF_STEREO_COUNT>
0

> <PUBCHEM_ISOTOPIC_ATOM_COUNT>
0

> <PUBCHEM_COMPONENT_COUNT>
1

> <PUBCHEM_CACTVS_TAUTO_COUNT>
1

> <PUBCHEM_CONFORMER_ID>
006B986100000001

> <PUBCHEM_MMFF94_ENERGY>
68.5482

> <PUBCHEM_FEATURE_SELFOVERLAP>
47.257

> <PUBCHEM_SHAPE_FINGERPRINT>
10763959 59 18410018698295515918
11135609 149 17270611157956799990
11595378 159 17313376812277889928
12128747 34 17459748104173262698
12166972 35 17917154888704386418
12422481 6 18115327613051645009
13383661 66 12030636960344838221
13402501 40 18334857216469636352
13583140 156 18261404299268800770
14251757 17 18265331716079555401
14251764 38 18336268946629427932
14739800 52 17604697855817820273
15183329 4 18343866619427072896
15463212 79 18334008415437718371
16067690 210 17240472620115088932
17349148 13 17417532406616633082
20511986 3 18201708601051763922
20715895 44 18200881643014945122
20764821 26 18410303488444289956
21033648 144 18339363067123801326
21033648 29 17676488358518854658
21315764 268 18335137579054559558
21623110 236 18342182167766670825
22950370 63 7853575699428862410
23227448 37 18342177807805192079
23559900 14 17488753268190723974
2838139 119 18411416172408922669
328310 1195 18339356358263286500
345986 75 13262671552274820526
392239 28 18336267834069185997
474 4 18343310275287022050
5081480 168 17056702300032496606
508706 21 17676490514656091461
6086070 43 18191290590581267590
7237137 82 17774154742568028287
9981440 41 17168712904213444595

> <PUBCHEM_SHAPE_MULTIPOLES>
581.57
13.65
3.48
1.78
8.22
1.63
0.02
5.6
0.71
2.33
-1.23
-1.7
0.34
2.06

> <PUBCHEM_SHAPE_SELFOVERLAP>
1252.937

> <PUBCHEM_SHAPE_VOLUME>
322.5

> <PUBCHEM_COORDINATE_TYPE>
2
5
10

$$$$
