7049274
  -OEChem-12032416113D

 43 44  0     1  0  0  0  0  0999 V2000
   -6.1911    0.2225    0.3510 S   0  0  0  0  0  0  0  0  0  0  0  0
   -0.7995   -1.2279   -1.9650 O   0  0  0  0  0  0  0  0  0  0  0  0
    0.4660   -3.4858    0.6202 O   0  0  0  0  0  0  0  0  0  0  0  0
    2.2928    1.1252    1.9224 O   0  0  0  0  0  0  0  0  0  0  0  0
   -3.8497   -1.4811    0.9338 O   0  0  0  0  0  0  0  0  0  0  0  0
    5.7595   -0.1048   -1.3956 O   0  0  0  0  0  0  0  0  0  0  0  0
   -2.2364   -0.0748    0.0990 N   0  0  0  0  0  0  0  0  0  0  0  0
    3.4479    0.5191   -0.0097 N   0  0  0  0  0  0  0  0  0  0  0  0
    6.9905    0.8443    0.2954 N   0  0  0  0  0  0  0  0  0  0  0  0
   -0.8274   -1.9291   -0.7200 C   0  0  2  0  0  0  0  0  0  0  0  0
   -1.1295   -0.9413    0.4231 C   0  0  1  0  0  0  0  0  0  0  0  0
    0.5229   -2.6276   -0.5174 C   0  0  1  0  0  0  0  0  0  0  0  0
    1.6772   -1.6224   -0.3628 C   0  0  0  0  0  0  0  0  0  0  0  0
    1.3065   -0.4079    0.4401 C   0  0  0  0  0  0  0  0  0  0  0  0
    0.0544   -0.0952    0.8064 C   0  0  0  0  0  0  0  0  0  0  0  0
    2.3824    0.4884    0.8732 C   0  0  0  0  0  0  0  0  0  0  0  0
   -3.5573   -0.4166    0.3860 C   0  0  0  0  0  0  0  0  0  0  0  0
    4.6248    1.3310    0.2010 C   0  0  2  0  0  0  0  0  0  0  0  0
   -4.5708    0.5847    0.0249 C   0  0  0  0  0  0  0  0  0  0  0  0
    4.4614    2.7056   -0.4282 C   0  0  0  0  0  0  0  0  0  0  0  0
    5.8196    0.5992   -0.3904 C   0  0  0  0  0  0  0  0  0  0  0  0
   -4.3661    1.7903   -0.5500 C   0  0  0  0  0  0  0  0  0  0  0  0
   -5.6025    2.4719   -0.7416 C   0  0  0  0  0  0  0  0  0  0  0  0
   -6.6757    1.7322   -0.2956 C   0  0  0  0  0  0  0  0  0  0  0  0
   -1.6382   -2.6655   -0.7763 H   0  0  0  0  0  0  0  0  0  0  0  0
   -1.4005   -1.5186    1.3168 H   0  0  0  0  0  0  0  0  0  0  0  0
    0.7478   -3.2642   -1.3819 H   0  0  0  0  0  0  0  0  0  0  0  0
    2.5347   -2.1276    0.0982 H   0  0  0  0  0  0  0  0  0  0  0  0
    1.9646   -1.3040   -1.3723 H   0  0  0  0  0  0  0  0  0  0  0  0
   -0.1452    0.7856    1.4126 H   0  0  0  0  0  0  0  0  0  0  0  0
   -2.0235    0.7907   -0.3851 H   0  0  0  0  0  0  0  0  0  0  0  0
   -0.6350   -1.8821   -2.6654 H   0  0  0  0  0  0  0  0  0  0  0  0
   -0.2601   -4.1161    0.4754 H   0  0  0  0  0  0  0  0  0  0  0  0
    3.4111    0.0031   -0.8816 H   0  0  0  0  0  0  0  0  0  0  0  0
    4.7695    1.4470    1.2818 H   0  0  0  0  0  0  0  0  0  0  0  0
    4.3042    2.6298   -1.5102 H   0  0  0  0  0  0  0  0  0  0  0  0
    5.3532    3.3201   -0.2661 H   0  0  0  0  0  0  0  0  0  0  0  0
    3.6006    3.2330   -0.0036 H   0  0  0  0  0  0  0  0  0  0  0  0
   -3.4127    2.2128   -0.8370 H   0  0  0  0  0  0  0  0  0  0  0  0
   -5.7002    3.4549   -1.1839 H   0  0  0  0  0  0  0  0  0  0  0  0
   -7.7210    2.0063   -0.3186 H   0  0  0  0  0  0  0  0  0  0  0  0
    7.8655    0.4260   -0.0025 H   0  0  0  0  0  0  0  0  0  0  0  0
    7.0287    1.4447    1.1128 H   0  0  0  0  0  0  0  0  0  0  0  0
  1 19  1  0  0  0  0
  1 24  1  0  0  0  0
  2 10  1  0  0  0  0
  2 32  1  0  0  0  0
  3 12  1  0  0  0  0
  3 33  1  0  0  0  0
  4 16  2  0  0  0  0
  5 17  2  0  0  0  0
  6 21  2  0  0  0  0
  7 11  1  0  0  0  0
  7 17  1  0  0  0  0
  7 31  1  0  0  0  0
  8 16  1  0  0  0  0
  8 18  1  0  0  0  0
  8 34  1  0  0  0  0
  9 21  1  0  0  0  0
  9 42  1  0  0  0  0
  9 43  1  0  0  0  0
 10 11  1  0  0  0  0
 10 12  1  0  0  0  0
 10 25  1  0  0  0  0
 11 15  1  0  0  0  0
 11 26  1  0  0  0  0
 12 13  1  0  0  0  0
 12 27  1  0  0  0  0
 13 14  1  0  0  0  0
 13 28  1  0  0  0  0
 13 29  1  0  0  0  0
 14 15  2  0  0  0  0
 14 16  1  0  0  0  0
 15 30  1  0  0  0  0
 17 19  1  0  0  0  0
 18 20  1  0  0  0  0
 18 21  1  0  0  0  0
 18 35  1  0  0  0  0
 19 22  2  0  0  0  0
 20 36  1  0  0  0  0
 20 37  1  0  0  0  0
 20 38  1  0  0  0  0
 22 23  1  0  0  0  0
 22 39  1  0  0  0  0
 23 24  2  0  0  0  0
 23 40  1  0  0  0  0
 24 41  1  0  0  0  0
M  END
> <PUBCHEM_COMPOUND_CID>
7049274

> <PUBCHEM_CONFORMER_RMSD>
0.8

> <PUBCHEM_CONFORMER_DIVERSEORDER>
1
256
11
166
147
267
73
254
189
109
194
40
243
127
50
20
237
64
186
258
97
15
216
165
249
136
13
164
181
179
60
113
102
92
132
231
122
78
277
244
83
27
42
94
172
108
152
105
229
124
114
222
55
34
201
62
28
220
7
212
84
90
25
221
142
49
93
197
251
3
143
192
151
2
185
211
33
193
266
51
274
128
103
190
177
257
168
9
31
123
182
226
53
63
239
248
29
275
99
67
263
163
225
91
95
4
236
43
133
269
115
134
159
198
36
232
141
272
207
219
10
170
101
26
21
178
233
30
5
48
12
138
227
77
129
150
238
8
46
247
110
57
242
69
208
126
265
154
66
14
180
214
125
130
224
16
261
45
199
87
44
255
241
131
23
202
260
59
157
47
38
278
252
104
158
162
121
234
54
230
119
112
167
188
149
88
205
271
81
270
117
41
37
217
56
107
268
245
191
24
75
156
262
89
155
228
6
173
264
116
218
240
65
176
17
96
61
118
276
70
253
139
210
259
171
58
19
235
111
196
175
18
79
85
200
146
213
160
100
35
76
183
187
71
82
86
161
223
39
32
206
184
145
246
80
215
273
120
204
72
68
148
203
174
22
209
74
52
140
250
98
195
169
144
135
153
137
106

> <PUBCHEM_MMFF94_PARTIAL_CHARGES>
33
1 -0.08
10 0.28
11 0.44
12 0.28
13 0.14
14 -0.12
15 -0.29
16 0.62
17 0.71
18 0.36
19 -0.05
2 -0.68
21 0.57
22 -0.15
23 -0.15
24 -0.11
3 -0.68
30 0.15
31 0.37
32 0.4
33 0.4
34 0.37
39 0.15
4 -0.57
40 0.15
41 0.15
42 0.37
43 0.37
5 -0.57
6 -0.57
7 -0.73
8 -0.73
9 -0.8

> <PUBCHEM_EFFECTIVE_ROTOR_COUNT>
7.8

> <PUBCHEM_PHARMACOPHORE_FEATURES>
12
1 2 acceptor
1 2 donor
1 3 acceptor
1 3 donor
1 4 acceptor
1 5 acceptor
1 6 acceptor
1 7 donor
1 8 donor
1 9 donor
5 1 19 22 23 24 rings
6 10 11 12 13 14 15 rings

> <PUBCHEM_HEAVY_ATOM_COUNT>
24

> <PUBCHEM_ATOM_DEF_STEREO_COUNT>
4

> <PUBCHEM_ATOM_UDEF_STEREO_COUNT>
0

> <PUBCHEM_BOND_DEF_STEREO_COUNT>
0

> <PUBCHEM_BOND_UDEF_STEREO_COUNT>
0

> <PUBCHEM_ISOTOPIC_ATOM_COUNT>
0

> <PUBCHEM_COMPONENT_COUNT>
1

> <PUBCHEM_CACTVS_TAUTO_COUNT>
8

> <PUBCHEM_CONFORMER_ID>
006B903A00000001

> <PUBCHEM_MMFF94_ENERGY>
42.9856

> <PUBCHEM_FEATURE_SELFOVERLAP>
60.905

> <PUBCHEM_SHAPE_FINGERPRINT>
10 15 17894916201170806249
10670039 82 18201722799438853721
10763959 59 18334300868297609220
12293681 160 17917993875561973586
12403259 415 18129940195266273417
12596602 18 16660361468254404441
12623949 98 12613297726185253208
12633257 1 15791736342385602309
12730499 353 18412829058337085587
12769317 202 18343013372465628065
13257819 101 18334850589629998189
13685833 64 9583516516656259269
13740256 8 9583516521014439043
14251751 18 10303809891432728753
14341114 328 16660364800515678628
14790565 3 18335703900510465636
15183329 4 16415481545134224372
15927050 60 18410291427992058818
15961568 22 18186801340624516357
1601671 61 18334293162677919556
17980427 23 17458632254579355855
18335252 114 18340480088979991004
18335252 98 18409733963881843147
18608769 82 18340209695841732763
190975 80 11025813010468029389
19611394 137 17823432663750148465
19784866 170 18334013882866768805
20281389 69 18186518804178648041
20567600 70 9583509923855352580
20715895 44 18413109481310688996
21033648 29 18340760554702677824
21279426 13 18272943704457599518
21521239 73 16702304525154211654
21637258 2 12535343472155398913
21756936 100 18337664329958730130
21859007 373 18339629093367444912
22393880 68 17774708844972754479
23559900 14 18120372056530755147
2838139 119 18410005555025937021
293599 30 18412544323021059738
3009799 131 16989123162994183432
3411729 13 18261388897547563162
3545911 37 18413389835184611713
3759504 43 18335702796877833490
4058900 60 18336273344654593651
4325135 7 18412260658613198823
439807 62 11383820598601805965
5104073 3 18042130856590080729
56616090 163 18412827984273546859
59682541 35 8069741850856401116
59682541 52 16343705409130534292
59755656 215 18272373040109450468
59755656 520 18334570274041866519
636775 8 8790611450982583328
77188 2 17400074176049366251
7808743 9 18335979865439118281
9862886 166 10952047861966209877

> <PUBCHEM_SHAPE_MULTIPOLES>
453.47
16.45
2.85
1.14
0.22
0.96
-0.06
-13.79
-1.83
0.14
-0.43
-0.39
0.09
0.92

> <PUBCHEM_SHAPE_SELFOVERLAP>
937.274

> <PUBCHEM_SHAPE_VOLUME>
259.8

> <PUBCHEM_COORDINATE_TYPE>
2
5
10

$$$$
