7134303
  -OEChem-12032416123D

 66 70  0     1  0  0  0  0  0999 V2000
   -3.2049    4.5678    0.4291 S   0  0  0  0  0  0  0  0  0  0  0  0
    1.8991   -0.8483   -1.4399 O   0  0  0  0  0  0  0  0  0  0  0  0
    4.2476    0.0336    1.7777 O   0  0  0  0  0  0  0  0  0  0  0  0
    5.4998    2.7460    0.8035 O   0  0  0  0  0  0  0  0  0  0  0  0
   -2.5361    1.0597   -1.1048 O   0  0  0  0  0  0  0  0  0  0  0  0
    3.0629   -4.0460    0.6268 O   0  0  0  0  0  0  0  0  0  0  0  0
    2.8089    1.0248    0.2488 N   0  0  0  0  0  0  0  0  0  0  0  0
   -1.1109    2.6364   -0.2332 N   0  0  0  0  0  0  0  0  0  0  0  0
    1.1322   -2.1079    0.3614 N   0  0  0  0  0  0  0  0  0  0  0  0
   -3.4295   -3.5723   -1.1806 N   0  0  0  0  0  0  0  0  0  0  0  0
    2.4836   -4.8557   -1.4434 N   0  0  0  0  0  0  0  0  0  0  0  0
   -5.5856    4.0003   -0.1072 N   0  0  0  0  0  0  0  0  0  0  0  0
   -4.8352    4.9524    0.4237 N   0  0  0  0  0  0  0  0  0  0  0  0
    0.0852    1.8518   -0.4293 C   0  0  2  0  0  0  0  0  0  0  0  0
    1.6776    0.2016    0.6943 C   0  0  1  0  0  0  0  0  0  0  0  0
    0.3574    0.9649    0.7881 C   0  0  0  0  0  0  0  0  0  0  0  0
    1.2877    2.7541   -0.6945 C   0  0  0  0  0  0  0  0  0  0  0  0
    2.5618    1.9381   -0.8806 C   0  0  0  0  0  0  0  0  0  0  0  0
    1.5965   -0.9584   -0.2546 C   0  0  0  0  0  0  0  0  0  0  0  0
    4.0784    0.8062    0.8324 C   0  0  0  0  0  0  0  0  0  0  0  0
    0.9415   -3.3577   -0.3384 C   0  0  2  0  0  0  0  0  0  0  0  0
   -0.1547   -4.2203    0.2990 C   0  0  0  0  0  0  0  0  0  0  0  0
   -2.3737    2.1702   -0.5958 C   0  0  0  0  0  0  0  0  0  0  0  0
    5.2126    1.5341    0.2734 C   0  0  0  0  0  0  0  0  0  0  0  0
   -1.5416   -3.7671   -0.0918 C   0  0  0  0  0  0  0  0  0  0  0  0
    2.2747   -4.0911   -0.3146 C   0  0  0  0  0  0  0  0  0  0  0  0
   -3.4972    3.0713   -0.3026 C   0  0  0  0  0  0  0  0  0  0  0  0
   -2.3148   -2.8224    0.6005 C   0  0  0  0  0  0  0  0  0  0  0  0
    6.0835    1.2119   -0.7316 C   0  0  0  0  0  0  0  0  0  0  0  0
   -2.2234   -4.2201   -1.1736 C   0  0  0  0  0  0  0  0  0  0  0  0
   -3.5129   -2.7126   -0.1086 C   0  0  0  0  0  0  0  0  0  0  0  0
   -4.8200    2.9228   -0.5234 C   0  0  0  0  0  0  0  0  0  0  0  0
    6.9770    2.3049   -0.8321 C   0  0  0  0  0  0  0  0  0  0  0  0
   -2.1376   -2.0387    1.7580 C   0  0  0  0  0  0  0  0  0  0  0  0
    6.5800    3.2116    0.1229 C   0  0  0  0  0  0  0  0  0  0  0  0
   -4.5468   -1.8548    0.2836 C   0  0  0  0  0  0  0  0  0  0  0  0
   -3.1631   -1.1763    2.1622 C   0  0  0  0  0  0  0  0  0  0  0  0
   -4.3484   -1.0873    1.4348 C   0  0  0  0  0  0  0  0  0  0  0  0
   -5.5116    1.7727   -1.1396 C   0  0  0  0  0  0  0  0  0  0  0  0
   -0.0707    1.2115   -1.3067 H   0  0  0  0  0  0  0  0  0  0  0  0
    1.9053   -0.1897    1.6933 H   0  0  0  0  0  0  0  0  0  0  0  0
   -0.4776    0.2713    0.9356 H   0  0  0  0  0  0  0  0  0  0  0  0
    0.3882    1.6001    1.6844 H   0  0  0  0  0  0  0  0  0  0  0  0
    1.1109    3.3693   -1.5851 H   0  0  0  0  0  0  0  0  0  0  0  0
    1.4217    3.4501    0.1444 H   0  0  0  0  0  0  0  0  0  0  0  0
    2.5202    1.3606   -1.8079 H   0  0  0  0  0  0  0  0  0  0  0  0
    3.3952    2.6359   -0.9965 H   0  0  0  0  0  0  0  0  0  0  0  0
   -1.0293    3.5348    0.2345 H   0  0  0  0  0  0  0  0  0  0  0  0
    0.9729   -2.1001    1.3646 H   0  0  0  0  0  0  0  0  0  0  0  0
    0.6911   -3.1263   -1.3819 H   0  0  0  0  0  0  0  0  0  0  0  0
   -0.0375   -5.2662   -0.0161 H   0  0  0  0  0  0  0  0  0  0  0  0
   -0.0584   -4.2272    1.3925 H   0  0  0  0  0  0  0  0  0  0  0  0
    6.0823    0.3074   -1.3228 H   0  0  0  0  0  0  0  0  0  0  0  0
   -1.9782   -4.9372   -1.9446 H   0  0  0  0  0  0  0  0  0  0  0  0
   -4.1541   -3.7051   -1.8724 H   0  0  0  0  0  0  0  0  0  0  0  0
   -1.2231   -2.0967    2.3408 H   0  0  0  0  0  0  0  0  0  0  0  0
    7.8063    2.4178   -1.5153 H   0  0  0  0  0  0  0  0  0  0  0  0
    6.9412    4.1829    0.4278 H   0  0  0  0  0  0  0  0  0  0  0  0
    1.8124   -4.9016   -2.2033 H   0  0  0  0  0  0  0  0  0  0  0  0
    3.3288   -5.4069   -1.5494 H   0  0  0  0  0  0  0  0  0  0  0  0
   -5.4699   -1.7855   -0.2820 H   0  0  0  0  0  0  0  0  0  0  0  0
   -3.0317   -0.5691    3.0539 H   0  0  0  0  0  0  0  0  0  0  0  0
   -5.1316   -0.4112    1.7680 H   0  0  0  0  0  0  0  0  0  0  0  0
   -5.0344    1.4801   -2.0799 H   0  0  0  0  0  0  0  0  0  0  0  0
   -5.5103    0.9166   -0.4622 H   0  0  0  0  0  0  0  0  0  0  0  0
   -6.5550    2.0186   -1.3635 H   0  0  0  0  0  0  0  0  0  0  0  0
  1 13  1  0  0  0  0
  1 27  1  0  0  0  0
  2 19  2  0  0  0  0
  3 20  2  0  0  0  0
  4 24  1  0  0  0  0
  4 35  1  0  0  0  0
  5 23  2  0  0  0  0
  6 26  2  0  0  0  0
  7 15  1  0  0  0  0
  7 18  1  0  0  0  0
  7 20  1  0  0  0  0
  8 14  1  0  0  0  0
  8 23  1  0  0  0  0
  8 48  1  0  0  0  0
  9 19  1  0  0  0  0
  9 21  1  0  0  0  0
  9 49  1  0  0  0  0
 10 30  1  0  0  0  0
 10 31  1  0  0  0  0
 10 55  1  0  0  0  0
 11 26  1  0  0  0  0
 11 59  1  0  0  0  0
 11 60  1  0  0  0  0
 12 13  2  0  0  0  0
 12 32  1  0  0  0  0
 14 16  1  0  0  0  0
 14 17  1  0  0  0  0
 14 40  1  0  0  0  0
 15 16  1  0  0  0  0
 15 19  1  0  0  0  0
 15 41  1  0  0  0  0
 16 42  1  0  0  0  0
 16 43  1  0  0  0  0
 17 18  1  0  0  0  0
 17 44  1  0  0  0  0
 17 45  1  0  0  0  0
 18 46  1  0  0  0  0
 18 47  1  0  0  0  0
 20 24  1  0  0  0  0
 21 22  1  0  0  0  0
 21 26  1  0  0  0  0
 21 50  1  0  0  0  0
 22 25  1  0  0  0  0
 22 51  1  0  0  0  0
 22 52  1  0  0  0  0
 23 27  1  0  0  0  0
 24 29  2  0  0  0  0
 25 28  1  0  0  0  0
 25 30  2  0  0  0  0
 27 32  2  0  0  0  0
 28 31  1  0  0  0  0
 28 34  2  0  0  0  0
 29 33  1  0  0  0  0
 29 53  1  0  0  0  0
 30 54  1  0  0  0  0
 31 36  2  0  0  0  0
 32 39  1  0  0  0  0
 33 35  2  0  0  0  0
 33 57  1  0  0  0  0
 34 37  1  0  0  0  0
 34 56  1  0  0  0  0
 35 58  1  0  0  0  0
 36 38  1  0  0  0  0
 36 61  1  0  0  0  0
 37 38  2  0  0  0  0
 37 62  1  0  0  0  0
 38 63  1  0  0  0  0
 39 64  1  0  0  0  0
 39 65  1  0  0  0  0
 39 66  1  0  0  0  0
M  END
> <PUBCHEM_COMPOUND_CID>
7134303

> <PUBCHEM_CONFORMER_RMSD>
1.2

> <PUBCHEM_CONFORMER_DIVERSEORDER>
1
76
141
130
15
70
17
4
78
100
83
99
131
28
119
69
122
93
74
82
39
144
114
44
134
54
129
112
60
5
97
138
101
38
62
2
102
103
61
139
128
142
127
125
137
116
48
37
14
47
77
30
110
88
121
92
35
36
106
20
42
23
126
95
25
67
71
8
6
34
113
21
18
26
107
143
109
111
115
86
65
19
79
31
90
140
9
63
96
45
53
136
132
24
68
73
29
120
33
108
56
84
133
46
81
104
52
75
12
98
58
72
123
117
41
27
13
135
80
66
59
11
50
91
32
89
40
16
94
22
49
64
3
57
55
118
105
85
124
51
43
87
7
10

> <PUBCHEM_MMFF94_PARTIAL_CHARGES>
49
1 0.18
10 0.03
11 -0.8
12 -0.23
13 -0.22
14 0.3
15 0.36
18 0.3
19 0.57
2 -0.57
20 0.71
21 0.36
22 0.18
23 0.71
24 0.05
25 -0.18
26 0.57
27 -0.05
29 -0.15
3 -0.57
30 -0.3
31 -0.15
32 0.05
33 -0.15
34 -0.15
35 -0.01
36 -0.15
37 -0.15
38 -0.15
39 0.18
4 -0.28
48 0.37
49 0.37
5 -0.57
53 0.15
54 0.15
55 0.27
56 0.15
57 0.15
58 0.15
59 0.37
6 -0.57
60 0.37
61 0.15
62 0.15
63 0.15
7 -0.66
8 -0.73
9 -0.73

> <PUBCHEM_EFFECTIVE_ROTOR_COUNT>
12.2

> <PUBCHEM_PHARMACOPHORE_FEATURES>
15
1 10 cation
1 10 donor
1 11 donor
1 2 acceptor
1 3 acceptor
1 4 acceptor
1 5 acceptor
1 6 acceptor
1 8 donor
1 9 donor
5 1 12 13 27 32 rings
5 10 25 28 30 31 rings
5 4 24 29 33 35 rings
6 28 31 34 36 37 38 rings
6 7 14 15 16 17 18 rings

> <PUBCHEM_HEAVY_ATOM_COUNT>
39

> <PUBCHEM_ATOM_DEF_STEREO_COUNT>
3

> <PUBCHEM_ATOM_UDEF_STEREO_COUNT>
0

> <PUBCHEM_BOND_DEF_STEREO_COUNT>
0

> <PUBCHEM_BOND_UDEF_STEREO_COUNT>
0

> <PUBCHEM_ISOTOPIC_ATOM_COUNT>
0

> <PUBCHEM_COMPONENT_COUNT>
1

> <PUBCHEM_CACTVS_TAUTO_COUNT>
8

> <PUBCHEM_CONFORMER_ID>
006CDC5F00000001

> <PUBCHEM_MMFF94_ENERGY>
75.0308

> <PUBCHEM_FEATURE_SELFOVERLAP>
76.218

> <PUBCHEM_SHAPE_FINGERPRINT>
10675989 125 17761491392268224257
10816530 23 18338232665637714945
11513181 2 18343298124850903015
12522641 33 18337387142172056757
12788726 201 18262509432923598088
14117953 113 18195808694587477783
15276724 80 18123472945809464124
15400415 2 18338794490521389181
15439362 3 18121500150722910788
15538507 32 17835247740656108150
15927050 60 18340485573695159751
16993438 75 18336266842142802625
17980427 23 17240771721900839900
19311894 1 17760652864428169850
20764821 26 18337389323445503463
21033648 29 18271514416725236224
21133410 38 18270680854199275093
21796203 349 17611782232758789425
3388396 114 18269253790879546359
4403749 210 18265324187450824024
463206 1 16608577459761598857
5776283 40 18049457949900090886
653340 110 18339355365756868320

> <PUBCHEM_SHAPE_MULTIPOLES>
742.24
13.54
8.25
1.34
15.6
2.39
-0.31
-14.57
0.15
-7.02
1.47
-0.45
0.58
0.72

> <PUBCHEM_SHAPE_SELFOVERLAP>
1602.29

> <PUBCHEM_SHAPE_VOLUME>
409.8

> <PUBCHEM_COORDINATE_TYPE>
2
5
10

$$$$
