45783476
  -OEChem-12032416263D

 53 56  0     1  0  0  0  0  0999 V2000
   -0.6719   -2.8797    1.9194 F   0  0  0  0  0  0  0  0  0  0  0  0
   -0.6765   -4.1794   -0.4864 F   0  0  0  0  0  0  0  0  0  0  0  0
   -2.2238    0.8842   -2.0161 O   0  0  0  0  0  0  0  0  0  0  0  0
    7.5909   -0.6237    0.7098 O   0  0  0  0  0  0  0  0  0  0  0  0
   -4.0960    0.9405    0.9573 N   0  0  1  0  0  0  0  0  0  0  0  0
   -1.1786    1.4167   -0.1079 N   0  0  0  0  0  0  0  0  0  0  0  0
   -0.8633    0.6323   -2.2338 N   0  0  0  0  0  0  0  0  0  0  0  0
    3.3013    0.3065   -1.6317 N   0  0  0  0  0  0  0  0  0  0  0  0
    5.1838    0.5693   -0.1955 N   0  0  0  0  0  0  0  0  0  0  0  0
   -3.7132    1.6921   -0.2546 C   0  0  1  0  0  0  0  0  0  0  0  0
   -3.8494    3.1732    0.1444 C   0  0  0  0  0  0  0  0  0  0  0  0
   -4.3714    3.1535    1.5740 C   0  0  0  0  0  0  0  0  0  0  0  0
   -5.0279    1.7932    1.6954 C   0  0  0  0  0  0  0  0  0  0  0  0
   -4.6648   -0.3691    0.6653 C   0  0  0  0  0  0  0  0  0  0  0  0
   -2.3221    1.3432   -0.7409 C   0  0  0  0  0  0  0  0  0  0  0  0
   -3.5992   -1.3871    0.3572 C   0  0  0  0  0  0  0  0  0  0  0  0
   -2.6095   -1.6672    1.2994 C   0  0  0  0  0  0  0  0  0  0  0  0
   -3.6018   -2.0504   -0.8698 C   0  0  0  0  0  0  0  0  0  0  0  0
   -0.3131    0.9704   -1.0638 C   0  0  0  0  0  0  0  0  0  0  0  0
   -1.6223   -2.6107    1.0146 C   0  0  0  0  0  0  0  0  0  0  0  0
   -2.6145   -2.9937   -1.1547 C   0  0  0  0  0  0  0  0  0  0  0  0
    1.0968    0.8755   -0.8181 C   0  0  0  0  0  0  0  0  0  0  0  0
   -1.6248   -3.2739   -0.2126 C   0  0  0  0  0  0  0  0  0  0  0  0
    1.6361    1.2374    0.4114 C   0  0  0  0  0  0  0  0  0  0  0  0
    1.9644    0.4201   -1.7978 C   0  0  0  0  0  0  0  0  0  0  0  0
    3.0069    1.1344    0.6205 C   0  0  0  0  0  0  0  0  0  0  0  0
    3.7890    0.6675   -0.4235 C   0  0  0  0  0  0  0  0  0  0  0  0
    5.7886    0.9281    1.0459 C   0  0  0  0  0  0  0  0  0  0  0  0
    7.2944    0.7439    0.9628 C   0  0  0  0  0  0  0  0  0  0  0  0
    8.9918   -0.8468    0.6298 C   0  0  0  0  0  0  0  0  0  0  0  0
   -4.4275    1.5070   -1.0693 H   0  0  0  0  0  0  0  0  0  0  0  0
   -2.9145    3.7402    0.0791 H   0  0  0  0  0  0  0  0  0  0  0  0
   -4.5841    3.6633   -0.5061 H   0  0  0  0  0  0  0  0  0  0  0  0
   -5.0668    3.9744    1.7720 H   0  0  0  0  0  0  0  0  0  0  0  0
   -3.5339    3.2384    2.2776 H   0  0  0  0  0  0  0  0  0  0  0  0
   -6.0221    1.8076    1.2309 H   0  0  0  0  0  0  0  0  0  0  0  0
   -5.1275    1.4868    2.7413 H   0  0  0  0  0  0  0  0  0  0  0  0
   -5.4156   -0.3171   -0.1341 H   0  0  0  0  0  0  0  0  0  0  0  0
   -5.2003   -0.7481    1.5472 H   0  0  0  0  0  0  0  0  0  0  0  0
   -2.5964   -1.1623    2.2617 H   0  0  0  0  0  0  0  0  0  0  0  0
   -4.3652   -1.8407   -1.6140 H   0  0  0  0  0  0  0  0  0  0  0  0
   -2.6153   -3.5093   -2.1104 H   0  0  0  0  0  0  0  0  0  0  0  0
    1.0119    1.6016    1.2234 H   0  0  0  0  0  0  0  0  0  0  0  0
    1.6241    0.1176   -2.7838 H   0  0  0  0  0  0  0  0  0  0  0  0
    3.3935    1.4231    1.5907 H   0  0  0  0  0  0  0  0  0  0  0  0
    5.7442    0.2230   -0.9658 H   0  0  0  0  0  0  0  0  0  0  0  0
    5.5872    1.9765    1.2947 H   0  0  0  0  0  0  0  0  0  0  0  0
    5.4053    0.2880    1.8498 H   0  0  0  0  0  0  0  0  0  0  0  0
    7.7093    1.3629    0.1579 H   0  0  0  0  0  0  0  0  0  0  0  0
    7.7523    1.0476    1.9114 H   0  0  0  0  0  0  0  0  0  0  0  0
    9.4772   -0.5832    1.5745 H   0  0  0  0  0  0  0  0  0  0  0  0
    9.1605   -1.9095    0.4358 H   0  0  0  0  0  0  0  0  0  0  0  0
    9.4262   -0.2690   -0.1918 H   0  0  0  0  0  0  0  0  0  0  0  0
  1 20  1  0  0  0  0
  2 23  1  0  0  0  0
  3  7  1  0  0  0  0
  3 15  1  0  0  0  0
  4 29  1  0  0  0  0
  4 30  1  0  0  0  0
  5 10  1  0  0  0  0
  5 13  1  0  0  0  0
  5 14  1  0  0  0  0
  6 15  2  0  0  0  0
  6 19  1  0  0  0  0
  7 19  2  0  0  0  0
  8 25  1  0  0  0  0
  8 27  2  0  0  0  0
  9 27  1  0  0  0  0
  9 28  1  0  0  0  0
  9 46  1  0  0  0  0
 10 11  1  0  0  0  0
 10 15  1  0  0  0  0
 10 31  1  0  0  0  0
 11 12  1  0  0  0  0
 11 32  1  0  0  0  0
 11 33  1  0  0  0  0
 12 13  1  0  0  0  0
 12 34  1  0  0  0  0
 12 35  1  0  0  0  0
 13 36  1  0  0  0  0
 13 37  1  0  0  0  0
 14 16  1  0  0  0  0
 14 38  1  0  0  0  0
 14 39  1  0  0  0  0
 16 17  2  0  0  0  0
 16 18  1  0  0  0  0
 17 20  1  0  0  0  0
 17 40  1  0  0  0  0
 18 21  2  0  0  0  0
 18 41  1  0  0  0  0
 19 22  1  0  0  0  0
 20 23  2  0  0  0  0
 21 23  1  0  0  0  0
 21 42  1  0  0  0  0
 22 24  1  0  0  0  0
 22 25  2  0  0  0  0
 24 26  2  0  0  0  0
 24 43  1  0  0  0  0
 25 44  1  0  0  0  0
 26 27  1  0  0  0  0
 26 45  1  0  0  0  0
 28 29  1  0  0  0  0
 28 47  1  0  0  0  0
 28 48  1  0  0  0  0
 29 49  1  0  0  0  0
 29 50  1  0  0  0  0
 30 51  1  0  0  0  0
 30 52  1  0  0  0  0
 30 53  1  0  0  0  0
M  END
> <PUBCHEM_COMPOUND_CID>
45783476

> <PUBCHEM_CONFORMER_RMSD>
1

> <PUBCHEM_CONFORMER_DIVERSEORDER>
1
33
82
76
131
52
83
116
157
142
70
74
97
75
81
43
117
159
86
104
93
17
60
72
94
50
107
154
38
5
49
57
152
64
26
133
44
119
125
23
118
29
101
115
144
135
63
4
149
134
112
98
65
146
88
58
126
120
129
87
102
80
147
59
113
153
3
148
106
139
124
145
128
158
35
15
31
71
141
32
78
127
2
110
7
67
89
100
156
54
6
111
85
66
114
155
79
30
46
151
51
122
41
137
73
108
55
18
36
53
130
84
103
68
105
61
69
77
27
62
48
22
99
19
28
56
143
109
20
34
96
121
25
8
91
138
47
42
92
9
123
21
16
13
39
45
95
150
14
12
37
90
24
140
136
40
10
132
11

> <PUBCHEM_MMFF94_PARTIAL_CHARGES>
35
1 -0.19
10 0.45
13 0.27
14 0.41
15 0.3
16 -0.14
17 -0.15
18 -0.15
19 0.46
2 -0.19
20 0.19
21 -0.15
22 0.05
23 0.19
24 -0.15
25 0.16
26 -0.15
27 0.41
28 0.37
29 0.28
3 -0.02
30 0.28
4 -0.56
40 0.15
41 0.15
42 0.15
43 0.15
44 0.15
45 0.15
46 0.4
5 -0.81
6 -0.57
7 -0.41
8 -0.62
9 -0.87

> <PUBCHEM_EFFECTIVE_ROTOR_COUNT>
9

> <PUBCHEM_PHARMACOPHORE_FEATURES>
9
1 4 acceptor
1 5 cation
1 9 donor
3 6 7 19 cation
3 8 9 27 cation
5 3 6 7 15 19 rings
5 5 10 11 12 13 rings
6 16 17 18 20 21 23 rings
6 8 22 24 25 26 27 rings

> <PUBCHEM_HEAVY_ATOM_COUNT>
30

> <PUBCHEM_ATOM_DEF_STEREO_COUNT>
1

> <PUBCHEM_ATOM_UDEF_STEREO_COUNT>
0

> <PUBCHEM_BOND_DEF_STEREO_COUNT>
0

> <PUBCHEM_BOND_UDEF_STEREO_COUNT>
0

> <PUBCHEM_ISOTOPIC_ATOM_COUNT>
0

> <PUBCHEM_COMPONENT_COUNT>
1

> <PUBCHEM_CACTVS_TAUTO_COUNT>
8

> <PUBCHEM_CONFORMER_ID>
02BA99B400000001

> <PUBCHEM_MMFF94_ENERGY>
64.7085

> <PUBCHEM_FEATURE_SELFOVERLAP>
45.672

> <PUBCHEM_SHAPE_FINGERPRINT>
10 15 17632292398336305968
11524674 6 18343861113279467126
12422481 6 17896039845154045642
12522641 33 17460853131113989189
12616971 3 17240489117627227180
12633257 1 17915202306150126969
12788726 201 18122364616460419829
13004483 165 17840591723680578655
131258 38 16381447541898178227
13994607 96 12895086153724211727
14844126 61 18339924939051039611
14856354 85 18410014360041158044
15021287 119 17312825978912735044
15183329 4 17313096467779509290
15348495 7 18201432623733646304
15352257 5 18334853901883616082
18927931 339 16225763004158022604
20554085 129 18198892631546061633
21033648 29 18198916807579750077
21756936 100 18201715116042683753
21796203 349 16879380872797785516
23516275 137 18045518426045975642
23522609 53 18042431126244452284
23559900 14 18055661467402240700
23728640 28 18265065785333209563
255183 451 8572699163932436609
335507 130 17240486910694194212
3383291 50 18337679723512455051
397830 11 18198328737031936784
4073 2 18343579651836095164
484985 159 18262503909986662647
5265222 85 18050044131183677062
5364581 5 18056753458885848024
59755656 520 18410570657026868976
602551 16 18338525230319982844
68570916 9 18262518213055926340

> <PUBCHEM_SHAPE_MULTIPOLES>
566.19
16.29
3.9
1.75
46.95
3
0.34
-3.48
-7.71
-6.64
-0.78
-0.61
-0.1
-1.03

> <PUBCHEM_SHAPE_SELFOVERLAP>
1216.802

> <PUBCHEM_SHAPE_VOLUME>
315.6

> <PUBCHEM_COORDINATE_TYPE>
2
5
10

$$$$
