11865813
  -OEChem-12032416413D

 69 72  0     1  0  0  0  0  0999 V2000
    2.4170   -0.2887   -1.4715 O   0  0  0  0  0  0  0  0  0  0  0  0
    2.0495    1.4948    1.5615 O   0  0  0  0  0  0  0  0  0  0  0  0
    5.4772   -3.0170   -0.2647 O   0  0  0  0  0  0  0  0  0  0  0  0
   -3.1374   -1.8925   -1.6954 O   0  0  0  0  0  0  0  0  0  0  0  0
    4.4505   -1.2457    0.8054 O   0  0  0  0  0  0  0  0  0  0  0  0
    0.6552    1.2833   -0.2640 N   0  0  0  0  0  0  0  0  0  0  0  0
    2.0474   -2.0145    0.0257 N   0  0  0  0  0  0  0  0  0  0  0  0
   -1.9718   -0.4101   -0.3434 N   0  0  0  0  0  0  0  0  0  0  0  0
   -4.1760   -0.8751    0.1148 N   0  0  0  0  0  0  0  0  0  0  0  0
    2.5983    4.1866    0.2066 N   0  0  0  0  0  0  0  0  0  0  0  0
    0.4587   -0.1570   -0.1235 C   0  0  1  0  0  0  0  0  0  0  0  0
   -0.7138   -0.4880   -1.0474 C   0  0  2  0  0  0  0  0  0  0  0  0
   -0.6239    0.5878   -2.1324 C   0  0  0  0  0  0  0  0  0  0  0  0
   -0.1263    1.8157   -1.3806 C   0  0  0  0  0  0  0  0  0  0  0  0
    1.7296   -0.8169   -0.5958 C   0  0  0  0  0  0  0  0  0  0  0  0
    3.1482   -2.8593   -0.4189 C   0  0  2  0  0  0  0  0  0  0  0  0
    1.2633   -2.6750    1.0660 C   0  0  0  0  0  0  0  0  0  0  0  0
    2.8606   -4.2246    0.1946 C   0  0  0  0  0  0  0  0  0  0  0  0
    2.0908   -3.8862    1.4689 C   0  0  0  0  0  0  0  0  0  0  0  0
   -5.4751   -1.4880   -0.0515 C   0  0  0  0  0  0  0  0  0  0  0  0
    1.4178    2.0220    0.6449 C   0  0  0  0  0  0  0  0  0  0  0  0
   -6.3567   -0.6633   -0.9954 C   0  0  0  0  0  0  0  0  0  0  0  0
   -6.1601   -1.7027    1.3023 C   0  0  0  0  0  0  0  0  0  0  0  0
   -6.8288    0.6449   -0.3609 C   0  0  0  0  0  0  0  0  0  0  0  0
   -6.6328   -0.3930    1.9331 C   0  0  0  0  0  0  0  0  0  0  0  0
   -7.5170    0.4045    0.9792 C   0  0  0  0  0  0  0  0  0  0  0  0
   -3.0994   -1.1303   -0.7304 C   0  0  0  0  0  0  0  0  0  0  0  0
    4.4112   -2.2603    0.1226 C   0  0  0  0  0  0  0  0  0  0  0  0
    1.4571    3.4642    0.4390 C   0  0  0  0  0  0  0  0  0  0  0  0
    0.3954    4.3416    0.4409 C   0  0  0  0  0  0  0  0  0  0  0  0
    2.2810    5.5118    0.0592 C   0  0  0  0  0  0  0  0  0  0  0  0
    0.9166    5.6371    0.2007 C   0  0  0  0  0  0  0  0  0  0  0  0
    3.9389    3.6496    0.1249 C   0  0  0  0  0  0  0  0  0  0  0  0
    6.7549   -2.5556    0.1857 C   0  0  0  0  0  0  0  0  0  0  0  0
    0.2531   -0.3620    0.9290 H   0  0  0  0  0  0  0  0  0  0  0  0
   -0.6288   -1.4875   -1.4889 H   0  0  0  0  0  0  0  0  0  0  0  0
    0.1194    0.2940   -2.8834 H   0  0  0  0  0  0  0  0  0  0  0  0
   -1.5682    0.7770   -2.6521 H   0  0  0  0  0  0  0  0  0  0  0  0
    0.4825    2.4761   -2.0045 H   0  0  0  0  0  0  0  0  0  0  0  0
   -0.9730    2.3761   -0.9727 H   0  0  0  0  0  0  0  0  0  0  0  0
    3.1967   -2.8709   -1.5127 H   0  0  0  0  0  0  0  0  0  0  0  0
    0.3010   -2.9696    0.6342 H   0  0  0  0  0  0  0  0  0  0  0  0
    1.0933   -2.0084    1.9153 H   0  0  0  0  0  0  0  0  0  0  0  0
    3.7495   -4.8276    0.4005 H   0  0  0  0  0  0  0  0  0  0  0  0
    2.2090   -4.7984   -0.4760 H   0  0  0  0  0  0  0  0  0  0  0  0
    1.4753   -4.7151    1.8289 H   0  0  0  0  0  0  0  0  0  0  0  0
    2.7941   -3.6129    2.2648 H   0  0  0  0  0  0  0  0  0  0  0  0
   -2.0596    0.2473    0.4257 H   0  0  0  0  0  0  0  0  0  0  0  0
   -5.3127   -2.4711   -0.5109 H   0  0  0  0  0  0  0  0  0  0  0  0
   -7.2372   -1.2583   -1.2700 H   0  0  0  0  0  0  0  0  0  0  0  0
   -5.8220   -0.4419   -1.9269 H   0  0  0  0  0  0  0  0  0  0  0  0
   -5.4820   -2.2155    1.9951 H   0  0  0  0  0  0  0  0  0  0  0  0
   -7.0282   -2.3596    1.1624 H   0  0  0  0  0  0  0  0  0  0  0  0
   -7.5203    1.1537   -1.0422 H   0  0  0  0  0  0  0  0  0  0  0  0
   -5.9737    1.3167   -0.2181 H   0  0  0  0  0  0  0  0  0  0  0  0
   -5.7701    0.2152    2.2292 H   0  0  0  0  0  0  0  0  0  0  0  0
   -7.1909   -0.6117    2.8508 H   0  0  0  0  0  0  0  0  0  0  0  0
   -7.7806    1.3649    1.4364 H   0  0  0  0  0  0  0  0  0  0  0  0
   -8.4559   -0.1383    0.8138 H   0  0  0  0  0  0  0  0  0  0  0  0
   -4.0563   -0.1729    0.8379 H   0  0  0  0  0  0  0  0  0  0  0  0
   -0.6422    4.0905    0.6121 H   0  0  0  0  0  0  0  0  0  0  0  0
    3.0433    6.2555   -0.1308 H   0  0  0  0  0  0  0  0  0  0  0  0
    0.3595    6.5614    0.1415 H   0  0  0  0  0  0  0  0  0  0  0  0
    4.6206    4.4226   -0.2392 H   0  0  0  0  0  0  0  0  0  0  0  0
    3.9368    2.8067   -0.5711 H   0  0  0  0  0  0  0  0  0  0  0  0
    4.2405    3.3272    1.1245 H   0  0  0  0  0  0  0  0  0  0  0  0
    6.9572   -1.5555   -0.2096 H   0  0  0  0  0  0  0  0  0  0  0  0
    6.7926   -2.5542    1.2793 H   0  0  0  0  0  0  0  0  0  0  0  0
    7.5168   -3.2430   -0.1911 H   0  0  0  0  0  0  0  0  0  0  0  0
  1 15  2  0  0  0  0
  2 21  2  0  0  0  0
  3 28  1  0  0  0  0
  3 34  1  0  0  0  0
  4 27  2  0  0  0  0
  5 28  2  0  0  0  0
  6 11  1  0  0  0  0
  6 14  1  0  0  0  0
  6 21  1  0  0  0  0
  7 15  1  0  0  0  0
  7 16  1  0  0  0  0
  7 17  1  0  0  0  0
  8 12  1  0  0  0  0
  8 27  1  0  0  0  0
  8 48  1  0  0  0  0
  9 20  1  0  0  0  0
  9 27  1  0  0  0  0
  9 60  1  0  0  0  0
 10 29  1  0  0  0  0
 10 31  1  0  0  0  0
 10 33  1  0  0  0  0
 11 12  1  0  0  0  0
 11 15  1  0  0  0  0
 11 35  1  0  0  0  0
 12 13  1  0  0  0  0
 12 36  1  0  0  0  0
 13 14  1  0  0  0  0
 13 37  1  0  0  0  0
 13 38  1  0  0  0  0
 14 39  1  0  0  0  0
 14 40  1  0  0  0  0
 16 18  1  0  0  0  0
 16 28  1  0  0  0  0
 16 41  1  0  0  0  0
 17 19  1  0  0  0  0
 17 42  1  0  0  0  0
 17 43  1  0  0  0  0
 18 19  1  0  0  0  0
 18 44  1  0  0  0  0
 18 45  1  0  0  0  0
 19 46  1  0  0  0  0
 19 47  1  0  0  0  0
 20 22  1  0  0  0  0
 20 23  1  0  0  0  0
 20 49  1  0  0  0  0
 21 29  1  0  0  0  0
 22 24  1  0  0  0  0
 22 50  1  0  0  0  0
 22 51  1  0  0  0  0
 23 25  1  0  0  0  0
 23 52  1  0  0  0  0
 23 53  1  0  0  0  0
 24 26  1  0  0  0  0
 24 54  1  0  0  0  0
 24 55  1  0  0  0  0
 25 26  1  0  0  0  0
 25 56  1  0  0  0  0
 25 57  1  0  0  0  0
 26 58  1  0  0  0  0
 26 59  1  0  0  0  0
 29 30  2  0  0  0  0
 30 32  1  0  0  0  0
 30 61  1  0  0  0  0
 31 32  2  0  0  0  0
 31 62  1  0  0  0  0
 32 63  1  0  0  0  0
 33 64  1  0  0  0  0
 33 65  1  0  0  0  0
 33 66  1  0  0  0  0
 34 67  1  0  0  0  0
 34 68  1  0  0  0  0
 34 69  1  0  0  0  0
M  END
> <PUBCHEM_COMPOUND_CID>
11865813

> <PUBCHEM_CONFORMER_RMSD>
1.2

> <PUBCHEM_CONFORMER_DIVERSEORDER>
1
48
31
77
53
30
17
7
44
70
19
73
34
67
76
42
9
61
58
33
68
6
47
78
46
35
49
21
45
29
22
52
71
16
28
50
64
66
72
43
13
41
11
63
54
60
75
39
12
55
4
20
51
23
10
62
74
14
18
24
15
56
59
3
65
26
40
37
69
57
36
38
25
32
2
5
8
27

> <PUBCHEM_MMFF94_PARTIAL_CHARGES>
31
1 -0.57
10 0.05
11 0.36
12 0.3
14 0.3
15 0.57
16 0.36
17 0.3
2 -0.57
20 0.3
21 0.71
27 0.69
28 0.66
29 -0.24
3 -0.43
30 -0.15
31 -0.3
32 -0.15
33 0.26
34 0.28
4 -0.57
48 0.37
5 -0.57
6 -0.66
60 0.37
61 0.15
62 0.15
63 0.15
7 -0.66
8 -0.73
9 -0.73

> <PUBCHEM_EFFECTIVE_ROTOR_COUNT>
13.2

> <PUBCHEM_PHARMACOPHORE_FEATURES>
11
1 1 acceptor
1 10 cation
1 2 acceptor
1 4 acceptor
1 5 acceptor
1 8 donor
1 9 donor
5 10 29 30 31 32 rings
5 6 11 12 13 14 rings
5 7 16 17 18 19 rings
6 20 22 23 24 25 26 rings

> <PUBCHEM_HEAVY_ATOM_COUNT>
34

> <PUBCHEM_ATOM_DEF_STEREO_COUNT>
3

> <PUBCHEM_ATOM_UDEF_STEREO_COUNT>
0

> <PUBCHEM_BOND_DEF_STEREO_COUNT>
0

> <PUBCHEM_BOND_UDEF_STEREO_COUNT>
0

> <PUBCHEM_ISOTOPIC_ATOM_COUNT>
0

> <PUBCHEM_COMPONENT_COUNT>
1

> <PUBCHEM_CACTVS_TAUTO_COUNT>
3

> <PUBCHEM_CONFORMER_ID>
00B50ED500000001

> <PUBCHEM_MMFF94_ENERGY>
63.9456

> <PUBCHEM_FEATURE_SELFOVERLAP>
55.874

> <PUBCHEM_SHAPE_FINGERPRINT>
10074138 170 17329123798672438840
10258939 38 15864067646490260686
10675989 125 18055924431213316888
11331351 85 17845656932640509463
11763715 3 17978535060578692774
12788726 201 17620449343280215540
13540713 5 17844519110458705415
13590594 115 18339927000582548681
13785724 45 18342745083180719980
14790565 3 17762335125597527245
14849402 71 18339085998366584225
15021287 119 18271803506794318199
15198563 99 18124883356870470564
15347590 135 18188760649207961314
15439362 3 18195243554042635440
15475509 84 18339647711881614277
15775530 1 17826195619894754749
15927050 60 17908142423745770502
15950262 2 15336004299612625576
16992787 43 18410579530904121188
17980427 26 18125432261816577997
19301679 30 18051413963590309623
19302320 297 18126583232682618273
21049683 271 18260275161383072860
21927370 108 18268148665624129234
21987483 16 18050017877347296011
23559900 14 18409162247230277187
3552219 110 18188505562203653646
376196 1 17269480120609882205
4058900 60 18050290568007603009
4144715 1 18187650232779084609
4516262 110 18122897896912019245
5912855 24 17832424194284198122
6058803 2 17843672512064190079
6697151 62 18265027199373246895
6703917 75 17399806384695815341
79837 15 17328300758748424413

> <PUBCHEM_SHAPE_MULTIPOLES>
645.45
15.21
7.37
1.43
29.32
10.22
0.13
-11.22
-3.92
-13.48
-1.83
1.3
-0.35
0.07

> <PUBCHEM_SHAPE_SELFOVERLAP>
1360.775

> <PUBCHEM_SHAPE_VOLUME>
362.7

> <PUBCHEM_COORDINATE_TYPE>
2
5
10

$$$$
