40779089
  -OEChem-12032416283D

 58 62  0     1  0  0  0  0  0999 V2000
   -1.0265    2.2791    0.8806 F   0  0  0  0  0  0  0  0  0  0  0  0
   -1.2684   -3.6334    2.3502 O   0  0  0  0  0  0  0  0  0  0  0  0
    6.4985    0.3364    1.3053 O   0  0  0  0  0  0  0  0  0  0  0  0
    0.9625   -0.8190   -1.1080 N   0  0  2  0  0  0  0  0  0  0  0  0
   -1.4081   -2.1880    0.5128 N   0  0  0  0  0  0  0  0  0  0  0  0
    4.6748    0.8861   -0.0249 N   0  0  0  0  0  0  0  0  0  0  0  0
   -0.4079   -2.8048   -1.7680 C   0  0  1  0  0  0  0  0  0  0  0  0
   -1.5075   -0.6398   -1.4635 C   0  0  2  0  0  0  0  0  0  0  0  0
   -1.4998   -1.9036   -2.3198 C   0  0  0  0  0  0  0  0  0  0  0  0
    0.9588   -2.0935   -1.8348 C   0  0  0  0  0  0  0  0  0  0  0  0
   -0.1283    0.0553   -1.5615 C   0  0  0  0  0  0  0  0  0  0  0  0
    2.2551   -0.1497   -1.2310 C   0  0  0  0  0  0  0  0  0  0  0  0
   -0.7874   -3.2102   -0.3418 C   0  0  0  0  0  0  0  0  0  0  0  0
   -1.8553   -0.9567   -0.0062 C   0  0  0  0  0  0  0  0  0  0  0  0
    3.3773   -1.0799   -0.7527 C   0  0  0  0  0  0  0  0  0  0  0  0
    2.2540    1.1514   -0.4179 C   0  0  0  0  0  0  0  0  0  0  0  0
    4.7275   -0.3659   -0.7829 C   0  0  0  0  0  0  0  0  0  0  0  0
    3.6275    1.8214   -0.4540 C   0  0  0  0  0  0  0  0  0  0  0  0
   -2.5492   -0.0998    0.7871 C   0  0  0  0  0  0  0  0  0  0  0  0
   -1.6244   -2.5662    1.8497 C   0  0  0  0  0  0  0  0  0  0  0  0
   -2.7875   -0.4539    2.1735 C   0  0  0  0  0  0  0  0  0  0  0  0
   -2.3534   -1.5985    2.7007 C   0  0  0  0  0  0  0  0  0  0  0  0
   -3.0554    1.1941    0.2798 C   0  0  0  0  0  0  0  0  0  0  0  0
    5.6042    1.1243    0.9870 C   0  0  0  0  0  0  0  0  0  0  0  0
   -2.2578    2.3361    0.3520 C   0  0  0  0  0  0  0  0  0  0  0  0
   -4.3341    1.2703   -0.2725 C   0  0  0  0  0  0  0  0  0  0  0  0
    5.4814    2.4350    1.7222 C   0  0  0  0  0  0  0  0  0  0  0  0
   -2.7386    3.5543   -0.1280 C   0  0  0  0  0  0  0  0  0  0  0  0
   -4.8148    2.4885   -0.7530 C   0  0  0  0  0  0  0  0  0  0  0  0
   -4.0172    3.6306   -0.6805 C   0  0  0  0  0  0  0  0  0  0  0  0
   -0.3388   -3.7132   -2.3796 H   0  0  0  0  0  0  0  0  0  0  0  0
   -2.2569    0.0291   -1.9018 H   0  0  0  0  0  0  0  0  0  0  0  0
   -2.4754   -2.4047   -2.2902 H   0  0  0  0  0  0  0  0  0  0  0  0
   -1.2975   -1.6550   -3.3688 H   0  0  0  0  0  0  0  0  0  0  0  0
    1.6735   -2.8030   -1.4070 H   0  0  0  0  0  0  0  0  0  0  0  0
    1.2310   -1.9411   -2.8879 H   0  0  0  0  0  0  0  0  0  0  0  0
    0.0385    0.3718   -2.6003 H   0  0  0  0  0  0  0  0  0  0  0  0
   -0.1931    0.9593   -0.9570 H   0  0  0  0  0  0  0  0  0  0  0  0
    2.4465    0.1035   -2.2841 H   0  0  0  0  0  0  0  0  0  0  0  0
   -1.5189   -4.0286   -0.3977 H   0  0  0  0  0  0  0  0  0  0  0  0
    0.0826   -3.6242    0.1840 H   0  0  0  0  0  0  0  0  0  0  0  0
    3.4901   -1.9607   -1.3923 H   0  0  0  0  0  0  0  0  0  0  0  0
    3.1743   -1.4273    0.2690 H   0  0  0  0  0  0  0  0  0  0  0  0
    1.9776    0.9478    0.6250 H   0  0  0  0  0  0  0  0  0  0  0  0
    1.5506    1.8904   -0.8132 H   0  0  0  0  0  0  0  0  0  0  0  0
    5.0064   -0.1128   -1.8128 H   0  0  0  0  0  0  0  0  0  0  0  0
    5.5042   -1.0282   -0.3875 H   0  0  0  0  0  0  0  0  0  0  0  0
    3.6068    2.7226    0.1613 H   0  0  0  0  0  0  0  0  0  0  0  0
    3.8734    2.1340   -1.4760 H   0  0  0  0  0  0  0  0  0  0  0  0
   -3.3297    0.2502    2.7979 H   0  0  0  0  0  0  0  0  0  0  0  0
   -2.5318   -1.8525    3.7388 H   0  0  0  0  0  0  0  0  0  0  0  0
   -4.9676    0.3889   -0.3367 H   0  0  0  0  0  0  0  0  0  0  0  0
    4.5082    2.5020    2.2157 H   0  0  0  0  0  0  0  0  0  0  0  0
    5.6208    3.2708    1.0315 H   0  0  0  0  0  0  0  0  0  0  0  0
    6.2581    2.4951    2.4910 H   0  0  0  0  0  0  0  0  0  0  0  0
   -2.1171    4.4432   -0.0718 H   0  0  0  0  0  0  0  0  0  0  0  0
   -5.8101    2.5478   -1.1835 H   0  0  0  0  0  0  0  0  0  0  0  0
   -4.3915    4.5790   -1.0545 H   0  0  0  0  0  0  0  0  0  0  0  0
  1 25  1  0  0  0  0
  2 20  2  0  0  0  0
  3 24  2  0  0  0  0
  4 10  1  0  0  0  0
  4 11  1  0  0  0  0
  4 12  1  0  0  0  0
  5 13  1  0  0  0  0
  5 14  1  0  0  0  0
  5 20  1  0  0  0  0
  6 17  1  0  0  0  0
  6 18  1  0  0  0  0
  6 24  1  0  0  0  0
  7  9  1  0  0  0  0
  7 10  1  0  0  0  0
  7 13  1  0  0  0  0
  7 31  1  0  0  0  0
  8  9  1  0  0  0  0
  8 11  1  0  0  0  0
  8 14  1  0  0  0  0
  8 32  1  0  0  0  0
  9 33  1  0  0  0  0
  9 34  1  0  0  0  0
 10 35  1  0  0  0  0
 10 36  1  0  0  0  0
 11 37  1  0  0  0  0
 11 38  1  0  0  0  0
 12 15  1  0  0  0  0
 12 16  1  0  0  0  0
 12 39  1  0  0  0  0
 13 40  1  0  0  0  0
 13 41  1  0  0  0  0
 14 19  2  0  0  0  0
 15 17  1  0  0  0  0
 15 42  1  0  0  0  0
 15 43  1  0  0  0  0
 16 18  1  0  0  0  0
 16 44  1  0  0  0  0
 16 45  1  0  0  0  0
 17 46  1  0  0  0  0
 17 47  1  0  0  0  0
 18 48  1  0  0  0  0
 18 49  1  0  0  0  0
 19 21  1  0  0  0  0
 19 23  1  0  0  0  0
 20 22  1  0  0  0  0
 21 22  2  0  0  0  0
 21 50  1  0  0  0  0
 22 51  1  0  0  0  0
 23 25  1  0  0  0  0
 23 26  2  0  0  0  0
 24 27  1  0  0  0  0
 25 28  2  0  0  0  0
 26 29  1  0  0  0  0
 26 52  1  0  0  0  0
 27 53  1  0  0  0  0
 27 54  1  0  0  0  0
 27 55  1  0  0  0  0
 28 30  1  0  0  0  0
 28 56  1  0  0  0  0
 29 30  2  0  0  0  0
 29 57  1  0  0  0  0
 30 58  1  0  0  0  0
M  END
> <PUBCHEM_COMPOUND_CID>
40779089

> <PUBCHEM_CONFORMER_RMSD>
0.8

> <PUBCHEM_CONFORMER_DIVERSEORDER>
1
16
19
17
7
9
4
18
11
5
15
10
8
13
3
6
2
12
14

> <PUBCHEM_MMFF94_PARTIAL_CHARGES>
32
1 -0.19
10 0.27
11 0.27
12 0.27
13 0.3
14 -0.03
17 0.3
18 0.3
19 -0.03
2 -0.57
20 0.62
21 -0.15
22 -0.14
23 0.03
24 0.57
25 0.19
26 -0.15
27 0.06
28 -0.15
29 -0.15
3 -0.57
30 -0.15
4 -0.81
5 -0.47
50 0.15
51 0.15
52 0.15
56 0.15
57 0.15
58 0.15
6 -0.66
8 0.14

> <PUBCHEM_EFFECTIVE_ROTOR_COUNT>
5.2

> <PUBCHEM_PHARMACOPHORE_FEATURES>
8
1 2 acceptor
1 3 acceptor
1 4 cation
6 23 25 26 28 29 30 rings
6 4 7 8 9 10 11 rings
6 5 14 19 20 21 22 rings
6 5 7 8 9 13 14 rings
6 6 12 15 16 17 18 rings

> <PUBCHEM_HEAVY_ATOM_COUNT>
30

> <PUBCHEM_ATOM_DEF_STEREO_COUNT>
2

> <PUBCHEM_ATOM_UDEF_STEREO_COUNT>
0

> <PUBCHEM_BOND_DEF_STEREO_COUNT>
0

> <PUBCHEM_BOND_UDEF_STEREO_COUNT>
0

> <PUBCHEM_ISOTOPIC_ATOM_COUNT>
0

> <PUBCHEM_COMPONENT_COUNT>
1

> <PUBCHEM_CACTVS_TAUTO_COUNT>
3

> <PUBCHEM_CONFORMER_ID>
026E3D5100000001

> <PUBCHEM_MMFF94_ENERGY>
77.7307

> <PUBCHEM_FEATURE_SELFOVERLAP>
42.147

> <PUBCHEM_SHAPE_FINGERPRINT>
10764073 3 11891605755733463431
107951 10 18333729092011892801
10930396 42 18118108406348036329
11115154 58 9388864557574865534
11370993 144 18259698987494690314
11370993 70 18338802195528486589
11399939 17 8570712432104418569
11552529 35 17751645587847771194
11582403 64 18265609875868976103
11725454 13 18266178336180730303
12035758 1 18193019165136943441
12156800 1 17555688318958079779
131258 38 15439648753444861218
13583140 156 18341055194196807544
14468879 13 18341896268435256819
14950920 106 17677892516967873016
15513586 35 17764600102466010880
16994733 274 17489028142097645777
17780758 139 17968371351422288016
17974551 9 17750808644560895202
17980427 26 17755013108638304143
19315092 285 16448142752970460570
20197701 30 18338793399572569085
20554085 129 18114733820975078761
21033648 29 18340778056752430892
21304303 282 18040425574259229855
22907989 373 14117520990698891294
23559900 14 18046929098730668798
238 59 17914343368398758367
2838139 119 18128247887820569349
3117164 225 18340196411555177050
376196 1 18196653982383646741
3886686 26 17532373062911178939
437795 96 17986090015559103584
469060 322 17913495910953345895
4742675 86 17916605145231990729
484985 159 16226590983721623490
4938544 92 18334293210666105008
5895379 119 16471769626054009233
59444896 2 17974812200270062191
6086070 43 17060328653169789848
6371380 46 18191308174599403230
7288768 16 18335134259102797349
84936 182 17249505980584523725
9862522 239 18200883962534746110
9981440 41 18411700950590017427

> <PUBCHEM_SHAPE_MULTIPOLES>
583.43
10.52
4.41
2.28
17.15
0.27
0.97
10.53
3.12
-3.89
0.33
-0.65
-1.87
2.74

> <PUBCHEM_SHAPE_SELFOVERLAP>
1269.539

> <PUBCHEM_SHAPE_VOLUME>
316.1

> <PUBCHEM_COORDINATE_TYPE>
2
5
10

$$$$
