40776909
  -OEChem-12032416173D

 60 63  0     1  0  0  0  0  0999 V2000
   -5.7507    0.5342    1.6335 O   0  0  0  0  0  0  0  0  0  0  0  0
   -7.2793    2.1021    0.0674 O   0  0  0  0  0  0  0  0  0  0  0  0
    3.6960    2.5922    0.2602 O   0  0  0  0  0  0  0  0  0  0  0  0
   -1.9649   -2.0766    1.4688 N   0  0  2  0  0  0  0  0  0  0  0  0
   -3.8194    1.0239    0.4305 N   0  0  0  0  0  0  0  0  0  0  0  0
    0.7174   -0.5663   -1.8995 N   0  0  0  0  0  0  0  0  0  0  0  0
    2.8297    0.5800   -1.7208 N   0  0  0  0  0  0  0  0  0  0  0  0
   -1.3420   -2.3672   -1.0433 C   0  0  2  0  0  0  0  0  0  0  0  0
   -0.0651   -2.1310   -0.1902 C   0  0  2  0  0  0  0  0  0  0  0  0
   -2.8113   -1.1883    0.6292 C   0  0  2  0  0  0  0  0  0  0  0  0
   -2.3198   -1.1916   -0.8343 C   0  0  0  0  0  0  0  0  0  0  0  0
   -2.0260   -3.6315   -0.4803 C   0  0  0  0  0  0  0  0  0  0  0  0
   -0.5298   -1.7678    1.2491 C   0  0  0  0  0  0  0  0  0  0  0  0
   -2.2084   -3.4746    1.0395 C   0  0  0  0  0  0  0  0  0  0  0  0
   -2.9078    0.2301    1.1952 C   0  0  0  0  0  0  0  0  0  0  0  0
    0.9840   -1.1635   -0.7195 C   0  0  0  0  0  0  0  0  0  0  0  0
    2.1353   -0.9434    0.0086 C   0  0  0  0  0  0  0  0  0  0  0  0
    3.0316   -0.0526   -0.5463 C   0  0  0  0  0  0  0  0  0  0  0  0
   -5.1815    1.1140    0.7127 C   0  0  0  0  0  0  0  0  0  0  0  0
    1.6693    0.2811   -2.3351 C   0  0  0  0  0  0  0  0  0  0  0  0
    4.2749    0.2633    0.1153 C   0  0  0  0  0  0  0  0  0  0  0  0
   -5.9071    2.0237   -0.2555 C   0  0  0  0  0  0  0  0  0  0  0  0
    1.4113    0.9595   -3.6379 C   0  0  0  0  0  0  0  0  0  0  0  0
    4.5694    1.5720    0.4976 C   0  0  0  0  0  0  0  0  0  0  0  0
    5.1874   -0.7601    0.3711 C   0  0  0  0  0  0  0  0  0  0  0  0
    5.7764    1.8573    1.1359 C   0  0  0  0  0  0  0  0  0  0  0  0
    6.3946   -0.4749    1.0093 C   0  0  0  0  0  0  0  0  0  0  0  0
    6.6891    0.8338    1.3918 C   0  0  0  0  0  0  0  0  0  0  0  0
   -7.9881    2.9530   -0.8288 C   0  0  0  0  0  0  0  0  0  0  0  0
    2.7345    2.8693    1.2758 C   0  0  0  0  0  0  0  0  0  0  0  0
   -1.1087   -2.4996   -2.1050 H   0  0  0  0  0  0  0  0  0  0  0  0
    0.4563   -3.0996   -0.1398 H   0  0  0  0  0  0  0  0  0  0  0  0
   -3.8337   -1.5946    0.6428 H   0  0  0  0  0  0  0  0  0  0  0  0
   -1.8287   -0.2487   -1.0993 H   0  0  0  0  0  0  0  0  0  0  0  0
   -3.1792   -1.3044   -1.5069 H   0  0  0  0  0  0  0  0  0  0  0  0
   -1.4211   -4.5208   -0.6927 H   0  0  0  0  0  0  0  0  0  0  0  0
   -2.9988   -3.7767   -0.9656 H   0  0  0  0  0  0  0  0  0  0  0  0
    0.0685   -2.3356    1.9743 H   0  0  0  0  0  0  0  0  0  0  0  0
   -0.3351   -0.7158    1.4877 H   0  0  0  0  0  0  0  0  0  0  0  0
   -3.2206   -3.7842    1.3272 H   0  0  0  0  0  0  0  0  0  0  0  0
   -1.5309   -4.1514    1.5758 H   0  0  0  0  0  0  0  0  0  0  0  0
   -1.9439    0.7482    1.1718 H   0  0  0  0  0  0  0  0  0  0  0  0
   -3.2473    0.2005    2.2371 H   0  0  0  0  0  0  0  0  0  0  0  0
   -3.4484    1.5434   -0.3601 H   0  0  0  0  0  0  0  0  0  0  0  0
    2.3207   -1.4402    0.9536 H   0  0  0  0  0  0  0  0  0  0  0  0
   -5.4529    3.0200   -0.2016 H   0  0  0  0  0  0  0  0  0  0  0  0
   -5.7832    1.6207   -1.2673 H   0  0  0  0  0  0  0  0  0  0  0  0
    0.3374    1.0239   -3.8392 H   0  0  0  0  0  0  0  0  0  0  0  0
    1.8166    1.9762   -3.6302 H   0  0  0  0  0  0  0  0  0  0  0  0
    1.8864    0.3975   -4.4473 H   0  0  0  0  0  0  0  0  0  0  0  0
    4.9819   -1.7867    0.0765 H   0  0  0  0  0  0  0  0  0  0  0  0
    6.0134    2.8744    1.4362 H   0  0  0  0  0  0  0  0  0  0  0  0
    7.1059   -1.2713    1.2073 H   0  0  0  0  0  0  0  0  0  0  0  0
    7.6291    1.0559    1.8883 H   0  0  0  0  0  0  0  0  0  0  0  0
   -9.0386    2.9709   -0.5267 H   0  0  0  0  0  0  0  0  0  0  0  0
   -7.9235    2.5692   -1.8515 H   0  0  0  0  0  0  0  0  0  0  0  0
   -7.5920    3.9720   -0.7815 H   0  0  0  0  0  0  0  0  0  0  0  0
    2.0904    3.6801    0.9245 H   0  0  0  0  0  0  0  0  0  0  0  0
    3.2330    3.1931    2.1949 H   0  0  0  0  0  0  0  0  0  0  0  0
    2.1116    1.9924    1.4772 H   0  0  0  0  0  0  0  0  0  0  0  0
  1 19  2  0  0  0  0
  2 22  1  0  0  0  0
  2 29  1  0  0  0  0
  3 24  1  0  0  0  0
  3 30  1  0  0  0  0
  4 10  1  0  0  0  0
  4 13  1  0  0  0  0
  4 14  1  0  0  0  0
  5 15  1  0  0  0  0
  5 19  1  0  0  0  0
  5 44  1  0  0  0  0
  6 16  2  0  0  0  0
  6 20  1  0  0  0  0
  7 18  1  0  0  0  0
  7 20  2  0  0  0  0
  8  9  1  0  0  0  0
  8 11  1  0  0  0  0
  8 12  1  0  0  0  0
  8 31  1  0  0  0  0
  9 13  1  0  0  0  0
  9 16  1  0  0  0  0
  9 32  1  0  0  0  0
 10 11  1  0  0  0  0
 10 15  1  0  0  0  0
 10 33  1  0  0  0  0
 11 34  1  0  0  0  0
 11 35  1  0  0  0  0
 12 14  1  0  0  0  0
 12 36  1  0  0  0  0
 12 37  1  0  0  0  0
 13 38  1  0  0  0  0
 13 39  1  0  0  0  0
 14 40  1  0  0  0  0
 14 41  1  0  0  0  0
 15 42  1  0  0  0  0
 15 43  1  0  0  0  0
 16 17  1  0  0  0  0
 17 18  2  0  0  0  0
 17 45  1  0  0  0  0
 18 21  1  0  0  0  0
 19 22  1  0  0  0  0
 20 23  1  0  0  0  0
 21 24  1  0  0  0  0
 21 25  2  0  0  0  0
 22 46  1  0  0  0  0
 22 47  1  0  0  0  0
 23 48  1  0  0  0  0
 23 49  1  0  0  0  0
 23 50  1  0  0  0  0
 24 26  2  0  0  0  0
 25 27  1  0  0  0  0
 25 51  1  0  0  0  0
 26 28  1  0  0  0  0
 26 52  1  0  0  0  0
 27 28  2  0  0  0  0
 27 53  1  0  0  0  0
 28 54  1  0  0  0  0
 29 55  1  0  0  0  0
 29 56  1  0  0  0  0
 29 57  1  0  0  0  0
 30 58  1  0  0  0  0
 30 59  1  0  0  0  0
 30 60  1  0  0  0  0
M  END
> <PUBCHEM_COMPOUND_CID>
40776909

> <PUBCHEM_CONFORMER_RMSD>
1

> <PUBCHEM_CONFORMER_DIVERSEORDER>
1
49
43
52
29
46
26
60
66
31
33
64
56
32
50
45
62
39
63
38
5
27
25
8
65
9
57
14
19
53
36
15
34
47
11
41
35
23
6
40
7
67
48
37
12
24
61
18
68
42
22
51
4
59
17
28
21
13
58
3
16
20
2
54
10
44
30
55

> <PUBCHEM_MMFF94_PARTIAL_CHARGES>
32
1 -0.57
10 0.27
13 0.27
14 0.27
15 0.3
16 0.17
17 -0.15
18 0.31
19 0.57
2 -0.56
20 0.48
22 0.34
23 0.14
24 0.08
25 -0.15
26 -0.15
27 -0.15
28 -0.15
29 0.28
3 -0.36
30 0.28
4 -0.81
44 0.37
45 0.15
5 -0.73
51 0.15
52 0.15
53 0.15
54 0.15
6 -0.62
7 -0.62
9 0.14

> <PUBCHEM_EFFECTIVE_ROTOR_COUNT>
9.2

> <PUBCHEM_PHARMACOPHORE_FEATURES>
10
1 1 acceptor
1 2 acceptor
1 3 acceptor
1 4 cation
1 5 donor
1 6 acceptor
3 6 7 20 cation
6 21 24 25 26 27 28 rings
6 6 7 16 17 18 20 rings
8 4 8 9 10 11 12 13 14 rings

> <PUBCHEM_HEAVY_ATOM_COUNT>
30

> <PUBCHEM_ATOM_DEF_STEREO_COUNT>
3

> <PUBCHEM_ATOM_UDEF_STEREO_COUNT>
0

> <PUBCHEM_BOND_DEF_STEREO_COUNT>
0

> <PUBCHEM_BOND_UDEF_STEREO_COUNT>
0

> <PUBCHEM_ISOTOPIC_ATOM_COUNT>
0

> <PUBCHEM_COMPONENT_COUNT>
1

> <PUBCHEM_CACTVS_TAUTO_COUNT>
2

> <PUBCHEM_CONFORMER_ID>
026E34CD00000001

> <PUBCHEM_MMFF94_ENERGY>
95.018

> <PUBCHEM_FEATURE_SELFOVERLAP>
50.754

> <PUBCHEM_SHAPE_FINGERPRINT>
10692045 39 18336270024603032922
10764073 3 18411132503505699716
11135609 127 17976528422589808741
11315621 136 10809879875488811304
11370993 144 18409443722291390102
11961588 58 17632854209759182279
12120059 20 9437959817413170445
12403259 118 17749966535066105699
12422481 6 17894915122073354470
12553582 1 16009296713196808146
12633257 1 18410852196586253560
13103583 49 15719400546341674251
13402501 40 18272652341785925497
13540713 5 17387430144369022310
13583140 156 17416681535341717538
13673619 4 12251903698088188598
14251764 30 8502363435030589865
14251764 38 18126002908272609328
14767858 380 13686294677621020727
14950920 106 15864648274697487025
15238133 3 18187656811819428692
15669420 48 15985095319871305181
16994733 274 16702029613430738209
17492 54 15195280915570920991
17980427 23 18335983185401424366
20567600 254 18337108973997773745
20642791 268 17751361905526753396
20715895 44 18272653428538797160
21033648 29 18187357714460364837
21304303 282 18341604963023205039
21403212 168 17967809397700825491
21859007 373 18042966480351760941
22122407 14 17986666181025900592
23559900 14 17559140773054049478
2838139 119 18341608214059271937
3472631 163 18131069333641877277
3737641 26 11891319942064830824
5104073 3 17241612899861523690
6058803 2 17098357576717703654
6371380 46 18339091367714891310
8217 86 9151173155699305354
9981440 41 18342179998518685795

> <PUBCHEM_SHAPE_MULTIPOLES>
579.85
16.99
3.69
2.09
12.34
0.99
-1.96
-17.79
6.06
4.7
0.57
-0.96
-0.41
1.3

> <PUBCHEM_SHAPE_SELFOVERLAP>
1237.126

> <PUBCHEM_SHAPE_VOLUME>
317.2

> <PUBCHEM_COORDINATE_TYPE>
2
5
10

$$$$
