7142772
  -OEChem-12032416153D

 55 59  0     1  0  0  0  0  0999 V2000
    0.7858    1.6154    1.9739 O   0  0  0  0  0  0  0  0  0  0  0  0
   -3.8175   -0.8487    1.7868 O   0  0  0  0  0  0  0  0  0  0  0  0
    3.5579    1.1035   -1.8750 O   0  0  0  0  0  0  0  0  0  0  0  0
   -3.8240    0.8160    0.1798 N   0  0  0  0  0  0  0  0  0  0  0  0
   -0.8947    2.0592    0.4121 N   0  0  0  0  0  0  0  0  0  0  0  0
   -3.4239   -1.4301   -0.4228 N   0  0  0  0  0  0  0  0  0  0  0  0
    2.4711    0.5513    0.0825 N   0  0  0  0  0  0  0  0  0  0  0  0
    7.1747   -0.9685    0.9075 N   0  0  0  0  0  0  0  0  0  0  0  0
   -3.1594    3.0591    1.0609 C   0  0  1  0  0  0  0  0  0  0  0  0
   -2.7060    2.4900   -1.2864 C   0  0  2  0  0  0  0  0  0  0  0  0
   -3.1679    3.6108   -0.3591 C   0  0  0  0  0  0  0  0  0  0  0  0
   -4.1104    1.8556    1.1728 C   0  0  0  0  0  0  0  0  0  0  0  0
   -1.7209    2.6959    1.4463 C   0  0  0  0  0  0  0  0  0  0  0  0
   -3.6901    1.3039   -1.2050 C   0  0  0  0  0  0  0  0  0  0  0  0
   -1.3092    2.0199   -0.9229 C   0  0  0  0  0  0  0  0  0  0  0  0
   -0.4885    1.5378   -1.8713 C   0  0  0  0  0  0  0  0  0  0  0  0
    0.3710    1.5869    0.8144 C   0  0  0  0  0  0  0  0  0  0  0  0
   -3.6895   -0.5246    0.6033 C   0  0  0  0  0  0  0  0  0  0  0  0
    1.2446    1.0335   -0.2684 C   0  0  0  0  0  0  0  0  0  0  0  0
    0.8129    1.0341   -1.5340 C   0  0  0  0  0  0  0  0  0  0  0  0
   -2.7724   -2.6832   -0.3116 C   0  0  0  0  0  0  0  0  0  0  0  0
    3.5923    0.6074   -0.7474 C   0  0  0  0  0  0  0  0  0  0  0  0
   -2.6725   -3.5124   -1.4253 C   0  0  0  0  0  0  0  0  0  0  0  0
   -2.2363   -3.0787    0.9109 C   0  0  0  0  0  0  0  0  0  0  0  0
    4.8325    0.0617   -0.1746 C   0  0  0  0  0  0  0  0  0  0  0  0
   -2.0316   -4.7465   -1.3159 C   0  0  0  0  0  0  0  0  0  0  0  0
   -1.5953   -4.3127    1.0204 C   0  0  0  0  0  0  0  0  0  0  0  0
   -1.4930   -5.1467   -0.0930 C   0  0  0  0  0  0  0  0  0  0  0  0
    6.0528    0.5392   -0.6134 C   0  0  0  0  0  0  0  0  0  0  0  0
    4.7601   -0.9207    0.7947 C   0  0  0  0  0  0  0  0  0  0  0  0
    7.1912   -0.0069   -0.0426 C   0  0  0  0  0  0  0  0  0  0  0  0
    5.9564   -1.4014    1.3025 C   0  0  0  0  0  0  0  0  0  0  0  0
   -3.5173    3.8289    1.7557 H   0  0  0  0  0  0  0  0  0  0  0  0
   -2.7113    2.8736   -2.3151 H   0  0  0  0  0  0  0  0  0  0  0  0
   -2.5054    4.4818   -0.4397 H   0  0  0  0  0  0  0  0  0  0  0  0
   -4.1751    3.9463   -0.6345 H   0  0  0  0  0  0  0  0  0  0  0  0
   -4.0793    1.4480    2.1885 H   0  0  0  0  0  0  0  0  0  0  0  0
   -5.1422    2.1821    0.9930 H   0  0  0  0  0  0  0  0  0  0  0  0
   -1.1889    3.6164    1.7232 H   0  0  0  0  0  0  0  0  0  0  0  0
   -1.7111    2.0617    2.3418 H   0  0  0  0  0  0  0  0  0  0  0  0
   -4.6899    1.6211   -1.5258 H   0  0  0  0  0  0  0  0  0  0  0  0
   -3.3643    0.5248   -1.8956 H   0  0  0  0  0  0  0  0  0  0  0  0
   -0.7931    1.4833   -2.9113 H   0  0  0  0  0  0  0  0  0  0  0  0
    1.3647    0.6048   -2.3619 H   0  0  0  0  0  0  0  0  0  0  0  0
   -3.7547   -1.2101   -1.3558 H   0  0  0  0  0  0  0  0  0  0  0  0
    2.6078    0.3731    1.0740 H   0  0  0  0  0  0  0  0  0  0  0  0
   -3.0878   -3.2120   -2.3837 H   0  0  0  0  0  0  0  0  0  0  0  0
   -2.2511   -2.4624    1.8009 H   0  0  0  0  0  0  0  0  0  0  0  0
   -1.9513   -5.3956   -2.1830 H   0  0  0  0  0  0  0  0  0  0  0  0
   -1.1682   -4.6215    1.9701 H   0  0  0  0  0  0  0  0  0  0  0  0
   -0.9921   -6.1066   -0.0084 H   0  0  0  0  0  0  0  0  0  0  0  0
    6.1384    1.3116   -1.3694 H   0  0  0  0  0  0  0  0  0  0  0  0
    3.8300   -1.3473    1.1517 H   0  0  0  0  0  0  0  0  0  0  0  0
    8.1786    0.3270   -0.3441 H   0  0  0  0  0  0  0  0  0  0  0  0
    5.9663   -2.1778    2.0606 H   0  0  0  0  0  0  0  0  0  0  0  0
  1 17  2  0  0  0  0
  2 18  2  0  0  0  0
  3 22  2  0  0  0  0
  4 12  1  0  0  0  0
  4 14  1  0  0  0  0
  4 18  1  0  0  0  0
  5 13  1  0  0  0  0
  5 15  1  0  0  0  0
  5 17  1  0  0  0  0
  6 18  1  0  0  0  0
  6 21  1  0  0  0  0
  6 45  1  0  0  0  0
  7 19  1  0  0  0  0
  7 22  1  0  0  0  0
  7 46  1  0  0  0  0
  8 31  2  0  0  0  0
  8 32  1  0  0  0  0
  9 11  1  0  0  0  0
  9 12  1  0  0  0  0
  9 13  1  0  0  0  0
  9 33  1  0  0  0  0
 10 11  1  0  0  0  0
 10 14  1  0  0  0  0
 10 15  1  0  0  0  0
 10 34  1  0  0  0  0
 11 35  1  0  0  0  0
 11 36  1  0  0  0  0
 12 37  1  0  0  0  0
 12 38  1  0  0  0  0
 13 39  1  0  0  0  0
 13 40  1  0  0  0  0
 14 41  1  0  0  0  0
 14 42  1  0  0  0  0
 15 16  2  0  0  0  0
 16 20  1  0  0  0  0
 16 43  1  0  0  0  0
 17 19  1  0  0  0  0
 19 20  2  0  0  0  0
 20 44  1  0  0  0  0
 21 23  2  0  0  0  0
 21 24  1  0  0  0  0
 22 25  1  0  0  0  0
 23 26  1  0  0  0  0
 23 47  1  0  0  0  0
 24 27  2  0  0  0  0
 24 48  1  0  0  0  0
 25 29  2  0  0  0  0
 25 30  1  0  0  0  0
 26 28  2  0  0  0  0
 26 49  1  0  0  0  0
 27 28  1  0  0  0  0
 27 50  1  0  0  0  0
 28 51  1  0  0  0  0
 29 31  1  0  0  0  0
 29 52  1  0  0  0  0
 30 32  2  0  0  0  0
 30 53  1  0  0  0  0
 31 54  1  0  0  0  0
 32 55  1  0  0  0  0
M  END
> <PUBCHEM_COMPOUND_CID>
7142772

> <PUBCHEM_CONFORMER_RMSD>
1

> <PUBCHEM_CONFORMER_DIVERSEORDER>
1
4
13
11
7
6
9
12
3
5
8
10
2

> <PUBCHEM_MMFF94_PARTIAL_CHARGES>
43
1 -0.57
10 0.14
12 0.3
13 0.3
14 0.3
15 -0.03
16 -0.15
17 0.62
18 0.69
19 0.12
2 -0.57
20 -0.15
21 0.12
22 0.54
23 -0.15
24 -0.15
25 0.09
26 -0.15
27 -0.15
28 -0.15
29 -0.15
3 -0.57
30 -0.15
31 0.16
32 0.16
4 -0.66
43 0.15
44 0.15
45 0.37
46 0.37
47 0.15
48 0.15
49 0.15
5 -0.47
50 0.15
51 0.15
52 0.15
53 0.15
54 0.15
55 0.15
6 -0.55
7 -0.54
8 -0.62

> <PUBCHEM_EFFECTIVE_ROTOR_COUNT>
7

> <PUBCHEM_PHARMACOPHORE_FEATURES>
11
1 1 acceptor
1 2 acceptor
1 3 acceptor
1 6 donor
1 7 donor
1 8 acceptor
6 21 23 24 26 27 28 rings
6 4 9 10 11 12 14 rings
6 5 15 16 17 19 20 rings
6 5 9 10 11 13 15 rings
6 8 25 29 30 31 32 rings

> <PUBCHEM_HEAVY_ATOM_COUNT>
32

> <PUBCHEM_ATOM_DEF_STEREO_COUNT>
2

> <PUBCHEM_ATOM_UDEF_STEREO_COUNT>
0

> <PUBCHEM_BOND_DEF_STEREO_COUNT>
0

> <PUBCHEM_BOND_UDEF_STEREO_COUNT>
0

> <PUBCHEM_ISOTOPIC_ATOM_COUNT>
0

> <PUBCHEM_COMPONENT_COUNT>
1

> <PUBCHEM_CACTVS_TAUTO_COUNT>
4

> <PUBCHEM_CONFORMER_ID>
006CFD7400000001

> <PUBCHEM_MMFF94_ENERGY>
102.0799

> <PUBCHEM_FEATURE_SELFOVERLAP>
57.392

> <PUBCHEM_SHAPE_FINGERPRINT>
10462674 125 16191951068021974246
10483366 6 18267001991351184975
11513181 2 18200030616726406623
11524674 6 18340765932127858413
12523318 42 18412541011754580232
12633257 1 17845390971370677545
12712778 12 18413102883771365698
14020679 6 17632025139258234217
14114207 22 17824247212577019823
14251757 5 18409727395774573898
14659021 117 18265884942459030002
14844126 61 18410295843359766331
15021287 119 17167867452738935148
15250474 111 18334572469466155630
15320294 125 18260832587639922590
15439362 3 17468749694427958461
15484559 13 14501953914523427718
16719943 64 18411419484145647859
16728300 4 18040722467804829147
19611394 137 18060135475654474792
19958102 18 18337110051844927774
20578428 11 16088928576883122621
20587220 17 17123426116236383273
20775530 9 17764882672595642975
229767 44 18335989696297934107
23516275 137 17901970551393931978
3383291 50 18342459266314514831
397830 11 18201143465313494976
4573279 73 17899142882681579708
484985 159 18337661001580752447
49967989 163 18340219587130401310
5080951 261 17968637373006453580
5085150 59 18338504245363027415
5265222 85 18337386050490773057
5326457 24 18187364312183784844
57527452 28 18333737914550062329
6201320 77 16266357004111206358
68570916 9 18334012831460072716
70251023 43 17398673892594415499

> <PUBCHEM_SHAPE_MULTIPOLES>
616.03
13.1
6
1.7
32.66
8.88
0.07
0.76
-2.24
-9.8
0.34
-0.48
-0.31
-1.45

> <PUBCHEM_SHAPE_SELFOVERLAP>
1356.594

> <PUBCHEM_SHAPE_VOLUME>
321.1

> <PUBCHEM_COORDINATE_TYPE>
2
5
10

$$$$
