11886303
  -OEChem-12032416143D

 50 54  0     1  0  0  0  0  0999 V2000
   -1.5596   -2.7923    0.4594 O   0  0  0  0  0  0  0  0  0  0  0  0
   -1.5875   -0.5223   -1.7172 O   0  0  0  0  0  0  0  0  0  0  0  0
    2.9726   -0.1482   -0.3793 O   0  0  0  0  0  0  0  0  0  0  0  0
   -6.2232   -1.3476   -0.9056 O   0  0  0  0  0  0  0  0  0  0  0  0
    7.8000   -0.5113   -0.1833 O   0  0  0  0  0  0  0  0  0  0  0  0
    8.0818    1.8658   -0.4627 O   0  0  0  0  0  0  0  0  0  0  0  0
   -9.7818    2.1348   -0.0012 O   0  0  0  0  0  0  0  0  0  0  0  0
   -7.8762    3.0847    0.7893 O   0  0  0  0  0  0  0  0  0  0  0  0
    1.0305   -0.8120    0.8129 N   0  0  0  0  0  0  0  0  0  0  0  0
   -4.2469   -0.3909   -0.1429 N   0  0  0  0  0  0  0  0  0  0  0  0
    0.6166   -0.8153    2.0877 N   0  0  0  0  0  0  0  0  0  0  0  0
    2.6718    0.0374    1.9474 N   0  0  0  0  0  0  0  0  0  0  0  0
    1.6248   -0.2951    2.7769 N   0  0  0  0  0  0  0  0  0  0  0  0
   -1.1502   -0.5866   -0.3475 C   0  0  1  0  0  0  0  0  0  0  0  0
   -2.1294   -1.4756    0.3942 C   0  0  1  0  0  0  0  0  0  0  0  0
    0.1754   -1.3193   -0.2633 C   0  0  2  0  0  0  0  0  0  0  0  0
   -3.3640   -1.4816   -0.4790 C   0  0  2  0  0  0  0  0  0  0  0  0
   -0.2474   -2.7771   -0.1192 C   0  0  0  0  0  0  0  0  0  0  0  0
   -2.7788   -1.3069   -1.8680 C   0  0  0  0  0  0  0  0  0  0  0  0
    2.2828   -0.2913    0.7371 C   0  0  0  0  0  0  0  0  0  0  0  0
   -5.6139   -0.4161   -0.3866 C   0  0  0  0  0  0  0  0  0  0  0  0
   -6.2877    0.8663    0.0678 C   0  0  0  0  0  0  0  0  0  0  0  0
   -7.7907    0.8587   -0.1912 C   0  0  0  0  0  0  0  0  0  0  0  0
    4.2508    0.3925   -0.4041 C   0  0  0  0  0  0  0  0  0  0  0  0
   -8.4481    2.1426    0.2585 C   0  0  0  0  0  0  0  0  0  0  0  0
    5.3614   -0.4441   -0.2685 C   0  0  0  0  0  0  0  0  0  0  0  0
    4.4151    1.7794   -0.5671 C   0  0  0  0  0  0  0  0  0  0  0  0
    6.6109    0.1401   -0.3004 C   0  0  0  0  0  0  0  0  0  0  0  0
    6.7718    1.4975   -0.4597 C   0  0  0  0  0  0  0  0  0  0  0  0
    5.6918    2.3457   -0.5961 C   0  0  0  0  0  0  0  0  0  0  0  0
    8.7277    0.5881   -0.2882 C   0  0  0  0  0  0  0  0  0  0  0  0
   -1.1282    0.4397    0.0331 H   0  0  0  0  0  0  0  0  0  0  0  0
   -2.3121   -1.1474    1.4225 H   0  0  0  0  0  0  0  0  0  0  0  0
    0.7596   -1.2055   -1.1842 H   0  0  0  0  0  0  0  0  0  0  0  0
   -3.9270   -2.4192   -0.4178 H   0  0  0  0  0  0  0  0  0  0  0  0
    0.4292   -3.3717    0.5019 H   0  0  0  0  0  0  0  0  0  0  0  0
   -0.3229   -3.2568   -1.1012 H   0  0  0  0  0  0  0  0  0  0  0  0
   -2.4815   -2.2721   -2.2927 H   0  0  0  0  0  0  0  0  0  0  0  0
   -3.4513   -0.8118   -2.5751 H   0  0  0  0  0  0  0  0  0  0  0  0
   -3.8362    0.4549    0.2431 H   0  0  0  0  0  0  0  0  0  0  0  0
   -5.8195    1.7069   -0.4591 H   0  0  0  0  0  0  0  0  0  0  0  0
   -6.0908    0.9983    1.1388 H   0  0  0  0  0  0  0  0  0  0  0  0
   -7.9829    0.7330   -1.2628 H   0  0  0  0  0  0  0  0  0  0  0  0
   -8.2586    0.0272    0.3480 H   0  0  0  0  0  0  0  0  0  0  0  0
    5.2455   -1.5151   -0.1429 H   0  0  0  0  0  0  0  0  0  0  0  0
    3.5437    2.4208   -0.6728 H   0  0  0  0  0  0  0  0  0  0  0  0
    5.8228    3.4145   -0.7216 H   0  0  0  0  0  0  0  0  0  0  0  0
    9.3886    0.4091   -1.1441 H   0  0  0  0  0  0  0  0  0  0  0  0
    9.3345    0.6234    0.6239 H   0  0  0  0  0  0  0  0  0  0  0  0
  -10.2152    2.9661    0.2876 H   0  0  0  0  0  0  0  0  0  0  0  0
  1 15  1  0  0  0  0
  1 18  1  0  0  0  0
  2 14  1  0  0  0  0
  2 19  1  0  0  0  0
  3 20  1  0  0  0  0
  3 24  1  0  0  0  0
  4 21  2  0  0  0  0
  5 28  1  0  0  0  0
  5 31  1  0  0  0  0
  6 29  1  0  0  0  0
  6 31  1  0  0  0  0
  7 25  1  0  0  0  0
  7 50  1  0  0  0  0
  8 25  2  0  0  0  0
  9 11  1  0  0  0  0
  9 16  1  0  0  0  0
  9 20  1  0  0  0  0
 10 17  1  0  0  0  0
 10 21  1  0  0  0  0
 10 40  1  0  0  0  0
 11 13  2  0  0  0  0
 12 13  1  0  0  0  0
 12 20  2  0  0  0  0
 14 15  1  0  0  0  0
 14 16  1  0  0  0  0
 14 32  1  0  0  0  0
 15 17  1  0  0  0  0
 15 33  1  0  0  0  0
 16 18  1  0  0  0  0
 16 34  1  0  0  0  0
 17 19  1  0  0  0  0
 17 35  1  0  0  0  0
 18 36  1  0  0  0  0
 18 37  1  0  0  0  0
 19 38  1  0  0  0  0
 19 39  1  0  0  0  0
 21 22  1  0  0  0  0
 22 23  1  0  0  0  0
 22 41  1  0  0  0  0
 22 42  1  0  0  0  0
 23 25  1  0  0  0  0
 23 43  1  0  0  0  0
 23 44  1  0  0  0  0
 24 26  2  0  0  0  0
 24 27  1  0  0  0  0
 26 28  1  0  0  0  0
 26 45  1  0  0  0  0
 27 30  2  0  0  0  0
 27 46  1  0  0  0  0
 28 29  2  0  0  0  0
 29 30  1  0  0  0  0
 30 47  1  0  0  0  0
 31 48  1  0  0  0  0
 31 49  1  0  0  0  0
M  END
> <PUBCHEM_COMPOUND_CID>
11886303

> <PUBCHEM_CONFORMER_RMSD>
1.2

> <PUBCHEM_CONFORMER_DIVERSEORDER>
1
45
63
103
32
58
69
37
18
78
68
29
88
42
48
74
95
62
19
54
39
55
31
75
96
24
73
41
67
20
40
105
51
38
25
64
50
81
17
56
33
21
79
52
36
66
30
12
82
87
97
104
84
3
22
93
86
94
35
11
61
47
14
9
60
65
98
8
106
85
91
46
53
5
70
43
6
101
71
27
15
76
2
90
89
49
72
99
44
28
7
16
26
4
10
102
92
100
23
83
80
34
59
57
77
13

> <PUBCHEM_MMFF94_PARTIAL_CHARGES>
35
1 -0.56
10 -0.73
11 -0.42
12 -0.34
14 0.28
15 0.28
16 0.26
17 0.3
18 0.28
19 0.28
2 -0.56
20 0.25
21 0.57
22 0.06
23 0.06
24 0.08
25 0.66
26 -0.15
27 -0.15
28 0.08
29 0.08
3 -0.15
30 -0.15
31 0.56
4 -0.57
40 0.37
45 0.15
46 0.15
47 0.15
5 -0.36
50 0.5
6 -0.36
7 -0.65
8 -0.57
9 0.31

> <PUBCHEM_EFFECTIVE_ROTOR_COUNT>
9.8

> <PUBCHEM_PHARMACOPHORE_FEATURES>
15
1 1 acceptor
1 10 donor
1 2 acceptor
1 4 acceptor
1 5 acceptor
1 6 acceptor
1 7 acceptor
1 8 acceptor
3 7 8 25 anion
3 9 12 20 cation
5 1 14 15 16 18 rings
5 2 14 15 17 19 rings
5 5 6 28 29 31 rings
5 9 11 12 13 20 rings
6 24 26 27 28 29 30 rings

> <PUBCHEM_HEAVY_ATOM_COUNT>
31

> <PUBCHEM_ATOM_DEF_STEREO_COUNT>
4

> <PUBCHEM_ATOM_UDEF_STEREO_COUNT>
0

> <PUBCHEM_BOND_DEF_STEREO_COUNT>
0

> <PUBCHEM_BOND_UDEF_STEREO_COUNT>
0

> <PUBCHEM_ISOTOPIC_ATOM_COUNT>
0

> <PUBCHEM_COMPONENT_COUNT>
1

> <PUBCHEM_CACTVS_TAUTO_COUNT>
2

> <PUBCHEM_CONFORMER_ID>
00B55EDF00000001

> <PUBCHEM_MMFF94_ENERGY>
68.2788

> <PUBCHEM_FEATURE_SELFOVERLAP>
77.032

> <PUBCHEM_SHAPE_FINGERPRINT>
10 15 13840263706443713238
10190206 1 17203615840012297089
106641 1 11746938698640760094
10670039 82 17203332183176213209
10674148 151 18412822499969568856
10883706 17 11023523828050823709
10904742 90 18334013882798314243
11135609 99 8718531818675863169
11386260 185 15410599411667904721
11621639 336 18195528095151761769
11646440 116 16805601491090072804
12120059 9 14549015464702794014
12516196 113 10663832879705306734
13177829 20 10737281355741024022
13248334 5 18050852122308409927
13540713 4 14853265656199095339
14251757 52 18335420158122896809
15064981 194 17970365912453635308
15183329 4 16415483748542182787
15198563 99 15266796441686221120
15347590 135 14779544561382416501
15357212 105 15431749708035192508
15690457 1 9943806681484639892
15706992 2 18335712624585575513
15728490 51 10809346650112274088
1577012 14 18335132090571937683
20505436 4 18334288765212086267
20721686 146 18270963432872123725
21033648 29 17532648152431588064
21585482 111 18262798442286796093
21781055 127 18341323406214710658
22224240 67 15140956292194412138
23198884 109 18411699932704153038
23389318 12 11743834790216079992
23559900 14 14189001362613010378
23576562 1 16486394616756846185
249057 3 15697994167614443511
3009799 131 17060340756076633986
3178227 256 15574719101356533668
3633792 109 18272940397480461494
4073 2 17605276384345936114
4093350 32 17894627020442602658
4098825 35 18413669106542620710
474113 269 16845299277307881998
5385378 56 16515674538579546794
54039377 194 9079106757975900745
54076057 127 17530963549191739450
57035037 87 18059849628385732752
5718773 13 9655575210654181845
5758199 1 17240481420438904859
5911458 16 18335707135211702613
59682541 35 13767929035079960069
59682541 52 16128656336421492381
59755656 520 16371279048042931066
6698420 124 18040719199117769978
9663363 56 15626221313192620634
9689198 14 18260834795542619875
9953998 17 16443069413626206873

> <PUBCHEM_SHAPE_MULTIPOLES>
566.11
28.22
2.57
1.38
15.75
0.61
-0.72
25.88
3.62
3.6
0.03
-0.18
-0.34
-2

> <PUBCHEM_SHAPE_SELFOVERLAP>
1235.181

> <PUBCHEM_SHAPE_VOLUME>
307

> <PUBCHEM_COORDINATE_TYPE>
2
5
10

$$$$
