11886251
  -OEChem-12032416373D

 57 62  0     1  0  0  0  0  0999 V2000
   -8.8252    3.1770    1.5432 F   0  0  0  0  0  0  0  0  0  0  0  0
   -9.4592    3.1052   -0.5297 F   0  0  0  0  0  0  0  0  0  0  0  0
   -7.6829    4.2315    0.0226 F   0  0  0  0  0  0  0  0  0  0  0  0
   -0.9497   -3.5881    0.6863 O   0  0  0  0  0  0  0  0  0  0  0  0
   -0.9989   -1.5657   -1.7218 O   0  0  0  0  0  0  0  0  0  0  0  0
    3.4733   -0.8107   -0.2532 O   0  0  0  0  0  0  0  0  0  0  0  0
   -5.5930   -2.5954   -1.0088 O   0  0  0  0  0  0  0  0  0  0  0  0
    1.5126   -1.4355    0.9266 N   0  0  0  0  0  0  0  0  0  0  0  0
   -3.7306   -1.4227   -0.2776 N   0  0  0  0  0  0  0  0  0  0  0  0
    1.0336   -1.3233    2.1690 N   0  0  0  0  0  0  0  0  0  0  0  0
    3.0510   -0.3858    2.0226 N   0  0  0  0  0  0  0  0  0  0  0  0
    1.9815   -0.6787    2.8383 N   0  0  0  0  0  0  0  0  0  0  0  0
    8.4618    1.5814   -0.3765 N   0  0  0  0  0  0  0  0  0  0  0  0
    9.5893    0.8942   -0.1181 N   0  0  0  0  0  0  0  0  0  0  0  0
   10.0412    3.0861   -0.5917 N   0  0  0  0  0  0  0  0  0  0  0  0
   -0.6218   -1.4599   -0.3369 C   0  0  1  0  0  0  0  0  0  0  0  0
   -1.5852   -2.3207    0.4569 C   0  0  1  0  0  0  0  0  0  0  0  0
    0.7357   -2.1019   -0.1217 C   0  0  2  0  0  0  0  0  0  0  0  0
   -2.7766   -2.4900   -0.4589 C   0  0  2  0  0  0  0  0  0  0  0  0
    0.3848   -3.5584    0.1619 C   0  0  0  0  0  0  0  0  0  0  0  0
   -2.1388   -2.4293   -1.8343 C   0  0  0  0  0  0  0  0  0  0  0  0
    2.7373   -0.8656    0.8412 C   0  0  0  0  0  0  0  0  0  0  0  0
   -5.0785   -1.5689   -0.5727 C   0  0  0  0  0  0  0  0  0  0  0  0
   -5.9255   -0.3679   -0.3561 C   0  0  0  0  0  0  0  0  0  0  0  0
   -7.0750   -0.2191   -1.1042 C   0  0  0  0  0  0  0  0  0  0  0  0
   -5.5363    0.5600    0.5878 C   0  0  0  0  0  0  0  0  0  0  0  0
    4.7246   -0.2106   -0.2835 C   0  0  0  0  0  0  0  0  0  0  0  0
   -7.8709    0.9079   -0.8992 C   0  0  0  0  0  0  0  0  0  0  0  0
   -6.3323    1.6869    0.7928 C   0  0  0  0  0  0  0  0  0  0  0  0
   -7.4995    1.8610    0.0493 C   0  0  0  0  0  0  0  0  0  0  0  0
    4.8163    1.1336   -0.5900 C   0  0  0  0  0  0  0  0  0  0  0  0
    5.8417   -0.9749   -0.0072 C   0  0  0  0  0  0  0  0  0  0  0  0
    6.0738    1.7365   -0.6215 C   0  0  0  0  0  0  0  0  0  0  0  0
    7.0992   -0.3719   -0.0385 C   0  0  0  0  0  0  0  0  0  0  0  0
   -8.3505    3.0663    0.2672 C   0  0  0  0  0  0  0  0  0  0  0  0
    7.2152    0.9837   -0.3456 C   0  0  0  0  0  0  0  0  0  0  0  0
    8.7453    2.8862   -0.6569 C   0  0  0  0  0  0  0  0  0  0  0  0
   10.5122    1.8478   -0.2610 C   0  0  0  0  0  0  0  0  0  0  0  0
   -0.6719   -0.3996   -0.0688 H   0  0  0  0  0  0  0  0  0  0  0  0
   -1.8321   -1.8969    1.4356 H   0  0  0  0  0  0  0  0  0  0  0  0
    1.3537   -2.0528   -1.0261 H   0  0  0  0  0  0  0  0  0  0  0  0
   -3.2890   -3.4480   -0.3187 H   0  0  0  0  0  0  0  0  0  0  0  0
    0.3798   -4.1426   -0.7649 H   0  0  0  0  0  0  0  0  0  0  0  0
    1.0631   -4.0441    0.8700 H   0  0  0  0  0  0  0  0  0  0  0  0
   -1.7716   -3.4152   -2.1403 H   0  0  0  0  0  0  0  0  0  0  0  0
   -2.8037   -2.0511   -2.6167 H   0  0  0  0  0  0  0  0  0  0  0  0
   -3.3575   -0.5119   -0.0311 H   0  0  0  0  0  0  0  0  0  0  0  0
   -7.3753   -0.9492   -1.8498 H   0  0  0  0  0  0  0  0  0  0  0  0
   -4.6552    0.4447    1.2104 H   0  0  0  0  0  0  0  0  0  0  0  0
   -8.7756    1.0266   -1.4890 H   0  0  0  0  0  0  0  0  0  0  0  0
   -6.0392    2.4206    1.5391 H   0  0  0  0  0  0  0  0  0  0  0  0
    3.9285    1.7203   -0.8060 H   0  0  0  0  0  0  0  0  0  0  0  0
    5.7532   -2.0306    0.2310 H   0  0  0  0  0  0  0  0  0  0  0  0
    6.1047    2.7931   -0.8662 H   0  0  0  0  0  0  0  0  0  0  0  0
    7.9636   -0.9929    0.1822 H   0  0  0  0  0  0  0  0  0  0  0  0
    8.0211    3.6511   -0.8985 H   0  0  0  0  0  0  0  0  0  0  0  0
   11.5610    1.6334   -0.1202 H   0  0  0  0  0  0  0  0  0  0  0  0
  1 35  1  0  0  0  0
  2 35  1  0  0  0  0
  3 35  1  0  0  0  0
  4 17  1  0  0  0  0
  4 20  1  0  0  0  0
  5 16  1  0  0  0  0
  5 21  1  0  0  0  0
  6 22  1  0  0  0  0
  6 27  1  0  0  0  0
  7 23  2  0  0  0  0
  8 10  1  0  0  0  0
  8 18  1  0  0  0  0
  8 22  1  0  0  0  0
  9 19  1  0  0  0  0
  9 23  1  0  0  0  0
  9 47  1  0  0  0  0
 10 12  2  0  0  0  0
 11 12  1  0  0  0  0
 11 22  2  0  0  0  0
 13 14  1  0  0  0  0
 13 36  1  0  0  0  0
 13 37  1  0  0  0  0
 14 38  2  0  0  0  0
 15 37  2  0  0  0  0
 15 38  1  0  0  0  0
 16 17  1  0  0  0  0
 16 18  1  0  0  0  0
 16 39  1  0  0  0  0
 17 19  1  0  0  0  0
 17 40  1  0  0  0  0
 18 20  1  0  0  0  0
 18 41  1  0  0  0  0
 19 21  1  0  0  0  0
 19 42  1  0  0  0  0
 20 43  1  0  0  0  0
 20 44  1  0  0  0  0
 21 45  1  0  0  0  0
 21 46  1  0  0  0  0
 23 24  1  0  0  0  0
 24 25  2  0  0  0  0
 24 26  1  0  0  0  0
 25 28  1  0  0  0  0
 25 48  1  0  0  0  0
 26 29  2  0  0  0  0
 26 49  1  0  0  0  0
 27 31  2  0  0  0  0
 27 32  1  0  0  0  0
 28 30  2  0  0  0  0
 28 50  1  0  0  0  0
 29 30  1  0  0  0  0
 29 51  1  0  0  0  0
 30 35  1  0  0  0  0
 31 33  1  0  0  0  0
 31 52  1  0  0  0  0
 32 34  2  0  0  0  0
 32 53  1  0  0  0  0
 33 36  2  0  0  0  0
 33 54  1  0  0  0  0
 34 36  1  0  0  0  0
 34 55  1  0  0  0  0
 37 56  1  0  0  0  0
 38 57  1  0  0  0  0
M  END
> <PUBCHEM_COMPOUND_CID>
11886251

> <PUBCHEM_CONFORMER_RMSD>
1

> <PUBCHEM_CONFORMER_DIVERSEORDER>
1
13
34
258
81
50
194
112
116
158
122
134
56
189
193
53
221
96
179
238
226
114
28
5
145
249
203
227
85
72
93
205
236
71
230
200
132
62
143
107
195
162
153
35
232
142
43
214
245
150
216
39
165
79
99
208
173
204
104
6
91
103
199
222
29
88
84
155
169
212
196
233
83
100
246
60
76
241
187
171
147
48
129
234
224
92
22
256
154
207
55
110
206
180
16
191
133
164
242
57
181
202
228
67
78
11
90
12
231
144
176
73
68
54
163
149
131
126
38
201
40
215
198
138
125
101
197
25
168
223
108
243
135
186
152
61
235
257
70
27
220
254
33
32
184
255
115
44
77
113
69
64
210
247
139
188
240
148
182
123
41
237
190
167
36
252
157
10
177
250
225
219
185
46
183
7
161
51
105
253
117
9
74
130
251
119
111
217
3
2
141
159
244
26
172
166
109
209
75
127
45
174
239
156
58
218
120
151
31
14
118
98
175
137
18
170
213
42
87
37
94
95
102
229
136
211
128
59
17
192
21
106
15
86
65
124
63
66
89
24
248
80
47
49
52
30
8
160
140
97
178
4
121
23
82
19
146
20

> <PUBCHEM_MMFF94_PARTIAL_CHARGES>
48
1 -0.34
10 -0.42
11 -0.34
13 0.59
14 -0.71
15 -0.57
16 0.28
17 0.28
18 0.26
19 0.3
2 -0.34
20 0.28
21 0.28
22 0.25
23 0.54
24 0.09
25 -0.15
26 -0.15
27 0.08
28 -0.15
29 -0.15
3 -0.34
30 -0.14
31 -0.15
32 -0.15
33 -0.15
34 -0.15
35 1.16
36 -0.02
37 0.04
38 0.37
4 -0.56
47 0.37
48 0.15
49 0.15
5 -0.56
50 0.15
51 0.15
52 0.15
53 0.15
54 0.15
55 0.15
56 0.15
57 0.15
6 -0.15
7 -0.57
8 0.31
9 -0.73

> <PUBCHEM_EFFECTIVE_ROTOR_COUNT>
9.2

> <PUBCHEM_PHARMACOPHORE_FEATURES>
13
1 4 acceptor
1 5 acceptor
1 7 acceptor
1 9 donor
3 13 15 37 cation
3 14 15 38 cation
3 8 11 22 cation
5 13 14 15 37 38 rings
5 4 16 17 18 20 rings
5 5 16 17 19 21 rings
5 8 10 11 12 22 rings
6 24 25 26 28 29 30 rings
6 27 31 32 33 34 36 rings

> <PUBCHEM_HEAVY_ATOM_COUNT>
38

> <PUBCHEM_ATOM_DEF_STEREO_COUNT>
4

> <PUBCHEM_ATOM_UDEF_STEREO_COUNT>
0

> <PUBCHEM_BOND_DEF_STEREO_COUNT>
0

> <PUBCHEM_BOND_UDEF_STEREO_COUNT>
0

> <PUBCHEM_ISOTOPIC_ATOM_COUNT>
0

> <PUBCHEM_COMPONENT_COUNT>
1

> <PUBCHEM_CACTVS_TAUTO_COUNT>
2

> <PUBCHEM_CONFORMER_ID>
00B55EAB00000001

> <PUBCHEM_MMFF94_ENERGY>
93.273

> <PUBCHEM_FEATURE_SELFOVERLAP>
69.404

> <PUBCHEM_SHAPE_FINGERPRINT>
10190206 1 17417820525870477227
10533779 47 14851878120286213944
10674148 151 18339356470481244240
10952577 141 18343302557240879661
11135609 99 9295283950371796544
11181472 205 18408602557636938450
11374522 79 10303802212580025013
11408170 132 18411146840623485614
11421887 21 18129388115833763257
11421887 45 18339909485501284781
11578821 258 18119531188224285636
11621639 336 18265613174246331160
11672396 167 9078823075512535745
11973864 220 18272094881028153209
12120059 9 11746925500301205747
12522641 68 18202001049138140871
12838863 1 8718818783095811033
13248334 5 18121781625468272791
14040221 8 18411976971902592736
14201967 126 18409448077178284213
14394314 77 18334294287985881245
15183329 4 16486978400995526131
15198563 99 15769512966895717280
15347590 135 14707201106620313917
15347591 1 18410576150644475071
15604295 49 18199462350510567312
15890870 6 18411699868643491041
16728433 281 17845662443300484833
16992727 255 18412829092248463448
16994733 274 18335418002170516834
19303781 99 7925616784239674489
2026 5 10231755587545796533
20609170 114 17530973519313754523
20721686 146 18342175527831491629
21057603 130 11600008756291612976
21362267 313 18409725189738528208
21585482 111 18335699391501699925
21781055 127 18335972126683791250
22002106 203 10375875148272367124
23516275 100 18120090581918698221
23528940 14 9511192824564161148
23569943 247 8430011189805867653
23576562 1 16700881881429870388
24771293 8 18334576854115744439
3178227 256 15068619410035506494
3633792 109 18343027705826821790
3711267 37 18261682548914833212
3918712 181 18339359665610228453
3986486 107 17346598573280442152
4339292 15 13901923194128798164
44575985 433 18272654515609239249
44802255 64 17561366218653300207
4516262 110 18113607980564730111
54039377 194 9943803387730052953
57303763 176 18410293585251440576
57303763 39 8574711313772329936
5776283 40 18272368698098449160
5911458 16 18335140882311957445
5937810 71 18413672401056843013
6201320 221 16271100198853109902
6201320 82 18270417026088467753
636775 72 18409449215132490909
6673363 416 18271524312698371335
6698420 124 18040156219242730074
9689198 14 18259989275011303187
9962374 69 11240002265917385774
9980921 7 18259697888552769053

> <PUBCHEM_SHAPE_MULTIPOLES>
696.88
36.05
4.42
1.42
25.98
1.66
0.7
49.66
-5.93
-6.75
-0.09
-0.41
-0.48
-3.5

> <PUBCHEM_SHAPE_SELFOVERLAP>
1549.392

> <PUBCHEM_SHAPE_VOLUME>
375.6

> <PUBCHEM_COORDINATE_TYPE>
2
5
10

$$$$
