38030122
  -OEChem-12032416243D

 65 67  0     1  0  0  0  0  0999 V2000
   -6.5283    1.4428    2.2510 O   0  0  0  0  0  0  0  0  0  0  0  0
   -0.9699   -1.8199   -1.8301 O   0  0  0  0  0  0  0  0  0  0  0  0
    5.5851   -1.1735   -0.6864 O   0  0  0  0  0  0  0  0  0  0  0  0
    0.6720   -1.4279   -0.2364 N   0  0  0  0  0  0  0  0  0  0  0  0
    3.1307   -0.0990    0.1531 N   0  0  0  0  0  0  0  0  0  0  0  0
   -3.8584    1.0179   -0.3691 C   0  0  2  0  0  0  0  0  0  0  0  0
   -3.4285   -0.2091   -1.1877 C   0  0  0  0  0  0  0  0  0  0  0  0
   -5.1082    0.6875    0.4847 C   0  0  1  0  0  0  0  0  0  0  0  0
   -3.1028   -1.4206   -0.2940 C   0  0  2  0  0  0  0  0  0  0  0  0
   -4.1068    2.2049   -1.3051 C   0  0  0  0  0  0  0  0  0  0  0  0
   -4.1704   -1.6484    0.7569 C   0  0  0  0  0  0  0  0  0  0  0  0
   -5.0661   -0.6995    1.0820 C   0  0  0  0  0  0  0  0  0  0  0  0
   -1.7200   -1.2752    0.3510 C   0  0  0  0  0  0  0  0  0  0  0  0
   -5.3032    1.7189    1.6018 C   0  0  0  0  0  0  0  0  0  0  0  0
   -2.7886    2.8821   -1.6668 C   0  0  0  0  0  0  0  0  0  0  0  0
   -4.8422    1.7475   -2.5607 C   0  0  0  0  0  0  0  0  0  0  0  0
   -4.2136   -3.0094    1.3941 C   0  0  0  0  0  0  0  0  0  0  0  0
   -0.6458   -1.5341   -0.6747 C   0  0  0  0  0  0  0  0  0  0  0  0
    1.0969   -1.0915    1.1238 C   0  0  0  0  0  0  0  0  0  0  0  0
    1.7774   -1.6850   -1.1557 C   0  0  0  0  0  0  0  0  0  0  0  0
    2.0389    0.1122    1.1134 C   0  0  0  0  0  0  0  0  0  0  0  0
    2.7269   -0.4902   -1.2070 C   0  0  0  0  0  0  0  0  0  0  0  0
    4.3250    0.6165    0.2957 C   0  0  0  0  0  0  0  0  0  0  0  0
    5.5361    0.0683   -0.1265 C   0  0  0  0  0  0  0  0  0  0  0  0
    4.2968    1.8890    0.8661 C   0  0  0  0  0  0  0  0  0  0  0  0
    6.7188    0.7925    0.0215 C   0  0  0  0  0  0  0  0  0  0  0  0
    5.4797    2.6133    1.0143 C   0  0  0  0  0  0  0  0  0  0  0  0
    6.6907    2.0652    0.5921 C   0  0  0  0  0  0  0  0  0  0  0  0
    5.7778   -2.2751    0.1985 C   0  0  0  0  0  0  0  0  0  0  0  0
   -3.0486    1.2872    0.3217 H   0  0  0  0  0  0  0  0  0  0  0  0
   -2.5813    0.0339   -1.8355 H   0  0  0  0  0  0  0  0  0  0  0  0
   -4.2423   -0.5389   -1.8465 H   0  0  0  0  0  0  0  0  0  0  0  0
   -6.0065    0.7035   -0.1465 H   0  0  0  0  0  0  0  0  0  0  0  0
   -3.1171   -2.3069   -0.9443 H   0  0  0  0  0  0  0  0  0  0  0  0
   -4.7245    2.9606   -0.8094 H   0  0  0  0  0  0  0  0  0  0  0  0
   -5.8380   -0.9474    1.8075 H   0  0  0  0  0  0  0  0  0  0  0  0
   -1.5858   -2.0140    1.1487 H   0  0  0  0  0  0  0  0  0  0  0  0
   -1.5838   -0.2785    0.7809 H   0  0  0  0  0  0  0  0  0  0  0  0
   -5.3534    2.7402    1.2167 H   0  0  0  0  0  0  0  0  0  0  0  0
   -4.4945    1.6655    2.3394 H   0  0  0  0  0  0  0  0  0  0  0  0
   -2.1111    2.2137   -2.2071 H   0  0  0  0  0  0  0  0  0  0  0  0
   -2.2709    3.2361   -0.7689 H   0  0  0  0  0  0  0  0  0  0  0  0
   -2.9694    3.7532   -2.3062 H   0  0  0  0  0  0  0  0  0  0  0  0
   -4.2080    1.1771   -3.2476 H   0  0  0  0  0  0  0  0  0  0  0  0
   -5.1733    2.6285   -3.1244 H   0  0  0  0  0  0  0  0  0  0  0  0
   -5.7431    1.1690   -2.3357 H   0  0  0  0  0  0  0  0  0  0  0  0
   -4.2925   -3.7862    0.6265 H   0  0  0  0  0  0  0  0  0  0  0  0
   -5.0736   -3.1233    2.0630 H   0  0  0  0  0  0  0  0  0  0  0  0
   -3.3131   -3.1950    1.9862 H   0  0  0  0  0  0  0  0  0  0  0  0
    1.6159   -1.9727    1.5208 H   0  0  0  0  0  0  0  0  0  0  0  0
    0.2546   -0.8894    1.7872 H   0  0  0  0  0  0  0  0  0  0  0  0
    1.4074   -1.9098   -2.1609 H   0  0  0  0  0  0  0  0  0  0  0  0
    2.3037   -2.5753   -0.7905 H   0  0  0  0  0  0  0  0  0  0  0  0
    1.4754    1.0126    0.8373 H   0  0  0  0  0  0  0  0  0  0  0  0
    2.4292    0.2470    2.1295 H   0  0  0  0  0  0  0  0  0  0  0  0
    3.5692   -0.7432   -1.8569 H   0  0  0  0  0  0  0  0  0  0  0  0
    2.2168    0.3626   -1.6741 H   0  0  0  0  0  0  0  0  0  0  0  0
   -6.6319    2.0987    2.9614 H   0  0  0  0  0  0  0  0  0  0  0  0
    3.3716    2.3557    1.1919 H   0  0  0  0  0  0  0  0  0  0  0  0
    7.6659    0.3723   -0.3060 H   0  0  0  0  0  0  0  0  0  0  0  0
    5.4577    3.6058    1.4551 H   0  0  0  0  0  0  0  0  0  0  0  0
    7.6115    2.6295    0.7065 H   0  0  0  0  0  0  0  0  0  0  0  0
    5.7775   -3.1940   -0.3941 H   0  0  0  0  0  0  0  0  0  0  0  0
    4.9654   -2.3315    0.9299 H   0  0  0  0  0  0  0  0  0  0  0  0
    6.7406   -2.1900    0.7122 H   0  0  0  0  0  0  0  0  0  0  0  0
  1 14  1  0  0  0  0
  1 58  1  0  0  0  0
  2 18  2  0  0  0  0
  3 24  1  0  0  0  0
  3 29  1  0  0  0  0
  4 18  1  0  0  0  0
  4 19  1  0  0  0  0
  4 20  1  0  0  0  0
  5 21  1  0  0  0  0
  5 22  1  0  0  0  0
  5 23  1  0  0  0  0
  6  7  1  0  0  0  0
  6  8  1  0  0  0  0
  6 10  1  0  0  0  0
  6 30  1  0  0  0  0
  7  9  1  0  0  0  0
  7 31  1  0  0  0  0
  7 32  1  0  0  0  0
  8 12  1  0  0  0  0
  8 14  1  0  0  0  0
  8 33  1  0  0  0  0
  9 11  1  0  0  0  0
  9 13  1  0  0  0  0
  9 34  1  0  0  0  0
 10 15  1  0  0  0  0
 10 16  1  0  0  0  0
 10 35  1  0  0  0  0
 11 12  2  0  0  0  0
 11 17  1  0  0  0  0
 12 36  1  0  0  0  0
 13 18  1  0  0  0  0
 13 37  1  0  0  0  0
 13 38  1  0  0  0  0
 14 39  1  0  0  0  0
 14 40  1  0  0  0  0
 15 41  1  0  0  0  0
 15 42  1  0  0  0  0
 15 43  1  0  0  0  0
 16 44  1  0  0  0  0
 16 45  1  0  0  0  0
 16 46  1  0  0  0  0
 17 47  1  0  0  0  0
 17 48  1  0  0  0  0
 17 49  1  0  0  0  0
 19 21  1  0  0  0  0
 19 50  1  0  0  0  0
 19 51  1  0  0  0  0
 20 22  1  0  0  0  0
 20 52  1  0  0  0  0
 20 53  1  0  0  0  0
 21 54  1  0  0  0  0
 21 55  1  0  0  0  0
 22 56  1  0  0  0  0
 22 57  1  0  0  0  0
 23 24  1  0  0  0  0
 23 25  2  0  0  0  0
 24 26  2  0  0  0  0
 25 27  1  0  0  0  0
 25 59  1  0  0  0  0
 26 28  1  0  0  0  0
 26 60  1  0  0  0  0
 27 28  2  0  0  0  0
 27 61  1  0  0  0  0
 28 62  1  0  0  0  0
 29 63  1  0  0  0  0
 29 64  1  0  0  0  0
 29 65  1  0  0  0  0
M  END
> <PUBCHEM_COMPOUND_CID>
38030122

> <PUBCHEM_CONFORMER_RMSD>
1

> <PUBCHEM_CONFORMER_DIVERSEORDER>
1
134
81
24
82
77
129
57
111
148
147
121
49
9
29
132
115
83
103
102
33
56
133
37
68
91
135
107
127
78
128
46
137
140
16
126
130
51
89
76
20
112
15
65
74
123
61
4
93
96
18
53
97
110
12
39
73
43
45
17
69
58
70
23
87
122
62
85
50
55
59
10
35
100
32
75
150
101
40
120
41
99
72
79
117
141
19
138
54
66
8
92
5
2
105
30
42
88
21
36
90
131
63
67
119
144
142
14
95
108
80
22
114
7
27
38
106
118
136
149
109
98
26
143
145
94
139
104
44
31
60
3
48
86
6
116
11
124
28
64
47
34
146
113
25
125
52
71
84
13

> <PUBCHEM_MMFF94_PARTIAL_CHARGES>
30
1 -0.68
11 -0.28
12 -0.29
13 0.06
14 0.28
17 0.14
18 0.57
19 0.3
2 -0.57
20 0.3
21 0.37
22 0.37
23 0.1
24 0.08
25 -0.15
26 -0.15
27 -0.15
28 -0.15
29 0.28
3 -0.36
36 0.15
4 -0.66
5 -0.84
58 0.4
59 0.15
60 0.15
61 0.15
62 0.15
8 0.14
9 0.14

> <PUBCHEM_EFFECTIVE_ROTOR_COUNT>
9

> <PUBCHEM_PHARMACOPHORE_FEATURES>
9
1 1 acceptor
1 1 donor
1 2 acceptor
1 3 acceptor
1 5 cation
3 10 15 16 hydrophobe
6 23 24 25 26 27 28 rings
6 4 5 19 20 21 22 rings
6 6 7 8 9 11 12 rings

> <PUBCHEM_HEAVY_ATOM_COUNT>
29

> <PUBCHEM_ATOM_DEF_STEREO_COUNT>
3

> <PUBCHEM_ATOM_UDEF_STEREO_COUNT>
0

> <PUBCHEM_BOND_DEF_STEREO_COUNT>
0

> <PUBCHEM_BOND_UDEF_STEREO_COUNT>
0

> <PUBCHEM_ISOTOPIC_ATOM_COUNT>
0

> <PUBCHEM_COMPONENT_COUNT>
1

> <PUBCHEM_CACTVS_TAUTO_COUNT>
1

> <PUBCHEM_CONFORMER_ID>
02444B2A00000001

> <PUBCHEM_MMFF94_ENERGY>
97.6102

> <PUBCHEM_FEATURE_SELFOVERLAP>
45.671

> <PUBCHEM_SHAPE_FINGERPRINT>
10290309 65 18188209780744075331
10369192 42 17988369285497218909
10554248 39 17489308564617009822
10930396 42 17676486177535727297
12128747 34 18115307748659141174
12422481 6 18334867125170146117
12596602 18 15791452621405259676
13785724 45 17912652302969541654
14739800 52 18042667460380852936
14849402 71 16951420995298761156
14856354 85 17895765122035229331
14933364 13 18411986892433046802
15183329 4 17775283872321315084
15484559 13 15469492243327137065
16110190 28 18335708281725293109
17844677 252 18333733541788064446
19377110 9 16443339888516458634
20028762 73 11530749419674364944
20281389 69 18335136483938054324
20511986 3 17203039799151271202
20691028 202 18131633383059934801
21033648 144 18411134719371337535
21033648 29 18271515503092537600
21279426 13 18336825299998022030
21315759 148 18114184168092602546
21315764 268 18410570716882110900
21927370 108 17970073443099807419
22956985 138 16816875041703506587
23522609 53 12253040481574821366
23569914 2 17689100873766662932
2838139 119 18272646796987946629
392239 28 17604150436355494561
4073 2 18262524813861485218
4144715 1 18334584537875988074
465052 167 13190335790791278882
4938544 92 15647326395647899983
5104073 3 18408041818721704738
5718773 13 11530772543619621833
57724786 102 18058735684870931615
6697151 62 17979900628509621510

> <PUBCHEM_SHAPE_MULTIPOLES>
569.24
18.72
3.15
1.81
14.75
0.44
-0.23
7.97
5.18
-1.33
-0.12
-2.87
0.69
2.68

> <PUBCHEM_SHAPE_SELFOVERLAP>
1179.997

> <PUBCHEM_SHAPE_VOLUME>
323.8

> <PUBCHEM_COORDINATE_TYPE>
2
5
10

$$$$
