75536697
  -OEChem-12032416303D

 47 49  0     1  0  0  0  0  0999 V2000
    2.8871    1.9560   -0.1393 S   0  0  0  0  0  0  0  0  0  0  0  0
   -1.4379    0.9463   -1.2086 O   0  0  0  0  0  0  0  0  0  0  0  0
   -2.0114    0.7643    2.3330 O   0  0  0  0  0  0  0  0  0  0  0  0
    2.8958    2.5065    1.2027 O   0  0  0  0  0  0  0  0  0  0  0  0
    3.5285    2.6718   -1.2254 O   0  0  0  0  0  0  0  0  0  0  0  0
   -4.2140   -0.6044    0.5577 N   0  0  0  0  0  0  0  0  0  0  0  0
    1.2876    1.5884   -0.5872 N   0  0  0  0  0  0  0  0  0  0  0  0
   -5.5043   -0.2437   -0.0110 C   0  0  0  0  0  0  0  0  0  0  0  0
   -3.2401    0.4303    0.2500 C   0  0  1  0  0  0  0  0  0  0  0  0
   -5.7563   -1.0887   -1.2786 C   0  0  0  0  0  0  0  0  0  0  0  0
   -6.6121   -1.0737    0.6733 C   0  0  0  0  0  0  0  0  0  0  0  0
   -1.9330    0.2806    1.0062 C   0  0  1  0  0  0  0  0  0  0  0  0
   -7.1891   -1.3082   -0.7414 C   0  0  0  0  0  0  0  0  0  0  0  0
   -0.9997    1.1245    0.1486 C   0  0  1  0  0  0  0  0  0  0  0  0
   -2.7607    0.3817   -1.1916 C   0  0  0  0  0  0  0  0  0  0  0  0
    0.4590    0.7222    0.2741 C   0  0  0  0  0  0  0  0  0  0  0  0
    3.6227    0.3499   -0.0741 C   0  0  0  0  0  0  0  0  0  0  0  0
    4.2178   -0.1909   -1.2138 C   0  0  0  0  0  0  0  0  0  0  0  0
    3.6054   -0.3776    1.1159 C   0  0  0  0  0  0  0  0  0  0  0  0
    4.7958   -1.4593   -1.1635 C   0  0  0  0  0  0  0  0  0  0  0  0
    4.1834   -1.6460    1.1662 C   0  0  0  0  0  0  0  0  0  0  0  0
    4.7788   -2.1869    0.0265 C   0  0  0  0  0  0  0  0  0  0  0  0
    5.3968   -3.5432    0.0802 C   0  0  0  0  0  0  0  0  0  0  0  0
   -5.7507    0.8217   -0.0921 H   0  0  0  0  0  0  0  0  0  0  0  0
   -3.6523    1.4227    0.4823 H   0  0  0  0  0  0  0  0  0  0  0  0
   -5.1811   -2.0195   -1.3600 H   0  0  0  0  0  0  0  0  0  0  0  0
   -5.6926   -0.5506   -2.2284 H   0  0  0  0  0  0  0  0  0  0  0  0
   -7.2627   -0.5229    1.3582 H   0  0  0  0  0  0  0  0  0  0  0  0
   -6.2892   -2.0014    1.1623 H   0  0  0  0  0  0  0  0  0  0  0  0
   -1.6087   -0.7673    1.0305 H   0  0  0  0  0  0  0  0  0  0  0  0
   -7.6199   -2.2958   -0.9228 H   0  0  0  0  0  0  0  0  0  0  0  0
   -7.9034   -0.5404   -1.0605 H   0  0  0  0  0  0  0  0  0  0  0  0
   -4.2452   -0.7219    1.5710 H   0  0  0  0  0  0  0  0  0  0  0  0
   -1.1050    2.1907    0.3893 H   0  0  0  0  0  0  0  0  0  0  0  0
   -2.6756   -0.6437   -1.5693 H   0  0  0  0  0  0  0  0  0  0  0  0
   -3.4050    0.9483   -1.8707 H   0  0  0  0  0  0  0  0  0  0  0  0
    0.5979   -0.3115   -0.0616 H   0  0  0  0  0  0  0  0  0  0  0  0
    0.7725    0.8051    1.3191 H   0  0  0  0  0  0  0  0  0  0  0  0
   -2.2989    1.6925    2.3037 H   0  0  0  0  0  0  0  0  0  0  0  0
    1.0483    1.5836   -1.5867 H   0  0  0  0  0  0  0  0  0  0  0  0
    4.2359    0.3548   -2.1529 H   0  0  0  0  0  0  0  0  0  0  0  0
    3.1454    0.0232    2.0146 H   0  0  0  0  0  0  0  0  0  0  0  0
    5.2565   -1.8701   -2.0580 H   0  0  0  0  0  0  0  0  0  0  0  0
    4.1647   -2.2028    2.0994 H   0  0  0  0  0  0  0  0  0  0  0  0
    6.4511   -3.4645    0.3634 H   0  0  0  0  0  0  0  0  0  0  0  0
    4.8846   -4.1823    0.8075 H   0  0  0  0  0  0  0  0  0  0  0  0
    5.3306   -4.0463   -0.8905 H   0  0  0  0  0  0  0  0  0  0  0  0
  1  4  2  0  0  0  0
  1  5  2  0  0  0  0
  1  7  1  0  0  0  0
  1 17  1  0  0  0  0
  2 14  1  0  0  0  0
  2 15  1  0  0  0  0
  3 12  1  0  0  0  0
  3 39  1  0  0  0  0
  6  8  1  0  0  0  0
  6  9  1  0  0  0  0
  6 33  1  0  0  0  0
  7 16  1  0  0  0  0
  7 40  1  0  0  0  0
  8 10  1  0  0  0  0
  8 11  1  0  0  0  0
  8 24  1  0  0  0  0
  9 12  1  0  0  0  0
  9 15  1  0  0  0  0
  9 25  1  0  0  0  0
 10 13  1  0  0  0  0
 10 26  1  0  0  0  0
 10 27  1  0  0  0  0
 11 13  1  0  0  0  0
 11 28  1  0  0  0  0
 11 29  1  0  0  0  0
 12 14  1  0  0  0  0
 12 30  1  0  0  0  0
 13 31  1  0  0  0  0
 13 32  1  0  0  0  0
 14 16  1  0  0  0  0
 14 34  1  0  0  0  0
 15 35  1  0  0  0  0
 15 36  1  0  0  0  0
 16 37  1  0  0  0  0
 16 38  1  0  0  0  0
 17 18  2  0  0  0  0
 17 19  1  0  0  0  0
 18 20  1  0  0  0  0
 18 41  1  0  0  0  0
 19 21  2  0  0  0  0
 19 42  1  0  0  0  0
 20 22  2  0  0  0  0
 20 43  1  0  0  0  0
 21 22  1  0  0  0  0
 21 44  1  0  0  0  0
 22 23  1  0  0  0  0
 23 45  1  0  0  0  0
 23 46  1  0  0  0  0
 23 47  1  0  0  0  0
M  END
> <PUBCHEM_COMPOUND_CID>
75536697

> <PUBCHEM_CONFORMER_RMSD>
0.8

> <PUBCHEM_CONFORMER_DIVERSEORDER>
1
102
28
138
4
187
67
201
132
73
150
20
182
140
191
168
205
142
165
163
199
68
134
202
111
149
69
99
110
41
186
158
123
65
50
130
126
171
190
121
204
103
97
120
49
116
34
192
127
76
109
93
26
94
75
15
90
37
164
181
89
194
174
78
136
96
85
112
179
7
124
125
172
27
88
42
56
95
147
44
177
46
54
162
32
70
3
58
101
80
21
197
169
152
23
119
159
115
48
200
173
166
62
72
175
60
82
195
156
128
36
39
16
100
180
17
160
104
22
107
151
113
114
33
9
47
154
198
161
43
25
148
157
170
35
86
6
10
184
117
84
189
203
5
118
122
145
144
92
13
63
193
131
135
24
12
83
81
29
155
185
188
57
71
45
18
167
129
64
106
146
51
137
59
178
139
183
55
196
14
19
206
143
108
8
87
30
53
31
79
11
77
105
74
153
52
38
133
176
98
66
141
40
91
61
2

> <PUBCHEM_MMFF94_PARTIAL_CHARGES>
27
1 1.45
12 0.28
14 0.28
15 0.28
16 0.36
17 -0.01
18 -0.15
19 -0.15
2 -0.56
20 -0.15
21 -0.15
22 -0.14
23 0.14
3 -0.68
33 0.36
39 0.4
4 -0.65
40 0.42
41 0.15
42 0.15
43 0.15
44 0.15
5 -0.65
6 -0.84
7 -0.91
8 0.21
9 0.27

> <PUBCHEM_EFFECTIVE_ROTOR_COUNT>
7.8

> <PUBCHEM_PHARMACOPHORE_FEATURES>
11
1 2 acceptor
1 3 acceptor
1 3 donor
1 4 acceptor
1 5 acceptor
1 6 cation
1 6 donor
1 7 donor
4 8 10 11 13 rings
5 2 9 12 14 15 rings
6 17 18 19 20 21 22 rings

> <PUBCHEM_HEAVY_ATOM_COUNT>
23

> <PUBCHEM_ATOM_DEF_STEREO_COUNT>
3

> <PUBCHEM_ATOM_UDEF_STEREO_COUNT>
0

> <PUBCHEM_BOND_DEF_STEREO_COUNT>
0

> <PUBCHEM_BOND_UDEF_STEREO_COUNT>
0

> <PUBCHEM_ISOTOPIC_ATOM_COUNT>
0

> <PUBCHEM_COMPONENT_COUNT>
1

> <PUBCHEM_CACTVS_TAUTO_COUNT>
1

> <PUBCHEM_CONFORMER_ID>
0480993900000001

> <PUBCHEM_MMFF94_ENERGY>
45.3569

> <PUBCHEM_FEATURE_SELFOVERLAP>
55.84

> <PUBCHEM_SHAPE_FINGERPRINT>
10 15 13686294703908029323
10319926 262 16056331517934229537
10366900 7 17313109601050950538
10498660 4 14057014814509616788
10670039 82 14562801106409774862
10906281 52 13118271518400777269
11858739 19 18335697256791475493
11954058 11 18130511847171790726
12166972 35 18343021064815124882
125118 31 9799428723874919127
12616971 3 17774996904086818637
13533116 47 18342176695471725793
1361 4 18266740371597008167
13782708 43 18411415138176639199
13955234 65 18269552904955177392
14211702 104 18267022941853721679
14251764 75 10374998879996506938
14347332 77 18410291376878712237
14528608 73 12684812212543347567
14931854 50 17386294164902124218
15183329 4 14851601073209580607
15188451 53 17846492595768993499
15348495 7 12607404416610527733
15475509 8 17167861925121358581
15575132 122 12180113260429478719
15840311 113 9439141870482109283
17349148 13 18059862757155808879
17857418 61 18344146999108157351
20028762 73 18202281385763700030
20567600 234 12103840194465253779
20645477 70 18260547831677098964
20775438 99 18190730024255964482
21150785 3 12685098111942982859
21279426 13 17894619337067772333
21344244 181 18040999570568220747
21344244 78 17489580161037363544
21521239 73 18187357775344281067
21637258 2 18202275910370532127
21641784 216 14923931333214471919
21682296 61 18409731725497175391
21792934 111 15338850720816263603
220451 1 18200601427175853989
22061861 79 18186515519129702695
221357 26 17968095300524957372
2215653 11 17748827423433633187
22849339 104 15719689739675387867
2303208 19 17458350775523617755
23081809 10 18201162139625517089
23522609 53 18123223205718791085
23559900 14 17022913370859396973
23569943 247 18261673650265037083
270888 7 9078528418796137142
2916195 48 11672065238191649335
29717793 49 18335136505750728341
3004659 81 18343867735765167725
3472631 163 11386379131361347930
34797466 226 16443352017704621245
3886686 26 16265766338222061519
397830 11 10807645745069841733
46194498 28 17748826341207545788
465052 167 18413392020848445742
5104073 3 17775003457769419961
531348 171 18412821370946707295
5718773 13 18263076614058966594
59682541 52 18260824917207633447
6025842 7 18261958561136085884
7970288 3 18267584607342928686
960060 61 17676496038115409358

> <PUBCHEM_SHAPE_MULTIPOLES>
443.74
17.39
2.73
1.44
21.21
0.61
0.23
13.48
-2.28
-5.53
-0.11
0.09
-0.18
-0.75

> <PUBCHEM_SHAPE_SELFOVERLAP>
911.318

> <PUBCHEM_SHAPE_VOLUME>
257.8

> <PUBCHEM_COORDINATE_TYPE>
2
5
10

$$$$
