75536490
  -OEChem-12032416333D

 62 65  0     1  0  0  0  0  0999 V2000
   -1.3475   -0.2415    0.9783 O   0  0  0  0  0  0  0  0  0  0  0  0
    0.3846    0.5026   -2.0799 O   0  0  0  0  0  0  0  0  0  0  0  0
   -8.2211    0.9594    0.1573 O   0  0  0  0  0  0  0  0  0  0  0  0
   -4.0852   -1.6387    0.9493 O   0  0  0  0  0  0  0  0  0  0  0  0
    2.2362    0.0208    0.4131 N   0  0  0  0  0  0  0  0  0  0  0  0
   -3.6373   -0.6172   -1.0558 N   0  0  0  0  0  0  0  0  0  0  0  0
   -5.7906   -0.4614   -0.0930 N   0  0  0  0  0  0  0  0  0  0  0  0
    4.0171   -2.3708   -0.7194 N   0  0  0  0  0  0  0  0  0  0  0  0
    4.3786    2.2821   -0.2727 N   0  0  0  0  0  0  0  0  0  0  0  0
    4.7031   -2.1293    1.3789 N   0  0  0  0  0  0  0  0  0  0  0  0
    2.7560    3.3729    0.7802 N   0  0  0  0  0  0  0  0  0  0  0  0
    0.8388    0.4102    0.3171 C   0  0  1  0  0  0  0  0  0  0  0  0
    0.1196   -0.1912   -0.8762 C   0  0  1  0  0  0  0  0  0  0  0  0
   -1.3338   -0.0471   -0.4458 C   0  0  1  0  0  0  0  0  0  0  0  0
   -0.0019   -0.1133    1.4700 C   0  0  0  0  0  0  0  0  0  0  0  0
   -2.2591   -1.0511   -1.1099 C   0  0  0  0  0  0  0  0  0  0  0  0
    2.3606   -1.3621    0.8830 C   0  0  0  0  0  0  0  0  0  0  0  0
    2.9683    0.9234    1.3065 C   0  0  0  0  0  0  0  0  0  0  0  0
    3.7040   -1.9510    0.5435 C   0  0  0  0  0  0  0  0  0  0  0  0
    3.3450    2.2089    0.6191 C   0  0  0  0  0  0  0  0  0  0  0  0
   -4.4769   -0.9513    0.0002 C   0  0  0  0  0  0  0  0  0  0  0  0
   -6.3780    0.2294   -1.2499 C   0  0  0  0  0  0  0  0  0  0  0  0
   -6.7457   -0.7715    0.9732 C   0  0  0  0  0  0  0  0  0  0  0  0
    5.2975   -2.8471   -0.6872 C   0  0  0  0  0  0  0  0  0  0  0  0
    4.4533    3.5753   -0.7081 C   0  0  0  0  0  0  0  0  0  0  0  0
   -7.2537    1.3937   -0.7993 C   0  0  0  0  0  0  0  0  0  0  0  0
   -7.5815    0.4482    1.3282 C   0  0  0  0  0  0  0  0  0  0  0  0
    3.1652   -2.3267   -1.8844 C   0  0  0  0  0  0  0  0  0  0  0  0
    5.2426    1.2030   -0.6899 C   0  0  0  0  0  0  0  0  0  0  0  0
    5.6997   -2.6876    0.6180 C   0  0  0  0  0  0  0  0  0  0  0  0
    3.4421    4.2291   -0.0443 C   0  0  0  0  0  0  0  0  0  0  0  0
    0.7385    1.5015    0.2435 H   0  0  0  0  0  0  0  0  0  0  0  0
    0.3603   -1.2464   -1.0359 H   0  0  0  0  0  0  0  0  0  0  0  0
   -1.6881    0.9735   -0.6438 H   0  0  0  0  0  0  0  0  0  0  0  0
    0.2294   -1.1009    1.8690 H   0  0  0  0  0  0  0  0  0  0  0  0
   -0.0048    0.5831    2.3153 H   0  0  0  0  0  0  0  0  0  0  0  0
   -2.1740   -2.0381   -0.6420 H   0  0  0  0  0  0  0  0  0  0  0  0
   -2.0191   -1.1490   -2.1740 H   0  0  0  0  0  0  0  0  0  0  0  0
    1.6151   -2.0390    0.4503 H   0  0  0  0  0  0  0  0  0  0  0  0
    2.2556   -1.4311    1.9751 H   0  0  0  0  0  0  0  0  0  0  0  0
    3.8989    0.4728    1.6724 H   0  0  0  0  0  0  0  0  0  0  0  0
    2.3917    1.1526    2.2126 H   0  0  0  0  0  0  0  0  0  0  0  0
    0.1566    1.4387   -1.9503 H   0  0  0  0  0  0  0  0  0  0  0  0
   -3.9476   -0.0308   -1.8170 H   0  0  0  0  0  0  0  0  0  0  0  0
   -6.9923   -0.5186   -1.7653 H   0  0  0  0  0  0  0  0  0  0  0  0
   -5.6398    0.5967   -1.9604 H   0  0  0  0  0  0  0  0  0  0  0  0
   -6.2356   -1.1522    1.8631 H   0  0  0  0  0  0  0  0  0  0  0  0
   -7.3900   -1.5697    0.5857 H   0  0  0  0  0  0  0  0  0  0  0  0
   -6.6494    2.1978   -0.3624 H   0  0  0  0  0  0  0  0  0  0  0  0
   -7.7922    1.8103   -1.6563 H   0  0  0  0  0  0  0  0  0  0  0  0
   -8.3614    0.1742    2.0454 H   0  0  0  0  0  0  0  0  0  0  0  0
   -6.9692    1.2363    1.7824 H   0  0  0  0  0  0  0  0  0  0  0  0
    5.7969   -3.2435   -1.5603 H   0  0  0  0  0  0  0  0  0  0  0  0
    5.1895    3.9099   -1.4256 H   0  0  0  0  0  0  0  0  0  0  0  0
    2.2642   -2.9105   -1.6827 H   0  0  0  0  0  0  0  0  0  0  0  0
    2.9189   -1.2850   -2.1007 H   0  0  0  0  0  0  0  0  0  0  0  0
    3.6953   -2.7597   -2.7369 H   0  0  0  0  0  0  0  0  0  0  0  0
    5.6569    0.7133    0.1937 H   0  0  0  0  0  0  0  0  0  0  0  0
    4.6574    0.5083   -1.2946 H   0  0  0  0  0  0  0  0  0  0  0  0
    6.0606    1.6090   -1.2912 H   0  0  0  0  0  0  0  0  0  0  0  0
    6.6562   -2.9458    1.0483 H   0  0  0  0  0  0  0  0  0  0  0  0
    3.1729    5.2725   -0.1185 H   0  0  0  0  0  0  0  0  0  0  0  0
  1 14  1  0  0  0  0
  1 15  1  0  0  0  0
  2 13  1  0  0  0  0
  2 43  1  0  0  0  0
  3 26  1  0  0  0  0
  3 27  1  0  0  0  0
  4 21  2  0  0  0  0
  5 12  1  0  0  0  0
  5 17  1  0  0  0  0
  5 18  1  0  0  0  0
  6 16  1  0  0  0  0
  6 21  1  0  0  0  0
  6 44  1  0  0  0  0
  7 21  1  0  0  0  0
  7 22  1  0  0  0  0
  7 23  1  0  0  0  0
  8 19  1  0  0  0  0
  8 24  1  0  0  0  0
  8 28  1  0  0  0  0
  9 20  1  0  0  0  0
  9 25  1  0  0  0  0
  9 29  1  0  0  0  0
 10 19  2  0  0  0  0
 10 30  1  0  0  0  0
 11 20  2  0  0  0  0
 11 31  1  0  0  0  0
 12 13  1  0  0  0  0
 12 15  1  0  0  0  0
 12 32  1  0  0  0  0
 13 14  1  0  0  0  0
 13 33  1  0  0  0  0
 14 16  1  0  0  0  0
 14 34  1  0  0  0  0
 15 35  1  0  0  0  0
 15 36  1  0  0  0  0
 16 37  1  0  0  0  0
 16 38  1  0  0  0  0
 17 19  1  0  0  0  0
 17 39  1  0  0  0  0
 17 40  1  0  0  0  0
 18 20  1  0  0  0  0
 18 41  1  0  0  0  0
 18 42  1  0  0  0  0
 22 26  1  0  0  0  0
 22 45  1  0  0  0  0
 22 46  1  0  0  0  0
 23 27  1  0  0  0  0
 23 47  1  0  0  0  0
 23 48  1  0  0  0  0
 24 30  2  0  0  0  0
 24 53  1  0  0  0  0
 25 31  2  0  0  0  0
 25 54  1  0  0  0  0
 26 49  1  0  0  0  0
 26 50  1  0  0  0  0
 27 51  1  0  0  0  0
 27 52  1  0  0  0  0
 28 55  1  0  0  0  0
 28 56  1  0  0  0  0
 28 57  1  0  0  0  0
 29 58  1  0  0  0  0
 29 59  1  0  0  0  0
 29 60  1  0  0  0  0
 30 61  1  0  0  0  0
 31 62  1  0  0  0  0
M  END
> <PUBCHEM_COMPOUND_CID>
75536490

> <PUBCHEM_CONFORMER_RMSD>
1.2

> <PUBCHEM_CONFORMER_DIVERSEORDER>
5
80
116
182
108
14
75
140
186
3
109
41
111
165
179
32
11
78
156
184
67
187
35
188
170
180
64
122
151
160
45
141
15
161
18
47
173
103
85
20
43
69
31
117
91
123
102
9
4
60
148
183
58
178
168
28
175
6
30
149
36
136
26
87
177
104
83
146
120
98
19
115
65
84
162
189
112
13
76
105
82
2
150
10
167
128
114
163
94
147
55
21
126
89
56
143
24
12
29
54
106
44
79
131
88
90
46
138
51
125
159
101
181
169
72
157
118
137
107
121
158
176
134
16
74
171
145
119
59
124
7
133
62
97
50
174
63
40
100
130
25
96
153
77
27
113
144
81
70
8
68
127
95
142
172
23
110
132
155
129
52
57
92
38
152
66
135
139
164
17
49
166
53
185
73
93
86
1
154
42
37
48
99
71
39
22
33
61
34

> <PUBCHEM_MMFF94_PARTIAL_CHARGES>
37
1 -0.56
10 -0.57
11 -0.57
12 0.27
13 0.28
14 0.28
15 0.28
16 0.3
17 0.45
18 0.45
19 0.01
2 -0.68
20 0.01
21 0.69
22 0.3
23 0.3
24 -0.3
25 -0.3
26 0.28
27 0.28
28 0.26
29 0.26
3 -0.56
30 0.08
31 0.08
4 -0.57
43 0.4
44 0.37
5 -0.81
53 0.15
54 0.15
6 -0.73
61 0.15
62 0.15
7 -0.66
8 0.05
9 0.05

> <PUBCHEM_EFFECTIVE_ROTOR_COUNT>
11.2

> <PUBCHEM_PHARMACOPHORE_FEATURES>
13
1 1 acceptor
1 2 acceptor
1 2 donor
1 3 acceptor
1 4 acceptor
1 5 cation
1 6 donor
3 8 10 19 cation
3 9 11 20 cation
5 1 12 13 14 15 rings
5 8 10 19 24 30 rings
5 9 11 20 25 31 rings
6 3 7 22 23 26 27 rings

> <PUBCHEM_HEAVY_ATOM_COUNT>
31

> <PUBCHEM_ATOM_DEF_STEREO_COUNT>
3

> <PUBCHEM_ATOM_UDEF_STEREO_COUNT>
0

> <PUBCHEM_BOND_DEF_STEREO_COUNT>
0

> <PUBCHEM_BOND_UDEF_STEREO_COUNT>
0

> <PUBCHEM_ISOTOPIC_ATOM_COUNT>
0

> <PUBCHEM_COMPONENT_COUNT>
1

> <PUBCHEM_CACTVS_TAUTO_COUNT>
2

> <PUBCHEM_CONFORMER_ID>
0480986A00000005

> <PUBCHEM_MMFF94_ENERGY>
60.9871

> <PUBCHEM_FEATURE_SELFOVERLAP>
65.977

> <PUBCHEM_SHAPE_FINGERPRINT>
10554248 39 18060128835244638597
10721379 63 18413113883578255848
11093857 5 17386861675641414003
11578080 2 17895767330091264706
12730499 353 18262522627601188272
12778500 126 18413674608158369372
13533116 47 18409166623279478368
13878862 14 18267562715788723613
13955234 65 18336539517184619730
15081414 286 18114456855392236957
15131766 46 18125714841159864093
15183329 4 16630809911661918249
15348495 7 18335139821771631075
1577012 14 17918274277672403185
15840311 113 18334293167959194285
17844677 252 18335981987321903789
17899979 129 18192716863611606564
1813 80 18129104433871168158
21315759 148 18041566965775525579
22033318 11 18057343703334960217
22149856 69 14707482548218584709
23081809 10 17918268780024613279
23559900 14 18410003351544054098
255183 451 18200039426505397822
3004659 81 17846784005004936350
3178227 256 18335698304542716546
3411729 13 18337109081250669348
397830 11 18187935040518463899
4073 2 18042971054634576883
4093350 32 18410294709330222274
4144715 1 18187652440270760609
57724786 102 18341610438947290029
58260988 587 18188216519631879356
9658208 31 17168150065396793539

> <PUBCHEM_SHAPE_MULTIPOLES>
579.62
19.86
3.88
1.5
43.74
3.15
0.21
0.08
-0.9
-10.38
0.28
0.13
-0.37
0.21

> <PUBCHEM_SHAPE_SELFOVERLAP>
1218.433

> <PUBCHEM_SHAPE_VOLUME>
326.6

> <PUBCHEM_COORDINATE_TYPE>
2
5
10

$$$$
