7134496
  -OEChem-12032416153D

 65 67  0     1  0  0  0  0  0999 V2000
    5.5256    0.6283    0.6884 S   0  0  0  0  0  0  0  0  0  0  0  0
   -0.9404   -2.2986    1.6283 O   0  0  0  0  0  0  0  0  0  0  0  0
    1.8583   -4.2623   -1.3412 O   0  0  0  0  0  0  0  0  0  0  0  0
   -0.8455   -4.1999   -2.2317 O   0  0  0  0  0  0  0  0  0  0  0  0
   -2.4219   -0.2370    1.6752 O   0  0  0  0  0  0  0  0  0  0  0  0
    3.6315   -1.6761    1.8294 O   0  0  0  0  0  0  0  0  0  0  0  0
    5.5694    0.5309    2.1387 O   0  0  0  0  0  0  0  0  0  0  0  0
    6.6762    1.1357   -0.0419 O   0  0  0  0  0  0  0  0  0  0  0  0
   -1.0751    2.4634   -2.2287 O   0  0  0  0  0  0  0  0  0  0  0  0
    2.8681   -1.7135   -0.3630 N   0  0  0  0  0  0  0  0  0  0  0  0
   -1.7699    0.5010   -0.4340 N   0  0  0  0  0  0  0  0  0  0  0  0
   -2.0409    4.0212   -0.8441 N   0  0  0  0  0  0  0  0  0  0  0  0
   -0.8465   -1.5332    0.4326 C   0  0  1  0  0  0  0  0  0  0  0  0
    1.5438   -2.2243   -0.0838 C   0  0  1  0  0  0  0  0  0  0  0  0
    0.5916   -1.0603    0.2111 C   0  0  0  0  0  0  0  0  0  0  0  0
    1.0429   -3.0910   -1.2467 C   0  0  2  0  0  0  0  0  0  0  0  0
   -1.3395   -2.3774   -0.7408 C   0  0  0  0  0  0  0  0  0  0  0  0
   -0.4030   -3.5490   -1.0404 C   0  0  1  0  0  0  0  0  0  0  0  0
   -1.7607   -0.3626    0.6478 C   0  0  0  0  0  0  0  0  0  0  0  0
    3.8071   -1.4813    0.6299 C   0  0  0  0  0  0  0  0  0  0  0  0
   -2.5848    1.6932   -0.4870 C   0  0  2  0  0  0  0  0  0  0  0  0
    5.0969   -0.9552    0.0502 C   0  0  0  0  0  0  0  0  0  0  0  0
   -3.9484    1.4379   -1.1408 C   0  0  0  0  0  0  0  0  0  0  0  0
   -1.8040    2.7334   -1.2772 C   0  0  0  0  0  0  0  0  0  0  0  0
   -4.9270    0.7872   -0.1918 C   0  0  0  0  0  0  0  0  0  0  0  0
    4.1514    1.6557    0.2568 C   0  0  0  0  0  0  0  0  0  0  0  0
   -4.9906   -0.5953   -0.1252 C   0  0  0  0  0  0  0  0  0  0  0  0
   -5.7431    1.5850    0.5937 C   0  0  0  0  0  0  0  0  0  0  0  0
    3.0922    1.7703    1.1391 C   0  0  0  0  0  0  0  0  0  0  0  0
    4.1628    2.3228   -0.9549 C   0  0  0  0  0  0  0  0  0  0  0  0
   -5.8947   -1.1963    0.7507 C   0  0  0  0  0  0  0  0  0  0  0  0
   -6.6471    0.9841    1.4697 C   0  0  0  0  0  0  0  0  0  0  0  0
   -6.7228   -0.4066    1.5481 C   0  0  0  0  0  0  0  0  0  0  0  0
    2.0080    2.5790    0.7984 C   0  0  0  0  0  0  0  0  0  0  0  0
    3.0787    3.1316   -1.2957 C   0  0  0  0  0  0  0  0  0  0  0  0
    2.0013    3.2596   -0.4191 C   0  0  0  0  0  0  0  0  0  0  0  0
    1.6245   -2.8541    0.8122 H   0  0  0  0  0  0  0  0  0  0  0  0
    0.6618   -0.3372   -0.6109 H   0  0  0  0  0  0  0  0  0  0  0  0
    0.9428   -0.5351    1.1093 H   0  0  0  0  0  0  0  0  0  0  0  0
    1.1422   -2.5532   -2.1985 H   0  0  0  0  0  0  0  0  0  0  0  0
   -2.3404   -2.7805   -0.5357 H   0  0  0  0  0  0  0  0  0  0  0  0
   -1.4527   -1.7830   -1.6562 H   0  0  0  0  0  0  0  0  0  0  0  0
   -0.4592   -4.2884   -0.2319 H   0  0  0  0  0  0  0  0  0  0  0  0
    3.0809   -1.4580   -1.3228 H   0  0  0  0  0  0  0  0  0  0  0  0
   -1.8396   -2.6640    1.6898 H   0  0  0  0  0  0  0  0  0  0  0  0
    1.6402   -4.7069   -2.1774 H   0  0  0  0  0  0  0  0  0  0  0  0
   -0.3476   -5.0302   -2.3170 H   0  0  0  0  0  0  0  0  0  0  0  0
   -1.2150    0.2879   -1.2566 H   0  0  0  0  0  0  0  0  0  0  0  0
   -2.7147    2.0604    0.5393 H   0  0  0  0  0  0  0  0  0  0  0  0
    5.0689   -0.8780   -1.0406 H   0  0  0  0  0  0  0  0  0  0  0  0
    5.9018   -1.6477    0.3165 H   0  0  0  0  0  0  0  0  0  0  0  0
   -3.8359    0.8174   -2.0404 H   0  0  0  0  0  0  0  0  0  0  0  0
   -4.3835    2.3816   -1.4965 H   0  0  0  0  0  0  0  0  0  0  0  0
   -2.6643    4.2312   -0.0712 H   0  0  0  0  0  0  0  0  0  0  0  0
   -1.5919    4.8121   -1.2939 H   0  0  0  0  0  0  0  0  0  0  0  0
   -4.3584   -1.2197   -0.7492 H   0  0  0  0  0  0  0  0  0  0  0  0
   -5.6894    2.6686    0.5414 H   0  0  0  0  0  0  0  0  0  0  0  0
    3.0759    1.2459    2.0894 H   0  0  0  0  0  0  0  0  0  0  0  0
    4.9877    2.2291   -1.6543 H   0  0  0  0  0  0  0  0  0  0  0  0
   -5.9548   -2.2790    0.8102 H   0  0  0  0  0  0  0  0  0  0  0  0
   -7.2915    1.5989    2.0912 H   0  0  0  0  0  0  0  0  0  0  0  0
   -7.4268   -0.8744    2.2300 H   0  0  0  0  0  0  0  0  0  0  0  0
    1.1675    2.6766    1.4793 H   0  0  0  0  0  0  0  0  0  0  0  0
    3.0722    3.6603   -2.2444 H   0  0  0  0  0  0  0  0  0  0  0  0
    1.1588    3.8912   -0.6839 H   0  0  0  0  0  0  0  0  0  0  0  0
  1  7  2  0  0  0  0
  1  8  2  0  0  0  0
  1 22  1  0  0  0  0
  1 26  1  0  0  0  0
  2 13  1  0  0  0  0
  2 45  1  0  0  0  0
  3 16  1  0  0  0  0
  3 46  1  0  0  0  0
  4 18  1  0  0  0  0
  4 47  1  0  0  0  0
  5 19  2  0  0  0  0
  6 20  2  0  0  0  0
  9 24  2  0  0  0  0
 10 14  1  0  0  0  0
 10 20  1  0  0  0  0
 10 44  1  0  0  0  0
 11 19  1  0  0  0  0
 11 21  1  0  0  0  0
 11 48  1  0  0  0  0
 12 24  1  0  0  0  0
 12 54  1  0  0  0  0
 12 55  1  0  0  0  0
 13 15  1  0  0  0  0
 13 17  1  0  0  0  0
 13 19  1  0  0  0  0
 14 15  1  0  0  0  0
 14 16  1  0  0  0  0
 14 37  1  0  0  0  0
 15 38  1  0  0  0  0
 15 39  1  0  0  0  0
 16 18  1  0  0  0  0
 16 40  1  0  0  0  0
 17 18  1  0  0  0  0
 17 41  1  0  0  0  0
 17 42  1  0  0  0  0
 18 43  1  0  0  0  0
 20 22  1  0  0  0  0
 21 23  1  0  0  0  0
 21 24  1  0  0  0  0
 21 49  1  0  0  0  0
 22 50  1  0  0  0  0
 22 51  1  0  0  0  0
 23 25  1  0  0  0  0
 23 52  1  0  0  0  0
 23 53  1  0  0  0  0
 25 27  2  0  0  0  0
 25 28  1  0  0  0  0
 26 29  2  0  0  0  0
 26 30  1  0  0  0  0
 27 31  1  0  0  0  0
 27 56  1  0  0  0  0
 28 32  2  0  0  0  0
 28 57  1  0  0  0  0
 29 34  1  0  0  0  0
 29 58  1  0  0  0  0
 30 35  2  0  0  0  0
 30 59  1  0  0  0  0
 31 33  2  0  0  0  0
 31 60  1  0  0  0  0
 32 33  1  0  0  0  0
 32 61  1  0  0  0  0
 33 62  1  0  0  0  0
 34 36  2  0  0  0  0
 34 63  1  0  0  0  0
 35 36  1  0  0  0  0
 35 64  1  0  0  0  0
 36 65  1  0  0  0  0
M  END
> <PUBCHEM_COMPOUND_CID>
7134496

> <PUBCHEM_CONFORMER_RMSD>
1.2

> <PUBCHEM_CONFORMER_DIVERSEORDER>
1
323
269
350
364
158
201
375
113
281
334
203
98
106
102
226
390
304
112
352
46
160
363
382
279
415
197
317
301
26
143
129
357
272
237
208
161
225
265
29
423
99
50
365
94
147
28
40
266
422
361
262
286
345
164
76
193
114
313
331
287
123
23
144
392
221
378
209
140
67
370
421
110
211
329
192
335
155
10
417
107
90
273
184
252
206
132
137
268
400
49
154
374
116
264
343
289
100
342
14
228
117
153
399
55
241
210
72
175
165
255
310
270
420
86
162
121
231
393
115
318
308
379
47
341
309
412
174
166
173
17
366
77
156
20
219
292
348
276
232
54
217
74
316
303
87
285
411
414
97
202
406
381
275
355
157
238
180
169
259
384
12
120
44
142
320
134
300
311
351
283
101
326
136
293
35
9
251
229
204
62
388
172
126
4
32
295
339
6
249
336
189
260
383
63
188
360
11
346
80
57
242
194
128
250
190
105
298
181
151
48
354
356
183
296
56
68
19
36
38
371
324
186
254
176
330
373
236
24
398
409
168
223
369
135
95
380
282
243
59
51
307
367
178
277
146
401
159
315
200
141
34
263
396
170
302
148
327
42
416
274
216
337
314
122
66
333
214
312
402
338
127
61
88
207
177
163
271
41
83
108
22
418
306
391
133
387
397
347
124
212
294
413
222
64
291
385
52
70
244
15
290
30
79
195
109
377
5
245
37
394
25
92
104
149
96
167
18
267
16
359
27
389
191
386
353
8
224
278
2
280
145
407
240
182
372
218
150
91
69
358
125
349
60
322
256
376
187
408
185
131
227
247
230
3
288
138
81
344
234
73
340
395
71
239
82
362
410
53
205
139
93
43
248
118
258
299
233
213
284
75
253
21
235
321
199
84
305
7
419
111
257
78
65
261
368
85
403
215
198
103
297
332
58
130
325
119
89
220
39
404
405
45
33
328
13
171
179
319
152
31
246
196

> <PUBCHEM_MMFF94_PARTIAL_CHARGES>
51
1 1.2
10 -0.73
11 -0.73
12 -0.8
13 0.34
14 0.3
16 0.28
18 0.28
19 0.57
2 -0.68
20 0.57
21 0.36
22 0.17
23 0.14
24 0.57
25 -0.14
26 -0.01
27 -0.15
28 -0.15
29 -0.15
3 -0.68
30 -0.15
31 -0.15
32 -0.15
33 -0.15
34 -0.15
35 -0.15
36 -0.15
4 -0.68
44 0.37
45 0.4
46 0.4
47 0.4
48 0.37
5 -0.57
54 0.37
55 0.37
56 0.15
57 0.15
58 0.15
59 0.15
6 -0.57
60 0.15
61 0.15
62 0.15
63 0.15
64 0.15
65 0.15
7 -0.65
8 -0.65
9 -0.57

> <PUBCHEM_EFFECTIVE_ROTOR_COUNT>
12.2

> <PUBCHEM_PHARMACOPHORE_FEATURES>
17
1 10 donor
1 11 donor
1 12 donor
1 2 acceptor
1 2 donor
1 3 acceptor
1 3 donor
1 4 acceptor
1 4 donor
1 5 acceptor
1 6 acceptor
1 7 acceptor
1 8 acceptor
1 9 acceptor
6 13 14 15 16 17 18 rings
6 25 27 28 31 32 33 rings
6 26 29 30 34 35 36 rings

> <PUBCHEM_HEAVY_ATOM_COUNT>
36

> <PUBCHEM_ATOM_DEF_STEREO_COUNT>
5

> <PUBCHEM_ATOM_UDEF_STEREO_COUNT>
0

> <PUBCHEM_BOND_DEF_STEREO_COUNT>
0

> <PUBCHEM_BOND_UDEF_STEREO_COUNT>
0

> <PUBCHEM_ISOTOPIC_ATOM_COUNT>
0

> <PUBCHEM_COMPONENT_COUNT>
1

> <PUBCHEM_CACTVS_TAUTO_COUNT>
8

> <PUBCHEM_CONFORMER_ID>
006CDD2000000001

> <PUBCHEM_MMFF94_ENERGY>
78.6586

> <PUBCHEM_FEATURE_SELFOVERLAP>
86.324

> <PUBCHEM_SHAPE_FINGERPRINT>
12107698 1 17894908533820759096
12128747 34 17168139014181858722
12422481 6 18333733537645993457
13402501 40 18334854991897973692
1361 2 18342458118930155023
14020679 6 17894912974806374546
14294032 229 18271236218253930230
14790565 3 18200032979337707191
14840074 17 18336548308729492919
15297060 5 17989481948995668658
18608769 82 18333732446302365928
19301679 30 18187377515230686505
20764821 26 18265040500544195012
338550 245 18335979882577036428
3493558 16 17842291272093458833
350125 39 18409730659838825352
392239 28 18187367610660906041
463206 1 18268420403461664664
513532 50 17846510214336492628
6287921 2 18341050718798777869
7399639 24 18266459806931493511

> <PUBCHEM_SHAPE_MULTIPOLES>
682.82
14.56
5.06
1.71
7.6
1.78
-0.02
-5.54
6.8
-2.06
-3.16
0.15
0.27
0.24

> <PUBCHEM_SHAPE_SELFOVERLAP>
1434.948

> <PUBCHEM_SHAPE_VOLUME>
383

> <PUBCHEM_COORDINATE_TYPE>
2
5
10

$$$$
