11913341
  -OEChem-12032416373D

 64 68  0     1  0  0  0  0  0999 V2000
    1.2940   -0.9221    1.8037 O   0  0  0  0  0  0  0  0  0  0  0  0
    2.6989   -3.6989    1.5753 O   0  0  0  0  0  0  0  0  0  0  0  0
    5.9365    0.1715    1.6950 O   0  0  0  0  0  0  0  0  0  0  0  0
    8.4895    4.6508   -2.2862 O   0  0  0  0  0  0  0  0  0  0  0  0
    9.0400    3.7206   -0.2890 O   0  0  0  0  0  0  0  0  0  0  0  0
    4.0731   -0.4903    0.4804 N   0  0  0  0  0  0  0  0  0  0  0  0
    0.0753   -3.8137   -0.0624 N   0  0  0  0  0  0  0  0  0  0  0  0
   -1.7075   -2.3883   -0.4892 N   0  0  0  0  0  0  0  0  0  0  0  0
   -1.2116   -4.2418   -1.9473 N   0  0  0  0  0  0  0  0  0  0  0  0
    2.7354   -2.5081    0.7713 C   0  0  1  0  0  0  0  0  0  0  0  0
    1.3374   -1.9210    0.7708 C   0  0  1  0  0  0  0  0  0  0  0  0
    3.5795   -1.4476    1.4405 C   0  0  2  0  0  0  0  0  0  0  0  0
    0.4470   -3.0866    1.1316 C   0  0  2  0  0  0  0  0  0  0  0  0
    2.5940   -0.8060    2.4009 C   0  0  0  0  0  0  0  0  0  0  0  0
    1.3505   -3.9378    2.0048 C   0  0  0  0  0  0  0  0  0  0  0  0
    5.2285    0.2489    0.6947 C   0  0  0  0  0  0  0  0  0  0  0  0
   -0.9944   -3.4660   -0.8681 C   0  0  0  0  0  0  0  0  0  0  0  0
    5.5076    1.2023   -0.4551 C   0  0  0  0  0  0  0  0  0  0  0  0
    6.7710    2.0397   -0.2659 C   0  0  0  0  0  0  0  0  0  0  0  0
   -2.7427   -2.0781   -1.2970 C   0  0  0  0  0  0  0  0  0  0  0  0
    7.0291    2.9800   -1.4451 C   0  0  0  0  0  0  0  0  0  0  0  0
   -2.2621   -3.8746   -2.7103 C   0  0  0  0  0  0  0  0  0  0  0  0
   -3.0705   -2.7917   -2.4317 C   0  0  0  0  0  0  0  0  0  0  0  0
   -3.5089   -0.9230   -0.8949 C   0  0  0  0  0  0  0  0  0  0  0  0
    8.2850    3.7981   -1.2482 C   0  0  0  0  0  0  0  0  0  0  0  0
   -4.8685   -1.0521   -0.6114 C   0  0  0  0  0  0  0  0  0  0  0  0
   -2.8896    0.3226   -0.7894 C   0  0  0  0  0  0  0  0  0  0  0  0
   -5.6089    0.0640   -0.2222 C   0  0  0  0  0  0  0  0  0  0  0  0
   -3.6301    1.4388   -0.4002 C   0  0  0  0  0  0  0  0  0  0  0  0
   -4.9896    1.3095   -0.1165 C   0  0  0  0  0  0  0  0  0  0  0  0
   -5.7574    2.4674    0.2875 C   0  0  0  0  0  0  0  0  0  0  0  0
   -6.3912    3.2541   -0.6744 C   0  0  0  0  0  0  0  0  0  0  0  0
   -5.8643    2.7968    1.6388 C   0  0  0  0  0  0  0  0  0  0  0  0
   -7.1317    4.3703   -0.2851 C   0  0  0  0  0  0  0  0  0  0  0  0
   -6.6049    3.9129    2.0280 C   0  0  0  0  0  0  0  0  0  0  0  0
   -7.2386    4.6997    1.0661 C   0  0  0  0  0  0  0  0  0  0  0  0
    3.0808   -2.7964   -0.2268 H   0  0  0  0  0  0  0  0  0  0  0  0
    1.0867   -1.4236   -0.1716 H   0  0  0  0  0  0  0  0  0  0  0  0
    4.4297   -1.8652    1.9907 H   0  0  0  0  0  0  0  0  0  0  0  0
   -0.4417   -2.8024    1.7069 H   0  0  0  0  0  0  0  0  0  0  0  0
    2.8015    0.2472    2.6132 H   0  0  0  0  0  0  0  0  0  0  0  0
    2.5637   -1.3495    3.3518 H   0  0  0  0  0  0  0  0  0  0  0  0
    1.2857   -3.6271    3.0535 H   0  0  0  0  0  0  0  0  0  0  0  0
    1.1385   -5.0103    1.9523 H   0  0  0  0  0  0  0  0  0  0  0  0
    3.5218   -0.3133   -0.3550 H   0  0  0  0  0  0  0  0  0  0  0  0
    0.6475   -4.5919   -0.3701 H   0  0  0  0  0  0  0  0  0  0  0  0
    5.5925    0.6086   -1.3734 H   0  0  0  0  0  0  0  0  0  0  0  0
    4.6398    1.8640   -0.5649 H   0  0  0  0  0  0  0  0  0  0  0  0
    7.6334    1.3744   -0.1296 H   0  0  0  0  0  0  0  0  0  0  0  0
    6.6887    2.6234    0.6600 H   0  0  0  0  0  0  0  0  0  0  0  0
    7.1423    2.3977   -2.3661 H   0  0  0  0  0  0  0  0  0  0  0  0
    6.1857    3.6699   -1.5584 H   0  0  0  0  0  0  0  0  0  0  0  0
   -2.4410   -4.4951   -3.5820 H   0  0  0  0  0  0  0  0  0  0  0  0
   -3.9007   -2.5322   -3.0770 H   0  0  0  0  0  0  0  0  0  0  0  0
   -5.3693   -2.0149   -0.6820 H   0  0  0  0  0  0  0  0  0  0  0  0
   -1.8313    0.4434   -1.0091 H   0  0  0  0  0  0  0  0  0  0  0  0
   -6.6675   -0.0543   -0.0035 H   0  0  0  0  0  0  0  0  0  0  0  0
   -3.1319    2.4024   -0.3233 H   0  0  0  0  0  0  0  0  0  0  0  0
    9.3040    5.1841   -2.1658 H   0  0  0  0  0  0  0  0  0  0  0  0
   -6.3182    3.0115   -1.7320 H   0  0  0  0  0  0  0  0  0  0  0  0
   -5.3766    2.1943    2.4016 H   0  0  0  0  0  0  0  0  0  0  0  0
   -7.6252    4.9829   -1.0339 H   0  0  0  0  0  0  0  0  0  0  0  0
   -6.6882    4.1696    3.0801 H   0  0  0  0  0  0  0  0  0  0  0  0
   -7.8152    5.5686    1.3693 H   0  0  0  0  0  0  0  0  0  0  0  0
  1 11  1  0  0  0  0
  1 14  1  0  0  0  0
  2 10  1  0  0  0  0
  2 15  1  0  0  0  0
  3 16  2  0  0  0  0
  4 25  1  0  0  0  0
  4 59  1  0  0  0  0
  5 25  2  0  0  0  0
  6 12  1  0  0  0  0
  6 16  1  0  0  0  0
  6 45  1  0  0  0  0
  7 13  1  0  0  0  0
  7 17  1  0  0  0  0
  7 46  1  0  0  0  0
  8 17  1  0  0  0  0
  8 20  2  0  0  0  0
  9 17  2  0  0  0  0
  9 22  1  0  0  0  0
 10 11  1  0  0  0  0
 10 12  1  0  0  0  0
 10 37  1  0  0  0  0
 11 13  1  0  0  0  0
 11 38  1  0  0  0  0
 12 14  1  0  0  0  0
 12 39  1  0  0  0  0
 13 15  1  0  0  0  0
 13 40  1  0  0  0  0
 14 41  1  0  0  0  0
 14 42  1  0  0  0  0
 15 43  1  0  0  0  0
 15 44  1  0  0  0  0
 16 18  1  0  0  0  0
 18 19  1  0  0  0  0
 18 47  1  0  0  0  0
 18 48  1  0  0  0  0
 19 21  1  0  0  0  0
 19 49  1  0  0  0  0
 19 50  1  0  0  0  0
 20 23  1  0  0  0  0
 20 24  1  0  0  0  0
 21 25  1  0  0  0  0
 21 51  1  0  0  0  0
 21 52  1  0  0  0  0
 22 23  2  0  0  0  0
 22 53  1  0  0  0  0
 23 54  1  0  0  0  0
 24 26  2  0  0  0  0
 24 27  1  0  0  0  0
 26 28  1  0  0  0  0
 26 55  1  0  0  0  0
 27 29  2  0  0  0  0
 27 56  1  0  0  0  0
 28 30  2  0  0  0  0
 28 57  1  0  0  0  0
 29 30  1  0  0  0  0
 29 58  1  0  0  0  0
 30 31  1  0  0  0  0
 31 32  2  0  0  0  0
 31 33  1  0  0  0  0
 32 34  1  0  0  0  0
 32 60  1  0  0  0  0
 33 35  2  0  0  0  0
 33 61  1  0  0  0  0
 34 36  2  0  0  0  0
 34 62  1  0  0  0  0
 35 36  1  0  0  0  0
 35 63  1  0  0  0  0
 36 64  1  0  0  0  0
M  END
> <PUBCHEM_COMPOUND_CID>
11913341

> <PUBCHEM_CONFORMER_RMSD>
1.2

> <PUBCHEM_CONFORMER_DIVERSEORDER>
1
57
32
17
13
53
41
22
46
9
35
38
23
45
58
20
33
50
56
15
29
25
39
14
48
40
21
51
43
27
11
44
19
55
31
5
34
37
47
36
16
54
10
18
52
24
28
49
2
12
26
8
7
6
3
4
42
30

> <PUBCHEM_MMFF94_PARTIAL_CHARGES>
46
1 -0.56
10 0.28
11 0.28
12 0.3
13 0.37
14 0.28
15 0.28
16 0.57
17 0.72
18 0.06
2 -0.56
20 0.31
21 0.06
22 0.16
23 -0.15
25 0.66
26 -0.15
27 -0.15
28 -0.15
29 -0.15
3 -0.57
32 -0.15
33 -0.15
34 -0.15
35 -0.15
36 -0.15
4 -0.65
45 0.37
46 0.4
5 -0.57
53 0.15
54 0.15
55 0.15
56 0.15
57 0.15
58 0.15
59 0.5
6 -0.73
60 0.15
61 0.15
62 0.15
63 0.15
64 0.15
7 -0.87
8 -0.62
9 -0.62

> <PUBCHEM_EFFECTIVE_ROTOR_COUNT>
11.2

> <PUBCHEM_PHARMACOPHORE_FEATURES>
15
1 1 acceptor
1 2 acceptor
1 3 acceptor
1 4 acceptor
1 5 acceptor
1 6 donor
1 7 donor
1 8 acceptor
3 4 5 25 anion
4 7 8 9 17 cation
5 1 10 11 12 14 rings
5 2 10 11 13 15 rings
6 24 26 27 28 29 30 rings
6 31 32 33 34 35 36 rings
6 8 9 17 20 22 23 rings

> <PUBCHEM_HEAVY_ATOM_COUNT>
36

> <PUBCHEM_ATOM_DEF_STEREO_COUNT>
4

> <PUBCHEM_ATOM_UDEF_STEREO_COUNT>
0

> <PUBCHEM_BOND_DEF_STEREO_COUNT>
0

> <PUBCHEM_BOND_UDEF_STEREO_COUNT>
0

> <PUBCHEM_ISOTOPIC_ATOM_COUNT>
0

> <PUBCHEM_COMPONENT_COUNT>
1

> <PUBCHEM_CACTVS_TAUTO_COUNT>
6

> <PUBCHEM_CONFORMER_ID>
00B5C87D00000001

> <PUBCHEM_MMFF94_ENERGY>
101.99

> <PUBCHEM_FEATURE_SELFOVERLAP>
76.889

> <PUBCHEM_SHAPE_FINGERPRINT>
10794284 68 18199187464235371615
10917259 128 18267568282841955488
11227150 75 9150881750668944744
11374522 174 18270966730953526993
11476731 99 18056470888988369880
11505856 67 18340479071700879247
1200032 147 18267019466523306707
12013929 29 18335140938732237780
12061779 8 18260831518720631816
12104220 4 18335991887042031020
12655364 74 18048887578021596977
12895837 130 18338517551007965974
12975358 362 17912374130727723721
13165054 27 18192734412610095305
13726171 33 18271254854385884337
13944108 23 17483112644611229147
14026016 13 18411424999047485465
14251764 75 18340485565236885899
14664723 55 18341333305681576508
15198563 99 17557113372581659079
15357212 105 18411986823439691987
15406563 185 17060331877852414929
15448158 71 18262503811191150268
15513586 35 18187634843394311159
155225 6 18338235964394267045
16067689 134 18335709368811358132
16992727 255 18342454851108772880
18339144 43 16982390642903197241
19053607 189 18343294895245777552
19309040 13 18335704918422872698
19315092 285 11675175721689501846
20691028 202 18271512105615196203
20721686 124 12788391198596149306
21133410 52 17839460339513034271
21223535 225 18196091260717950940
21772528 278 17458631150709171178
21774942 28 18265613359878860628
21796203 349 15502660455579087996
23523788 1 8429166634945055662
23569914 152 17844264930521198982
24771750 20 17918278623194183134
3388396 114 17261856162816958549
3552219 110 18117262852601979239
3610482 184 18340760563593480950
397830 11 18053671275301717995
44280116 191 18128256692630711752
44880568 143 18056484083407048524
57634706 229 17895483652081083818
57724786 102 18194391204739677659
6036956 94 18268431227207188129
6058803 2 18123437597538417711
6673363 416 18124880307338370271
6695519 79 16226035691621044890

> <PUBCHEM_SHAPE_MULTIPOLES>
691.59
24.42
8.24
2.32
26.98
2.6
-0.1
53.89
-3.63
0.67
-2.31
0.99
-1.21
-10.58

> <PUBCHEM_SHAPE_SELFOVERLAP>
1504.004

> <PUBCHEM_SHAPE_VOLUME>
374.8

> <PUBCHEM_COORDINATE_TYPE>
2
5
10

$$$$
