45784026
  -OEChem-12032416203D

 39 42  0     1  0  0  0  0  0999 V2000
    5.4689   -2.6858   -1.1179 F   0  0  0  0  0  0  0  0  0  0  0  0
    2.4052    1.6435    2.2092 O   0  0  0  0  0  0  0  0  0  0  0  0
    1.0572    1.6655    0.3182 N   0  0  0  0  0  0  0  0  0  0  0  0
   -3.1603    0.7800   -1.2336 N   0  0  0  0  0  0  0  0  0  0  0  0
   -1.8141   -0.1868    0.2473 N   0  0  0  0  0  0  0  0  0  0  0  0
   -0.8023    1.6570   -1.1669 C   0  0  1  0  0  0  0  0  0  0  0  0
   -0.7830    2.9714   -0.3712 C   0  0  0  0  0  0  0  0  0  0  0  0
    0.6382    1.1569   -0.9890 C   0  0  0  0  0  0  0  0  0  0  0  0
    0.1276    2.6698    0.8113 C   0  0  0  0  0  0  0  0  0  0  0  0
   -1.9068    0.7296   -0.6902 C   0  0  0  0  0  0  0  0  0  0  0  0
    2.1326    1.2378    1.0812 C   0  0  0  0  0  0  0  0  0  0  0  0
   -3.9276   -0.1667   -0.6049 C   0  0  0  0  0  0  0  0  0  0  0  0
   -3.0648   -0.7565    0.3149 C   0  0  0  0  0  0  0  0  0  0  0  0
    3.0085    0.2068    0.5033 C   0  0  0  0  0  0  0  0  0  0  0  0
   -5.2616   -0.5463   -0.7571 C   0  0  0  0  0  0  0  0  0  0  0  0
   -3.5443   -1.7877    1.1400 C   0  0  0  0  0  0  0  0  0  0  0  0
    3.6808    0.4541   -0.6937 C   0  0  0  0  0  0  0  0  0  0  0  0
    3.1674   -1.0177    1.1522 C   0  0  0  0  0  0  0  0  0  0  0  0
   -5.7221   -1.5743    0.0723 C   0  0  0  0  0  0  0  0  0  0  0  0
   -4.8804   -2.1853    1.0047 C   0  0  0  0  0  0  0  0  0  0  0  0
    4.5117   -0.5230   -1.2417 C   0  0  0  0  0  0  0  0  0  0  0  0
    3.9984   -1.9948    0.6043 C   0  0  0  0  0  0  0  0  0  0  0  0
    4.6705   -1.7475   -0.5927 C   0  0  0  0  0  0  0  0  0  0  0  0
   -0.9845    1.8591   -2.2303 H   0  0  0  0  0  0  0  0  0  0  0  0
   -1.7702    3.3223   -0.0548 H   0  0  0  0  0  0  0  0  0  0  0  0
   -0.3265    3.7577   -0.9858 H   0  0  0  0  0  0  0  0  0  0  0  0
    0.7313    0.0680   -1.0392 H   0  0  0  0  0  0  0  0  0  0  0  0
    1.2886    1.6140   -1.7424 H   0  0  0  0  0  0  0  0  0  0  0  0
    0.6685    3.5501    1.1713 H   0  0  0  0  0  0  0  0  0  0  0  0
   -0.4273    2.2328    1.6489 H   0  0  0  0  0  0  0  0  0  0  0  0
   -3.4696    1.4040   -1.9671 H   0  0  0  0  0  0  0  0  0  0  0  0
   -5.9129   -0.0705   -1.4814 H   0  0  0  0  0  0  0  0  0  0  0  0
   -2.8982   -2.2687    1.8675 H   0  0  0  0  0  0  0  0  0  0  0  0
    3.5878    1.4100   -1.2020 H   0  0  0  0  0  0  0  0  0  0  0  0
    2.6472   -1.2232    2.0842 H   0  0  0  0  0  0  0  0  0  0  0  0
   -6.7550   -1.9033   -0.0111 H   0  0  0  0  0  0  0  0  0  0  0  0
   -5.2672   -2.9816    1.6354 H   0  0  0  0  0  0  0  0  0  0  0  0
    5.0392   -0.3290   -2.1710 H   0  0  0  0  0  0  0  0  0  0  0  0
    4.1221   -2.9484    1.1090 H   0  0  0  0  0  0  0  0  0  0  0  0
  1 23  1  0  0  0  0
  2 11  2  0  0  0  0
  3  8  1  0  0  0  0
  3  9  1  0  0  0  0
  3 11  1  0  0  0  0
  4 10  1  0  0  0  0
  4 12  1  0  0  0  0
  4 31  1  0  0  0  0
  5 10  2  0  0  0  0
  5 13  1  0  0  0  0
  6  7  1  0  0  0  0
  6  8  1  0  0  0  0
  6 10  1  0  0  0  0
  6 24  1  0  0  0  0
  7  9  1  0  0  0  0
  7 25  1  0  0  0  0
  7 26  1  0  0  0  0
  8 27  1  0  0  0  0
  8 28  1  0  0  0  0
  9 29  1  0  0  0  0
  9 30  1  0  0  0  0
 11 14  1  0  0  0  0
 12 13  1  0  0  0  0
 12 15  2  0  0  0  0
 13 16  2  0  0  0  0
 14 17  2  0  0  0  0
 14 18  1  0  0  0  0
 15 19  1  0  0  0  0
 15 32  1  0  0  0  0
 16 20  1  0  0  0  0
 16 33  1  0  0  0  0
 17 21  1  0  0  0  0
 17 34  1  0  0  0  0
 18 22  2  0  0  0  0
 18 35  1  0  0  0  0
 19 20  2  0  0  0  0
 19 36  1  0  0  0  0
 20 37  1  0  0  0  0
 21 23  2  0  0  0  0
 21 38  1  0  0  0  0
 22 23  1  0  0  0  0
 22 39  1  0  0  0  0
M  END
> <PUBCHEM_COMPOUND_CID>
45784026

> <PUBCHEM_CONFORMER_RMSD>
0.6

> <PUBCHEM_CONFORMER_DIVERSEORDER>
1
13
35
33
25
7
32
21
31
26
24
12
11
30
14
34
15
23
22
19
29
5
8
28
9
20
18
17
10
27
16
2
4
6
3

> <PUBCHEM_MMFF94_PARTIAL_CHARGES>
31
1 -0.19
10 0.01
11 0.54
12 -0.15
13 0.23
14 0.09
15 -0.15
16 -0.15
17 -0.15
18 -0.15
19 -0.15
2 -0.57
20 -0.15
21 -0.15
22 -0.15
23 0.19
3 -0.66
31 0.27
32 0.15
33 0.15
34 0.15
35 0.15
36 0.15
37 0.15
38 0.15
39 0.15
4 0.03
5 -0.57
6 0.18
8 0.3
9 0.3

> <PUBCHEM_EFFECTIVE_ROTOR_COUNT>
4

> <PUBCHEM_PHARMACOPHORE_FEATURES>
7
1 2 acceptor
1 4 donor
3 4 5 10 cation
5 3 6 7 8 9 rings
5 4 5 10 12 13 rings
6 12 13 15 16 19 20 rings
6 14 17 18 21 22 23 rings

> <PUBCHEM_HEAVY_ATOM_COUNT>
23

> <PUBCHEM_ATOM_DEF_STEREO_COUNT>
1

> <PUBCHEM_ATOM_UDEF_STEREO_COUNT>
0

> <PUBCHEM_BOND_DEF_STEREO_COUNT>
0

> <PUBCHEM_BOND_UDEF_STEREO_COUNT>
0

> <PUBCHEM_ISOTOPIC_ATOM_COUNT>
0

> <PUBCHEM_COMPONENT_COUNT>
1

> <PUBCHEM_CACTVS_TAUTO_COUNT>
1

> <PUBCHEM_CONFORMER_ID>
02BA9BDA00000001

> <PUBCHEM_MMFF94_ENERGY>
53.9407

> <PUBCHEM_FEATURE_SELFOVERLAP>
35.629

> <PUBCHEM_SHAPE_FINGERPRINT>
10319926 262 13039192527989346652
10692045 39 10375606845543992436
10928967 22 18412541007217513598
11796584 16 18188201005450201622
12403259 118 11887659689467469895
12422481 6 14261088549096492163
12549972 3 17772444838482836720
12596602 18 15984812774683243111
12633257 1 16774077392635022350
12760667 363 18341052917241881991
13103583 49 17916885559499108291
13135754 10 17344367565625047968
13402501 40 18408888442432615442
13533116 47 18198343051840948787
13544653 18 18411417327892502757
13631057 29 18336268938682753158
13911852 28 18343581824267043303
13911882 115 18337106877869195312
13914758 101 17632858604212079753
13955234 65 18055354892605600616
13965767 371 12175623941188045832
14251740 57 18267584787572942355
14251757 5 18040996185917479301
14251764 30 18201165377477340966
14252887 29 18269827765296909536
14866123 147 18194964033449760809
14951699 99 11599422712648032146
14957384 54 8141497091854959718
15061688 2 9007055755789476316
15142526 21 15979165867752127648
15342816 4 17168408458929195184
15352361 1 18334575750230222043
15537594 2 18201721803443583014
15664445 248 17313947557882180484
17349148 13 17131555050328393439
17909252 39 18338232657665283746
1813 80 17988937673016861212
193927 3 18410294704903028742
20388580 30 18114470045078261516
20403669 9 18410573968051151623
20567600 254 11023832738681735923
21033650 10 16878220849027285452
21279426 13 18262223453444331949
21682296 61 18341617027612329535
2215653 11 18334284397440628183
22950370 63 18409456877174779157
23227448 37 9583511032383929625
23559900 14 18041839631721291509
239999 70 18041554879500281184
2838139 119 8934714457876656642
3004659 81 17821726126671298118
314173 41 18114741650304346081
329604 57 18408609132910089230
3421961 26 18340767151629954304
345986 75 17489873725856063986
3737641 26 18269286668221739266
38570 142 14691148370910985216
43658 37 8646776598809372585
437815 12 18413669106510705489
46194498 28 17314233452326815493
465052 167 18273218611880500230
5309563 4 18412825772344576375
5486654 36 18130230328897384016
6823239 73 18261106421748001074
7970288 3 18413390916910546990
8217 86 18410865339312832022
960060 61 17676206900505793823

> <PUBCHEM_SHAPE_MULTIPOLES>
445.24
12.46
2.97
1.42
3.88
0.51
-0.3
-11.78
1.91
-0.85
-0.33
-0.85
0.19
1.9

> <PUBCHEM_SHAPE_SELFOVERLAP>
986.8

> <PUBCHEM_SHAPE_VOLUME>
241.5

> <PUBCHEM_COORDINATE_TYPE>
2
5
10

$$$$
