26763568
  -OEChem-12032416183D

 52 56  0     1  0  0  0  0  0999 V2000
   -9.8055    1.5690    0.0359 Cl  0  0  0  0  0  0  0  0  0  0  0  0
    7.6545   -1.1102   -2.1500 F   0  0  0  0  0  0  0  0  0  0  0  0
    1.8942   -2.3160    0.2021 O   0  0  0  0  0  0  0  0  0  0  0  0
   -1.0975    1.7893   -1.2621 O   0  0  0  0  0  0  0  0  0  0  0  0
    4.7730   -0.5561    2.4418 O   0  0  0  0  0  0  0  0  0  0  0  0
    0.4886    0.6571   -0.0161 N   0  0  0  0  0  0  0  0  0  0  0  0
    3.2131    0.2810    0.9162 N   0  0  0  0  0  0  0  0  0  0  0  0
   -0.3483   -2.1765   -0.1638 N   0  0  0  0  0  0  0  0  0  0  0  0
    0.7861   -0.3302    1.0123 C   0  0  2  0  0  0  0  0  0  0  0  0
    2.0710   -0.0103    1.7856 C   0  0  0  0  0  0  0  0  0  0  0  0
    1.5525    1.5971   -0.3723 C   0  0  0  0  0  0  0  0  0  0  0  0
    2.9196    0.9292   -0.3673 C   0  0  0  0  0  0  0  0  0  0  0  0
    0.8485   -1.6699    0.2960 C   0  0  0  0  0  0  0  0  0  0  0  0
   -0.7880    0.8416   -0.5381 C   0  0  0  0  0  0  0  0  0  0  0  0
   -1.8398   -0.1674   -0.2412 C   0  0  0  0  0  0  0  0  0  0  0  0
   -1.6130   -1.5519   -0.1770 C   0  0  0  0  0  0  0  0  0  0  0  0
    4.5029   -0.0140    1.3711 C   0  0  0  0  0  0  0  0  0  0  0  0
   -3.1608    0.3167   -0.2061 C   0  0  0  0  0  0  0  0  0  0  0  0
   -2.7174   -2.4216   -0.1502 C   0  0  0  0  0  0  0  0  0  0  0  0
    5.6400    0.3437    0.5082 C   0  0  0  0  0  0  0  0  0  0  0  0
   -4.2430   -0.5591   -0.1303 C   0  0  0  0  0  0  0  0  0  0  0  0
   -4.0218   -1.9298   -0.1164 C   0  0  0  0  0  0  0  0  0  0  0  0
   -5.5936   -0.0422   -0.0907 C   0  0  0  0  0  0  0  0  0  0  0  0
    6.1178   -0.5709   -0.4305 C   0  0  0  0  0  0  0  0  0  0  0  0
    6.2400    1.5972    0.6287 C   0  0  0  0  0  0  0  0  0  0  0  0
    7.1956   -0.2321   -1.2486 C   0  0  0  0  0  0  0  0  0  0  0  0
    7.3179    1.9361   -0.1892 C   0  0  0  0  0  0  0  0  0  0  0  0
   -6.6394   -0.7794   -0.6464 C   0  0  0  0  0  0  0  0  0  0  0  0
   -5.8502    1.1934    0.5038 C   0  0  0  0  0  0  0  0  0  0  0  0
    7.7956    1.0215   -1.1280 C   0  0  0  0  0  0  0  0  0  0  0  0
   -7.9418   -0.2812   -0.6073 C   0  0  0  0  0  0  0  0  0  0  0  0
   -7.1526    1.6916    0.5428 C   0  0  0  0  0  0  0  0  0  0  0  0
   -8.1983    0.9543   -0.0128 C   0  0  0  0  0  0  0  0  0  0  0  0
   -0.0397   -0.3647    1.7338 H   0  0  0  0  0  0  0  0  0  0  0  0
    1.9194    0.8866    2.3996 H   0  0  0  0  0  0  0  0  0  0  0  0
    2.3243   -0.8279    2.4701 H   0  0  0  0  0  0  0  0  0  0  0  0
    1.5175    2.4124    0.3607 H   0  0  0  0  0  0  0  0  0  0  0  0
    1.3505    2.0333   -1.3565 H   0  0  0  0  0  0  0  0  0  0  0  0
    2.9662    0.1473   -1.1346 H   0  0  0  0  0  0  0  0  0  0  0  0
    3.6889    1.6699   -0.6016 H   0  0  0  0  0  0  0  0  0  0  0  0
   -0.3319   -3.1565   -0.4366 H   0  0  0  0  0  0  0  0  0  0  0  0
   -3.3231    1.3899   -0.2854 H   0  0  0  0  0  0  0  0  0  0  0  0
   -2.5688   -3.4995   -0.1190 H   0  0  0  0  0  0  0  0  0  0  0  0
   -4.8276   -2.6548   -0.0443 H   0  0  0  0  0  0  0  0  0  0  0  0
    5.6573   -1.5499   -0.5331 H   0  0  0  0  0  0  0  0  0  0  0  0
    5.8753    2.3173    1.3566 H   0  0  0  0  0  0  0  0  0  0  0  0
    7.7850    2.9121   -0.0954 H   0  0  0  0  0  0  0  0  0  0  0  0
   -6.4834   -1.7314   -1.1465 H   0  0  0  0  0  0  0  0  0  0  0  0
   -5.0726    1.7876    0.9762 H   0  0  0  0  0  0  0  0  0  0  0  0
    8.6346    1.2851   -1.7651 H   0  0  0  0  0  0  0  0  0  0  0  0
   -8.7463   -0.8632   -1.0498 H   0  0  0  0  0  0  0  0  0  0  0  0
   -7.3393    2.6527    1.0152 H   0  0  0  0  0  0  0  0  0  0  0  0
  1 33  1  0  0  0  0
  2 26  1  0  0  0  0
  3 13  2  0  0  0  0
  4 14  2  0  0  0  0
  5 17  2  0  0  0  0
  6  9  1  0  0  0  0
  6 11  1  0  0  0  0
  6 14  1  0  0  0  0
  7 10  1  0  0  0  0
  7 12  1  0  0  0  0
  7 17  1  0  0  0  0
  8 13  1  0  0  0  0
  8 16  1  0  0  0  0
  8 41  1  0  0  0  0
  9 10  1  0  0  0  0
  9 13  1  0  0  0  0
  9 34  1  0  0  0  0
 10 35  1  0  0  0  0
 10 36  1  0  0  0  0
 11 12  1  0  0  0  0
 11 37  1  0  0  0  0
 11 38  1  0  0  0  0
 12 39  1  0  0  0  0
 12 40  1  0  0  0  0
 14 15  1  0  0  0  0
 15 16  2  0  0  0  0
 15 18  1  0  0  0  0
 16 19  1  0  0  0  0
 17 20  1  0  0  0  0
 18 21  2  0  0  0  0
 18 42  1  0  0  0  0
 19 22  2  0  0  0  0
 19 43  1  0  0  0  0
 20 24  2  0  0  0  0
 20 25  1  0  0  0  0
 21 22  1  0  0  0  0
 21 23  1  0  0  0  0
 22 44  1  0  0  0  0
 23 28  2  0  0  0  0
 23 29  1  0  0  0  0
 24 26  1  0  0  0  0
 24 45  1  0  0  0  0
 25 27  2  0  0  0  0
 25 46  1  0  0  0  0
 26 30  2  0  0  0  0
 27 30  1  0  0  0  0
 27 47  1  0  0  0  0
 28 31  1  0  0  0  0
 28 48  1  0  0  0  0
 29 32  2  0  0  0  0
 29 49  1  0  0  0  0
 30 50  1  0  0  0  0
 31 33  2  0  0  0  0
 31 51  1  0  0  0  0
 32 33  1  0  0  0  0
 32 52  1  0  0  0  0
M  END
> <PUBCHEM_COMPOUND_CID>
26763568

> <PUBCHEM_CONFORMER_RMSD>
0.8

> <PUBCHEM_CONFORMER_DIVERSEORDER>
1
11
6
18
7
16
14
4
10
13
8
5
9
2
15
3
12
17

> <PUBCHEM_MMFF94_PARTIAL_CHARGES>
43
1 -0.18
10 0.3
11 0.3
12 0.3
13 0.57
14 0.54
15 0.09
16 0.12
17 0.54
18 -0.15
19 -0.15
2 -0.19
20 0.09
22 -0.15
24 -0.15
25 -0.15
26 0.19
27 -0.15
28 -0.15
29 -0.15
3 -0.57
30 -0.15
31 -0.15
32 -0.15
33 0.18
4 -0.57
41 0.37
42 0.15
43 0.15
44 0.15
45 0.15
46 0.15
47 0.15
48 0.15
49 0.15
5 -0.57
50 0.15
51 0.15
52 0.15
6 -0.66
7 -0.66
8 -0.55
9 0.36

> <PUBCHEM_EFFECTIVE_ROTOR_COUNT>
4

> <PUBCHEM_PHARMACOPHORE_FEATURES>
9
1 3 acceptor
1 4 acceptor
1 5 acceptor
1 8 donor
6 15 16 18 19 21 22 rings
6 20 24 25 26 27 30 rings
6 23 28 29 31 32 33 rings
6 6 7 9 10 11 12 rings
7 6 8 9 13 14 15 16 rings

> <PUBCHEM_HEAVY_ATOM_COUNT>
33

> <PUBCHEM_ATOM_DEF_STEREO_COUNT>
1

> <PUBCHEM_ATOM_UDEF_STEREO_COUNT>
0

> <PUBCHEM_BOND_DEF_STEREO_COUNT>
0

> <PUBCHEM_BOND_UDEF_STEREO_COUNT>
0

> <PUBCHEM_ISOTOPIC_ATOM_COUNT>
0

> <PUBCHEM_COMPONENT_COUNT>
1

> <PUBCHEM_CACTVS_TAUTO_COUNT>
9

> <PUBCHEM_CONFORMER_ID>
0198613000000001

> <PUBCHEM_MMFF94_ENERGY>
119.8718

> <PUBCHEM_FEATURE_SELFOVERLAP>
45.702

> <PUBCHEM_SHAPE_FINGERPRINT>
10 15 18040152899464429721
10299344 5 18187079555145353865
106641 1 12468360162976365918
10670039 82 15841557341203740147
10674148 151 18411698794890929618
10906281 52 18186805789661755226
11181472 205 18271249305214603257
11409948 35 17631458869057625142
11456790 92 14635135855621289116
11991303 11 15123214598570973285
12133447 93 18338242557227160949
12166972 35 12391515312697154250
13617811 41 18187655682501733564
13782708 43 17130702979782358246
13914758 101 14764357023988477275
13947947 19 18261110829117526927
14117953 113 18410573977200216861
14150022 121 14490463163662960087
14251764 18 18259980488109050017
14294032 229 18262801753041735069
15131766 46 15336555098966578792
15183329 4 18410856568235005434
15198563 99 17489603233623445872
15276724 80 17967805050756358404
15301273 46 18202283610561208700
15392192 104 18113338613907890443
15461852 350 17846212302841816783
15475509 8 18411423908299286988
1577012 14 18333723633303884987
15840311 113 18113058251116348860
15849732 13 18408604785675166261
15980000 95 17966970530575485717
16087824 20 18334856066568726141
16090146 7 18340504329854401162
19611394 137 18042978764907858699
20105231 36 18113627788932683642
21521721 280 15068622690799663960
21781055 127 17987820539734355537
21895431 317 11671519854766311308
22149856 69 13479407202458052047
23559900 14 18130221687481239096
23576562 1 18197490942945584821
24180151 248 18118407246305006654
24771293 8 18408884028160523941
249057 3 18335421300647689445
3178227 256 15791733009501815653
335352 9 18409165541480463589
3418910 222 13840270255921356918
34797466 226 18411981395444964420
350125 39 18335414681786588005
3633792 109 18202569470646560168
4017518 198 17918278657680145263
4073 2 18333450946194804859
4149490 64 8718240466081330989
439807 62 18412267195569877766
474113 269 15697729104003170398
5028188 123 18341334504414977628
5758199 1 18113616789906021155
58260988 393 16009020649314232780
59682541 35 11819279974872813702
59755656 215 18272653433097638118
6081469 158 17131835356409744496
6328613 192 18336827588730398089
9962374 69 12540993914904631043

> <PUBCHEM_SHAPE_MULTIPOLES>
641.17
27.23
2.1
1.27
13.6
0.59
0.27
-12.1
-5.09
0.87
-0.16
-2.56
0.07
-0.36

> <PUBCHEM_SHAPE_SELFOVERLAP>
1416.953

> <PUBCHEM_SHAPE_VOLUME>
342.1

> <PUBCHEM_COORDINATE_TYPE>
2
5
10

$$$$
