75536292
  -OEChem-12032416303D

 51 53  0     1  0  0  0  0  0999 V2000
   -4.3360   -0.0644    0.3720 F   0  0  0  0  0  0  0  0  0  0  0  0
    2.7367    0.1307    0.7654 O   0  0  0  0  0  0  0  0  0  0  0  0
    5.4096    1.3728    0.7937 O   0  0  0  0  0  0  0  0  0  0  0  0
   -0.9645   -2.2385    1.4249 O   0  0  0  0  0  0  0  0  0  0  0  0
   -2.9325   -2.3841   -1.1872 O   0  0  0  0  0  0  0  0  0  0  0  0
    0.6664    1.8958   -0.0811 N   0  0  0  0  0  0  0  0  0  0  0  0
    0.3714   -1.9316    1.6530 N   0  0  0  0  0  0  0  0  0  0  0  0
    3.0518    1.4482    0.2964 C   0  0  1  0  0  0  0  0  0  0  0  0
    4.4729    1.5114   -0.2780 C   0  0  2  0  0  0  0  0  0  0  0  0
    2.8916   -0.9119   -0.2004 C   0  0  1  0  0  0  0  0  0  0  0  0
    4.7446    0.3937   -1.2812 C   0  0  0  0  0  0  0  0  0  0  0  0
    4.3295   -0.9610   -0.7145 C   0  0  0  0  0  0  0  0  0  0  0  0
    1.9910    1.9532   -0.6794 C   0  0  0  0  0  0  0  0  0  0  0  0
    2.5122   -2.2236    0.4762 C   0  0  0  0  0  0  0  0  0  0  0  0
    1.0194   -2.3875    0.5773 C   0  0  0  0  0  0  0  0  0  0  0  0
   -0.3470    2.3869   -1.0061 C   0  0  0  0  0  0  0  0  0  0  0  0
    0.1530   -2.9859   -0.3538 C   0  0  0  0  0  0  0  0  0  0  0  0
   -1.7248    2.3485   -0.4006 C   0  0  0  0  0  0  0  0  0  0  0  0
   -1.0819   -2.8662    0.2268 C   0  0  0  0  0  0  0  0  0  0  0  0
   -2.4365   -3.2641   -0.1745 C   0  0  0  0  0  0  0  0  0  0  0  0
   -2.4054    1.1357   -0.2920 C   0  0  0  0  0  0  0  0  0  0  0  0
   -2.3211    3.5258    0.0515 C   0  0  0  0  0  0  0  0  0  0  0  0
   -3.6822    1.1001    0.2687 C   0  0  0  0  0  0  0  0  0  0  0  0
   -3.5980    3.4903    0.6119 C   0  0  0  0  0  0  0  0  0  0  0  0
   -4.2785    2.2775    0.7207 C   0  0  0  0  0  0  0  0  0  0  0  0
   -4.2416   -2.7516   -1.5895 C   0  0  0  0  0  0  0  0  0  0  0  0
    3.0224    2.0837    1.1914 H   0  0  0  0  0  0  0  0  0  0  0  0
    4.6559    2.4894   -0.7368 H   0  0  0  0  0  0  0  0  0  0  0  0
    2.2139   -0.7322   -1.0437 H   0  0  0  0  0  0  0  0  0  0  0  0
    5.8092    0.3593   -1.5406 H   0  0  0  0  0  0  0  0  0  0  0  0
    4.1905    0.5838   -2.2077 H   0  0  0  0  0  0  0  0  0  0  0  0
    4.4380   -1.7337   -1.4841 H   0  0  0  0  0  0  0  0  0  0  0  0
    5.0078   -1.2222    0.1077 H   0  0  0  0  0  0  0  0  0  0  0  0
    2.0005    1.3669   -1.6045 H   0  0  0  0  0  0  0  0  0  0  0  0
    2.2304    2.9889   -0.9510 H   0  0  0  0  0  0  0  0  0  0  0  0
    2.9517   -2.2837    1.4802 H   0  0  0  0  0  0  0  0  0  0  0  0
    2.9017   -3.0736   -0.0986 H   0  0  0  0  0  0  0  0  0  0  0  0
    0.4578    0.9325    0.1814 H   0  0  0  0  0  0  0  0  0  0  0  0
    6.3019    1.4628    0.4177 H   0  0  0  0  0  0  0  0  0  0  0  0
   -0.3551    1.7875   -1.9261 H   0  0  0  0  0  0  0  0  0  0  0  0
   -0.1134    3.4155   -1.3097 H   0  0  0  0  0  0  0  0  0  0  0  0
    0.3890   -3.4365   -1.3065 H   0  0  0  0  0  0  0  0  0  0  0  0
   -2.4180   -4.2888   -0.5642 H   0  0  0  0  0  0  0  0  0  0  0  0
   -3.1132   -3.2392    0.6880 H   0  0  0  0  0  0  0  0  0  0  0  0
   -1.9499    0.2139   -0.6417 H   0  0  0  0  0  0  0  0  0  0  0  0
   -1.8022    4.4775   -0.0249 H   0  0  0  0  0  0  0  0  0  0  0  0
   -4.0623    4.4067    0.9642 H   0  0  0  0  0  0  0  0  0  0  0  0
   -5.2725    2.2494    1.1570 H   0  0  0  0  0  0  0  0  0  0  0  0
   -4.2456   -3.7606   -2.0131 H   0  0  0  0  0  0  0  0  0  0  0  0
   -4.9347   -2.6948   -0.7445 H   0  0  0  0  0  0  0  0  0  0  0  0
   -4.5750   -2.0501   -2.3590 H   0  0  0  0  0  0  0  0  0  0  0  0
  1 23  1  0  0  0  0
  2  8  1  0  0  0  0
  2 10  1  0  0  0  0
  3  9  1  0  0  0  0
  3 39  1  0  0  0  0
  4  7  1  0  0  0  0
  4 19  1  0  0  0  0
  5 20  1  0  0  0  0
  5 26  1  0  0  0  0
  6 13  1  0  0  0  0
  6 16  1  0  0  0  0
  6 38  1  0  0  0  0
  7 15  2  0  0  0  0
  8  9  1  0  0  0  0
  8 13  1  0  0  0  0
  8 27  1  0  0  0  0
  9 11  1  0  0  0  0
  9 28  1  0  0  0  0
 10 12  1  0  0  0  0
 10 14  1  0  0  0  0
 10 29  1  0  0  0  0
 11 12  1  0  0  0  0
 11 30  1  0  0  0  0
 11 31  1  0  0  0  0
 12 32  1  0  0  0  0
 12 33  1  0  0  0  0
 13 34  1  0  0  0  0
 13 35  1  0  0  0  0
 14 15  1  0  0  0  0
 14 36  1  0  0  0  0
 14 37  1  0  0  0  0
 15 17  1  0  0  0  0
 16 18  1  0  0  0  0
 16 40  1  0  0  0  0
 16 41  1  0  0  0  0
 17 19  2  0  0  0  0
 17 42  1  0  0  0  0
 18 21  2  0  0  0  0
 18 22  1  0  0  0  0
 19 20  1  0  0  0  0
 20 43  1  0  0  0  0
 20 44  1  0  0  0  0
 21 23  1  0  0  0  0
 21 45  1  0  0  0  0
 22 24  2  0  0  0  0
 22 46  1  0  0  0  0
 23 25  2  0  0  0  0
 24 25  1  0  0  0  0
 24 47  1  0  0  0  0
 25 48  1  0  0  0  0
 26 49  1  0  0  0  0
 26 50  1  0  0  0  0
 26 51  1  0  0  0  0
M  END
> <PUBCHEM_COMPOUND_CID>
75536292

> <PUBCHEM_CONFORMER_RMSD>
1

> <PUBCHEM_CONFORMER_DIVERSEORDER>
1
137
27
101
112
14
152
102
118
53
135
45
138
17
70
32
15
124
59
75
93
43
130
155
150
69
89
108
34
22
8
29
156
78
140
21
58
81
42
131
51
144
117
37
36
141
146
126
9
23
110
111
134
113
128
66
158
57
18
46
4
149
109
116
85
90
74
41
50
157
40
133
38
87
129
86
95
119
55
143
24
154
121
65
147
153
19
73
139
103
10
62
33
60
61
100
26
104
105
20
47
91
48
77
115
31
3
94
107
30
11
122
68
125
98
49
76
136
142
82
127
79
63
71
99
25
120
44
83
28
123
88
5
64
2
54
7
84
145
92
106
16
114
39
148
12
72
151
80
35
6
132
96
67
52
13
97
56

> <PUBCHEM_MMFF94_PARTIAL_CHARGES>
31
1 -0.19
10 0.28
13 0.27
14 0.18
15 0.11
16 0.41
17 -0.15
18 -0.14
19 -0.04
2 -0.56
20 0.46
21 -0.15
22 -0.15
23 0.19
24 -0.15
25 -0.15
26 0.28
3 -0.68
38 0.36
39 0.4
4 -0.02
42 0.15
45 0.15
46 0.15
47 0.15
48 0.15
5 -0.56
6 -0.9
7 -0.41
8 0.28
9 0.28

> <PUBCHEM_EFFECTIVE_ROTOR_COUNT>
9.2

> <PUBCHEM_PHARMACOPHORE_FEATURES>
10
1 2 acceptor
1 3 acceptor
1 3 donor
1 5 acceptor
1 6 cation
1 6 donor
1 7 acceptor
5 4 7 15 17 19 rings
6 18 21 22 23 24 25 rings
6 2 8 9 10 11 12 rings

> <PUBCHEM_HEAVY_ATOM_COUNT>
26

> <PUBCHEM_ATOM_DEF_STEREO_COUNT>
3

> <PUBCHEM_ATOM_UDEF_STEREO_COUNT>
0

> <PUBCHEM_BOND_DEF_STEREO_COUNT>
0

> <PUBCHEM_BOND_UDEF_STEREO_COUNT>
0

> <PUBCHEM_ISOTOPIC_ATOM_COUNT>
0

> <PUBCHEM_COMPONENT_COUNT>
1

> <PUBCHEM_CACTVS_TAUTO_COUNT>
1

> <PUBCHEM_CONFORMER_ID>
048097A400000001

> <PUBCHEM_MMFF94_ENERGY>
43.8542

> <PUBCHEM_FEATURE_SELFOVERLAP>
50.748

> <PUBCHEM_SHAPE_FINGERPRINT>
10064457 181 18338239267403413940
10190206 1 17540279939580856220
10616163 171 18335709286715660545
10871710 139 18411418423715980639
1100329 8 18121494662070938226
11513181 2 18272934882199401615
11646440 116 18048314736975017363
12293681 4 17826800540580185994
12553582 1 17688325889597766321
12788726 201 18120658195583116076
12978246 48 18193837037724864457
13122387 1 18120653531121713673
13642711 20 16629660968665027634
138480 1 17184752390053984843
14117953 113 17329421749301789813
14251751 93 18411418405960767197
14363568 33 16676713713892404128
14681490 219 18196079174421413655
14790565 3 18194692474846050773
14840074 17 18410863127626071081
14931854 50 18263349442917903271
151778 21 17908424649998859977
15968369 153 18196668495225702995
19591789 44 18264492771801622892
20642791 13 18339920549583868044
21197605 99 18336000683551777971
21673915 165 18410011030961461661
23559900 14 17473255479739644033
238 59 17393572841007825205
3014063 31 18194115454658428063
3052486 1 18188215402776605308
338550 245 18261966196875710276
463206 1 18192995035794278751
469060 322 16805603698518932111
5048184 11 18338798914141849633
5171179 24 17914053372545276568
5895379 119 18340472405615820914
6004065 56 17118022466813383727
6287921 2 17980762636760523411
6438718 38 18273209820082536214
653340 110 18268984448816285096

> <PUBCHEM_SHAPE_MULTIPOLES>
494.35
9.77
5.33
1.16
4.09
1.56
0.05
-4.3
0.87
-5.21
0.16
-0.13
0.51
-1.58

> <PUBCHEM_SHAPE_SELFOVERLAP>
1030.888

> <PUBCHEM_SHAPE_VOLUME>
281.6

> <PUBCHEM_COORDINATE_TYPE>
2
5
10

$$$$
