75536068
  -OEChem-12032416293D

 44 46  0     1  0  0  0  0  0999 V2000
    2.6832   -2.4484    1.6011 O   0  0  0  0  0  0  0  0  0  0  0  0
    3.3325   -3.7562   -0.7387 O   0  0  0  0  0  0  0  0  0  0  0  0
   -0.8942    0.8546    1.1946 O   0  0  0  0  0  0  0  0  0  0  0  0
   -3.0513    1.9788    0.0868 O   0  0  0  0  0  0  0  0  0  0  0  0
   -0.3224   -1.1406    0.1596 N   0  0  0  0  0  0  0  0  0  0  0  0
    3.7814    2.3845    0.9856 N   0  0  0  0  0  0  0  0  0  0  0  0
    1.8618   -0.3977   -0.7332 C   0  0  2  0  0  0  0  0  0  0  0  0
    1.0942   -1.0771    0.4372 C   0  0  2  0  0  0  0  0  0  0  0  0
    1.7001   -2.4835    0.5675 C   0  0  1  0  0  0  0  0  0  0  0  0
    2.9659   -1.3910   -1.1321 C   0  0  0  0  0  0  0  0  0  0  0  0
    2.3533   -2.7392   -0.7875 C   0  0  1  0  0  0  0  0  0  0  0  0
    2.3906    0.9814   -0.4080 C   0  0  0  0  0  0  0  0  0  0  0  0
    2.0056    2.0904   -1.1532 C   0  0  0  0  0  0  0  0  0  0  0  0
    3.2727    1.1800    0.6419 C   0  0  0  0  0  0  0  0  0  0  0  0
   -1.2094   -0.1538    0.5684 C   0  0  0  0  0  0  0  0  0  0  0  0
    2.5076    3.3463   -0.8303 C   0  0  0  0  0  0  0  0  0  0  0  0
   -2.6376   -0.3799    0.2277 C   0  0  0  0  0  0  0  0  0  0  0  0
    3.3844    3.4391    0.2385 C   0  0  0  0  0  0  0  0  0  0  0  0
   -3.4981    0.6941    0.0008 C   0  0  0  0  0  0  0  0  0  0  0  0
   -3.1151   -1.6873    0.1374 C   0  0  0  0  0  0  0  0  0  0  0  0
   -4.8362    0.4606   -0.3164 C   0  0  0  0  0  0  0  0  0  0  0  0
   -4.4532   -1.9209   -0.1798 C   0  0  0  0  0  0  0  0  0  0  0  0
   -5.3138   -0.8469   -0.4067 C   0  0  0  0  0  0  0  0  0  0  0  0
   -4.0018    3.0127   -0.1611 C   0  0  0  0  0  0  0  0  0  0  0  0
    1.1826   -0.3104   -1.5941 H   0  0  0  0  0  0  0  0  0  0  0  0
    1.2184   -0.5217    1.3745 H   0  0  0  0  0  0  0  0  0  0  0  0
    0.9775   -3.2650    0.8241 H   0  0  0  0  0  0  0  0  0  0  0  0
    3.2171   -1.3185   -2.1962 H   0  0  0  0  0  0  0  0  0  0  0  0
    3.9034   -1.2412   -0.5828 H   0  0  0  0  0  0  0  0  0  0  0  0
    1.5927   -3.0135   -1.5287 H   0  0  0  0  0  0  0  0  0  0  0  0
   -0.6432   -1.8973   -0.4362 H   0  0  0  0  0  0  0  0  0  0  0  0
    2.2194   -2.2764    2.4384 H   0  0  0  0  0  0  0  0  0  0  0  0
    3.7579   -3.7948   -1.6122 H   0  0  0  0  0  0  0  0  0  0  0  0
    1.3154    1.9914   -1.9863 H   0  0  0  0  0  0  0  0  0  0  0  0
    3.6128    0.3589    1.2650 H   0  0  0  0  0  0  0  0  0  0  0  0
    2.2211    4.2248   -1.3970 H   0  0  0  0  0  0  0  0  0  0  0  0
    3.8039    4.3960    0.5311 H   0  0  0  0  0  0  0  0  0  0  0  0
   -2.4844   -2.5493    0.3354 H   0  0  0  0  0  0  0  0  0  0  0  0
   -5.5633    1.2428   -0.5051 H   0  0  0  0  0  0  0  0  0  0  0  0
   -4.8271   -2.9386   -0.2436 H   0  0  0  0  0  0  0  0  0  0  0  0
   -6.3560   -1.0300   -0.6521 H   0  0  0  0  0  0  0  0  0  0  0  0
   -3.4750    3.9665   -0.0514 H   0  0  0  0  0  0  0  0  0  0  0  0
   -4.8068    3.0084    0.5817 H   0  0  0  0  0  0  0  0  0  0  0  0
   -4.3800    2.9764   -1.1885 H   0  0  0  0  0  0  0  0  0  0  0  0
  1  9  1  0  0  0  0
  1 32  1  0  0  0  0
  2 11  1  0  0  0  0
  2 33  1  0  0  0  0
  3 15  2  0  0  0  0
  4 19  1  0  0  0  0
  4 24  1  0  0  0  0
  5  8  1  0  0  0  0
  5 15  1  0  0  0  0
  5 31  1  0  0  0  0
  6 14  1  0  0  0  0
  6 18  2  0  0  0  0
  7  8  1  0  0  0  0
  7 10  1  0  0  0  0
  7 12  1  0  0  0  0
  7 25  1  0  0  0  0
  8  9  1  0  0  0  0
  8 26  1  0  0  0  0
  9 11  1  0  0  0  0
  9 27  1  0  0  0  0
 10 11  1  0  0  0  0
 10 28  1  0  0  0  0
 10 29  1  0  0  0  0
 11 30  1  0  0  0  0
 12 13  1  0  0  0  0
 12 14  2  0  0  0  0
 13 16  2  0  0  0  0
 13 34  1  0  0  0  0
 14 35  1  0  0  0  0
 15 17  1  0  0  0  0
 16 18  1  0  0  0  0
 16 36  1  0  0  0  0
 17 19  1  0  0  0  0
 17 20  2  0  0  0  0
 18 37  1  0  0  0  0
 19 21  2  0  0  0  0
 20 22  1  0  0  0  0
 20 38  1  0  0  0  0
 21 23  1  0  0  0  0
 21 39  1  0  0  0  0
 22 23  2  0  0  0  0
 22 40  1  0  0  0  0
 23 41  1  0  0  0  0
 24 42  1  0  0  0  0
 24 43  1  0  0  0  0
 24 44  1  0  0  0  0
M  END
> <PUBCHEM_COMPOUND_CID>
75536068

> <PUBCHEM_CONFORMER_RMSD>
0.8

> <PUBCHEM_CONFORMER_DIVERSEORDER>
12
44
52
41
67
20
80
73
13
30
76
72
35
37
42
45
51
77
21
28
64
2
62
82
5
24
11
74
75
43
50
15
61
79
71
10
46
27
47
59
40
38
3
63
33
6
70
60
14
16
69
26
25
31
39
17
58
4
57
54
56
19
32
68
49
66
55
34
48
53
36
78
81
65
18
7
29
8
1
9
23
22

> <PUBCHEM_MMFF94_PARTIAL_CHARGES>
34
1 -0.68
11 0.28
12 -0.14
13 -0.15
14 0.16
15 0.54
16 -0.15
17 0.09
18 0.16
19 0.08
2 -0.68
20 -0.15
21 -0.15
22 -0.15
23 -0.15
24 0.28
3 -0.57
31 0.37
32 0.4
33 0.4
34 0.15
35 0.15
36 0.15
37 0.15
38 0.15
39 0.15
4 -0.36
40 0.15
41 0.15
5 -0.73
6 -0.62
7 0.14
8 0.3
9 0.28

> <PUBCHEM_EFFECTIVE_ROTOR_COUNT>
6

> <PUBCHEM_PHARMACOPHORE_FEATURES>
11
1 1 acceptor
1 1 donor
1 2 acceptor
1 2 donor
1 3 acceptor
1 4 acceptor
1 5 donor
1 6 acceptor
5 7 8 9 10 11 rings
6 17 19 20 21 22 23 rings
6 6 12 13 14 16 18 rings

> <PUBCHEM_HEAVY_ATOM_COUNT>
24

> <PUBCHEM_ATOM_DEF_STEREO_COUNT>
4

> <PUBCHEM_ATOM_UDEF_STEREO_COUNT>
0

> <PUBCHEM_BOND_DEF_STEREO_COUNT>
0

> <PUBCHEM_BOND_UDEF_STEREO_COUNT>
0

> <PUBCHEM_ISOTOPIC_ATOM_COUNT>
0

> <PUBCHEM_COMPONENT_COUNT>
1

> <PUBCHEM_CACTVS_TAUTO_COUNT>
2

> <PUBCHEM_CONFORMER_ID>
048096C40000000C

> <PUBCHEM_MMFF94_ENERGY>
82.5391

> <PUBCHEM_FEATURE_SELFOVERLAP>
55.841

> <PUBCHEM_SHAPE_FINGERPRINT>
10090160 65 18192987351612606591
11370993 70 18193274315336131260
11405975 8 18341618049602951793
11578080 2 17314487271745480229
12788726 201 17397274828424990106
14251764 38 18335420192382804481
15420108 30 18270378565420567082
17492 89 18411702067461641999
18681886 176 18343299232841857130
19930381 70 18265334087413452565
20286276 3 18411990130928331319
20567600 347 18191582154245778706
20600515 1 17908963431938977810
20715895 44 18188196693989267541
20775438 99 17758068763157791877
21524375 3 18124036986277876792
22149856 69 18122086418887128755
22393880 68 18341059557282453468
23366157 5 18260267438620625370
23419403 2 17267751323775029328
23559900 14 18341610365590266207
238 59 18265070170099075930
312423 11 18342188730476517299
4280585 95 18124319298879296582
474 4 18189334735151080860
5104073 3 18335706027404961963
5281201 14 18410862018954673231
53777708 50 18342464720763971763
58051976 378 18337950207376931539
59755656 215 18340773727736178396
6287921 2 18334304188143493741
6669772 16 17058070350485748312
67856867 119 18409439315064042491
7364860 26 18413392021006642394
7808743 9 17474389557554836336
84936 182 18412830213282627832
9709674 26 18408890637619553851
9981440 41 18118964934442981418

> <PUBCHEM_SHAPE_MULTIPOLES>
460.47
9.95
4.46
1.05
10.8
0.52
-0.06
2.1
0.77
-4.69
0.41
-0.85
-0.15
0.28

> <PUBCHEM_SHAPE_SELFOVERLAP>
989.956

> <PUBCHEM_SHAPE_VOLUME>
252.9

> <PUBCHEM_COORDINATE_TYPE>
2
5
10

$$$$
