75536314
  -OEChem-12032416303D

 56 59  0     1  0  0  0  0  0999 V2000
    2.4353   -1.1404    0.8082 O   0  0  0  0  0  0  0  0  0  0  0  0
    5.2609   -1.3578    1.6187 O   0  0  0  0  0  0  0  0  0  0  0  0
   -1.7889   -1.6107   -1.6343 O   0  0  0  0  0  0  0  0  0  0  0  0
    1.4412    1.5297    0.8378 N   0  0  0  0  0  0  0  0  0  0  0  0
   -0.9237    4.7860   -0.5428 N   0  0  0  0  0  0  0  0  0  0  0  0
   -0.4967   -2.0379   -1.9153 N   0  0  0  0  0  0  0  0  0  0  0  0
    3.3133   -0.0412    1.0840 C   0  0  1  0  0  0  0  0  0  0  0  0
    4.7622   -0.3756    0.7066 C   0  0  2  0  0  0  0  0  0  0  0  0
    2.4635   -1.6181   -0.5390 C   0  0  1  0  0  0  0  0  0  0  0  0
    0.8028    2.4619   -0.0887 C   0  0  0  0  0  0  0  0  0  0  0  0
    4.8782   -0.9484   -0.7034 C   0  0  0  0  0  0  0  0  0  0  0  0
    3.8711   -2.0742   -0.9197 C   0  0  0  0  0  0  0  0  0  0  0  0
    2.8083    1.2437    0.4310 C   0  0  0  0  0  0  0  0  0  0  0  0
    1.2834    3.8965    0.1574 C   0  0  0  0  0  0  0  0  0  0  0  0
   -0.7214    2.3855    0.0483 C   0  0  0  0  0  0  0  0  0  0  0  0
    1.4740   -2.7728   -0.6367 C   0  0  0  0  0  0  0  0  0  0  0  0
    0.5260    4.8842   -0.7312 C   0  0  0  0  0  0  0  0  0  0  0  0
   -1.4007    3.4322   -0.8360 C   0  0  0  0  0  0  0  0  0  0  0  0
    0.0530   -2.2838   -0.7226 C   0  0  0  0  0  0  0  0  0  0  0  0
   -0.8358   -2.0323    0.3368 C   0  0  0  0  0  0  0  0  0  0  0  0
   -1.9788   -1.6116   -0.2901 C   0  0  0  0  0  0  0  0  0  0  0  0
   -3.2760   -1.1929    0.1553 C   0  0  0  0  0  0  0  0  0  0  0  0
   -3.5692   -1.1627    1.5186 C   0  0  0  0  0  0  0  0  0  0  0  0
   -4.2447   -0.8161   -0.7749 C   0  0  0  0  0  0  0  0  0  0  0  0
   -4.8311   -0.7556    1.9519 C   0  0  0  0  0  0  0  0  0  0  0  0
   -5.5065   -0.4089   -0.3417 C   0  0  0  0  0  0  0  0  0  0  0  0
   -5.7997   -0.3788    1.0218 C   0  0  0  0  0  0  0  0  0  0  0  0
    3.2717    0.0904    2.1733 H   0  0  0  0  0  0  0  0  0  0  0  0
    5.3982    0.5101    0.8128 H   0  0  0  0  0  0  0  0  0  0  0  0
    2.1489   -0.8163   -1.2178 H   0  0  0  0  0  0  0  0  0  0  0  0
    1.0342    2.1804   -1.1257 H   0  0  0  0  0  0  0  0  0  0  0  0
    5.8882   -1.3368   -0.8792 H   0  0  0  0  0  0  0  0  0  0  0  0
    4.7018   -0.1575   -1.4416 H   0  0  0  0  0  0  0  0  0  0  0  0
    3.9010   -2.4025   -1.9649 H   0  0  0  0  0  0  0  0  0  0  0  0
    4.1624   -2.9319   -0.3001 H   0  0  0  0  0  0  0  0  0  0  0  0
    2.8783    1.1521   -0.6581 H   0  0  0  0  0  0  0  0  0  0  0  0
    3.4613    2.0731    0.7260 H   0  0  0  0  0  0  0  0  0  0  0  0
    0.9119    0.6573    0.8456 H   0  0  0  0  0  0  0  0  0  0  0  0
    1.1352    4.1699    1.2109 H   0  0  0  0  0  0  0  0  0  0  0  0
    2.3558    3.9902   -0.0494 H   0  0  0  0  0  0  0  0  0  0  0  0
   -1.0178    2.5470    1.0935 H   0  0  0  0  0  0  0  0  0  0  0  0
   -1.0791    1.3886   -0.2344 H   0  0  0  0  0  0  0  0  0  0  0  0
    1.5674   -3.4359    0.2329 H   0  0  0  0  0  0  0  0  0  0  0  0
    1.6807   -3.3786   -1.5284 H   0  0  0  0  0  0  0  0  0  0  0  0
    0.8438    5.9031   -0.4841 H   0  0  0  0  0  0  0  0  0  0  0  0
    0.7801    4.7173   -1.7852 H   0  0  0  0  0  0  0  0  0  0  0  0
   -1.2374    3.1970   -1.8950 H   0  0  0  0  0  0  0  0  0  0  0  0
   -2.4822    3.3956   -0.6649 H   0  0  0  0  0  0  0  0  0  0  0  0
   -1.3889    5.4481   -1.1631 H   0  0  0  0  0  0  0  0  0  0  0  0
    6.1927   -1.5214    1.3938 H   0  0  0  0  0  0  0  0  0  0  0  0
   -0.6597   -2.1431    1.3968 H   0  0  0  0  0  0  0  0  0  0  0  0
   -2.8352   -1.4499    2.2671 H   0  0  0  0  0  0  0  0  0  0  0  0
   -4.0545   -0.8257   -1.8451 H   0  0  0  0  0  0  0  0  0  0  0  0
   -5.0596   -0.7317    3.0134 H   0  0  0  0  0  0  0  0  0  0  0  0
   -6.2611   -0.1151   -1.0656 H   0  0  0  0  0  0  0  0  0  0  0  0
   -6.7822   -0.0617    1.3590 H   0  0  0  0  0  0  0  0  0  0  0  0
  1  7  1  0  0  0  0
  1  9  1  0  0  0  0
  2  8  1  0  0  0  0
  2 50  1  0  0  0  0
  3  6  1  0  0  0  0
  3 21  1  0  0  0  0
  4 10  1  0  0  0  0
  4 13  1  0  0  0  0
  4 38  1  0  0  0  0
  5 17  1  0  0  0  0
  5 18  1  0  0  0  0
  5 49  1  0  0  0  0
  6 19  2  0  0  0  0
  7  8  1  0  0  0  0
  7 13  1  0  0  0  0
  7 28  1  0  0  0  0
  8 11  1  0  0  0  0
  8 29  1  0  0  0  0
  9 12  1  0  0  0  0
  9 16  1  0  0  0  0
  9 30  1  0  0  0  0
 10 14  1  0  0  0  0
 10 15  1  0  0  0  0
 10 31  1  0  0  0  0
 11 12  1  0  0  0  0
 11 32  1  0  0  0  0
 11 33  1  0  0  0  0
 12 34  1  0  0  0  0
 12 35  1  0  0  0  0
 13 36  1  0  0  0  0
 13 37  1  0  0  0  0
 14 17  1  0  0  0  0
 14 39  1  0  0  0  0
 14 40  1  0  0  0  0
 15 18  1  0  0  0  0
 15 41  1  0  0  0  0
 15 42  1  0  0  0  0
 16 19  1  0  0  0  0
 16 43  1  0  0  0  0
 16 44  1  0  0  0  0
 17 45  1  0  0  0  0
 17 46  1  0  0  0  0
 18 47  1  0  0  0  0
 18 48  1  0  0  0  0
 19 20  1  0  0  0  0
 20 21  2  0  0  0  0
 20 51  1  0  0  0  0
 21 22  1  0  0  0  0
 22 23  2  0  0  0  0
 22 24  1  0  0  0  0
 23 25  1  0  0  0  0
 23 52  1  0  0  0  0
 24 26  2  0  0  0  0
 24 53  1  0  0  0  0
 25 27  2  0  0  0  0
 25 54  1  0  0  0  0
 26 27  1  0  0  0  0
 26 55  1  0  0  0  0
 27 56  1  0  0  0  0
M  END
> <PUBCHEM_COMPOUND_CID>
75536314

> <PUBCHEM_CONFORMER_RMSD>
1

> <PUBCHEM_CONFORMER_DIVERSEORDER>
1
35
92
124
110
64
117
88
65
23
122
19
69
55
119
101
59
17
97
48
3
91
75
61
80
47
26
37
86
100
96
29
63
13
105
104
49
22
87
102
31
90
53
15
27
113
95
20
30
39
25
84
93
107
79
54
73
98
21
103
40
81
78
116
16
111
108
76
10
51
114
42
56
38
46
4
72
7
77
60
66
82
74
121
9
83
58
18
123
109
125
43
71
52
24
70
6
50
89
118
106
57
5
14
67
120
85
34
12
68
32
44
11
45
28
115
62
112
33
99
94
41
36
2
8

> <PUBCHEM_MMFF94_PARTIAL_CHARGES>
32
1 -0.56
10 0.27
13 0.27
16 0.18
17 0.27
18 0.27
19 0.11
2 -0.68
20 -0.15
21 0.09
22 0.05
23 -0.15
24 -0.15
25 -0.15
26 -0.15
27 -0.15
3 -0.02
38 0.36
4 -0.9
49 0.36
5 -0.9
50 0.4
51 0.15
52 0.15
53 0.15
54 0.15
55 0.15
56 0.15
6 -0.41
7 0.28
8 0.28
9 0.28

> <PUBCHEM_EFFECTIVE_ROTOR_COUNT>
8.4

> <PUBCHEM_PHARMACOPHORE_FEATURES>
12
1 1 acceptor
1 2 acceptor
1 2 donor
1 4 cation
1 4 donor
1 5 cation
1 5 donor
1 6 acceptor
5 3 6 19 20 21 rings
6 1 7 8 9 11 12 rings
6 22 23 24 25 26 27 rings
6 5 10 14 15 17 18 rings

> <PUBCHEM_HEAVY_ATOM_COUNT>
27

> <PUBCHEM_ATOM_DEF_STEREO_COUNT>
3

> <PUBCHEM_ATOM_UDEF_STEREO_COUNT>
0

> <PUBCHEM_BOND_DEF_STEREO_COUNT>
0

> <PUBCHEM_BOND_UDEF_STEREO_COUNT>
0

> <PUBCHEM_ISOTOPIC_ATOM_COUNT>
0

> <PUBCHEM_COMPONENT_COUNT>
1

> <PUBCHEM_CACTVS_TAUTO_COUNT>
1

> <PUBCHEM_CONFORMER_ID>
048097BA00000001

> <PUBCHEM_MMFF94_ENERGY>
35.5691

> <PUBCHEM_FEATURE_SELFOVERLAP>
60.898

> <PUBCHEM_SHAPE_FINGERPRINT>
10006869 2 17977092471537548823
10670039 82 18265916674241824798
10688039 33 18335143046605884598
12156800 1 17909304332030857805
12166972 35 18202002179135603291
12293681 4 18260272944969510226
12422481 6 18128271003613728635
12553582 1 18338229479120075332
12633257 1 18334292110527191275
12788726 201 18260836960380346818
13075007 39 18043549385087346899
13402501 40 18339074883429195517
13583140 156 18187644743479136147
14363568 33 18191884519922798469
14790565 3 17544195342972944596
14840074 17 18342744056467277720
150020 26 18193002740876398673
15081414 286 18339084899034596744
151778 21 17976267051590041493
15276724 80 18342458150023301708
18785283 64 18192724559970512835
20739085 24 18339643463979227408
21285901 2 18059303063173058038
21360442 67 17253709374789003917
21641784 216 18191331324245944812
21796203 349 18120403018506887624
22113638 7 18269831072336967503
22182313 1 18057880235139624094
3052486 1 18264210219051806702
469060 322 18337687307817142281
474 4 18272370910191456003
513202 73 18194404394716028370
5283268 108 18410578366308262978
6086070 43 18044627963087142023

> <PUBCHEM_SHAPE_MULTIPOLES>
523.1
10.66
5.41
1.44
5.33
9.94
-0.17
-6.8
-3.87
-1.76
1.92
0.47
-0.64
0.54

> <PUBCHEM_SHAPE_SELFOVERLAP>
1104.457

> <PUBCHEM_SHAPE_VOLUME>
292

> <PUBCHEM_COORDINATE_TYPE>
2
5
10

$$$$
