11887646
  -OEChem-12032416123D

 58 62  0     1  0  0  0  0  0999 V2000
   -3.0468   -2.2432    0.0802 S   0  0  0  0  0  0  0  0  0  0  0  0
    0.4070   -1.1008    0.1505 O   0  0  0  0  0  0  0  0  0  0  0  0
   -3.3226   -3.3531    0.9730 O   0  0  0  0  0  0  0  0  0  0  0  0
   -2.4507   -2.4764   -1.2221 O   0  0  0  0  0  0  0  0  0  0  0  0
    0.4894    3.6030    0.0916 O   0  0  0  0  0  0  0  0  0  0  0  0
   -8.1106    0.6581   -0.7665 O   0  0  0  0  0  0  0  0  0  0  0  0
    6.1006    1.1511   -0.5083 O   0  0  0  0  0  0  0  0  0  0  0  0
   -2.1485   -1.0590    0.9080 N   0  0  1  0  0  0  0  0  0  0  0  0
   -1.4062    2.4990    0.6302 N   0  0  0  0  0  0  0  0  0  0  0  0
    0.5525    1.2485    0.1418 N   0  0  0  0  0  0  0  0  0  0  0  0
   -2.1733    1.3142    0.8779 C   0  0  1  0  0  0  0  0  0  0  0  0
   -1.6483    0.1133    0.1222 C   0  0  1  0  0  0  0  0  0  0  0  0
   -2.1653    0.8556    2.3276 C   0  0  0  0  0  0  0  0  0  0  0  0
   -2.6978   -0.5647    2.2068 C   0  0  0  0  0  0  0  0  0  0  0  0
   -0.1341    0.0079    0.1379 C   0  0  0  0  0  0  0  0  0  0  0  0
   -0.0676    2.5187    0.2920 C   0  0  0  0  0  0  0  0  0  0  0  0
   -4.5646   -1.3739   -0.1731 C   0  0  0  0  0  0  0  0  0  0  0  0
    1.9917    1.2231   -0.0275 C   0  0  0  0  0  0  0  0  0  0  0  0
   -4.7286   -0.6209   -1.3234 C   0  0  0  0  0  0  0  0  0  0  0  0
   -5.5623   -1.4612    0.7829 C   0  0  0  0  0  0  0  0  0  0  0  0
    2.5755    0.2083   -0.7735 C   0  0  0  0  0  0  0  0  0  0  0  0
    2.7669    2.2138    0.5600 C   0  0  0  0  0  0  0  0  0  0  0  0
   -5.9262    0.0656   -1.5235 C   0  0  0  0  0  0  0  0  0  0  0  0
   -6.7599   -0.7747    0.5826 C   0  0  0  0  0  0  0  0  0  0  0  0
   -6.9418   -0.0114   -0.5707 C   0  0  0  0  0  0  0  0  0  0  0  0
    3.9608    0.1836   -0.9349 C   0  0  0  0  0  0  0  0  0  0  0  0
    4.1522    2.1892    0.3986 C   0  0  0  0  0  0  0  0  0  0  0  0
    4.7492    1.1740   -0.3490 C   0  0  0  0  0  0  0  0  0  0  0  0
   -8.2297    1.4191   -1.9674 C   0  0  0  0  0  0  0  0  0  0  0  0
    6.7473   -0.0629   -0.3473 C   0  0  0  0  0  0  0  0  0  0  0  0
    6.4143   -0.8662    0.7281 C   0  0  0  0  0  0  0  0  0  0  0  0
    7.7099   -0.4400   -1.2662 C   0  0  0  0  0  0  0  0  0  0  0  0
    7.0663   -2.0886    0.8906 C   0  0  0  0  0  0  0  0  0  0  0  0
    8.3617   -1.6625   -1.1037 C   0  0  0  0  0  0  0  0  0  0  0  0
    8.0399   -2.4867   -0.0253 C   0  0  0  0  0  0  0  0  0  0  0  0
   -3.2055    1.5302    0.5742 H   0  0  0  0  0  0  0  0  0  0  0  0
   -1.9676    0.1188   -0.9226 H   0  0  0  0  0  0  0  0  0  0  0  0
   -2.7872    1.4822    2.9743 H   0  0  0  0  0  0  0  0  0  0  0  0
   -1.1499    0.8539    2.7429 H   0  0  0  0  0  0  0  0  0  0  0  0
   -2.3385   -1.1920    3.0276 H   0  0  0  0  0  0  0  0  0  0  0  0
   -3.7829   -0.5326    2.2432 H   0  0  0  0  0  0  0  0  0  0  0  0
   -1.8719    3.3943    0.7424 H   0  0  0  0  0  0  0  0  0  0  0  0
   -3.9529   -0.5497   -2.0792 H   0  0  0  0  0  0  0  0  0  0  0  0
   -5.4480   -2.0582    1.6825 H   0  0  0  0  0  0  0  0  0  0  0  0
    2.0078   -0.5356   -1.3219 H   0  0  0  0  0  0  0  0  0  0  0  0
    2.3637    2.9800    1.2136 H   0  0  0  0  0  0  0  0  0  0  0  0
   -6.0011    0.6391   -2.4410 H   0  0  0  0  0  0  0  0  0  0  0  0
   -7.5485   -0.8402    1.3272 H   0  0  0  0  0  0  0  0  0  0  0  0
    4.3957   -0.5952   -1.5561 H   0  0  0  0  0  0  0  0  0  0  0  0
    4.7632    2.9536    0.8710 H   0  0  0  0  0  0  0  0  0  0  0  0
   -7.4958    2.2314   -2.0036 H   0  0  0  0  0  0  0  0  0  0  0  0
   -9.2209    1.8843   -1.9584 H   0  0  0  0  0  0  0  0  0  0  0  0
   -8.1850    0.7793   -2.8554 H   0  0  0  0  0  0  0  0  0  0  0  0
    5.6772   -0.5683    1.4681 H   0  0  0  0  0  0  0  0  0  0  0  0
    7.9612    0.2005   -2.1061 H   0  0  0  0  0  0  0  0  0  0  0  0
    6.8198   -2.7280    1.7331 H   0  0  0  0  0  0  0  0  0  0  0  0
    9.1200   -1.9725   -1.8167 H   0  0  0  0  0  0  0  0  0  0  0  0
    8.5485   -3.4378    0.1019 H   0  0  0  0  0  0  0  0  0  0  0  0
  1  3  2  0  0  0  0
  1  4  2  0  0  0  0
  1  8  1  0  0  0  0
  1 17  1  0  0  0  0
  2 15  2  0  0  0  0
  5 16  2  0  0  0  0
  6 25  1  0  0  0  0
  6 29  1  0  0  0  0
  7 28  1  0  0  0  0
  7 30  1  0  0  0  0
  8 12  1  0  0  0  0
  8 14  1  0  0  0  0
  9 11  1  0  0  0  0
  9 16  1  0  0  0  0
  9 42  1  0  0  0  0
 10 15  1  0  0  0  0
 10 16  1  0  0  0  0
 10 18  1  0  0  0  0
 11 12  1  0  0  0  0
 11 13  1  0  0  0  0
 11 36  1  0  0  0  0
 12 15  1  0  0  0  0
 12 37  1  0  0  0  0
 13 14  1  0  0  0  0
 13 38  1  0  0  0  0
 13 39  1  0  0  0  0
 14 40  1  0  0  0  0
 14 41  1  0  0  0  0
 17 19  2  0  0  0  0
 17 20  1  0  0  0  0
 18 21  2  0  0  0  0
 18 22  1  0  0  0  0
 19 23  1  0  0  0  0
 19 43  1  0  0  0  0
 20 24  2  0  0  0  0
 20 44  1  0  0  0  0
 21 26  1  0  0  0  0
 21 45  1  0  0  0  0
 22 27  2  0  0  0  0
 22 46  1  0  0  0  0
 23 25  2  0  0  0  0
 23 47  1  0  0  0  0
 24 25  1  0  0  0  0
 24 48  1  0  0  0  0
 26 28  2  0  0  0  0
 26 49  1  0  0  0  0
 27 28  1  0  0  0  0
 27 50  1  0  0  0  0
 29 51  1  0  0  0  0
 29 52  1  0  0  0  0
 29 53  1  0  0  0  0
 30 31  2  0  0  0  0
 30 32  1  0  0  0  0
 31 33  1  0  0  0  0
 31 54  1  0  0  0  0
 32 34  2  0  0  0  0
 32 55  1  0  0  0  0
 33 35  2  0  0  0  0
 33 56  1  0  0  0  0
 34 35  1  0  0  0  0
 34 57  1  0  0  0  0
 35 58  1  0  0  0  0
M  END
> <PUBCHEM_COMPOUND_CID>
11887646

> <PUBCHEM_CONFORMER_RMSD>
1

> <PUBCHEM_CONFORMER_DIVERSEORDER>
3
58
73
64
26
66
40
53
79
17
41
45
54
8
37
12
63
21
14
61
36
71
24
33
68
50
48
65
47
4
62
69
18
13
35
70
77
55
9
52
16
59
42
74
39
25
7
31
76
43
38
22
32
29
78
20
49
6
34
15
67
60
10
75
28
19
44
30
27
51
57
2
72
46
56
23
11
5
1

> <PUBCHEM_MMFF94_PARTIAL_CHARGES>
48
1 1.45
10 -0.24
11 0.3
12 0.42
14 0.36
15 0.57
16 0.69
17 -0.01
18 0.12
19 -0.15
2 -0.57
20 -0.15
21 -0.15
22 -0.15
23 -0.15
24 -0.15
25 0.08
26 -0.15
27 -0.15
28 0.08
29 0.28
3 -0.65
30 0.08
31 -0.15
32 -0.15
33 -0.15
34 -0.15
35 -0.15
4 -0.65
42 0.37
43 0.15
44 0.15
45 0.15
46 0.15
47 0.15
48 0.15
49 0.15
5 -0.57
50 0.15
54 0.15
55 0.15
56 0.15
57 0.15
58 0.15
6 -0.36
7 -0.17
8 -0.85
9 -0.73

> <PUBCHEM_EFFECTIVE_ROTOR_COUNT>
7

> <PUBCHEM_PHARMACOPHORE_FEATURES>
12
1 2 acceptor
1 3 acceptor
1 4 acceptor
1 5 acceptor
1 6 acceptor
1 7 acceptor
1 9 donor
5 8 11 12 13 14 rings
6 17 19 20 23 24 25 rings
6 18 21 22 26 27 28 rings
6 30 31 32 33 34 35 rings
6 9 10 11 12 15 16 rings

> <PUBCHEM_HEAVY_ATOM_COUNT>
35

> <PUBCHEM_ATOM_DEF_STEREO_COUNT>
2

> <PUBCHEM_ATOM_UDEF_STEREO_COUNT>
0

> <PUBCHEM_BOND_DEF_STEREO_COUNT>
0

> <PUBCHEM_BOND_UDEF_STEREO_COUNT>
0

> <PUBCHEM_ISOTOPIC_ATOM_COUNT>
0

> <PUBCHEM_COMPONENT_COUNT>
1

> <PUBCHEM_CACTVS_TAUTO_COUNT>
2

> <PUBCHEM_CONFORMER_ID>
00B5641E00000003

> <PUBCHEM_MMFF94_ENERGY>
124.6339

> <PUBCHEM_FEATURE_SELFOVERLAP>
61.104

> <PUBCHEM_SHAPE_FINGERPRINT>
10119406 146 18334018272392294243
10369192 42 14129053712771332675
10391435 84 18337951307505757738
10483366 6 18410004413223934517
10622 236 17485352701721272190
106641 1 10735872885471959877
10674148 151 17022899060408428052
10930396 42 13758064178137907599
11135609 201 9511456706884796188
11135926 11 18272656727743937543
11297750 10 18343011186671153400
11374522 155 10159691413159431490
11408170 108 17131563751352478254
11672396 167 18264489487265536734
11719270 70 18060422413397439510
12166972 35 18041000678447970348
13782708 43 17775288279121317136
13811026 1 18411133662350342419
13914758 101 18260546701662739752
13947934 56 18261669282667749100
14068700 675 17346596404654306177
14117953 113 18272367555452388998
14168556 18 10087634910285016533
14849402 71 11169917177758271511
15183329 4 18409163320929714649
15188451 53 17561082497539911872
15230672 131 18114174237943844867
15510800 12 18201170879678418630
15519825 34 15410603809408304308
16087824 20 18339361848023677829
16126227 98 7925626709060191028
16628084 112 17824250514763051923
18393751 57 10735877270349388256
18603816 31 17274812589122334919
19841028 212 17822566115697319026
21033650 10 16950559943864345501
21365058 27 13839982214387698897
21585481 104 17022906727299319340
21792961 116 18407761431115089323
21792965 20 17986648442752537440
23522609 53 17979959061866802184
23559900 14 18268989967538173713
25269216 80 14274037553286749106
2747138 104 10015589454067325301
3004659 81 18113615707859020874
32027 91 18200312250652953320
4098825 35 17240479200041104335
4149490 64 15266200618955240847
4258327 124 10015569649941611154
439807 62 18261111851573346614
4403749 210 10519992548224809417
444769 64 18413116056878947065
474113 269 18342452600276955622
504579 68 18261407676003944052
5085150 59 17632858620332133686
5104073 3 17988932184771142552
57303763 176 18058447596394126185
57307002 182 14261060026550716248
59682541 35 9799687121738543693
6081469 158 18410573972340818541
6697151 62 18129647703430104880
6703917 75 14490474162847630321

> <PUBCHEM_SHAPE_MULTIPOLES>
673.97
24.93
3.03
1.51
15.33
0.3
0.22
-10.88
-9.71
1.2
0.48
-1.82
-0.04
1

> <PUBCHEM_SHAPE_SELFOVERLAP>
1472.65

> <PUBCHEM_SHAPE_VOLUME>
366

> <PUBCHEM_COORDINATE_TYPE>
2
5
10

$$$$
