7134443
  -OEChem-12032416193D

 66 68  0     1  0  0  0  0  0999 V2000
   -8.4047   -1.7373   -0.4070 F   0  0  0  0  0  0  0  0  0  0  0  0
   -6.6775   -1.5181    0.9137 F   0  0  0  0  0  0  0  0  0  0  0  0
   -8.4135   -0.1648    1.1105 F   0  0  0  0  0  0  0  0  0  0  0  0
    2.0683    4.3934    1.3976 O   0  0  0  0  0  0  0  0  0  0  0  0
    3.9631    3.9079   -1.6939 O   0  0  0  0  0  0  0  0  0  0  0  0
    4.6987    0.2496    2.0462 O   0  0  0  0  0  0  0  0  0  0  0  0
   -0.7296    1.4105   -1.4386 O   0  0  0  0  0  0  0  0  0  0  0  0
    6.6570   -1.1540   -1.1277 O   0  0  0  0  0  0  0  0  0  0  0  0
   -1.4890   -3.4108    0.4432 O   0  0  0  0  0  0  0  0  0  0  0  0
   -7.0516    0.0430   -0.7151 O   0  0  0  0  0  0  0  0  0  0  0  0
    0.1975    2.7325    0.2161 N   0  0  0  0  0  0  0  0  0  0  0  0
    4.1826   -0.6310   -0.0497 N   0  0  0  0  0  0  0  0  0  0  0  0
   -2.0267    2.1791    0.3608 N   0  0  0  0  0  0  0  0  0  0  0  0
    7.0195   -2.6356    0.5898 N   0  0  0  0  0  0  0  0  0  0  0  0
    2.2454    4.0957    0.0110 C   0  0  1  0  0  0  0  0  0  0  0  0
    3.7476    4.0180   -0.2884 C   0  0  1  0  0  0  0  0  0  0  0  0
    1.5324    2.7729   -0.3289 C   0  0  1  0  0  0  0  0  0  0  0  0
    4.4236    2.8452    0.4425 C   0  0  0  0  0  0  0  0  0  0  0  0
    3.5786    1.6038    0.4869 C   0  0  0  0  0  0  0  0  0  0  0  0
    2.2847    1.5553    0.1361 C   0  0  0  0  0  0  0  0  0  0  0  0
    4.2095    0.3542    0.9219 C   0  0  0  0  0  0  0  0  0  0  0  0
    4.7453   -1.9479    0.1455 C   0  0  1  0  0  0  0  0  0  0  0  0
   -0.8568    2.0400   -0.3911 C   0  0  0  0  0  0  0  0  0  0  0  0
    4.0393   -3.0113   -0.7032 C   0  0  0  0  0  0  0  0  0  0  0  0
    2.5652   -3.1184   -0.3974 C   0  0  0  0  0  0  0  0  0  0  0  0
    6.2184   -1.8650   -0.2267 C   0  0  0  0  0  0  0  0  0  0  0  0
    1.6489   -2.3370   -1.1012 C   0  0  0  0  0  0  0  0  0  0  0  0
    2.1190   -3.9982    0.5889 C   0  0  0  0  0  0  0  0  0  0  0  0
   -3.3035    1.6350    0.0882 C   0  0  0  0  0  0  0  0  0  0  0  0
    0.2864   -2.4353   -0.8189 C   0  0  0  0  0  0  0  0  0  0  0  0
    0.7566   -4.0965    0.8713 C   0  0  0  0  0  0  0  0  0  0  0  0
   -0.1596   -3.3151    0.1672 C   0  0  0  0  0  0  0  0  0  0  0  0
   -4.3666    1.8807    0.9572 C   0  0  0  0  0  0  0  0  0  0  0  0
   -3.5000    0.8536   -1.0505 C   0  0  0  0  0  0  0  0  0  0  0  0
   -5.6260    1.3453    0.6877 C   0  0  0  0  0  0  0  0  0  0  0  0
   -4.7594    0.3180   -1.3201 C   0  0  0  0  0  0  0  0  0  0  0  0
   -5.8223    0.5638   -0.4510 C   0  0  0  0  0  0  0  0  0  0  0  0
   -2.3707   -2.5832   -0.3140 C   0  0  0  0  0  0  0  0  0  0  0  0
   -7.6301   -0.8379    0.2414 C   0  0  0  0  0  0  0  0  0  0  0  0
    1.7791    4.9053   -0.5635 H   0  0  0  0  0  0  0  0  0  0  0  0
    4.2325    4.9474    0.0343 H   0  0  0  0  0  0  0  0  0  0  0  0
    1.4513    2.6926   -1.4209 H   0  0  0  0  0  0  0  0  0  0  0  0
    5.3829    2.6136   -0.0361 H   0  0  0  0  0  0  0  0  0  0  0  0
    4.6340    3.1443    1.4770 H   0  0  0  0  0  0  0  0  0  0  0  0
    1.7405    0.6142    0.1736 H   0  0  0  0  0  0  0  0  0  0  0  0
    0.0352    3.1585    1.1236 H   0  0  0  0  0  0  0  0  0  0  0  0
    2.5030    5.2457    1.5715 H   0  0  0  0  0  0  0  0  0  0  0  0
    4.9236    3.9055   -1.8450 H   0  0  0  0  0  0  0  0  0  0  0  0
    4.6527   -2.1970    1.2102 H   0  0  0  0  0  0  0  0  0  0  0  0
    3.8298   -0.4030   -0.9752 H   0  0  0  0  0  0  0  0  0  0  0  0
    4.1688   -2.7931   -1.7724 H   0  0  0  0  0  0  0  0  0  0  0  0
    4.5160   -3.9890   -0.5517 H   0  0  0  0  0  0  0  0  0  0  0  0
   -1.9614    2.7384    1.2075 H   0  0  0  0  0  0  0  0  0  0  0  0
    1.9816   -1.6507   -1.8755 H   0  0  0  0  0  0  0  0  0  0  0  0
    2.8238   -4.6103    1.1453 H   0  0  0  0  0  0  0  0  0  0  0  0
    8.0254   -2.6587    0.4596 H   0  0  0  0  0  0  0  0  0  0  0  0
    6.6441   -3.2152    1.3336 H   0  0  0  0  0  0  0  0  0  0  0  0
   -0.3699   -1.7991   -1.4029 H   0  0  0  0  0  0  0  0  0  0  0  0
    0.4150   -4.7829    1.6411 H   0  0  0  0  0  0  0  0  0  0  0  0
   -4.2272    2.4893    1.8470 H   0  0  0  0  0  0  0  0  0  0  0  0
   -2.7279    0.6192   -1.7695 H   0  0  0  0  0  0  0  0  0  0  0  0
   -6.4468    1.5507    1.3692 H   0  0  0  0  0  0  0  0  0  0  0  0
   -4.9074   -0.2909   -2.2078 H   0  0  0  0  0  0  0  0  0  0  0  0
   -3.3881   -2.7852    0.0364 H   0  0  0  0  0  0  0  0  0  0  0  0
   -2.3421   -2.8306   -1.3804 H   0  0  0  0  0  0  0  0  0  0  0  0
   -2.1701   -1.5249   -0.1256 H   0  0  0  0  0  0  0  0  0  0  0  0
  1 39  1  0  0  0  0
  2 39  1  0  0  0  0
  3 39  1  0  0  0  0
  4 15  1  0  0  0  0
  4 47  1  0  0  0  0
  5 16  1  0  0  0  0
  5 48  1  0  0  0  0
  6 21  2  0  0  0  0
  7 23  2  0  0  0  0
  8 26  2  0  0  0  0
  9 32  1  0  0  0  0
  9 38  1  0  0  0  0
 10 37  1  0  0  0  0
 10 39  1  0  0  0  0
 11 17  1  0  0  0  0
 11 23  1  0  0  0  0
 11 46  1  0  0  0  0
 12 21  1  0  0  0  0
 12 22  1  0  0  0  0
 12 50  1  0  0  0  0
 13 23  1  0  0  0  0
 13 29  1  0  0  0  0
 13 53  1  0  0  0  0
 14 26  1  0  0  0  0
 14 56  1  0  0  0  0
 14 57  1  0  0  0  0
 15 16  1  0  0  0  0
 15 17  1  0  0  0  0
 15 40  1  0  0  0  0
 16 18  1  0  0  0  0
 16 41  1  0  0  0  0
 17 20  1  0  0  0  0
 17 42  1  0  0  0  0
 18 19  1  0  0  0  0
 18 43  1  0  0  0  0
 18 44  1  0  0  0  0
 19 20  2  0  0  0  0
 19 21  1  0  0  0  0
 20 45  1  0  0  0  0
 22 24  1  0  0  0  0
 22 26  1  0  0  0  0
 22 49  1  0  0  0  0
 24 25  1  0  0  0  0
 24 51  1  0  0  0  0
 24 52  1  0  0  0  0
 25 27  2  0  0  0  0
 25 28  1  0  0  0  0
 27 30  1  0  0  0  0
 27 54  1  0  0  0  0
 28 31  2  0  0  0  0
 28 55  1  0  0  0  0
 29 33  2  0  0  0  0
 29 34  1  0  0  0  0
 30 32  2  0  0  0  0
 30 58  1  0  0  0  0
 31 32  1  0  0  0  0
 31 59  1  0  0  0  0
 33 35  1  0  0  0  0
 33 60  1  0  0  0  0
 34 36  2  0  0  0  0
 34 61  1  0  0  0  0
 35 37  2  0  0  0  0
 35 62  1  0  0  0  0
 36 37  1  0  0  0  0
 36 63  1  0  0  0  0
 38 64  1  0  0  0  0
 38 65  1  0  0  0  0
 38 66  1  0  0  0  0
M  END
> <PUBCHEM_COMPOUND_CID>
7134443

> <PUBCHEM_CONFORMER_RMSD>
1.2

> <PUBCHEM_CONFORMER_DIVERSEORDER>
1
18
32
29
13
27
34
31
11
25
33
8
28
30
26
19
15
12
14
16
20
4
6
21
23
24
5
17
2
9
3
10
22
7

> <PUBCHEM_MMFF94_PARTIAL_CHARGES>
55
1 -0.34
10 -0.36
11 -0.73
12 -0.73
13 -0.55
14 -0.8
15 0.28
16 0.28
17 0.44
18 0.14
19 -0.12
2 -0.34
20 -0.29
21 0.62
22 0.36
23 0.69
24 0.14
25 -0.14
26 0.57
27 -0.15
28 -0.15
29 0.12
3 -0.34
30 -0.15
31 -0.15
32 0.08
33 -0.15
34 -0.15
35 -0.15
36 -0.15
37 0.08
38 0.28
39 1.3
4 -0.68
45 0.15
46 0.37
47 0.4
48 0.4
5 -0.68
50 0.37
53 0.37
54 0.15
55 0.15
56 0.37
57 0.37
58 0.15
59 0.15
6 -0.57
60 0.15
61 0.15
62 0.15
63 0.15
7 -0.57
8 -0.57
9 -0.36

> <PUBCHEM_EFFECTIVE_ROTOR_COUNT>
13.8

> <PUBCHEM_PHARMACOPHORE_FEATURES>
16
1 10 acceptor
1 11 donor
1 12 donor
1 13 donor
1 14 donor
1 4 acceptor
1 4 donor
1 5 acceptor
1 5 donor
1 6 acceptor
1 7 acceptor
1 8 acceptor
1 9 acceptor
6 15 16 17 18 19 20 rings
6 25 27 28 30 31 32 rings
6 29 33 34 35 36 37 rings

> <PUBCHEM_HEAVY_ATOM_COUNT>
39

> <PUBCHEM_ATOM_DEF_STEREO_COUNT>
4

> <PUBCHEM_ATOM_UDEF_STEREO_COUNT>
0

> <PUBCHEM_BOND_DEF_STEREO_COUNT>
0

> <PUBCHEM_BOND_UDEF_STEREO_COUNT>
0

> <PUBCHEM_ISOTOPIC_ATOM_COUNT>
0

> <PUBCHEM_COMPONENT_COUNT>
1

> <PUBCHEM_CACTVS_TAUTO_COUNT>
12

> <PUBCHEM_CONFORMER_ID>
006CDCEB00000001

> <PUBCHEM_MMFF94_ENERGY>
109.709

> <PUBCHEM_FEATURE_SELFOVERLAP>
81.262

> <PUBCHEM_SHAPE_FINGERPRINT>
10049733 57 18189071918330320443
10316853 100 18409168801070808754
10864689 126 18050571742457766847
1100329 8 18410856551667196094
11204353 107 18409162230388888431
11513181 2 18056480788681407950
11828042 279 18190722302394818751
13533116 47 18340767134788078409
13560911 43 18335696096760097770
1361 2 18410572885951423928
13989917 61 18411138064987765571
14040221 137 17908429404258677536
14394314 77 18123474877711225793
14849402 71 18410294692134600422
15001296 14 18261946466106870417
15264996 44 18200611245102016734
15320467 1 18339078190084599278
15483637 11 18049439545643707471
15721738 202 17916864617312789875
15927050 60 18197498635575189231
16067689 302 18268433607172996743
16112460 7 18341335564881983536
19301679 30 18411986832747350161
19611394 137 18261688008061320843
20028762 73 18272084968253052750
20721686 56 18336828689112691227
20764821 26 18410295822185519030
21133410 62 18116419375972675279
21133410 90 17203322360470073338
21197605 99 18343018899830367318
373842 8 18410577318595043571
4461854 278 17775564226222690926
5265222 85 17832151889521723965
5309563 4 18195525896518057948
53794403 172 18336549408156828540
5776283 40 18336558213388476540
86090 222 18187367605896473099
9961470 85 18267022950026476963

> <PUBCHEM_SHAPE_MULTIPOLES>
719.77
18.79
6.56
1.19
32.25
0.99
0
-5.68
-1.56
-8.41
-0.36
-0.21
0.25
0.08

> <PUBCHEM_SHAPE_SELFOVERLAP>
1528.236

> <PUBCHEM_SHAPE_VOLUME>
400.3

> <PUBCHEM_COORDINATE_TYPE>
2
5
10

$$$$
