51137619
  -OEChem-12032416223D

 48 51  0     1  0  0  0  0  0999 V2000
    1.5183   -0.7612    0.0453 O   0  0  0  0  0  0  0  0  0  0  0  0
   -1.9142   -1.5180    0.5215 N   0  0  2  0  0  0  0  0  0  0  0  0
    2.4045   -2.4770   -1.0838 N   0  0  0  0  0  0  0  0  0  0  0  0
    3.3392   -1.4590   -1.0509 N   0  0  0  0  0  0  0  0  0  0  0  0
    2.8710    1.7990    0.5620 N   0  0  0  0  0  0  0  0  0  0  0  0
    4.9013    2.4731   -0.0335 N   0  0  0  0  0  0  0  0  0  0  0  0
   -3.5068    0.1495   -0.3250 C   0  0  0  0  0  0  0  0  0  0  0  0
   -3.3207   -1.2457    0.2683 C   0  0  0  0  0  0  0  0  0  0  0  0
    0.0350   -2.7008   -0.1479 C   0  0  2  0  0  0  0  0  0  0  0  0
   -2.8820    1.2141    0.5868 C   0  0  0  0  0  0  0  0  0  0  0  0
   -4.9941    0.4417   -0.5665 C   0  0  0  0  0  0  0  0  0  0  0  0
   -1.1984   -1.9510   -0.6828 C   0  0  0  0  0  0  0  0  0  0  0  0
   -1.7161   -2.5819    1.5037 C   0  0  0  0  0  0  0  0  0  0  0  0
   -0.2325   -2.8741    1.3545 C   0  0  0  0  0  0  0  0  0  0  0  0
   -3.1020    2.6232    0.0413 C   0  0  0  0  0  0  0  0  0  0  0  0
   -5.2104    1.8521   -1.1104 C   0  0  0  0  0  0  0  0  0  0  0  0
   -4.5804    2.9069   -0.2059 C   0  0  0  0  0  0  0  0  0  0  0  0
    1.3584   -2.0259   -0.4320 C   0  0  0  0  0  0  0  0  0  0  0  0
    2.7791   -0.4781   -0.3823 C   0  0  0  0  0  0  0  0  0  0  0  0
    3.4231    0.7577   -0.1294 C   0  0  0  0  0  0  0  0  0  0  0  0
    4.6760    1.1974   -0.4867 C   0  0  0  0  0  0  0  0  0  0  0  0
    3.7950    2.8059    0.5936 C   0  0  0  0  0  0  0  0  0  0  0  0
    1.5568    1.8521    1.1600 C   0  0  0  0  0  0  0  0  0  0  0  0
   -2.9999    0.1928   -1.2990 H   0  0  0  0  0  0  0  0  0  0  0  0
   -3.8718   -1.2805    1.2185 H   0  0  0  0  0  0  0  0  0  0  0  0
   -3.7776   -2.0100   -0.3737 H   0  0  0  0  0  0  0  0  0  0  0  0
    0.0658   -3.6936   -0.6165 H   0  0  0  0  0  0  0  0  0  0  0  0
   -1.8026    1.0573    0.6933 H   0  0  0  0  0  0  0  0  0  0  0  0
   -3.3152    1.1469    1.5932 H   0  0  0  0  0  0  0  0  0  0  0  0
   -5.4079   -0.2858   -1.2750 H   0  0  0  0  0  0  0  0  0  0  0  0
   -5.5550    0.3278    0.3700 H   0  0  0  0  0  0  0  0  0  0  0  0
   -0.9332   -1.1001   -1.3192 H   0  0  0  0  0  0  0  0  0  0  0  0
   -1.8008   -2.6485   -1.2796 H   0  0  0  0  0  0  0  0  0  0  0  0
   -2.3065   -3.4750    1.2622 H   0  0  0  0  0  0  0  0  0  0  0  0
   -1.9602   -2.2591    2.5206 H   0  0  0  0  0  0  0  0  0  0  0  0
    0.3521   -2.1672    1.9567 H   0  0  0  0  0  0  0  0  0  0  0  0
    0.0177   -3.8840    1.6962 H   0  0  0  0  0  0  0  0  0  0  0  0
   -2.5452    2.7423   -0.8964 H   0  0  0  0  0  0  0  0  0  0  0  0
   -2.6990    3.3585    0.7470 H   0  0  0  0  0  0  0  0  0  0  0  0
   -6.2839    2.0472   -1.2115 H   0  0  0  0  0  0  0  0  0  0  0  0
   -4.7762    1.9262   -2.1151 H   0  0  0  0  0  0  0  0  0  0  0  0
   -4.6952    3.8979   -0.6591 H   0  0  0  0  0  0  0  0  0  0  0  0
   -5.1126    2.9300    0.7530 H   0  0  0  0  0  0  0  0  0  0  0  0
    5.4324    0.6658   -1.0469 H   0  0  0  0  0  0  0  0  0  0  0  0
    3.6112    3.7527    1.0833 H   0  0  0  0  0  0  0  0  0  0  0  0
    1.4200    2.8234    1.6435 H   0  0  0  0  0  0  0  0  0  0  0  0
    1.4785    1.0624    1.9112 H   0  0  0  0  0  0  0  0  0  0  0  0
    0.8073    1.7336    0.3737 H   0  0  0  0  0  0  0  0  0  0  0  0
  1 18  1  0  0  0  0
  1 19  1  0  0  0  0
  2  8  1  0  0  0  0
  2 12  1  0  0  0  0
  2 13  1  0  0  0  0
  3  4  1  0  0  0  0
  3 18  2  0  0  0  0
  4 19  2  0  0  0  0
  5 20  1  0  0  0  0
  5 22  1  0  0  0  0
  5 23  1  0  0  0  0
  6 21  1  0  0  0  0
  6 22  2  0  0  0  0
  7  8  1  0  0  0  0
  7 10  1  0  0  0  0
  7 11  1  0  0  0  0
  7 24  1  0  0  0  0
  8 25  1  0  0  0  0
  8 26  1  0  0  0  0
  9 12  1  0  0  0  0
  9 14  1  0  0  0  0
  9 18  1  0  0  0  0
  9 27  1  0  0  0  0
 10 15  1  0  0  0  0
 10 28  1  0  0  0  0
 10 29  1  0  0  0  0
 11 16  1  0  0  0  0
 11 30  1  0  0  0  0
 11 31  1  0  0  0  0
 12 32  1  0  0  0  0
 12 33  1  0  0  0  0
 13 14  1  0  0  0  0
 13 34  1  0  0  0  0
 13 35  1  0  0  0  0
 14 36  1  0  0  0  0
 14 37  1  0  0  0  0
 15 17  1  0  0  0  0
 15 38  1  0  0  0  0
 15 39  1  0  0  0  0
 16 17  1  0  0  0  0
 16 40  1  0  0  0  0
 16 41  1  0  0  0  0
 17 42  1  0  0  0  0
 17 43  1  0  0  0  0
 19 20  1  0  0  0  0
 20 21  2  0  0  0  0
 21 44  1  0  0  0  0
 22 45  1  0  0  0  0
 23 46  1  0  0  0  0
 23 47  1  0  0  0  0
 23 48  1  0  0  0  0
M  END
> <PUBCHEM_COMPOUND_CID>
51137619

> <PUBCHEM_CONFORMER_RMSD>
0.8

> <PUBCHEM_CONFORMER_DIVERSEORDER>
9
160
126
209
131
146
122
79
16
91
83
158
196
61
88
132
36
161
168
174
12
188
166
39
165
151
192
30
85
84
157
201
115
25
69
176
199
191
193
43
74
177
116
66
185
179
100
162
141
34
68
105
72
155
108
4
81
202
181
152
18
159
40
172
54
67
206
103
20
183
96
21
77
114
11
31
154
197
190
28
167
129
194
180
198
153
97
102
133
73
42
200
23
111
142
37
147
139
19
125
2
203
32
138
207
55
144
137
110
140
164
95
57
182
38
120
186
14
145
195
44
89
46
109
93
8
143
24
184
163
10
123
187
189
35
148
45
112
56
104
22
80
7
63
205
175
29
3
15
62
87
26
128
47
1
156
52
113
90
208
210
76
17
48
82
94
41
171
70
121
118
60
49
204
106
101
127
58
170
130
135
5
78
169
64
33
134
13
51
98
136
86
119
27
178
149
50
99
150
53
124
6
117
173
59
71
107
75
65
92

> <PUBCHEM_MMFF94_PARTIAL_CHARGES>
18
1 -0.28
12 0.27
13 0.27
18 0.3
19 0.48
2 -0.81
20 -0.15
21 0.08
22 0.04
23 0.26
3 -0.34
4 -0.34
44 0.15
45 0.15
5 0.05
6 -0.57
8 0.27
9 0.18

> <PUBCHEM_EFFECTIVE_ROTOR_COUNT>
6.2

> <PUBCHEM_PHARMACOPHORE_FEATURES>
6
1 2 cation
3 5 6 22 cation
5 1 3 4 18 19 rings
5 2 9 12 13 14 rings
5 5 6 20 21 22 rings
6 7 10 11 15 16 17 rings

> <PUBCHEM_HEAVY_ATOM_COUNT>
23

> <PUBCHEM_ATOM_DEF_STEREO_COUNT>
1

> <PUBCHEM_ATOM_UDEF_STEREO_COUNT>
0

> <PUBCHEM_BOND_DEF_STEREO_COUNT>
0

> <PUBCHEM_BOND_UDEF_STEREO_COUNT>
0

> <PUBCHEM_ISOTOPIC_ATOM_COUNT>
0

> <PUBCHEM_COMPONENT_COUNT>
1

> <PUBCHEM_CACTVS_TAUTO_COUNT>
1

> <PUBCHEM_CONFORMER_ID>
030C4C5300000009

> <PUBCHEM_MMFF94_ENERGY>
23.4239

> <PUBCHEM_FEATURE_SELFOVERLAP>
30.449

> <PUBCHEM_SHAPE_FINGERPRINT>
10498660 4 18408884031954181485
10615611 76 16952551323032023220
10670039 82 17975713984551638924
11045515 52 17335611389944999735
11221954 11 18411986866204482283
11370993 70 18410008849207804485
12107183 9 18188192244592871578
12549972 3 17896341176181927762
12769317 202 18340196393483751109
12788726 201 17100049746772271147
13103583 49 11747210200402826983
133061 13 17195421432673999432
13402501 40 18340487884319135809
13590594 115 17186166366434667387
13965767 371 17531800256017913607
14251764 38 18411133606626648001
14251764 75 18341059510507967553
14347329 18 18337392763867450728
14466204 15 18120367662541756754
14468879 13 18335704983126522075
14848178 96 18337388249529502117
14931854 50 18272370824075754717
15295992 7 18115880611112251843
15322687 12 18266739069878714401
17093844 170 18410008819470301868
17980427 26 18262783095535145758
18608769 82 18338801238467931443
20398071 114 18410854369381035729
20621476 13 18340769239047064660
21049683 118 17313947395205556401
21279426 13 18342189856169217470
21401589 2 18334863839814998987
21475661 188 18337105679082780495
21860390 5 18057045696643836126
21864079 5 18409163290606591099
23227448 37 18341891913887285455
23559900 14 18270116795258237018
238 59 18270964531523381659
2838139 119 18412537717219096423
3187 122 17825674623361247731
325973 47 18194965372936984885
3298306 158 18343012320082706305
46194498 28 17988937642931076143
474 4 18337666408960037835
5312510 48 18122621657395206829
54672768 99 18410857698175881876
56633871 153 9150880712173238549
5895379 119 17624970539452050563
6328613 192 18187092771751390436
633830 44 18339072671573688439
7288768 16 18186797010990915627
7808743 9 18263923396387359168
84936 182 18191585255381361099
9981440 41 18335697290661234227

> <PUBCHEM_SHAPE_MULTIPOLES>
442.55
10.82
4.37
1.11
2.27
0.17
0.17
-10.72
-2.51
-0.19
0.71
0.08
0.44
1.72

> <PUBCHEM_SHAPE_SELFOVERLAP>
941.651

> <PUBCHEM_SHAPE_VOLUME>
250.1

> <PUBCHEM_COORDINATE_TYPE>
2
5
10

$$$$
