25390943
  -OEChem-12032416403D

 55 58  0     1  0  0  0  0  0999 V2000
    7.0014   -0.8752    0.2999 S   0  0  0  0  0  0  0  0  0  0  0  0
    2.9024    2.4333    0.4689 O   0  0  0  0  0  0  0  0  0  0  0  0
   -0.0909   -0.7713   -2.3572 O   0  0  0  0  0  0  0  0  0  0  0  0
    7.0098   -0.4994   -1.1003 O   0  0  0  0  0  0  0  0  0  0  0  0
    7.8589   -1.9382    0.7878 O   0  0  0  0  0  0  0  0  0  0  0  0
    1.5457   -0.2539   -0.7940 N   0  0  0  0  0  0  0  0  0  0  0  0
    5.4084   -1.2012    0.8057 N   0  0  0  0  0  0  0  0  0  0  0  0
    0.6286    2.3610    0.2443 N   0  0  0  0  0  0  0  0  0  0  0  0
    4.2879   -0.4756    0.1598 C   0  0  2  0  0  0  0  0  0  0  0  0
    1.8627    0.2567    0.5346 C   0  0  1  0  0  0  0  0  0  0  0  0
    3.1411   -0.3209    1.1542 C   0  0  0  0  0  0  0  0  0  0  0  0
    3.8136   -1.2605   -1.0554 C   0  0  0  0  0  0  0  0  0  0  0  0
    2.6467   -0.5457   -1.7170 C   0  0  0  0  0  0  0  0  0  0  0  0
    1.8688    1.7683    0.3923 C   0  0  0  0  0  0  0  0  0  0  0  0
    0.2407   -0.2575   -1.2880 C   0  0  0  0  0  0  0  0  0  0  0  0
   -0.8134    0.4606   -0.5228 C   0  0  0  0  0  0  0  0  0  0  0  0
   -0.6202    1.7208    0.0730 C   0  0  0  0  0  0  0  0  0  0  0  0
   -2.1077   -0.0822   -0.5941 C   0  0  0  0  0  0  0  0  0  0  0  0
   -1.7413    2.4368    0.5241 C   0  0  0  0  0  0  0  0  0  0  0  0
    7.3602    0.5787    1.2588 C   0  0  0  0  0  0  0  0  0  0  0  0
   -3.2025    0.6219   -0.0948 C   0  0  0  0  0  0  0  0  0  0  0  0
   -3.0213    1.8870    0.4515 C   0  0  0  0  0  0  0  0  0  0  0  0
   -4.5286    0.0483   -0.1694 C   0  0  0  0  0  0  0  0  0  0  0  0
   -5.0401   -0.7260    0.8720 C   0  0  0  0  0  0  0  0  0  0  0  0
   -5.2986    0.2810   -1.3090 C   0  0  0  0  0  0  0  0  0  0  0  0
   -6.3217   -1.2676    0.7737 C   0  0  0  0  0  0  0  0  0  0  0  0
   -4.2240   -0.9834    2.1011 C   0  0  0  0  0  0  0  0  0  0  0  0
   -6.5801   -0.2606   -1.4072 C   0  0  0  0  0  0  0  0  0  0  0  0
   -7.0917   -1.0351   -0.3659 C   0  0  0  0  0  0  0  0  0  0  0  0
   -6.8946   -2.1003    1.8735 C   0  0  0  0  0  0  0  0  0  0  0  0
    4.6310    0.5187   -0.1481 H   0  0  0  0  0  0  0  0  0  0  0  0
    1.0480   -0.0040    1.2228 H   0  0  0  0  0  0  0  0  0  0  0  0
    3.4629    0.2863    2.0099 H   0  0  0  0  0  0  0  0  0  0  0  0
    2.8978   -1.3120    1.5633 H   0  0  0  0  0  0  0  0  0  0  0  0
    3.5031   -2.2693   -0.7528 H   0  0  0  0  0  0  0  0  0  0  0  0
    4.6209   -1.3888   -1.7843 H   0  0  0  0  0  0  0  0  0  0  0  0
    2.9773    0.4165   -2.1272 H   0  0  0  0  0  0  0  0  0  0  0  0
    2.2822   -1.1402   -2.5615 H   0  0  0  0  0  0  0  0  0  0  0  0
    5.2499   -1.5481    1.7597 H   0  0  0  0  0  0  0  0  0  0  0  0
    0.6019    3.3694    0.3743 H   0  0  0  0  0  0  0  0  0  0  0  0
   -2.2648   -1.0545   -1.0592 H   0  0  0  0  0  0  0  0  0  0  0  0
   -1.6240    3.4238    0.9675 H   0  0  0  0  0  0  0  0  0  0  0  0
    8.3899    0.8756    1.0475 H   0  0  0  0  0  0  0  0  0  0  0  0
    6.6782    1.3793    0.9675 H   0  0  0  0  0  0  0  0  0  0  0  0
    7.2543    0.3392    2.3185 H   0  0  0  0  0  0  0  0  0  0  0  0
   -3.8642    2.4600    0.8309 H   0  0  0  0  0  0  0  0  0  0  0  0
   -4.9167    0.8819   -2.1312 H   0  0  0  0  0  0  0  0  0  0  0  0
   -4.5089   -0.2799    2.8905 H   0  0  0  0  0  0  0  0  0  0  0  0
   -4.3640   -2.0040    2.4721 H   0  0  0  0  0  0  0  0  0  0  0  0
   -3.1465   -0.8942    1.9395 H   0  0  0  0  0  0  0  0  0  0  0  0
   -7.1796   -0.0798   -2.2946 H   0  0  0  0  0  0  0  0  0  0  0  0
   -8.0916   -1.4505   -0.4595 H   0  0  0  0  0  0  0  0  0  0  0  0
   -6.3824   -3.0662    1.9303 H   0  0  0  0  0  0  0  0  0  0  0  0
   -6.8181   -1.5860    2.8371 H   0  0  0  0  0  0  0  0  0  0  0  0
   -7.9591   -2.3040    1.7112 H   0  0  0  0  0  0  0  0  0  0  0  0
  1  4  2  0  0  0  0
  1  5  2  0  0  0  0
  1  7  1  0  0  0  0
  1 20  1  0  0  0  0
  2 14  2  0  0  0  0
  3 15  2  0  0  0  0
  6 10  1  0  0  0  0
  6 13  1  0  0  0  0
  6 15  1  0  0  0  0
  7  9  1  0  0  0  0
  7 39  1  0  0  0  0
  8 14  1  0  0  0  0
  8 17  1  0  0  0  0
  8 40  1  0  0  0  0
  9 11  1  0  0  0  0
  9 12  1  0  0  0  0
  9 31  1  0  0  0  0
 10 11  1  0  0  0  0
 10 14  1  0  0  0  0
 10 32  1  0  0  0  0
 11 33  1  0  0  0  0
 11 34  1  0  0  0  0
 12 13  1  0  0  0  0
 12 35  1  0  0  0  0
 12 36  1  0  0  0  0
 13 37  1  0  0  0  0
 13 38  1  0  0  0  0
 15 16  1  0  0  0  0
 16 17  2  0  0  0  0
 16 18  1  0  0  0  0
 17 19  1  0  0  0  0
 18 21  2  0  0  0  0
 18 41  1  0  0  0  0
 19 22  2  0  0  0  0
 19 42  1  0  0  0  0
 20 43  1  0  0  0  0
 20 44  1  0  0  0  0
 20 45  1  0  0  0  0
 21 22  1  0  0  0  0
 21 23  1  0  0  0  0
 22 46  1  0  0  0  0
 23 24  1  0  0  0  0
 23 25  2  0  0  0  0
 24 26  2  0  0  0  0
 24 27  1  0  0  0  0
 25 28  1  0  0  0  0
 25 47  1  0  0  0  0
 26 29  1  0  0  0  0
 26 30  1  0  0  0  0
 27 48  1  0  0  0  0
 27 49  1  0  0  0  0
 27 50  1  0  0  0  0
 28 29  2  0  0  0  0
 28 51  1  0  0  0  0
 29 52  1  0  0  0  0
 30 53  1  0  0  0  0
 30 54  1  0  0  0  0
 30 55  1  0  0  0  0
M  END
> <PUBCHEM_COMPOUND_CID>
25390943

> <PUBCHEM_CONFORMER_RMSD>
0.8

> <PUBCHEM_CONFORMER_DIVERSEORDER>
1
14
9
12
16
6
8
10
11
4
13
15
5
3
7
2

> <PUBCHEM_MMFF94_PARTIAL_CHARGES>
34
1 1.33
10 0.36
13 0.3
14 0.57
15 0.54
16 0.09
17 0.12
18 -0.15
19 -0.15
2 -0.57
20 0.11
22 -0.15
24 -0.14
25 -0.15
26 -0.14
27 0.14
28 -0.15
29 -0.15
3 -0.57
30 0.14
39 0.42
4 -0.65
40 0.37
41 0.15
42 0.15
46 0.15
47 0.15
5 -0.65
51 0.15
52 0.15
6 -0.66
7 -0.91
8 -0.55
9 0.36

> <PUBCHEM_EFFECTIVE_ROTOR_COUNT>
4

> <PUBCHEM_PHARMACOPHORE_FEATURES>
10
1 2 acceptor
1 3 acceptor
1 4 acceptor
1 5 acceptor
1 7 donor
1 8 donor
6 16 17 18 19 21 22 rings
6 23 24 25 26 28 29 rings
6 6 9 10 11 12 13 rings
7 6 8 10 14 15 16 17 rings

> <PUBCHEM_HEAVY_ATOM_COUNT>
30

> <PUBCHEM_ATOM_DEF_STEREO_COUNT>
2

> <PUBCHEM_ATOM_UDEF_STEREO_COUNT>
0

> <PUBCHEM_BOND_DEF_STEREO_COUNT>
0

> <PUBCHEM_BOND_UDEF_STEREO_COUNT>
0

> <PUBCHEM_ISOTOPIC_ATOM_COUNT>
0

> <PUBCHEM_COMPONENT_COUNT>
1

> <PUBCHEM_CACTVS_TAUTO_COUNT>
9

> <PUBCHEM_CONFORMER_ID>
01836F5F00000001

> <PUBCHEM_MMFF94_ENERGY>
102.1929

> <PUBCHEM_FEATURE_SELFOVERLAP>
50.79

> <PUBCHEM_SHAPE_FINGERPRINT>
10 15 18131625695664066642
10076449 9 17632584834274686492
10369192 42 11312055452785761241
106641 1 17775279491138408938
11135609 99 18260832647785334242
11315181 36 18040720260164660469
117089 54 18122908629693108450
11796584 16 17822008697197043747
12035758 1 17417805128887434838
12107698 1 18341894090860801960
12166972 35 17603591858921419565
12236239 1 17603588504346148254
12293681 160 12035449424023839644
13540713 4 17415574103208432669
13540713 5 17486756752241628580
13782708 43 18113618975749222194
14028597 1 15625949711760862690
14068700 675 16732700545452432292
14251764 18 16988840596731691430
14341114 328 15051739703183332067
14849402 71 15912754102966759874
15064981 113 16226865832339685135
15183329 4 12035443943460459327
15510800 12 18337684056738622843
17349148 13 17917439765437197621
18335252 98 18342740703142454298
18681886 176 16660646297114769493
19377110 9 16630531752199448067
20028762 73 17918272082549256639
20105231 36 17917997128113674798
21033650 10 16298659491867952357
21267235 1 18272652338097041092
21304304 249 18342173388700537215
21756936 100 13038897824993281917
22224240 67 17131826573628911662
22393880 68 13262973956590494441
2260408 40 16415214342180896645
23559900 14 17822010969139940701
23569917 315 17346313851852341119
23576562 1 13913195429527554706
2747138 104 18272654554168121880
2838139 119 11455880356443083619
3004659 81 16515400789747821459
3178227 256 18343869930588752106
3383291 50 18409731772172662619
3633792 109 17167858638917254901
4461854 278 17918279774572095438
465052 167 18412266163817234333
5104073 3 17701829786383082826
5385378 56 16056606422043969006
5758199 1 15985103020209863518
57724786 102 14260481679197879562
59682541 35 17917706937381833930
636775 8 18334868212097617054
9689198 14 12679459802935265530
9962374 69 18129652123198813775

> <PUBCHEM_SHAPE_MULTIPOLES>
582.82
21.03
2.06
1.65
11.4
0.93
-0.24
-13.24
4.34
-0.23
0.8
-0.86
-0.59
1.46

> <PUBCHEM_SHAPE_SELFOVERLAP>
1253.042

> <PUBCHEM_SHAPE_VOLUME>
322.3

> <PUBCHEM_COORDINATE_TYPE>
2
5
10

$$$$
