45784175
  -OEChem-12032416203D

 39 42  0     1  0  0  0  0  0999 V2000
    7.5702    1.7652   -0.4648 Cl  0  0  0  0  0  0  0  0  0  0  0  0
   -7.9458   -0.0615    0.5259 F   0  0  0  0  0  0  0  0  0  0  0  0
    2.8563   -1.5359    0.2911 O   0  0  0  0  0  0  0  0  0  0  0  0
   -1.6649   -0.2521   -0.1729 N   0  0  1  0  0  0  0  0  0  0  0  0
    2.4820    0.6905    0.0919 N   0  0  0  0  0  0  0  0  0  0  0  0
    0.5114   -0.8872    0.4267 C   0  0  1  0  0  0  0  0  0  0  0  0
   -0.1906   -0.2490    1.6379 C   0  0  0  0  0  0  0  0  0  0  0  0
   -0.3522   -0.4884   -0.7775 C   0  0  0  0  0  0  0  0  0  0  0  0
   -1.3860    0.4932    1.0546 C   0  0  0  0  0  0  0  0  0  0  0  0
   -2.5657    0.4645   -1.0637 C   0  0  0  0  0  0  0  0  0  0  0  0
    1.9645   -0.5063    0.2616 C   0  0  0  0  0  0  0  0  0  0  0  0
   -4.0033    0.3242   -0.6390 C   0  0  0  0  0  0  0  0  0  0  0  0
    3.8301    0.4422    0.0002 C   0  0  0  0  0  0  0  0  0  0  0  0
    4.0632   -0.9197    0.1217 C   0  0  0  0  0  0  0  0  0  0  0  0
   -4.7755   -0.7291   -1.1292 C   0  0  0  0  0  0  0  0  0  0  0  0
   -4.5631    1.2469    0.2446 C   0  0  0  0  0  0  0  0  0  0  0  0
    4.9217    1.3027   -0.1846 C   0  0  0  0  0  0  0  0  0  0  0  0
    5.3173   -1.5157    0.0744 C   0  0  0  0  0  0  0  0  0  0  0  0
   -6.1074   -0.8594   -0.7361 C   0  0  0  0  0  0  0  0  0  0  0  0
   -5.8950    1.1168    0.6378 C   0  0  0  0  0  0  0  0  0  0  0  0
    6.2043    0.7379   -0.2377 C   0  0  0  0  0  0  0  0  0  0  0  0
    6.3955   -0.6435   -0.1105 C   0  0  0  0  0  0  0  0  0  0  0  0
   -6.6672    0.0636    0.1475 C   0  0  0  0  0  0  0  0  0  0  0  0
    0.4567   -1.9783    0.5496 H   0  0  0  0  0  0  0  0  0  0  0  0
   -0.5326   -1.0393    2.3179 H   0  0  0  0  0  0  0  0  0  0  0  0
    0.4563    0.4245    2.2100 H   0  0  0  0  0  0  0  0  0  0  0  0
    0.0340    0.4178   -1.2634 H   0  0  0  0  0  0  0  0  0  0  0  0
   -0.3870   -1.2894   -1.5239 H   0  0  0  0  0  0  0  0  0  0  0  0
   -1.1083    1.5351    0.8495 H   0  0  0  0  0  0  0  0  0  0  0  0
   -2.2236    0.4835    1.7584 H   0  0  0  0  0  0  0  0  0  0  0  0
   -2.2971    1.5252   -1.1636 H   0  0  0  0  0  0  0  0  0  0  0  0
   -2.4838    0.0545   -2.0803 H   0  0  0  0  0  0  0  0  0  0  0  0
   -4.3512   -1.4564   -1.8163 H   0  0  0  0  0  0  0  0  0  0  0  0
   -3.9752    2.0756    0.6301 H   0  0  0  0  0  0  0  0  0  0  0  0
    4.7696    2.3730   -0.2830 H   0  0  0  0  0  0  0  0  0  0  0  0
    5.4543   -2.5852    0.1738 H   0  0  0  0  0  0  0  0  0  0  0  0
   -6.7087   -1.6795   -1.1170 H   0  0  0  0  0  0  0  0  0  0  0  0
   -6.3315    1.8357    1.3248 H   0  0  0  0  0  0  0  0  0  0  0  0
    7.3989   -1.0628   -0.1545 H   0  0  0  0  0  0  0  0  0  0  0  0
  1 21  1  0  0  0  0
  2 23  1  0  0  0  0
  3 11  1  0  0  0  0
  3 14  1  0  0  0  0
  4  8  1  0  0  0  0
  4  9  1  0  0  0  0
  4 10  1  0  0  0  0
  5 11  2  0  0  0  0
  5 13  1  0  0  0  0
  6  7  1  0  0  0  0
  6  8  1  0  0  0  0
  6 11  1  0  0  0  0
  6 24  1  0  0  0  0
  7  9  1  0  0  0  0
  7 25  1  0  0  0  0
  7 26  1  0  0  0  0
  8 27  1  0  0  0  0
  8 28  1  0  0  0  0
  9 29  1  0  0  0  0
  9 30  1  0  0  0  0
 10 12  1  0  0  0  0
 10 31  1  0  0  0  0
 10 32  1  0  0  0  0
 12 15  2  0  0  0  0
 12 16  1  0  0  0  0
 13 14  2  0  0  0  0
 13 17  1  0  0  0  0
 14 18  1  0  0  0  0
 15 19  1  0  0  0  0
 15 33  1  0  0  0  0
 16 20  2  0  0  0  0
 16 34  1  0  0  0  0
 17 21  2  0  0  0  0
 17 35  1  0  0  0  0
 18 22  2  0  0  0  0
 18 36  1  0  0  0  0
 19 23  2  0  0  0  0
 19 37  1  0  0  0  0
 20 23  1  0  0  0  0
 20 38  1  0  0  0  0
 21 22  1  0  0  0  0
 22 39  1  0  0  0  0
M  END
> <PUBCHEM_COMPOUND_CID>
45784175

> <PUBCHEM_CONFORMER_RMSD>
0.6

> <PUBCHEM_CONFORMER_DIVERSEORDER>
1
128
56
119
90
131
84
137
23
103
36
81
100
136
112
30
92
48
27
126
95
85
51
62
10
31
129
108
89
134
93
32
132
125
75
20
76
18
82
135
109
107
58
87
12
123
101
83
67
24
88
86
110
106
29
94
53
102
25
118
98
26
127
120
8
38
15
71
96
124
104
21
111
33
22
105
55
77
78
16
35
68
91
28
19
99
80
43
39
14
70
66
7
97
40
2
45
60
34
41
42
69
52
47
57
117
113
50
6
74
13
73
37
61
122
3
11
130
72
79
9
64
54
5
116
4
65
44
17
59
49
115
114
63
121
46
133

> <PUBCHEM_MMFF94_PARTIAL_CHARGES>
29
1 -0.18
10 0.41
11 0.3
12 -0.14
13 0.23
14 0.14
15 -0.15
16 -0.15
17 -0.15
18 -0.15
19 -0.15
2 -0.19
20 -0.15
21 0.18
22 -0.15
23 0.19
3 -0.28
33 0.15
34 0.15
35 0.15
36 0.15
37 0.15
38 0.15
39 0.15
4 -0.81
5 -0.57
6 0.18
8 0.27
9 0.27

> <PUBCHEM_EFFECTIVE_ROTOR_COUNT>
4

> <PUBCHEM_PHARMACOPHORE_FEATURES>
5
1 4 cation
5 3 5 11 13 14 rings
5 4 6 7 8 9 rings
6 12 15 16 19 20 23 rings
6 13 14 17 18 21 22 rings

> <PUBCHEM_HEAVY_ATOM_COUNT>
23

> <PUBCHEM_ATOM_DEF_STEREO_COUNT>
1

> <PUBCHEM_ATOM_UDEF_STEREO_COUNT>
0

> <PUBCHEM_BOND_DEF_STEREO_COUNT>
0

> <PUBCHEM_BOND_UDEF_STEREO_COUNT>
0

> <PUBCHEM_ISOTOPIC_ATOM_COUNT>
0

> <PUBCHEM_COMPONENT_COUNT>
1

> <PUBCHEM_CACTVS_TAUTO_COUNT>
1

> <PUBCHEM_CONFORMER_ID>
02BA9C6F00000001

> <PUBCHEM_MMFF94_ENERGY>
45.2663

> <PUBCHEM_FEATURE_SELFOVERLAP>
25.492

> <PUBCHEM_SHAPE_FINGERPRINT>
10 15 15430320265435708676
10299344 5 18202001032300148847
10411042 1 17975411310318435810
10595046 47 18412824655457348425
106641 1 15068624919966883156
11315181 36 18411419515075133805
11646440 116 17167585977071387836
11724838 91 17748827457556014334
12166972 35 18409450288837923988
12236239 1 18202281386021155374
12516196 113 15936128556163273855
12643181 29 13470685958279681980
12730499 353 17894912902118997186
12916748 109 17167860838204280428
13073987 5 16660915578526430325
13167372 99 18340206285025795840
13533116 47 18272930484632645194
14123256 10 17313103047294619403
14170010 4 18113900477086548116
1420 363 17458064850602221767
14251752 14 17275103916300198025
14251764 18 18342174474952534709
14251764 46 18410573985156732387
14849402 71 18337114569639547436
14856354 85 17632859755025789301
14933364 13 18342739615444797845
15183329 4 17632579340014794673
15419008 47 16226042301844700237
15537594 2 15841546358138875399
15716309 27 18410854348375418287
18006028 8 10952053355160686346
18335252 98 18335425702889012651
20157964 124 18334013896210717066
20281389 69 17749104487531860412
20735858 18 14996281422566532393
21150785 3 18131354128855167320
21236236 1 12391525165573742131
21267235 1 18341051818415958950
21521721 280 18333733528475804114
220451 1 17775562035504090815
221357 26 18335416851219897860
22224240 67 16732702765718213890
23035841 295 17918272048199488583
23081809 10 18202273693429026711
23198884 109 18411419505772984499
23516275 137 17916044403103756127
23522609 53 18058470788315458089
23536379 177 18343300344878904667
23559900 14 18335978778453683473
23569943 247 17316190333795640506
23622692 88 14201402689821816346
2747138 104 17240776068560626197
28498 318 11312064235524506096
29717793 49 17846785083880374494
3004659 81 16845570937656456368
335352 9 17418370291150161097
34797466 226 18341899580414270046
3545911 37 17967813842780928210
397830 11 16444208575559168097
4073 2 18187368765643625114
4325135 7 18411136939980166637
445580 37 16845301518410359241
5265222 85 17632009878901567559
5283156 175 17060342899323220094
542803 24 18201433670855989422
559249 180 8790879684290153257
5758199 1 18334014999099446987
59682541 35 17240489139012256233
59755656 520 18259699016905872707
9996256 80 18409727344044639789

> <PUBCHEM_SHAPE_MULTIPOLES>
452.09
21.89
1.4
1.02
4.43
0.1
-0.11
4.49
2.19
-1.72
0.03
0.79
-0.01
-1.06

> <PUBCHEM_SHAPE_SELFOVERLAP>
984.904

> <PUBCHEM_SHAPE_VOLUME>
249.4

> <PUBCHEM_COORDINATE_TYPE>
2
5
10

$$$$
