75536748
  -OEChem-12032416393D

 51 53  0     1  0  0  0  0  0999 V2000
   -0.1380   -0.9431    0.5013 O   0  0  0  0  0  0  0  0  0  0  0  0
   -1.2892    2.4550    0.3202 O   0  0  0  0  0  0  0  0  0  0  0  0
    7.0776   -1.1894   -0.5812 O   0  0  0  0  0  0  0  0  0  0  0  0
    3.1630    1.8360   -0.5090 O   0  0  0  0  0  0  0  0  0  0  0  0
   -3.5278    0.3211    0.8770 N   0  0  0  0  0  0  0  0  0  0  0  0
   -7.2429   -0.4205   -1.0596 N   0  0  0  0  0  0  0  0  0  0  0  0
    2.4996    0.1543    0.9038 N   0  0  0  0  0  0  0  0  0  0  0  0
    4.5033   -0.0492   -0.3339 N   0  0  0  0  0  0  0  0  0  0  0  0
   -2.2106    0.1946    0.2750 C   0  0  1  0  0  0  0  0  0  0  0  0
   -1.1826    1.1494    0.8534 C   0  0  1  0  0  0  0  0  0  0  0  0
   -4.5408   -0.3591    0.0731 C   0  0  0  0  0  0  0  0  0  0  0  0
    0.1152    0.4703    0.4373 C   0  0  1  0  0  0  0  0  0  0  0  0
   -1.5603   -1.1511    0.5514 C   0  0  0  0  0  0  0  0  0  0  0  0
   -5.7762   -0.6664    0.9257 C   0  0  0  0  0  0  0  0  0  0  0  0
   -4.9358    0.4866   -1.1429 C   0  0  0  0  0  0  0  0  0  0  0  0
    1.2907    0.8223    1.3313 C   0  0  0  0  0  0  0  0  0  0  0  0
   -6.8877   -1.2796    0.0726 C   0  0  0  0  0  0  0  0  0  0  0  0
   -6.0800   -0.1718   -1.9151 C   0  0  0  0  0  0  0  0  0  0  0  0
    3.3754    0.7248   -0.0124 C   0  0  0  0  0  0  0  0  0  0  0  0
    4.7539   -1.4339    0.0906 C   0  0  0  0  0  0  0  0  0  0  0  0
    5.4759    0.4721   -1.2970 C   0  0  0  0  0  0  0  0  0  0  0  0
    6.2178   -1.6280    0.4714 C   0  0  0  0  0  0  0  0  0  0  0  0
    6.8993    0.2056   -0.8328 C   0  0  0  0  0  0  0  0  0  0  0  0
   -2.2462    0.3724   -0.8068 H   0  0  0  0  0  0  0  0  0  0  0  0
   -1.2667    1.2055    1.9458 H   0  0  0  0  0  0  0  0  0  0  0  0
   -4.1572   -1.3256   -0.2803 H   0  0  0  0  0  0  0  0  0  0  0  0
    0.3626    0.7108   -0.6051 H   0  0  0  0  0  0  0  0  0  0  0  0
   -3.7731    1.3053    0.9799 H   0  0  0  0  0  0  0  0  0  0  0  0
   -1.7957   -1.5296    1.5528 H   0  0  0  0  0  0  0  0  0  0  0  0
   -1.8381   -1.9157   -0.1802 H   0  0  0  0  0  0  0  0  0  0  0  0
   -6.1493    0.2526    1.3980 H   0  0  0  0  0  0  0  0  0  0  0  0
   -5.5149   -1.3577    1.7363 H   0  0  0  0  0  0  0  0  0  0  0  0
   -4.0941    0.6250   -1.8296 H   0  0  0  0  0  0  0  0  0  0  0  0
   -5.2513    1.4887   -0.8220 H   0  0  0  0  0  0  0  0  0  0  0  0
    1.1063    0.4863    2.3578 H   0  0  0  0  0  0  0  0  0  0  0  0
    1.4575    1.9046    1.3468 H   0  0  0  0  0  0  0  0  0  0  0  0
   -6.5857   -2.2707   -0.2877 H   0  0  0  0  0  0  0  0  0  0  0  0
   -7.7769   -1.4246    0.6960 H   0  0  0  0  0  0  0  0  0  0  0  0
   -6.3831    0.4878   -2.7356 H   0  0  0  0  0  0  0  0  0  0  0  0
   -5.7396   -1.1106   -2.3694 H   0  0  0  0  0  0  0  0  0  0  0  0
   -7.9736   -0.8727   -1.6085 H   0  0  0  0  0  0  0  0  0  0  0  0
   -1.2162    2.3973   -0.6475 H   0  0  0  0  0  0  0  0  0  0  0  0
    2.6624   -0.7614    1.2967 H   0  0  0  0  0  0  0  0  0  0  0  0
    4.5087   -2.0621   -0.7741 H   0  0  0  0  0  0  0  0  0  0  0  0
    4.1288   -1.7552    0.9216 H   0  0  0  0  0  0  0  0  0  0  0  0
    5.3285    1.5426   -1.4686 H   0  0  0  0  0  0  0  0  0  0  0  0
    5.2836   -0.0510   -2.2413 H   0  0  0  0  0  0  0  0  0  0  0  0
    6.4202   -2.6886    0.6508 H   0  0  0  0  0  0  0  0  0  0  0  0
    6.4638   -1.0817    1.3900 H   0  0  0  0  0  0  0  0  0  0  0  0
    7.1389    0.7730    0.0743 H   0  0  0  0  0  0  0  0  0  0  0  0
    7.6103    0.5010   -1.6106 H   0  0  0  0  0  0  0  0  0  0  0  0
  1 12  1  0  0  0  0
  1 13  1  0  0  0  0
  2 10  1  0  0  0  0
  2 42  1  0  0  0  0
  3 22  1  0  0  0  0
  3 23  1  0  0  0  0
  4 19  2  0  0  0  0
  5  9  1  0  0  0  0
  5 11  1  0  0  0  0
  5 28  1  0  0  0  0
  6 17  1  0  0  0  0
  6 18  1  0  0  0  0
  6 41  1  0  0  0  0
  7 16  1  0  0  0  0
  7 19  1  0  0  0  0
  7 43  1  0  0  0  0
  8 19  1  0  0  0  0
  8 20  1  0  0  0  0
  8 21  1  0  0  0  0
  9 10  1  0  0  0  0
  9 13  1  0  0  0  0
  9 24  1  0  0  0  0
 10 12  1  0  0  0  0
 10 25  1  0  0  0  0
 11 14  1  0  0  0  0
 11 15  1  0  0  0  0
 11 26  1  0  0  0  0
 12 16  1  0  0  0  0
 12 27  1  0  0  0  0
 13 29  1  0  0  0  0
 13 30  1  0  0  0  0
 14 17  1  0  0  0  0
 14 31  1  0  0  0  0
 14 32  1  0  0  0  0
 15 18  1  0  0  0  0
 15 33  1  0  0  0  0
 15 34  1  0  0  0  0
 16 35  1  0  0  0  0
 16 36  1  0  0  0  0
 17 37  1  0  0  0  0
 17 38  1  0  0  0  0
 18 39  1  0  0  0  0
 18 40  1  0  0  0  0
 20 22  1  0  0  0  0
 20 44  1  0  0  0  0
 20 45  1  0  0  0  0
 21 23  1  0  0  0  0
 21 46  1  0  0  0  0
 21 47  1  0  0  0  0
 22 48  1  0  0  0  0
 22 49  1  0  0  0  0
 23 50  1  0  0  0  0
 23 51  1  0  0  0  0
M  END
> <PUBCHEM_COMPOUND_CID>
75536748

> <PUBCHEM_CONFORMER_RMSD>
1

> <PUBCHEM_CONFORMER_DIVERSEORDER>
1
7
13
39
31
19
20
28
5
4
29
21
25
16
41
18
43
40
17
26
37
22
38
11
23
34
12
24
9
30
6
35
8
33
14
2
36
15
3
27
42
10
32

> <PUBCHEM_MMFF94_PARTIAL_CHARGES>
25
1 -0.56
10 0.28
11 0.27
12 0.28
13 0.28
16 0.3
17 0.27
18 0.27
19 0.69
2 -0.68
20 0.3
21 0.3
22 0.28
23 0.28
28 0.36
3 -0.56
4 -0.57
41 0.36
42 0.4
43 0.37
5 -0.9
6 -0.9
7 -0.73
8 -0.66
9 0.27

> <PUBCHEM_EFFECTIVE_ROTOR_COUNT>
9.4

> <PUBCHEM_PHARMACOPHORE_FEATURES>
13
1 1 acceptor
1 2 acceptor
1 2 donor
1 3 acceptor
1 4 acceptor
1 5 cation
1 5 donor
1 6 cation
1 6 donor
1 7 donor
5 1 9 10 12 13 rings
6 3 8 20 21 22 23 rings
6 6 11 14 15 17 18 rings

> <PUBCHEM_HEAVY_ATOM_COUNT>
23

> <PUBCHEM_ATOM_DEF_STEREO_COUNT>
3

> <PUBCHEM_ATOM_UDEF_STEREO_COUNT>
0

> <PUBCHEM_BOND_DEF_STEREO_COUNT>
0

> <PUBCHEM_BOND_UDEF_STEREO_COUNT>
0

> <PUBCHEM_ISOTOPIC_ATOM_COUNT>
0

> <PUBCHEM_COMPONENT_COUNT>
1

> <PUBCHEM_CACTVS_TAUTO_COUNT>
2

> <PUBCHEM_CONFORMER_ID>
0480996C00000001

> <PUBCHEM_MMFF94_ENERGY>
30.1135

> <PUBCHEM_FEATURE_SELFOVERLAP>
65.973

> <PUBCHEM_SHAPE_FINGERPRINT>
106641 1 15482663590375979994
10670039 82 17968090889710128429
11524674 6 15841833361155331527
11991303 11 18187927343442106351
12166972 35 18259990396066436933
12516196 113 16343704326993668850
12670543 26 18260544507240432513
12760667 363 18060702779860474651
13533116 47 18201999962874664232
13668630 136 17703792517717715950
13673619 4 17775565338297148313
13685833 64 17132114645601158938
13862211 1 18131349709017263307
14251752 14 18113613478096079222
14251757 52 13623541177596788542
14251764 18 17203328939795246696
14347332 77 18342175514498351976
14933364 13 17240202136238347815
15048467 5 13334734630901406869
15183329 4 17894347748414426744
15348495 7 12391501014597778271
15706992 2 13623817077431206975
15716309 27 14979954783159014855
17093844 174 13901911099274298995
17834072 8 18040715878775740165
18222031 100 18271798047463656193
190975 80 11815603208068736517
2026 5 17415858899176571902
20281389 69 13190332474374769927
21150785 3 17748545956909804447
21267235 1 18342460370315606931
21623969 137 11959733784622218724
21637258 2 17203603792159350537
221357 26 17894348874223704236
2215653 11 18335422370131163986
22956985 138 16985208747281575462
23035841 295 17846499249279885911
23081809 10 17917720118778935753
23198884 109 16515402958838135699
23402539 116 18343305833826458289
23522609 53 17701570439120755560
23559900 14 18339079414393112600
2767999 5 12684808922492923239
3004659 81 18261108586775443288
34797466 226 17313111877504767455
445580 37 16226045574778272189
465052 167 17988647427494853175
5104073 3 14907331018491300763
5758199 1 12757146866700981337
59682541 35 11023817392810995447
59682541 52 17894631427379526650
59755656 215 18334574620543410762
6438161 24 18113890538764489994

> <PUBCHEM_SHAPE_MULTIPOLES>
429.93
21.49
1.55
1.27
1.82
0.25
-0.32
-8
-8.64
1.02
0.19
-1.01
0.14
-0.17

> <PUBCHEM_SHAPE_SELFOVERLAP>
873.339

> <PUBCHEM_SHAPE_VOLUME>
248.5

> <PUBCHEM_COORDINATE_TYPE>
2
5
10

$$$$
