28961540
  -OEChem-12032416293D

 55 57  0     1  0  0  0  0  0999 V2000
   -1.5774    1.6540    0.6383 O   0  0  0  0  0  0  0  0  0  0  0  0
   -3.8084    1.5798   -1.3580 O   0  0  0  0  0  0  0  0  0  0  0  0
   -1.5875    4.4651    0.6871 O   0  0  0  0  0  0  0  0  0  0  0  0
    0.6579   -2.1800    0.2940 O   0  0  0  0  0  0  0  0  0  0  0  0
   -4.0155   -0.9925   -0.1044 N   0  0  0  0  0  0  0  0  0  0  0  0
    0.2081   -0.1143   -0.6622 N   0  0  0  0  0  0  0  0  0  0  0  0
    6.5939    0.1303   -0.0002 N   0  0  0  0  0  0  0  0  0  0  0  0
   -3.4219    0.1508    0.5727 C   0  0  1  0  0  0  0  0  0  0  0  0
   -1.8916    0.2482    0.5239 C   0  0  1  0  0  0  0  0  0  0  0  0
   -3.8684    1.5117    0.0608 C   0  0  1  0  0  0  0  0  0  0  0  0
   -2.8038    2.4086    0.6811 C   0  0  2  0  0  0  0  0  0  0  0  0
   -5.4746   -1.0050   -0.0040 C   0  0  0  0  0  0  0  0  0  0  0  0
   -3.5846   -2.2670    0.4694 C   0  0  0  0  0  0  0  0  0  0  0  0
   -5.8319   -2.4257   -0.4150 C   0  0  0  0  0  0  0  0  0  0  0  0
   -4.5910   -3.2557   -0.1006 C   0  0  0  0  0  0  0  0  0  0  0  0
   -1.2140   -0.2650   -0.7417 C   0  0  0  0  0  0  0  0  0  0  0  0
   -2.5936    3.7450   -0.0068 C   0  0  0  0  0  0  0  0  0  0  0  0
    1.0448   -1.0992   -0.1426 C   0  0  0  0  0  0  0  0  0  0  0  0
    2.4949   -0.7786   -0.1058 C   0  0  0  0  0  0  0  0  0  0  0  0
    3.3174   -1.3775    0.8483 C   0  0  0  0  0  0  0  0  0  0  0  0
    3.0338    0.1219   -1.0247 C   0  0  0  0  0  0  0  0  0  0  0  0
    4.6787   -1.0758    0.8838 C   0  0  0  0  0  0  0  0  0  0  0  0
    4.3951    0.4237   -0.9892 C   0  0  0  0  0  0  0  0  0  0  0  0
    5.2175   -0.1751   -0.0350 C   0  0  0  0  0  0  0  0  0  0  0  0
    7.4579   -0.4865    0.9867 C   0  0  0  0  0  0  0  0  0  0  0  0
    7.1642    1.0591   -0.9558 C   0  0  0  0  0  0  0  0  0  0  0  0
   -3.6960    0.1180    1.6396 H   0  0  0  0  0  0  0  0  0  0  0  0
   -1.4594   -0.2583    1.3959 H   0  0  0  0  0  0  0  0  0  0  0  0
   -4.8796    1.7840    0.3801 H   0  0  0  0  0  0  0  0  0  0  0  0
   -3.0171    2.5691    1.7458 H   0  0  0  0  0  0  0  0  0  0  0  0
   -5.9503   -0.2752   -0.6665 H   0  0  0  0  0  0  0  0  0  0  0  0
   -5.8158   -0.8214    1.0231 H   0  0  0  0  0  0  0  0  0  0  0  0
   -3.6663   -2.2606    1.5646 H   0  0  0  0  0  0  0  0  0  0  0  0
   -2.5673   -2.5676    0.2130 H   0  0  0  0  0  0  0  0  0  0  0  0
   -6.0501   -2.4777   -1.4882 H   0  0  0  0  0  0  0  0  0  0  0  0
   -6.7115   -2.7909    0.1246 H   0  0  0  0  0  0  0  0  0  0  0  0
   -4.8107   -4.0597    0.6091 H   0  0  0  0  0  0  0  0  0  0  0  0
   -4.2094   -3.7133   -1.0209 H   0  0  0  0  0  0  0  0  0  0  0  0
   -1.5247    0.3231   -1.6116 H   0  0  0  0  0  0  0  0  0  0  0  0
   -1.4310   -1.3117   -0.9549 H   0  0  0  0  0  0  0  0  0  0  0  0
   -3.5147    4.3356   -0.0083 H   0  0  0  0  0  0  0  0  0  0  0  0
   -2.2410    3.6135   -1.0347 H   0  0  0  0  0  0  0  0  0  0  0  0
   -4.2039    2.4257   -1.6288 H   0  0  0  0  0  0  0  0  0  0  0  0
    0.5862    0.7846   -0.9415 H   0  0  0  0  0  0  0  0  0  0  0  0
   -1.4764    5.3156    0.2289 H   0  0  0  0  0  0  0  0  0  0  0  0
    2.9149   -2.0782    1.5752 H   0  0  0  0  0  0  0  0  0  0  0  0
    2.4341    0.5861   -1.8020 H   0  0  0  0  0  0  0  0  0  0  0  0
    5.2763   -1.5670    1.6454 H   0  0  0  0  0  0  0  0  0  0  0  0
    4.7674    1.1252   -1.7293 H   0  0  0  0  0  0  0  0  0  0  0  0
    8.4949   -0.1470    0.8857 H   0  0  0  0  0  0  0  0  0  0  0  0
    7.4746   -1.5761    0.8724 H   0  0  0  0  0  0  0  0  0  0  0  0
    7.1441   -0.2284    2.0043 H   0  0  0  0  0  0  0  0  0  0  0  0
    8.2407    1.1906   -0.7995 H   0  0  0  0  0  0  0  0  0  0  0  0
    6.7126    2.0529   -0.8600 H   0  0  0  0  0  0  0  0  0  0  0  0
    7.0409    0.6965   -1.9824 H   0  0  0  0  0  0  0  0  0  0  0  0
  1  9  1  0  0  0  0
  1 11  1  0  0  0  0
  2 10  1  0  0  0  0
  2 43  1  0  0  0  0
  3 17  1  0  0  0  0
  3 45  1  0  0  0  0
  4 18  2  0  0  0  0
  5  8  1  0  0  0  0
  5 12  1  0  0  0  0
  5 13  1  0  0  0  0
  6 16  1  0  0  0  0
  6 18  1  0  0  0  0
  6 44  1  0  0  0  0
  7 24  1  0  0  0  0
  7 25  1  0  0  0  0
  7 26  1  0  0  0  0
  8  9  1  0  0  0  0
  8 10  1  0  0  0  0
  8 27  1  0  0  0  0
  9 16  1  0  0  0  0
  9 28  1  0  0  0  0
 10 11  1  0  0  0  0
 10 29  1  0  0  0  0
 11 17  1  0  0  0  0
 11 30  1  0  0  0  0
 12 14  1  0  0  0  0
 12 31  1  0  0  0  0
 12 32  1  0  0  0  0
 13 15  1  0  0  0  0
 13 33  1  0  0  0  0
 13 34  1  0  0  0  0
 14 15  1  0  0  0  0
 14 35  1  0  0  0  0
 14 36  1  0  0  0  0
 15 37  1  0  0  0  0
 15 38  1  0  0  0  0
 16 39  1  0  0  0  0
 16 40  1  0  0  0  0
 17 41  1  0  0  0  0
 17 42  1  0  0  0  0
 18 19  1  0  0  0  0
 19 20  2  0  0  0  0
 19 21  1  0  0  0  0
 20 22  1  0  0  0  0
 20 46  1  0  0  0  0
 21 23  2  0  0  0  0
 21 47  1  0  0  0  0
 22 24  2  0  0  0  0
 22 48  1  0  0  0  0
 23 24  1  0  0  0  0
 23 49  1  0  0  0  0
 25 50  1  0  0  0  0
 25 51  1  0  0  0  0
 25 52  1  0  0  0  0
 26 53  1  0  0  0  0
 26 54  1  0  0  0  0
 26 55  1  0  0  0  0
M  END
> <PUBCHEM_COMPOUND_CID>
28961540

> <PUBCHEM_CONFORMER_RMSD>
1

> <PUBCHEM_CONFORMER_DIVERSEORDER>
1
15
7
9
16
10
4
5
11
14
3
17
13
8
2
12
6

> <PUBCHEM_MMFF94_PARTIAL_CHARGES>
31
1 -0.56
10 0.28
11 0.28
12 0.27
13 0.27
16 0.3
17 0.28
18 0.54
19 0.09
2 -0.68
20 -0.15
21 -0.15
22 -0.15
23 -0.15
24 0.1
25 0.37
26 0.37
3 -0.68
4 -0.57
43 0.4
44 0.37
45 0.4
46 0.15
47 0.15
48 0.15
49 0.15
5 -0.81
6 -0.73
7 -0.84
8 0.27
9 0.28

> <PUBCHEM_EFFECTIVE_ROTOR_COUNT>
9

> <PUBCHEM_PHARMACOPHORE_FEATURES>
12
1 1 acceptor
1 2 acceptor
1 2 donor
1 3 acceptor
1 3 donor
1 4 acceptor
1 5 cation
1 6 donor
1 7 cation
5 1 8 9 10 11 rings
5 5 12 13 14 15 rings
6 19 20 21 22 23 24 rings

> <PUBCHEM_HEAVY_ATOM_COUNT>
26

> <PUBCHEM_ATOM_DEF_STEREO_COUNT>
4

> <PUBCHEM_ATOM_UDEF_STEREO_COUNT>
0

> <PUBCHEM_BOND_DEF_STEREO_COUNT>
0

> <PUBCHEM_BOND_UDEF_STEREO_COUNT>
0

> <PUBCHEM_ISOTOPIC_ATOM_COUNT>
0

> <PUBCHEM_COMPONENT_COUNT>
1

> <PUBCHEM_CACTVS_TAUTO_COUNT>
2

> <PUBCHEM_CONFORMER_ID>
01B9EB0400000001

> <PUBCHEM_MMFF94_ENERGY>
77.6443

> <PUBCHEM_FEATURE_SELFOVERLAP>
60.901

> <PUBCHEM_SHAPE_FINGERPRINT>
100830 39 18411136931585410642
10411042 1 18267866275993671947
10595046 47 18335139783021765346
10937287 8 17548138827493893569
11056379 131 18340496568974922071
11101153 10 18337957908264460060
11315181 36 18113620113894378679
12107183 9 17613994097787240770
12166972 35 17968096477494014828
12236239 1 18260266348390022006
12596602 18 18334011697023872888
12788726 201 18334570223171893139
12916748 109 18343306964061947838
13631057 29 18410570721451618611
13782708 43 17560815290471413878
13914758 101 16370994192256674919
14068700 675 18335420226968889917
14251764 18 17967812774336300426
14394314 77 18409735054502550931
14565420 104 17120877396849533761
14856354 85 18341054132697190791
15183329 4 11455894637731334882
15419008 47 17917710240496456848
1577012 14 18260553316745747572
16087824 20 18339643344780770817
16992727 255 18189039912571699221
17844677 252 18339088090538039622
17857418 61 18113898286109972790
19427546 20 18408603643899842901
19489759 90 18259703406303809891
20511986 3 17895462657431335147
21033650 10 18194149363978890550
21065198 48 18261109639243144162
21236236 1 18408040714709244275
21315759 40 17967248698816766850
21792961 116 17346606253800260238
21796203 349 17905358421697463883
22956985 138 17616534403639598667
23081809 10 17676211256530968870
23559900 14 18338507642887770097
249057 25 18113343016317537444
32027 91 17838342878483367550
335352 9 18411976984819272735
34797466 226 17417541323696538484
3633792 109 17385711491973413715
4015057 19 15285648741017588975
4280585 95 18341046432558761119
4325135 7 18335138712910536710
469060 322 18342190959237535873
497634 4 18187362116754156551
5104073 3 18115875096584760098
550186 72 18410575093507176084
5969126 39 18201148932479464197
6677587 24 15583672188767330285
67856867 119 18188776166022350748
7808743 9 18339643313502605816
9996256 80 18409448081741367214

> <PUBCHEM_SHAPE_MULTIPOLES>
496.65
17.44
3.63
1
25.08
3.41
-0.07
-5.16
-0.29
-7.26
0.59
0.64
0.13
-1.29

> <PUBCHEM_SHAPE_SELFOVERLAP>
1038.101

> <PUBCHEM_SHAPE_VOLUME>
282.9

> <PUBCHEM_COORDINATE_TYPE>
2
5
10

$$$$
