75536772
  -OEChem-12032416303D

 52 54  0     1  0  0  0  0  0999 V2000
   -3.8174   -1.0096    0.6577 O   0  0  0  0  0  0  0  0  0  0  0  0
   -5.0752    1.9074    0.2358 O   0  0  0  0  0  0  0  0  0  0  0  0
   -1.7357   -2.7538   -0.5348 O   0  0  0  0  0  0  0  0  0  0  0  0
    4.4863    2.2040   -0.7203 O   0  0  0  0  0  0  0  0  0  0  0  0
   -1.5742    1.0867    0.7895 N   0  0  0  0  0  0  0  0  0  0  0  0
   -1.9704   -0.6435   -1.4522 N   0  0  0  0  0  0  0  0  0  0  0  0
    0.1206   -1.3375   -0.7781 N   0  0  0  0  0  0  0  0  0  0  0  0
   -2.9950    1.1611    1.1234 C   0  0  1  0  0  0  0  0  0  0  0  0
   -3.8592    1.2466   -0.1224 C   0  0  1  0  0  0  0  0  0  0  0  0
   -4.1682   -0.2056   -0.4840 C   0  0  1  0  0  0  0  0  0  0  0  0
   -3.4710   -0.1423    1.7440 C   0  0  0  0  0  0  0  0  0  0  0  0
   -3.3843   -0.7131   -1.6847 C   0  0  0  0  0  0  0  0  0  0  0  0
   -1.0010    2.4184    0.6348 C   0  0  0  0  0  0  0  0  0  0  0  0
    0.4597    2.3616    0.2746 C   0  0  0  0  0  0  0  0  0  0  0  0
   -1.2279   -1.6899   -0.8815 C   0  0  0  0  0  0  0  0  0  0  0  0
    1.4086    2.0616    1.2522 C   0  0  0  0  0  0  0  0  0  0  0  0
    0.8642    2.6088   -1.0372 C   0  0  0  0  0  0  0  0  0  0  0  0
    2.7617    2.0089    0.9180 C   0  0  0  0  0  0  0  0  0  0  0  0
    2.2174    2.5563   -1.3715 C   0  0  0  0  0  0  0  0  0  0  0  0
    3.1660    2.2563   -0.3940 C   0  0  0  0  0  0  0  0  0  0  0  0
    1.1834   -2.1139   -0.2602 C   0  0  0  0  0  0  0  0  0  0  0  0
    0.9379   -3.3984    0.2250 C   0  0  0  0  0  0  0  0  0  0  0  0
    2.4777   -1.5945   -0.2348 C   0  0  0  0  0  0  0  0  0  0  0  0
    1.9865   -4.1633    0.7358 C   0  0  0  0  0  0  0  0  0  0  0  0
    3.5265   -2.3594    0.2758 C   0  0  0  0  0  0  0  0  0  0  0  0
    5.4022    1.8907    0.3282 C   0  0  0  0  0  0  0  0  0  0  0  0
    3.2809   -3.6437    0.7610 C   0  0  0  0  0  0  0  0  0  0  0  0
   -3.1786    1.9720    1.8389 H   0  0  0  0  0  0  0  0  0  0  0  0
   -3.4226    1.8239   -0.9433 H   0  0  0  0  0  0  0  0  0  0  0  0
   -5.2383   -0.3512   -0.6718 H   0  0  0  0  0  0  0  0  0  0  0  0
   -2.7325   -0.6331    2.3857 H   0  0  0  0  0  0  0  0  0  0  0  0
   -4.3768    0.0191    2.3403 H   0  0  0  0  0  0  0  0  0  0  0  0
   -3.6073   -0.1179   -2.5759 H   0  0  0  0  0  0  0  0  0  0  0  0
   -3.6502   -1.7559   -1.8898 H   0  0  0  0  0  0  0  0  0  0  0  0
   -1.0769    0.6037    1.5381 H   0  0  0  0  0  0  0  0  0  0  0  0
   -1.1034    2.9946    1.5641 H   0  0  0  0  0  0  0  0  0  0  0  0
   -1.5395    2.9827   -0.1363 H   0  0  0  0  0  0  0  0  0  0  0  0
   -5.6377    1.9294   -0.5572 H   0  0  0  0  0  0  0  0  0  0  0  0
   -1.4844    0.2115   -1.7048 H   0  0  0  0  0  0  0  0  0  0  0  0
    1.1046    1.8671    2.2774 H   0  0  0  0  0  0  0  0  0  0  0  0
    0.1356    2.8397   -1.8098 H   0  0  0  0  0  0  0  0  0  0  0  0
    0.3774   -0.4129   -1.1141 H   0  0  0  0  0  0  0  0  0  0  0  0
    3.4447    1.7690    1.7256 H   0  0  0  0  0  0  0  0  0  0  0  0
    2.5263    2.7482   -2.3954 H   0  0  0  0  0  0  0  0  0  0  0  0
   -0.0351   -3.8687    0.2390 H   0  0  0  0  0  0  0  0  0  0  0  0
    2.6857   -0.6050   -0.6269 H   0  0  0  0  0  0  0  0  0  0  0  0
    1.7968   -5.1637    1.1139 H   0  0  0  0  0  0  0  0  0  0  0  0
    4.5348   -1.9561    0.2916 H   0  0  0  0  0  0  0  0  0  0  0  0
    6.4061    1.8916   -0.1088 H   0  0  0  0  0  0  0  0  0  0  0  0
    5.2282    0.8856    0.7271 H   0  0  0  0  0  0  0  0  0  0  0  0
    5.3937    2.6558    1.1119 H   0  0  0  0  0  0  0  0  0  0  0  0
    4.0976   -4.2397    1.1578 H   0  0  0  0  0  0  0  0  0  0  0  0
  1 10  1  0  0  0  0
  1 11  1  0  0  0  0
  2  9  1  0  0  0  0
  2 38  1  0  0  0  0
  3 15  2  0  0  0  0
  4 20  1  0  0  0  0
  4 26  1  0  0  0  0
  5  8  1  0  0  0  0
  5 13  1  0  0  0  0
  5 35  1  0  0  0  0
  6 12  1  0  0  0  0
  6 15  1  0  0  0  0
  6 39  1  0  0  0  0
  7 15  1  0  0  0  0
  7 21  1  0  0  0  0
  7 42  1  0  0  0  0
  8  9  1  0  0  0  0
  8 11  1  0  0  0  0
  8 28  1  0  0  0  0
  9 10  1  0  0  0  0
  9 29  1  0  0  0  0
 10 12  1  0  0  0  0
 10 30  1  0  0  0  0
 11 31  1  0  0  0  0
 11 32  1  0  0  0  0
 12 33  1  0  0  0  0
 12 34  1  0  0  0  0
 13 14  1  0  0  0  0
 13 36  1  0  0  0  0
 13 37  1  0  0  0  0
 14 16  2  0  0  0  0
 14 17  1  0  0  0  0
 16 18  1  0  0  0  0
 16 40  1  0  0  0  0
 17 19  2  0  0  0  0
 17 41  1  0  0  0  0
 18 20  2  0  0  0  0
 18 43  1  0  0  0  0
 19 20  1  0  0  0  0
 19 44  1  0  0  0  0
 21 22  2  0  0  0  0
 21 23  1  0  0  0  0
 22 24  1  0  0  0  0
 22 45  1  0  0  0  0
 23 25  2  0  0  0  0
 23 46  1  0  0  0  0
 24 27  2  0  0  0  0
 24 47  1  0  0  0  0
 25 27  1  0  0  0  0
 25 48  1  0  0  0  0
 26 49  1  0  0  0  0
 26 50  1  0  0  0  0
 26 51  1  0  0  0  0
 27 52  1  0  0  0  0
M  END
> <PUBCHEM_COMPOUND_CID>
75536772

> <PUBCHEM_CONFORMER_RMSD>
1

> <PUBCHEM_CONFORMER_DIVERSEORDER>
3
4
64
171
121
94
138
69
49
115
130
78
39
164
13
148
65
111
90
82
12
109
59
37
169
10
160
163
58
55
16
131
129
149
113
120
75
68
165
84
125
9
98
147
124
116
53
95
118
166
23
133
27
52
137
1
132
34
61
128
155
142
7
93
150
63
99
104
72
22
87
173
143
170
29
30
96
11
32
123
92
18
127
60
140
83
126
26
119
154
89
43
67
47
77
33
50
20
88
71
114
139
144
66
15
156
108
153
17
35
81
80
42
122
45
135
25
162
106
159
70
107
2
86
105
5
46
141
146
41
136
101
36
112
100
174
167
6
48
161
85
56
74
57
172
28
62
157
24
110
102
76
168
31
54
73
14
97
40
44
103
8
19
151
117
38
91
79
21
134
51
152
158
145

> <PUBCHEM_MMFF94_PARTIAL_CHARGES>
40
1 -0.56
10 0.28
11 0.28
12 0.3
13 0.41
14 -0.14
15 0.69
16 -0.15
17 -0.15
18 -0.15
19 -0.15
2 -0.68
20 0.08
21 0.12
22 -0.15
23 -0.15
24 -0.15
25 -0.15
26 0.28
27 -0.15
3 -0.57
35 0.36
38 0.4
39 0.37
4 -0.36
40 0.15
41 0.15
42 0.37
43 0.15
44 0.15
45 0.15
46 0.15
47 0.15
48 0.15
5 -0.9
52 0.15
6 -0.73
7 -0.55
8 0.27
9 0.28

> <PUBCHEM_EFFECTIVE_ROTOR_COUNT>
10

> <PUBCHEM_PHARMACOPHORE_FEATURES>
12
1 1 acceptor
1 2 acceptor
1 2 donor
1 3 acceptor
1 4 acceptor
1 5 cation
1 5 donor
1 6 donor
1 7 donor
5 1 8 9 10 11 rings
6 14 16 17 18 19 20 rings
6 21 22 23 24 25 27 rings

> <PUBCHEM_HEAVY_ATOM_COUNT>
27

> <PUBCHEM_ATOM_DEF_STEREO_COUNT>
3

> <PUBCHEM_ATOM_UDEF_STEREO_COUNT>
0

> <PUBCHEM_BOND_DEF_STEREO_COUNT>
0

> <PUBCHEM_BOND_UDEF_STEREO_COUNT>
0

> <PUBCHEM_ISOTOPIC_ATOM_COUNT>
0

> <PUBCHEM_COMPONENT_COUNT>
1

> <PUBCHEM_CACTVS_TAUTO_COUNT>
3

> <PUBCHEM_CONFORMER_ID>
0480998400000003

> <PUBCHEM_MMFF94_ENERGY>
74.8254

> <PUBCHEM_FEATURE_SELFOVERLAP>
60.951

> <PUBCHEM_SHAPE_FINGERPRINT>
10190108 129 17977962503237474739
1100329 8 18341331085072792495
11513181 2 17917991655328054542
11578080 2 17968925410529520277
11963148 33 18121777490411305339
12156800 1 15309644697583270975
12422481 6 18265870533413308648
13140716 1 18410851079689262122
13941206 138 18190748729090764950
14117953 113 17188413763753620748
14251757 5 17472430219180291036
14725015 67 17693649729126100274
14790565 3 18265336290858269356
16120349 306 18341042017094978592
17138139 8 17772175664270712820
18336668 15 18341323389055433136
20739085 24 18260544524763277652
21857420 4 13282877990286661484
25147074 1 18059852853794700085
338550 245 18409451414635924092
35225 105 17396444048141253107
445580 44 17615379503760295506
463206 1 18341896315928031432
474 4 18409158935404485202
5282940 2 18411979169696856438
57091435 65 18410863122724416226

> <PUBCHEM_SHAPE_MULTIPOLES>
517.23
8.85
5.27
1.35
2.33
3.37
-0.05
-2.65
0.67
-6.29
0.4
0.71
-0.24
-1.42

> <PUBCHEM_SHAPE_SELFOVERLAP>
1092.763

> <PUBCHEM_SHAPE_VOLUME>
290

> <PUBCHEM_COORDINATE_TYPE>
2
5
10

$$$$
