56774195
  -OEChem-12032416323D

 55 58  0     1  0  0  0  0  0999 V2000
    3.4322    1.9072    0.1041 O   0  0  0  0  0  0  0  0  0  0  0  0
    8.2595   -2.1436    0.0971 O   0  0  0  0  0  0  0  0  0  0  0  0
   -3.7782   -0.2881    0.3335 N   0  0  0  0  0  0  0  0  0  0  0  0
    2.1675    2.4605   -0.0546 N   0  0  0  0  0  0  0  0  0  0  0  0
   -8.3925   -1.9450   -0.7903 N   0  0  0  0  0  0  0  0  0  0  0  0
   -2.3775    1.7586    0.2476 C   0  0  0  0  0  0  0  0  0  0  0  0
   -0.8845    1.3812    0.3438 C   0  0  1  0  0  0  0  0  0  0  0  0
   -2.6806    0.4341    0.9784 C   0  0  2  0  0  0  0  0  0  0  0  0
   -1.3408   -0.0907    0.4218 C   0  0  0  0  0  0  0  0  0  0  0  0
    0.0001    1.7126   -0.8655 C   0  0  0  0  0  0  0  0  0  0  0  0
   -2.8031    2.9703    1.0593 C   0  0  0  0  0  0  0  0  0  0  0  0
   -2.8807    1.9083   -1.1722 C   0  0  0  0  0  0  0  0  0  0  0  0
    1.4212    1.4765   -0.5646 C   0  0  0  0  0  0  0  0  0  0  0  0
   -4.9938   -0.1342    1.1248 C   0  0  0  0  0  0  0  0  0  0  0  0
    2.1540    0.2911   -0.7476 C   0  0  0  0  0  0  0  0  0  0  0  0
   -6.1833   -0.7681    0.4541 C   0  0  0  0  0  0  0  0  0  0  0  0
    3.4117    0.6152   -0.3121 C   0  0  0  0  0  0  0  0  0  0  0  0
   -6.7985   -0.1352   -0.6204 C   0  0  0  0  0  0  0  0  0  0  0  0
   -6.6714   -1.9888    0.9071 C   0  0  0  0  0  0  0  0  0  0  0  0
    4.6615   -0.0967   -0.2055 C   0  0  0  0  0  0  0  0  0  0  0  0
   -7.8899   -0.7595   -1.2025 C   0  0  0  0  0  0  0  0  0  0  0  0
   -7.7685   -2.5303    0.2566 C   0  0  0  0  0  0  0  0  0  0  0  0
    4.7408   -1.4307   -0.6055 C   0  0  0  0  0  0  0  0  0  0  0  0
    5.7912    0.5491    0.2968 C   0  0  0  0  0  0  0  0  0  0  0  0
    5.9496   -2.1189   -0.5029 C   0  0  0  0  0  0  0  0  0  0  0  0
    7.0002   -0.1391    0.3995 C   0  0  0  0  0  0  0  0  0  0  0  0
    7.0793   -1.4731   -0.0004 C   0  0  0  0  0  0  0  0  0  0  0  0
    9.3746   -1.4226    0.6196 C   0  0  0  0  0  0  0  0  0  0  0  0
   -0.4374    1.7328    1.2867 H   0  0  0  0  0  0  0  0  0  0  0  0
   -2.6925    0.4690    2.0752 H   0  0  0  0  0  0  0  0  0  0  0  0
   -1.3899   -0.6075   -0.5453 H   0  0  0  0  0  0  0  0  0  0  0  0
   -0.7651   -0.7171    1.1106 H   0  0  0  0  0  0  0  0  0  0  0  0
   -0.1306    2.7706   -1.1281 H   0  0  0  0  0  0  0  0  0  0  0  0
   -0.2917    1.1358   -1.7510 H   0  0  0  0  0  0  0  0  0  0  0  0
   -2.4534    2.9073    2.0959 H   0  0  0  0  0  0  0  0  0  0  0  0
   -2.3916    3.8925    0.6340 H   0  0  0  0  0  0  0  0  0  0  0  0
   -3.8936    3.0702    1.0861 H   0  0  0  0  0  0  0  0  0  0  0  0
   -2.4683    2.8036   -1.6517 H   0  0  0  0  0  0  0  0  0  0  0  0
   -2.6342    1.0532   -1.8110 H   0  0  0  0  0  0  0  0  0  0  0  0
   -3.9715    2.0197   -1.1968 H   0  0  0  0  0  0  0  0  0  0  0  0
   -3.5919   -1.2852    0.2205 H   0  0  0  0  0  0  0  0  0  0  0  0
   -5.2204    0.9277    1.2855 H   0  0  0  0  0  0  0  0  0  0  0  0
   -4.8557   -0.5733    2.1216 H   0  0  0  0  0  0  0  0  0  0  0  0
    1.8082   -0.6547   -1.1386 H   0  0  0  0  0  0  0  0  0  0  0  0
   -6.4443    0.8177   -0.9986 H   0  0  0  0  0  0  0  0  0  0  0  0
   -6.2159   -2.5119    1.7410 H   0  0  0  0  0  0  0  0  0  0  0  0
   -8.4052   -0.3071   -2.0434 H   0  0  0  0  0  0  0  0  0  0  0  0
   -8.1873   -3.4806    0.5709 H   0  0  0  0  0  0  0  0  0  0  0  0
    3.8777   -1.9599   -1.0009 H   0  0  0  0  0  0  0  0  0  0  0  0
    5.7676    1.5875    0.6177 H   0  0  0  0  0  0  0  0  0  0  0  0
    6.0057   -3.1578   -0.8164 H   0  0  0  0  0  0  0  0  0  0  0  0
    7.8383    0.4225    0.7978 H   0  0  0  0  0  0  0  0  0  0  0  0
   10.2279   -2.1086    0.6276 H   0  0  0  0  0  0  0  0  0  0  0  0
    9.2037   -1.1131    1.6563 H   0  0  0  0  0  0  0  0  0  0  0  0
    9.6475   -0.5806   -0.0256 H   0  0  0  0  0  0  0  0  0  0  0  0
  1  4  1  0  0  0  0
  1 17  1  0  0  0  0
  2 27  1  0  0  0  0
  2 28  1  0  0  0  0
  3  8  1  0  0  0  0
  3 14  1  0  0  0  0
  3 41  1  0  0  0  0
  4 13  2  0  0  0  0
  5 21  2  0  0  0  0
  5 22  1  0  0  0  0
  6  7  1  0  0  0  0
  6  8  1  0  0  0  0
  6 11  1  0  0  0  0
  6 12  1  0  0  0  0
  7  9  1  0  0  0  0
  7 10  1  0  0  0  0
  7 29  1  0  0  0  0
  8  9  1  0  0  0  0
  8 30  1  0  0  0  0
  9 31  1  0  0  0  0
  9 32  1  0  0  0  0
 10 13  1  0  0  0  0
 10 33  1  0  0  0  0
 10 34  1  0  0  0  0
 11 35  1  0  0  0  0
 11 36  1  0  0  0  0
 11 37  1  0  0  0  0
 12 38  1  0  0  0  0
 12 39  1  0  0  0  0
 12 40  1  0  0  0  0
 13 15  1  0  0  0  0
 14 16  1  0  0  0  0
 14 42  1  0  0  0  0
 14 43  1  0  0  0  0
 15 17  2  0  0  0  0
 15 44  1  0  0  0  0
 16 18  2  0  0  0  0
 16 19  1  0  0  0  0
 17 20  1  0  0  0  0
 18 21  1  0  0  0  0
 18 45  1  0  0  0  0
 19 22  2  0  0  0  0
 19 46  1  0  0  0  0
 20 23  2  0  0  0  0
 20 24  1  0  0  0  0
 21 47  1  0  0  0  0
 22 48  1  0  0  0  0
 23 25  1  0  0  0  0
 23 49  1  0  0  0  0
 24 26  2  0  0  0  0
 24 50  1  0  0  0  0
 25 27  2  0  0  0  0
 25 51  1  0  0  0  0
 26 27  1  0  0  0  0
 26 52  1  0  0  0  0
 28 53  1  0  0  0  0
 28 54  1  0  0  0  0
 28 55  1  0  0  0  0
M  END
> <PUBCHEM_COMPOUND_CID>
56774195

> <PUBCHEM_CONFORMER_RMSD>
1

> <PUBCHEM_CONFORMER_DIVERSEORDER>
2
56
61
69
39
66
11
64
30
28
52
7
4
44
8
27
65
36
26
57
33
46
41
23
76
70
6
17
37
51
78
21
63
12
49
25
75
29
71
47
38
43
79
13
35
55
20
3
1
54
81
73
68
31
34
40
16
74
80
67
48
15
77
10
42
32
62
58
19
53
9
22
72
18
59
5
24
14
45
60
50

> <PUBCHEM_MMFF94_PARTIAL_CHARGES>
33
1 -0.02
10 0.18
13 0.11
14 0.41
15 -0.15
16 -0.14
17 0.09
18 -0.15
19 -0.15
2 -0.36
20 0.05
21 0.16
22 0.16
23 -0.15
24 -0.15
25 -0.15
26 -0.15
27 0.08
28 0.28
3 -0.84
4 -0.41
41 0.36
44 0.15
45 0.15
46 0.15
47 0.15
48 0.15
49 0.15
5 -0.62
50 0.15
51 0.15
52 0.15
8 0.21

> <PUBCHEM_EFFECTIVE_ROTOR_COUNT>
7.8

> <PUBCHEM_PHARMACOPHORE_FEATURES>
10
1 2 acceptor
1 3 cation
1 3 donor
1 4 acceptor
1 5 acceptor
3 6 11 12 hydrophobe
4 6 7 8 9 rings
5 1 4 13 15 17 rings
6 20 23 24 25 26 27 rings
6 5 16 18 19 21 22 rings

> <PUBCHEM_HEAVY_ATOM_COUNT>
28

> <PUBCHEM_ATOM_DEF_STEREO_COUNT>
2

> <PUBCHEM_ATOM_UDEF_STEREO_COUNT>
0

> <PUBCHEM_BOND_DEF_STEREO_COUNT>
0

> <PUBCHEM_BOND_UDEF_STEREO_COUNT>
0

> <PUBCHEM_ISOTOPIC_ATOM_COUNT>
0

> <PUBCHEM_COMPONENT_COUNT>
1

> <PUBCHEM_CACTVS_TAUTO_COUNT>
1

> <PUBCHEM_CONFORMER_ID>
03624E3300000002

> <PUBCHEM_MMFF94_ENERGY>
79.3469

> <PUBCHEM_FEATURE_SELFOVERLAP>
50.747

> <PUBCHEM_SHAPE_FINGERPRINT>
10 15 12391514183046427647
10066227 112 8142088650253067543
10369192 42 9079125449541204753
106641 1 15841548587290159266
10677351 14 18113342990621723412
10917259 69 18117270369000338693
11135609 99 18411701027625577262
11135926 11 18335703824361480315
11211813 128 18271810087032654654
11386260 185 16515971470616158972
11410812 94 16660635211930747500
12013929 27 18117274964472745615
12013929 94 18412267229950409426
12120059 9 18115857504989876978
12202916 173 18335141990382501610
12760667 363 18410579492133156601
13533116 47 18340209690639637912
13668630 136 18260265274379081771
13685833 64 18410013226227599160
13782708 43 18411141333526248249
14918687 75 17917705842861518830
14931854 50 17095241406245451578
15064981 194 8862072009583622938
15183329 4 16226040111748851677
15188451 53 18410575084932351144
15198563 99 16950550079226359373
15519825 34 15841543116045345391
15690457 1 18342173375694328662
15706992 2 10519703431620375962
16126227 98 9943805590979437617
1768 124 18131355193796534950
1768 4 9799692619318067087
18603816 31 17774994740014587255
190975 80 18412827972074148560
19302320 297 11959724980646624458
20028762 73 18343025484099803662
20105231 36 17895765114832691683
2026 5 18335701607008738979
20505436 4 9871750169805610964
21095123 293 11527943474358061170
21130935 74 18198905800221648554
21197605 99 18343305851776805254
212700 22 18410570695239274787
21304304 249 18408888447128158846
21307412 95 17385732430291975147
21987483 16 17558539473284809651
23389318 12 18114472231923165708
23522609 53 18049763746955754340
23528940 14 18189890930535651834
23559900 14 18042128820185511081
23576562 1 14563392777147302439
2851757 41 18409175402409909634
3004659 81 17968092066762736681
3014063 24 18411140242229696879
3383291 50 18410294717841614051
3627633 1 18335702676603730669
3711267 37 9439402475342868594
4339292 15 17749665213298844706
44880568 143 17385999585916812901
5718773 13 18410294709203277283
5758199 1 11384117440554296037
58083652 198 16271911732665322953
59682541 35 17846775218103320130
59755656 215 17748824116182396947
6126387 218 18131070407974538625
6138700 20 18260831514557195731
6328613 192 10665224861204174407
6691757 9 15482658066362690693
6698420 124 17197437533763057625
9953998 17 13758356687797906727
9962374 69 18341044216170701838

> <PUBCHEM_SHAPE_MULTIPOLES>
549.55
28.74
2.82
1.03
7.76
0.36
-0.03
-27.92
0.23
-1.26
0.12
-1.17
0.1
-0.16

> <PUBCHEM_SHAPE_SELFOVERLAP>
1183.88

> <PUBCHEM_SHAPE_VOLUME>
305

> <PUBCHEM_COORDINATE_TYPE>
2
5
10

$$$$
