11913066
  -OEChem-12032416123D

 61 65  0     1  0  0  0  0  0999 V2000
    0.7302    0.7190    0.8818 O   0  0  0  0  0  0  0  0  0  0  0  0
    0.9496    3.0620   -1.0867 O   0  0  0  0  0  0  0  0  0  0  0  0
    3.2967    0.5212   -0.1546 O   0  0  0  0  0  0  0  0  0  0  0  0
    4.7766    0.7037   -1.8886 O   0  0  0  0  0  0  0  0  0  0  0  0
    9.4809   -2.2150    1.7874 O   0  0  0  0  0  0  0  0  0  0  0  0
   -9.4338   -3.0521   -0.8358 O   0  0  0  0  0  0  0  0  0  0  0  0
   -2.1146    1.2290   -0.2641 N   0  0  0  0  0  0  0  0  0  0  0  0
   -4.2974    0.4788   -0.0086 N   0  0  0  0  0  0  0  0  0  0  0  0
   -3.4803    2.3880    1.2139 N   0  0  0  0  0  0  0  0  0  0  0  0
    5.3867   -0.2698    0.1512 N   0  0  0  0  0  0  0  0  0  0  0  0
    0.0746    1.9146   -1.0582 C   0  0  1  0  0  0  0  0  0  0  0  0
    0.8963    0.7489   -0.5451 C   0  0  1  0  0  0  0  0  0  0  0  0
   -0.9908    2.1029   -0.0039 C   0  0  2  0  0  0  0  0  0  0  0  0
    2.3008    1.1411   -0.9364 C   0  0  1  0  0  0  0  0  0  0  0  0
   -0.2720    1.6738    1.2635 C   0  0  0  0  0  0  0  0  0  0  0  0
    2.2780    2.6407   -0.7444 C   0  0  0  0  0  0  0  0  0  0  0  0
   -3.3513    1.3714    0.3402 C   0  0  0  0  0  0  0  0  0  0  0  0
    4.5323    0.3460   -0.7428 C   0  0  0  0  0  0  0  0  0  0  0  0
   -5.4902    0.6470    0.5990 C   0  0  0  0  0  0  0  0  0  0  0  0
   -4.6982    2.4976    1.7840 C   0  0  0  0  0  0  0  0  0  0  0  0
   -5.7510    1.6479    1.5126 C   0  0  0  0  0  0  0  0  0  0  0  0
    6.7389   -0.6316   -0.0454 C   0  0  0  0  0  0  0  0  0  0  0  0
   -6.5068   -0.3084    0.2287 C   0  0  0  0  0  0  0  0  0  0  0  0
    7.4512   -1.2523    0.9808 C   0  0  0  0  0  0  0  0  0  0  0  0
    7.3607   -0.3681   -1.2659 C   0  0  0  0  0  0  0  0  0  0  0  0
   -7.6958    0.1306   -0.3537 C   0  0  0  0  0  0  0  0  0  0  0  0
   -6.3016   -1.6696    0.4540 C   0  0  0  0  0  0  0  0  0  0  0  0
    8.7855   -1.6094    0.7865 C   0  0  0  0  0  0  0  0  0  0  0  0
    8.6949   -0.7253   -1.4602 C   0  0  0  0  0  0  0  0  0  0  0  0
   -8.6796   -0.7914   -0.7108 C   0  0  0  0  0  0  0  0  0  0  0  0
   -7.2854   -2.5917    0.0971 C   0  0  0  0  0  0  0  0  0  0  0  0
    9.4074   -1.3459   -0.4340 C   0  0  0  0  0  0  0  0  0  0  0  0
   -8.4744   -2.1525   -0.4853 C   0  0  0  0  0  0  0  0  0  0  0  0
   10.8412   -2.5529    1.5208 C   0  0  0  0  0  0  0  0  0  0  0  0
   -9.1593   -4.4281   -0.5773 C   0  0  0  0  0  0  0  0  0  0  0  0
   -0.3065    1.7630   -2.0732 H   0  0  0  0  0  0  0  0  0  0  0  0
    0.5876   -0.2253   -0.9356 H   0  0  0  0  0  0  0  0  0  0  0  0
   -1.3158    3.1479    0.0559 H   0  0  0  0  0  0  0  0  0  0  0  0
    2.4166    0.9096   -2.0043 H   0  0  0  0  0  0  0  0  0  0  0  0
   -0.9191    1.2264    2.0238 H   0  0  0  0  0  0  0  0  0  0  0  0
    0.2498    2.5227    1.7191 H   0  0  0  0  0  0  0  0  0  0  0  0
    2.4857    2.9318    0.2914 H   0  0  0  0  0  0  0  0  0  0  0  0
    3.0008    3.1537   -1.3858 H   0  0  0  0  0  0  0  0  0  0  0  0
   -1.9996    0.4401   -0.8902 H   0  0  0  0  0  0  0  0  0  0  0  0
    4.9980   -0.4919    1.0645 H   0  0  0  0  0  0  0  0  0  0  0  0
   -4.8075    3.3140    2.4900 H   0  0  0  0  0  0  0  0  0  0  0  0
   -6.7105    1.7723    1.9992 H   0  0  0  0  0  0  0  0  0  0  0  0
    6.9728   -1.4608    1.9349 H   0  0  0  0  0  0  0  0  0  0  0  0
    6.8736    0.1085   -2.1052 H   0  0  0  0  0  0  0  0  0  0  0  0
   -7.8737    1.1867   -0.5431 H   0  0  0  0  0  0  0  0  0  0  0  0
   -5.3822   -2.0296    0.9104 H   0  0  0  0  0  0  0  0  0  0  0  0
    9.1794   -0.5203   -2.4106 H   0  0  0  0  0  0  0  0  0  0  0  0
   -9.6031   -0.4438   -1.1656 H   0  0  0  0  0  0  0  0  0  0  0  0
   -7.0614   -3.6332    0.3007 H   0  0  0  0  0  0  0  0  0  0  0  0
   10.4399   -1.5963   -0.6526 H   0  0  0  0  0  0  0  0  0  0  0  0
   10.9224   -3.2883    0.7132 H   0  0  0  0  0  0  0  0  0  0  0  0
   11.4481   -1.6608    1.3326 H   0  0  0  0  0  0  0  0  0  0  0  0
   11.2399   -3.0256    2.4245 H   0  0  0  0  0  0  0  0  0  0  0  0
   -8.2980   -4.7818   -1.1540 H   0  0  0  0  0  0  0  0  0  0  0  0
   -9.0486   -4.6219    0.4951 H   0  0  0  0  0  0  0  0  0  0  0  0
  -10.0284   -5.0006   -0.9174 H   0  0  0  0  0  0  0  0  0  0  0  0
  1 12  1  0  0  0  0
  1 15  1  0  0  0  0
  2 11  1  0  0  0  0
  2 16  1  0  0  0  0
  3 14  1  0  0  0  0
  3 18  1  0  0  0  0
  4 18  2  0  0  0  0
  5 28  1  0  0  0  0
  5 34  1  0  0  0  0
  6 33  1  0  0  0  0
  6 35  1  0  0  0  0
  7 13  1  0  0  0  0
  7 17  1  0  0  0  0
  7 44  1  0  0  0  0
  8 17  1  0  0  0  0
  8 19  2  0  0  0  0
  9 17  2  0  0  0  0
  9 20  1  0  0  0  0
 10 18  1  0  0  0  0
 10 22  1  0  0  0  0
 10 45  1  0  0  0  0
 11 12  1  0  0  0  0
 11 13  1  0  0  0  0
 11 36  1  0  0  0  0
 12 14  1  0  0  0  0
 12 37  1  0  0  0  0
 13 15  1  0  0  0  0
 13 38  1  0  0  0  0
 14 16  1  0  0  0  0
 14 39  1  0  0  0  0
 15 40  1  0  0  0  0
 15 41  1  0  0  0  0
 16 42  1  0  0  0  0
 16 43  1  0  0  0  0
 19 21  1  0  0  0  0
 19 23  1  0  0  0  0
 20 21  2  0  0  0  0
 20 46  1  0  0  0  0
 21 47  1  0  0  0  0
 22 24  2  0  0  0  0
 22 25  1  0  0  0  0
 23 26  2  0  0  0  0
 23 27  1  0  0  0  0
 24 28  1  0  0  0  0
 24 48  1  0  0  0  0
 25 29  2  0  0  0  0
 25 49  1  0  0  0  0
 26 30  1  0  0  0  0
 26 50  1  0  0  0  0
 27 31  2  0  0  0  0
 27 51  1  0  0  0  0
 28 32  2  0  0  0  0
 29 32  1  0  0  0  0
 29 52  1  0  0  0  0
 30 33  2  0  0  0  0
 30 53  1  0  0  0  0
 31 33  1  0  0  0  0
 31 54  1  0  0  0  0
 32 55  1  0  0  0  0
 34 56  1  0  0  0  0
 34 57  1  0  0  0  0
 34 58  1  0  0  0  0
 35 59  1  0  0  0  0
 35 60  1  0  0  0  0
 35 61  1  0  0  0  0
M  END
> <PUBCHEM_COMPOUND_CID>
11913066

> <PUBCHEM_CONFORMER_RMSD>
1

> <PUBCHEM_CONFORMER_DIVERSEORDER>
4
78
61
228
196
76
21
89
120
57
35
190
197
83
46
138
26
19
174
42
202
212
184
112
65
11
109
188
36
216
152
93
205
164
45
220
217
17
32
232
150
49
187
185
98
102
223
122
81
43
149
211
108
235
170
222
10
71
227
160
172
121
12
9
181
117
148
107
156
249
100
101
239
245
113
145
103
238
141
114
243
153
23
125
24
177
198
154
115
105
244
173
219
192
39
55
230
183
180
96
131
229
179
215
25
144
38
236
8
27
6
82
178
226
224
191
241
7
111
124
132
169
99
193
208
92
13
209
44
159
147
203
250
63
210
79
168
41
140
60
142
116
167
218
199
137
97
22
195
130
88
143
128
200
136
87
67
16
204
146
134
119
2
237
74
72
106
86
171
95
207
242
234
66
90
123
161
240
51
69
233
34
62
225
194
246
15
158
20
251
80
91
29
31
37
56
166
247
68
64
14
182
165
157
126
189
5
53
104
40
186
163
151
127
50
213
162
176
252
139
94
54
231
214
110
48
221
248
47
18
155
52
84
118
3
1
77
129
85
59
75
28
30
33
58
70
206
73
175
135
201
133

> <PUBCHEM_MMFF94_PARTIAL_CHARGES>
46
1 -0.56
10 -0.55
11 0.28
12 0.28
13 0.37
14 0.28
15 0.28
16 0.28
17 0.72
18 0.78
19 0.31
2 -0.56
20 0.16
21 -0.15
22 0.12
24 -0.15
25 -0.15
26 -0.15
27 -0.15
28 0.08
29 -0.15
3 -0.43
30 -0.15
31 -0.15
32 -0.15
33 0.08
34 0.28
35 0.28
4 -0.57
44 0.4
45 0.37
46 0.15
47 0.15
48 0.15
49 0.15
5 -0.36
50 0.15
51 0.15
52 0.15
53 0.15
54 0.15
55 0.15
6 -0.36
7 -0.87
8 -0.62
9 -0.62

> <PUBCHEM_EFFECTIVE_ROTOR_COUNT>
10.2

> <PUBCHEM_PHARMACOPHORE_FEATURES>
14
1 1 acceptor
1 10 donor
1 2 acceptor
1 4 acceptor
1 5 acceptor
1 6 acceptor
1 7 donor
1 8 acceptor
4 7 8 9 17 cation
5 1 11 12 13 15 rings
5 2 11 12 14 16 rings
6 22 24 25 28 29 32 rings
6 23 26 27 30 31 33 rings
6 8 9 17 19 20 21 rings

> <PUBCHEM_HEAVY_ATOM_COUNT>
35

> <PUBCHEM_ATOM_DEF_STEREO_COUNT>
4

> <PUBCHEM_ATOM_UDEF_STEREO_COUNT>
0

> <PUBCHEM_BOND_DEF_STEREO_COUNT>
0

> <PUBCHEM_BOND_UDEF_STEREO_COUNT>
0

> <PUBCHEM_ISOTOPIC_ATOM_COUNT>
0

> <PUBCHEM_COMPONENT_COUNT>
1

> <PUBCHEM_CACTVS_TAUTO_COUNT>
6

> <PUBCHEM_CONFORMER_ID>
00B5C76A00000004

> <PUBCHEM_MMFF94_ENERGY>
132.1337

> <PUBCHEM_FEATURE_SELFOVERLAP>
71.765

> <PUBCHEM_SHAPE_FINGERPRINT>
10100884 174 18340485668454231779
10533779 47 15841282463212621022
11135609 99 18270963548344973943
11181472 205 9727637203186916332
11386260 185 15936699267317908620
11408170 132 7781521426107224448
11409948 41 17095796643092250218
11411753 3 15624560955312929348
11828042 75 18116160051140524715
12013929 27 18189333658222449607
12013929 94 18202007633886143108
12089408 11 18336271163370349980
12120059 9 18200871751837138094
12539745 222 18202002088604167241
12539765 74 8790886289923819008
12592606 108 18334858328981801518
12838863 1 18270960254591114455
13530399 1 10303806593130642938
13974486 7 17986945453370938399
14068700 675 18411144627518913632
14359421 15 18337106887251420843
14918687 75 18408040703021555282
14919807 6 12468635015572474898
14965480 1 17681561665329754171
150020 25 14345801547992788532
15198563 99 15430032115731564182
15247644 1 18268148662258583654
15347590 135 15123798365956239607
15690457 1 18260829268468355546
15706992 2 10519981603656362357
16991971 28 18260550039058187208
16992610 120 9511455654960654736
1754908 1 17489590031014445402
19302320 297 12391509810881153146
19303781 99 18130498752185608357
19841028 212 18337953497068874089
2026 5 18407759235954784427
20505436 4 8718833059493749929
20609170 45 11820089160351215368
21102433 48 18187921747943583122
21130935 74 17844537608798420366
21130991 4 18338231670075986631
21360443 89 18408598146673857634
21585482 111 9439136329668634375
21792938 703 18188214324259760329
21792965 78 18114746032184546411
22002106 203 18411414046479609174
23389318 12 18040443204909933460
23528940 14 18188763939627721874
23576562 1 15430895365577128327
25242607 90 18341891917607064129
3383291 50 18060143158750074263
406291 66 18339927112478402135
4339292 15 18343014489410267677
4353968 344 17822568304974923141
44389302 135 18340487747624429322
44802255 64 13118002211019470161
4516262 110 10375603555941960569
4760202 70 18261403290869241196
5219985 9 18187091616184479524
54039377 194 18409168831161778695
57303763 39 18413672410448968750
5758199 1 11024106529693376828
5874358 3 18335699459577013399
5937810 71 8862938377285515987
59682541 35 17060617781271819708
6201320 221 14418678210102214296
9953998 17 14979952576010412717
9962374 69 18187086153159489468

> <PUBCHEM_SHAPE_MULTIPOLES>
665.14
39.89
3.76
1.46
34.58
2.15
-0.23
49.26
-3.05
-7.47
-0.2
2.03
-0.21
-5.59

> <PUBCHEM_SHAPE_SELFOVERLAP>
1453.338

> <PUBCHEM_SHAPE_VOLUME>
360.3

> <PUBCHEM_COORDINATE_TYPE>
2
5
10

$$$$
