40777310
  -OEChem-12032416333D

 72 76  0     1  0  0  0  0  0999 V2000
    4.6271   -0.7294    0.3657 S   0  0  0  0  0  0  0  0  0  0  0  0
    5.5022   -0.1553    1.3699 O   0  0  0  0  0  0  0  0  0  0  0  0
    5.1452   -1.6886   -0.5909 O   0  0  0  0  0  0  0  0  0  0  0  0
    1.8087    3.6854   -0.0501 N   0  0  2  0  0  0  0  0  0  0  0  0
    3.8367    0.5239   -0.4742 N   0  0  0  0  0  0  0  0  0  0  0  0
   -1.4708    0.6946   -1.1022 N   0  0  0  0  0  0  0  0  0  0  0  0
   -3.0779   -0.3324    0.3709 N   0  0  0  0  0  0  0  0  0  0  0  0
   -2.4868   -3.6717   -3.2814 N   0  0  0  0  0  0  0  0  0  0  0  0
    2.2462   -2.2715   -2.0857 N   0  0  0  0  0  0  0  0  0  0  0  0
    0.3033    2.7719   -1.9690 C   0  0  2  0  0  0  0  0  0  0  0  0
   -0.5114    2.8985   -0.6520 C   0  0  2  0  0  0  0  0  0  0  0  0
    2.4840    2.5476   -0.7281 C   0  0  2  0  0  0  0  0  0  0  0  0
    1.5264    1.8625   -1.7267 C   0  0  0  0  0  0  0  0  0  0  0  0
    0.8431    4.1808   -2.2957 C   0  0  0  0  0  0  0  0  0  0  0  0
    0.4929    3.2515    0.4821 C   0  0  0  0  0  0  0  0  0  0  0  0
    1.5726    4.7423   -1.0627 C   0  0  0  0  0  0  0  0  0  0  0  0
    3.0820    1.5490    0.2652 C   0  0  0  0  0  0  0  0  0  0  0  0
   -1.4378    1.7538   -0.2672 C   0  0  0  0  0  0  0  0  0  0  0  0
   -2.1854    1.8420    0.8893 C   0  0  0  0  0  0  0  0  0  0  0  0
   -2.9958    0.7585    1.1606 C   0  0  0  0  0  0  0  0  0  0  0  0
   -2.2999   -0.2984   -0.7277 C   0  0  0  0  0  0  0  0  0  0  0  0
   -3.8408    0.7632    2.3900 C   0  0  0  0  0  0  0  0  0  0  0  0
    3.2785   -1.5100    1.2003 C   0  0  0  0  0  0  0  0  0  0  0  0
   -5.3657    0.6978    2.0821 C   0  0  0  0  0  0  0  0  0  0  0  0
   -3.4845   -0.3843    3.3802 C   0  0  0  0  0  0  0  0  0  0  0  0
   -2.3634   -1.4448   -1.5962 C   0  0  0  0  0  0  0  0  0  0  0  0
   -5.8528    1.8796    1.2517 C   0  0  0  0  0  0  0  0  0  0  0  0
   -2.0457   -0.3103    3.8782 C   0  0  0  0  0  0  0  0  0  0  0  0
    2.2580   -2.1575    0.5039 C   0  0  0  0  0  0  0  0  0  0  0  0
    3.2533   -1.4668    2.5944 C   0  0  0  0  0  0  0  0  0  0  0  0
   -2.1484   -1.2992   -2.9623 C   0  0  0  0  0  0  0  0  0  0  0  0
   -2.6401   -2.7026   -1.0718 C   0  0  0  0  0  0  0  0  0  0  0  0
    1.2121   -2.7620    1.2016 C   0  0  0  0  0  0  0  0  0  0  0  0
    2.2073   -2.0712    3.2921 C   0  0  0  0  0  0  0  0  0  0  0  0
    1.1867   -2.7185    2.5956 C   0  0  0  0  0  0  0  0  0  0  0  0
   -2.2205   -2.4335   -3.7547 C   0  0  0  0  0  0  0  0  0  0  0  0
   -2.6901   -3.7742   -1.9488 C   0  0  0  0  0  0  0  0  0  0  0  0
    2.2514   -2.2204   -0.9262 C   0  0  0  0  0  0  0  0  0  0  0  0
   -0.3080    2.3953   -2.7959 H   0  0  0  0  0  0  0  0  0  0  0  0
   -1.1830    3.7609   -0.7859 H   0  0  0  0  0  0  0  0  0  0  0  0
    3.3330    2.9545   -1.2980 H   0  0  0  0  0  0  0  0  0  0  0  0
    1.1926    0.8843   -1.3636 H   0  0  0  0  0  0  0  0  0  0  0  0
    2.0477    1.6926   -2.6770 H   0  0  0  0  0  0  0  0  0  0  0  0
    0.0218    4.8495   -2.5787 H   0  0  0  0  0  0  0  0  0  0  0  0
    1.5286    4.1285   -3.1503 H   0  0  0  0  0  0  0  0  0  0  0  0
    0.0744    4.0633    1.0924 H   0  0  0  0  0  0  0  0  0  0  0  0
    0.6290    2.4184    1.1812 H   0  0  0  0  0  0  0  0  0  0  0  0
    2.5267    5.1903   -1.3663 H   0  0  0  0  0  0  0  0  0  0  0  0
    0.9925    5.5606   -0.6175 H   0  0  0  0  0  0  0  0  0  0  0  0
    2.2924    1.0625    0.8445 H   0  0  0  0  0  0  0  0  0  0  0  0
    3.7569    2.0609    0.9598 H   0  0  0  0  0  0  0  0  0  0  0  0
    3.5284    0.3223   -1.4327 H   0  0  0  0  0  0  0  0  0  0  0  0
   -2.1423    2.7085    1.5374 H   0  0  0  0  0  0  0  0  0  0  0  0
   -3.6754    1.7039    2.9348 H   0  0  0  0  0  0  0  0  0  0  0  0
   -5.6086   -0.2338    1.5562 H   0  0  0  0  0  0  0  0  0  0  0  0
   -5.9249    0.6863    3.0258 H   0  0  0  0  0  0  0  0  0  0  0  0
   -4.1526   -0.3337    4.2487 H   0  0  0  0  0  0  0  0  0  0  0  0
   -3.6493   -1.3602    2.9071 H   0  0  0  0  0  0  0  0  0  0  0  0
   -5.6112    2.8287    1.7405 H   0  0  0  0  0  0  0  0  0  0  0  0
   -5.4079    1.8807    0.2521 H   0  0  0  0  0  0  0  0  0  0  0  0
   -6.9397    1.8288    1.1304 H   0  0  0  0  0  0  0  0  0  0  0  0
   -1.3293   -0.4589    3.0646 H   0  0  0  0  0  0  0  0  0  0  0  0
   -1.8421    0.6576    4.3471 H   0  0  0  0  0  0  0  0  0  0  0  0
   -1.8667   -1.0919    4.6237 H   0  0  0  0  0  0  0  0  0  0  0  0
    4.0306   -0.9707    3.1677 H   0  0  0  0  0  0  0  0  0  0  0  0
   -1.9370   -0.3399   -3.4237 H   0  0  0  0  0  0  0  0  0  0  0  0
   -2.8055   -2.8731   -0.0129 H   0  0  0  0  0  0  0  0  0  0  0  0
    0.4073   -3.2693    0.6745 H   0  0  0  0  0  0  0  0  0  0  0  0
    2.1864   -2.0369    4.3774 H   0  0  0  0  0  0  0  0  0  0  0  0
    0.3711   -3.1870    3.1387 H   0  0  0  0  0  0  0  0  0  0  0  0
   -2.0624   -2.3735   -4.8264 H   0  0  0  0  0  0  0  0  0  0  0  0
   -2.8993   -4.7765   -1.5897 H   0  0  0  0  0  0  0  0  0  0  0  0
  1  2  2  0  0  0  0
  1  3  2  0  0  0  0
  1  5  1  0  0  0  0
  1 23  1  0  0  0  0
  4 12  1  0  0  0  0
  4 15  1  0  0  0  0
  4 16  1  0  0  0  0
  5 17  1  0  0  0  0
  5 52  1  0  0  0  0
  6 18  2  0  0  0  0
  6 21  1  0  0  0  0
  7 20  1  0  0  0  0
  7 21  2  0  0  0  0
  8 36  2  0  0  0  0
  8 37  1  0  0  0  0
  9 38  3  0  0  0  0
 10 11  1  0  0  0  0
 10 13  1  0  0  0  0
 10 14  1  0  0  0  0
 10 39  1  0  0  0  0
 11 15  1  0  0  0  0
 11 18  1  0  0  0  0
 11 40  1  0  0  0  0
 12 13  1  0  0  0  0
 12 17  1  0  0  0  0
 12 41  1  0  0  0  0
 13 42  1  0  0  0  0
 13 43  1  0  0  0  0
 14 16  1  0  0  0  0
 14 44  1  0  0  0  0
 14 45  1  0  0  0  0
 15 46  1  0  0  0  0
 15 47  1  0  0  0  0
 16 48  1  0  0  0  0
 16 49  1  0  0  0  0
 17 50  1  0  0  0  0
 17 51  1  0  0  0  0
 18 19  1  0  0  0  0
 19 20  2  0  0  0  0
 19 53  1  0  0  0  0
 20 22  1  0  0  0  0
 21 26  1  0  0  0  0
 22 24  1  0  0  0  0
 22 25  1  0  0  0  0
 22 54  1  0  0  0  0
 23 29  1  0  0  0  0
 23 30  2  0  0  0  0
 24 27  1  0  0  0  0
 24 55  1  0  0  0  0
 24 56  1  0  0  0  0
 25 28  1  0  0  0  0
 25 57  1  0  0  0  0
 25 58  1  0  0  0  0
 26 31  2  0  0  0  0
 26 32  1  0  0  0  0
 27 59  1  0  0  0  0
 27 60  1  0  0  0  0
 27 61  1  0  0  0  0
 28 62  1  0  0  0  0
 28 63  1  0  0  0  0
 28 64  1  0  0  0  0
 29 33  2  0  0  0  0
 29 38  1  0  0  0  0
 30 34  1  0  0  0  0
 30 65  1  0  0  0  0
 31 36  1  0  0  0  0
 31 66  1  0  0  0  0
 32 37  2  0  0  0  0
 32 67  1  0  0  0  0
 33 35  1  0  0  0  0
 33 68  1  0  0  0  0
 34 35  2  0  0  0  0
 34 69  1  0  0  0  0
 35 70  1  0  0  0  0
 36 71  1  0  0  0  0
 37 72  1  0  0  0  0
M  END
> <PUBCHEM_COMPOUND_CID>
40777310

> <PUBCHEM_CONFORMER_RMSD>
1.2

> <PUBCHEM_CONFORMER_DIVERSEORDER>
1
192
116
112
231
66
189
175
144
193
166
215
214
153
138
10
174
145
204
45
63
227
167
233
183
185
225
187
132
94
150
133
218
224
230
98
207
252
194
96
134
90
237
141
171
234
29
163
32
251
201
179
169
114
235
49
137
202
117
172
216
48
206
44
239
72
135
165
182
148
8
221
181
195
190
142
197
250
74
119
248
17
42
243
164
199
196
43
56
51
26
168
67
47
232
84
115
208
110
209
99
111
157
64
104
213
79
89
55
23
212
113
31
36
130
85
246
57
69
228
71
139
149
95
88
177
120
65
210
83
247
19
154
93
159
236
106
128
81
205
200
4
155
77
108
147
226
123
91
6
223
186
143
61
40
78
25
241
160
161
58
140
245
27
121
60
3
124
178
33
151
12
188
240
41
68
184
180
18
229
152
217
122
127
50
156
73
5
37
76
80
203
198
38
70
15
125
59
54
191
146
7
24
176
244
173
102
219
101
220
53
100
13
158
22
118
21
162
211
75
14
87
103
131
105
28
97
238
30
136
170
126
39
82
222
52
11
107
92
249
34
35
9
20
109
16
86
62
46
242
2
129

> <PUBCHEM_MMFF94_PARTIAL_CHARGES>
40
1 1.45
11 0.14
12 0.27
15 0.27
16 0.27
17 0.36
18 0.17
19 -0.15
2 -0.65
20 0.17
21 0.62
22 0.14
23 -0.01
29 0.07
3 -0.65
30 -0.15
31 -0.15
32 -0.15
33 -0.15
34 -0.15
35 -0.15
36 0.16
37 0.16
38 0.48
4 -0.81
5 -0.91
52 0.42
53 0.15
6 -0.62
65 0.15
66 0.15
67 0.15
68 0.15
69 0.15
7 -0.62
70 0.15
71 0.15
72 0.15
8 -0.62
9 -0.56

> <PUBCHEM_EFFECTIVE_ROTOR_COUNT>
10.2

> <PUBCHEM_PHARMACOPHORE_FEATURES>
14
1 2 acceptor
1 27 hydrophobe
1 28 hydrophobe
1 3 acceptor
1 4 cation
1 5 donor
1 6 acceptor
1 8 acceptor
1 9 acceptor
3 6 7 21 cation
6 23 29 30 33 34 35 rings
6 6 7 18 19 20 21 rings
6 8 26 31 32 36 37 rings
8 4 10 11 12 13 14 15 16 rings

> <PUBCHEM_HEAVY_ATOM_COUNT>
38

> <PUBCHEM_ATOM_DEF_STEREO_COUNT>
3

> <PUBCHEM_ATOM_UDEF_STEREO_COUNT>
0

> <PUBCHEM_BOND_DEF_STEREO_COUNT>
0

> <PUBCHEM_BOND_UDEF_STEREO_COUNT>
0

> <PUBCHEM_ISOTOPIC_ATOM_COUNT>
0

> <PUBCHEM_COMPONENT_COUNT>
1

> <PUBCHEM_CACTVS_TAUTO_COUNT>
3

> <PUBCHEM_CONFORMER_ID>
026E365E00000001

> <PUBCHEM_MMFF94_ENERGY>
83.0423

> <PUBCHEM_FEATURE_SELFOVERLAP>
71.065

> <PUBCHEM_SHAPE_FINGERPRINT>
10032420 55 16588026844092665026
10581848 31 17772439492081931887
12156800 1 16412699888206542115
133893 2 18116981394033814909
14725015 67 14810477564345948814
14747281 78 16663137769199548821
150020 26 16902425274715944899
15403338 16 17895768287821193945
17138139 8 16902417054232027822
20764821 26 17895766226068041642
463206 1 18334850645348644804
469060 322 18264468668287266338
50150288 127 17551267328768747323
5309563 4 18040445364476922312
66674814 147 17757526905445784200

> <PUBCHEM_SHAPE_MULTIPOLES>
744.25
8.96
5.68
4.14
0.52
3.97
-0.02
-1.91
-4.97
-2.11
3.34
3.92
-3.85
-4.23

> <PUBCHEM_SHAPE_SELFOVERLAP>
1587.436

> <PUBCHEM_SHAPE_VOLUME>
413.7

> <PUBCHEM_COORDINATE_TYPE>
2
5
10

$$$$
