11883291
  -OEChem-12032416353D

 42 44  0     1  0  0  0  0  0999 V2000
   -2.5953   -1.6189    0.8848 S   0  0  0  0  0  0  0  0  0  0  0  0
    2.0586   -0.7071    1.1256 O   0  0  0  0  0  0  0  0  0  0  0  0
    0.6300    1.9399    0.5283 O   0  0  0  0  0  0  0  0  0  0  0  0
    4.0080    0.8904   -0.0381 O   0  0  0  0  0  0  0  0  0  0  0  0
   -2.8138   -1.6199    2.3188 O   0  0  0  0  0  0  0  0  0  0  0  0
   -3.0678   -2.7247    0.0740 O   0  0  0  0  0  0  0  0  0  0  0  0
    6.5857    0.2853    0.4149 O   0  0  0  0  0  0  0  0  0  0  0  0
   -0.9460   -1.3708    0.5647 N   0  0  0  0  0  0  0  0  0  0  0  0
    6.6406   -1.2787   -1.2724 N   0  0  0  0  0  0  0  0  0  0  0  0
   -2.3956   -1.6066   -2.8528 N   0  0  0  0  0  0  0  0  0  0  0  0
    0.3965    0.5986    0.0505 C   0  0  1  0  0  0  0  0  0  0  0  0
    1.7554   -0.0510   -0.1168 C   0  0  1  0  0  0  0  0  0  0  0  0
   -0.2698   -0.2270    1.1263 C   0  0  2  0  0  0  0  0  0  0  0  0
    2.6571    1.1359   -0.3574 C   0  0  1  0  0  0  0  0  0  0  0  0
    0.9098   -0.6490    1.9853 C   0  0  0  0  0  0  0  0  0  0  0  0
    2.0432    2.1894    0.5369 C   0  0  0  0  0  0  0  0  0  0  0  0
    4.5837   -0.1031   -0.8827 C   0  0  0  0  0  0  0  0  0  0  0  0
   -3.3205   -0.1484    0.2239 C   0  0  0  0  0  0  0  0  0  0  0  0
    6.0266   -0.3220   -0.4938 C   0  0  0  0  0  0  0  0  0  0  0  0
   -3.3647    0.0817   -1.1433 C   0  0  0  0  0  0  0  0  0  0  0  0
   -3.8449    0.7704    1.1223 C   0  0  0  0  0  0  0  0  0  0  0  0
   -3.9457    1.2557   -1.6230 C   0  0  0  0  0  0  0  0  0  0  0  0
   -4.4259    1.9443    0.6423 C   0  0  0  0  0  0  0  0  0  0  0  0
   -4.4762    2.1868   -0.7302 C   0  0  0  0  0  0  0  0  0  0  0  0
   -2.8291   -0.8513   -2.0880 C   0  0  0  0  0  0  0  0  0  0  0  0
   -0.1653    0.6732   -0.8855 H   0  0  0  0  0  0  0  0  0  0  0  0
    1.7793   -0.8038   -0.9103 H   0  0  0  0  0  0  0  0  0  0  0  0
   -0.9510    0.3698    1.7406 H   0  0  0  0  0  0  0  0  0  0  0  0
    2.5677    1.4673   -1.4008 H   0  0  0  0  0  0  0  0  0  0  0  0
    1.1212    0.0978    2.7585 H   0  0  0  0  0  0  0  0  0  0  0  0
    0.7741   -1.6196    2.4722 H   0  0  0  0  0  0  0  0  0  0  0  0
    2.4082    2.1246    1.5681 H   0  0  0  0  0  0  0  0  0  0  0  0
    2.2387    3.2044    0.1780 H   0  0  0  0  0  0  0  0  0  0  0  0
   -0.4837   -1.8874   -0.1928 H   0  0  0  0  0  0  0  0  0  0  0  0
    4.0634   -1.0602   -0.7753 H   0  0  0  0  0  0  0  0  0  0  0  0
    4.5454    0.2276   -1.9268 H   0  0  0  0  0  0  0  0  0  0  0  0
   -3.8184    0.6141    2.1959 H   0  0  0  0  0  0  0  0  0  0  0  0
   -3.9930    1.4612   -2.6900 H   0  0  0  0  0  0  0  0  0  0  0  0
   -4.8380    2.6702    1.3372 H   0  0  0  0  0  0  0  0  0  0  0  0
   -4.9281    3.1011   -1.1036 H   0  0  0  0  0  0  0  0  0  0  0  0
    7.6123   -1.5288   -1.1222 H   0  0  0  0  0  0  0  0  0  0  0  0
    6.1539   -1.7657   -2.0182 H   0  0  0  0  0  0  0  0  0  0  0  0
  1  5  2  0  0  0  0
  1  6  2  0  0  0  0
  1  8  1  0  0  0  0
  1 18  1  0  0  0  0
  2 12  1  0  0  0  0
  2 15  1  0  0  0  0
  3 11  1  0  0  0  0
  3 16  1  0  0  0  0
  4 14  1  0  0  0  0
  4 17  1  0  0  0  0
  7 19  2  0  0  0  0
  8 13  1  0  0  0  0
  8 34  1  0  0  0  0
  9 19  1  0  0  0  0
  9 41  1  0  0  0  0
  9 42  1  0  0  0  0
 10 25  3  0  0  0  0
 11 12  1  0  0  0  0
 11 13  1  0  0  0  0
 11 26  1  0  0  0  0
 12 14  1  0  0  0  0
 12 27  1  0  0  0  0
 13 15  1  0  0  0  0
 13 28  1  0  0  0  0
 14 16  1  0  0  0  0
 14 29  1  0  0  0  0
 15 30  1  0  0  0  0
 15 31  1  0  0  0  0
 16 32  1  0  0  0  0
 16 33  1  0  0  0  0
 17 19  1  0  0  0  0
 17 35  1  0  0  0  0
 17 36  1  0  0  0  0
 18 20  1  0  0  0  0
 18 21  2  0  0  0  0
 20 22  2  0  0  0  0
 20 25  1  0  0  0  0
 21 23  1  0  0  0  0
 21 37  1  0  0  0  0
 22 24  1  0  0  0  0
 22 38  1  0  0  0  0
 23 24  2  0  0  0  0
 23 39  1  0  0  0  0
 24 40  1  0  0  0  0
M  END
> <PUBCHEM_COMPOUND_CID>
11883291

> <PUBCHEM_CONFORMER_RMSD>
0.8

> <PUBCHEM_CONFORMER_DIVERSEORDER>
1
91
111
48
118
78
73
42
120
89
125
35
101
135
137
21
50
38
77
95
127
63
11
51
144
85
99
88
32
107
82
4
104
117
138
23
14
146
56
66
40
59
114
136
27
64
139
149
39
86
57
31
123
79
55
70
68
108
24
16
150
67
105
142
93
90
133
92
80
62
43
5
45
132
97
61
121
148
34
46
69
3
106
134
126
102
103
37
10
141
22
112
72
84
28
115
124
44
33
128
53
130
110
12
122
36
109
81
75
30
58
129
94
26
49
41
15
20
54
76
13
47
98
83
65
25
71
87
145
19
140
52
151
18
116
143
131
60
9
147
113
100
8
29
17
74
2
96
119
6
7

> <PUBCHEM_MMFF94_PARTIAL_CHARGES>
32
1 1.45
10 -0.56
11 0.28
12 0.28
13 0.36
14 0.28
15 0.28
16 0.28
17 0.34
18 -0.01
19 0.57
2 -0.56
20 0.07
21 -0.15
22 -0.15
23 -0.15
24 -0.15
25 0.48
3 -0.56
34 0.42
37 0.15
38 0.15
39 0.15
4 -0.56
40 0.15
41 0.37
42 0.37
5 -0.65
6 -0.65
7 -0.57
8 -0.91
9 -0.8

> <PUBCHEM_EFFECTIVE_ROTOR_COUNT>
7.2

> <PUBCHEM_PHARMACOPHORE_FEATURES>
12
1 10 acceptor
1 2 acceptor
1 3 acceptor
1 4 acceptor
1 5 acceptor
1 6 acceptor
1 7 acceptor
1 8 donor
1 9 donor
5 2 11 12 13 15 rings
5 3 11 12 14 16 rings
6 18 20 21 22 23 24 rings

> <PUBCHEM_HEAVY_ATOM_COUNT>
25

> <PUBCHEM_ATOM_DEF_STEREO_COUNT>
4

> <PUBCHEM_ATOM_UDEF_STEREO_COUNT>
0

> <PUBCHEM_BOND_DEF_STEREO_COUNT>
0

> <PUBCHEM_BOND_UDEF_STEREO_COUNT>
0

> <PUBCHEM_ISOTOPIC_ATOM_COUNT>
0

> <PUBCHEM_COMPONENT_COUNT>
1

> <PUBCHEM_CACTVS_TAUTO_COUNT>
2

> <PUBCHEM_CONFORMER_ID>
00B5531B00000001

> <PUBCHEM_MMFF94_ENERGY>
53.7164

> <PUBCHEM_FEATURE_SELFOVERLAP>
61.647

> <PUBCHEM_SHAPE_FINGERPRINT>
10165383 225 17604153632196349433
11315181 36 14117795817092477650
11370993 144 11531299123330842597
11796584 16 17275384288034894590
12788726 201 18126280848770979600
13994607 96 13984651569177024679
14251751 93 18272651294108946919
14251752 14 17458345209319835290
14713325 29 17749682873471247395
14856354 85 17458919187836948710
15183329 4 16008745828049172874
15788980 27 17775569758071280632
17093844 174 18335137609631137680
17349148 13 13254792477672326440
18186145 218 17894908585476202944
18927931 339 13614529588025419332
19489759 90 14764348206467837576
20511986 3 17274811438308547270
21279426 13 18261116232170820290
21756936 100 18335419037384443249
22393880 68 18335695083190033186
23402539 116 18413110559094025816
23559900 14 16486678238995269618
3459 83 18263360279399945562
350125 39 18040436603402794179
392239 28 11891631086796545453
444769 64 17604426298258264706
5283173 99 18260830427856960924
59755656 520 18187082845786589267
633830 44 18188204403138948540
70251023 43 17697020806555424231
7226269 152 18261112954942319248

> <PUBCHEM_SHAPE_MULTIPOLES>
468.18
12.77
2.21
1.94
21.35
0.02
0.76
-1.5
3.83
-2.36
-0.26
-1.67
0.85
0.58

> <PUBCHEM_SHAPE_SELFOVERLAP>
987.841

> <PUBCHEM_SHAPE_VOLUME>
262.8

> <PUBCHEM_COORDINATE_TYPE>
2
5
10

$$$$
