7682180
  -OEChem-12032416133D

 62 65  0     1  0  0  0  0  0999 V2000
   -5.1640   -3.0642    1.6607 S   0  0  0  0  0  0  0  0  0  0  0  0
   -1.7511    0.5003    1.1465 O   0  0  0  0  0  0  0  0  0  0  0  0
   -4.7422   -0.7326   -0.4919 O   0  0  0  0  0  0  0  0  0  0  0  0
   -4.5584    3.7020   -0.5124 O   0  0  0  0  0  0  0  0  0  0  0  0
    1.9631    0.4348   -1.8406 O   0  0  0  0  0  0  0  0  0  0  0  0
    8.7867    0.1452   -0.5836 O   0  0  0  0  0  0  0  0  0  0  0  0
   -2.5409   -1.4543   -0.5477 N   0  0  0  0  0  0  0  0  0  0  0  0
    0.2976   -0.8872   -0.9287 N   0  0  0  0  0  0  0  0  0  0  0  0
   -2.3464    2.0982   -0.4382 N   0  0  0  0  0  0  0  0  0  0  0  0
   -3.3536    5.4988    0.2210 N   0  0  0  0  0  0  0  0  0  0  0  0
    2.5180   -1.0791   -0.1609 N   0  0  0  0  0  0  0  0  0  0  0  0
   -2.0837   -0.1856   -1.1187 C   0  0  2  0  0  0  0  0  0  0  0  0
   -0.7223   -0.2976   -1.8016 C   0  0  0  0  0  0  0  0  0  0  0  0
   -1.5240   -2.4981   -0.3553 C   0  0  0  0  0  0  0  0  0  0  0  0
   -0.1554   -1.9288    0.0022 C   0  0  0  0  0  0  0  0  0  0  0  0
   -2.3886    3.2394    0.4390 C   0  0  1  0  0  0  0  0  0  0  0  0
   -2.0297    0.8219   -0.0057 C   0  0  0  0  0  0  0  0  0  0  0  0
   -1.0264    3.9147    0.5160 C   0  0  0  0  0  0  0  0  0  0  0  0
   -1.1430    5.2096    1.3037 C   0  0  0  0  0  0  0  0  0  0  0  0
   -2.1048    6.1399    0.5889 C   0  0  0  0  0  0  0  0  0  0  0  0
   -3.9223   -1.6364   -0.3176 C   0  0  0  0  0  0  0  0  0  0  0  0
   -3.5162    4.1516   -0.0312 C   0  0  0  0  0  0  0  0  0  0  0  0
    1.6373   -0.4448   -1.0405 C   0  0  0  0  0  0  0  0  0  0  0  0
   -4.3590   -2.9467    0.1539 C   0  0  0  0  0  0  0  0  0  0  0  0
   -4.2193   -4.1747   -0.4547 C   0  0  0  0  0  0  0  0  0  0  0  0
    3.9120   -0.8633   -0.0253 C   0  0  0  0  0  0  0  0  0  0  0  0
   -4.7808   -5.2257    0.3263 C   0  0  0  0  0  0  0  0  0  0  0  0
   -5.3280   -4.7612    1.5020 C   0  0  0  0  0  0  0  0  0  0  0  0
    4.6425   -1.5924    0.9132 C   0  0  0  0  0  0  0  0  0  0  0  0
    4.5534    0.0788   -0.8295 C   0  0  0  0  0  0  0  0  0  0  0  0
    6.0143   -1.3791    1.0475 C   0  0  0  0  0  0  0  0  0  0  0  0
    5.9252    0.2920   -0.6951 C   0  0  0  0  0  0  0  0  0  0  0  0
    6.6558   -0.4370    0.2433 C   0  0  0  0  0  0  0  0  0  0  0  0
    8.0863   -0.2156    0.3833 C   0  0  0  0  0  0  0  0  0  0  0  0
    8.7679   -0.4228    1.7315 C   0  0  0  0  0  0  0  0  0  0  0  0
   -2.8282    0.1347   -1.8586 H   0  0  0  0  0  0  0  0  0  0  0  0
   -0.7949   -0.9553   -2.6768 H   0  0  0  0  0  0  0  0  0  0  0  0
   -0.3892    0.6822   -2.1609 H   0  0  0  0  0  0  0  0  0  0  0  0
   -1.8294   -3.1935    0.4309 H   0  0  0  0  0  0  0  0  0  0  0  0
   -1.4648   -3.0564   -1.2973 H   0  0  0  0  0  0  0  0  0  0  0  0
   -0.1576   -1.4942    1.0074 H   0  0  0  0  0  0  0  0  0  0  0  0
    0.5617   -2.7562   -0.0017 H   0  0  0  0  0  0  0  0  0  0  0  0
   -2.6706    2.8954    1.4428 H   0  0  0  0  0  0  0  0  0  0  0  0
   -0.3002    3.2486    0.9969 H   0  0  0  0  0  0  0  0  0  0  0  0
   -0.6424    4.1251   -0.4909 H   0  0  0  0  0  0  0  0  0  0  0  0
   -2.5306    2.2531   -1.4255 H   0  0  0  0  0  0  0  0  0  0  0  0
   -1.5076    4.9965    2.3161 H   0  0  0  0  0  0  0  0  0  0  0  0
   -0.1627    5.6876    1.4034 H   0  0  0  0  0  0  0  0  0  0  0  0
   -2.3457    7.0052    1.2143 H   0  0  0  0  0  0  0  0  0  0  0  0
   -1.6574    6.5118   -0.3396 H   0  0  0  0  0  0  0  0  0  0  0  0
   -4.1233    6.1094   -0.0353 H   0  0  0  0  0  0  0  0  0  0  0  0
    2.1466   -1.7591    0.4927 H   0  0  0  0  0  0  0  0  0  0  0  0
   -3.7453   -4.3198   -1.4172 H   0  0  0  0  0  0  0  0  0  0  0  0
   -4.7847   -6.2692    0.0396 H   0  0  0  0  0  0  0  0  0  0  0  0
   -5.8166   -5.3372    2.2751 H   0  0  0  0  0  0  0  0  0  0  0  0
    4.1553   -2.3315    1.5441 H   0  0  0  0  0  0  0  0  0  0  0  0
    4.0658    0.6845   -1.5788 H   0  0  0  0  0  0  0  0  0  0  0  0
    6.5608   -1.9700    1.7774 H   0  0  0  0  0  0  0  0  0  0  0  0
    6.4087    1.0326   -1.3272 H   0  0  0  0  0  0  0  0  0  0  0  0
    9.6327    0.2440    1.8003 H   0  0  0  0  0  0  0  0  0  0  0  0
    8.0914   -0.1688    2.5519 H   0  0  0  0  0  0  0  0  0  0  0  0
    9.0987   -1.4607    1.8184 H   0  0  0  0  0  0  0  0  0  0  0  0
  1 24  1  0  0  0  0
  1 28  1  0  0  0  0
  2 17  2  0  0  0  0
  3 21  2  0  0  0  0
  4 22  2  0  0  0  0
  5 23  2  0  0  0  0
  6 34  2  0  0  0  0
  7 12  1  0  0  0  0
  7 14  1  0  0  0  0
  7 21  1  0  0  0  0
  8 13  1  0  0  0  0
  8 15  1  0  0  0  0
  8 23  1  0  0  0  0
  9 16  1  0  0  0  0
  9 17  1  0  0  0  0
  9 46  1  0  0  0  0
 10 20  1  0  0  0  0
 10 22  1  0  0  0  0
 10 51  1  0  0  0  0
 11 23  1  0  0  0  0
 11 26  1  0  0  0  0
 11 52  1  0  0  0  0
 12 13  1  0  0  0  0
 12 17  1  0  0  0  0
 12 36  1  0  0  0  0
 13 37  1  0  0  0  0
 13 38  1  0  0  0  0
 14 15  1  0  0  0  0
 14 39  1  0  0  0  0
 14 40  1  0  0  0  0
 15 41  1  0  0  0  0
 15 42  1  0  0  0  0
 16 18  1  0  0  0  0
 16 22  1  0  0  0  0
 16 43  1  0  0  0  0
 18 19  1  0  0  0  0
 18 44  1  0  0  0  0
 18 45  1  0  0  0  0
 19 20  1  0  0  0  0
 19 47  1  0  0  0  0
 19 48  1  0  0  0  0
 20 49  1  0  0  0  0
 20 50  1  0  0  0  0
 21 24  1  0  0  0  0
 24 25  2  0  0  0  0
 25 27  1  0  0  0  0
 25 53  1  0  0  0  0
 26 29  2  0  0  0  0
 26 30  1  0  0  0  0
 27 28  2  0  0  0  0
 27 54  1  0  0  0  0
 28 55  1  0  0  0  0
 29 31  1  0  0  0  0
 29 56  1  0  0  0  0
 30 32  2  0  0  0  0
 30 57  1  0  0  0  0
 31 33  2  0  0  0  0
 31 58  1  0  0  0  0
 32 33  1  0  0  0  0
 32 59  1  0  0  0  0
 33 34  1  0  0  0  0
 34 35  1  0  0  0  0
 35 60  1  0  0  0  0
 35 61  1  0  0  0  0
 35 62  1  0  0  0  0
M  END
> <PUBCHEM_COMPOUND_CID>
7682180

> <PUBCHEM_CONFORMER_RMSD>
1.2

> <PUBCHEM_CONFORMER_DIVERSEORDER>
1
47
52
13
30
8
9
6
43
12
33
54
49
45
55
56
35
46
40
51
15
24
23
36
39
25
27
42
50
19
31
57
18
21
11
5
37
17
2
58
28
41
53
20
10
44
16
34
7
22
26
4
48
3
29
32
38
14

> <PUBCHEM_MMFF94_PARTIAL_CHARGES>
43
1 -0.08
10 -0.73
11 -0.55
12 0.36
13 0.3
14 0.3
15 0.3
16 0.36
17 0.57
2 -0.57
20 0.3
21 0.71
22 0.57
23 0.69
24 -0.05
25 -0.15
26 0.12
27 -0.15
28 -0.11
29 -0.15
3 -0.57
30 -0.15
31 -0.15
32 -0.15
33 0.09
34 0.42
35 0.06
4 -0.57
46 0.37
5 -0.57
51 0.37
52 0.37
53 0.15
54 0.15
55 0.15
56 0.15
57 0.15
58 0.15
59 0.15
6 -0.57
7 -0.66
8 -0.66
9 -0.73

> <PUBCHEM_EFFECTIVE_ROTOR_COUNT>
11.2

> <PUBCHEM_PHARMACOPHORE_FEATURES>
12
1 10 donor
1 11 donor
1 2 acceptor
1 3 acceptor
1 4 acceptor
1 5 acceptor
1 6 acceptor
1 9 donor
5 1 24 25 27 28 rings
6 10 16 18 19 20 22 rings
6 26 29 30 31 32 33 rings
6 7 8 12 13 14 15 rings

> <PUBCHEM_HEAVY_ATOM_COUNT>
35

> <PUBCHEM_ATOM_DEF_STEREO_COUNT>
2

> <PUBCHEM_ATOM_UDEF_STEREO_COUNT>
0

> <PUBCHEM_BOND_DEF_STEREO_COUNT>
0

> <PUBCHEM_BOND_UDEF_STEREO_COUNT>
0

> <PUBCHEM_ISOTOPIC_ATOM_COUNT>
0

> <PUBCHEM_COMPONENT_COUNT>
1

> <PUBCHEM_CACTVS_TAUTO_COUNT>
36

> <PUBCHEM_CONFORMER_ID>
0075388400000001

> <PUBCHEM_MMFF94_ENERGY>
93.1709

> <PUBCHEM_FEATURE_SELFOVERLAP>
60.9

> <PUBCHEM_SHAPE_FINGERPRINT>
10074138 170 18339355250436141457
10411042 1 18194964265325526375
11136131 41 16610540736341859263
11411753 3 17320969164699446639
11763715 3 18192173670010887421
12107183 9 17831572077589833274
12166972 35 17751079313299512774
12440610 7 18126576617255907494
12539747 363 18270409415653554091
12788726 201 18264226827294935567
14068700 675 18188772876230363198
14150022 121 18409444791838525724
14395042 24 18334586715952278377
14512766 119 18336828581511480748
15400415 2 17763183536590112920
15419008 47 18060416963051662466
15876981 60 18334298681958594445
16992779 147 16615348273530148953
18393751 57 17906180546904440281
18603816 31 14129353887751093337
21130935 74 18334848391667786250
21133410 221 17629727203254469960
21639891 77 18335978770586396365
21796203 349 17831329407363430947
21927370 108 18267601267373149955
22956985 138 17832988626438627583
23522609 53 17823439136608910820
249057 25 17894636972345485982
2747138 104 18340484569390165594
3418910 222 18338241583008387276
3552219 110 18041852825465231566
4144715 1 18268998592460212230
44249763 50 17129832030004013532
469060 322 18198645348065256539
5028188 123 18335712607949208038
58083652 198 18193559093860546131
6376802 137 18188497998291959491
6673363 416 18267314299903355484
6700243 42 17913805870331863164
9555976 147 18336268964183304548
9849439 229 17765439738249241800
9896288 288 18411420575035952198
9961470 85 17980198587359167646
9981440 41 17905337225959874945

> <PUBCHEM_SHAPE_MULTIPOLES>
669.88
19.13
8.39
1.38
51.65
12.96
0.09
-15.93
6
-21.91
3.43
0.28
-0.38
0.52

> <PUBCHEM_SHAPE_SELFOVERLAP>
1416.052

> <PUBCHEM_SHAPE_VOLUME>
373.9

> <PUBCHEM_COORDINATE_TYPE>
2
5
10

$$$$
