75367091
  -OEChem-12032416393D

 49 51  0     1  0  0  0  0  0999 V2000
   -4.2019    2.3944    1.4214 F   0  0  0  0  0  0  0  0  0  0  0  0
    3.7228    1.1874    1.0647 O   0  0  0  0  0  0  0  0  0  0  0  0
    4.9873   -1.4339   -0.2762 O   0  0  0  0  0  0  0  0  0  0  0  0
    0.5709    0.6477   -2.3118 O   0  0  0  0  0  0  0  0  0  0  0  0
    1.5419   -0.9603    0.7920 N   0  0  0  0  0  0  0  0  0  0  0  0
    1.7689    1.7308   -0.6461 N   0  0  0  0  0  0  0  0  0  0  0  0
    2.9894   -1.0614    0.9653 C   0  0  1  0  0  0  0  0  0  0  0  0
    3.7304   -0.7547   -0.3242 C   0  0  1  0  0  0  0  0  0  0  0  0
    3.9763    0.7531   -0.2844 C   0  0  1  0  0  0  0  0  0  0  0  0
    3.4991    0.0353    1.8861 C   0  0  0  0  0  0  0  0  0  0  0  0
    3.0707    1.5415   -1.2183 C   0  0  0  0  0  0  0  0  0  0  0  0
    0.9810   -2.2194    0.3166 C   0  0  0  0  0  0  0  0  0  0  0  0
   -0.5086   -2.1295    0.1166 C   0  0  0  0  0  0  0  0  0  0  0  0
    0.6055    1.2612   -1.2484 C   0  0  0  0  0  0  0  0  0  0  0  0
   -1.3631   -2.1592    1.2188 C   0  0  0  0  0  0  0  0  0  0  0  0
   -1.0342   -2.0199   -1.1707 C   0  0  0  0  0  0  0  0  0  0  0  0
   -0.6664    1.5616   -0.5420 C   0  0  0  0  0  0  0  0  0  0  0  0
   -2.7431   -2.0790    1.0336 C   0  0  0  0  0  0  0  0  0  0  0  0
   -2.4144   -1.9398   -1.3559 C   0  0  0  0  0  0  0  0  0  0  0  0
   -3.2689   -1.9692   -0.2538 C   0  0  0  0  0  0  0  0  0  0  0  0
   -1.8573    1.6594   -1.2617 C   0  0  0  0  0  0  0  0  0  0  0  0
   -0.6701    1.7452    0.8408 C   0  0  0  0  0  0  0  0  0  0  0  0
   -4.7448   -1.8841   -0.4513 C   0  0  0  0  0  0  0  0  0  0  0  0
   -3.0517    1.9411   -0.5987 C   0  0  0  0  0  0  0  0  0  0  0  0
   -1.8645    2.0268    1.5038 C   0  0  0  0  0  0  0  0  0  0  0  0
   -3.0552    2.1248    0.7840 C   0  0  0  0  0  0  0  0  0  0  0  0
    3.2562   -2.0316    1.4022 H   0  0  0  0  0  0  0  0  0  0  0  0
    3.2244   -1.0962   -1.2324 H   0  0  0  0  0  0  0  0  0  0  0  0
    5.0213    0.9833   -0.5231 H   0  0  0  0  0  0  0  0  0  0  0  0
    2.8172    0.2923    2.7028 H   0  0  0  0  0  0  0  0  0  0  0  0
    4.4611   -0.2461    2.3304 H   0  0  0  0  0  0  0  0  0  0  0  0
    3.0187    1.0889   -2.2135 H   0  0  0  0  0  0  0  0  0  0  0  0
    3.4793    2.5517   -1.3375 H   0  0  0  0  0  0  0  0  0  0  0  0
    1.1117   -0.7328    1.6888 H   0  0  0  0  0  0  0  0  0  0  0  0
    1.1836   -3.0284    1.0310 H   0  0  0  0  0  0  0  0  0  0  0  0
    1.4524   -2.5190   -0.6274 H   0  0  0  0  0  0  0  0  0  0  0  0
    5.4690   -1.2107   -1.0911 H   0  0  0  0  0  0  0  0  0  0  0  0
    1.7186    2.3017    0.1909 H   0  0  0  0  0  0  0  0  0  0  0  0
   -0.9655   -2.2444    2.2267 H   0  0  0  0  0  0  0  0  0  0  0  0
   -0.3812   -1.9996   -2.0389 H   0  0  0  0  0  0  0  0  0  0  0  0
   -3.3990   -2.1004    1.8998 H   0  0  0  0  0  0  0  0  0  0  0  0
   -2.8111   -1.8524   -2.3639 H   0  0  0  0  0  0  0  0  0  0  0  0
   -1.8748    1.5226   -2.3396 H   0  0  0  0  0  0  0  0  0  0  0  0
    0.2287    1.6556    1.4430 H   0  0  0  0  0  0  0  0  0  0  0  0
   -5.0785   -0.8469   -0.3473 H   0  0  0  0  0  0  0  0  0  0  0  0
   -5.0356   -2.2460   -1.4434 H   0  0  0  0  0  0  0  0  0  0  0  0
   -5.2744   -2.5006    0.2829 H   0  0  0  0  0  0  0  0  0  0  0  0
   -3.9793    2.0164   -1.1584 H   0  0  0  0  0  0  0  0  0  0  0  0
   -1.8691    2.1640    2.5810 H   0  0  0  0  0  0  0  0  0  0  0  0
  1 26  1  0  0  0  0
  2  9  1  0  0  0  0
  2 10  1  0  0  0  0
  3  8  1  0  0  0  0
  3 37  1  0  0  0  0
  4 14  2  0  0  0  0
  5  7  1  0  0  0  0
  5 12  1  0  0  0  0
  5 34  1  0  0  0  0
  6 11  1  0  0  0  0
  6 14  1  0  0  0  0
  6 38  1  0  0  0  0
  7  8  1  0  0  0  0
  7 10  1  0  0  0  0
  7 27  1  0  0  0  0
  8  9  1  0  0  0  0
  8 28  1  0  0  0  0
  9 11  1  0  0  0  0
  9 29  1  0  0  0  0
 10 30  1  0  0  0  0
 10 31  1  0  0  0  0
 11 32  1  0  0  0  0
 11 33  1  0  0  0  0
 12 13  1  0  0  0  0
 12 35  1  0  0  0  0
 12 36  1  0  0  0  0
 13 15  2  0  0  0  0
 13 16  1  0  0  0  0
 14 17  1  0  0  0  0
 15 18  1  0  0  0  0
 15 39  1  0  0  0  0
 16 19  2  0  0  0  0
 16 40  1  0  0  0  0
 17 21  2  0  0  0  0
 17 22  1  0  0  0  0
 18 20  2  0  0  0  0
 18 41  1  0  0  0  0
 19 20  1  0  0  0  0
 19 42  1  0  0  0  0
 20 23  1  0  0  0  0
 21 24  1  0  0  0  0
 21 43  1  0  0  0  0
 22 25  2  0  0  0  0
 22 44  1  0  0  0  0
 23 45  1  0  0  0  0
 23 46  1  0  0  0  0
 23 47  1  0  0  0  0
 24 26  2  0  0  0  0
 24 48  1  0  0  0  0
 25 26  1  0  0  0  0
 25 49  1  0  0  0  0
M  END
> <PUBCHEM_COMPOUND_CID>
75367091

> <PUBCHEM_CONFORMER_RMSD>
0.8

> <PUBCHEM_CONFORMER_DIVERSEORDER>
3
265
85
169
133
253
302
307
202
145
66
312
310
246
222
34
237
31
195
100
229
157
171
176
271
163
115
228
220
173
88
102
233
125
65
276
117
151
67
135
29
236
146
152
62
147
18
218
26
262
289
36
130
113
270
166
141
27
129
68
10
17
72
120
274
296
19
301
60
283
268
255
161
35
211
150
23
304
142
182
69
226
303
32
106
207
214
204
59
13
300
231
181
43
180
87
185
112
14
167
293
192
64
183
269
219
138
162
168
1
83
216
50
123
189
121
77
54
245
188
45
194
287
221
159
134
52
71
267
311
305
82
290
165
155
109
40
11
154
94
99
101
263
51
172
53
261
47
136
57
144
285
251
282
184
128
107
22
174
140
306
250
91
114
37
234
264
277
196
56
98
193
80
93
160
127
256
86
190
89
205
266
143
20
187
42
280
124
104
92
96
197
148
177
44
122
191
116
299
235
209
279
230
9
12
108
309
281
224
111
186
158
81
308
284
38
170
119
243
275
74
90
33
156
294
199
78
178
149
55
249
257
288
259
225
297
97
212
298
164
4
175
238
210
16
273
217
227
48
103
21
258
41
73
292
153
126
278
139
248
30
7
295
232
137
25
179
203
272
239
84
15
5
95
252
110
70
223
79
63
132
46
260
291
105
206
247
200
215
2
286
254
201
244
241
49
24
8
131
208
213
75
76
198
240
28
6
39
242
118
58
61

> <PUBCHEM_MMFF94_PARTIAL_CHARGES>
37
1 -0.19
10 0.28
11 0.3
12 0.41
13 -0.14
14 0.54
15 -0.15
16 -0.15
17 0.09
18 -0.15
19 -0.15
2 -0.56
20 -0.14
21 -0.15
22 -0.15
23 0.14
24 -0.15
25 -0.15
26 0.19
3 -0.68
34 0.36
37 0.4
38 0.37
39 0.15
4 -0.57
40 0.15
41 0.15
42 0.15
43 0.15
44 0.15
48 0.15
49 0.15
5 -0.9
6 -0.73
7 0.27
8 0.28
9 0.28

> <PUBCHEM_EFFECTIVE_ROTOR_COUNT>
8

> <PUBCHEM_PHARMACOPHORE_FEATURES>
10
1 2 acceptor
1 3 acceptor
1 3 donor
1 4 acceptor
1 5 cation
1 5 donor
1 6 donor
5 2 7 8 9 10 rings
6 13 15 16 18 19 20 rings
6 17 21 22 24 25 26 rings

> <PUBCHEM_HEAVY_ATOM_COUNT>
26

> <PUBCHEM_ATOM_DEF_STEREO_COUNT>
3

> <PUBCHEM_ATOM_UDEF_STEREO_COUNT>
0

> <PUBCHEM_BOND_DEF_STEREO_COUNT>
0

> <PUBCHEM_BOND_UDEF_STEREO_COUNT>
0

> <PUBCHEM_ISOTOPIC_ATOM_COUNT>
0

> <PUBCHEM_COMPONENT_COUNT>
1

> <PUBCHEM_CACTVS_TAUTO_COUNT>
2

> <PUBCHEM_CONFORMER_ID>
047E02B300000003

> <PUBCHEM_MMFF94_ENERGY>
60.0473

> <PUBCHEM_FEATURE_SELFOVERLAP>
50.747

> <PUBCHEM_SHAPE_FINGERPRINT>
104564 63 18338521944669877679
10708813 3 18334574611879103476
11513181 2 18343311374550912494
11578080 2 16771862942141753275
12293681 4 17560242384751722816
12422481 6 18266485164676476259
12633257 1 18265607681050620744
12788726 201 18196951069587888893
13140716 1 18336820910451495520
13224815 77 18187639228423661682
14081887 123 18128804425482626640
14251757 17 16952503979333062951
14251764 3 17060622195907382415
14464042 87 18339643442778716755
15295992 7 17632002053950916210
16752209 62 18339365265687913262
17357779 13 18266724943404080583
20261772 1 18187933820067152496
21236236 1 18409167719271605286
23419403 2 17689669389627564245
23557571 272 18131071549644827538
23559900 14 18272934899732334148
2818148 4 18043807594326818226
3027735 51 18410853261474769051
35225 105 18130503033281902536
4340502 62 18127985118165254977
469060 322 17458620107852608135
6034566 193 15651868722816570028
6287921 2 17482274808261168559
6438718 38 18343025501474344847
7064713 232 18339922602303955065

> <PUBCHEM_SHAPE_MULTIPOLES>
500.22
8.06
3.47
1.68
3.67
0.06
-0.02
-0.99
0.86
-3.12
0.32
0.01
0.41
-1.15

> <PUBCHEM_SHAPE_SELFOVERLAP>
1065.739

> <PUBCHEM_SHAPE_VOLUME>
280.3

> <PUBCHEM_COORDINATE_TYPE>
2
5
10

$$$$
