45360516
  -OEChem-12032416223D

 77 81  0     1  0  0  0  0  0999 V2000
    3.6196   -2.5835   -0.9614 O   0  0  0  0  0  0  0  0  0  0  0  0
    5.7628    5.4167   -1.1621 O   0  0  0  0  0  0  0  0  0  0  0  0
    7.0656    3.6140   -0.6788 O   0  0  0  0  0  0  0  0  0  0  0  0
   -3.5401    3.2046   -1.8319 O   0  0  0  0  0  0  0  0  0  0  0  0
   -0.2413   -7.0042   -0.6801 O   0  0  0  0  0  0  0  0  0  0  0  0
   -0.1079    2.0300    0.8719 N   0  0  0  0  0  0  0  0  0  0  0  0
    4.1260   -0.7127    0.3196 N   0  0  0  0  0  0  0  0  0  0  0  0
   -4.2054    1.6771   -0.1355 N   0  0  0  0  0  0  0  0  0  0  0  0
   -5.7562    2.4079   -1.6158 N   0  0  0  0  0  0  0  0  0  0  0  0
    3.6686    1.6131    1.0641 C   0  0  1  0  0  0  0  0  0  0  0  0
    4.8319    2.0923    0.1586 C   0  0  1  0  0  0  0  0  0  0  0  0
    2.2807    1.7691    0.4302 C   0  0  0  0  0  0  0  0  0  0  0  0
    3.9025    0.1511    1.4858 C   0  0  0  0  0  0  0  0  0  0  0  0
    5.0633    1.1320   -1.0204 C   0  0  0  0  0  0  0  0  0  0  0  0
    1.2065    1.9002    1.5004 C   0  0  0  0  0  0  0  0  0  0  0  0
    5.2386   -0.3058   -0.5384 C   0  0  0  0  0  0  0  0  0  0  0  0
   -2.9640    1.4723    0.5682 C   0  0  0  0  0  0  0  0  0  0  0  0
    4.6532    3.5257   -0.3409 C   0  0  0  0  0  0  0  0  0  0  0  0
   -0.5599    0.7314    0.3535 C   0  0  0  0  0  0  0  0  0  0  0  0
   -1.0789    2.5897    1.8221 C   0  0  0  0  0  0  0  0  0  0  0  0
   -1.9102    0.8593   -0.3538 C   0  0  0  0  0  0  0  0  0  0  0  0
   -2.4464    2.7817    1.1641 C   0  0  0  0  0  0  0  0  0  0  0  0
    3.3946   -1.8594    0.0117 C   0  0  0  0  0  0  0  0  0  0  0  0
    5.9668    4.1455   -0.7304 C   0  0  0  0  0  0  0  0  0  0  0  0
   -5.4287    1.0765    0.1871 C   0  0  0  0  0  0  0  0  0  0  0  0
   -4.3806    2.5199   -1.2654 C   0  0  0  0  0  0  0  0  0  0  0  0
    2.2622   -2.2094    0.9438 C   0  0  0  0  0  0  0  0  0  0  0  0
   -6.3776    1.5304   -0.7269 C   0  0  0  0  0  0  0  0  0  0  0  0
   -5.7601    0.1901    1.1904 C   0  0  0  0  0  0  0  0  0  0  0  0
    1.5982   -3.4800    0.5134 C   0  0  0  0  0  0  0  0  0  0  0  0
   -7.6939    1.1267   -0.6868 C   0  0  0  0  0  0  0  0  0  0  0  0
   -7.0916   -0.2347    1.2518 C   0  0  0  0  0  0  0  0  0  0  0  0
   -8.0478    0.2285    0.3235 C   0  0  0  0  0  0  0  0  0  0  0  0
    0.5255   -3.4399   -0.3773 C   0  0  0  0  0  0  0  0  0  0  0  0
    2.0526   -4.7045    1.0032 C   0  0  0  0  0  0  0  0  0  0  0  0
   -0.0929   -4.6242   -0.7781 C   0  0  0  0  0  0  0  0  0  0  0  0
    1.4343   -5.8887    0.6024 C   0  0  0  0  0  0  0  0  0  0  0  0
    0.3616   -5.8486   -0.2882 C   0  0  0  0  0  0  0  0  0  0  0  0
   -1.3316   -6.8902   -1.5935 C   0  0  0  0  0  0  0  0  0  0  0  0
    3.7028    2.2295    1.9733 H   0  0  0  0  0  0  0  0  0  0  0  0
    5.7356    2.0551    0.7851 H   0  0  0  0  0  0  0  0  0  0  0  0
    2.0954    0.9363   -0.2533 H   0  0  0  0  0  0  0  0  0  0  0  0
    2.2348    2.6742   -0.1849 H   0  0  0  0  0  0  0  0  0  0  0  0
    4.8098    0.0859    2.0999 H   0  0  0  0  0  0  0  0  0  0  0  0
    3.0853   -0.2062    2.1128 H   0  0  0  0  0  0  0  0  0  0  0  0
    4.2082    1.1772   -1.7069 H   0  0  0  0  0  0  0  0  0  0  0  0
    5.9479    1.4227   -1.5971 H   0  0  0  0  0  0  0  0  0  0  0  0
    1.2242    1.0621    2.2069 H   0  0  0  0  0  0  0  0  0  0  0  0
    1.4284    2.8054    2.0812 H   0  0  0  0  0  0  0  0  0  0  0  0
    6.1586   -0.4030    0.0502 H   0  0  0  0  0  0  0  0  0  0  0  0
    5.3315   -0.9740   -1.4004 H   0  0  0  0  0  0  0  0  0  0  0  0
   -3.1293    0.7730    1.3956 H   0  0  0  0  0  0  0  0  0  0  0  0
    3.9897    3.5624   -1.2118 H   0  0  0  0  0  0  0  0  0  0  0  0
    4.2310    4.1467    0.4581 H   0  0  0  0  0  0  0  0  0  0  0  0
   -0.6432   -0.0051    1.1637 H   0  0  0  0  0  0  0  0  0  0  0  0
    0.1397    0.3238   -0.3819 H   0  0  0  0  0  0  0  0  0  0  0  0
   -0.7348    3.5695    2.1754 H   0  0  0  0  0  0  0  0  0  0  0  0
   -1.1801    1.9426    2.7035 H   0  0  0  0  0  0  0  0  0  0  0  0
   -2.2415   -0.1307   -0.6916 H   0  0  0  0  0  0  0  0  0  0  0  0
   -1.7751    1.4635   -1.2591 H   0  0  0  0  0  0  0  0  0  0  0  0
   -2.3590    3.5593    0.3957 H   0  0  0  0  0  0  0  0  0  0  0  0
   -3.1599    3.1615    1.9059 H   0  0  0  0  0  0  0  0  0  0  0  0
    2.6497   -2.3310    1.9620 H   0  0  0  0  0  0  0  0  0  0  0  0
    1.5327   -1.3935    0.9590 H   0  0  0  0  0  0  0  0  0  0  0  0
   -6.2198    2.8815   -2.3814 H   0  0  0  0  0  0  0  0  0  0  0  0
   -5.0410   -0.1770    1.9121 H   0  0  0  0  0  0  0  0  0  0  0  0
    6.6014    5.8523   -1.4255 H   0  0  0  0  0  0  0  0  0  0  0  0
   -8.4269    1.4833   -1.4006 H   0  0  0  0  0  0  0  0  0  0  0  0
   -7.3971   -0.9333    2.0267 H   0  0  0  0  0  0  0  0  0  0  0  0
   -9.0746   -0.1203    0.3976 H   0  0  0  0  0  0  0  0  0  0  0  0
    0.1639   -2.4916   -0.7665 H   0  0  0  0  0  0  0  0  0  0  0  0
    2.8888   -4.7495    1.6960 H   0  0  0  0  0  0  0  0  0  0  0  0
   -0.9200   -4.5205   -1.4721 H   0  0  0  0  0  0  0  0  0  0  0  0
    1.7930   -6.8396    0.9868 H   0  0  0  0  0  0  0  0  0  0  0  0
   -1.6905   -7.9045   -1.7965 H   0  0  0  0  0  0  0  0  0  0  0  0
   -1.0115   -6.4667   -2.5515 H   0  0  0  0  0  0  0  0  0  0  0  0
   -2.1686   -6.3371   -1.1539 H   0  0  0  0  0  0  0  0  0  0  0  0
  1 23  2  0  0  0  0
  2 24  1  0  0  0  0
  2 67  1  0  0  0  0
  3 24  2  0  0  0  0
  4 26  2  0  0  0  0
  5 38  1  0  0  0  0
  5 39  1  0  0  0  0
  6 15  1  0  0  0  0
  6 19  1  0  0  0  0
  6 20  1  0  0  0  0
  7 13  1  0  0  0  0
  7 16  1  0  0  0  0
  7 23  1  0  0  0  0
  8 17  1  0  0  0  0
  8 25  1  0  0  0  0
  8 26  1  0  0  0  0
  9 26  1  0  0  0  0
  9 28  1  0  0  0  0
  9 65  1  0  0  0  0
 10 11  1  0  0  0  0
 10 12  1  0  0  0  0
 10 13  1  0  0  0  0
 10 40  1  0  0  0  0
 11 14  1  0  0  0  0
 11 18  1  0  0  0  0
 11 41  1  0  0  0  0
 12 15  1  0  0  0  0
 12 42  1  0  0  0  0
 12 43  1  0  0  0  0
 13 44  1  0  0  0  0
 13 45  1  0  0  0  0
 14 16  1  0  0  0  0
 14 46  1  0  0  0  0
 14 47  1  0  0  0  0
 15 48  1  0  0  0  0
 15 49  1  0  0  0  0
 16 50  1  0  0  0  0
 16 51  1  0  0  0  0
 17 21  1  0  0  0  0
 17 22  1  0  0  0  0
 17 52  1  0  0  0  0
 18 24  1  0  0  0  0
 18 53  1  0  0  0  0
 18 54  1  0  0  0  0
 19 21  1  0  0  0  0
 19 55  1  0  0  0  0
 19 56  1  0  0  0  0
 20 22  1  0  0  0  0
 20 57  1  0  0  0  0
 20 58  1  0  0  0  0
 21 59  1  0  0  0  0
 21 60  1  0  0  0  0
 22 61  1  0  0  0  0
 22 62  1  0  0  0  0
 23 27  1  0  0  0  0
 25 28  1  0  0  0  0
 25 29  2  0  0  0  0
 27 30  1  0  0  0  0
 27 63  1  0  0  0  0
 27 64  1  0  0  0  0
 28 31  2  0  0  0  0
 29 32  1  0  0  0  0
 29 66  1  0  0  0  0
 30 34  2  0  0  0  0
 30 35  1  0  0  0  0
 31 33  1  0  0  0  0
 31 68  1  0  0  0  0
 32 33  2  0  0  0  0
 32 69  1  0  0  0  0
 33 70  1  0  0  0  0
 34 36  1  0  0  0  0
 34 71  1  0  0  0  0
 35 37  2  0  0  0  0
 35 72  1  0  0  0  0
 36 38  2  0  0  0  0
 36 73  1  0  0  0  0
 37 38  1  0  0  0  0
 37 74  1  0  0  0  0
 39 75  1  0  0  0  0
 39 76  1  0  0  0  0
 39 77  1  0  0  0  0
M  END
> <PUBCHEM_COMPOUND_CID>
45360516

> <PUBCHEM_CONFORMER_RMSD>
1.2

> <PUBCHEM_CONFORMER_DIVERSEORDER>
1
168
110
180
74
171
206
101
66
83
143
39
218
221
212
230
68
169
57
77
219
185
234
45
10
89
22
17
240
199
82
24
182
129
190
63
80
70
237
216
203
53
157
195
119
87
85
58
127
170
60
196
167
3
152
38
235
242
177
103
226
116
148
231
175
37
191
162
179
200
79
91
125
181
18
81
236
92
198
94
34
111
138
238
43
213
241
55
112
214
93
46
166
189
36
135
141
7
98
71
155
153
95
149
194
197
15
23
90
174
205
47
225
117
154
120
161
173
193
6
102
210
61
156
130
44
121
69
99
84
139
192
118
73
51
75
86
229
146
33
97
159
32
72
56
132
30
124
133
62
223
227
107
113
109
178
232
19
220
115
64
88
20
104
142
122
28
208
209
228
131
106
67
217
211
40
13
183
65
147
50
100
35
204
59
164
186
184
105
126
160
233
215
239
176
54
11
5
123
52
96
188
140
136
201
48
202
108
172
145
224
2
187
9
151
26
16
114
8
150
222
163
41
137
78
134
21
76
42
128
29
144
25
14
12
207
49
27
165
158
4
31

> <PUBCHEM_MMFF94_PARTIAL_CHARGES>
43
1 -0.57
13 0.3
15 0.27
16 0.3
17 0.3
18 0.06
19 0.27
2 -0.65
20 0.27
23 0.57
24 0.66
25 0.12
26 0.69
27 0.2
28 0.12
29 -0.15
3 -0.57
30 -0.14
31 -0.15
32 -0.15
33 -0.15
34 -0.15
35 -0.15
36 -0.15
37 -0.15
38 0.08
39 0.28
4 -0.57
5 -0.36
6 -0.81
65 0.37
66 0.15
67 0.5
68 0.15
69 0.15
7 -0.66
70 0.15
71 0.15
72 0.15
73 0.15
74 0.15
8 -0.48
9 -0.55

> <PUBCHEM_EFFECTIVE_ROTOR_COUNT>
12.4

> <PUBCHEM_PHARMACOPHORE_FEATURES>
13
1 1 acceptor
1 2 acceptor
1 3 acceptor
1 4 acceptor
1 5 acceptor
1 6 cation
1 9 donor
3 2 3 24 anion
5 8 9 25 26 28 rings
6 25 28 29 31 32 33 rings
6 30 34 35 36 37 38 rings
6 6 17 19 20 21 22 rings
6 7 10 11 13 14 16 rings

> <PUBCHEM_HEAVY_ATOM_COUNT>
39

> <PUBCHEM_ATOM_DEF_STEREO_COUNT>
2

> <PUBCHEM_ATOM_UDEF_STEREO_COUNT>
0

> <PUBCHEM_BOND_DEF_STEREO_COUNT>
0

> <PUBCHEM_BOND_UDEF_STEREO_COUNT>
0

> <PUBCHEM_ISOTOPIC_ATOM_COUNT>
0

> <PUBCHEM_COMPONENT_COUNT>
1

> <PUBCHEM_CACTVS_TAUTO_COUNT>
2

> <PUBCHEM_CONFORMER_ID>
02B4258400000001

> <PUBCHEM_MMFF94_ENERGY>
104.7103

> <PUBCHEM_FEATURE_SELFOVERLAP>
66.131

> <PUBCHEM_SHAPE_FINGERPRINT>
11014199 57 17116070292635341498
11062273 19 17977670810280482582
11093857 51 18270670966425262258
11103572 155 18195534697697624809
11181472 205 18194399997329380737
11204353 107 18411140238589896683
11297750 10 17192072372232926008
11991303 11 18195251233280325468
13150687 139 18338811095824596860
1361 2 18408887356095981520
14068700 686 18260830346141741301
14294032 229 18121222249496081048
14675020 138 18199446841024212592
15198563 99 17472988779840523636
15400415 2 18411696599704426193
15419008 42 17755838854576369669
15483637 11 17980200013230047154
18365409 1 18120944055726607356
19319366 153 18343010073883051014
21133410 52 17981316803839478382
21360442 67 18410574019648424129
23516275 137 16342046310603734540
3103668 31 17835244819840404262
4435113 14 18044111072805881571
46194498 28 18260541182846795916
5265222 85 18264489653909125833
6058803 2 17841725005835130024

> <PUBCHEM_SHAPE_MULTIPOLES>
753.33
18.15
10.25
1.47
24.03
22.39
0.01
-22.87
-3.37
-11.1
-3.67
0.6
-0.46
-1.18

> <PUBCHEM_SHAPE_SELFOVERLAP>
1607.027

> <PUBCHEM_SHAPE_VOLUME>
413

> <PUBCHEM_COORDINATE_TYPE>
2
5
10

$$$$
