45783871
  -OEChem-12032416203D

 63 64  0     1  0  0  0  0  0999 V2000
    2.7701   -1.5759    1.9961 O   0  0  0  0  0  0  0  0  0  0  0  0
   -2.5955    0.9465   -2.2024 O   0  0  0  0  0  0  0  0  0  0  0  0
   -3.4841    5.1395    0.4880 O   0  0  0  0  0  0  0  0  0  0  0  0
   -3.9348    3.4534    1.9413 O   0  0  0  0  0  0  0  0  0  0  0  0
   -3.0079   -0.8137   -0.7388 N   0  0  0  0  0  0  0  0  0  0  0  0
    1.7207    0.4945    2.1101 N   0  0  0  0  0  0  0  0  0  0  0  0
    4.5243    1.3376    0.2834 N   0  0  0  0  0  0  0  0  0  0  0  0
   -0.2345   -1.9359   -1.0433 C   0  0  1  0  0  0  0  0  0  0  0  0
   -1.5565   -2.7423   -1.0890 C   0  0  1  0  0  0  0  0  0  0  0  0
    0.7849   -2.6290   -0.1265 C   0  0  0  0  0  0  0  0  0  0  0  0
    0.2602   -2.7882    1.3130 C   0  0  2  0  0  0  0  0  0  0  0  0
    0.3665   -1.7495   -2.4399 C   0  0  0  0  0  0  0  0  0  0  0  0
   -1.1538   -3.3323    1.3400 C   0  0  0  0  0  0  0  0  0  0  0  0
   -1.9460   -3.3155    0.2534 C   0  0  0  0  0  0  0  0  0  0  0  0
   -2.7072   -1.8878   -1.6327 C   0  0  0  0  0  0  0  0  0  0  0  0
    0.3547   -1.4672    2.0845 C   0  0  0  0  0  0  0  0  0  0  0  0
    1.1421   -2.9952   -2.8559 C   0  0  0  0  0  0  0  0  0  0  0  0
    1.2648   -0.5169   -2.4724 C   0  0  0  0  0  0  0  0  0  0  0  0
   -1.6213   -3.9385    2.6338 C   0  0  0  0  0  0  0  0  0  0  0  0
    1.7525   -0.8912    2.0566 C   0  0  0  0  0  0  0  0  0  0  0  0
   -2.9285    0.5336   -1.0948 C   0  0  0  0  0  0  0  0  0  0  0  0
   -3.3029    1.4511    0.0553 C   0  0  0  0  0  0  0  0  0  0  0  0
    2.9121    1.3120    2.1005 C   0  0  0  0  0  0  0  0  0  0  0  0
   -3.2190    2.9260   -0.3242 C   0  0  0  0  0  0  0  0  0  0  0  0
    3.3006    1.7228    0.7096 C   0  0  0  0  0  0  0  0  0  0  0  0
   -3.5869    3.8285    0.8303 C   0  0  0  0  0  0  0  0  0  0  0  0
    2.4090    2.4584   -0.0545 C   0  0  0  0  0  0  0  0  0  0  0  0
    2.7985    2.8219   -1.3388 C   0  0  0  0  0  0  0  0  0  0  0  0
    4.8681    1.7093   -0.9700 C   0  0  0  0  0  0  0  0  0  0  0  0
    4.0499    2.4441   -1.8130 C   0  0  0  0  0  0  0  0  0  0  0  0
   -0.4387   -0.9438   -0.6220 H   0  0  0  0  0  0  0  0  0  0  0  0
   -1.4402   -3.5990   -1.7646 H   0  0  0  0  0  0  0  0  0  0  0  0
    0.9756   -3.6521   -0.4783 H   0  0  0  0  0  0  0  0  0  0  0  0
    1.7506   -2.1194   -0.1546 H   0  0  0  0  0  0  0  0  0  0  0  0
    0.9166   -3.5207    1.8038 H   0  0  0  0  0  0  0  0  0  0  0  0
   -0.4252   -1.5815   -3.1771 H   0  0  0  0  0  0  0  0  0  0  0  0
   -2.9360   -3.7631    0.3180 H   0  0  0  0  0  0  0  0  0  0  0  0
   -3.6194   -2.4912   -1.7155 H   0  0  0  0  0  0  0  0  0  0  0  0
   -2.4950   -1.5045   -2.6343 H   0  0  0  0  0  0  0  0  0  0  0  0
    0.0989   -1.6188    3.1403 H   0  0  0  0  0  0  0  0  0  0  0  0
   -0.3638   -0.7407    1.6857 H   0  0  0  0  0  0  0  0  0  0  0  0
    2.0926   -3.1089   -2.3240 H   0  0  0  0  0  0  0  0  0  0  0  0
    1.4039   -2.9172   -3.9185 H   0  0  0  0  0  0  0  0  0  0  0  0
    0.5565   -3.9131   -2.7494 H   0  0  0  0  0  0  0  0  0  0  0  0
    1.6684   -0.3635   -3.4793 H   0  0  0  0  0  0  0  0  0  0  0  0
    0.7011    0.3830   -2.2044 H   0  0  0  0  0  0  0  0  0  0  0  0
    2.1141   -0.6027   -1.7878 H   0  0  0  0  0  0  0  0  0  0  0  0
   -0.9382   -4.7337    2.9496 H   0  0  0  0  0  0  0  0  0  0  0  0
   -2.6203   -4.3787    2.5459 H   0  0  0  0  0  0  0  0  0  0  0  0
   -1.6640   -3.1815    3.4226 H   0  0  0  0  0  0  0  0  0  0  0  0
   -3.3498   -1.0462    0.1894 H   0  0  0  0  0  0  0  0  0  0  0  0
    0.8262    0.9737    2.1571 H   0  0  0  0  0  0  0  0  0  0  0  0
   -2.6304    1.2391    0.8957 H   0  0  0  0  0  0  0  0  0  0  0  0
   -4.3213    1.2019    0.3775 H   0  0  0  0  0  0  0  0  0  0  0  0
    3.7295    0.7599    2.5778 H   0  0  0  0  0  0  0  0  0  0  0  0
    2.7114    2.2023    2.7063 H   0  0  0  0  0  0  0  0  0  0  0  0
   -2.1981    3.1713   -0.6385 H   0  0  0  0  0  0  0  0  0  0  0  0
   -3.9014    3.1374   -1.1552 H   0  0  0  0  0  0  0  0  0  0  0  0
    1.4354    2.7520    0.3231 H   0  0  0  0  0  0  0  0  0  0  0  0
    2.1279    3.3978   -1.9693 H   0  0  0  0  0  0  0  0  0  0  0  0
    5.8536    1.3896   -1.2923 H   0  0  0  0  0  0  0  0  0  0  0  0
   -3.7211    5.7313    1.2336 H   0  0  0  0  0  0  0  0  0  0  0  0
    4.3741    2.7157   -2.8110 H   0  0  0  0  0  0  0  0  0  0  0  0
  1 20  2  0  0  0  0
  2 21  2  0  0  0  0
  3 26  1  0  0  0  0
  3 62  1  0  0  0  0
  4 26  2  0  0  0  0
  5 15  1  0  0  0  0
  5 21  1  0  0  0  0
  5 51  1  0  0  0  0
  6 20  1  0  0  0  0
  6 23  1  0  0  0  0
  6 52  1  0  0  0  0
  7 25  1  0  0  0  0
  7 29  2  0  0  0  0
  8  9  1  0  0  0  0
  8 10  1  0  0  0  0
  8 12  1  0  0  0  0
  8 31  1  0  0  0  0
  9 14  1  0  0  0  0
  9 15  1  0  0  0  0
  9 32  1  0  0  0  0
 10 11  1  0  0  0  0
 10 33  1  0  0  0  0
 10 34  1  0  0  0  0
 11 13  1  0  0  0  0
 11 16  1  0  0  0  0
 11 35  1  0  0  0  0
 12 17  1  0  0  0  0
 12 18  1  0  0  0  0
 12 36  1  0  0  0  0
 13 14  2  0  0  0  0
 13 19  1  0  0  0  0
 14 37  1  0  0  0  0
 15 38  1  0  0  0  0
 15 39  1  0  0  0  0
 16 20  1  0  0  0  0
 16 40  1  0  0  0  0
 16 41  1  0  0  0  0
 17 42  1  0  0  0  0
 17 43  1  0  0  0  0
 17 44  1  0  0  0  0
 18 45  1  0  0  0  0
 18 46  1  0  0  0  0
 18 47  1  0  0  0  0
 19 48  1  0  0  0  0
 19 49  1  0  0  0  0
 19 50  1  0  0  0  0
 21 22  1  0  0  0  0
 22 24  1  0  0  0  0
 22 53  1  0  0  0  0
 22 54  1  0  0  0  0
 23 25  1  0  0  0  0
 23 55  1  0  0  0  0
 23 56  1  0  0  0  0
 24 26  1  0  0  0  0
 24 57  1  0  0  0  0
 24 58  1  0  0  0  0
 25 27  2  0  0  0  0
 27 28  1  0  0  0  0
 27 59  1  0  0  0  0
 28 30  2  0  0  0  0
 28 60  1  0  0  0  0
 29 30  1  0  0  0  0
 29 61  1  0  0  0  0
 30 63  1  0  0  0  0
M  END
> <PUBCHEM_COMPOUND_CID>
45783871

> <PUBCHEM_CONFORMER_RMSD>
1.2

> <PUBCHEM_CONFORMER_DIVERSEORDER>
1
68
47
81
55
66
37
54
45
26
78
76
8
75
48
7
58
64
50
77
32
79
18
3
69
56
43
21
36
14
33
30
59
10
70
20
57
12
16
49
9
42
23
67
53
22
29
27
61
13
34
5
65
72
28
2
51
63
73
15
6
62
31
60
38
52
40
11
17
41
24
35
19
80
39
71
25
44
4
74
46

> <PUBCHEM_MMFF94_PARTIAL_CHARGES>
33
1 -0.57
11 0.14
13 -0.28
14 -0.29
15 0.3
16 0.06
19 0.14
2 -0.57
20 0.57
21 0.57
22 0.06
23 0.44
24 0.06
25 0.17
26 0.66
27 -0.15
28 -0.15
29 0.16
3 -0.65
30 -0.15
37 0.15
4 -0.57
5 -0.73
51 0.37
52 0.37
59 0.15
6 -0.73
60 0.15
61 0.15
62 0.5
63 0.15
7 -0.62
9 0.14

> <PUBCHEM_EFFECTIVE_ROTOR_COUNT>
12.8

> <PUBCHEM_PHARMACOPHORE_FEATURES>
11
1 1 acceptor
1 2 acceptor
1 3 acceptor
1 4 acceptor
1 5 donor
1 6 donor
1 7 acceptor
3 12 17 18 hydrophobe
3 3 4 26 anion
6 7 25 27 28 29 30 rings
6 8 9 10 11 13 14 rings

> <PUBCHEM_HEAVY_ATOM_COUNT>
30

> <PUBCHEM_ATOM_DEF_STEREO_COUNT>
3

> <PUBCHEM_ATOM_UDEF_STEREO_COUNT>
0

> <PUBCHEM_BOND_DEF_STEREO_COUNT>
0

> <PUBCHEM_BOND_UDEF_STEREO_COUNT>
0

> <PUBCHEM_ISOTOPIC_ATOM_COUNT>
0

> <PUBCHEM_COMPONENT_COUNT>
1

> <PUBCHEM_CACTVS_TAUTO_COUNT>
4

> <PUBCHEM_CONFORMER_ID>
02BA9B3F00000001

> <PUBCHEM_MMFF94_ENERGY>
53.0764

> <PUBCHEM_FEATURE_SELFOVERLAP>
55.88

> <PUBCHEM_SHAPE_FINGERPRINT>
10708813 3 16446141581752056902
11578080 2 17912120340540282235
12156800 1 16665199383308001208
12539773 59 17977912959918550023
12788726 201 18265602368186676635
13642711 20 17041536688462706443
14251757 17 17131552846804766868
14279260 333 18115298012722233032
15210252 30 17120026356856446149
15419009 47 18342459197726140622
16067690 210 18121225534682306748
21857420 4 16820243369177744084
21987440 362 17628330707338070864
22121540 332 18053702206876079403
35225 105 17973986634023732532
469060 322 13769885208295125896
50150288 127 16600474531153551845
5895379 119 18263914609602073320

> <PUBCHEM_SHAPE_MULTIPOLES>
578.97
7.62
6.45
3.09
9.23
8.79
-0.14
4.73
-0.69
-8.51
2.22
0.3
-2.16
-0.62

> <PUBCHEM_SHAPE_SELFOVERLAP>
1183.229

> <PUBCHEM_SHAPE_VOLUME>
331.2

> <PUBCHEM_COORDINATE_TYPE>
2
5
10

$$$$
