45361282
  -OEChem-12032416353D

 60 63  0     1  0  0  0  0  0999 V2000
    2.2075    2.3045    0.5362 O   0  0  0  0  0  0  0  0  0  0  0  0
    0.1076    3.2186   -1.3933 O   0  0  0  0  0  0  0  0  0  0  0  0
    3.5907    4.7438    0.3331 O   0  0  0  0  0  0  0  0  0  0  0  0
    2.2289   -2.1464    0.4853 O   0  0  0  0  0  0  0  0  0  0  0  0
   -1.2598    1.1819    0.0913 N   0  0  0  0  0  0  0  0  0  0  0  0
   -3.7972   -0.1293    0.1334 N   0  0  0  0  0  0  0  0  0  0  0  0
    2.7979   -0.1995   -0.6415 N   0  0  0  0  0  0  0  0  0  0  0  0
    4.8950   -3.1832   -0.1261 N   0  0  0  0  0  0  0  0  0  0  0  0
   -0.1387    1.9185    0.6482 C   0  0  1  0  0  0  0  0  0  0  0  0
    1.2330    1.2378    0.5556 C   0  0  1  0  0  0  0  0  0  0  0  0
    0.1135    3.2837    0.0269 C   0  0  1  0  0  0  0  0  0  0  0  0
    1.5197    3.5704    0.5396 C   0  0  2  0  0  0  0  0  0  0  0  0
   -1.4170   -0.1092    0.7724 C   0  0  0  0  0  0  0  0  0  0  0  0
   -2.4977    1.9620    0.2083 C   0  0  0  0  0  0  0  0  0  0  0  0
    1.4853    0.3728   -0.6742 C   0  0  0  0  0  0  0  0  0  0  0  0
   -2.5597   -0.9194    0.1563 C   0  0  0  0  0  0  0  0  0  0  0  0
   -3.6774    1.2209   -0.4257 C   0  0  0  0  0  0  0  0  0  0  0  0
    2.3179    4.5760   -0.2701 C   0  0  0  0  0  0  0  0  0  0  0  0
   -5.0133   -0.8148    0.0375 C   0  0  0  0  0  0  0  0  0  0  0  0
    3.0702   -1.4333   -0.0552 C   0  0  0  0  0  0  0  0  0  0  0  0
   -5.3750   -1.7345    1.0219 C   0  0  0  0  0  0  0  0  0  0  0  0
   -5.8637   -0.5785   -1.0425 C   0  0  0  0  0  0  0  0  0  0  0  0
    4.4881   -1.8753   -0.0808 C   0  0  0  0  0  0  0  0  0  0  0  0
   -6.5872   -2.4180    0.9263 C   0  0  0  0  0  0  0  0  0  0  0  0
   -7.0758   -1.2619   -1.1382 C   0  0  0  0  0  0  0  0  0  0  0  0
   -7.4377   -2.1817   -0.1538 C   0  0  0  0  0  0  0  0  0  0  0  0
    5.6149   -1.0831   -0.0679 C   0  0  0  0  0  0  0  0  0  0  0  0
    6.2644   -3.2378   -0.1430 C   0  0  0  0  0  0  0  0  0  0  0  0
    6.7386   -1.9452   -0.1072 C   0  0  0  0  0  0  0  0  0  0  0  0
    4.0270   -4.3399   -0.1528 C   0  0  0  0  0  0  0  0  0  0  0  0
   -0.3232    2.0976    1.7201 H   0  0  0  0  0  0  0  0  0  0  0  0
    1.4171    0.6446    1.4601 H   0  0  0  0  0  0  0  0  0  0  0  0
   -0.5970    4.0525    0.3471 H   0  0  0  0  0  0  0  0  0  0  0  0
    1.4831    3.8859    1.5903 H   0  0  0  0  0  0  0  0  0  0  0  0
   -0.5209   -0.7324    0.7430 H   0  0  0  0  0  0  0  0  0  0  0  0
   -1.6354    0.0537    1.8377 H   0  0  0  0  0  0  0  0  0  0  0  0
   -2.7242    2.1785    1.2612 H   0  0  0  0  0  0  0  0  0  0  0  0
   -2.4182    2.9218   -0.3130 H   0  0  0  0  0  0  0  0  0  0  0  0
    1.4554    0.9830   -1.5833 H   0  0  0  0  0  0  0  0  0  0  0  0
    0.7669   -0.4376   -0.8025 H   0  0  0  0  0  0  0  0  0  0  0  0
   -2.6779   -1.8394    0.7404 H   0  0  0  0  0  0  0  0  0  0  0  0
   -2.3015   -1.2175   -0.8681 H   0  0  0  0  0  0  0  0  0  0  0  0
   -3.5340    1.1638   -1.5124 H   0  0  0  0  0  0  0  0  0  0  0  0
   -4.5875    1.8026   -0.2326 H   0  0  0  0  0  0  0  0  0  0  0  0
    2.4922    4.2187   -1.2900 H   0  0  0  0  0  0  0  0  0  0  0  0
    1.8110    5.5451   -0.3033 H   0  0  0  0  0  0  0  0  0  0  0  0
    0.1658    4.1289   -1.7297 H   0  0  0  0  0  0  0  0  0  0  0  0
    3.5529    0.3290   -1.0683 H   0  0  0  0  0  0  0  0  0  0  0  0
    4.0778    5.3936   -0.2018 H   0  0  0  0  0  0  0  0  0  0  0  0
   -4.7327   -1.9222    1.8785 H   0  0  0  0  0  0  0  0  0  0  0  0
   -5.6081    0.1197   -1.8344 H   0  0  0  0  0  0  0  0  0  0  0  0
   -6.8705   -3.1319    1.6943 H   0  0  0  0  0  0  0  0  0  0  0  0
   -7.7370   -1.0806   -1.9807 H   0  0  0  0  0  0  0  0  0  0  0  0
   -8.3815   -2.7138   -0.2284 H   0  0  0  0  0  0  0  0  0  0  0  0
    5.6383   -0.0026   -0.0292 H   0  0  0  0  0  0  0  0  0  0  0  0
    6.7897   -4.1829   -0.1774 H   0  0  0  0  0  0  0  0  0  0  0  0
    7.7802   -1.6562   -0.1078 H   0  0  0  0  0  0  0  0  0  0  0  0
    4.6207   -5.2335   -0.3637 H   0  0  0  0  0  0  0  0  0  0  0  0
    3.2842   -4.2067   -0.9432 H   0  0  0  0  0  0  0  0  0  0  0  0
    3.5511   -4.4379    0.8259 H   0  0  0  0  0  0  0  0  0  0  0  0
  1 10  1  0  0  0  0
  1 12  1  0  0  0  0
  2 11  1  0  0  0  0
  2 47  1  0  0  0  0
  3 18  1  0  0  0  0
  3 49  1  0  0  0  0
  4 20  2  0  0  0  0
  5  9  1  0  0  0  0
  5 13  1  0  0  0  0
  5 14  1  0  0  0  0
  6 16  1  0  0  0  0
  6 17  1  0  0  0  0
  6 19  1  0  0  0  0
  7 15  1  0  0  0  0
  7 20  1  0  0  0  0
  7 48  1  0  0  0  0
  8 23  1  0  0  0  0
  8 28  1  0  0  0  0
  8 30  1  0  0  0  0
  9 10  1  0  0  0  0
  9 11  1  0  0  0  0
  9 31  1  0  0  0  0
 10 15  1  0  0  0  0
 10 32  1  0  0  0  0
 11 12  1  0  0  0  0
 11 33  1  0  0  0  0
 12 18  1  0  0  0  0
 12 34  1  0  0  0  0
 13 16  1  0  0  0  0
 13 35  1  0  0  0  0
 13 36  1  0  0  0  0
 14 17  1  0  0  0  0
 14 37  1  0  0  0  0
 14 38  1  0  0  0  0
 15 39  1  0  0  0  0
 15 40  1  0  0  0  0
 16 41  1  0  0  0  0
 16 42  1  0  0  0  0
 17 43  1  0  0  0  0
 17 44  1  0  0  0  0
 18 45  1  0  0  0  0
 18 46  1  0  0  0  0
 19 21  2  0  0  0  0
 19 22  1  0  0  0  0
 20 23  1  0  0  0  0
 21 24  1  0  0  0  0
 21 50  1  0  0  0  0
 22 25  2  0  0  0  0
 22 51  1  0  0  0  0
 23 27  2  0  0  0  0
 24 26  2  0  0  0  0
 24 52  1  0  0  0  0
 25 26  1  0  0  0  0
 25 53  1  0  0  0  0
 26 54  1  0  0  0  0
 27 29  1  0  0  0  0
 27 55  1  0  0  0  0
 28 29  2  0  0  0  0
 28 56  1  0  0  0  0
 29 57  1  0  0  0  0
 30 58  1  0  0  0  0
 30 59  1  0  0  0  0
 30 60  1  0  0  0  0
M  END
> <PUBCHEM_COMPOUND_CID>
45361282

> <PUBCHEM_CONFORMER_RMSD>
1

> <PUBCHEM_CONFORMER_DIVERSEORDER>
1
70
45
75
21
23
5
69
50
44
71
66
43
67
39
34
62
53
28
52
60
64
65
4
76
37
56
20
68
74
55
38
77
58
57
27
78
40
22
54
13
36
41
17
59
47
49
31
26
61
63
51
15
24
29
80
42
72
46
30
32
79
14
16
35
18
11
12
10
8
73
33
3
19
48
25
7
9
2
6

> <PUBCHEM_MMFF94_PARTIAL_CHARGES>
41
1 -0.56
10 0.28
11 0.28
12 0.28
13 0.27
14 0.27
15 0.3
16 0.37
17 0.37
18 0.28
19 0.1
2 -0.68
20 0.71
21 -0.15
22 -0.15
23 -0.24
24 -0.15
25 -0.15
26 -0.15
27 -0.15
28 -0.3
29 -0.15
3 -0.68
30 0.26
4 -0.57
47 0.4
48 0.37
49 0.4
5 -0.81
50 0.15
51 0.15
52 0.15
53 0.15
54 0.15
55 0.15
56 0.15
57 0.15
6 -0.84
7 -0.73
8 0.05
9 0.27

> <PUBCHEM_EFFECTIVE_ROTOR_COUNT>
9.2

> <PUBCHEM_PHARMACOPHORE_FEATURES>
14
1 1 acceptor
1 2 acceptor
1 2 donor
1 3 acceptor
1 3 donor
1 4 acceptor
1 5 cation
1 6 cation
1 7 donor
1 8 cation
5 1 9 10 11 12 rings
5 8 23 27 28 29 rings
6 19 21 22 24 25 26 rings
6 5 6 13 14 16 17 rings

> <PUBCHEM_HEAVY_ATOM_COUNT>
30

> <PUBCHEM_ATOM_DEF_STEREO_COUNT>
3

> <PUBCHEM_ATOM_UDEF_STEREO_COUNT>
1

> <PUBCHEM_BOND_DEF_STEREO_COUNT>
0

> <PUBCHEM_BOND_UDEF_STEREO_COUNT>
0

> <PUBCHEM_ISOTOPIC_ATOM_COUNT>
0

> <PUBCHEM_COMPONENT_COUNT>
1

> <PUBCHEM_CACTVS_TAUTO_COUNT>
2

> <PUBCHEM_CONFORMER_ID>
02B4288200000001

> <PUBCHEM_MMFF94_ENERGY>
82.6738

> <PUBCHEM_FEATURE_SELFOVERLAP>
71.054

> <PUBCHEM_SHAPE_FINGERPRINT>
10050765 1 18411700989519997617
10319688 140 18338518654909837604
10411042 1 18411419471418527202
11059845 2 17415580726691542929
11135926 11 18124301972511628861
11204353 107 18122072167568799062
11410812 94 16515959247582677158
11497681 19 18266183830056598342
11719270 70 18194958780219889856
11963148 33 17838612615562131127
12107183 9 18199200503560319009
12166972 35 18201719552501074099
12516196 113 18411698751556705986
12760667 363 18412827971969062715
12977781 61 17752781391674944531
13533116 47 18199468934541821281
13540713 4 18337372903812456685
13540713 5 18200050498509723937
13631057 29 18265053540450091802
13690498 29 18260543386596665231
13955234 65 18127690645873715049
13989917 61 18339080522352763067
14068700 675 18202563956014053939
14394314 77 18267308625180081040
14866123 147 18196095431073140833
14931854 50 17894913971022996090
15019793 15 17979918538528838303
15183329 4 16732981994601699255
15347591 1 18411420657505182433
15351339 4 17896033248090359987
15890870 6 18263932219564391348
15927050 60 17908987952092302222
16990366 60 18261384542751516258
16991971 28 18271255958461881854
17492 89 18411418440832559289
17686467 74 18342167827461648626
19315092 285 18060425737158534961
19319366 153 17911801585073232501
20771845 171 17969507185736692668
20775438 99 18048585208377787331
21033650 10 16515676699011724725
21049683 271 18335146422983501276
21130935 74 18195253441859243595
21344244 246 18335988657759990748
21682296 61 18411139152236853803
23559900 14 18335418019561252449
23569914 152 17906699568527516079
24771750 20 17972610050262287036
249999 5 18269552921992465904
255183 313 17549841987736970744
255183 451 18411982468305567085
3004659 81 18040433287002472715
32027 91 18408602587258948675
3421961 26 18411982498286039417
3627633 1 18194966245036723180
4046055 25 18116155459259951572
437815 12 18408040689313837687
439807 62 18335143085820175247
4461854 278 17847065497120391046
46194498 28 17749103447706826213
5104073 3 18060708295036722913
5309563 4 18339923714610839530
5718773 13 18411698764199112175
59755656 215 18193842767370012437
6004065 56 18409728482633486202
6669772 16 18194682802610731621
70251023 43 18409450288726732505
7970288 3 18339923723259309615
9962374 69 18270671086916617295

> <PUBCHEM_SHAPE_MULTIPOLES>
573.98
18.2
6.02
0.91
14.83
4.88
0.07
-24.39
1.73
-9.45
-0.08
0.89
0.05
0.8

> <PUBCHEM_SHAPE_SELFOVERLAP>
1220.562

> <PUBCHEM_SHAPE_VOLUME>
319

> <PUBCHEM_COORDINATE_TYPE>
2
5
10

$$$$
