7164959
  -OEChem-12032416373D

 68 70  0     1  0  0  0  0  0999 V2000
    5.4888   -1.0789    1.0740 S   0  0  0  0  0  0  0  0  0  0  0  0
    0.5634   -0.5234    1.2410 O   0  0  0  0  0  0  0  0  0  0  0  0
    0.3363   -4.4110    0.3392 O   0  0  0  0  0  0  0  0  0  0  0  0
    3.1133   -2.0116   -0.8582 O   0  0  0  0  0  0  0  0  0  0  0  0
   -2.0137    2.6751   -1.1733 O   0  0  0  0  0  0  0  0  0  0  0  0
   -0.5491   -1.8519   -0.3134 N   0  0  0  0  0  0  0  0  0  0  0  0
    2.3596    0.1706   -0.6576 N   0  0  0  0  0  0  0  0  0  0  0  0
    0.1636    2.0912   -0.6105 N   0  0  0  0  0  0  0  0  0  0  0  0
   -0.6933   -4.1884    2.3799 N   0  0  0  0  0  0  0  0  0  0  0  0
   -0.9309    3.8893    0.4539 N   0  0  0  0  0  0  0  0  0  0  0  0
   -3.5330   -1.9304   -0.4566 C   0  0  0  0  0  0  0  0  0  0  0  0
   -3.8177   -0.9399    0.6806 C   0  0  0  0  0  0  0  0  0  0  0  0
   -4.8410   -2.4588   -1.0611 C   0  0  0  0  0  0  0  0  0  0  0  0
   -2.6627   -3.0840    0.0380 C   0  0  0  0  0  0  0  0  0  0  0  0
   -4.7310    0.1954    0.2239 C   0  0  0  0  0  0  0  0  0  0  0  0
   -5.7524   -1.3208   -1.5149 C   0  0  0  0  0  0  0  0  0  0  0  0
   -6.0260   -0.3338   -0.3844 C   0  0  0  0  0  0  0  0  0  0  0  0
   -1.3135   -2.6488    0.6187 C   0  0  1  0  0  0  0  0  0  0  0  0
    1.0087   -0.2009   -1.0849 C   0  0  2  0  0  0  0  0  0  0  0  0
    0.1927    0.9917   -1.5793 C   0  0  0  0  0  0  0  0  0  0  0  0
    0.3259   -0.8549    0.0825 C   0  0  0  0  0  0  0  0  0  0  0  0
    2.6016    1.5960   -0.3917 C   0  0  0  0  0  0  0  0  0  0  0  0
    1.3798    2.3043    0.1829 C   0  0  0  0  0  0  0  0  0  0  0  0
   -0.4586   -3.8255    1.0707 C   0  0  0  0  0  0  0  0  0  0  0  0
    3.3601   -0.8258   -0.6285 C   0  0  0  0  0  0  0  0  0  0  0  0
   -1.0013    2.8730   -0.4946 C   0  0  0  0  0  0  0  0  0  0  0  0
    4.7188   -0.4064   -0.2998 C   0  0  0  0  0  0  0  0  0  0  0  0
   -2.0365    4.7840    0.7115 C   0  0  0  0  0  0  0  0  0  0  0  0
    5.5273    0.4957   -0.9557 C   0  0  0  0  0  0  0  0  0  0  0  0
   -2.9617    4.1992    1.7713 C   0  0  0  0  0  0  0  0  0  0  0  0
   -1.5214    6.1565    1.1249 C   0  0  0  0  0  0  0  0  0  0  0  0
    6.7957    0.6364   -0.3222 C   0  0  0  0  0  0  0  0  0  0  0  0
    6.9083   -0.1632    0.7937 C   0  0  0  0  0  0  0  0  0  0  0  0
   -2.9973   -1.3946   -1.2517 H   0  0  0  0  0  0  0  0  0  0  0  0
   -4.2816   -1.4616    1.5272 H   0  0  0  0  0  0  0  0  0  0  0  0
   -2.8928   -0.4847    1.0490 H   0  0  0  0  0  0  0  0  0  0  0  0
   -4.6225   -3.1089   -1.9168 H   0  0  0  0  0  0  0  0  0  0  0  0
   -5.3727   -3.0730   -0.3230 H   0  0  0  0  0  0  0  0  0  0  0  0
   -3.2062   -3.6667    0.7936 H   0  0  0  0  0  0  0  0  0  0  0  0
   -2.4821   -3.7747   -0.7971 H   0  0  0  0  0  0  0  0  0  0  0  0
   -4.9625    0.8472    1.0740 H   0  0  0  0  0  0  0  0  0  0  0  0
   -4.2055    0.8110   -0.5163 H   0  0  0  0  0  0  0  0  0  0  0  0
   -5.2856   -0.7927   -2.3555 H   0  0  0  0  0  0  0  0  0  0  0  0
   -6.6995   -1.7316   -1.8825 H   0  0  0  0  0  0  0  0  0  0  0  0
   -6.6200   -0.8270    0.3948 H   0  0  0  0  0  0  0  0  0  0  0  0
   -6.6251    0.5026   -0.7615 H   0  0  0  0  0  0  0  0  0  0  0  0
   -1.4836   -2.0315    1.5089 H   0  0  0  0  0  0  0  0  0  0  0  0
    1.1058   -0.9284   -1.9006 H   0  0  0  0  0  0  0  0  0  0  0  0
   -0.6190   -2.0863   -1.2995 H   0  0  0  0  0  0  0  0  0  0  0  0
    0.6409    1.3994   -2.4938 H   0  0  0  0  0  0  0  0  0  0  0  0
   -0.8291    0.6848   -1.8290 H   0  0  0  0  0  0  0  0  0  0  0  0
    2.8842    2.0504   -1.3489 H   0  0  0  0  0  0  0  0  0  0  0  0
    3.4371    1.7224    0.3018 H   0  0  0  0  0  0  0  0  0  0  0  0
    1.5934    3.3774    0.2333 H   0  0  0  0  0  0  0  0  0  0  0  0
    1.1706    1.9617    1.2019 H   0  0  0  0  0  0  0  0  0  0  0  0
   -0.1939   -4.9642    2.8021 H   0  0  0  0  0  0  0  0  0  0  0  0
   -1.3676   -3.7088    2.9677 H   0  0  0  0  0  0  0  0  0  0  0  0
   -0.1442    3.9356    1.0904 H   0  0  0  0  0  0  0  0  0  0  0  0
   -2.6089    4.8997   -0.2167 H   0  0  0  0  0  0  0  0  0  0  0  0
    5.2336    1.0276   -1.8518 H   0  0  0  0  0  0  0  0  0  0  0  0
   -2.4329    4.0464    2.7188 H   0  0  0  0  0  0  0  0  0  0  0  0
   -3.3556    3.2271    1.4549 H   0  0  0  0  0  0  0  0  0  0  0  0
   -3.8123    4.8629    1.9581 H   0  0  0  0  0  0  0  0  0  0  0  0
   -0.9355    6.1005    2.0491 H   0  0  0  0  0  0  0  0  0  0  0  0
   -0.8727    6.5773    0.3488 H   0  0  0  0  0  0  0  0  0  0  0  0
   -2.3501    6.8533    1.2882 H   0  0  0  0  0  0  0  0  0  0  0  0
    7.5860    1.2897   -0.6684 H   0  0  0  0  0  0  0  0  0  0  0  0
    7.7564   -0.2539    1.4576 H   0  0  0  0  0  0  0  0  0  0  0  0
  1 27  1  0  0  0  0
  1 33  1  0  0  0  0
  2 21  2  0  0  0  0
  3 24  2  0  0  0  0
  4 25  2  0  0  0  0
  5 26  2  0  0  0  0
  6 18  1  0  0  0  0
  6 21  1  0  0  0  0
  6 49  1  0  0  0  0
  7 19  1  0  0  0  0
  7 22  1  0  0  0  0
  7 25  1  0  0  0  0
  8 20  1  0  0  0  0
  8 23  1  0  0  0  0
  8 26  1  0  0  0  0
  9 24  1  0  0  0  0
  9 56  1  0  0  0  0
  9 57  1  0  0  0  0
 10 26  1  0  0  0  0
 10 28  1  0  0  0  0
 10 58  1  0  0  0  0
 11 12  1  0  0  0  0
 11 13  1  0  0  0  0
 11 14  1  0  0  0  0
 11 34  1  0  0  0  0
 12 15  1  0  0  0  0
 12 35  1  0  0  0  0
 12 36  1  0  0  0  0
 13 16  1  0  0  0  0
 13 37  1  0  0  0  0
 13 38  1  0  0  0  0
 14 18  1  0  0  0  0
 14 39  1  0  0  0  0
 14 40  1  0  0  0  0
 15 17  1  0  0  0  0
 15 41  1  0  0  0  0
 15 42  1  0  0  0  0
 16 17  1  0  0  0  0
 16 43  1  0  0  0  0
 16 44  1  0  0  0  0
 17 45  1  0  0  0  0
 17 46  1  0  0  0  0
 18 24  1  0  0  0  0
 18 47  1  0  0  0  0
 19 20  1  0  0  0  0
 19 21  1  0  0  0  0
 19 48  1  0  0  0  0
 20 50  1  0  0  0  0
 20 51  1  0  0  0  0
 22 23  1  0  0  0  0
 22 52  1  0  0  0  0
 22 53  1  0  0  0  0
 23 54  1  0  0  0  0
 23 55  1  0  0  0  0
 25 27  1  0  0  0  0
 27 29  2  0  0  0  0
 28 30  1  0  0  0  0
 28 31  1  0  0  0  0
 28 59  1  0  0  0  0
 29 32  1  0  0  0  0
 29 60  1  0  0  0  0
 30 61  1  0  0  0  0
 30 62  1  0  0  0  0
 30 63  1  0  0  0  0
 31 64  1  0  0  0  0
 31 65  1  0  0  0  0
 31 66  1  0  0  0  0
 32 33  2  0  0  0  0
 32 67  1  0  0  0  0
 33 68  1  0  0  0  0
M  END
> <PUBCHEM_COMPOUND_CID>
7164959

> <PUBCHEM_CONFORMER_RMSD>
1.2

> <PUBCHEM_CONFORMER_DIVERSEORDER>
1
45
49
33
37
19
39
9
44
17
43
5
36
23
13
54
52
30
40
2
25
46
58
60
28
59
24
38
14
35
7
20
6
56
27
21
51
10
4
41
31
18
47
3
57
42
11
34
55
48
29
32
26
16
22
15
50
8
53
12

> <PUBCHEM_MMFF94_PARTIAL_CHARGES>
31
1 -0.08
10 -0.73
18 0.36
19 0.36
2 -0.57
20 0.3
21 0.57
22 0.3
23 0.3
24 0.57
25 0.71
26 0.69
27 -0.05
28 0.3
29 -0.15
3 -0.57
32 -0.15
33 -0.11
4 -0.57
49 0.37
5 -0.57
56 0.37
57 0.37
58 0.37
6 -0.73
60 0.15
67 0.15
68 0.15
7 -0.66
8 -0.66
9 -0.8

> <PUBCHEM_EFFECTIVE_ROTOR_COUNT>
13.4

> <PUBCHEM_PHARMACOPHORE_FEATURES>
11
1 10 donor
1 2 acceptor
1 3 acceptor
1 4 acceptor
1 5 acceptor
1 6 donor
1 9 donor
3 28 30 31 hydrophobe
5 1 27 29 32 33 rings
6 11 12 13 15 16 17 rings
6 7 8 19 20 22 23 rings

> <PUBCHEM_HEAVY_ATOM_COUNT>
33

> <PUBCHEM_ATOM_DEF_STEREO_COUNT>
2

> <PUBCHEM_ATOM_UDEF_STEREO_COUNT>
0

> <PUBCHEM_BOND_DEF_STEREO_COUNT>
0

> <PUBCHEM_BOND_UDEF_STEREO_COUNT>
0

> <PUBCHEM_ISOTOPIC_ATOM_COUNT>
0

> <PUBCHEM_COMPONENT_COUNT>
1

> <PUBCHEM_CACTVS_TAUTO_COUNT>
8

> <PUBCHEM_CONFORMER_ID>
006D541F00000001

> <PUBCHEM_MMFF94_ENERGY>
62.6672

> <PUBCHEM_FEATURE_SELFOVERLAP>
55.822

> <PUBCHEM_SHAPE_FINGERPRINT>
10906281 52 18337407023074445174
10930396 42 18194655255529376528
11456790 92 18262248828369560483
11646440 116 18337681896796860211
12104220 1 18413666907282137500
12293681 4 18335990864629206930
12788726 201 18409164416004099778
13140716 1 18192998338571576774
14028597 1 18113609063128188522
140371 6 18337684095656371286
14068700 675 18410851092178655213
14394314 77 18411984629423540953
14705955 166 18199444659386632736
15183329 4 18334289907229950374
15351339 4 18189035552704911715
15420108 30 17834395614247551937
15927050 60 17907583523651168502
15968369 153 17987789847840328324
17980427 23 17488203645082082387
18681886 176 18199456835514018295
20642791 13 18341052926153355884
20775438 99 16974460333783320495
23559900 14 17907292505193965363
23929065 36 18341599392128491744
24893992 56 18336262445188255599
283562 15 18336826399024119141
392239 28 18412267203067944937
4015057 19 17978784937159460959
5171179 24 17839192813629667462
6004065 56 18268702995135511311
6328613 192 18115591598789014740
653340 110 18269273465391492512
7226269 152 18407758157506224654

> <PUBCHEM_SHAPE_MULTIPOLES>
634.59
13.14
6.94
1.44
12.66
8.5
0.32
-4.42
-1.78
-8.03
4.01
-0.45
-0.23
-1.71

> <PUBCHEM_SHAPE_SELFOVERLAP>
1294.875

> <PUBCHEM_SHAPE_VOLUME>
367.2

> <PUBCHEM_COORDINATE_TYPE>
2
5
10

$$$$
