40780412
  -OEChem-12032416353D

 52 54  0     1  0  0  0  0  0999 V2000
   -5.3629    1.7869    0.8000 O   0  0  0  0  0  0  0  0  0  0  0  0
    7.1245    1.6725    0.2910 O   0  0  0  0  0  0  0  0  0  0  0  0
   -4.5616    0.0401   -0.5051 N   0  0  0  0  0  0  0  0  0  0  0  0
    2.1309   -0.7390    0.2166 N   0  0  0  0  0  0  0  0  0  0  0  0
    1.9784   -1.9740    0.7245 N   0  0  0  0  0  0  0  0  0  0  0  0
   -6.6929   -0.0656    0.3716 N   0  0  0  0  0  0  0  0  0  0  0  0
   -1.4552   -1.0651   -0.4565 C   0  0  2  0  0  0  0  0  0  0  0  0
   -2.1877    0.1057    0.2267 C   0  0  0  0  0  0  0  0  0  0  0  0
   -3.2422    0.5972   -0.7792 C   0  0  1  0  0  0  0  0  0  0  0  0
    0.0074   -1.1518   -0.0862 C   0  0  0  0  0  0  0  0  0  0  0  0
   -1.7197   -0.8000   -1.9098 C   0  0  0  0  0  0  0  0  0  0  0  0
   -2.6965    0.0975   -2.0803 C   0  0  0  0  0  0  0  0  0  0  0  0
    0.9802   -0.2020   -0.2814 C   0  0  0  0  0  0  0  0  0  0  0  0
    0.6792   -2.2207    0.5368 C   0  0  0  0  0  0  0  0  0  0  0  0
    0.9092    1.1434   -0.8871 C   0  0  0  0  0  0  0  0  0  0  0  0
    0.1157   -3.5096    0.9758 C   0  0  0  0  0  0  0  0  0  0  0  0
    3.3875   -0.1330    0.2364 C   0  0  0  0  0  0  0  0  0  0  0  0
   -5.5259    0.6878    0.2715 C   0  0  0  0  0  0  0  0  0  0  0  0
    3.5704    1.0715    0.9160 C   0  0  0  0  0  0  0  0  0  0  0  0
    4.4606   -0.7306   -0.4247 C   0  0  0  0  0  0  0  0  0  0  0  0
   -7.8473    0.3754    1.1186 C   0  0  0  0  0  0  0  0  0  0  0  0
    4.8262    1.6782    0.9343 C   0  0  0  0  0  0  0  0  0  0  0  0
    5.7164   -0.1239   -0.4064 C   0  0  0  0  0  0  0  0  0  0  0  0
    5.8992    1.0805    0.2730 C   0  0  0  0  0  0  0  0  0  0  0  0
   -8.6711    1.3716    0.3294 C   0  0  0  0  0  0  0  0  0  0  0  0
    8.1772    1.0072   -0.4056 C   0  0  0  0  0  0  0  0  0  0  0  0
   -1.9526   -2.0077   -0.1935 H   0  0  0  0  0  0  0  0  0  0  0  0
   -2.6286   -0.2098    1.1802 H   0  0  0  0  0  0  0  0  0  0  0  0
   -1.5074    0.9329    0.4634 H   0  0  0  0  0  0  0  0  0  0  0  0
   -3.3015    1.6905   -0.7640 H   0  0  0  0  0  0  0  0  0  0  0  0
   -1.2127   -1.3026   -2.7216 H   0  0  0  0  0  0  0  0  0  0  0  0
   -3.0637    0.4154   -3.0458 H   0  0  0  0  0  0  0  0  0  0  0  0
   -4.7799   -0.8850   -0.8636 H   0  0  0  0  0  0  0  0  0  0  0  0
    0.8359    1.9122   -0.1113 H   0  0  0  0  0  0  0  0  0  0  0  0
    1.7875    1.3566   -1.5052 H   0  0  0  0  0  0  0  0  0  0  0  0
    0.0429    1.2587   -1.5420 H   0  0  0  0  0  0  0  0  0  0  0  0
   -0.3000   -4.0570    0.1237 H   0  0  0  0  0  0  0  0  0  0  0  0
    0.8723   -4.1475    1.4451 H   0  0  0  0  0  0  0  0  0  0  0  0
   -0.6847   -3.3503    1.7056 H   0  0  0  0  0  0  0  0  0  0  0  0
    2.7516    1.5466    1.4506 H   0  0  0  0  0  0  0  0  0  0  0  0
    4.3338   -1.6670   -0.9629 H   0  0  0  0  0  0  0  0  0  0  0  0
   -6.7404   -0.9586   -0.1092 H   0  0  0  0  0  0  0  0  0  0  0  0
   -8.4443   -0.5110    1.3546 H   0  0  0  0  0  0  0  0  0  0  0  0
   -7.5100    0.8259    2.0581 H   0  0  0  0  0  0  0  0  0  0  0  0
    4.9635    2.6146    1.4680 H   0  0  0  0  0  0  0  0  0  0  0  0
    6.5054   -0.6416   -0.9413 H   0  0  0  0  0  0  0  0  0  0  0  0
   -8.0927    2.2710    0.0947 H   0  0  0  0  0  0  0  0  0  0  0  0
   -9.0085    0.9373   -0.6177 H   0  0  0  0  0  0  0  0  0  0  0  0
   -9.5538    1.6743    0.9011 H   0  0  0  0  0  0  0  0  0  0  0  0
    9.0791    1.6167   -0.2867 H   0  0  0  0  0  0  0  0  0  0  0  0
    7.9726    0.9452   -1.4798 H   0  0  0  0  0  0  0  0  0  0  0  0
    8.3936    0.0273    0.0331 H   0  0  0  0  0  0  0  0  0  0  0  0
  1 18  2  0  0  0  0
  2 24  1  0  0  0  0
  2 26  1  0  0  0  0
  3  9  1  0  0  0  0
  3 18  1  0  0  0  0
  3 33  1  0  0  0  0
  4  5  1  0  0  0  0
  4 13  1  0  0  0  0
  4 17  1  0  0  0  0
  5 14  2  0  0  0  0
  6 18  1  0  0  0  0
  6 21  1  0  0  0  0
  6 42  1  0  0  0  0
  7  8  1  0  0  0  0
  7 10  1  0  0  0  0
  7 11  1  0  0  0  0
  7 27  1  0  0  0  0
  8  9  1  0  0  0  0
  8 28  1  0  0  0  0
  8 29  1  0  0  0  0
  9 12  1  0  0  0  0
  9 30  1  0  0  0  0
 10 13  2  0  0  0  0
 10 14  1  0  0  0  0
 11 12  2  0  0  0  0
 11 31  1  0  0  0  0
 12 32  1  0  0  0  0
 13 15  1  0  0  0  0
 14 16  1  0  0  0  0
 15 34  1  0  0  0  0
 15 35  1  0  0  0  0
 15 36  1  0  0  0  0
 16 37  1  0  0  0  0
 16 38  1  0  0  0  0
 16 39  1  0  0  0  0
 17 19  2  0  0  0  0
 17 20  1  0  0  0  0
 19 22  1  0  0  0  0
 19 40  1  0  0  0  0
 20 23  2  0  0  0  0
 20 41  1  0  0  0  0
 21 25  1  0  0  0  0
 21 43  1  0  0  0  0
 21 44  1  0  0  0  0
 22 24  2  0  0  0  0
 22 45  1  0  0  0  0
 23 24  1  0  0  0  0
 23 46  1  0  0  0  0
 25 47  1  0  0  0  0
 25 48  1  0  0  0  0
 25 49  1  0  0  0  0
 26 50  1  0  0  0  0
 26 51  1  0  0  0  0
 26 52  1  0  0  0  0
M  END
> <PUBCHEM_COMPOUND_CID>
40780412

> <PUBCHEM_CONFORMER_RMSD>
0.8

> <PUBCHEM_CONFORMER_DIVERSEORDER>
1
11
4
45
89
77
48
62
47
92
88
94
95
6
64
29
70
68
69
67
51
37
81
83
72
35
43
40
97
65
13
31
39
10
85
96
61
16
93
34
15
49
75
5
60
3
91
32
2
46
54
76
24
90
87
79
8
38
30
57
53
71
86
42
23
55
73
12
50
56
7
82
44
80
99
9
18
74
17
59
84
33
98
78
101
20
36
14
22
66
63
41
25
27
52
19
100
28
58
21
26

> <PUBCHEM_MMFF94_PARTIAL_CHARGES>
32
1 -0.57
10 -0.18
11 -0.29
12 -0.29
13 -0.33
14 0.11
15 0.18
16 0.18
17 -0.02
18 0.69
19 -0.15
2 -0.36
20 -0.15
21 0.3
22 -0.15
23 -0.15
24 0.08
26 0.28
3 -0.73
31 0.15
32 0.15
33 0.37
4 0.59
40 0.15
41 0.15
42 0.37
45 0.15
46 0.15
5 -0.71
6 -0.73
7 0.32
9 0.44

> <PUBCHEM_EFFECTIVE_ROTOR_COUNT>
7.6

> <PUBCHEM_PHARMACOPHORE_FEATURES>
8
1 1 acceptor
1 2 acceptor
1 3 donor
1 5 acceptor
1 6 donor
5 4 5 10 13 14 rings
5 7 8 9 11 12 rings
6 17 19 20 22 23 24 rings

> <PUBCHEM_HEAVY_ATOM_COUNT>
26

> <PUBCHEM_ATOM_DEF_STEREO_COUNT>
2

> <PUBCHEM_ATOM_UDEF_STEREO_COUNT>
0

> <PUBCHEM_BOND_DEF_STEREO_COUNT>
0

> <PUBCHEM_BOND_UDEF_STEREO_COUNT>
0

> <PUBCHEM_ISOTOPIC_ATOM_COUNT>
0

> <PUBCHEM_COMPONENT_COUNT>
1

> <PUBCHEM_CACTVS_TAUTO_COUNT>
3

> <PUBCHEM_CONFORMER_ID>
026E427C00000001

> <PUBCHEM_MMFF94_ENERGY>
68.923

> <PUBCHEM_FEATURE_SELFOVERLAP>
40.646

> <PUBCHEM_SHAPE_FINGERPRINT>
10 15 17821445767995635977
10162869 55 18187080690309021519
10165383 225 18333733524681859874
10493431 412 18334290980908249847
106641 1 16515686667071506116
10670039 82 15338845231716184651
11135609 127 15769197454240206608
11135609 99 12829502462269961513
11796584 16 15123503740227135982
12236239 1 18131628980765447959
12596602 18 18272373036684830555
12623949 98 12974148637574628552
12730499 353 18334576802439577170
13177829 20 14996283639149562612
13540713 4 17170662295011072879
13540713 5 17098354282762526854
13668630 136 9151170952940602433
13685833 64 8286199452956356601
14849402 71 18337956800073402121
14933364 13 18131071536917953857
15183329 4 15051737486347139611
15188451 53 12107784103465408348
15301273 46 17894631418557139365
15475509 35 16154259487035197378
15690457 1 12252185190487660505
15728490 51 18340486764451276183
1577012 14 17989198248502867791
16992610 120 18261689142464417214
18222031 100 9799691515300325934
18335252 114 17418371376943625769
18608769 82 18334859458621620771
19784866 240 8070025592969318299
19841028 212 8502111650609733632
20505436 4 18130782352644330751
21033648 29 18267857453787494136
21307412 95 11959730511968240421
21424621 283 18413388731061531576
21585482 111 18269277859829832769
21756936 100 18343014527595630663
22079108 93 18407758144837477179
22224240 67 18113618993393295667
22956985 138 16300618726598280978
23559900 14 13829834860192709682
23576562 1 13613654398524413905
249057 3 16415477173015837368
3004659 81 12895070726170139562
3009799 131 12175619577269170806
3014063 24 10953733400427664408
3178227 256 17967534579564844388
3633792 109 15482676793158019924
4093350 32 17846501405190159462
4339292 15 9727370026346855584
4340502 62 18333454227359433787
5104073 3 17605262983451665617
5385378 56 18261388919533985666
54076057 127 18201166468483650663
5758199 1 18408605859717709307
59682541 35 17385728023291746385
59755656 520 18336820974670848118
9689198 14 18202570570632986861
9953998 17 17967255317271348755

> <PUBCHEM_SHAPE_MULTIPOLES>
503.41
21.52
2.19
1.25
14.78
1.75
-0.5
-15.58
4.78
-0.97
0.84
0.93
0.07
-0.24

> <PUBCHEM_SHAPE_SELFOVERLAP>
1067.527

> <PUBCHEM_SHAPE_VOLUME>
285.3

> <PUBCHEM_COORDINATE_TYPE>
2
5
10

$$$$
