44716323
  -OEChem-12032416293D

 64 68  0     1  0  0  0  0  0999 V2000
   -0.5070    3.3502   -0.6621 O   0  0  0  0  0  0  0  0  0  0  0  0
   -4.6258   -0.4715    0.5687 N   0  0  2  0  0  0  0  0  0  0  0  0
   -0.5865   -2.9871    0.6244 N   0  0  0  0  0  0  0  0  0  0  0  0
   -3.3394    3.0432    0.0510 N   0  0  0  0  0  0  0  0  0  0  0  0
    0.7480   -2.8609    0.7196 N   0  0  0  0  0  0  0  0  0  0  0  0
    6.2483    0.2859   -0.3255 N   0  0  0  0  0  0  0  0  0  0  0  0
   -3.2156   -1.1460   -1.5144 C   0  0  2  0  0  0  0  0  0  0  0  0
   -2.6971   -1.8788   -0.2461 C   0  0  2  0  0  0  0  0  0  0  0  0
   -4.1825    0.7457   -0.1607 C   0  0  2  0  0  0  0  0  0  0  0  0
   -3.1781    0.3780   -1.2741 C   0  0  0  0  0  0  0  0  0  0  0  0
   -4.6982   -1.5423   -1.6826 C   0  0  0  0  0  0  0  0  0  0  0  0
   -3.4479   -1.2773    0.9762 C   0  0  0  0  0  0  0  0  0  0  0  0
   -5.4442   -1.2858   -0.3615 C   0  0  0  0  0  0  0  0  0  0  0  0
   -3.6254    1.8176    0.7785 C   0  0  0  0  0  0  0  0  0  0  0  0
   -1.1934   -1.9505   -0.0219 C   0  0  0  0  0  0  0  0  0  0  0  0
   -0.1858   -1.0860   -0.3737 C   0  0  0  0  0  0  0  0  0  0  0  0
    0.9870   -1.6977    0.1080 C   0  0  0  0  0  0  0  0  0  0  0  0
   -2.3943    3.8779    0.7823 C   0  0  0  0  0  0  0  0  0  0  0  0
   -1.2273   -4.1518    1.1899 C   0  0  0  0  0  0  0  0  0  0  0  0
    2.3302   -1.1917   -0.0032 C   0  0  0  0  0  0  0  0  0  0  0  0
   -0.9765    3.4005    0.6122 C   0  0  0  0  0  0  0  0  0  0  0  0
    2.6877   -0.3939   -1.0902 C   0  0  0  0  0  0  0  0  0  0  0  0
    3.2742   -1.4988    0.9768 C   0  0  0  0  0  0  0  0  0  0  0  0
   -0.0104    2.9869    1.4998 C   0  0  0  0  0  0  0  0  0  0  0  0
    3.9889    0.0966   -1.1973 C   0  0  0  0  0  0  0  0  0  0  0  0
    4.5755   -1.0083    0.8697 C   0  0  0  0  0  0  0  0  0  0  0  0
    4.9329   -0.2106   -0.2173 C   0  0  0  0  0  0  0  0  0  0  0  0
    1.1256    2.6617    0.7207 C   0  0  0  0  0  0  0  0  0  0  0  0
    0.7728    2.8997   -0.5874 C   0  0  0  0  0  0  0  0  0  0  0  0
    7.2349   -0.0209    0.6912 C   0  0  0  0  0  0  0  0  0  0  0  0
    6.6294    1.1163   -1.4508 C   0  0  0  0  0  0  0  0  0  0  0  0
   -2.6346   -1.4160   -2.4025 H   0  0  0  0  0  0  0  0  0  0  0  0
   -3.0328   -2.9210   -0.3561 H   0  0  0  0  0  0  0  0  0  0  0  0
   -5.0736    1.1863   -0.6330 H   0  0  0  0  0  0  0  0  0  0  0  0
   -3.4627    0.8953   -2.1993 H   0  0  0  0  0  0  0  0  0  0  0  0
   -2.1699    0.7141   -1.0299 H   0  0  0  0  0  0  0  0  0  0  0  0
   -5.1506   -0.9578   -2.4929 H   0  0  0  0  0  0  0  0  0  0  0  0
   -4.7834   -2.5997   -1.9591 H   0  0  0  0  0  0  0  0  0  0  0  0
   -2.7780   -0.6869    1.6114 H   0  0  0  0  0  0  0  0  0  0  0  0
   -3.7906   -2.0958    1.6232 H   0  0  0  0  0  0  0  0  0  0  0  0
   -6.3967   -0.7806   -0.5635 H   0  0  0  0  0  0  0  0  0  0  0  0
   -5.7122   -2.2375    0.1149 H   0  0  0  0  0  0  0  0  0  0  0  0
   -4.3475    2.0296    1.5773 H   0  0  0  0  0  0  0  0  0  0  0  0
   -2.7217    1.4355    1.2660 H   0  0  0  0  0  0  0  0  0  0  0  0
   -0.2732   -0.1525   -0.9063 H   0  0  0  0  0  0  0  0  0  0  0  0
   -4.2100    3.5535   -0.0956 H   0  0  0  0  0  0  0  0  0  0  0  0
   -2.4453    4.8952    0.3753 H   0  0  0  0  0  0  0  0  0  0  0  0
   -2.6576    3.9546    1.8441 H   0  0  0  0  0  0  0  0  0  0  0  0
   -2.0071   -3.8246    1.8810 H   0  0  0  0  0  0  0  0  0  0  0  0
   -1.6487   -4.7444    0.3745 H   0  0  0  0  0  0  0  0  0  0  0  0
   -0.4873   -4.7462    1.7328 H   0  0  0  0  0  0  0  0  0  0  0  0
    1.9774   -0.1461   -1.8751 H   0  0  0  0  0  0  0  0  0  0  0  0
    3.0228   -2.1107    1.8398 H   0  0  0  0  0  0  0  0  0  0  0  0
   -0.1107    2.9254    2.5739 H   0  0  0  0  0  0  0  0  0  0  0  0
    4.2177    0.7114   -2.0622 H   0  0  0  0  0  0  0  0  0  0  0  0
    5.2724   -1.2735    1.6586 H   0  0  0  0  0  0  0  0  0  0  0  0
    2.0816    2.2983    1.0690 H   0  0  0  0  0  0  0  0  0  0  0  0
    1.2899    2.8025   -1.5307 H   0  0  0  0  0  0  0  0  0  0  0  0
    6.9282    0.3652    1.6697 H   0  0  0  0  0  0  0  0  0  0  0  0
    7.4095   -1.1004    0.7603 H   0  0  0  0  0  0  0  0  0  0  0  0
    8.2045    0.4370    0.4659 H   0  0  0  0  0  0  0  0  0  0  0  0
    6.5139    0.5772   -2.3977 H   0  0  0  0  0  0  0  0  0  0  0  0
    6.0398    2.0394   -1.4791 H   0  0  0  0  0  0  0  0  0  0  0  0
    7.6806    1.4199   -1.3924 H   0  0  0  0  0  0  0  0  0  0  0  0
  1 21  1  0  0  0  0
  1 29  1  0  0  0  0
  2  9  1  0  0  0  0
  2 12  1  0  0  0  0
  2 13  1  0  0  0  0
  3  5  1  0  0  0  0
  3 15  1  0  0  0  0
  3 19  1  0  0  0  0
  4 14  1  0  0  0  0
  4 18  1  0  0  0  0
  4 46  1  0  0  0  0
  5 17  2  0  0  0  0
  6 27  1  0  0  0  0
  6 30  1  0  0  0  0
  6 31  1  0  0  0  0
  7  8  1  0  0  0  0
  7 10  1  0  0  0  0
  7 11  1  0  0  0  0
  7 32  1  0  0  0  0
  8 12  1  0  0  0  0
  8 15  1  0  0  0  0
  8 33  1  0  0  0  0
  9 10  1  0  0  0  0
  9 14  1  0  0  0  0
  9 34  1  0  0  0  0
 10 35  1  0  0  0  0
 10 36  1  0  0  0  0
 11 13  1  0  0  0  0
 11 37  1  0  0  0  0
 11 38  1  0  0  0  0
 12 39  1  0  0  0  0
 12 40  1  0  0  0  0
 13 41  1  0  0  0  0
 13 42  1  0  0  0  0
 14 43  1  0  0  0  0
 14 44  1  0  0  0  0
 15 16  2  0  0  0  0
 16 17  1  0  0  0  0
 16 45  1  0  0  0  0
 17 20  1  0  0  0  0
 18 21  1  0  0  0  0
 18 47  1  0  0  0  0
 18 48  1  0  0  0  0
 19 49  1  0  0  0  0
 19 50  1  0  0  0  0
 19 51  1  0  0  0  0
 20 22  2  0  0  0  0
 20 23  1  0  0  0  0
 21 24  2  0  0  0  0
 22 25  1  0  0  0  0
 22 52  1  0  0  0  0
 23 26  2  0  0  0  0
 23 53  1  0  0  0  0
 24 28  1  0  0  0  0
 24 54  1  0  0  0  0
 25 27  2  0  0  0  0
 25 55  1  0  0  0  0
 26 27  1  0  0  0  0
 26 56  1  0  0  0  0
 28 29  2  0  0  0  0
 28 57  1  0  0  0  0
 29 58  1  0  0  0  0
 30 59  1  0  0  0  0
 30 60  1  0  0  0  0
 30 61  1  0  0  0  0
 31 62  1  0  0  0  0
 31 63  1  0  0  0  0
 31 64  1  0  0  0  0
M  END
> <PUBCHEM_COMPOUND_CID>
44716323

> <PUBCHEM_CONFORMER_RMSD>
1

> <PUBCHEM_CONFORMER_DIVERSEORDER>
1
23
8
3
36
9
37
35
31
33
30
28
32
38
16
18
15
19
14
25
2
11
27
34
20
17
7
29
24
10
12
4
21
13
22
5
26
6

> <PUBCHEM_MMFF94_PARTIAL_CHARGES>
37
1 -0.28
12 0.27
13 0.27
14 0.27
15 -0.33
16 -0.15
17 0.23
18 0.45
19 0.26
2 -0.81
20 0.05
21 -0.04
22 -0.15
23 -0.15
24 -0.15
25 -0.15
26 -0.15
27 0.1
28 -0.15
29 -0.01
3 0.31
30 0.37
31 0.37
4 -0.9
45 0.15
46 0.36
5 -0.71
52 0.15
53 0.15
54 0.15
55 0.15
56 0.15
57 0.15
58 0.15
6 -0.84
8 0.18
9 0.27

> <PUBCHEM_EFFECTIVE_ROTOR_COUNT>
8.2

> <PUBCHEM_PHARMACOPHORE_FEATURES>
10
1 1 acceptor
1 2 cation
1 4 cation
1 4 donor
1 5 acceptor
1 6 cation
5 1 21 24 28 29 rings
5 3 5 15 16 17 rings
6 20 22 23 25 26 27 rings
8 2 7 8 9 10 11 12 13 rings

> <PUBCHEM_HEAVY_ATOM_COUNT>
31

> <PUBCHEM_ATOM_DEF_STEREO_COUNT>
3

> <PUBCHEM_ATOM_UDEF_STEREO_COUNT>
0

> <PUBCHEM_BOND_DEF_STEREO_COUNT>
0

> <PUBCHEM_BOND_UDEF_STEREO_COUNT>
0

> <PUBCHEM_ISOTOPIC_ATOM_COUNT>
0

> <PUBCHEM_COMPONENT_COUNT>
1

> <PUBCHEM_CACTVS_TAUTO_COUNT>
1

> <PUBCHEM_CONFORMER_ID>
02AA512300000001

> <PUBCHEM_MMFF94_ENERGY>
79.5659

> <PUBCHEM_FEATURE_SELFOVERLAP>
50.747

> <PUBCHEM_SHAPE_FINGERPRINT>
10006869 2 17908422451560939417
10087517 78 18341889693251874076
10454371 7 18272381858722359836
10670039 82 18338241471032496542
10864689 126 17983579607258668440
10871710 139 18340207388963934905
1100329 8 18336833107562549401
11135609 187 17977940186535098549
11513181 2 18128821845843995862
11646440 116 18340211885430853034
12107698 1 18130219458614479359
12293681 4 18339367456179607142
12788726 201 18412261714573903210
12838862 33 18339347562382014257
13122387 1 16032950828656373209
13911987 19 18334565854873947135
14114211 80 17556586448681780561
14251757 5 18409171043117298114
14394314 77 18411705352958889689
14464042 87 18407760344245601420
14765038 42 17986691280625167289
14790565 3 18336271158822103556
14931854 50 18409163311859674367
15297060 5 18058736779902710056
15968369 153 17916298515154423400
18336668 15 18333452062089411357
19319366 153 18118685414304390803
19930381 70 17979066412874052275
20511986 3 17969779670655885808
20642791 178 18188226346348657085
20721686 56 18267300022276366529
20764821 26 18119820350331599289
20775438 99 17047917567231272927
21033650 10 18199490804151341238
21236236 1 18341613677257808852
21344244 246 17695607934382881127
21641784 216 18334306348929074052
21796203 349 18049198645560900225
24893992 56 18335418024357873123
3052486 1 18338504240999423880
392239 28 18341052939001834560
463206 1 18269560605815312001
469060 322 18187939330531649389
484989 97 18045499974908908951
5047190 69 18343010100502493096
5171179 24 17916571163477417248
6036956 94 18261963942071426565
6608658 132 18341884208315263879
7226269 152 18408884057855945086

> <PUBCHEM_SHAPE_MULTIPOLES>
607.19
13.16
4.84
1.36
18.66
2.93
-0.22
-1.17
-2.77
-3.9
1.85
-0.04
-0.09
-1.3

> <PUBCHEM_SHAPE_SELFOVERLAP>
1311.037

> <PUBCHEM_SHAPE_VOLUME>
333.9

> <PUBCHEM_COORDINATE_TYPE>
2
5
10

$$$$
