40777256
  -OEChem-12032416173D

 60 64  0     1  0  0  0  0  0999 V2000
   -2.2044   -2.7164    0.4458 Br  0  0  0  0  0  0  0  0  0  0  0  0
    2.0528   -5.5618    0.3932 Cl  0  0  0  0  0  0  0  0  0  0  0  0
    4.9488   -0.0402   -0.3432 S   0  0  0  0  0  0  0  0  0  0  0  0
    5.6851    0.2444    0.8737 O   0  0  0  0  0  0  0  0  0  0  0  0
    5.6385   -0.0903   -1.6181 O   0  0  0  0  0  0  0  0  0  0  0  0
    1.2045    2.7979    1.8331 N   0  0  2  0  0  0  0  0  0  0  0  0
    3.6292    1.0296   -0.4651 N   0  0  0  0  0  0  0  0  0  0  0  0
   -1.5292    1.7735   -1.6738 N   0  0  0  0  0  0  0  0  0  0  0  0
   -3.1920    0.0343   -1.8072 N   0  0  0  0  0  0  0  0  0  0  0  0
    0.0919    3.7210   -0.3332 C   0  0  2  0  0  0  0  0  0  0  0  0
   -0.9034    2.8185    0.4472 C   0  0  2  0  0  0  0  0  0  0  0  0
    2.0949    2.5650    0.6655 C   0  0  2  0  0  0  0  0  0  0  0  0
    1.3692    2.9154   -0.6513 C   0  0  0  0  0  0  0  0  0  0  0  0
    0.5016    4.8620    0.6225 C   0  0  0  0  0  0  0  0  0  0  0  0
   -0.1111    2.1494    1.6066 C   0  0  0  0  0  0  0  0  0  0  0  0
    0.9855    4.2593    1.9530 C   0  0  0  0  0  0  0  0  0  0  0  0
    2.6656    1.1454    0.6418 C   0  0  0  0  0  0  0  0  0  0  0  0
   -1.7323    1.8141   -0.3407 C   0  0  0  0  0  0  0  0  0  0  0  0
   -2.6350    1.0081    0.3223 C   0  0  0  0  0  0  0  0  0  0  0  0
   -3.3442    0.1283   -0.4699 C   0  0  0  0  0  0  0  0  0  0  0  0
   -2.2815    0.8739   -2.3359 C   0  0  0  0  0  0  0  0  0  0  0  0
    4.1339   -1.5951   -0.1357 C   0  0  0  0  0  0  0  0  0  0  0  0
   -4.3203   -0.7686    0.1013 C   0  0  0  0  0  0  0  0  0  0  0  0
   -2.0867    0.8008   -3.8126 C   0  0  0  0  0  0  0  0  0  0  0  0
    3.7992   -2.3614   -1.2523 C   0  0  0  0  0  0  0  0  0  0  0  0
    3.8249   -2.0555    1.1441 C   0  0  0  0  0  0  0  0  0  0  0  0
   -3.9798   -2.0450    0.5487 C   0  0  0  0  0  0  0  0  0  0  0  0
   -5.6387   -0.3238    0.1993 C   0  0  0  0  0  0  0  0  0  0  0  0
    3.1555   -3.5880   -1.0888 C   0  0  0  0  0  0  0  0  0  0  0  0
    3.1813   -3.2820    1.3076 C   0  0  0  0  0  0  0  0  0  0  0  0
   -4.9577   -2.8768    1.0941 C   0  0  0  0  0  0  0  0  0  0  0  0
   -6.6167   -1.1556    0.7447 C   0  0  0  0  0  0  0  0  0  0  0  0
    2.8466   -4.0483    0.1913 C   0  0  0  0  0  0  0  0  0  0  0  0
   -6.2762   -2.4321    1.1921 C   0  0  0  0  0  0  0  0  0  0  0  0
   -0.3527    4.1289   -1.2471 H   0  0  0  0  0  0  0  0  0  0  0  0
   -1.6473    3.4951    0.8961 H   0  0  0  0  0  0  0  0  0  0  0  0
    2.9597    3.2382    0.7650 H   0  0  0  0  0  0  0  0  0  0  0  0
    1.1051    2.0177   -1.2213 H   0  0  0  0  0  0  0  0  0  0  0  0
    2.0330    3.5156   -1.2860 H   0  0  0  0  0  0  0  0  0  0  0  0
   -0.3466    5.5323    0.8043 H   0  0  0  0  0  0  0  0  0  0  0  0
    1.2982    5.4625    0.1665 H   0  0  0  0  0  0  0  0  0  0  0  0
   -0.7012    2.2160    2.5306 H   0  0  0  0  0  0  0  0  0  0  0  0
    0.0273    1.0749    1.4397 H   0  0  0  0  0  0  0  0  0  0  0  0
    1.9126    4.7525    2.2700 H   0  0  0  0  0  0  0  0  0  0  0  0
    0.2580    4.4620    2.7493 H   0  0  0  0  0  0  0  0  0  0  0  0
    1.8812    0.3973    0.4902 H   0  0  0  0  0  0  0  0  0  0  0  0
    3.1604    0.9402    1.5971 H   0  0  0  0  0  0  0  0  0  0  0  0
    3.2628    1.2233   -1.4052 H   0  0  0  0  0  0  0  0  0  0  0  0
   -2.7825    1.0664    1.3943 H   0  0  0  0  0  0  0  0  0  0  0  0
   -2.8327    1.4236   -4.3148 H   0  0  0  0  0  0  0  0  0  0  0  0
   -1.0893    1.1537   -4.0934 H   0  0  0  0  0  0  0  0  0  0  0  0
   -2.1935   -0.2298   -4.1653 H   0  0  0  0  0  0  0  0  0  0  0  0
    4.0234   -2.0187   -2.2585 H   0  0  0  0  0  0  0  0  0  0  0  0
    4.0734   -1.4738    2.0272 H   0  0  0  0  0  0  0  0  0  0  0  0
   -5.9240    0.6679   -0.1445 H   0  0  0  0  0  0  0  0  0  0  0  0
    2.8990   -4.1738   -1.9678 H   0  0  0  0  0  0  0  0  0  0  0  0
    2.9458   -3.6277    2.3109 H   0  0  0  0  0  0  0  0  0  0  0  0
   -4.7127   -3.8749    1.4484 H   0  0  0  0  0  0  0  0  0  0  0  0
   -7.6433   -0.8095    0.8208 H   0  0  0  0  0  0  0  0  0  0  0  0
   -7.0378   -3.0796    1.6167 H   0  0  0  0  0  0  0  0  0  0  0  0
  1 27  1  0  0  0  0
  2 33  1  0  0  0  0
  3  4  2  0  0  0  0
  3  5  2  0  0  0  0
  3  7  1  0  0  0  0
  3 22  1  0  0  0  0
  6 12  1  0  0  0  0
  6 15  1  0  0  0  0
  6 16  1  0  0  0  0
  7 17  1  0  0  0  0
  7 48  1  0  0  0  0
  8 18  2  0  0  0  0
  8 21  1  0  0  0  0
  9 20  1  0  0  0  0
  9 21  2  0  0  0  0
 10 11  1  0  0  0  0
 10 13  1  0  0  0  0
 10 14  1  0  0  0  0
 10 35  1  0  0  0  0
 11 15  1  0  0  0  0
 11 18  1  0  0  0  0
 11 36  1  0  0  0  0
 12 13  1  0  0  0  0
 12 17  1  0  0  0  0
 12 37  1  0  0  0  0
 13 38  1  0  0  0  0
 13 39  1  0  0  0  0
 14 16  1  0  0  0  0
 14 40  1  0  0  0  0
 14 41  1  0  0  0  0
 15 42  1  0  0  0  0
 15 43  1  0  0  0  0
 16 44  1  0  0  0  0
 16 45  1  0  0  0  0
 17 46  1  0  0  0  0
 17 47  1  0  0  0  0
 18 19  1  0  0  0  0
 19 20  2  0  0  0  0
 19 49  1  0  0  0  0
 20 23  1  0  0  0  0
 21 24  1  0  0  0  0
 22 25  2  0  0  0  0
 22 26  1  0  0  0  0
 23 27  1  0  0  0  0
 23 28  2  0  0  0  0
 24 50  1  0  0  0  0
 24 51  1  0  0  0  0
 24 52  1  0  0  0  0
 25 29  1  0  0  0  0
 25 53  1  0  0  0  0
 26 30  2  0  0  0  0
 26 54  1  0  0  0  0
 27 31  2  0  0  0  0
 28 32  1  0  0  0  0
 28 55  1  0  0  0  0
 29 33  2  0  0  0  0
 29 56  1  0  0  0  0
 30 33  1  0  0  0  0
 30 57  1  0  0  0  0
 31 34  1  0  0  0  0
 31 58  1  0  0  0  0
 32 34  2  0  0  0  0
 32 59  1  0  0  0  0
 34 60  1  0  0  0  0
M  END
> <PUBCHEM_COMPOUND_CID>
40777256

> <PUBCHEM_CONFORMER_RMSD>
1

> <PUBCHEM_CONFORMER_DIVERSEORDER>
1
63
277
173
36
140
270
22
260
143
293
241
152
188
279
274
225
93
192
207
272
147
316
148
221
18
187
298
197
124
184
193
131
312
210
97
203
88
284
110
302
12
300
242
48
73
4
17
301
172
116
313
13
220
201
196
122
139
166
218
126
80
153
227
287
146
258
151
317
228
253
181
87
233
289
259
290
123
199
294
177
238
171
237
256
157
170
138
230
89
254
59
265
200
209
115
55
156
149
216
318
232
222
308
311
84
92
281
175
45
135
296
163
205
278
243
101
132
292
24
251
240
297
167
239
28
282
74
31
42
310
269
189
158
217
190
91
114
295
120
109
64
275
128
83
105
319
264
52
215
56
90
47
179
266
198
32
100
34
219
224
245
155
99
76
186
303
112
41
280
168
291
79
81
180
29
195
154
273
164
208
111
212
67
305
202
246
78
252
27
174
283
248
104
125
46
261
144
235
98
191
161
226
134
133
68
315
306
267
71
182
65
25
304
309
137
60
5
8
54
236
263
77
169
69
141
247
44
61
162
299
49
82
102
43
257
249
14
234
145
129
108
194
150
62
286
176
121
85
136
94
314
183
16
57
103
178
285
204
10
72
255
307
288
206
159
53
271
66
160
11
9
185
20
214
15
107
118
40
231
3
119
7
127
250
70
320
96
21
6
268
229
35
142
86
165
19
51
117
276
39
113
58
106
213
262
130
95
223
2
37
211
50
244
38
23
75
33
26
30

> <PUBCHEM_MMFF94_PARTIAL_CHARGES>
40
1 -0.11
11 0.14
12 0.27
15 0.27
16 0.27
17 0.36
18 0.17
19 -0.15
2 -0.18
20 0.31
21 0.48
22 -0.01
24 0.14
25 -0.15
26 -0.15
27 0.11
28 -0.15
29 -0.15
3 1.45
30 -0.15
31 -0.15
32 -0.15
33 0.18
34 -0.15
4 -0.65
48 0.42
49 0.15
5 -0.65
53 0.15
54 0.15
55 0.15
56 0.15
57 0.15
58 0.15
59 0.15
6 -0.81
60 0.15
7 -0.91
8 -0.62
9 -0.62

> <PUBCHEM_EFFECTIVE_ROTOR_COUNT>
7.2

> <PUBCHEM_PHARMACOPHORE_FEATURES>
11
1 1 hydrophobe
1 4 acceptor
1 5 acceptor
1 6 cation
1 7 donor
1 8 acceptor
3 8 9 21 cation
6 22 25 26 29 30 33 rings
6 23 27 28 31 32 34 rings
6 8 9 18 19 20 21 rings
8 6 10 11 12 13 14 15 16 rings

> <PUBCHEM_HEAVY_ATOM_COUNT>
34

> <PUBCHEM_ATOM_DEF_STEREO_COUNT>
3

> <PUBCHEM_ATOM_UDEF_STEREO_COUNT>
0

> <PUBCHEM_BOND_DEF_STEREO_COUNT>
0

> <PUBCHEM_BOND_UDEF_STEREO_COUNT>
0

> <PUBCHEM_ISOTOPIC_ATOM_COUNT>
0

> <PUBCHEM_COMPONENT_COUNT>
1

> <PUBCHEM_CACTVS_TAUTO_COUNT>
1

> <PUBCHEM_CONFORMER_ID>
026E362800000001

> <PUBCHEM_MMFF94_ENERGY>
83.9713

> <PUBCHEM_FEATURE_SELFOVERLAP>
55.839

> <PUBCHEM_SHAPE_FINGERPRINT>
10928967 22 18058717018953691246
12106331 60 18268132177592963242
12107183 9 18271261443451786081
12128747 34 18411702115033004985
12422481 6 17203057266298162261
12522641 24 18199200662542843179
12623949 98 18044380659027961203
12633257 1 15482669108523212737
12655387 17 18051708642298210361
13383668 262 15871138868173501435
13402501 40 18334858371784080306
13631057 29 18340496560986464956
14040222 380 18056219074491140775
14092694 8 17023191474825097924
15320291 9 17618212910586234647
15475509 35 18266749163330986441
15538507 32 18266187317564546740
17909252 39 18340485561269408394
19311894 1 17040073139808494259
19315092 285 17458894938995174730
20764821 26 18196633297953310214
20775530 9 18412538803972377148
21315759 227 18262227816629918486
3737641 26 18271527490393681060
42626532 9 17265002505371603758
4394409 98 16454575509904066014
4435113 14 17678471976702020099
44880168 125 16701458944925337462
46194498 28 17677328454111968396
463206 1 18339363075523870890
5309563 4 18412828009774026470
5912855 24 18127419951591795984
613672 6 18196065799486629816
6422251 121 18336266760691541107
86090 222 18188777287151447907
9961470 85 17690266119751833626

> <PUBCHEM_SHAPE_MULTIPOLES>
679.7
12.74
7.13
2.08
7.61
1.11
-1.83
12.36
1.34
-5.17
2.75
0.8
-1.03
2.2

> <PUBCHEM_SHAPE_SELFOVERLAP>
1439.981

> <PUBCHEM_SHAPE_VOLUME>
390.9

> <PUBCHEM_COORDINATE_TYPE>
2
5
10

$$$$
