71693844
  -OEChem-12032416403D

 43 45  0     1  0  0  0  0  0999 V2000
    0.3850    3.5537   -1.1551 O   0  0  0  0  0  0  0  0  0  0  0  0
    2.9769    2.7056   -0.8354 O   0  0  0  0  0  0  0  0  0  0  0  0
   -0.8820   -0.8821   -1.2173 O   0  0  0  0  0  0  0  0  0  0  0  0
   -0.9093    1.0270    0.0997 N   0  0  0  0  0  0  0  0  0  0  0  0
   -4.8509    0.0570    1.1802 N   0  0  0  0  0  0  0  0  0  0  0  0
    1.3583    0.7859    1.0665 C   0  0  2  0  0  0  0  0  0  0  0  0
    0.4811    1.3675   -0.0651 C   0  0  2  0  0  0  0  0  0  0  0  0
    0.7161    2.8736    0.0408 C   0  0  1  0  0  0  0  0  0  0  0  0
    2.4510    1.8506    1.3436 C   0  0  0  0  0  0  0  0  0  0  0  0
    2.2084    2.9709    0.3342 C   0  0  1  0  0  0  0  0  0  0  0  0
    1.8972   -0.5930    0.7490 C   0  0  0  0  0  0  0  0  0  0  0  0
    2.7074   -0.7847   -0.3701 C   0  0  0  0  0  0  0  0  0  0  0  0
    1.5831   -1.6718    1.5758 C   0  0  0  0  0  0  0  0  0  0  0  0
   -1.4826   -0.0865   -0.4997 C   0  0  0  0  0  0  0  0  0  0  0  0
    3.2038   -2.0551   -0.6625 C   0  0  0  0  0  0  0  0  0  0  0  0
    2.0792   -2.9421    1.2833 C   0  0  0  0  0  0  0  0  0  0  0  0
    2.8898   -3.1339    0.1643 C   0  0  0  0  0  0  0  0  0  0  0  0
   -2.9342   -0.2842   -0.2531 C   0  0  0  0  0  0  0  0  0  0  0  0
    4.0698   -2.2605   -1.8594 C   0  0  0  0  0  0  0  0  0  0  0  0
   -3.7307   -0.9618   -1.1694 C   0  0  0  0  0  0  0  0  0  0  0  0
   -3.5371    0.2015    0.8960 C   0  0  0  0  0  0  0  0  0  0  0  0
   -5.0868   -1.1305   -0.9124 C   0  0  0  0  0  0  0  0  0  0  0  0
   -5.5934   -0.6070    0.2662 C   0  0  0  0  0  0  0  0  0  0  0  0
    0.7517    0.7124    1.9813 H   0  0  0  0  0  0  0  0  0  0  0  0
    0.7905    1.0209   -1.0588 H   0  0  0  0  0  0  0  0  0  0  0  0
    0.1330    3.3051    0.8643 H   0  0  0  0  0  0  0  0  0  0  0  0
    2.3020    2.2419    2.3579 H   0  0  0  0  0  0  0  0  0  0  0  0
    3.4681    1.4481    1.2903 H   0  0  0  0  0  0  0  0  0  0  0  0
    2.4950    3.9579    0.7093 H   0  0  0  0  0  0  0  0  0  0  0  0
   -1.4724    1.6497    0.6688 H   0  0  0  0  0  0  0  0  0  0  0  0
    0.6484    4.4832   -1.0448 H   0  0  0  0  0  0  0  0  0  0  0  0
    3.9152    2.7411   -0.5826 H   0  0  0  0  0  0  0  0  0  0  0  0
    2.9604    0.0472   -1.0209 H   0  0  0  0  0  0  0  0  0  0  0  0
    0.9522   -1.5394    2.4506 H   0  0  0  0  0  0  0  0  0  0  0  0
    1.8339   -3.7822    1.9264 H   0  0  0  0  0  0  0  0  0  0  0  0
    3.2683   -4.1290   -0.0534 H   0  0  0  0  0  0  0  0  0  0  0  0
    3.4509   -2.4345   -2.7452 H   0  0  0  0  0  0  0  0  0  0  0  0
    4.7049   -1.3863   -2.0390 H   0  0  0  0  0  0  0  0  0  0  0  0
    4.7370   -3.1188   -1.7254 H   0  0  0  0  0  0  0  0  0  0  0  0
   -3.3132   -1.3609   -2.0897 H   0  0  0  0  0  0  0  0  0  0  0  0
   -2.9860    0.7148    1.6767 H   0  0  0  0  0  0  0  0  0  0  0  0
   -5.7272   -1.6543   -1.6127 H   0  0  0  0  0  0  0  0  0  0  0  0
   -6.6447   -0.7116    0.5135 H   0  0  0  0  0  0  0  0  0  0  0  0
  1  8  1  0  0  0  0
  1 31  1  0  0  0  0
  2 10  1  0  0  0  0
  2 32  1  0  0  0  0
  3 14  2  0  0  0  0
  4  7  1  0  0  0  0
  4 14  1  0  0  0  0
  4 30  1  0  0  0  0
  5 21  1  0  0  0  0
  5 23  2  0  0  0  0
  6  7  1  0  0  0  0
  6  9  1  0  0  0  0
  6 11  1  0  0  0  0
  6 24  1  0  0  0  0
  7  8  1  0  0  0  0
  7 25  1  0  0  0  0
  8 10  1  0  0  0  0
  8 26  1  0  0  0  0
  9 10  1  0  0  0  0
  9 27  1  0  0  0  0
  9 28  1  0  0  0  0
 10 29  1  0  0  0  0
 11 12  1  0  0  0  0
 11 13  2  0  0  0  0
 12 15  2  0  0  0  0
 12 33  1  0  0  0  0
 13 16  1  0  0  0  0
 13 34  1  0  0  0  0
 14 18  1  0  0  0  0
 15 17  1  0  0  0  0
 15 19  1  0  0  0  0
 16 17  2  0  0  0  0
 16 35  1  0  0  0  0
 17 36  1  0  0  0  0
 18 20  1  0  0  0  0
 18 21  2  0  0  0  0
 19 37  1  0  0  0  0
 19 38  1  0  0  0  0
 19 39  1  0  0  0  0
 20 22  2  0  0  0  0
 20 40  1  0  0  0  0
 21 41  1  0  0  0  0
 22 23  1  0  0  0  0
 22 42  1  0  0  0  0
 23 43  1  0  0  0  0
M  END
> <PUBCHEM_COMPOUND_CID>
71693844

> <PUBCHEM_CONFORMER_RMSD>
0.8

> <PUBCHEM_CONFORMER_DIVERSEORDER>
1
51
32
13
9
23
53
38
55
20
54
41
4
37
30
43
34
42
39
3
22
31
49
24
46
29
35
33
15
10
45
6
2
25
48
50
18
36
5
26
44
11
40
16
52
27
47
19
21
12
28
17
7
14
8

> <PUBCHEM_MMFF94_PARTIAL_CHARGES>
33
1 -0.68
10 0.28
11 -0.14
12 -0.15
13 -0.15
14 0.54
15 -0.14
16 -0.15
17 -0.15
18 0.09
19 0.14
2 -0.68
20 -0.15
21 0.16
22 -0.15
23 0.16
3 -0.57
30 0.37
31 0.4
32 0.4
33 0.15
34 0.15
35 0.15
36 0.15
4 -0.73
40 0.15
41 0.15
42 0.15
43 0.15
5 -0.62
6 0.14
7 0.3
8 0.28

> <PUBCHEM_EFFECTIVE_ROTOR_COUNT>
5

> <PUBCHEM_PHARMACOPHORE_FEATURES>
10
1 1 acceptor
1 1 donor
1 2 acceptor
1 2 donor
1 3 acceptor
1 4 donor
1 5 acceptor
5 6 7 8 9 10 rings
6 11 12 13 15 16 17 rings
6 5 18 20 21 22 23 rings

> <PUBCHEM_HEAVY_ATOM_COUNT>
23

> <PUBCHEM_ATOM_DEF_STEREO_COUNT>
4

> <PUBCHEM_ATOM_UDEF_STEREO_COUNT>
0

> <PUBCHEM_BOND_DEF_STEREO_COUNT>
0

> <PUBCHEM_BOND_UDEF_STEREO_COUNT>
0

> <PUBCHEM_ISOTOPIC_ATOM_COUNT>
0

> <PUBCHEM_COMPONENT_COUNT>
1

> <PUBCHEM_CACTVS_TAUTO_COUNT>
2

> <PUBCHEM_CONFORMER_ID>
0445F61400000001

> <PUBCHEM_MMFF94_ENERGY>
68.3843

> <PUBCHEM_FEATURE_SELFOVERLAP>
50.758

> <PUBCHEM_SHAPE_FINGERPRINT>
10382601 240 18268691944342173650
11140007 195 16916789517885176223
11578080 2 17823401722151984196
12107183 9 18127700318883305609
12403259 327 14836110044663121470
12553582 1 18339355245566667403
12617007 42 18201728318867084430
12788726 201 17758120293510523298
13009979 54 17703523094577499947
13533116 47 18271804679415393787
14178342 30 17839721987769400579
14251757 5 17830734249154403029
14251764 30 17986962842733163934
14767858 380 18262539017560705470
14863182 85 18338508759542525608
17492 54 18188789339578259876
17492 89 18271804674962567335
17818456 19 17845097281802662337
17980427 26 17057499707935286600
1813 80 18270965626550462830
18222031 100 18129933491060168671
20388580 30 18271531918288828414
20645477 70 18337379535293877815
22149856 69 8862367822015964181
22182313 1 18264466443399436749
2255824 54 18410571824804234202
22950370 63 18269564831609775279
23557571 272 15865168265971107237
23559900 14 17918275333834016479
23598288 3 17541388933925844546
23598291 2 18272094889791010697
3060560 45 18118960528097263676
312423 11 18272940427391771177
314173 41 18410858737315458895
3421961 26 18411412899717839315
4409770 3 17471853597950249549
474 4 18192422198420194169
7097593 13 18343012333378668363
7164475 11 17903926552594256830
7364860 26 18342171219499218928
7970288 3 18269272361686183359
8272917 22 18335978783197192693
9841814 1 18335973190791227058

> <PUBCHEM_SHAPE_MULTIPOLES>
445.76
9.2
3.95
1.46
14.66
2.09
0.02
-5.63
0.99
-5.53
0.42
-0.63
-0.48
-0.05

> <PUBCHEM_SHAPE_SELFOVERLAP>
958.611

> <PUBCHEM_SHAPE_VOLUME>
245.1

> <PUBCHEM_COORDINATE_TYPE>
2
5
10

$$$$
