45783558
  -OEChem-12032416203D

 54 56  0     1  0  0  0  0  0999 V2000
    1.7657   -1.7649   -1.7148 O   0  0  0  0  0  0  0  0  0  0  0  0
   -5.1172    0.7042    0.2976 O   0  0  0  0  0  0  0  0  0  0  0  0
   -7.8253    0.2298    0.8232 O   0  0  0  0  0  0  0  0  0  0  0  0
    4.2451   -0.2876    0.3912 N   0  0  2  0  0  0  0  0  0  0  0  0
    1.0777   -0.8200    0.1958 N   0  0  0  0  0  0  0  0  0  0  0  0
    0.3994   -1.5048   -1.8790 N   0  0  0  0  0  0  0  0  0  0  0  0
   -3.5623   -0.2518   -1.1350 N   0  0  0  0  0  0  0  0  0  0  0  0
    3.5352   -1.5035   -0.0384 C   0  0  1  0  0  0  0  0  0  0  0  0
    3.7350   -2.4181    1.1780 C   0  0  0  0  0  0  0  0  0  0  0  0
    3.9507   -0.0778    1.8033 C   0  0  0  0  0  0  0  0  0  0  0  0
    4.0615    0.8975   -0.4259 C   0  0  0  0  0  0  0  0  0  0  0  0
    3.9242   -1.4875    2.3757 C   0  0  0  0  0  0  0  0  0  0  0  0
    5.2102    1.9316   -0.3065 C   0  0  0  0  0  0  0  0  0  0  0  0
    2.0840   -1.3318   -0.4668 C   0  0  0  0  0  0  0  0  0  0  0  0
    4.9807    2.8863    0.8786 C   0  0  0  0  0  0  0  0  0  0  0  0
    6.5266    1.1668   -0.0710 C   0  0  0  0  0  0  0  0  0  0  0  0
    5.3438    2.7536   -1.6007 C   0  0  0  0  0  0  0  0  0  0  0  0
    0.0659   -0.9478   -0.7109 C   0  0  0  0  0  0  0  0  0  0  0  0
   -1.2681   -0.5099   -0.4176 C   0  0  0  0  0  0  0  0  0  0  0  0
   -1.5796    0.0644    0.8098 C   0  0  0  0  0  0  0  0  0  0  0  0
   -2.2862   -0.6443   -1.3477 C   0  0  0  0  0  0  0  0  0  0  0  0
   -2.8813    0.4807    1.0660 C   0  0  0  0  0  0  0  0  0  0  0  0
   -3.8273    0.3020    0.0695 C   0  0  0  0  0  0  0  0  0  0  0  0
   -6.0482    0.4976   -0.7583 C   0  0  0  0  0  0  0  0  0  0  0  0
   -7.4156    0.9798   -0.3139 C   0  0  0  0  0  0  0  0  0  0  0  0
   -9.0949    0.6555    1.2979 C   0  0  0  0  0  0  0  0  0  0  0  0
    4.0739   -1.9387   -0.8904 H   0  0  0  0  0  0  0  0  0  0  0  0
    2.8990   -3.1078    1.3363 H   0  0  0  0  0  0  0  0  0  0  0  0
    4.6434   -3.0206    1.0505 H   0  0  0  0  0  0  0  0  0  0  0  0
    4.7155    0.4916    2.3316 H   0  0  0  0  0  0  0  0  0  0  0  0
    2.9793    0.4075    1.9558 H   0  0  0  0  0  0  0  0  0  0  0  0
    4.0413    0.5702   -1.4750 H   0  0  0  0  0  0  0  0  0  0  0  0
    3.0894    1.3768   -0.2501 H   0  0  0  0  0  0  0  0  0  0  0  0
    4.8636   -1.7262    2.8877 H   0  0  0  0  0  0  0  0  0  0  0  0
    3.1099   -1.6017    3.0990 H   0  0  0  0  0  0  0  0  0  0  0  0
    5.0743    2.4104    1.8544 H   0  0  0  0  0  0  0  0  0  0  0  0
    5.7180    3.6983    0.8650 H   0  0  0  0  0  0  0  0  0  0  0  0
    3.9894    3.3494    0.8209 H   0  0  0  0  0  0  0  0  0  0  0  0
    6.5774    0.6783    0.9071 H   0  0  0  0  0  0  0  0  0  0  0  0
    7.3791    1.8565   -0.1098 H   0  0  0  0  0  0  0  0  0  0  0  0
    6.6942    0.4099   -0.8463 H   0  0  0  0  0  0  0  0  0  0  0  0
    5.5586    2.1093   -2.4606 H   0  0  0  0  0  0  0  0  0  0  0  0
    4.4167    3.2975   -1.8128 H   0  0  0  0  0  0  0  0  0  0  0  0
    6.1537    3.4880   -1.5270 H   0  0  0  0  0  0  0  0  0  0  0  0
   -0.8291    0.2001    1.5844 H   0  0  0  0  0  0  0  0  0  0  0  0
   -2.1264   -1.0817   -2.3288 H   0  0  0  0  0  0  0  0  0  0  0  0
   -3.1409    0.9305    2.0181 H   0  0  0  0  0  0  0  0  0  0  0  0
   -6.1053   -0.5736   -0.9887 H   0  0  0  0  0  0  0  0  0  0  0  0
   -5.7403    1.0558   -1.6503 H   0  0  0  0  0  0  0  0  0  0  0  0
   -7.3630    2.0399   -0.0397 H   0  0  0  0  0  0  0  0  0  0  0  0
   -8.1403    0.8501   -1.1252 H   0  0  0  0  0  0  0  0  0  0  0  0
   -9.0570    1.7043    1.6079 H   0  0  0  0  0  0  0  0  0  0  0  0
   -9.8590    0.5174    0.5268 H   0  0  0  0  0  0  0  0  0  0  0  0
   -9.3605    0.0452    2.1652 H   0  0  0  0  0  0  0  0  0  0  0  0
  1  6  1  0  0  0  0
  1 14  1  0  0  0  0
  2 23  1  0  0  0  0
  2 24  1  0  0  0  0
  3 25  1  0  0  0  0
  3 26  1  0  0  0  0
  4  8  1  0  0  0  0
  4 10  1  0  0  0  0
  4 11  1  0  0  0  0
  5 14  2  0  0  0  0
  5 18  1  0  0  0  0
  6 18  2  0  0  0  0
  7 21  1  0  0  0  0
  7 23  2  0  0  0  0
  8  9  1  0  0  0  0
  8 14  1  0  0  0  0
  8 27  1  0  0  0  0
  9 12  1  0  0  0  0
  9 28  1  0  0  0  0
  9 29  1  0  0  0  0
 10 12  1  0  0  0  0
 10 30  1  0  0  0  0
 10 31  1  0  0  0  0
 11 13  1  0  0  0  0
 11 32  1  0  0  0  0
 11 33  1  0  0  0  0
 12 34  1  0  0  0  0
 12 35  1  0  0  0  0
 13 15  1  0  0  0  0
 13 16  1  0  0  0  0
 13 17  1  0  0  0  0
 15 36  1  0  0  0  0
 15 37  1  0  0  0  0
 15 38  1  0  0  0  0
 16 39  1  0  0  0  0
 16 40  1  0  0  0  0
 16 41  1  0  0  0  0
 17 42  1  0  0  0  0
 17 43  1  0  0  0  0
 17 44  1  0  0  0  0
 18 19  1  0  0  0  0
 19 20  1  0  0  0  0
 19 21  2  0  0  0  0
 20 22  2  0  0  0  0
 20 45  1  0  0  0  0
 21 46  1  0  0  0  0
 22 23  1  0  0  0  0
 22 47  1  0  0  0  0
 24 25  1  0  0  0  0
 24 48  1  0  0  0  0
 24 49  1  0  0  0  0
 25 50  1  0  0  0  0
 25 51  1  0  0  0  0
 26 52  1  0  0  0  0
 26 53  1  0  0  0  0
 26 54  1  0  0  0  0
M  END
> <PUBCHEM_COMPOUND_CID>
45783558

> <PUBCHEM_CONFORMER_RMSD>
1

> <PUBCHEM_CONFORMER_DIVERSEORDER>
1
41
69
8
51
26
48
6
50
4
75
44
38
77
18
80
10
74
33
76
37
12
79
30
16
53
5
62
14
17
83
22
34
2
67
81
15
63
78
55
52
13
31
45
49
27
70
73
21
54
47
23
60
42
61
46
9
19
64
40
28
82
24
66
71
7
68
3
36
39
72
57
58
20
43
11
35
56
59
32
65
29
25

> <PUBCHEM_MMFF94_PARTIAL_CHARGES>
23
1 -0.02
10 0.27
11 0.27
14 0.3
18 0.46
19 0.05
2 -0.36
20 -0.15
21 0.16
22 -0.15
23 0.39
24 0.28
25 0.28
26 0.28
3 -0.56
4 -0.81
45 0.15
46 0.15
47 0.15
5 -0.57
6 -0.41
7 -0.62
8 0.45

> <PUBCHEM_EFFECTIVE_ROTOR_COUNT>
9

> <PUBCHEM_PHARMACOPHORE_FEATURES>
7
1 3 acceptor
1 4 cation
3 5 6 18 cation
4 13 15 16 17 hydrophobe
5 1 5 6 14 18 rings
5 4 8 9 10 12 rings
6 7 19 20 21 22 23 rings

> <PUBCHEM_HEAVY_ATOM_COUNT>
26

> <PUBCHEM_ATOM_DEF_STEREO_COUNT>
1

> <PUBCHEM_ATOM_UDEF_STEREO_COUNT>
0

> <PUBCHEM_BOND_DEF_STEREO_COUNT>
0

> <PUBCHEM_BOND_UDEF_STEREO_COUNT>
0

> <PUBCHEM_ISOTOPIC_ATOM_COUNT>
0

> <PUBCHEM_COMPONENT_COUNT>
1

> <PUBCHEM_CACTVS_TAUTO_COUNT>
1

> <PUBCHEM_CONFORMER_ID>
02BA9A0600000001

> <PUBCHEM_MMFF94_ENERGY>
65.8328

> <PUBCHEM_FEATURE_SELFOVERLAP>
35.522

> <PUBCHEM_SHAPE_FINGERPRINT>
10670039 82 17275113808042807168
10906281 52 17632585946555490167
11505856 67 17323815829765838126
11828532 37 16343416336140126340
125118 31 18341331077343006401
12596602 18 18187081763033026387
12633257 1 16443894111766598064
13533116 47 17459184101493768698
14251764 18 12612757904065879895
14251764 75 18046065123748429748
14347332 77 9655306938106622495
14461889 52 17676494990096046891
14537116 161 15410895158768432529
14840074 17 18343023315283620581
15183329 4 17988920068552634673
15475509 35 15719938126482538978
15475509 8 13830138291295107779
1754908 1 17821740416950788881
20157964 124 18334013878176292722
20567600 234 18186519916938836821
21130935 74 17168143383034056267
21315764 119 12463570686342302557
21344244 78 15647055970973332215
21521721 280 18411142429275561675
21792934 111 16443062782365747629
22061861 79 11743839170602874897
22122407 14 18335147500472023600
221357 26 13973967601583451570
23081809 10 18201425983576861807
23559900 14 15358276912881892030
3178227 256 17458053882099916384
3472631 163 17916868036159543892
34797466 226 18411705353000262527
397830 11 18041289850274749811
4340502 62 17530962501546408978
439807 62 10231759985201618293
444735 82 18409173186691886789
474 4 18342457041273158918
5104073 3 17023733512129047829
5281201 14 12967133826366853274
58260988 587 17530688723857766450
6438161 24 10591767545487432900
8988823 20 17822287955453587026
9841814 1 13118291365007224598

> <PUBCHEM_SHAPE_MULTIPOLES>
497.54
21.14
2.35
1.71
43.57
0.78
-0.12
12.42
-6.5
-6.02
-0.03
-0.69
-0.48
-1.4

> <PUBCHEM_SHAPE_SELFOVERLAP>
1036.427

> <PUBCHEM_SHAPE_VOLUME>
286.4

> <PUBCHEM_COORDINATE_TYPE>
2
5
10

$$$$
