28963042
  -OEChem-12032416143D

 71 73  0     1  0  0  0  0  0999 V2000
    0.0523    2.3209   -1.4863 O   0  0  0  0  0  0  0  0  0  0  0  0
   -4.9634    2.1730    0.3556 O   0  0  0  0  0  0  0  0  0  0  0  0
    5.6013   -1.6044   -0.4137 O   0  0  0  0  0  0  0  0  0  0  0  0
    8.1707   -0.8759   -1.4489 O   0  0  0  0  0  0  0  0  0  0  0  0
    4.6490    0.2895    0.5348 N   0  0  0  0  0  0  0  0  0  0  0  0
   -4.2460    0.9388   -1.4726 N   0  0  0  0  0  0  0  0  0  0  0  0
   -6.5566   -2.2747    0.8542 N   0  0  0  0  0  0  0  0  0  0  0  0
    0.4563   -0.1124    1.4276 C   0  0  1  0  0  0  0  0  0  0  0  0
    0.8330    0.6617    0.1207 C   0  0  2  0  0  0  0  0  0  0  0  0
    2.3360    1.1174    0.1544 C   0  0  1  0  0  0  0  0  0  0  0  0
   -0.1992    1.7847   -0.1866 C   0  0  2  0  0  0  0  0  0  0  0  0
   -0.9921   -0.6435    1.3134 C   0  0  0  0  0  0  0  0  0  0  0  0
    1.3942   -1.3323    1.5790 C   0  0  0  0  0  0  0  0  0  0  0  0
   -1.6563    1.2666   -0.1966 C   0  0  1  0  0  0  0  0  0  0  0  0
    3.2652   -0.1080    0.3823 C   0  0  2  0  0  0  0  0  0  0  0  0
   -2.0103    0.4584    1.0517 C   0  0  0  0  0  0  0  0  0  0  0  0
    2.8686   -0.9547    1.5914 C   0  0  0  0  0  0  0  0  0  0  0  0
    0.5632    0.7736    2.6946 C   0  0  0  0  0  0  0  0  0  0  0  0
   -2.6650    2.4085   -0.3707 C   0  0  2  0  0  0  0  0  0  0  0  0
    2.7826    1.8614   -1.1155 C   0  0  0  0  0  0  0  0  0  0  0  0
   -2.5187    3.4158    0.7644 C   0  0  0  0  0  0  0  0  0  0  0  0
   -4.0814    1.8456   -0.4356 C   0  0  0  0  0  0  0  0  0  0  0  0
    5.7071   -0.5028    0.1186 C   0  0  0  0  0  0  0  0  0  0  0  0
    7.0443    0.1635    0.4009 C   0  0  0  0  0  0  0  0  0  0  0  0
   -5.4997    0.2709   -1.7347 C   0  0  0  0  0  0  0  0  0  0  0  0
    8.2319   -0.6769   -0.0426 C   0  0  0  0  0  0  0  0  0  0  0  0
   -5.6115   -1.0272   -0.9884 C   0  0  0  0  0  0  0  0  0  0  0  0
   -4.9128   -2.1553   -1.4035 C   0  0  0  0  0  0  0  0  0  0  0  0
   -6.4129   -1.1381    0.1366 C   0  0  0  0  0  0  0  0  0  0  0  0
    9.2676   -1.6505   -1.9139 C   0  0  0  0  0  0  0  0  0  0  0  0
   -5.0350   -3.3432   -0.6911 C   0  0  0  0  0  0  0  0  0  0  0  0
   -5.8620   -3.3505    0.4206 C   0  0  0  0  0  0  0  0  0  0  0  0
    0.7631   -0.0517   -0.7161 H   0  0  0  0  0  0  0  0  0  0  0  0
    2.4746    1.8210    0.9851 H   0  0  0  0  0  0  0  0  0  0  0  0
   -0.0407    2.5891    0.5336 H   0  0  0  0  0  0  0  0  0  0  0  0
   -1.2730   -1.1814    2.2281 H   0  0  0  0  0  0  0  0  0  0  0  0
   -1.0541   -1.3762    0.4973 H   0  0  0  0  0  0  0  0  0  0  0  0
    1.2235   -2.0336    0.7511 H   0  0  0  0  0  0  0  0  0  0  0  0
    1.1578   -1.8817    2.4992 H   0  0  0  0  0  0  0  0  0  0  0  0
   -1.7362    0.5867   -1.0554 H   0  0  0  0  0  0  0  0  0  0  0  0
    3.2016   -0.7495   -0.5076 H   0  0  0  0  0  0  0  0  0  0  0  0
   -2.9887   -0.0231    0.9400 H   0  0  0  0  0  0  0  0  0  0  0  0
   -2.0817    1.0768    1.9488 H   0  0  0  0  0  0  0  0  0  0  0  0
    3.1142   -0.4260    2.5205 H   0  0  0  0  0  0  0  0  0  0  0  0
    3.4682   -1.8739    1.6138 H   0  0  0  0  0  0  0  0  0  0  0  0
    1.5815    1.1222    2.8841 H   0  0  0  0  0  0  0  0  0  0  0  0
    0.2475    0.2143    3.5832 H   0  0  0  0  0  0  0  0  0  0  0  0
   -0.0634    1.6677    2.6346 H   0  0  0  0  0  0  0  0  0  0  0  0
   -2.4866    2.9281   -1.3209 H   0  0  0  0  0  0  0  0  0  0  0  0
    2.5260    1.2970   -2.0178 H   0  0  0  0  0  0  0  0  0  0  0  0
    3.8634    2.0347   -1.1295 H   0  0  0  0  0  0  0  0  0  0  0  0
    2.3280    2.8544   -1.1717 H   0  0  0  0  0  0  0  0  0  0  0  0
    4.8452    1.1581    1.0243 H   0  0  0  0  0  0  0  0  0  0  0  0
   -0.0303    1.5992   -2.1326 H   0  0  0  0  0  0  0  0  0  0  0  0
   -2.7065    3.0027    1.7581 H   0  0  0  0  0  0  0  0  0  0  0  0
   -3.2639    4.2118    0.6348 H   0  0  0  0  0  0  0  0  0  0  0  0
   -1.5522    3.9245    0.7660 H   0  0  0  0  0  0  0  0  0  0  0  0
   -3.4819    0.7610   -2.1164 H   0  0  0  0  0  0  0  0  0  0  0  0
    7.1137    0.3640    1.4759 H   0  0  0  0  0  0  0  0  0  0  0  0
    7.0521    1.1217   -0.1329 H   0  0  0  0  0  0  0  0  0  0  0  0
   -5.5598    0.0872   -2.8135 H   0  0  0  0  0  0  0  0  0  0  0  0
   -6.3279    0.9410   -1.4763 H   0  0  0  0  0  0  0  0  0  0  0  0
    9.1620   -0.1569    0.2140 H   0  0  0  0  0  0  0  0  0  0  0  0
    8.2188   -1.6484    0.4656 H   0  0  0  0  0  0  0  0  0  0  0  0
   -4.2703   -2.1194   -2.2790 H   0  0  0  0  0  0  0  0  0  0  0  0
   -6.9815   -0.2928    0.5118 H   0  0  0  0  0  0  0  0  0  0  0  0
    9.1696   -1.7708   -2.9962 H   0  0  0  0  0  0  0  0  0  0  0  0
    9.2608   -2.6419   -1.4506 H   0  0  0  0  0  0  0  0  0  0  0  0
   10.2133   -1.1419   -1.7034 H   0  0  0  0  0  0  0  0  0  0  0  0
   -4.4994   -4.2349   -0.9961 H   0  0  0  0  0  0  0  0  0  0  0  0
   -5.9912   -4.2519    1.0107 H   0  0  0  0  0  0  0  0  0  0  0  0
  1 11  1  0  0  0  0
  1 54  1  0  0  0  0
  2 22  2  0  0  0  0
  3 23  2  0  0  0  0
  4 26  1  0  0  0  0
  4 30  1  0  0  0  0
  5 15  1  0  0  0  0
  5 23  1  0  0  0  0
  5 53  1  0  0  0  0
  6 22  1  0  0  0  0
  6 25  1  0  0  0  0
  6 58  1  0  0  0  0
  7 29  1  0  0  0  0
  7 32  2  0  0  0  0
  8  9  1  0  0  0  0
  8 12  1  0  0  0  0
  8 13  1  0  0  0  0
  8 18  1  0  0  0  0
  9 10  1  0  0  0  0
  9 11  1  0  0  0  0
  9 33  1  0  0  0  0
 10 15  1  0  0  0  0
 10 20  1  0  0  0  0
 10 34  1  0  0  0  0
 11 14  1  0  0  0  0
 11 35  1  0  0  0  0
 12 16  1  0  0  0  0
 12 36  1  0  0  0  0
 12 37  1  0  0  0  0
 13 17  1  0  0  0  0
 13 38  1  0  0  0  0
 13 39  1  0  0  0  0
 14 16  1  0  0  0  0
 14 19  1  0  0  0  0
 14 40  1  0  0  0  0
 15 17  1  0  0  0  0
 15 41  1  0  0  0  0
 16 42  1  0  0  0  0
 16 43  1  0  0  0  0
 17 44  1  0  0  0  0
 17 45  1  0  0  0  0
 18 46  1  0  0  0  0
 18 47  1  0  0  0  0
 18 48  1  0  0  0  0
 19 21  1  0  0  0  0
 19 22  1  0  0  0  0
 19 49  1  0  0  0  0
 20 50  1  0  0  0  0
 20 51  1  0  0  0  0
 20 52  1  0  0  0  0
 21 55  1  0  0  0  0
 21 56  1  0  0  0  0
 21 57  1  0  0  0  0
 23 24  1  0  0  0  0
 24 26  1  0  0  0  0
 24 59  1  0  0  0  0
 24 60  1  0  0  0  0
 25 27  1  0  0  0  0
 25 61  1  0  0  0  0
 25 62  1  0  0  0  0
 26 63  1  0  0  0  0
 26 64  1  0  0  0  0
 27 28  1  0  0  0  0
 27 29  2  0  0  0  0
 28 31  2  0  0  0  0
 28 65  1  0  0  0  0
 29 66  1  0  0  0  0
 30 67  1  0  0  0  0
 30 68  1  0  0  0  0
 30 69  1  0  0  0  0
 31 32  1  0  0  0  0
 31 70  1  0  0  0  0
 32 71  1  0  0  0  0
M  END
> <PUBCHEM_COMPOUND_CID>
28963042

> <PUBCHEM_CONFORMER_RMSD>
1

> <PUBCHEM_CONFORMER_DIVERSEORDER>
1
39
45
121
152
144
36
158
19
102
40
136
141
126
116
100
44
53
87
9
143
8
64
83
130
50
77
98
68
122
91
120
37
55
142
139
104
38
125
160
134
93
26
7
48
159
41
111
66
35
124
107
78
128
59
17
133
74
106
29
23
88
110
24
148
32
34
10
84
86
49
92
154
75
138
113
146
12
28
13
2
103
31
99
135
11
82
70
127
147
14
79
156
67
119
161
129
18
101
112
114
117
22
27
30
25
90
16
149
150
115
5
56
6
21
46
89
76
3
85
43
109
54
4
61
42
62
153
80
65
20
95
63
140
137
123
57
15
94
73
157
162
58
105
51
131
47
69
72
96
155
60
151
132
33
145
118
71
97
108
52
81

> <PUBCHEM_MMFF94_PARTIAL_CHARGES>
28
1 -0.68
11 0.28
15 0.3
19 0.06
2 -0.57
22 0.57
23 0.57
24 0.06
25 0.44
26 0.28
27 -0.14
28 -0.15
29 0.16
3 -0.57
30 0.28
31 -0.15
32 0.16
4 -0.56
5 -0.73
53 0.37
54 0.4
58 0.37
6 -0.73
65 0.15
66 0.15
7 -0.62
70 0.15
71 0.15

> <PUBCHEM_EFFECTIVE_ROTOR_COUNT>
11.6

> <PUBCHEM_PHARMACOPHORE_FEATURES>
12
1 1 acceptor
1 1 donor
1 2 acceptor
1 21 hydrophobe
1 3 acceptor
1 4 acceptor
1 5 donor
1 6 donor
1 7 acceptor
6 7 27 28 29 31 32 rings
6 8 9 10 13 15 17 rings
6 8 9 11 12 14 16 rings

> <PUBCHEM_HEAVY_ATOM_COUNT>
32

> <PUBCHEM_ATOM_DEF_STEREO_COUNT>
7

> <PUBCHEM_ATOM_UDEF_STEREO_COUNT>
0

> <PUBCHEM_BOND_DEF_STEREO_COUNT>
0

> <PUBCHEM_BOND_UDEF_STEREO_COUNT>
0

> <PUBCHEM_ISOTOPIC_ATOM_COUNT>
0

> <PUBCHEM_COMPONENT_COUNT>
1

> <PUBCHEM_CACTVS_TAUTO_COUNT>
4

> <PUBCHEM_CONFORMER_ID>
01B9F0E200000001

> <PUBCHEM_MMFF94_ENERGY>
86.3857

> <PUBCHEM_FEATURE_SELFOVERLAP>
60.914

> <PUBCHEM_SHAPE_FINGERPRINT>
10554248 39 16009025039462262922
11315621 136 18187080706555200965
11315621 246 18408315588785009855
11456790 92 11239991249373972334
11621639 254 16950291719336257182
117089 54 18119531196434619395
11973863 73 14548746054289645718
13257819 101 12612745800847825585
13782708 43 18060131063821072154
14251757 5 18115580591210549155
14279260 333 18187635903777025667
14767858 380 17458341944496019250
14856354 85 18131065992284460645
14950920 106 15553593175615027423
15183329 4 17821720650356069394
15461852 350 18408890633820004230
16112460 7 12535045577751038906
17686467 74 18342449366647090920
20505436 4 17752201687639968881
21795232 338 18272089409818968817
21867018 265 18411987992256301166
22288116 15 18113902671282222442
22393880 68 17677031517859276477
23559900 14 18341032095815879169
23569943 247 17904481806346170442
23576562 1 16154287133802874150
2838139 119 14634864228118033647
354706 132 16515676750672930383
437795 160 18337092524705775058
445580 160 18342736329858477495
44802255 64 13262402167536265369
484989 97 17968945317391875819
54039377 194 18260834834704247371
58083652 198 14476664309096478098
6086070 43 14634868694926446052
636775 72 8214136348560408110
999808 66 17775002392670011294

> <PUBCHEM_SHAPE_MULTIPOLES>
620.12
22.04
3.32
1.78
36.3
0.28
-0.27
18.01
10.42
-6.34
0.44
0.65
0.18
0.97

> <PUBCHEM_SHAPE_SELFOVERLAP>
1278.393

> <PUBCHEM_SHAPE_VOLUME>
351.3

> <PUBCHEM_COORDINATE_TYPE>
2
5
10

$$$$
