26742542
  -OEChem-12032416173D

 71 74  0     1  0  0  0  0  0999 V2000
    3.5622   -3.4497   -1.1132 O   0  0  0  0  0  0  0  0  0  0  0  0
   -2.9670   -0.9690   -1.5848 O   0  0  0  0  0  0  0  0  0  0  0  0
    2.3363    2.2982    1.2157 O   0  0  0  0  0  0  0  0  0  0  0  0
    3.8717    4.5573    0.7762 O   0  0  0  0  0  0  0  0  0  0  0  0
   -6.3404    3.6830   -0.3698 O   0  0  0  0  0  0  0  0  0  0  0  0
   -2.0233   -2.7198   -0.3842 N   0  0  0  0  0  0  0  0  0  0  0  0
    2.7031   -2.4017    0.7697 N   0  0  0  0  0  0  0  0  0  0  0  0
   -0.2794   -3.6420    1.1327 C   0  0  2  0  0  0  0  0  0  0  0  0
    0.3743   -4.3161   -0.0966 C   0  0  1  0  0  0  0  0  0  0  0  0
    0.0656   -3.5478   -1.3950 C   0  0  0  0  0  0  0  0  0  0  0  0
   -1.7865   -3.4425    0.8721 C   0  0  0  0  0  0  0  0  0  0  0  0
    0.3601   -2.3097    1.5675 C   0  0  0  0  0  0  0  0  0  0  0  0
    1.8675   -4.6222    0.0763 C   0  0  0  0  0  0  0  0  0  0  0  0
   -1.4379   -3.3459   -1.5696 C   0  0  0  0  0  0  0  0  0  0  0  0
    1.8323   -2.4377    1.9426 C   0  0  0  0  0  0  0  0  0  0  0  0
    2.7935   -3.4418   -0.1483 C   0  0  0  0  0  0  0  0  0  0  0  0
   -2.7613   -1.5436   -0.5127 C   0  0  0  0  0  0  0  0  0  0  0  0
    3.4951   -1.1930    0.5830 C   0  0  0  0  0  0  0  0  0  0  0  0
    2.7586   -0.1293   -0.2275 C   0  0  0  0  0  0  0  0  0  0  0  0
   -3.3284   -0.9597    0.7565 C   0  0  0  0  0  0  0  0  0  0  0  0
    3.5813    1.1161   -0.4493 C   0  0  0  0  0  0  0  0  0  0  0  0
   -4.1270    0.2711    0.4603 C   0  0  0  0  0  0  0  0  0  0  0  0
    3.3324    2.2761    0.2843 C   0  0  0  0  0  0  0  0  0  0  0  0
    4.6011    1.0979   -1.4009 C   0  0  0  0  0  0  0  0  0  0  0  0
   -3.5063    1.5204    0.4523 C   0  0  0  0  0  0  0  0  0  0  0  0
   -5.4916    0.1686    0.1898 C   0  0  0  0  0  0  0  0  0  0  0  0
    4.1032    3.4179    0.0662 C   0  0  0  0  0  0  0  0  0  0  0  0
    5.3719    2.2398   -1.6188 C   0  0  0  0  0  0  0  0  0  0  0  0
   -4.2503    2.6670    0.1739 C   0  0  0  0  0  0  0  0  0  0  0  0
   -6.2354    1.3151   -0.0887 C   0  0  0  0  0  0  0  0  0  0  0  0
    5.1229    3.3998   -0.8853 C   0  0  0  0  0  0  0  0  0  0  0  0
   -5.6149    2.5644   -0.0966 C   0  0  0  0  0  0  0  0  0  0  0  0
    1.0420    2.6943    0.7683 C   0  0  0  0  0  0  0  0  0  0  0  0
    4.7054    5.6789    0.4911 C   0  0  0  0  0  0  0  0  0  0  0  0
   -7.7307    3.5057   -0.6374 C   0  0  0  0  0  0  0  0  0  0  0  0
   -0.1898   -4.3349    1.9813 H   0  0  0  0  0  0  0  0  0  0  0  0
   -0.1136   -5.2983   -0.1925 H   0  0  0  0  0  0  0  0  0  0  0  0
    0.4604   -4.0958   -2.2586 H   0  0  0  0  0  0  0  0  0  0  0  0
    0.5542   -2.5665   -1.3859 H   0  0  0  0  0  0  0  0  0  0  0  0
   -2.2786   -4.4180    0.7712 H   0  0  0  0  0  0  0  0  0  0  0  0
   -2.2503   -2.9486    1.7279 H   0  0  0  0  0  0  0  0  0  0  0  0
   -0.1787   -1.9555    2.4562 H   0  0  0  0  0  0  0  0  0  0  0  0
    0.2236   -1.5418    0.7985 H   0  0  0  0  0  0  0  0  0  0  0  0
    2.1495   -5.3865   -0.6608 H   0  0  0  0  0  0  0  0  0  0  0  0
    2.0712   -5.0693    1.0554 H   0  0  0  0  0  0  0  0  0  0  0  0
   -1.6271   -2.7436   -2.4638 H   0  0  0  0  0  0  0  0  0  0  0  0
   -1.9405   -4.3097   -1.7131 H   0  0  0  0  0  0  0  0  0  0  0  0
    2.1026   -1.6116    2.6102 H   0  0  0  0  0  0  0  0  0  0  0  0
    2.0191   -3.3626    2.4987 H   0  0  0  0  0  0  0  0  0  0  0  0
    4.4221   -1.4666    0.0639 H   0  0  0  0  0  0  0  0  0  0  0  0
    3.8021   -0.8042    1.5614 H   0  0  0  0  0  0  0  0  0  0  0  0
    2.4752   -0.5383   -1.2070 H   0  0  0  0  0  0  0  0  0  0  0  0
    1.8072    0.1044    0.2590 H   0  0  0  0  0  0  0  0  0  0  0  0
   -2.5104   -0.7167    1.4445 H   0  0  0  0  0  0  0  0  0  0  0  0
   -3.9712   -1.7001    1.2466 H   0  0  0  0  0  0  0  0  0  0  0  0
    4.8043    0.2008   -1.9798 H   0  0  0  0  0  0  0  0  0  0  0  0
   -2.4433    1.6132    0.6589 H   0  0  0  0  0  0  0  0  0  0  0  0
   -5.9855   -0.7996    0.1906 H   0  0  0  0  0  0  0  0  0  0  0  0
    6.1656    2.2247   -2.3602 H   0  0  0  0  0  0  0  0  0  0  0  0
   -3.7611    3.6373    0.1682 H   0  0  0  0  0  0  0  0  0  0  0  0
   -7.2901    1.1634   -0.2908 H   0  0  0  0  0  0  0  0  0  0  0  0
    5.7613    4.2476   -1.1083 H   0  0  0  0  0  0  0  0  0  0  0  0
    0.3162    2.4308    1.5427 H   0  0  0  0  0  0  0  0  0  0  0  0
    0.7612    2.1876   -0.1606 H   0  0  0  0  0  0  0  0  0  0  0  0
    1.0154    3.7781    0.6193 H   0  0  0  0  0  0  0  0  0  0  0  0
    4.3817    6.4952    1.1454 H   0  0  0  0  0  0  0  0  0  0  0  0
    4.5752    6.0273   -0.5391 H   0  0  0  0  0  0  0  0  0  0  0  0
    5.7539    5.4746    0.7334 H   0  0  0  0  0  0  0  0  0  0  0  0
   -8.1512    4.4976   -0.8328 H   0  0  0  0  0  0  0  0  0  0  0  0
   -8.2593    3.0999    0.2318 H   0  0  0  0  0  0  0  0  0  0  0  0
   -7.8936    2.9062   -1.5395 H   0  0  0  0  0  0  0  0  0  0  0  0
  1 16  2  0  0  0  0
  2 17  2  0  0  0  0
  3 23  1  0  0  0  0
  3 33  1  0  0  0  0
  4 27  1  0  0  0  0
  4 34  1  0  0  0  0
  5 32  1  0  0  0  0
  5 35  1  0  0  0  0
  6 11  1  0  0  0  0
  6 14  1  0  0  0  0
  6 17  1  0  0  0  0
  7 15  1  0  0  0  0
  7 16  1  0  0  0  0
  7 18  1  0  0  0  0
  8  9  1  0  0  0  0
  8 11  1  0  0  0  0
  8 12  1  0  0  0  0
  8 36  1  0  0  0  0
  9 10  1  0  0  0  0
  9 13  1  0  0  0  0
  9 37  1  0  0  0  0
 10 14  1  0  0  0  0
 10 38  1  0  0  0  0
 10 39  1  0  0  0  0
 11 40  1  0  0  0  0
 11 41  1  0  0  0  0
 12 15  1  0  0  0  0
 12 42  1  0  0  0  0
 12 43  1  0  0  0  0
 13 16  1  0  0  0  0
 13 44  1  0  0  0  0
 13 45  1  0  0  0  0
 14 46  1  0  0  0  0
 14 47  1  0  0  0  0
 15 48  1  0  0  0  0
 15 49  1  0  0  0  0
 17 20  1  0  0  0  0
 18 19  1  0  0  0  0
 18 50  1  0  0  0  0
 18 51  1  0  0  0  0
 19 21  1  0  0  0  0
 19 52  1  0  0  0  0
 19 53  1  0  0  0  0
 20 22  1  0  0  0  0
 20 54  1  0  0  0  0
 20 55  1  0  0  0  0
 21 23  2  0  0  0  0
 21 24  1  0  0  0  0
 22 25  2  0  0  0  0
 22 26  1  0  0  0  0
 23 27  1  0  0  0  0
 24 28  2  0  0  0  0
 24 56  1  0  0  0  0
 25 29  1  0  0  0  0
 25 57  1  0  0  0  0
 26 30  2  0  0  0  0
 26 58  1  0  0  0  0
 27 31  2  0  0  0  0
 28 31  1  0  0  0  0
 28 59  1  0  0  0  0
 29 32  2  0  0  0  0
 29 60  1  0  0  0  0
 30 32  1  0  0  0  0
 30 61  1  0  0  0  0
 31 62  1  0  0  0  0
 33 63  1  0  0  0  0
 33 64  1  0  0  0  0
 33 65  1  0  0  0  0
 34 66  1  0  0  0  0
 34 67  1  0  0  0  0
 34 68  1  0  0  0  0
 35 69  1  0  0  0  0
 35 70  1  0  0  0  0
 35 71  1  0  0  0  0
M  END
> <PUBCHEM_COMPOUND_CID>
26742542

> <PUBCHEM_CONFORMER_RMSD>
1.4

> <PUBCHEM_CONFORMER_DIVERSEORDER>
1
193
42
105
131
185
169
47
31
83
143
174
88
7
187
29
120
55
13
28
148
2
183
70
197
178
81
114
79
180
30
20
98
111
117
123
190
46
82
43
53
165
177
182
26
160
192
54
93
156
33
21
142
119
48
109
153
14
6
166
89
87
107
94
59
124
58
99
96
128
22
101
121
50
85
9
162
62
130
176
40
163
23
67
170
102
61
122
147
4
63
66
19
141
135
49
137
113
151
41
186
92
15
184
161
136
72
188
11
35
195
37
90
8
27
80
68
25
56
134
164
154
173
91
139
86
167
150
171
84
127
75
110
159
32
104
146
24
12
196
129
38
189
145
39
181
74
10
51
126
168
155
158
152
112
95
157
116
64
60
108
73
132
115
106
118
100
103
77
36
144
125
138
97
198
16
149
194
65
172
133
191
45
34
78
71
175
52
140
17
3
76
44
179
5
18
57
69

> <PUBCHEM_MMFF94_PARTIAL_CHARGES>
38
1 -0.57
11 0.3
13 0.06
14 0.3
15 0.3
16 0.57
17 0.57
18 0.3
19 0.14
2 -0.57
20 0.2
21 -0.14
22 -0.14
23 0.08
24 -0.15
25 -0.15
26 -0.15
27 0.08
28 -0.15
29 -0.15
3 -0.36
30 -0.15
31 -0.15
32 0.08
33 0.28
34 0.28
35 0.28
4 -0.36
5 -0.36
56 0.15
57 0.15
58 0.15
59 0.15
6 -0.66
60 0.15
61 0.15
62 0.15
7 -0.66

> <PUBCHEM_EFFECTIVE_ROTOR_COUNT>
10.6

> <PUBCHEM_PHARMACOPHORE_FEATURES>
9
1 1 acceptor
1 2 acceptor
1 3 acceptor
1 4 acceptor
1 5 acceptor
6 21 23 24 27 28 31 rings
6 22 25 26 29 30 32 rings
6 6 8 9 10 11 14 rings
7 7 8 9 12 13 15 16 rings

> <PUBCHEM_HEAVY_ATOM_COUNT>
35

> <PUBCHEM_ATOM_DEF_STEREO_COUNT>
2

> <PUBCHEM_ATOM_UDEF_STEREO_COUNT>
0

> <PUBCHEM_BOND_DEF_STEREO_COUNT>
0

> <PUBCHEM_BOND_UDEF_STEREO_COUNT>
0

> <PUBCHEM_ISOTOPIC_ATOM_COUNT>
0

> <PUBCHEM_COMPONENT_COUNT>
1

> <PUBCHEM_CACTVS_TAUTO_COUNT>
2

> <PUBCHEM_CONFORMER_ID>
01980F0E00000001

> <PUBCHEM_MMFF94_ENERGY>
118.8347

> <PUBCHEM_FEATURE_SELFOVERLAP>
45.705

> <PUBCHEM_SHAPE_FINGERPRINT>
10483366 6 18267601117724501798
10556698 54 18341625831777913286
10581848 197 10955458672101236086
10675989 125 18339361864158893233
10864689 126 18410865386478955220
10937287 8 18338233868202267794
10974685 15 17695613439850882072
11059048 146 18339080509514456900
11093857 51 17988353776386643803
11273773 38 18338517443855303470
11434127 23 17766273554947179036
11479125 193 18410580625740844289
11505856 67 18269267040785822895
13944108 23 18192153702755680300
14223995 32 18339358682294930464
14251764 75 18412270553590595081
14659021 117 17548406467905871937
15001296 14 18262235504837708185
15082195 135 18268692954160849199
15198563 99 17765154260705851663
15210252 30 18123186805860083674
15320295 198 17828768335955892397
15320467 1 18338798901378468505
15400415 2 18339080505241615017
155225 5 17762336216524507960
16988056 13 18196373615756729678
17627616 140 18411139130186588745
19053607 189 18410565193565068985
21223535 225 18270403927271015884
21857420 4 17689719662604762926
21987440 362 18337396049733177940
23576562 1 18271526377776710511
3388396 114 17550086495982197494
4066623 53 17552088294830810054
4487111 67 17979355579425533872
4760202 170 17615673052702958813
508180 173 18340222838467980290
508706 21 17621323863473633458
5265222 85 18265902530820280645
53794403 172 18337954472537847879
57527585 21 18194951070848857671
5776283 40 18337410274591152046
6036956 94 17758675933672875621
7288768 16 17749954482755286683

> <PUBCHEM_SHAPE_MULTIPOLES>
680.97
14.93
8.75
1.39
18.7
0.81
0.08
25.43
3.31
-6.01
-0.27
-0.81
-0.73
0.26

> <PUBCHEM_SHAPE_SELFOVERLAP>
1439.476

> <PUBCHEM_SHAPE_VOLUME>
378

> <PUBCHEM_COORDINATE_TYPE>
2
5
10

$$$$
