75536705
  -OEChem-12032416313D

 49 51  0     1  0  0  0  0  0999 V2000
    4.1655   -1.7750    0.0099 S   0  0  0  0  0  0  0  0  0  0  0  0
   -0.1803   -1.4345    1.3760 O   0  0  0  0  0  0  0  0  0  0  0  0
   -1.0011   -1.2064   -2.1139 O   0  0  0  0  0  0  0  0  0  0  0  0
    4.1648   -2.2689   -1.3539 O   0  0  0  0  0  0  0  0  0  0  0  0
    4.9699   -2.4310    1.0228 O   0  0  0  0  0  0  0  0  0  0  0  0
   -3.2550   -0.2332   -0.1520 N   0  0  0  0  0  0  0  0  0  0  0  0
    2.5624   -1.6568    0.5672 N   0  0  0  0  0  0  0  0  0  0  0  0
   -6.5272   -0.2012   -0.7875 N   0  0  0  0  0  0  0  0  0  0  0  0
   -2.1275   -1.1285    0.0507 C   0  0  1  0  0  0  0  0  0  0  0  0
   -0.9060   -0.7656   -0.7734 C   0  0  1  0  0  0  0  0  0  0  0  0
    0.1900   -1.4982   -0.0113 C   0  0  1  0  0  0  0  0  0  0  0  0
   -1.5677   -1.0648    1.4623 C   0  0  0  0  0  0  0  0  0  0  0  0
    1.5665   -0.8870   -0.2037 C   0  0  0  0  0  0  0  0  0  0  0  0
   -4.4834   -0.8057    0.3858 C   0  0  0  0  0  0  0  0  0  0  0  0
   -5.6595    0.1156    0.1996 C   0  0  0  0  0  0  0  0  0  0  0  0
    4.6623   -0.0789   -0.0252 C   0  0  0  0  0  0  0  0  0  0  0  0
   -5.7960    1.2176    1.0282 C   0  0  0  0  0  0  0  0  0  0  0  0
    5.2478    0.4993    1.1012 C   0  0  0  0  0  0  0  0  0  0  0  0
    4.4662    0.6819   -1.1778 C   0  0  0  0  0  0  0  0  0  0  0  0
    5.6373    1.8383    1.0748 C   0  0  0  0  0  0  0  0  0  0  0  0
    4.8557    2.0210   -1.2040 C   0  0  0  0  0  0  0  0  0  0  0  0
    5.4415    2.5993   -0.0778 C   0  0  0  0  0  0  0  0  0  0  0  0
   -6.8937    2.0479    0.8313 C   0  0  0  0  0  0  0  0  0  0  0  0
   -7.5820    0.6290   -0.9492 C   0  0  0  0  0  0  0  0  0  0  0  0
   -7.8085    1.7549   -0.1742 C   0  0  0  0  0  0  0  0  0  0  0  0
    5.8580    4.0310   -0.1059 C   0  0  0  0  0  0  0  0  0  0  0  0
   -2.4123   -2.1601   -0.2003 H   0  0  0  0  0  0  0  0  0  0  0  0
   -0.7344    0.3180   -0.7689 H   0  0  0  0  0  0  0  0  0  0  0  0
    0.2203   -2.5589   -0.2937 H   0  0  0  0  0  0  0  0  0  0  0  0
   -1.6063   -0.0524    1.8807 H   0  0  0  0  0  0  0  0  0  0  0  0
   -2.0808   -1.7424    2.1515 H   0  0  0  0  0  0  0  0  0  0  0  0
    1.5802    0.1429    0.1699 H   0  0  0  0  0  0  0  0  0  0  0  0
    1.8205   -0.8857   -1.2680 H   0  0  0  0  0  0  0  0  0  0  0  0
   -3.3765   -0.0708   -1.1520 H   0  0  0  0  0  0  0  0  0  0  0  0
    2.3899   -1.7229    1.5781 H   0  0  0  0  0  0  0  0  0  0  0  0
   -1.1537   -2.1666   -2.1100 H   0  0  0  0  0  0  0  0  0  0  0  0
   -4.3829   -1.0217    1.4567 H   0  0  0  0  0  0  0  0  0  0  0  0
   -4.7052   -1.7595   -0.1103 H   0  0  0  0  0  0  0  0  0  0  0  0
   -5.0772    1.4372    1.8105 H   0  0  0  0  0  0  0  0  0  0  0  0
    5.4030   -0.0723    2.0117 H   0  0  0  0  0  0  0  0  0  0  0  0
    4.0101    0.2527   -2.0652 H   0  0  0  0  0  0  0  0  0  0  0  0
    6.0925    2.2777    1.9585 H   0  0  0  0  0  0  0  0  0  0  0  0
    4.6987    2.6032   -2.1082 H   0  0  0  0  0  0  0  0  0  0  0  0
   -7.0364    2.9216    1.4601 H   0  0  0  0  0  0  0  0  0  0  0  0
   -8.2656    0.3567   -1.7465 H   0  0  0  0  0  0  0  0  0  0  0  0
   -8.6715    2.3880   -0.3458 H   0  0  0  0  0  0  0  0  0  0  0  0
    6.8923    4.1145   -0.4537 H   0  0  0  0  0  0  0  0  0  0  0  0
    5.2152    4.6165   -0.7720 H   0  0  0  0  0  0  0  0  0  0  0  0
    5.7845    4.4835    0.8889 H   0  0  0  0  0  0  0  0  0  0  0  0
  1  4  2  0  0  0  0
  1  5  2  0  0  0  0
  1  7  1  0  0  0  0
  1 16  1  0  0  0  0
  2 11  1  0  0  0  0
  2 12  1  0  0  0  0
  3 10  1  0  0  0  0
  3 36  1  0  0  0  0
  6  9  1  0  0  0  0
  6 14  1  0  0  0  0
  6 34  1  0  0  0  0
  7 13  1  0  0  0  0
  7 35  1  0  0  0  0
  8 15  1  0  0  0  0
  8 24  2  0  0  0  0
  9 10  1  0  0  0  0
  9 12  1  0  0  0  0
  9 27  1  0  0  0  0
 10 11  1  0  0  0  0
 10 28  1  0  0  0  0
 11 13  1  0  0  0  0
 11 29  1  0  0  0  0
 12 30  1  0  0  0  0
 12 31  1  0  0  0  0
 13 32  1  0  0  0  0
 13 33  1  0  0  0  0
 14 15  1  0  0  0  0
 14 37  1  0  0  0  0
 14 38  1  0  0  0  0
 15 17  2  0  0  0  0
 16 18  2  0  0  0  0
 16 19  1  0  0  0  0
 17 23  1  0  0  0  0
 17 39  1  0  0  0  0
 18 20  1  0  0  0  0
 18 40  1  0  0  0  0
 19 21  2  0  0  0  0
 19 41  1  0  0  0  0
 20 22  2  0  0  0  0
 20 42  1  0  0  0  0
 21 22  1  0  0  0  0
 21 43  1  0  0  0  0
 22 26  1  0  0  0  0
 23 25  2  0  0  0  0
 23 44  1  0  0  0  0
 24 25  1  0  0  0  0
 24 45  1  0  0  0  0
 25 46  1  0  0  0  0
 26 47  1  0  0  0  0
 26 48  1  0  0  0  0
 26 49  1  0  0  0  0
M  END
> <PUBCHEM_COMPOUND_CID>
75536705

> <PUBCHEM_CONFORMER_RMSD>
1.2

> <PUBCHEM_CONFORMER_DIVERSEORDER>
1
104
49
73
99
155
45
144
86
27
38
142
111
17
39
40
51
35
57
37
12
120
26
110
8
15
80
138
146
50
145
79
76
66
133
46
150
94
112
64
72
61
18
137
116
115
107
113
128
95
67
42
58
5
48
122
13
69
59
47
54
82
28
140
91
131
7
154
56
62
55
88
92
11
152
14
71
3
81
123
87
109
22
125
141
70
41
147
29
106
77
114
32
36
21
127
135
30
98
43
52
129
149
6
124
25
101
63
78
65
102
148
34
4
23
74
126
44
139
136
2
31
151
100
60
134
130
33
9
103
83
96
119
68
53
90
108
105
132
19
143
10
121
16
85
24
117
118
84
153
75
20
93
89
156
97

> <PUBCHEM_MMFF94_PARTIAL_CHARGES>
37
1 1.45
10 0.28
11 0.28
12 0.28
13 0.36
14 0.41
15 0.17
16 -0.01
17 -0.15
18 -0.15
19 -0.15
2 -0.56
20 -0.15
21 -0.15
22 -0.14
23 -0.15
24 0.16
25 -0.15
26 0.14
3 -0.68
34 0.36
35 0.42
36 0.4
39 0.15
4 -0.65
40 0.15
41 0.15
42 0.15
43 0.15
44 0.15
45 0.15
46 0.15
5 -0.65
6 -0.9
7 -0.91
8 -0.62
9 0.27

> <PUBCHEM_EFFECTIVE_ROTOR_COUNT>
8

> <PUBCHEM_PHARMACOPHORE_FEATURES>
12
1 2 acceptor
1 3 acceptor
1 3 donor
1 4 acceptor
1 5 acceptor
1 6 cation
1 6 donor
1 7 donor
1 8 acceptor
5 2 9 10 11 12 rings
6 16 18 19 20 21 22 rings
6 8 15 17 23 24 25 rings

> <PUBCHEM_HEAVY_ATOM_COUNT>
26

> <PUBCHEM_ATOM_DEF_STEREO_COUNT>
3

> <PUBCHEM_ATOM_UDEF_STEREO_COUNT>
0

> <PUBCHEM_BOND_DEF_STEREO_COUNT>
0

> <PUBCHEM_BOND_UDEF_STEREO_COUNT>
0

> <PUBCHEM_ISOTOPIC_ATOM_COUNT>
0

> <PUBCHEM_COMPONENT_COUNT>
1

> <PUBCHEM_CACTVS_TAUTO_COUNT>
1

> <PUBCHEM_CONFORMER_ID>
0480994100000001

> <PUBCHEM_MMFF94_ENERGY>
47.4553

> <PUBCHEM_FEATURE_SELFOVERLAP>
60.916

> <PUBCHEM_SHAPE_FINGERPRINT>
10 15 16298110886809107823
10280341 67 17770773813639502960
10554248 39 17916861318703923863
10638233 991 18410576150427028033
10673678 19 18272374191276899246
11135609 127 18341887507055459272
11386260 185 18201166464541507796
11408170 132 14045191693462715177
11991303 11 16559022823064356733
125118 31 18336265656974402065
12539765 74 17988088790670240623
13533116 47 17895193234439481762
13668630 136 12463277104401222397
13782708 43 9223231832485723283
13878862 14 18409157806080962884
13944108 23 18410859889126719648
14251757 52 18411979152859963193
14347332 77 10519717665216081947
14565420 104 18113332016178604402
15131766 46 18198333160236431972
15183329 4 17632860819729623697
15475509 35 11025796531010623028
155225 6 18044944708446375812
15840311 113 18335706005750699021
18335252 114 18201725055240201908
1979834 28 14996277007704110586
20058555 10 18411702084646818473
20157964 124 18412265021382554130
20281389 69 18261110734601943373
20715895 44 18335985350323488432
20771845 171 17561086856689475743
21130935 74 18113338605096578667
21150785 3 17132111364536334031
21298829 104 18338237171280285276
21344244 181 11671780481422601717
21521239 73 11887669563887440557
21585482 111 18334576858348479644
21641784 216 16271935869943163747
21792934 111 16081355320778329495
22122407 14 18411711984044873633
2303208 19 10952053325480972467
23081809 10 18131346393724789719
23559900 14 17458355143553635594
249057 25 17774729636455968851
27425 322 18412261752886640366
2748736 6 18409164437347197321
2838139 119 18410854322505465757
328310 630 18202008707691602217
33382 64 8862942770957769351
33532 11 9295283946404234009
3472631 163 18202285852929639900
34797466 226 18272093768889182983
3711267 37 18129670678365719401
397830 11 18114474447868074515
4169191 19 18409449223949687973
44555599 121 18271812263921548129
465052 167 8142095256002446496
5104073 3 17822009851984324794
5372103 7 16270783724198447136
5718773 13 10087377603195217108
6328613 192 18413670210623424705
6898599 12 18129099094673068175

> <PUBCHEM_SHAPE_MULTIPOLES>
500.5
23.1
3.19
1.34
29.96
2.22
0.16
18.11
0.1
-6.15
-0.09
-0.28
-0.21
-0.62

> <PUBCHEM_SHAPE_SELFOVERLAP>
1040.157

> <PUBCHEM_SHAPE_VOLUME>
286.3

> <PUBCHEM_COORDINATE_TYPE>
2
5
10

$$$$
