11882527
  -OEChem-12032416223D

 44 45  0     1  0  0  0  0  0999 V2000
   -3.4994    1.6375    0.0165 S   0  0  0  0  0  0  0  0  0  0  0  0
   -5.0867   -0.6005   -0.9931 S   0  0  0  0  0  0  0  0  0  0  0  0
   -0.7979   -0.7498   -2.2986 O   0  0  0  0  0  0  0  0  0  0  0  0
   -0.0467   -2.3424    0.9076 O   0  0  0  0  0  0  0  0  0  0  0  0
   -4.3515    2.4034   -0.8724 O   0  0  0  0  0  0  0  0  0  0  0  0
   -3.1323    2.1389    1.3265 O   0  0  0  0  0  0  0  0  0  0  0  0
    2.5666    2.0761    0.9961 O   0  0  0  0  0  0  0  0  0  0  0  0
    5.6040   -1.3794   -0.6739 O   0  0  0  0  0  0  0  0  0  0  0  0
   -2.0780    1.1763   -0.8137 N   0  0  0  0  0  0  0  0  0  0  0  0
    3.6397    0.7447   -0.5883 N   0  0  0  0  0  0  0  0  0  0  0  0
    6.9076   -1.3157    1.2183 N   0  0  0  0  0  0  0  0  0  0  0  0
   -0.9919   -1.0441   -0.9135 C   0  0  2  0  0  0  0  0  0  0  0  0
   -1.1358    0.2657   -0.1167 C   0  0  1  0  0  0  0  0  0  0  0  0
    0.1996   -1.8725   -0.4162 C   0  0  1  0  0  0  0  0  0  0  0  0
    1.5156   -1.0761   -0.4570 C   0  0  0  0  0  0  0  0  0  0  0  0
    1.3540    0.3645   -0.0617 C   0  0  0  0  0  0  0  0  0  0  0  0
    0.1717    0.9769    0.1020 C   0  0  0  0  0  0  0  0  0  0  0  0
    2.5647    1.1541    0.1813 C   0  0  0  0  0  0  0  0  0  0  0  0
   -4.4123    0.1380    0.3793 C   0  0  0  0  0  0  0  0  0  0  0  0
    4.9399    1.3726   -0.5258 C   0  0  0  0  0  0  0  0  0  0  0  0
   -4.6640   -0.5136    1.5395 C   0  0  0  0  0  0  0  0  0  0  0  0
    5.8431    0.7249    0.5146 C   0  0  0  0  0  0  0  0  0  0  0  0
   -5.4486   -1.6804    1.3096 C   0  0  0  0  0  0  0  0  0  0  0  0
   -5.7493   -1.8472   -0.0243 C   0  0  0  0  0  0  0  0  0  0  0  0
    6.0877   -0.7522    0.2638 C   0  0  0  0  0  0  0  0  0  0  0  0
   -1.9212   -1.6187   -0.8257 H   0  0  0  0  0  0  0  0  0  0  0  0
   -1.5190    0.0251    0.8826 H   0  0  0  0  0  0  0  0  0  0  0  0
    0.3267   -2.7605   -1.0474 H   0  0  0  0  0  0  0  0  0  0  0  0
    2.2510   -1.5623    0.1954 H   0  0  0  0  0  0  0  0  0  0  0  0
    1.8858   -1.1193   -1.4887 H   0  0  0  0  0  0  0  0  0  0  0  0
    0.1185    2.0171    0.4144 H   0  0  0  0  0  0  0  0  0  0  0  0
   -2.1279    1.0603   -1.8340 H   0  0  0  0  0  0  0  0  0  0  0  0
   -0.7401   -1.5971   -2.7722 H   0  0  0  0  0  0  0  0  0  0  0  0
   -0.8751   -2.8512    0.8883 H   0  0  0  0  0  0  0  0  0  0  0  0
    3.5460   -0.0087   -1.2594 H   0  0  0  0  0  0  0  0  0  0  0  0
    4.8131    2.4363   -0.2973 H   0  0  0  0  0  0  0  0  0  0  0  0
    5.3834    1.2892   -1.5239 H   0  0  0  0  0  0  0  0  0  0  0  0
   -4.3154   -0.1935    2.5126 H   0  0  0  0  0  0  0  0  0  0  0  0
    5.3983    0.8279    1.5120 H   0  0  0  0  0  0  0  0  0  0  0  0
    6.8123    1.2370    0.5245 H   0  0  0  0  0  0  0  0  0  0  0  0
   -5.7756   -2.3630    2.0832 H   0  0  0  0  0  0  0  0  0  0  0  0
   -6.3261   -2.6418   -0.4763 H   0  0  0  0  0  0  0  0  0  0  0  0
    7.1546   -2.2990    1.1793 H   0  0  0  0  0  0  0  0  0  0  0  0
    7.2940   -0.7782    1.9878 H   0  0  0  0  0  0  0  0  0  0  0  0
  1  5  2  0  0  0  0
  1  6  2  0  0  0  0
  1  9  1  0  0  0  0
  1 19  1  0  0  0  0
  2 19  1  0  0  0  0
  2 24  1  0  0  0  0
  3 12  1  0  0  0  0
  3 33  1  0  0  0  0
  4 14  1  0  0  0  0
  4 34  1  0  0  0  0
  7 18  2  0  0  0  0
  8 25  2  0  0  0  0
  9 13  1  0  0  0  0
  9 32  1  0  0  0  0
 10 18  1  0  0  0  0
 10 20  1  0  0  0  0
 10 35  1  0  0  0  0
 11 25  1  0  0  0  0
 11 43  1  0  0  0  0
 11 44  1  0  0  0  0
 12 13  1  0  0  0  0
 12 14  1  0  0  0  0
 12 26  1  0  0  0  0
 13 17  1  0  0  0  0
 13 27  1  0  0  0  0
 14 15  1  0  0  0  0
 14 28  1  0  0  0  0
 15 16  1  0  0  0  0
 15 29  1  0  0  0  0
 15 30  1  0  0  0  0
 16 17  2  0  0  0  0
 16 18  1  0  0  0  0
 17 31  1  0  0  0  0
 19 21  2  0  0  0  0
 20 22  1  0  0  0  0
 20 36  1  0  0  0  0
 20 37  1  0  0  0  0
 21 23  1  0  0  0  0
 21 38  1  0  0  0  0
 22 25  1  0  0  0  0
 22 39  1  0  0  0  0
 22 40  1  0  0  0  0
 23 24  2  0  0  0  0
 23 41  1  0  0  0  0
 24 42  1  0  0  0  0
M  END
> <PUBCHEM_COMPOUND_CID>
11882527

> <PUBCHEM_CONFORMER_RMSD>
1

> <PUBCHEM_CONFORMER_DIVERSEORDER>
1
34
55
199
155
180
166
195
182
16
220
111
218
22
231
212
135
201
159
209
177
160
142
213
60
43
121
96
148
146
102
21
50
226
185
78
11
64
112
227
66
23
170
186
69
219
162
203
76
136
124
75
205
83
232
95
211
179
175
79
202
54
138
116
224
89
131
61
38
47
158
7
125
67
204
197
189
210
53
172
221
103
223
106
44
100
228
8
36
191
118
176
19
119
194
206
216
98
183
178
84
134
173
167
17
105
90
85
156
35
117
3
215
37
68
130
157
29
123
33
165
51
82
128
229
63
222
144
40
58
122
70
196
168
77
65
198
62
214
126
187
181
81
217
147
149
127
140
80
115
57
133
207
193
6
145
42
154
87
25
129
171
107
169
174
110
88
30
208
200
153
184
14
10
27
192
71
49
139
28
150
24
137
91
109
5
93
97
151
143
46
190
4
104
225
161
73
15
31
152
20
52
56
163
132
113
39
2
41
9
164
32
92
48
74
72
18
45
114
101
141
94
108
12
86
26
188
59
230
99
13
120

> <PUBCHEM_MMFF94_PARTIAL_CHARGES>
35
1 1.5
10 -0.73
11 -0.8
12 0.28
13 0.49
14 0.28
15 0.14
16 -0.12
17 -0.29
18 0.62
19 -0.02
2 -0.08
20 0.3
21 -0.15
22 0.06
23 -0.15
24 -0.11
25 0.57
3 -0.68
31 0.15
32 0.42
33 0.4
34 0.4
35 0.37
38 0.15
4 -0.68
41 0.15
42 0.15
43 0.37
44 0.37
5 -0.65
6 -0.65
7 -0.57
8 -0.57
9 -0.91

> <PUBCHEM_EFFECTIVE_ROTOR_COUNT>
8.8

> <PUBCHEM_PHARMACOPHORE_FEATURES>
13
1 10 donor
1 11 donor
1 3 acceptor
1 3 donor
1 4 acceptor
1 4 donor
1 5 acceptor
1 6 acceptor
1 7 acceptor
1 8 acceptor
1 9 donor
5 2 19 21 23 24 rings
6 12 13 14 15 16 17 rings

> <PUBCHEM_HEAVY_ATOM_COUNT>
25

> <PUBCHEM_ATOM_DEF_STEREO_COUNT>
3

> <PUBCHEM_ATOM_UDEF_STEREO_COUNT>
0

> <PUBCHEM_BOND_DEF_STEREO_COUNT>
0

> <PUBCHEM_BOND_UDEF_STEREO_COUNT>
0

> <PUBCHEM_ISOTOPIC_ATOM_COUNT>
0

> <PUBCHEM_COMPONENT_COUNT>
1

> <PUBCHEM_CACTVS_TAUTO_COUNT>
4

> <PUBCHEM_CONFORMER_ID>
00B5501F00000001

> <PUBCHEM_MMFF94_ENERGY>
34.52

> <PUBCHEM_FEATURE_SELFOVERLAP>
65.999

> <PUBCHEM_SHAPE_FINGERPRINT>
11488393 25 17630622127829539847
11578080 2 17170379724917447943
11646440 116 17418095421226289504
12166972 35 18186805815574224180
13073987 5 18342175566523399240
13533116 47 17917997162087764370
13782708 43 18260833695941704522
13862211 1 18412261761312134662
14251764 18 18410572908122221948
14787075 74 18268996552150000617
14955137 171 18260830423008203564
15183329 4 17632296787386194196
17980427 23 17167874071183344261
18222031 100 15791731927586555084
18769570 83 14045749213591446299
18927931 339 18186807985117510699
21236236 1 18409450284726839009
21279426 13 18339646620890933910
21304303 64 12535343515036676066
21424621 283 13829866707121969419
21682296 61 18341902835725654222
21756936 100 15698004029049310795
23559900 14 18259979375691648753
3004659 81 18410015421536103980
3383291 50 18413105061621153754
350125 39 18413109493335435988
392239 28 18270975625830128361
474229 33 18410014377088988911
504579 68 10015592752960957040
5104073 3 18270407066074477059
6081469 158 18187921816398581311
7226269 152 9078847272656466695
9996256 80 18342174500754162350

> <PUBCHEM_SHAPE_MULTIPOLES>
472.03
16.07
2.34
1.3
13.65
0.26
-0.09
-3.78
3.66
-1.08
0.26
-0.9
-0.21
0.26

> <PUBCHEM_SHAPE_SELFOVERLAP>
953.946

> <PUBCHEM_SHAPE_VOLUME>
275

> <PUBCHEM_COORDINATE_TYPE>
2
5
10

$$$$
