40779908
  -OEChem-12032416203D

 63 66  0     1  0  0  0  0  0999 V2000
   -7.5033    2.2958   -0.2294 F   0  0  0  0  0  0  0  0  0  0  0  0
   -8.0760    0.2825   -0.8181 F   0  0  0  0  0  0  0  0  0  0  0  0
   -6.9311    1.5346   -2.1780 F   0  0  0  0  0  0  0  0  0  0  0  0
    4.2210    3.9883    0.5614 O   0  0  0  0  0  0  0  0  0  0  0  0
   -2.2390   -1.8175    2.2360 O   0  0  0  0  0  0  0  0  0  0  0  0
    2.0741   -2.5795    0.9944 N   0  0  2  0  0  0  0  0  0  0  0  0
    4.8917    0.4839   -0.4632 N   0  0  2  0  0  0  0  0  0  0  0  0
   -1.0047   -0.3906    0.8896 N   0  0  0  0  0  0  0  0  0  0  0  0
    2.2907   -2.1289   -1.5584 C   0  0  2  0  0  0  0  0  0  0  0  0
    3.4696   -1.4961   -0.7844 C   0  0  2  0  0  0  0  0  0  0  0  0
    0.9636   -1.5751   -1.0081 C   0  0  0  0  0  0  0  0  0  0  0  0
    0.8114   -1.9906    0.4721 C   0  0  2  0  0  0  0  0  0  0  0  0
    3.2144   -1.6691    0.7297 C   0  0  0  0  0  0  0  0  0  0  0  0
    2.3156   -3.6393   -1.2549 C   0  0  0  0  0  0  0  0  0  0  0  0
    2.3194   -3.8500    0.2696 C   0  0  0  0  0  0  0  0  0  0  0  0
    3.7151   -0.0342   -1.1508 C   0  0  0  0  0  0  0  0  0  0  0  0
    0.3047   -0.8347    1.3377 C   0  0  0  0  0  0  0  0  0  0  0  0
    4.9573    1.9519   -0.4475 C   0  0  2  0  0  0  0  0  0  0  0  0
    6.1291    0.0577   -1.1213 C   0  0  0  0  0  0  0  0  0  0  0  0
    6.4170    2.2185   -0.0737 C   0  0  0  0  0  0  0  0  0  0  0  0
    7.1802    0.9766   -0.5209 C   0  0  0  0  0  0  0  0  0  0  0  0
    3.9940    2.5901    0.5453 C   0  0  0  0  0  0  0  0  0  0  0  0
   -2.1740   -0.9315    1.3880 C   0  0  0  0  0  0  0  0  0  0  0  0
   -3.4293   -0.3883    0.8082 C   0  0  0  0  0  0  0  0  0  0  0  0
    3.3517    4.6522    1.4715 C   0  0  0  0  0  0  0  0  0  0  0  0
   -4.5809   -1.1750    0.7772 C   0  0  0  0  0  0  0  0  0  0  0  0
   -3.4563    0.9081    0.2941 C   0  0  0  0  0  0  0  0  0  0  0  0
   -5.7592   -0.6653    0.2321 C   0  0  0  0  0  0  0  0  0  0  0  0
   -4.6346    1.4178   -0.2510 C   0  0  0  0  0  0  0  0  0  0  0  0
   -5.7860    0.6312   -0.2821 C   0  0  0  0  0  0  0  0  0  0  0  0
   -7.0459    1.1766   -0.8649 C   0  0  0  0  0  0  0  0  0  0  0  0
    2.3737   -1.9504   -2.6356 H   0  0  0  0  0  0  0  0  0  0  0  0
    4.3649   -2.0755   -1.0500 H   0  0  0  0  0  0  0  0  0  0  0  0
    0.9243   -0.4889   -1.1395 H   0  0  0  0  0  0  0  0  0  0  0  0
    0.1282   -1.9893   -1.5870 H   0  0  0  0  0  0  0  0  0  0  0  0
    0.0400   -2.7733    0.5226 H   0  0  0  0  0  0  0  0  0  0  0  0
    4.1158   -2.0813    1.2024 H   0  0  0  0  0  0  0  0  0  0  0  0
    3.0482   -0.7114    1.2352 H   0  0  0  0  0  0  0  0  0  0  0  0
    3.2047   -4.1037   -1.6972 H   0  0  0  0  0  0  0  0  0  0  0  0
    1.4394   -4.1253   -1.7009 H   0  0  0  0  0  0  0  0  0  0  0  0
    1.5588   -4.5909    0.5456 H   0  0  0  0  0  0  0  0  0  0  0  0
    3.2768   -4.2807    0.5895 H   0  0  0  0  0  0  0  0  0  0  0  0
    2.8321    0.5438   -0.8613 H   0  0  0  0  0  0  0  0  0  0  0  0
    3.8031    0.0805   -2.2391 H   0  0  0  0  0  0  0  0  0  0  0  0
    0.9624    0.0387    1.2849 H   0  0  0  0  0  0  0  0  0  0  0  0
    0.2337   -1.1433    2.3870 H   0  0  0  0  0  0  0  0  0  0  0  0
    4.7822    2.3645   -1.4516 H   0  0  0  0  0  0  0  0  0  0  0  0
    6.0899    0.2095   -2.2077 H   0  0  0  0  0  0  0  0  0  0  0  0
    6.3727   -0.9909   -0.9253 H   0  0  0  0  0  0  0  0  0  0  0  0
    6.5500    2.3578    1.0060 H   0  0  0  0  0  0  0  0  0  0  0  0
    6.7966    3.1165   -0.5735 H   0  0  0  0  0  0  0  0  0  0  0  0
    7.9634    1.2204   -1.2458 H   0  0  0  0  0  0  0  0  0  0  0  0
    7.6592    0.5051    0.3453 H   0  0  0  0  0  0  0  0  0  0  0  0
    4.1495    2.1811    1.5517 H   0  0  0  0  0  0  0  0  0  0  0  0
    2.9541    2.4025    0.2567 H   0  0  0  0  0  0  0  0  0  0  0  0
   -1.0211    0.2926    0.1403 H   0  0  0  0  0  0  0  0  0  0  0  0
    3.5742    5.7221    1.4404 H   0  0  0  0  0  0  0  0  0  0  0  0
    3.5160    4.2903    2.4910 H   0  0  0  0  0  0  0  0  0  0  0  0
    2.3071    4.5036    1.1814 H   0  0  0  0  0  0  0  0  0  0  0  0
   -4.5786   -2.1889    1.1685 H   0  0  0  0  0  0  0  0  0  0  0  0
   -2.5932    1.5663    0.3277 H   0  0  0  0  0  0  0  0  0  0  0  0
   -6.6449   -1.2943    0.2166 H   0  0  0  0  0  0  0  0  0  0  0  0
   -4.6484    2.4315   -0.6427 H   0  0  0  0  0  0  0  0  0  0  0  0
  1 31  1  0  0  0  0
  2 31  1  0  0  0  0
  3 31  1  0  0  0  0
  4 22  1  0  0  0  0
  4 25  1  0  0  0  0
  5 23  2  0  0  0  0
  6 12  1  0  0  0  0
  6 13  1  0  0  0  0
  6 15  1  0  0  0  0
  7 16  1  0  0  0  0
  7 18  1  0  0  0  0
  7 19  1  0  0  0  0
  8 17  1  0  0  0  0
  8 23  1  0  0  0  0
  8 56  1  0  0  0  0
  9 10  1  0  0  0  0
  9 11  1  0  0  0  0
  9 14  1  0  0  0  0
  9 32  1  0  0  0  0
 10 13  1  0  0  0  0
 10 16  1  0  0  0  0
 10 33  1  0  0  0  0
 11 12  1  0  0  0  0
 11 34  1  0  0  0  0
 11 35  1  0  0  0  0
 12 17  1  0  0  0  0
 12 36  1  0  0  0  0
 13 37  1  0  0  0  0
 13 38  1  0  0  0  0
 14 15  1  0  0  0  0
 14 39  1  0  0  0  0
 14 40  1  0  0  0  0
 15 41  1  0  0  0  0
 15 42  1  0  0  0  0
 16 43  1  0  0  0  0
 16 44  1  0  0  0  0
 17 45  1  0  0  0  0
 17 46  1  0  0  0  0
 18 20  1  0  0  0  0
 18 22  1  0  0  0  0
 18 47  1  0  0  0  0
 19 21  1  0  0  0  0
 19 48  1  0  0  0  0
 19 49  1  0  0  0  0
 20 21  1  0  0  0  0
 20 50  1  0  0  0  0
 20 51  1  0  0  0  0
 21 52  1  0  0  0  0
 21 53  1  0  0  0  0
 22 54  1  0  0  0  0
 22 55  1  0  0  0  0
 23 24  1  0  0  0  0
 24 26  2  0  0  0  0
 24 27  1  0  0  0  0
 25 57  1  0  0  0  0
 25 58  1  0  0  0  0
 25 59  1  0  0  0  0
 26 28  1  0  0  0  0
 26 60  1  0  0  0  0
 27 29  2  0  0  0  0
 27 61  1  0  0  0  0
 28 30  2  0  0  0  0
 28 62  1  0  0  0  0
 29 30  1  0  0  0  0
 29 63  1  0  0  0  0
 30 31  1  0  0  0  0
M  END
> <PUBCHEM_COMPOUND_CID>
40779908

> <PUBCHEM_CONFORMER_RMSD>
1

> <PUBCHEM_CONFORMER_DIVERSEORDER>
1
17
31
16
67
84
10
6
44
75
40
8
63
78
69
59
49
41
79
48
53
65
54
3
42
33
5
72
66
47
61
76
28
46
14
85
2
9
55
43
80
60
36
20
51
56
18
68
37
15
71
74
86
22
13
12
83
32
81
64
70
27
26
11
62
45
21
82
25
58
7
52
50
73
35
23
4
34
29
39
24
57
30
19
38
77

> <PUBCHEM_MMFF94_PARTIAL_CHARGES>
30
1 -0.34
12 0.27
13 0.27
15 0.27
16 0.27
17 0.3
18 0.27
19 0.27
2 -0.34
22 0.28
23 0.54
24 0.09
25 0.28
26 -0.15
27 -0.15
28 -0.15
29 -0.15
3 -0.34
30 -0.14
31 1.16
4 -0.56
5 -0.57
56 0.37
6 -0.81
60 0.15
61 0.15
62 0.15
63 0.15
7 -0.81
8 -0.73

> <PUBCHEM_EFFECTIVE_ROTOR_COUNT>
11.2

> <PUBCHEM_PHARMACOPHORE_FEATURES>
8
1 4 acceptor
1 5 acceptor
1 6 cation
1 7 cation
1 8 donor
5 7 18 19 20 21 rings
6 24 26 27 28 29 30 rings
8 6 9 10 11 12 13 14 15 rings

> <PUBCHEM_HEAVY_ATOM_COUNT>
31

> <PUBCHEM_ATOM_DEF_STEREO_COUNT>
4

> <PUBCHEM_ATOM_UDEF_STEREO_COUNT>
0

> <PUBCHEM_BOND_DEF_STEREO_COUNT>
0

> <PUBCHEM_BOND_UDEF_STEREO_COUNT>
0

> <PUBCHEM_ISOTOPIC_ATOM_COUNT>
0

> <PUBCHEM_COMPONENT_COUNT>
1

> <PUBCHEM_CACTVS_TAUTO_COUNT>
2

> <PUBCHEM_CONFORMER_ID>
026E408400000001

> <PUBCHEM_MMFF94_ENERGY>
69.5727

> <PUBCHEM_FEATURE_SELFOVERLAP>
40.596

> <PUBCHEM_SHAPE_FINGERPRINT>
10811444 77 18339082687205911444
10835480 77 18408324363572013231
11135609 127 18337382756334811263
11409948 41 17417259702601705358
11479125 193 17986665085466900952
12769317 202 18342181076907911146
12838862 33 18201997773074417408
13150687 139 17988374719454242894
13402501 40 18334862740245920060
13673619 4 11312057638407585074
13911987 19 17989492913830988091
14556957 393 17060353919803542921
14739800 52 17968087612385701091
14767858 380 16988850474924603922
15003188 100 18271533095400056684
15082195 135 18200875071778272921
15276724 80 18267306426975301821
15289351 153 18412263901297786896
15320295 198 18336554918563517628
15890870 6 18410578422834291764
15961568 22 18187086147946936508
15979999 66 18125734379298306222
16120349 189 18264775527200853660
18335252 114 18343303652689414686
19304152 47 17109605714747703352
20511986 3 17821723919290580371
20554085 129 17313101960219533763
20567600 254 18409736183783797054
20737093 193 14110993357484037856
20737093 207 13901090812519931492
21033648 29 17458355142799008466
21344244 78 18048862023821137794
21403212 168 18335419072303539194
21475661 188 18264212572952451560
21968339 14 18341051826905764078
23522609 53 17416987057929464137
2838139 119 18339363088661863390
3459 39 17023172847366909061
34797466 226 18342743966816569511
3918712 181 18187374263492057772
59755656 215 18334295366075348156
6371009 1 18273220820195433856

> <PUBCHEM_SHAPE_MULTIPOLES>
589.46
20.5
4.58
1.52
27.31
1.89
-0.04
16.77
7.83
-7.3
-0.91
0.77
-0.27
2.87

> <PUBCHEM_SHAPE_SELFOVERLAP>
1245.225

> <PUBCHEM_SHAPE_VOLUME>
333

> <PUBCHEM_COORDINATE_TYPE>
2
5
10

$$$$
