7049403
  -OEChem-12032416123D

 65 67  0     1  0  0  0  0  0999 V2000
    3.6605   -1.4570   -2.4806 F   0  0  0  0  0  0  0  0  0  0  0  0
    7.8678   -2.0688   -0.4059 F   0  0  0  0  0  0  0  0  0  0  0  0
   -1.6700    0.9488   -0.9970 O   0  0  0  0  0  0  0  0  0  0  0  0
   -4.5980    0.5655   -0.1745 O   0  0  0  0  0  0  0  0  0  0  0  0
    1.9933   -1.6218    2.3024 O   0  0  0  0  0  0  0  0  0  0  0  0
    0.2543    5.6713   -0.9037 O   0  0  0  0  0  0  0  0  0  0  0  0
   -0.8102    5.1970    1.0775 O   0  0  0  0  0  0  0  0  0  0  0  0
   -2.8469   -0.5523    0.8287 N   0  0  0  0  0  0  0  0  0  0  0  0
    0.2364   -1.3219    0.8294 N   0  0  0  0  0  0  0  0  0  0  0  0
   -0.8891    2.5130    0.5406 N   0  0  0  0  0  0  0  0  0  0  0  0
   -4.9697   -2.1894   -1.4601 N   0  0  0  0  0  0  0  0  0  0  0  0
    2.3682   -1.4959   -0.0115 N   0  0  0  0  0  0  0  0  0  0  0  0
   -2.1821    0.6481    1.3154 C   0  0  1  0  0  0  0  0  0  0  0  0
   -0.8093   -1.2784    1.8199 C   0  0  1  0  0  0  0  0  0  0  0  0
   -1.1142    0.1480    2.2861 C   0  0  0  0  0  0  0  0  0  0  0  0
   -2.1411   -1.7625    1.2564 C   0  0  0  0  0  0  0  0  0  0  0  0
   -1.5704    1.3701    0.1523 C   0  0  0  0  0  0  0  0  0  0  0  0
   -4.0684   -0.4976    0.1513 C   0  0  0  0  0  0  0  0  0  0  0  0
   -0.1935    3.3723   -0.3853 C   0  0  2  0  0  0  0  0  0  0  0  0
   -4.6816   -1.7760   -0.1856 C   0  0  0  0  0  0  0  0  0  0  0  0
    1.2757    2.9461   -0.5963 C   0  0  0  0  0  0  0  0  0  0  0  0
    1.5895   -1.4941    1.1490 C   0  0  0  0  0  0  0  0  0  0  0  0
   -0.2917    4.8373    0.0254 C   0  0  0  0  0  0  0  0  0  0  0  0
   -5.0748   -2.7724    0.6803 C   0  0  0  0  0  0  0  0  0  0  0  0
    1.9843    2.7157    0.7419 C   0  0  0  0  0  0  0  0  0  0  0  0
    1.4251    1.7078   -1.4866 C   0  0  0  0  0  0  0  0  0  0  0  0
   -5.5401   -3.4350   -1.4208 C   0  0  0  0  0  0  0  0  0  0  0  0
   -5.6181   -3.8220   -0.1012 C   0  0  0  0  0  0  0  0  0  0  0  0
   -4.7167   -1.4401   -2.6712 C   0  0  0  0  0  0  0  0  0  0  0  0
    3.7712   -1.6429   -0.1153 C   0  0  0  0  0  0  0  0  0  0  0  0
    0.2008    7.0680   -0.5947 C   0  0  0  0  0  0  0  0  0  0  0  0
    4.3879   -1.6185   -1.3662 C   0  0  0  0  0  0  0  0  0  0  0  0
    4.5383   -1.8118    1.0374 C   0  0  0  0  0  0  0  0  0  0  0  0
    5.7717   -1.7627   -1.4645 C   0  0  0  0  0  0  0  0  0  0  0  0
    5.9221   -1.9562    0.9390 C   0  0  0  0  0  0  0  0  0  0  0  0
    6.5389   -1.9317   -0.3119 C   0  0  0  0  0  0  0  0  0  0  0  0
   -2.9092    1.3100    1.7994 H   0  0  0  0  0  0  0  0  0  0  0  0
   -0.4968   -1.9044    2.6630 H   0  0  0  0  0  0  0  0  0  0  0  0
   -1.5583    0.0954    3.2890 H   0  0  0  0  0  0  0  0  0  0  0  0
   -0.2193    0.7711    2.3593 H   0  0  0  0  0  0  0  0  0  0  0  0
   -2.7313   -2.2195    2.0572 H   0  0  0  0  0  0  0  0  0  0  0  0
   -2.0458   -2.4701    0.4271 H   0  0  0  0  0  0  0  0  0  0  0  0
   -0.0126   -1.1661   -0.1426 H   0  0  0  0  0  0  0  0  0  0  0  0
   -0.8839    2.7758    1.5221 H   0  0  0  0  0  0  0  0  0  0  0  0
   -0.7240    3.3081   -1.3449 H   0  0  0  0  0  0  0  0  0  0  0  0
    1.8105    3.7554   -1.1097 H   0  0  0  0  0  0  0  0  0  0  0  0
   -4.9999   -2.7501    1.7587 H   0  0  0  0  0  0  0  0  0  0  0  0
    1.5985    1.8366    1.2661 H   0  0  0  0  0  0  0  0  0  0  0  0
    1.8841    3.5840    1.4011 H   0  0  0  0  0  0  0  0  0  0  0  0
    3.0553    2.5499    0.5792 H   0  0  0  0  0  0  0  0  0  0  0  0
    0.9822    0.8238   -1.0257 H   0  0  0  0  0  0  0  0  0  0  0  0
    0.9415    1.8670   -2.4559 H   0  0  0  0  0  0  0  0  0  0  0  0
    2.4826    1.4919   -1.6730 H   0  0  0  0  0  0  0  0  0  0  0  0
    1.8766   -1.3841   -0.8946 H   0  0  0  0  0  0  0  0  0  0  0  0
   -5.8452   -3.9431   -2.3257 H   0  0  0  0  0  0  0  0  0  0  0  0
   -6.0258   -4.7563    0.2581 H   0  0  0  0  0  0  0  0  0  0  0  0
   -4.8911   -2.0803   -3.5399 H   0  0  0  0  0  0  0  0  0  0  0  0
   -3.6756   -1.1071   -2.6657 H   0  0  0  0  0  0  0  0  0  0  0  0
   -5.3979   -0.5860   -2.6946 H   0  0  0  0  0  0  0  0  0  0  0  0
    0.6689    7.6160   -1.4167 H   0  0  0  0  0  0  0  0  0  0  0  0
    0.7561    7.2734    0.3255 H   0  0  0  0  0  0  0  0  0  0  0  0
   -0.8389    7.3956   -0.5011 H   0  0  0  0  0  0  0  0  0  0  0  0
    4.1359   -1.8413    2.0398 H   0  0  0  0  0  0  0  0  0  0  0  0
    6.2520   -1.7433   -2.4382 H   0  0  0  0  0  0  0  0  0  0  0  0
    6.5210   -2.0874    1.8355 H   0  0  0  0  0  0  0  0  0  0  0  0
  1 32  1  0  0  0  0
  2 36  1  0  0  0  0
  3 17  2  0  0  0  0
  4 18  2  0  0  0  0
  5 22  2  0  0  0  0
  6 23  1  0  0  0  0
  6 31  1  0  0  0  0
  7 23  2  0  0  0  0
  8 13  1  0  0  0  0
  8 16  1  0  0  0  0
  8 18  1  0  0  0  0
  9 14  1  0  0  0  0
  9 22  1  0  0  0  0
  9 43  1  0  0  0  0
 10 17  1  0  0  0  0
 10 19  1  0  0  0  0
 10 44  1  0  0  0  0
 11 20  1  0  0  0  0
 11 27  1  0  0  0  0
 11 29  1  0  0  0  0
 12 22  1  0  0  0  0
 12 30  1  0  0  0  0
 12 54  1  0  0  0  0
 13 15  1  0  0  0  0
 13 17  1  0  0  0  0
 13 37  1  0  0  0  0
 14 15  1  0  0  0  0
 14 16  1  0  0  0  0
 14 38  1  0  0  0  0
 15 39  1  0  0  0  0
 15 40  1  0  0  0  0
 16 41  1  0  0  0  0
 16 42  1  0  0  0  0
 18 20  1  0  0  0  0
 19 21  1  0  0  0  0
 19 23  1  0  0  0  0
 19 45  1  0  0  0  0
 20 24  2  0  0  0  0
 21 25  1  0  0  0  0
 21 26  1  0  0  0  0
 21 46  1  0  0  0  0
 24 28  1  0  0  0  0
 24 47  1  0  0  0  0
 25 48  1  0  0  0  0
 25 49  1  0  0  0  0
 25 50  1  0  0  0  0
 26 51  1  0  0  0  0
 26 52  1  0  0  0  0
 26 53  1  0  0  0  0
 27 28  2  0  0  0  0
 27 55  1  0  0  0  0
 28 56  1  0  0  0  0
 29 57  1  0  0  0  0
 29 58  1  0  0  0  0
 29 59  1  0  0  0  0
 30 32  2  0  0  0  0
 30 33  1  0  0  0  0
 31 60  1  0  0  0  0
 31 61  1  0  0  0  0
 31 62  1  0  0  0  0
 32 34  1  0  0  0  0
 33 35  2  0  0  0  0
 33 63  1  0  0  0  0
 34 36  2  0  0  0  0
 34 64  1  0  0  0  0
 35 36  1  0  0  0  0
 35 65  1  0  0  0  0
M  END
> <PUBCHEM_COMPOUND_CID>
7049403

> <PUBCHEM_CONFORMER_RMSD>
1.2

> <PUBCHEM_CONFORMER_DIVERSEORDER>
1
62
71
17
44
30
78
22
86
21
81
24
10
52
55
29
36
40
31
74
90
93
67
65
70
98
83
99
57
105
87
38
48
96
102
49
58
35
68
32
107
69
46
103
89
9
75
54
8
76
97
85
4
63
27
7
56
80
25
13
53
14
72
73
106
104
59
11
101
94
2
79
60
39
16
23
82
45
47
91
28
88
15
51
61
6
77
18
41
66
5
12
100
20
26
84
50
33
92
42
34
95
37
3
43
19
64

> <PUBCHEM_MMFF94_PARTIAL_CHARGES>
41
1 -0.19
10 -0.73
11 0.05
12 -0.55
13 0.36
14 0.3
16 0.3
17 0.57
18 0.71
19 0.36
2 -0.19
20 -0.24
22 0.69
23 0.66
24 -0.15
27 -0.3
28 -0.15
29 0.26
3 -0.57
30 0.12
31 0.28
32 0.19
33 -0.15
34 -0.15
35 -0.15
36 0.19
4 -0.57
43 0.37
44 0.37
47 0.15
5 -0.57
54 0.37
55 0.15
56 0.15
6 -0.43
63 0.15
64 0.15
65 0.15
7 -0.57
8 -0.66
9 -0.73

> <PUBCHEM_EFFECTIVE_ROTOR_COUNT>
13

> <PUBCHEM_PHARMACOPHORE_FEATURES>
12
1 10 donor
1 11 cation
1 12 donor
1 3 acceptor
1 4 acceptor
1 5 acceptor
1 7 acceptor
1 9 donor
3 21 25 26 hydrophobe
5 11 20 24 27 28 rings
5 8 13 14 15 16 rings
6 30 32 33 34 35 36 rings

> <PUBCHEM_HEAVY_ATOM_COUNT>
36

> <PUBCHEM_ATOM_DEF_STEREO_COUNT>
3

> <PUBCHEM_ATOM_UDEF_STEREO_COUNT>
0

> <PUBCHEM_BOND_DEF_STEREO_COUNT>
0

> <PUBCHEM_BOND_UDEF_STEREO_COUNT>
0

> <PUBCHEM_ISOTOPIC_ATOM_COUNT>
0

> <PUBCHEM_COMPONENT_COUNT>
1

> <PUBCHEM_CACTVS_TAUTO_COUNT>
6

> <PUBCHEM_CONFORMER_ID>
006B90BB00000001

> <PUBCHEM_MMFF94_ENERGY>
81.2141

> <PUBCHEM_FEATURE_SELFOVERLAP>
60.948

> <PUBCHEM_SHAPE_FINGERPRINT>
10940486 97 18343865503194498723
11331351 85 18201449064546565857
11477941 20 18411697660856026494
11488393 25 17978238488892313035
11513181 2 17976266742553434614
11607047 141 18194694881278009091
12047536 79 11814527886341467135
12645989 146 18340211774574755422
12788726 201 18045218241632124729
13757389 114 18197219140451742793
13782708 43 17917710159246284610
14068700 675 18333733490190434932
14556957 393 18187941551124349958
14739800 52 11314566750445580247
15198563 99 18339077090551678365
15444296 121 18340491072165824049
15876981 60 18334864870069131887
17686467 74 18343297090248944674
20775438 99 17761478593070581355
21033650 10 17902542314915648902
21344244 246 18194963182534435634
22899556 105 18121797280897613823
23559900 14 18264764544764178107
249057 3 18411981335283338215
3388396 114 18190764079573725388
4015057 19 18189059848781199707
4017518 198 17548694540749382448
4280585 95 18411414007803960579
6058803 2 17608643913104197586
6669772 16 17617940678826706405
6700243 42 17985853465923809206

> <PUBCHEM_SHAPE_MULTIPOLES>
672.06
13.97
7.7
1.98
8.23
19.39
-0.3
-24.56
-5.52
0.57
-1.45
-0.39
-1.02
-0.9

> <PUBCHEM_SHAPE_SELFOVERLAP>
1420.191

> <PUBCHEM_SHAPE_VOLUME>
379.1

> <PUBCHEM_COORDINATE_TYPE>
2
5
10

$$$$
