7142696
  -OEChem-12032416213D

 54 58  0     1  0  0  0  0  0999 V2000
    8.3364   -0.1617    1.0310 F   0  0  0  0  0  0  0  0  0  0  0  0
    0.5497    2.3213    1.3326 O   0  0  0  0  0  0  0  0  0  0  0  0
   -3.4918   -0.6579    2.5811 O   0  0  0  0  0  0  0  0  0  0  0  0
    2.5575   -1.1584   -1.3337 O   0  0  0  0  0  0  0  0  0  0  0  0
   -3.9662    0.3585    0.5277 N   0  0  0  0  0  0  0  0  0  0  0  0
   -1.2882    1.9526   -0.0622 N   0  0  0  0  0  0  0  0  0  0  0  0
    2.2440    0.8594   -0.2622 N   0  0  0  0  0  0  0  0  0  0  0  0
   -3.6350    2.8246    0.4805 C   0  0  1  0  0  0  0  0  0  0  0  0
   -3.2619    1.5012   -1.5616 C   0  0  2  0  0  0  0  0  0  0  0  0
   -3.8339    2.8149   -1.0313 C   0  0  0  0  0  0  0  0  0  0  0  0
   -4.3646    1.6325    1.1258 C   0  0  0  0  0  0  0  0  0  0  0  0
   -2.1309    2.8124    0.7810 C   0  0  0  0  0  0  0  0  0  0  0  0
   -4.0296    0.3161   -0.9422 C   0  0  0  0  0  0  0  0  0  0  0  0
   -1.7851    1.3789   -1.2371 C   0  0  0  0  0  0  0  0  0  0  0  0
   -0.9674    0.6925   -2.0529 C   0  0  0  0  0  0  0  0  0  0  0  0
    0.0628    1.8211    0.3177 C   0  0  0  0  0  0  0  0  0  0  0  0
   -3.5469   -0.6875    1.3530 C   0  0  0  0  0  0  0  0  0  0  0  0
    0.9343    1.0255   -0.6041 C   0  0  0  0  0  0  0  0  0  0  0  0
    0.4190    0.5131   -1.7265 C   0  0  0  0  0  0  0  0  0  0  0  0
   -3.1120   -1.9341    0.7147 C   0  0  0  0  0  0  0  0  0  0  0  0
   -1.7744   -2.1060    0.3674 C   0  0  0  0  0  0  0  0  0  0  0  0
   -4.0394   -2.9413    0.4601 C   0  0  0  0  0  0  0  0  0  0  0  0
    3.0116   -0.2414   -0.6468 C   0  0  0  0  0  0  0  0  0  0  0  0
   -1.3614   -3.2929   -0.2381 C   0  0  0  0  0  0  0  0  0  0  0  0
   -3.6265   -4.1281   -0.1453 C   0  0  0  0  0  0  0  0  0  0  0  0
   -2.2875   -4.3039   -0.4945 C   0  0  0  0  0  0  0  0  0  0  0  0
    4.4142   -0.2217   -0.2038 C   0  0  0  0  0  0  0  0  0  0  0  0
    5.3715   -0.8982   -0.9445 C   0  0  0  0  0  0  0  0  0  0  0  0
    4.7555    0.4744    0.9457 C   0  0  0  0  0  0  0  0  0  0  0  0
    6.7017   -0.8782   -0.5255 C   0  0  0  0  0  0  0  0  0  0  0  0
    6.0858    0.4943    1.3648 C   0  0  0  0  0  0  0  0  0  0  0  0
    7.0589   -0.1820    0.6292 C   0  0  0  0  0  0  0  0  0  0  0  0
   -4.0633    3.7424    0.9018 H   0  0  0  0  0  0  0  0  0  0  0  0
   -3.4069    1.4785   -2.6495 H   0  0  0  0  0  0  0  0  0  0  0  0
   -3.3306    3.6736   -1.4931 H   0  0  0  0  0  0  0  0  0  0  0  0
   -4.8996    2.8963   -1.2777 H   0  0  0  0  0  0  0  0  0  0  0  0
   -4.1923    1.6237    2.2073 H   0  0  0  0  0  0  0  0  0  0  0  0
   -5.4463    1.7302    0.9727 H   0  0  0  0  0  0  0  0  0  0  0  0
   -1.9513    2.5554    1.8325 H   0  0  0  0  0  0  0  0  0  0  0  0
   -1.7387    3.8300    0.6483 H   0  0  0  0  0  0  0  0  0  0  0  0
   -3.6523   -0.6297   -1.3386 H   0  0  0  0  0  0  0  0  0  0  0  0
   -5.0908    0.3727   -1.2146 H   0  0  0  0  0  0  0  0  0  0  0  0
   -1.3321    0.2300   -2.9642 H   0  0  0  0  0  0  0  0  0  0  0  0
    0.9916   -0.0154   -2.4785 H   0  0  0  0  0  0  0  0  0  0  0  0
    2.5965    1.5213    0.4205 H   0  0  0  0  0  0  0  0  0  0  0  0
   -1.0434   -1.3294    0.5726 H   0  0  0  0  0  0  0  0  0  0  0  0
   -5.0850   -2.8139    0.7281 H   0  0  0  0  0  0  0  0  0  0  0  0
   -0.3184   -3.4298   -0.5082 H   0  0  0  0  0  0  0  0  0  0  0  0
   -4.3475   -4.9153   -0.3451 H   0  0  0  0  0  0  0  0  0  0  0  0
   -1.9660   -5.2281   -0.9656 H   0  0  0  0  0  0  0  0  0  0  0  0
    5.1109   -1.4417   -1.8483 H   0  0  0  0  0  0  0  0  0  0  0  0
    4.0332    0.9791    1.5783 H   0  0  0  0  0  0  0  0  0  0  0  0
    7.4600   -1.4035   -1.0986 H   0  0  0  0  0  0  0  0  0  0  0  0
    6.3635    1.0282    2.2689 H   0  0  0  0  0  0  0  0  0  0  0  0
  1 32  1  0  0  0  0
  2 16  2  0  0  0  0
  3 17  2  0  0  0  0
  4 23  2  0  0  0  0
  5 11  1  0  0  0  0
  5 13  1  0  0  0  0
  5 17  1  0  0  0  0
  6 12  1  0  0  0  0
  6 14  1  0  0  0  0
  6 16  1  0  0  0  0
  7 18  1  0  0  0  0
  7 23  1  0  0  0  0
  7 45  1  0  0  0  0
  8 10  1  0  0  0  0
  8 11  1  0  0  0  0
  8 12  1  0  0  0  0
  8 33  1  0  0  0  0
  9 10  1  0  0  0  0
  9 13  1  0  0  0  0
  9 14  1  0  0  0  0
  9 34  1  0  0  0  0
 10 35  1  0  0  0  0
 10 36  1  0  0  0  0
 11 37  1  0  0  0  0
 11 38  1  0  0  0  0
 12 39  1  0  0  0  0
 12 40  1  0  0  0  0
 13 41  1  0  0  0  0
 13 42  1  0  0  0  0
 14 15  2  0  0  0  0
 15 19  1  0  0  0  0
 15 43  1  0  0  0  0
 16 18  1  0  0  0  0
 17 20  1  0  0  0  0
 18 19  2  0  0  0  0
 19 44  1  0  0  0  0
 20 21  2  0  0  0  0
 20 22  1  0  0  0  0
 21 24  1  0  0  0  0
 21 46  1  0  0  0  0
 22 25  2  0  0  0  0
 22 47  1  0  0  0  0
 23 27  1  0  0  0  0
 24 26  2  0  0  0  0
 24 48  1  0  0  0  0
 25 26  1  0  0  0  0
 25 49  1  0  0  0  0
 26 50  1  0  0  0  0
 27 28  2  0  0  0  0
 27 29  1  0  0  0  0
 28 30  1  0  0  0  0
 28 51  1  0  0  0  0
 29 31  2  0  0  0  0
 29 52  1  0  0  0  0
 30 32  2  0  0  0  0
 30 53  1  0  0  0  0
 31 32  1  0  0  0  0
 31 54  1  0  0  0  0
M  END
> <PUBCHEM_COMPOUND_CID>
7142696

> <PUBCHEM_CONFORMER_RMSD>
0.8

> <PUBCHEM_CONFORMER_DIVERSEORDER>
1
2
10
8
5
11
12
9
7
6
4
3

> <PUBCHEM_MMFF94_PARTIAL_CHARGES>
42
1 -0.19
11 0.3
12 0.3
13 0.3
14 -0.03
15 -0.15
16 0.62
17 0.54
18 0.12
19 -0.15
2 -0.57
20 0.09
21 -0.15
22 -0.15
23 0.54
24 -0.15
25 -0.15
26 -0.15
27 0.09
28 -0.15
29 -0.15
3 -0.57
30 -0.15
31 -0.15
32 0.19
4 -0.57
43 0.15
44 0.15
45 0.37
46 0.15
47 0.15
48 0.15
49 0.15
5 -0.66
50 0.15
51 0.15
52 0.15
53 0.15
54 0.15
6 -0.47
7 -0.54
9 0.14

> <PUBCHEM_EFFECTIVE_ROTOR_COUNT>
6

> <PUBCHEM_PHARMACOPHORE_FEATURES>
9
1 2 acceptor
1 3 acceptor
1 4 acceptor
1 7 donor
6 20 21 22 24 25 26 rings
6 27 28 29 30 31 32 rings
6 5 8 9 10 11 13 rings
6 6 14 15 16 18 19 rings
6 6 8 9 10 12 14 rings

> <PUBCHEM_HEAVY_ATOM_COUNT>
32

> <PUBCHEM_ATOM_DEF_STEREO_COUNT>
2

> <PUBCHEM_ATOM_UDEF_STEREO_COUNT>
0

> <PUBCHEM_BOND_DEF_STEREO_COUNT>
0

> <PUBCHEM_BOND_UDEF_STEREO_COUNT>
0

> <PUBCHEM_ISOTOPIC_ATOM_COUNT>
0

> <PUBCHEM_COMPONENT_COUNT>
1

> <PUBCHEM_CACTVS_TAUTO_COUNT>
2

> <PUBCHEM_CONFORMER_ID>
006CFD2800000001

> <PUBCHEM_MMFF94_ENERGY>
98.3863

> <PUBCHEM_FEATURE_SELFOVERLAP>
47.254

> <PUBCHEM_SHAPE_FINGERPRINT>
10483366 6 18337375133664978695
10675989 125 17110151625848702789
11112241 14 17988084361904369191
11135609 149 17333910441889967679
11135609 187 18120083997596000885
11524674 6 18338233769871109775
12633257 1 18057349334099920153
12712778 12 18408888451064209054
13004483 165 18123191474932320951
14068700 675 18188488115925444143
14114206 34 16298933355718905021
14659021 117 18343010108506507469
14844126 61 18408325514428317027
14856354 85 18413390947359751716
14950920 106 17845663658453826568
15021287 119 16950288403700527908
15183329 4 8502653701963695396
15348495 7 18343298189454389704
19611394 137 18272649082949648656
20511986 3 17603854560553985200
20775530 9 17762918953582010287
23559900 14 18337946887098835980
249057 3 17895191078355434389
3383291 50 18411139156389643187
3459 110 18270397334005761512
392239 28 18341898510951472002
397830 11 18270109245449393296
4073 2 18342172246872050630
4409770 3 18335698334896773789
484985 159 18261944232882658271
5080951 261 18042663101516477110
5364581 5 18269548507061686264

> <PUBCHEM_SHAPE_MULTIPOLES>
618.72
14.99
4.27
1.65
38.18
4
-0.06
2.25
-4.3
-8.42
0.03
-0.59
-0.43
1

> <PUBCHEM_SHAPE_SELFOVERLAP>
1371.458

> <PUBCHEM_SHAPE_VOLUME>
328

> <PUBCHEM_COORDINATE_TYPE>
2
5
10

$$$$
