71693262
  -OEChem-12032416233D

 48 50  0     1  0  0  0  0  0999 V2000
    1.3642   -1.9256   -1.6888 O   0  0  0  0  0  0  0  0  0  0  0  0
    3.4100   -1.6312    2.5419 O   0  0  0  0  0  0  0  0  0  0  0  0
    3.8857    0.3791   -1.8844 O   0  0  0  0  0  0  0  0  0  0  0  0
   -4.7424    1.0742   -1.1420 O   0  0  0  0  0  0  0  0  0  0  0  0
    2.6612   -0.2529   -0.0007 N   0  0  0  0  0  0  0  0  0  0  0  0
   -4.4378   -0.7113    0.3671 N   0  0  0  0  0  0  0  0  0  0  0  0
    1.9523   -1.3473    0.6715 C   0  0  1  0  0  0  0  0  0  0  0  0
    1.0426   -2.1333   -0.3092 C   0  0  1  0  0  0  0  0  0  0  0  0
    2.9436   -2.2818    1.3777 C   0  0  0  0  0  0  0  0  0  0  0  0
   -0.4153   -1.7544   -0.1291 C   0  0  0  0  0  0  0  0  0  0  0  0
    2.9421    0.9527    0.7641 C   0  0  0  0  0  0  0  0  0  0  0  0
    3.1620   -0.4169   -1.2898 C   0  0  0  0  0  0  0  0  0  0  0  0
    2.7413   -1.7195   -1.9274 C   0  0  0  0  0  0  0  0  0  0  0  0
    1.8802    1.9973    0.5764 C   0  0  0  0  0  0  0  0  0  0  0  0
   -0.9627   -0.7111   -0.8757 C   0  0  0  0  0  0  0  0  0  0  0  0
   -1.2087   -2.4500    0.7833 C   0  0  0  0  0  0  0  0  0  0  0  0
   -2.3034   -0.3635   -0.7102 C   0  0  0  0  0  0  0  0  0  0  0  0
   -2.5493   -2.1025    0.9489 C   0  0  0  0  0  0  0  0  0  0  0  0
   -3.0967   -1.0592    0.2021 C   0  0  0  0  0  0  0  0  0  0  0  0
    1.9975    2.9354   -0.4492 C   0  0  0  0  0  0  0  0  0  0  0  0
    0.7758    2.0293    1.4277 C   0  0  0  0  0  0  0  0  0  0  0  0
    1.0104    3.9054   -0.6236 C   0  0  0  0  0  0  0  0  0  0  0  0
   -0.2114    2.9992    1.2534 C   0  0  0  0  0  0  0  0  0  0  0  0
   -0.0940    3.9374    0.2278 C   0  0  0  0  0  0  0  0  0  0  0  0
   -5.1566    0.2977   -0.2875 C   0  0  0  0  0  0  0  0  0  0  0  0
   -6.5909    0.3527    0.1756 C   0  0  0  0  0  0  0  0  0  0  0  0
    1.3275   -0.8989    1.4548 H   0  0  0  0  0  0  0  0  0  0  0  0
    1.1273   -3.2136   -0.1355 H   0  0  0  0  0  0  0  0  0  0  0  0
    3.8009   -2.5357    0.7474 H   0  0  0  0  0  0  0  0  0  0  0  0
    2.4509   -3.2058    1.6970 H   0  0  0  0  0  0  0  0  0  0  0  0
    3.9092    1.3601    0.4434 H   0  0  0  0  0  0  0  0  0  0  0  0
    3.0580    0.7138    1.8262 H   0  0  0  0  0  0  0  0  0  0  0  0
    2.8879   -1.6455   -3.0092 H   0  0  0  0  0  0  0  0  0  0  0  0
    3.3412   -2.5546   -1.5536 H   0  0  0  0  0  0  0  0  0  0  0  0
   -0.3617   -0.1434   -1.5810 H   0  0  0  0  0  0  0  0  0  0  0  0
   -0.7927   -3.2628    1.3726 H   0  0  0  0  0  0  0  0  0  0  0  0
    4.0309   -2.2368    2.9816 H   0  0  0  0  0  0  0  0  0  0  0  0
   -2.6539    0.4578   -1.3195 H   0  0  0  0  0  0  0  0  0  0  0  0
   -3.1556   -2.6528    1.6640 H   0  0  0  0  0  0  0  0  0  0  0  0
    2.8529    2.9244   -1.1190 H   0  0  0  0  0  0  0  0  0  0  0  0
    0.6721    1.3076    2.2332 H   0  0  0  0  0  0  0  0  0  0  0  0
    1.1018    4.6360   -1.4220 H   0  0  0  0  0  0  0  0  0  0  0  0
   -1.0716    3.0238    1.9160 H   0  0  0  0  0  0  0  0  0  0  0  0
   -4.9491   -1.2655    1.0510 H   0  0  0  0  0  0  0  0  0  0  0  0
   -0.8628    4.6924    0.0919 H   0  0  0  0  0  0  0  0  0  0  0  0
   -6.6263    0.5270    1.2547 H   0  0  0  0  0  0  0  0  0  0  0  0
   -7.0910   -0.5911   -0.0590 H   0  0  0  0  0  0  0  0  0  0  0  0
   -7.1134    1.1681   -0.3321 H   0  0  0  0  0  0  0  0  0  0  0  0
  1  8  1  0  0  0  0
  1 13  1  0  0  0  0
  2  9  1  0  0  0  0
  2 37  1  0  0  0  0
  3 12  2  0  0  0  0
  4 25  2  0  0  0  0
  5  7  1  0  0  0  0
  5 11  1  0  0  0  0
  5 12  1  0  0  0  0
  6 19  1  0  0  0  0
  6 25  1  0  0  0  0
  6 44  1  0  0  0  0
  7  8  1  0  0  0  0
  7  9  1  0  0  0  0
  7 27  1  0  0  0  0
  8 10  1  0  0  0  0
  8 28  1  0  0  0  0
  9 29  1  0  0  0  0
  9 30  1  0  0  0  0
 10 15  2  0  0  0  0
 10 16  1  0  0  0  0
 11 14  1  0  0  0  0
 11 31  1  0  0  0  0
 11 32  1  0  0  0  0
 12 13  1  0  0  0  0
 13 33  1  0  0  0  0
 13 34  1  0  0  0  0
 14 20  2  0  0  0  0
 14 21  1  0  0  0  0
 15 17  1  0  0  0  0
 15 35  1  0  0  0  0
 16 18  2  0  0  0  0
 16 36  1  0  0  0  0
 17 19  2  0  0  0  0
 17 38  1  0  0  0  0
 18 19  1  0  0  0  0
 18 39  1  0  0  0  0
 20 22  1  0  0  0  0
 20 40  1  0  0  0  0
 21 23  2  0  0  0  0
 21 41  1  0  0  0  0
 22 24  2  0  0  0  0
 22 42  1  0  0  0  0
 23 24  1  0  0  0  0
 23 43  1  0  0  0  0
 24 45  1  0  0  0  0
 25 26  1  0  0  0  0
 26 46  1  0  0  0  0
 26 47  1  0  0  0  0
 26 48  1  0  0  0  0
M  END
> <PUBCHEM_COMPOUND_CID>
71693262

> <PUBCHEM_CONFORMER_RMSD>
0.8

> <PUBCHEM_CONFORMER_DIVERSEORDER>
1
37
14
29
40
62
45
47
58
26
59
16
13
19
61
25
54
34
48
4
39
24
3
30
18
5
46
53
27
42
33
20
23
9
10
56
6
22
8
36
50
11
35
60
31
2
44
43
51
52
55
28
41
21
12
57
38
49
32
17
15
7

> <PUBCHEM_MMFF94_PARTIAL_CHARGES>
37
1 -0.56
10 -0.14
11 0.44
12 0.57
13 0.34
14 -0.14
15 -0.15
16 -0.15
17 -0.15
18 -0.15
19 0.12
2 -0.68
20 -0.15
21 -0.15
22 -0.15
23 -0.15
24 -0.15
25 0.57
26 0.06
3 -0.57
35 0.15
36 0.15
37 0.4
38 0.15
39 0.15
4 -0.57
40 0.15
41 0.15
42 0.15
43 0.15
44 0.37
45 0.15
5 -0.66
6 -0.55
7 0.3
8 0.42
9 0.28

> <PUBCHEM_EFFECTIVE_ROTOR_COUNT>
7

> <PUBCHEM_PHARMACOPHORE_FEATURES>
9
1 1 acceptor
1 2 acceptor
1 2 donor
1 3 acceptor
1 4 acceptor
1 6 donor
6 1 5 7 8 12 13 rings
6 10 15 16 17 18 19 rings
6 14 20 21 22 23 24 rings

> <PUBCHEM_HEAVY_ATOM_COUNT>
26

> <PUBCHEM_ATOM_DEF_STEREO_COUNT>
2

> <PUBCHEM_ATOM_UDEF_STEREO_COUNT>
0

> <PUBCHEM_BOND_DEF_STEREO_COUNT>
0

> <PUBCHEM_BOND_UDEF_STEREO_COUNT>
0

> <PUBCHEM_ISOTOPIC_ATOM_COUNT>
0

> <PUBCHEM_COMPONENT_COUNT>
1

> <PUBCHEM_CACTVS_TAUTO_COUNT>
6

> <PUBCHEM_CONFORMER_ID>
0445F3CE00000001

> <PUBCHEM_MMFF94_ENERGY>
76.8685

> <PUBCHEM_FEATURE_SELFOVERLAP>
45.673

> <PUBCHEM_SHAPE_FINGERPRINT>
10074138 170 15521762958168059371
104564 63 18199760158730244688
11221954 11 17905046206895198033
12596602 18 14634876362196989029
12617007 42 18059588965738428046
12633257 1 18043228310132001515
12788726 201 18339367335862422696
128993 33 17331116612058654776
13402501 40 18410008853787608565
13583140 156 17970892565596967347
13965767 371 17702072903439454866
14713325 29 16025650050269055292
14866123 147 16390693824265003763
151778 21 18120941865473127473
15210252 30 18334590035270674868
15238133 3 18333166163559765786
15420108 30 17628891703070302776
15806764 133 18123499260504335195
15848702 68 18336535105604457338
17093844 170 18413103983003879784
17357779 13 18059869315592092420
17492 54 18265921175230550052
20567600 299 18059288893981119561
20764821 26 18191580857614756173
21285901 2 17701837500481879310
21475661 188 18265334087011908885
21524375 3 17332241404290956162
21860390 5 18272368693903182277
22289505 5 18342745091454111215
23419403 2 12881179603797288270
23559900 14 18201727253631013247
238 59 17695325363450654805
24893992 56 18190736437675800117
3052486 1 18122345670747792904
3380486 77 18336542707638978330
3680242 22 18264209111066419217
4340502 62 12613048218364704735
474 4 18341891939720217003
5081480 168 17699608884611312247
513532 50 17561088045983894756
53794403 172 18191311692145950949
54672768 99 18193840568394073677
5939293 188 18341326798879813616
81228 2 18055077553570846720
8509985 295 18261098652289468259

> <PUBCHEM_SHAPE_MULTIPOLES>
501.63
8.79
4.43
1.67
16.34
4.5
-0.07
-0.78
0.9
-2.51
-0.62
-1.81
-0.65
0.19

> <PUBCHEM_SHAPE_SELFOVERLAP>
1067.76

> <PUBCHEM_SHAPE_VOLUME>
276.2

> <PUBCHEM_COORDINATE_TYPE>
2
5
10

$$$$
