26762210
  -OEChem-12032416183D

 62 66  0     1  0  0  0  0  0999 V2000
    6.7056   -0.0033    2.1329 Cl  0  0  0  0  0  0  0  0  0  0  0  0
   -3.9292   -3.0055    2.4468 O   0  0  0  0  0  0  0  0  0  0  0  0
   -3.3590    3.3725    0.2599 O   0  0  0  0  0  0  0  0  0  0  0  0
    1.6915   -3.0964   -1.6244 O   0  0  0  0  0  0  0  0  0  0  0  0
   -2.7855   -1.7834   -0.5532 N   0  0  2  0  0  0  0  0  0  0  0  0
   -4.9593   -1.5075    1.0199 N   0  0  0  0  0  0  0  0  0  0  0  0
    0.1427   -2.6522    0.0338 N   0  0  0  0  0  0  0  0  0  0  0  0
   -1.1758    2.5719    0.0595 N   0  0  0  0  0  0  0  0  0  0  0  0
    2.3149   -1.9692    0.3381 N   0  0  0  0  0  0  0  0  0  0  0  0
   -3.2865   -2.9865    0.1083 C   0  0  1  0  0  0  0  0  0  0  0  0
   -3.8408   -0.9551   -1.1427 C   0  0  1  0  0  0  0  0  0  0  0  0
   -0.9900   -3.2575   -0.6265 C   0  0  1  0  0  0  0  0  0  0  0  0
   -2.0153   -3.7788    0.3913 C   0  0  0  0  0  0  0  0  0  0  0  0
   -1.7538   -2.2421   -1.4778 C   0  0  0  0  0  0  0  0  0  0  0  0
   -5.1639   -1.0813   -0.3538 C   0  0  0  0  0  0  0  0  0  0  0  0
   -3.3692    0.5014   -1.1555 C   0  0  0  0  0  0  0  0  0  0  0  0
   -4.0585   -2.5186    1.3278 C   0  0  0  0  0  0  0  0  0  0  0  0
   -3.0558    1.0219    0.2390 C   0  0  0  0  0  0  0  0  0  0  0  0
   -2.5524    2.4452    0.1876 C   0  0  0  0  0  0  0  0  0  0  0  0
    1.4259   -2.6156   -0.5253 C   0  0  0  0  0  0  0  0  0  0  0  0
   -0.2097    1.4567   -0.0270 C   0  0  0  0  0  0  0  0  0  0  0  0
   -0.4604    3.7854   -0.0115 C   0  0  0  0  0  0  0  0  0  0  0  0
    1.1928    2.0619   -0.1518 C   0  0  0  0  0  0  0  0  0  0  0  0
    0.9064    3.5276   -0.1347 C   0  0  0  0  0  0  0  0  0  0  0  0
   -0.9325    5.0893    0.0254 C   0  0  0  0  0  0  0  0  0  0  0  0
    1.8294    4.5587   -0.2232 C   0  0  0  0  0  0  0  0  0  0  0  0
    3.6949   -1.7284    0.1422 C   0  0  0  0  0  0  0  0  0  0  0  0
   -0.0084    6.1353   -0.0640 C   0  0  0  0  0  0  0  0  0  0  0  0
    1.3630    5.8726   -0.1873 C   0  0  0  0  0  0  0  0  0  0  0  0
    4.4332   -1.0627    1.1206 C   0  0  0  0  0  0  0  0  0  0  0  0
    4.3172   -2.1570   -1.0304 C   0  0  0  0  0  0  0  0  0  0  0  0
    5.7941   -0.8255    0.9265 C   0  0  0  0  0  0  0  0  0  0  0  0
    5.6780   -1.9196   -1.2245 C   0  0  0  0  0  0  0  0  0  0  0  0
    6.4165   -1.2541   -0.2460 C   0  0  0  0  0  0  0  0  0  0  0  0
   -3.9507   -3.5711   -0.5425 H   0  0  0  0  0  0  0  0  0  0  0  0
   -4.0495   -1.2557   -2.1780 H   0  0  0  0  0  0  0  0  0  0  0  0
   -0.6240   -4.0771   -1.2556 H   0  0  0  0  0  0  0  0  0  0  0  0
   -1.6630   -3.6650    1.4230 H   0  0  0  0  0  0  0  0  0  0  0  0
   -2.1998   -4.8472    0.2281 H   0  0  0  0  0  0  0  0  0  0  0  0
   -1.1188   -1.4264   -1.8367 H   0  0  0  0  0  0  0  0  0  0  0  0
   -2.2016   -2.7464   -2.3436 H   0  0  0  0  0  0  0  0  0  0  0  0
   -5.7436   -0.1528   -0.3436 H   0  0  0  0  0  0  0  0  0  0  0  0
   -5.7890   -1.8550   -0.8164 H   0  0  0  0  0  0  0  0  0  0  0  0
   -4.1441    1.1318   -1.6119 H   0  0  0  0  0  0  0  0  0  0  0  0
   -2.4957    0.6046   -1.8099 H   0  0  0  0  0  0  0  0  0  0  0  0
   -5.5558   -1.1352    1.7521 H   0  0  0  0  0  0  0  0  0  0  0  0
   -0.0148   -2.1534    0.9044 H   0  0  0  0  0  0  0  0  0  0  0  0
   -3.9659    1.0476    0.8508 H   0  0  0  0  0  0  0  0  0  0  0  0
   -2.3595    0.3823    0.7850 H   0  0  0  0  0  0  0  0  0  0  0  0
   -0.4467    0.8293   -0.8908 H   0  0  0  0  0  0  0  0  0  0  0  0
   -0.2814    0.8423    0.8771 H   0  0  0  0  0  0  0  0  0  0  0  0
    1.6699    1.7601   -1.0893 H   0  0  0  0  0  0  0  0  0  0  0  0
    1.8254    1.7696    0.6921 H   0  0  0  0  0  0  0  0  0  0  0  0
    1.9313   -1.6271    1.2156 H   0  0  0  0  0  0  0  0  0  0  0  0
   -1.9844    5.3292    0.1198 H   0  0  0  0  0  0  0  0  0  0  0  0
    2.8906    4.3539   -0.3182 H   0  0  0  0  0  0  0  0  0  0  0  0
   -0.3566    7.1645   -0.0374 H   0  0  0  0  0  0  0  0  0  0  0  0
    2.0656    6.6984   -0.2551 H   0  0  0  0  0  0  0  0  0  0  0  0
    3.9464   -0.7282    2.0342 H   0  0  0  0  0  0  0  0  0  0  0  0
    3.8140   -2.6775   -1.8328 H   0  0  0  0  0  0  0  0  0  0  0  0
    6.1638   -2.2526   -2.1373 H   0  0  0  0  0  0  0  0  0  0  0  0
    7.4760   -1.0761   -0.4110 H   0  0  0  0  0  0  0  0  0  0  0  0
  1 32  1  0  0  0  0
  2 17  2  0  0  0  0
  3 19  2  0  0  0  0
  4 20  2  0  0  0  0
  5 10  1  0  0  0  0
  5 11  1  0  0  0  0
  5 14  1  0  0  0  0
  6 15  1  0  0  0  0
  6 17  1  0  0  0  0
  6 46  1  0  0  0  0
  7 12  1  0  0  0  0
  7 20  1  0  0  0  0
  7 47  1  0  0  0  0
  8 19  1  0  0  0  0
  8 21  1  0  0  0  0
  8 22  1  0  0  0  0
  9 20  1  0  0  0  0
  9 27  1  0  0  0  0
  9 54  1  0  0  0  0
 10 13  1  0  0  0  0
 10 17  1  0  0  0  0
 10 35  1  0  0  0  0
 11 15  1  0  0  0  0
 11 16  1  0  0  0  0
 11 36  1  0  0  0  0
 12 13  1  0  0  0  0
 12 14  1  0  0  0  0
 12 37  1  0  0  0  0
 13 38  1  0  0  0  0
 13 39  1  0  0  0  0
 14 40  1  0  0  0  0
 14 41  1  0  0  0  0
 15 42  1  0  0  0  0
 15 43  1  0  0  0  0
 16 18  1  0  0  0  0
 16 44  1  0  0  0  0
 16 45  1  0  0  0  0
 18 19  1  0  0  0  0
 18 48  1  0  0  0  0
 18 49  1  0  0  0  0
 21 23  1  0  0  0  0
 21 50  1  0  0  0  0
 21 51  1  0  0  0  0
 22 24  1  0  0  0  0
 22 25  2  0  0  0  0
 23 24  1  0  0  0  0
 23 52  1  0  0  0  0
 23 53  1  0  0  0  0
 24 26  2  0  0  0  0
 25 28  1  0  0  0  0
 25 55  1  0  0  0  0
 26 29  1  0  0  0  0
 26 56  1  0  0  0  0
 27 30  2  0  0  0  0
 27 31  1  0  0  0  0
 28 29  2  0  0  0  0
 28 57  1  0  0  0  0
 29 58  1  0  0  0  0
 30 32  1  0  0  0  0
 30 59  1  0  0  0  0
 31 33  2  0  0  0  0
 31 60  1  0  0  0  0
 32 34  2  0  0  0  0
 33 34  1  0  0  0  0
 33 61  1  0  0  0  0
 34 62  1  0  0  0  0
M  END
> <PUBCHEM_COMPOUND_CID>
26762210

> <PUBCHEM_CONFORMER_RMSD>
1.6

> <PUBCHEM_CONFORMER_DIVERSEORDER>
2
63
9
26
78
95
75
44
20
16
71
49
15
57
74
92
89
47
97
66
67
60
33
53
24
36
43
19
90
98
40
91
79
6
31
69
85
34
86
88
58
93
11
72
51
30
10
8
28
32
62
12
61
54
14
21
70
65
7
68
1
76
45
41
55
4
80
81
94
52
17
25
5
13
22
96
39
35
82
87
27
37
83
42
3
64
56
59
73
29
77
38
84
46
23
18
50
48

> <PUBCHEM_MMFF94_PARTIAL_CHARGES>
43
1 -0.18
10 0.33
11 0.27
12 0.3
14 0.27
15 0.3
17 0.57
18 0.06
19 0.57
2 -0.57
20 0.69
21 0.3
22 0.12
23 0.14
24 -0.14
25 -0.15
26 -0.15
27 0.12
28 -0.15
29 -0.15
3 -0.57
30 -0.15
31 -0.15
32 0.18
33 -0.15
34 -0.15
4 -0.57
46 0.37
47 0.37
5 -0.81
54 0.37
55 0.15
56 0.15
57 0.15
58 0.15
59 0.15
6 -0.73
60 0.15
61 0.15
62 0.15
7 -0.73
8 -0.48
9 -0.55

> <PUBCHEM_EFFECTIVE_ROTOR_COUNT>
9.8

> <PUBCHEM_PHARMACOPHORE_FEATURES>
12
1 2 acceptor
1 3 acceptor
1 4 acceptor
1 5 cation
1 6 donor
1 7 donor
1 9 donor
5 5 10 12 13 14 rings
5 8 21 22 23 24 rings
6 22 24 25 26 28 29 rings
6 27 30 31 32 33 34 rings
6 5 6 10 11 15 17 rings

> <PUBCHEM_HEAVY_ATOM_COUNT>
34

> <PUBCHEM_ATOM_DEF_STEREO_COUNT>
3

> <PUBCHEM_ATOM_UDEF_STEREO_COUNT>
0

> <PUBCHEM_BOND_DEF_STEREO_COUNT>
0

> <PUBCHEM_BOND_UDEF_STEREO_COUNT>
0

> <PUBCHEM_ISOTOPIC_ATOM_COUNT>
0

> <PUBCHEM_COMPONENT_COUNT>
1

> <PUBCHEM_CACTVS_TAUTO_COUNT>
9

> <PUBCHEM_CONFORMER_ID>
01985BE200000002

> <PUBCHEM_MMFF94_ENERGY>
95.5138

> <PUBCHEM_FEATURE_SELFOVERLAP>
61.129

> <PUBCHEM_SHAPE_FINGERPRINT>
10256941 240 17467610626193259476
10290309 65 17545033166469225381
10675989 125 17037802665634794261
10864689 126 17909265785400748404
11059845 2 17543043716823481314
11093857 5 18053658080856807688
11488393 25 18046912855053942753
12788726 201 18192423087193789139
13561361 72 18341039745442056304
14363568 33 18049176740921065306
14394314 77 18339643313698024585
144659 178 18410292519377378268
15320467 1 18122907534385809068
15322535 138 17690269414303024556
15400415 2 17329993496166884980
15968369 153 18271801359215581516
16067690 210 18261944146893356274
17627616 140 17832988621510534340
20721686 56 18337668749258707131
21344244 246 17908688877115462775
21796203 349 18048072741047243120
23516275 137 17683822268617354081
373842 8 18338508768237909816
463206 1 18335989687803074996
469060 322 18340223915676921835
6036956 94 18119252757561587068
613672 6 18339063943978512164
653340 110 18196084444356516452
6608658 132 18198604576088525751

> <PUBCHEM_SHAPE_MULTIPOLES>
659.06
12.25
8.93
1.37
16.14
16.25
0.43
-11.96
3.45
-2.05
-0.48
0.39
-1.31
1.5

> <PUBCHEM_SHAPE_SELFOVERLAP>
1416.325

> <PUBCHEM_SHAPE_VOLUME>
363.3

> <PUBCHEM_COORDINATE_TYPE>
2
5
10

$$$$
