26744361
  -OEChem-12032416373D

 51 54  0     1  0  0  0  0  0999 V2000
   -1.9899   -3.5242   -0.5783 S   0  0  0  0  0  0  0  0  0  0  0  0
    6.5633    2.0304    0.1638 O   0  0  0  0  0  0  0  0  0  0  0  0
    1.8439    1.1357   -1.4564 O   0  0  0  0  0  0  0  0  0  0  0  0
   -1.7503   -4.4997   -1.6330 O   0  0  0  0  0  0  0  0  0  0  0  0
   -2.7408   -3.9115    0.6075 O   0  0  0  0  0  0  0  0  0  0  0  0
   -5.6230    1.7478    1.6641 O   0  5  0  0  0  0  0  0  0  0  0  0
   -3.7741    1.1524    2.6868 O   0  0  0  0  0  0  0  0  0  0  0  0
    3.7708   -0.1908    0.3620 N   0  0  1  0  0  0  0  0  0  0  0  0
    0.6007    1.4848    0.3736 N   0  0  0  0  0  0  0  0  0  0  0  0
    0.5289    1.3099   -1.9063 N   0  0  0  0  0  0  0  0  0  0  0  0
   -4.3854    1.5410    1.6623 N   0  3  0  0  0  0  0  0  0  0  0  0
    3.1123    1.1034    0.6323 C   0  0  1  0  0  0  0  0  0  0  0  0
    4.1490    2.1659    0.2222 C   0  0  0  0  0  0  0  0  0  0  0  0
    5.3719    1.3730   -0.2218 C   0  0  2  0  0  0  0  0  0  0  0  0
    5.2083    0.0420    0.4871 C   0  0  0  0  0  0  0  0  0  0  0  0
    3.3108   -1.2627    1.2352 C   0  0  0  0  0  0  0  0  0  0  0  0
    1.7975    1.2534   -0.1036 C   0  0  0  0  0  0  0  0  0  0  0  0
    1.9900   -1.8265    0.7829 C   0  0  0  0  0  0  0  0  0  0  0  0
    0.8909   -1.8013    1.6414 C   0  0  0  0  0  0  0  0  0  0  0  0
    1.8652   -2.3738   -0.4941 C   0  0  0  0  0  0  0  0  0  0  0  0
   -0.1440    1.5110   -0.7695 C   0  0  0  0  0  0  0  0  0  0  0  0
   -0.3333   -2.3228    1.2227 C   0  0  0  0  0  0  0  0  0  0  0  0
    0.6411   -2.8954   -0.9127 C   0  0  0  0  0  0  0  0  0  0  0  0
   -0.4581   -2.8699   -0.0544 C   0  0  0  0  0  0  0  0  0  0  0  0
   -1.5599    1.7393   -0.7410 C   0  0  0  0  0  0  0  0  0  0  0  0
   -2.2774    1.5304    0.4368 C   0  0  0  0  0  0  0  0  0  0  0  0
   -2.2191    2.1712   -1.8921 C   0  0  0  0  0  0  0  0  0  0  0  0
   -2.8262   -2.1455   -1.3288 C   0  0  0  0  0  0  0  0  0  0  0  0
   -3.6541    1.7535    0.4637 C   0  0  0  0  0  0  0  0  0  0  0  0
   -3.5958    2.3939   -1.8652 C   0  0  0  0  0  0  0  0  0  0  0  0
   -4.3134    2.1853   -0.6873 C   0  0  0  0  0  0  0  0  0  0  0  0
    2.9185    1.2293    1.7066 H   0  0  0  0  0  0  0  0  0  0  0  0
    3.8091    2.8257   -0.5842 H   0  0  0  0  0  0  0  0  0  0  0  0
    4.3920    2.8061    1.0797 H   0  0  0  0  0  0  0  0  0  0  0  0
    5.3718    1.2368   -1.3102 H   0  0  0  0  0  0  0  0  0  0  0  0
    5.7994   -0.7417    0.0019 H   0  0  0  0  0  0  0  0  0  0  0  0
    5.5337    0.1140    1.5334 H   0  0  0  0  0  0  0  0  0  0  0  0
    3.2751   -0.9443    2.2853 H   0  0  0  0  0  0  0  0  0  0  0  0
    4.0233   -2.0992    1.2060 H   0  0  0  0  0  0  0  0  0  0  0  0
    6.5673    2.9031   -0.2650 H   0  0  0  0  0  0  0  0  0  0  0  0
    0.9725   -1.3744    2.6373 H   0  0  0  0  0  0  0  0  0  0  0  0
    2.7133   -2.4035   -1.1730 H   0  0  0  0  0  0  0  0  0  0  0  0
   -1.1782   -2.2840    1.9045 H   0  0  0  0  0  0  0  0  0  0  0  0
    0.5646   -3.3113   -1.9133 H   0  0  0  0  0  0  0  0  0  0  0  0
   -1.7564    1.1866    1.3280 H   0  0  0  0  0  0  0  0  0  0  0  0
   -1.6888    2.3494   -2.8243 H   0  0  0  0  0  0  0  0  0  0  0  0
   -3.7917   -2.4957   -1.7000 H   0  0  0  0  0  0  0  0  0  0  0  0
   -2.9777   -1.3724   -0.5744 H   0  0  0  0  0  0  0  0  0  0  0  0
   -2.2226   -1.7693   -2.1569 H   0  0  0  0  0  0  0  0  0  0  0  0
   -4.1088    2.7312   -2.7612 H   0  0  0  0  0  0  0  0  0  0  0  0
   -5.3845    2.3694   -0.7036 H   0  0  0  0  0  0  0  0  0  0  0  0
  1  4  2  0  0  0  0
  1  5  2  0  0  0  0
  1 24  1  0  0  0  0
  1 28  1  0  0  0  0
  2 14  1  0  0  0  0
  2 40  1  0  0  0  0
  3 10  1  0  0  0  0
  3 17  1  0  0  0  0
  6 11  1  0  0  0  0
  7 11  2  0  0  0  0
  8 12  1  0  0  0  0
  8 15  1  0  0  0  0
  8 16  1  0  0  0  0
  9 17  2  0  0  0  0
  9 21  1  0  0  0  0
 10 21  2  0  0  0  0
 11 29  1  0  0  0  0
 12 13  1  0  0  0  0
 12 17  1  0  0  0  0
 12 32  1  0  0  0  0
 13 14  1  0  0  0  0
 13 33  1  0  0  0  0
 13 34  1  0  0  0  0
 14 15  1  0  0  0  0
 14 35  1  0  0  0  0
 15 36  1  0  0  0  0
 15 37  1  0  0  0  0
 16 18  1  0  0  0  0
 16 38  1  0  0  0  0
 16 39  1  0  0  0  0
 18 19  2  0  0  0  0
 18 20  1  0  0  0  0
 19 22  1  0  0  0  0
 19 41  1  0  0  0  0
 20 23  2  0  0  0  0
 20 42  1  0  0  0  0
 21 25  1  0  0  0  0
 22 24  2  0  0  0  0
 22 43  1  0  0  0  0
 23 24  1  0  0  0  0
 23 44  1  0  0  0  0
 25 26  2  0  0  0  0
 25 27  1  0  0  0  0
 26 29  1  0  0  0  0
 26 45  1  0  0  0  0
 27 30  2  0  0  0  0
 27 46  1  0  0  0  0
 28 47  1  0  0  0  0
 28 48  1  0  0  0  0
 28 49  1  0  0  0  0
 29 31  2  0  0  0  0
 30 31  1  0  0  0  0
 30 50  1  0  0  0  0
 31 51  1  0  0  0  0
M  CHG  2   6  -1  11   1
M  END
> <PUBCHEM_COMPOUND_CID>
26744361

> <PUBCHEM_CONFORMER_RMSD>
1

> <PUBCHEM_CONFORMER_DIVERSEORDER>
1
34
49
75
43
81
97
37
100
61
35
5
79
92
60
80
86
14
21
3
99
18
74
62
64
70
102
25
6
72
73
65
2
90
54
69
57
36
88
58
48
105
63
104
51
71
38
68
87
24
55
40
77
50
96
85
4
13
45
82
53
19
33
83
94
26
22
67
23
8
93
15
66
59
7
103
95
41
91
42
46
89
9
32
28
52
10
12
101
56
20
29
78
84
17
31
76
16
27
30
47
98
39
11
44

> <PUBCHEM_MMFF94_PARTIAL_CHARGES>
39
1 1.2
10 -0.41
11 0.91
12 0.45
14 0.28
15 0.27
16 0.41
17 0.3
18 -0.14
19 -0.15
2 -0.68
20 -0.15
21 0.46
22 -0.15
23 -0.15
24 -0.01
25 0.05
26 -0.15
27 -0.15
28 0.11
29 0.13
3 -0.02
30 -0.15
31 -0.15
4 -0.65
40 0.4
41 0.15
42 0.15
43 0.15
44 0.15
45 0.15
46 0.15
5 -0.65
50 0.15
51 0.15
6 -0.52
7 -0.52
8 -0.81
9 -0.57

> <PUBCHEM_EFFECTIVE_ROTOR_COUNT>
7

> <PUBCHEM_PHARMACOPHORE_FEATURES>
13
1 2 acceptor
1 2 donor
1 4 acceptor
1 5 acceptor
1 6 acceptor
1 6 anion
1 7 acceptor
1 8 cation
3 9 10 21 cation
5 3 9 10 17 21 rings
5 8 12 13 14 15 rings
6 18 19 20 22 23 24 rings
6 25 26 27 29 30 31 rings

> <PUBCHEM_HEAVY_ATOM_COUNT>
31

> <PUBCHEM_ATOM_DEF_STEREO_COUNT>
2

> <PUBCHEM_ATOM_UDEF_STEREO_COUNT>
0

> <PUBCHEM_BOND_DEF_STEREO_COUNT>
0

> <PUBCHEM_BOND_UDEF_STEREO_COUNT>
0

> <PUBCHEM_ISOTOPIC_ATOM_COUNT>
0

> <PUBCHEM_COMPONENT_COUNT>
1

> <PUBCHEM_CACTVS_TAUTO_COUNT>
1

> <PUBCHEM_CONFORMER_ID>
0198162900000001

> <PUBCHEM_MMFF94_ENERGY>
65.8744

> <PUBCHEM_FEATURE_SELFOVERLAP>
66.072

> <PUBCHEM_SHAPE_FINGERPRINT>
10190206 1 17249230437058630372
104564 63 18264479771146893846
1100329 8 18119510073768886562
11115154 58 17695607934278055487
11421498 54 17702380641819589896
11488393 25 17977386027988692706
11513181 2 18201710747771314190
11578080 2 17773342143461331566
12035758 1 18123739869468774154
12156800 1 18121249659439404991
12422481 6 18335433369215530938
12597179 24 18202571665970973806
12788726 201 17973144417229003850
1361 2 18119793735115864933
14028597 1 17099427372109707160
140371 6 17609214903357065642
14363568 33 17835532522282791647
14464042 87 18267298914681602327
14840074 17 18187367627534826565
15664445 248 17404575580863045918
17138139 8 17696706204495758991
21033648 29 18336808824056101400
21133410 38 18130229260352834407
21197605 99 18262530281291263739
21236236 1 18337667637610717856
21796203 349 17691143542768469186
38695281 34 18265889172811918613
469060 322 17241036712476316863
5171179 24 17767961292558878816
59755656 520 18272377459694556156
6287921 2 17769374925030037555
6438718 38 18343016730966795942
6669772 16 18336828577332687190

> <PUBCHEM_SHAPE_MULTIPOLES>
586.68
10.27
5.07
1.82
6.39
5.68
-0.35
-9.29
-2.76
-3.55
1.47
-2.25
-0.28
-0.99

> <PUBCHEM_SHAPE_SELFOVERLAP>
1261.505

> <PUBCHEM_SHAPE_VOLUME>
327.1

> <PUBCHEM_COORDINATE_TYPE>
2
5
10

$$$$
