44716365
  -OEChem-12032416163D

 70 74  0     1  0  0  0  0  0999 V2000
   -6.8764   -1.0636   -1.0723 F   0  0  0  0  0  0  0  0  0  0  0  0
   -5.7050    0.0743   -2.5077 F   0  0  0  0  0  0  0  0  0  0  0  0
   -4.7657   -1.5037   -1.3540 F   0  0  0  0  0  0  0  0  0  0  0  0
   -0.5527    3.5846    0.1334 O   0  0  0  0  0  0  0  0  0  0  0  0
   -1.5485    2.0164   -1.2002 O   0  0  0  0  0  0  0  0  0  0  0  0
   -1.1197   -3.8459    0.5469 O   0  0  0  0  0  0  0  0  0  0  0  0
    0.1764   -6.3034    0.6309 O   0  0  0  0  0  0  0  0  0  0  0  0
    3.0179    4.1227   -0.7588 N   0  0  2  0  0  0  0  0  0  0  0  0
    4.6395   -0.3502   -0.8605 N   0  0  0  0  0  0  0  0  0  0  0  0
    4.2353   -1.6315   -0.8904 N   0  0  0  0  0  0  0  0  0  0  0  0
   -2.5813    2.8203    0.7408 N   0  0  0  0  0  0  0  0  0  0  0  0
    3.5754    2.6507    1.3162 C   0  0  2  0  0  0  0  0  0  0  0  0
    4.0692    1.9632    0.0132 C   0  0  2  0  0  0  0  0  0  0  0  0
    1.8068    3.9577    0.0875 C   0  0  2  0  0  0  0  0  0  0  0  0
    2.0606    2.9243    1.2060 C   0  0  0  0  0  0  0  0  0  0  0  0
    4.2799    4.0225    1.3901 C   0  0  0  0  0  0  0  0  0  0  0  0
    3.5259    2.7945   -1.1840 C   0  0  0  0  0  0  0  0  0  0  0  0
    4.0629    4.7755    0.0659 C   0  0  0  0  0  0  0  0  0  0  0  0
    3.8116    0.4726   -0.1549 C   0  0  0  0  0  0  0  0  0  0  0  0
    0.5633    3.6136   -0.7352 C   0  0  0  0  0  0  0  0  0  0  0  0
    2.7948   -0.3259    0.3088 C   0  0  0  0  0  0  0  0  0  0  0  0
    3.1079   -1.6105   -0.1743 C   0  0  0  0  0  0  0  0  0  0  0  0
    5.8546    0.0225   -1.5472 C   0  0  0  0  0  0  0  0  0  0  0  0
    2.3503   -2.8170    0.0334 C   0  0  0  0  0  0  0  0  0  0  0  0
   -1.5774    2.7280   -0.2036 C   0  0  0  0  0  0  0  0  0  0  0  0
    0.9660   -2.7524    0.1919 C   0  0  0  0  0  0  0  0  0  0  0  0
    3.0003   -4.0505    0.0759 C   0  0  0  0  0  0  0  0  0  0  0  0
    0.2316   -3.9213    0.3924 C   0  0  0  0  0  0  0  0  0  0  0  0
    2.2661   -5.2192    0.2765 C   0  0  0  0  0  0  0  0  0  0  0  0
   -3.8073    2.1182    0.7791 C   0  0  0  0  0  0  0  0  0  0  0  0
    0.8817   -5.1546    0.4348 C   0  0  0  0  0  0  0  0  0  0  0  0
   -4.1170    1.1997   -0.2240 C   0  0  0  0  0  0  0  0  0  0  0  0
   -4.7075    2.3435    1.8206 C   0  0  0  0  0  0  0  0  0  0  0  0
   -5.3268    0.5066   -0.1855 C   0  0  0  0  0  0  0  0  0  0  0  0
   -5.9174    1.6503    1.8589 C   0  0  0  0  0  0  0  0  0  0  0  0
   -1.7068   -2.5471    0.4907 C   0  0  0  0  0  0  0  0  0  0  0  0
   -6.2271    0.7318    0.8560 C   0  0  0  0  0  0  0  0  0  0  0  0
    0.9178   -7.5217    0.6609 C   0  0  0  0  0  0  0  0  0  0  0  0
   -5.6591   -0.4750   -1.2580 C   0  0  0  0  0  0  0  0  0  0  0  0
    3.8000    2.0466    2.2014 H   0  0  0  0  0  0  0  0  0  0  0  0
    5.1635    2.0782    0.0217 H   0  0  0  0  0  0  0  0  0  0  0  0
    1.5892    4.9218    0.5707 H   0  0  0  0  0  0  0  0  0  0  0  0
    1.6970    3.3303    2.1587 H   0  0  0  0  0  0  0  0  0  0  0  0
    1.5006    2.0049    1.0293 H   0  0  0  0  0  0  0  0  0  0  0  0
    3.8758    4.6043    2.2274 H   0  0  0  0  0  0  0  0  0  0  0  0
    5.3529    3.8930    1.5733 H   0  0  0  0  0  0  0  0  0  0  0  0
    2.7555    2.2474   -1.7390 H   0  0  0  0  0  0  0  0  0  0  0  0
    4.3350    2.9454   -1.9110 H   0  0  0  0  0  0  0  0  0  0  0  0
    5.0022    4.8302   -0.4991 H   0  0  0  0  0  0  0  0  0  0  0  0
    3.7824    5.8160    0.2708 H   0  0  0  0  0  0  0  0  0  0  0  0
    0.3881    4.3856   -1.4933 H   0  0  0  0  0  0  0  0  0  0  0  0
    0.6951    2.6545   -1.2467 H   0  0  0  0  0  0  0  0  0  0  0  0
    1.9568   -0.0367    0.9233 H   0  0  0  0  0  0  0  0  0  0  0  0
    6.5919    0.3307   -0.8021 H   0  0  0  0  0  0  0  0  0  0  0  0
    6.2341   -0.8368   -2.1070 H   0  0  0  0  0  0  0  0  0  0  0  0
    5.6325    0.8371   -2.2399 H   0  0  0  0  0  0  0  0  0  0  0  0
    0.4971   -1.7761    0.1375 H   0  0  0  0  0  0  0  0  0  0  0  0
    4.0790   -4.1309   -0.0360 H   0  0  0  0  0  0  0  0  0  0  0  0
   -2.4217    3.4732    1.5042 H   0  0  0  0  0  0  0  0  0  0  0  0
    2.8377   -6.1406    0.3000 H   0  0  0  0  0  0  0  0  0  0  0  0
   -3.4625    0.9795   -1.0563 H   0  0  0  0  0  0  0  0  0  0  0  0
   -4.4784    3.0563    2.6086 H   0  0  0  0  0  0  0  0  0  0  0  0
   -6.6182    1.8259    2.6699 H   0  0  0  0  0  0  0  0  0  0  0  0
   -1.3523   -1.9064    1.3055 H   0  0  0  0  0  0  0  0  0  0  0  0
   -1.5741   -2.0849   -0.4936 H   0  0  0  0  0  0  0  0  0  0  0  0
   -2.7848   -2.6748    0.6359 H   0  0  0  0  0  0  0  0  0  0  0  0
   -7.1747    0.2025    0.9045 H   0  0  0  0  0  0  0  0  0  0  0  0
    1.4070   -7.7203   -0.2988 H   0  0  0  0  0  0  0  0  0  0  0  0
    1.6207   -7.5459    1.5006 H   0  0  0  0  0  0  0  0  0  0  0  0
    0.1995   -8.3318    0.8248 H   0  0  0  0  0  0  0  0  0  0  0  0
  1 39  1  0  0  0  0
  2 39  1  0  0  0  0
  3 39  1  0  0  0  0
  4 20  1  0  0  0  0
  4 25  1  0  0  0  0
  5 25  2  0  0  0  0
  6 28  1  0  0  0  0
  6 36  1  0  0  0  0
  7 31  1  0  0  0  0
  7 38  1  0  0  0  0
  8 14  1  0  0  0  0
  8 17  1  0  0  0  0
  8 18  1  0  0  0  0
  9 10  1  0  0  0  0
  9 19  1  0  0  0  0
  9 23  1  0  0  0  0
 10 22  2  0  0  0  0
 11 25  1  0  0  0  0
 11 30  1  0  0  0  0
 11 59  1  0  0  0  0
 12 13  1  0  0  0  0
 12 15  1  0  0  0  0
 12 16  1  0  0  0  0
 12 40  1  0  0  0  0
 13 17  1  0  0  0  0
 13 19  1  0  0  0  0
 13 41  1  0  0  0  0
 14 15  1  0  0  0  0
 14 20  1  0  0  0  0
 14 42  1  0  0  0  0
 15 43  1  0  0  0  0
 15 44  1  0  0  0  0
 16 18  1  0  0  0  0
 16 45  1  0  0  0  0
 16 46  1  0  0  0  0
 17 47  1  0  0  0  0
 17 48  1  0  0  0  0
 18 49  1  0  0  0  0
 18 50  1  0  0  0  0
 19 21  2  0  0  0  0
 20 51  1  0  0  0  0
 20 52  1  0  0  0  0
 21 22  1  0  0  0  0
 21 53  1  0  0  0  0
 22 24  1  0  0  0  0
 23 54  1  0  0  0  0
 23 55  1  0  0  0  0
 23 56  1  0  0  0  0
 24 26  2  0  0  0  0
 24 27  1  0  0  0  0
 26 28  1  0  0  0  0
 26 57  1  0  0  0  0
 27 29  2  0  0  0  0
 27 58  1  0  0  0  0
 28 31  2  0  0  0  0
 29 31  1  0  0  0  0
 29 60  1  0  0  0  0
 30 32  1  0  0  0  0
 30 33  2  0  0  0  0
 32 34  2  0  0  0  0
 32 61  1  0  0  0  0
 33 35  1  0  0  0  0
 33 62  1  0  0  0  0
 34 37  1  0  0  0  0
 34 39  1  0  0  0  0
 35 37  2  0  0  0  0
 35 63  1  0  0  0  0
 36 64  1  0  0  0  0
 36 65  1  0  0  0  0
 36 66  1  0  0  0  0
 37 67  1  0  0  0  0
 38 68  1  0  0  0  0
 38 69  1  0  0  0  0
 38 70  1  0  0  0  0
M  END
> <PUBCHEM_COMPOUND_CID>
44716365

> <PUBCHEM_CONFORMER_RMSD>
1.4

> <PUBCHEM_CONFORMER_DIVERSEORDER>
1
62
30
82
27
25
33
98
64
6
60
86
32
80
49
12
63
7
66
72
34
23
101
85
69
97
17
31
14
105
79
15
65
8
53
76
35
51
93
42
55
87
29
9
96
58
20
41
52
3
54
74
16
5
2
47
19
28
21
11
45
104
50
68
94
75
103
48
39
71
83
10
100
36
67
73
44
84
24
13
56
95
92
57
4
37
18
78
90
22
26
59
38
61
40
81
106
91
46
99
89
77
70
102
43
88

> <PUBCHEM_MMFF94_PARTIAL_CHARGES>
45
1 -0.34
10 -0.71
11 -0.55
13 0.18
14 0.27
17 0.27
18 0.27
19 -0.33
2 -0.34
20 0.28
21 -0.15
22 0.23
23 0.26
24 0.05
25 0.78
26 -0.15
27 -0.15
28 0.08
29 -0.15
3 -0.34
30 0.12
31 0.08
32 -0.15
33 -0.15
34 -0.14
35 -0.15
36 0.28
37 -0.15
38 0.28
39 1.16
4 -0.43
5 -0.57
53 0.15
57 0.15
58 0.15
59 0.37
6 -0.36
60 0.15
61 0.15
62 0.15
63 0.15
67 0.15
7 -0.36
8 -0.81
9 0.31

> <PUBCHEM_EFFECTIVE_ROTOR_COUNT>
11.2

> <PUBCHEM_PHARMACOPHORE_FEATURES>
10
1 10 acceptor
1 11 donor
1 5 acceptor
1 6 acceptor
1 7 acceptor
1 8 cation
5 9 10 19 21 22 rings
6 24 26 27 28 29 31 rings
6 30 32 33 34 35 37 rings
8 8 12 13 14 15 16 17 18 rings

> <PUBCHEM_HEAVY_ATOM_COUNT>
39

> <PUBCHEM_ATOM_DEF_STEREO_COUNT>
3

> <PUBCHEM_ATOM_UDEF_STEREO_COUNT>
0

> <PUBCHEM_BOND_DEF_STEREO_COUNT>
0

> <PUBCHEM_BOND_UDEF_STEREO_COUNT>
0

> <PUBCHEM_ISOTOPIC_ATOM_COUNT>
0

> <PUBCHEM_COMPONENT_COUNT>
1

> <PUBCHEM_CACTVS_TAUTO_COUNT>
2

> <PUBCHEM_CONFORMER_ID>
02AA514D00000001

> <PUBCHEM_MMFF94_ENERGY>
117.4708

> <PUBCHEM_FEATURE_SELFOVERLAP>
50.752

> <PUBCHEM_SHAPE_FINGERPRINT>
10439779 11 18338790122860779378
10928967 22 17981059521674067444
11014199 57 17328590518722492818
11828042 200 17760393010401723646
12107183 9 17840040546033004577
12677640 9 17115519991978026003
12786520 15 17118081355558086633
13553639 21 18116447938165161755
1361 2 18410294739500650985
13692114 37 18126836330351363696
152267 14 17329705427713215663
15320467 1 18337959982506167667
15351339 4 17907556366905544775
15400415 2 18338520862545029969
15483637 11 17616811475778517052
16112460 7 18341331192447078869
16993438 75 17686056506050568473
19319366 153 18270386295691715661
20028762 73 18343018883077363468
20764821 26 18337112366520998632
20775438 99 18200021997269264700
20775530 9 17829334588111013440
21133410 38 18271814566213571801
23516275 137 16699243596626395476
3103668 31 17256819317721096292
3882209 13 17396385370445975523
463206 1 17402044501065110616
50080093 196 18270385187827900639
54131252 217 17123054790628489911
6371009 1 18339346539778325802
653340 110 17764029464526196432
9961470 85 18197211671392754352

> <PUBCHEM_SHAPE_MULTIPOLES>
737.38
13.9
10.6
1.42
22.66
16.67
-0.21
-7.45
-2.41
-11.41
3.01
1.4
-0.73
-1.15

> <PUBCHEM_SHAPE_SELFOVERLAP>
1600.109

> <PUBCHEM_SHAPE_VOLUME>
406.1

> <PUBCHEM_COORDINATE_TYPE>
2
5
10

$$$$
