75368629
  -OEChem-12032416383D

 54 57  0     1  0  0  0  0  0999 V2000
   -7.4657   -2.4232    0.1055 F   0  0  0  0  0  0  0  0  0  0  0  0
   -6.4769   -2.2188   -1.8140 F   0  0  0  0  0  0  0  0  0  0  0  0
   -7.7531   -0.6205   -1.0759 F   0  0  0  0  0  0  0  0  0  0  0  0
    3.2452    3.2454   -0.3483 O   0  0  0  0  0  0  0  0  0  0  0  0
    6.7222   -2.6438    1.4503 O   0  0  0  0  0  0  0  0  0  0  0  0
    1.0656    2.3803   -0.2069 N   0  0  0  0  0  0  0  0  0  0  0  0
   -1.3877    1.6207    0.9399 N   0  0  2  0  0  0  0  0  0  0  0  0
    2.5907    1.2333   -1.3911 N   0  0  0  0  0  0  0  0  0  0  0  0
    0.3194    1.2916   -0.8023 C   0  0  2  0  0  0  0  0  0  0  0  0
   -0.5595    0.6125    0.2475 C   0  0  0  0  0  0  0  0  0  0  0  0
    1.4010    0.3996   -1.4083 C   0  0  0  0  0  0  0  0  0  0  0  0
    0.3721    3.3466    0.6191 C   0  0  0  0  0  0  0  0  0  0  0  0
   -0.5404    2.6252    1.6141 C   0  0  0  0  0  0  0  0  0  0  0  0
    2.4053    2.3970   -0.6177 C   0  0  0  0  0  0  0  0  0  0  0  0
   -2.2765    0.9738    1.9049 C   0  0  0  0  0  0  0  0  0  0  0  0
    3.8374    0.8024   -1.9842 C   0  0  0  0  0  0  0  0  0  0  0  0
   -3.4560    0.3233    1.2322 C   0  0  0  0  0  0  0  0  0  0  0  0
    4.6057   -0.1146   -1.0700 C   0  0  0  0  0  0  0  0  0  0  0  0
   -4.5155    1.1058    0.7730 C   0  0  0  0  0  0  0  0  0  0  0  0
   -3.4890   -1.0615    1.0674 C   0  0  0  0  0  0  0  0  0  0  0  0
    5.3001    0.4087    0.0208 C   0  0  0  0  0  0  0  0  0  0  0  0
    4.6227   -1.4879   -1.3138 C   0  0  0  0  0  0  0  0  0  0  0  0
   -5.6080    0.5036    0.1491 C   0  0  0  0  0  0  0  0  0  0  0  0
   -4.5816   -1.6637    0.4436 C   0  0  0  0  0  0  0  0  0  0  0  0
   -5.6412   -0.8811   -0.0155 C   0  0  0  0  0  0  0  0  0  0  0  0
    6.0116   -0.4412    0.8675 C   0  0  0  0  0  0  0  0  0  0  0  0
    5.3342   -2.3379   -0.4672 C   0  0  0  0  0  0  0  0  0  0  0  0
    6.0286   -1.8145    0.6234 C   0  0  0  0  0  0  0  0  0  0  0  0
   -6.8079   -1.5244   -0.6853 C   0  0  0  0  0  0  0  0  0  0  0  0
    6.6972   -4.0369    1.1423 C   0  0  0  0  0  0  0  0  0  0  0  0
   -0.2998    1.7253   -1.5986 H   0  0  0  0  0  0  0  0  0  0  0  0
   -1.1807   -0.1268   -0.2692 H   0  0  0  0  0  0  0  0  0  0  0  0
    0.0633    0.0719    0.9732 H   0  0  0  0  0  0  0  0  0  0  0  0
    1.5940   -0.4951   -0.8078 H   0  0  0  0  0  0  0  0  0  0  0  0
    1.1629    0.1066   -2.4352 H   0  0  0  0  0  0  0  0  0  0  0  0
   -0.2162    3.9843   -0.0507 H   0  0  0  0  0  0  0  0  0  0  0  0
    1.1014    3.9786    1.1355 H   0  0  0  0  0  0  0  0  0  0  0  0
    0.0729    2.1425    2.3869 H   0  0  0  0  0  0  0  0  0  0  0  0
   -1.1652    3.3768    2.1112 H   0  0  0  0  0  0  0  0  0  0  0  0
   -2.6876    1.7172    2.6025 H   0  0  0  0  0  0  0  0  0  0  0  0
   -1.7375    0.2552    2.5374 H   0  0  0  0  0  0  0  0  0  0  0  0
    4.4503    1.6874   -2.1938 H   0  0  0  0  0  0  0  0  0  0  0  0
    3.6216    0.3268   -2.9477 H   0  0  0  0  0  0  0  0  0  0  0  0
   -4.5010    2.1856    0.8952 H   0  0  0  0  0  0  0  0  0  0  0  0
   -2.6702   -1.6829    1.4201 H   0  0  0  0  0  0  0  0  0  0  0  0
    5.3018    1.4763    0.2207 H   0  0  0  0  0  0  0  0  0  0  0  0
    4.0835   -1.9075   -2.1591 H   0  0  0  0  0  0  0  0  0  0  0  0
   -6.4226    1.1311   -0.2018 H   0  0  0  0  0  0  0  0  0  0  0  0
   -4.5982   -2.7431    0.3191 H   0  0  0  0  0  0  0  0  0  0  0  0
    6.5516   -0.0277    1.7149 H   0  0  0  0  0  0  0  0  0  0  0  0
    5.3045   -3.3935   -0.7143 H   0  0  0  0  0  0  0  0  0  0  0  0
    7.3000   -4.5465    1.9012 H   0  0  0  0  0  0  0  0  0  0  0  0
    7.1630   -4.2431    0.1727 H   0  0  0  0  0  0  0  0  0  0  0  0
    5.6836   -4.4462    1.2115 H   0  0  0  0  0  0  0  0  0  0  0  0
  1 29  1  0  0  0  0
  2 29  1  0  0  0  0
  3 29  1  0  0  0  0
  4 14  2  0  0  0  0
  5 28  1  0  0  0  0
  5 30  1  0  0  0  0
  6  9  1  0  0  0  0
  6 12  1  0  0  0  0
  6 14  1  0  0  0  0
  7 10  1  0  0  0  0
  7 13  1  0  0  0  0
  7 15  1  0  0  0  0
  8 11  1  0  0  0  0
  8 14  1  0  0  0  0
  8 16  1  0  0  0  0
  9 10  1  0  0  0  0
  9 11  1  0  0  0  0
  9 31  1  0  0  0  0
 10 32  1  0  0  0  0
 10 33  1  0  0  0  0
 11 34  1  0  0  0  0
 11 35  1  0  0  0  0
 12 13  1  0  0  0  0
 12 36  1  0  0  0  0
 12 37  1  0  0  0  0
 13 38  1  0  0  0  0
 13 39  1  0  0  0  0
 15 17  1  0  0  0  0
 15 40  1  0  0  0  0
 15 41  1  0  0  0  0
 16 18  1  0  0  0  0
 16 42  1  0  0  0  0
 16 43  1  0  0  0  0
 17 19  2  0  0  0  0
 17 20  1  0  0  0  0
 18 21  2  0  0  0  0
 18 22  1  0  0  0  0
 19 23  1  0  0  0  0
 19 44  1  0  0  0  0
 20 24  2  0  0  0  0
 20 45  1  0  0  0  0
 21 26  1  0  0  0  0
 21 46  1  0  0  0  0
 22 27  2  0  0  0  0
 22 47  1  0  0  0  0
 23 25  2  0  0  0  0
 23 48  1  0  0  0  0
 24 25  1  0  0  0  0
 24 49  1  0  0  0  0
 25 29  1  0  0  0  0
 26 28  2  0  0  0  0
 26 50  1  0  0  0  0
 27 28  1  0  0  0  0
 27 51  1  0  0  0  0
 30 52  1  0  0  0  0
 30 53  1  0  0  0  0
 30 54  1  0  0  0  0
M  END
> <PUBCHEM_COMPOUND_CID>
75368629

> <PUBCHEM_CONFORMER_RMSD>
1

> <PUBCHEM_CONFORMER_DIVERSEORDER>
1
20
14
30
5
23
29
36
8
13
37
16
4
17
26
25
31
39
10
21
32
27
22
15
34
33
6
12
18
19
9
38
35
11
3
24
40
2
7
28

> <PUBCHEM_MMFF94_PARTIAL_CHARGES>
38
1 -0.34
10 0.27
11 0.3
12 0.3
13 0.27
14 0.69
15 0.41
16 0.44
17 -0.14
18 -0.14
19 -0.15
2 -0.34
20 -0.15
21 -0.15
22 -0.15
23 -0.15
24 -0.15
25 -0.14
26 -0.15
27 -0.15
28 0.08
29 1.16
3 -0.34
30 0.28
4 -0.57
44 0.15
45 0.15
46 0.15
47 0.15
48 0.15
49 0.15
5 -0.36
50 0.15
51 0.15
6 -0.66
7 -0.81
8 -0.66
9 0.3

> <PUBCHEM_EFFECTIVE_ROTOR_COUNT>
7.2

> <PUBCHEM_PHARMACOPHORE_FEATURES>
7
1 4 acceptor
1 5 acceptor
1 7 cation
5 6 8 9 11 14 rings
6 17 19 20 23 24 25 rings
6 18 21 22 26 27 28 rings
6 6 7 9 10 12 13 rings

> <PUBCHEM_HEAVY_ATOM_COUNT>
30

> <PUBCHEM_ATOM_DEF_STEREO_COUNT>
1

> <PUBCHEM_ATOM_UDEF_STEREO_COUNT>
0

> <PUBCHEM_BOND_DEF_STEREO_COUNT>
0

> <PUBCHEM_BOND_UDEF_STEREO_COUNT>
0

> <PUBCHEM_ISOTOPIC_ATOM_COUNT>
0

> <PUBCHEM_COMPONENT_COUNT>
1

> <PUBCHEM_CACTVS_TAUTO_COUNT>
1

> <PUBCHEM_CONFORMER_ID>
047E08B500000001

> <PUBCHEM_MMFF94_ENERGY>
77.264

> <PUBCHEM_FEATURE_SELFOVERLAP>
35.618

> <PUBCHEM_SHAPE_FINGERPRINT>
10674148 151 7853568025155741354
10794284 68 9654132694232999993
10920273 25 10665512855583122615
11475781 23 13768217129307935078
11476731 50 18336829685856632630
11796584 16 17386008441685306272
1200032 147 11671770582313891206
12390115 104 12035450558396384585
13533116 47 18334300864345370768
13761468 95 17460309955164137885
13782708 43 18260551151771046175
13914758 101 18261111855699307501
14068700 675 18411137991967813384
14150023 79 17840587325181283432
14344974 204 18123188992732296442
14347332 77 18343027700967293585
14537116 161 12757146896138615878
14848178 5 18114190713796321720
15163728 17 10231457607305062472
15183329 4 16950563289749006381
15188451 53 18410854322563273658
15350500 16 18412254021860604226
15357212 105 11455591241521107496
15475509 8 15357695275641408039
16126227 98 10159111957957284658
16993427 108 18342449318441932666
17857418 61 18409457981065802664
17899979 129 9943513134494317290
19301676 85 18260269616122676819
19304671 126 15068629330618553310
19438510 23 11959142209766901830
19958102 18 18040997375665163207
20028762 73 18271250430644176134
20567600 234 16271924943562361448
20691028 202 10665219380720422559
21133410 58 18261949747272785663
21315763 87 16702031867555650367
21315764 119 17458063798366954375
21458453 9 12391503218116468031
21585480 29 15123497138656914453
21585483 132 18187075131540932666
23559900 14 18195808694940808025
23569943 247 18334016060837831587
3004659 81 18271260403041012980
3014063 24 18334294224199389082
32027 91 18187370951475354619
3504750 166 18196376905179517328
397830 11 11671787087567274205
437795 70 15430036526378289270
439807 62 18271532017906668999
4408954 87 15697991950936904231
474113 269 18340480076211042759
4756088 132 16763367295421939543
5085150 59 17917713483608409999
5104073 3 17988380242296901889
5718773 13 18410291397804669083
5874358 3 18270944796239074607
5951187 136 8213849415186536650
59682541 52 18040436632950567789
6201320 221 18264189366786190167
6438161 24 18272649087112701095
6523845 18 15482395271100518044
9555976 147 17702389433680500312
96874 4 18410852144524874242
9689198 14 9511457857329168419

> <PUBCHEM_SHAPE_MULTIPOLES>
568.88
21.18
3.87
1.66
12.68
0.3
-0.11
23.98
-0.89
-3.93
0.86
-0.47
0.07
-3.7

> <PUBCHEM_SHAPE_SELFOVERLAP>
1223.533

> <PUBCHEM_SHAPE_VOLUME>
316.5

> <PUBCHEM_COORDINATE_TYPE>
2
5
10

$$$$
