75367729
  -OEChem-12032416403D

 50 52  0     1  0  0  0  0  0999 V2000
   -5.0659   -0.6368    0.0633 S   0  0  0  0  0  0  0  0  0  0  0  0
    5.6269   -1.2003    0.3705 S   0  0  0  0  0  0  0  0  0  0  0  0
   -1.2578    4.0576   -0.1745 O   0  0  0  0  0  0  0  0  0  0  0  0
    0.5972    1.2675   -1.4901 O   0  0  0  0  0  0  0  0  0  0  0  0
    5.8691   -2.4154   -0.3952 O   0  0  0  0  0  0  0  0  0  0  0  0
    6.6455   -0.1611    0.4184 O   0  0  0  0  0  0  0  0  0  0  0  0
   -2.3616    1.3019    0.7812 N   0  0  2  0  0  0  0  0  0  0  0  0
   -3.8723   -2.8994   -0.3088 N   0  0  0  0  0  0  0  0  0  0  0  0
   -1.1438    0.8382    0.1073 C   0  0  0  0  0  0  0  0  0  0  0  0
   -0.2092    1.8994   -0.4948 C   0  0  2  0  0  0  0  0  0  0  0  0
   -2.1971    2.5437    1.5381 C   0  0  0  0  0  0  0  0  0  0  0  0
   -0.9285    3.0721   -1.1477 C   0  0  0  0  0  0  0  0  0  0  0  0
   -2.9116    0.2339    1.6169 C   0  0  0  0  0  0  0  0  0  0  0  0
   -2.3970    3.7470    0.6158 C   0  0  0  0  0  0  0  0  0  0  0  0
   -3.5293   -0.8627    0.7906 C   0  0  0  0  0  0  0  0  0  0  0  0
    1.7628    0.6959   -1.0600 C   0  0  0  0  0  0  0  0  0  0  0  0
   -3.0521   -2.1195    0.4827 C   0  0  0  0  0  0  0  0  0  0  0  0
   -4.9619   -2.2200   -0.5905 C   0  0  0  0  0  0  0  0  0  0  0  0
    1.9777   -0.6704   -1.2408 C   0  0  0  0  0  0  0  0  0  0  0  0
    2.7365    1.4791   -0.4402 C   0  0  0  0  0  0  0  0  0  0  0  0
   -1.7624   -2.6908    0.9217 C   0  0  0  0  0  0  0  0  0  0  0  0
    4.1402   -0.4702   -0.1824 C   0  0  0  0  0  0  0  0  0  0  0  0
    3.1665   -1.2534   -0.8021 C   0  0  0  0  0  0  0  0  0  0  0  0
    3.9252    0.8962   -0.0014 C   0  0  0  0  0  0  0  0  0  0  0  0
   -6.0758   -2.7305   -1.4192 C   0  0  0  0  0  0  0  0  0  0  0  0
    5.2786   -1.7020    2.0410 C   0  0  0  0  0  0  0  0  0  0  0  0
   -1.4370    0.1544   -0.7002 H   0  0  0  0  0  0  0  0  0  0  0  0
   -0.5298    0.2384    0.7940 H   0  0  0  0  0  0  0  0  0  0  0  0
    0.4079    2.3052    0.3180 H   0  0  0  0  0  0  0  0  0  0  0  0
   -1.2324    2.5795    2.0579 H   0  0  0  0  0  0  0  0  0  0  0  0
   -2.9762    2.6231    2.3066 H   0  0  0  0  0  0  0  0  0  0  0  0
   -0.2579    3.5572   -1.8663 H   0  0  0  0  0  0  0  0  0  0  0  0
   -1.8141    2.7615   -1.7153 H   0  0  0  0  0  0  0  0  0  0  0  0
   -3.7120    0.6245    2.2611 H   0  0  0  0  0  0  0  0  0  0  0  0
   -2.1574   -0.1687    2.3051 H   0  0  0  0  0  0  0  0  0  0  0  0
   -3.2780    3.6293   -0.0276 H   0  0  0  0  0  0  0  0  0  0  0  0
   -2.5847    4.6294    1.2381 H   0  0  0  0  0  0  0  0  0  0  0  0
    1.2210   -1.2856   -1.7199 H   0  0  0  0  0  0  0  0  0  0  0  0
    2.5937    2.5481   -0.3073 H   0  0  0  0  0  0  0  0  0  0  0  0
   -1.5997   -2.5265    1.9914 H   0  0  0  0  0  0  0  0  0  0  0  0
   -1.7334   -3.7713    0.7463 H   0  0  0  0  0  0  0  0  0  0  0  0
   -0.9329   -2.2404    0.3686 H   0  0  0  0  0  0  0  0  0  0  0  0
    3.3101   -2.3205   -0.9464 H   0  0  0  0  0  0  0  0  0  0  0  0
    4.6680    1.5248    0.4815 H   0  0  0  0  0  0  0  0  0  0  0  0
   -7.0097   -2.7583   -0.8485 H   0  0  0  0  0  0  0  0  0  0  0  0
   -6.2249   -2.1053   -2.3055 H   0  0  0  0  0  0  0  0  0  0  0  0
   -5.8644   -3.7488   -1.7616 H   0  0  0  0  0  0  0  0  0  0  0  0
    6.1785   -2.1664    2.4499 H   0  0  0  0  0  0  0  0  0  0  0  0
    5.0150   -0.8206    2.6287 H   0  0  0  0  0  0  0  0  0  0  0  0
    4.4587   -2.4226    2.0322 H   0  0  0  0  0  0  0  0  0  0  0  0
  1 15  1  0  0  0  0
  1 18  1  0  0  0  0
  2  5  2  0  0  0  0
  2  6  2  0  0  0  0
  2 22  1  0  0  0  0
  2 26  1  0  0  0  0
  3 12  1  0  0  0  0
  3 14  1  0  0  0  0
  4 10  1  0  0  0  0
  4 16  1  0  0  0  0
  7  9  1  0  0  0  0
  7 11  1  0  0  0  0
  7 13  1  0  0  0  0
  8 17  1  0  0  0  0
  8 18  2  0  0  0  0
  9 10  1  0  0  0  0
  9 27  1  0  0  0  0
  9 28  1  0  0  0  0
 10 12  1  0  0  0  0
 10 29  1  0  0  0  0
 11 14  1  0  0  0  0
 11 30  1  0  0  0  0
 11 31  1  0  0  0  0
 12 32  1  0  0  0  0
 12 33  1  0  0  0  0
 13 15  1  0  0  0  0
 13 34  1  0  0  0  0
 13 35  1  0  0  0  0
 14 36  1  0  0  0  0
 14 37  1  0  0  0  0
 15 17  2  0  0  0  0
 16 19  2  0  0  0  0
 16 20  1  0  0  0  0
 17 21  1  0  0  0  0
 18 25  1  0  0  0  0
 19 23  1  0  0  0  0
 19 38  1  0  0  0  0
 20 24  2  0  0  0  0
 20 39  1  0  0  0  0
 21 40  1  0  0  0  0
 21 41  1  0  0  0  0
 21 42  1  0  0  0  0
 22 23  2  0  0  0  0
 22 24  1  0  0  0  0
 23 43  1  0  0  0  0
 24 44  1  0  0  0  0
 25 45  1  0  0  0  0
 25 46  1  0  0  0  0
 25 47  1  0  0  0  0
 26 48  1  0  0  0  0
 26 49  1  0  0  0  0
 26 50  1  0  0  0  0
M  END
> <PUBCHEM_COMPOUND_CID>
75367729

> <PUBCHEM_CONFORMER_RMSD>
1

> <PUBCHEM_CONFORMER_DIVERSEORDER>
2
133
93
25
170
199
141
41
153
164
158
95
48
178
151
62
190
24
152
117
166
171
148
109
146
75
201
22
168
118
47
61
185
14
99
132
177
125
115
33
73
206
76
180
119
78
157
42
74
23
181
8
172
140
128
13
81
124
90
60
196
161
123
20
198
11
154
195
203
175
104
68
83
184
87
29
142
77
35
67
122
38
197
186
71
79
121
139
202
173
63
183
5
160
149
169
106
100
80
127
89
15
111
49
4
44
98
52
97
188
65
94
96
191
187
3
64
176
131
112
174
150
30
58
147
145
193
21
116
103
200
18
130
120
32
1
189
105
156
162
12
37
182
57
54
108
19
107
192
126
9
134
53
143
36
88
92
16
129
110
205
72
34
7
56
82
40
165
28
27
194
85
50
91
113
17
39
167
59
136
137
45
159
179
84
26
55
102
155
10
6
204
31
114
69
66
70
86
43
51
46
135
163
101
144
138

> <PUBCHEM_MMFF94_PARTIAL_CHARGES>
30
1 -0.08
10 0.28
11 0.27
12 0.28
13 0.45
14 0.28
15 -0.14
16 0.08
17 0.05
18 0.2
19 -0.15
2 1.2
20 -0.15
21 0.18
22 -0.01
23 -0.15
24 -0.15
25 0.18
26 0.11
3 -0.56
38 0.15
39 0.15
4 -0.36
43 0.15
44 0.15
5 -0.65
6 -0.65
7 -0.81
8 -0.57
9 0.27

> <PUBCHEM_EFFECTIVE_ROTOR_COUNT>
6.4

> <PUBCHEM_PHARMACOPHORE_FEATURES>
9
1 3 acceptor
1 4 acceptor
1 5 acceptor
1 6 acceptor
1 7 cation
1 8 acceptor
5 1 8 15 17 18 rings
6 16 19 20 22 23 24 rings
7 3 7 9 10 11 12 14 rings

> <PUBCHEM_HEAVY_ATOM_COUNT>
26

> <PUBCHEM_ATOM_DEF_STEREO_COUNT>
1

> <PUBCHEM_ATOM_UDEF_STEREO_COUNT>
0

> <PUBCHEM_BOND_DEF_STEREO_COUNT>
0

> <PUBCHEM_BOND_UDEF_STEREO_COUNT>
0

> <PUBCHEM_ISOTOPIC_ATOM_COUNT>
0

> <PUBCHEM_COMPONENT_COUNT>
1

> <PUBCHEM_CACTVS_TAUTO_COUNT>
1

> <PUBCHEM_CONFORMER_ID>
047E053100000002

> <PUBCHEM_MMFF94_ENERGY>
63.3277

> <PUBCHEM_FEATURE_SELFOVERLAP>
45.692

> <PUBCHEM_SHAPE_FINGERPRINT>
10319688 77 17894628149781832572
10483366 6 18262503807629854773
10674148 151 13696130896096274606
11135926 11 17828220005200734316
11552529 35 18269840826445385384
11720765 8 18125711534382868029
11973864 118 14041765873086794767
12166972 35 17968377978335617447
12523318 42 18340482266681137688
12553582 1 18050600553124423957
12633257 1 18200610111088446264
12717326 68 18341319007915660278
12788726 201 18337405901559901136
13004483 165 18341327894212395309
13828863 39 9727366740211161511
13885169 86 10159696923475559491
14068700 675 18336258011425764805
1454969 45 18265619977927825644
14844126 61 18335990761750556417
15188451 53 18413099563698407146
15420108 30 17759240696012584529
17857418 61 18334576845752857274
19032999 76 18411411834629292331
19315092 285 17488464255218530179
20028762 73 18342174484044506454
21703447 108 18338786931621035168
22113638 7 18126851727355368119
23559900 14 17979914136296824145
23622692 118 18409449189499798076
255183 313 18055938519333386809
3004659 81 18113895008902116071
3027735 51 17531518790000181843
339767 52 18336263530506810595
3459 110 18272931614003251056
376196 1 14112213390579639305
397830 11 18201145582774491994
463206 1 18261396718930967987
484985 159 18189608363391438255
5924683 9 18411140195059195616
613672 6 18341060721535686343
653340 110 18339641114563732906

> <PUBCHEM_SHAPE_MULTIPOLES>
509.33
14.09
4.43
1.46
11.39
2.98
0.28
-14
0.77
-4.83
-0.04
-0.04
-0.09
-2.09

> <PUBCHEM_SHAPE_SELFOVERLAP>
1040.626

> <PUBCHEM_SHAPE_VOLUME>
296.7

> <PUBCHEM_COORDINATE_TYPE>
2
5
10

$$$$
