25313746
  -OEChem-12032416193D

 63 66  0     1  0  0  0  0  0999 V2000
   -3.5554   -0.9395    1.7306 O   0  0  0  0  0  0  0  0  0  0  0  0
    1.5533    0.3672   -0.1078 O   0  0  0  0  0  0  0  0  0  0  0  0
    1.4902   -3.5781   -2.0309 O   0  0  0  0  0  0  0  0  0  0  0  0
    2.8702   -3.0377    0.3205 O   0  0  0  0  0  0  0  0  0  0  0  0
   -3.0922    4.1519   -0.0665 N   0  0  0  0  0  0  0  0  0  0  0  0
   -3.3859   -2.1853   -0.2240 N   0  0  0  0  0  0  0  0  0  0  0  0
    0.2029    0.1475   -0.3513 N   0  0  0  0  0  0  0  0  0  0  0  0
    4.0138    1.0502    0.2980 N   0  0  0  0  0  0  0  0  0  0  0  0
   -4.0902    1.4106    0.1875 C   0  0  1  0  0  0  0  0  0  0  0  0
   -2.5871    1.7445    0.3443 C   0  0  2  0  0  0  0  0  0  0  0  0
   -4.8015    2.4647   -0.6743 C   0  0  0  0  0  0  0  0  0  0  0  0
   -2.4340    3.1984    0.8285 C   0  0  0  0  0  0  0  0  0  0  0  0
   -4.5258    3.8797   -0.1671 C   0  0  0  0  0  0  0  0  0  0  0  0
   -1.7627    1.5053   -0.9277 C   0  0  0  0  0  0  0  0  0  0  0  0
   -4.3470    0.0041   -0.3515 C   0  0  0  0  0  0  0  0  0  0  0  0
   -0.3023    1.3564   -0.6132 C   0  0  0  0  0  0  0  0  0  0  0  0
   -3.7270   -1.0660    0.5213 C   0  0  0  0  0  0  0  0  0  0  0  0
    0.6725    2.3671   -0.5502 C   0  0  0  0  0  0  0  0  0  0  0  0
    1.8207    1.6926   -0.2292 C   0  0  0  0  0  0  0  0  0  0  0  0
   -2.7739   -3.3605    0.3522 C   0  0  0  0  0  0  0  0  0  0  0  0
   -1.2749   -3.2763    0.3407 C   0  0  0  0  0  0  0  0  0  0  0  0
    3.1846    2.0742   -0.0044 C   0  0  0  0  0  0  0  0  0  0  0  0
   -0.5747   -3.4693   -0.8501 C   0  0  0  0  0  0  0  0  0  0  0  0
   -0.5826   -3.0042    1.5207 C   0  0  0  0  0  0  0  0  0  0  0  0
    3.5873    3.3967   -0.0981 C   0  0  0  0  0  0  0  0  0  0  0  0
    0.8180   -3.3901   -0.8611 C   0  0  0  0  0  0  0  0  0  0  0  0
    0.8100   -2.9252    1.5097 C   0  0  0  0  0  0  0  0  0  0  0  0
    1.5103   -3.1180    0.3189 C   0  0  0  0  0  0  0  0  0  0  0  0
    4.9273    3.6868    0.1332 C   0  0  0  0  0  0  0  0  0  0  0  0
    5.3089    1.3707    0.5164 C   0  0  0  0  0  0  0  0  0  0  0  0
    5.8111    2.6601    0.4468 C   0  0  0  0  0  0  0  0  0  0  0  0
    1.7351   -2.4225   -2.8304 C   0  0  0  0  0  0  0  0  0  0  0  0
    3.5011   -2.7560    1.5683 C   0  0  0  0  0  0  0  0  0  0  0  0
   -4.5356    1.4678    1.1921 H   0  0  0  0  0  0  0  0  0  0  0  0
   -2.1817    1.1094    1.1431 H   0  0  0  0  0  0  0  0  0  0  0  0
   -5.8833    2.2843   -0.6680 H   0  0  0  0  0  0  0  0  0  0  0  0
   -4.4739    2.3804   -1.7185 H   0  0  0  0  0  0  0  0  0  0  0  0
   -2.8630    3.2966    1.8344 H   0  0  0  0  0  0  0  0  0  0  0  0
   -1.3824    3.4787    0.9343 H   0  0  0  0  0  0  0  0  0  0  0  0
   -4.9782    4.6066   -0.8507 H   0  0  0  0  0  0  0  0  0  0  0  0
   -5.0016    4.0320    0.8093 H   0  0  0  0  0  0  0  0  0  0  0  0
   -1.8980    2.2978   -1.6711 H   0  0  0  0  0  0  0  0  0  0  0  0
   -2.0623    0.5816   -1.4321 H   0  0  0  0  0  0  0  0  0  0  0  0
   -4.0260   -0.0947   -1.3933 H   0  0  0  0  0  0  0  0  0  0  0  0
   -5.4279   -0.1894   -0.3521 H   0  0  0  0  0  0  0  0  0  0  0  0
   -2.6717    4.1102   -0.9929 H   0  0  0  0  0  0  0  0  0  0  0  0
    0.5513    3.4272   -0.7187 H   0  0  0  0  0  0  0  0  0  0  0  0
   -3.5601   -2.1926   -1.2247 H   0  0  0  0  0  0  0  0  0  0  0  0
   -3.1050   -4.2276   -0.2307 H   0  0  0  0  0  0  0  0  0  0  0  0
   -3.1501   -3.4980    1.3727 H   0  0  0  0  0  0  0  0  0  0  0  0
   -1.1103   -3.6813   -1.7723 H   0  0  0  0  0  0  0  0  0  0  0  0
   -1.1165   -2.8491    2.4545 H   0  0  0  0  0  0  0  0  0  0  0  0
    2.9004    4.2001   -0.3425 H   0  0  0  0  0  0  0  0  0  0  0  0
    1.2806   -2.7088    2.4625 H   0  0  0  0  0  0  0  0  0  0  0  0
    5.2825    4.7109    0.0694 H   0  0  0  0  0  0  0  0  0  0  0  0
    5.9565    0.5342    0.7576 H   0  0  0  0  0  0  0  0  0  0  0  0
    6.8599    2.8629    0.6311 H   0  0  0  0  0  0  0  0  0  0  0  0
    2.2605   -2.7372   -3.7361 H   0  0  0  0  0  0  0  0  0  0  0  0
    2.3651   -1.7084   -2.2906 H   0  0  0  0  0  0  0  0  0  0  0  0
    0.7920   -1.9476   -3.1193 H   0  0  0  0  0  0  0  0  0  0  0  0
    4.5802   -2.7273    1.3843 H   0  0  0  0  0  0  0  0  0  0  0  0
    3.3238   -3.5521    2.2994 H   0  0  0  0  0  0  0  0  0  0  0  0
    3.2180   -1.7687    1.9491 H   0  0  0  0  0  0  0  0  0  0  0  0
  1 17  2  0  0  0  0
  2  7  1  0  0  0  0
  2 19  1  0  0  0  0
  3 26  1  0  0  0  0
  3 32  1  0  0  0  0
  4 28  1  0  0  0  0
  4 33  1  0  0  0  0
  5 12  1  0  0  0  0
  5 13  1  0  0  0  0
  5 46  1  0  0  0  0
  6 17  1  0  0  0  0
  6 20  1  0  0  0  0
  6 48  1  0  0  0  0
  7 16  2  0  0  0  0
  8 22  1  0  0  0  0
  8 30  2  0  0  0  0
  9 10  1  0  0  0  0
  9 11  1  0  0  0  0
  9 15  1  0  0  0  0
  9 34  1  0  0  0  0
 10 12  1  0  0  0  0
 10 14  1  0  0  0  0
 10 35  1  0  0  0  0
 11 13  1  0  0  0  0
 11 36  1  0  0  0  0
 11 37  1  0  0  0  0
 12 38  1  0  0  0  0
 12 39  1  0  0  0  0
 13 40  1  0  0  0  0
 13 41  1  0  0  0  0
 14 16  1  0  0  0  0
 14 42  1  0  0  0  0
 14 43  1  0  0  0  0
 15 17  1  0  0  0  0
 15 44  1  0  0  0  0
 15 45  1  0  0  0  0
 16 18  1  0  0  0  0
 18 19  2  0  0  0  0
 18 47  1  0  0  0  0
 19 22  1  0  0  0  0
 20 21  1  0  0  0  0
 20 49  1  0  0  0  0
 20 50  1  0  0  0  0
 21 23  2  0  0  0  0
 21 24  1  0  0  0  0
 22 25  2  0  0  0  0
 23 26  1  0  0  0  0
 23 51  1  0  0  0  0
 24 27  2  0  0  0  0
 24 52  1  0  0  0  0
 25 29  1  0  0  0  0
 25 53  1  0  0  0  0
 26 28  2  0  0  0  0
 27 28  1  0  0  0  0
 27 54  1  0  0  0  0
 29 31  2  0  0  0  0
 29 55  1  0  0  0  0
 30 31  1  0  0  0  0
 30 56  1  0  0  0  0
 31 57  1  0  0  0  0
 32 58  1  0  0  0  0
 32 59  1  0  0  0  0
 32 60  1  0  0  0  0
 33 61  1  0  0  0  0
 33 62  1  0  0  0  0
 33 63  1  0  0  0  0
M  END
> <PUBCHEM_COMPOUND_CID>
25313746

> <PUBCHEM_CONFORMER_RMSD>
1.4

> <PUBCHEM_CONFORMER_DIVERSEORDER>
1
17
35
90
83
12
2
111
57
3
103
94
108
28
36
16
9
60
6
46
119
53
44
63
76
70
37
87
77
106
25
38
79
54
23
82
118
74
20
40
15
34
33
92
86
115
52
100
7
105
78
59
22
55
93
50
96
49
64
18
104
58
98
84
11
67
31
30
68
62
21
112
88
102
85
114
8
56
101
47
117
19
113
97
75
27
73
109
42
69
80
81
29
45
32
43
91
14
4
95
89
61
13
10
48
5
116
41
72
66
26
24
107
110
71
51
39
99
65

> <PUBCHEM_MMFF94_PARTIAL_CHARGES>
40
1 -0.57
12 0.27
13 0.27
14 0.18
15 0.06
16 0.11
17 0.57
18 -0.15
19 0.09
2 -0.02
20 0.44
21 -0.14
22 0.36
23 -0.15
24 -0.15
25 -0.15
26 0.08
27 -0.15
28 0.08
29 -0.15
3 -0.36
30 0.16
31 -0.15
32 0.28
33 0.28
4 -0.36
46 0.36
47 0.15
48 0.37
5 -0.9
51 0.15
52 0.15
53 0.15
54 0.15
55 0.15
56 0.15
57 0.15
6 -0.73
7 -0.41
8 -0.62

> <PUBCHEM_EFFECTIVE_ROTOR_COUNT>
11.2

> <PUBCHEM_PHARMACOPHORE_FEATURES>
12
1 1 acceptor
1 3 acceptor
1 4 acceptor
1 5 cation
1 5 donor
1 6 donor
1 7 acceptor
1 8 acceptor
5 2 7 16 18 19 rings
6 21 23 24 26 27 28 rings
6 5 9 10 11 12 13 rings
6 8 22 25 29 30 31 rings

> <PUBCHEM_HEAVY_ATOM_COUNT>
33

> <PUBCHEM_ATOM_DEF_STEREO_COUNT>
2

> <PUBCHEM_ATOM_UDEF_STEREO_COUNT>
0

> <PUBCHEM_BOND_DEF_STEREO_COUNT>
0

> <PUBCHEM_BOND_UDEF_STEREO_COUNT>
0

> <PUBCHEM_ISOTOPIC_ATOM_COUNT>
0

> <PUBCHEM_COMPONENT_COUNT>
1

> <PUBCHEM_CACTVS_TAUTO_COUNT>
2

> <PUBCHEM_CONFORMER_ID>
018241D200000001

> <PUBCHEM_MMFF94_ENERGY>
80.5585

> <PUBCHEM_FEATURE_SELFOVERLAP>
60.903

> <PUBCHEM_SHAPE_FINGERPRINT>
10483366 6 17909814768400722399
10864689 126 17977669710873654758
1100329 8 18192143794387473634
11513181 2 18272647948213885958
12422481 6 18336250289787184994
12788726 201 17904189675038048704
13111901 25 18187630416068792506
13140716 1 18190741933961950771
13165053 371 17043162767815198593
14068700 675 17339284837340451111
14394314 77 18266180724657313569
14725015 67 17616813675298417859
14790565 3 18119247509532887712
15081414 286 17620760479670486427
15664445 248 17693658117297170358
15927050 60 18410853261811957006
15968369 26 18341618054109195796
19311894 1 17690840486129702174
21796203 349 17329184301871437194
23559900 14 18124027936455197729
238918 7 18200043974432594134
338550 245 18188772868257256164
3388396 114 18124858295562237999
394071 54 17695341478447998345
4112364 45 17339607776205459785
5171179 24 18199771183853713662
5309563 4 17473254380422792392
550186 7 18126017202255989524
6004065 56 17760068633069851093
6036956 94 18190179186183911181
653340 110 18122896788583441048
6608658 132 17910100640516446014
9981440 41 18408324385005301825

> <PUBCHEM_SHAPE_MULTIPOLES>
635.72
10.22
7.35
1.44
5.4
1.52
0.57
-11.67
-1.72
-0.02
0.15
0.43
1.72
0.71

> <PUBCHEM_SHAPE_SELFOVERLAP>
1355.241

> <PUBCHEM_SHAPE_VOLUME>
351.4

> <PUBCHEM_COORDINATE_TYPE>
2
5
10

$$$$
