75536985
  -OEChem-12032416323D

 39 41  0     1  0  0  0  0  0999 V2000
    5.4564   -2.0325    1.3858 F   0  0  0  0  0  0  0  0  0  0  0  0
    0.2586    2.6988    0.6962 O   0  0  0  0  0  0  0  0  0  0  0  0
   -5.7338   -0.8341    0.9308 O   0  0  0  0  0  0  0  0  0  0  0  0
   -1.4428    1.2091    0.0591 N   0  0  0  0  0  0  0  0  0  0  0  0
    0.5270    1.1005   -1.0167 N   0  0  0  0  0  0  0  0  0  0  0  0
   -3.4809   -0.6553    0.3968 N   0  0  0  0  0  0  0  0  0  0  0  0
   -1.6516    0.2243   -0.9877 C   0  0  1  0  0  0  0  0  0  0  0  0
   -0.2556    0.0075   -1.5666 C   0  0  0  0  0  0  0  0  0  0  0  0
   -2.3081   -1.0297   -0.4160 C   0  0  0  0  0  0  0  0  0  0  0  0
   -2.5363    1.5603    0.9470 C   0  0  0  0  0  0  0  0  0  0  0  0
   -3.1964    0.2928    1.4846 C   0  0  0  0  0  0  0  0  0  0  0  0
   -0.1673    1.7873   -0.0011 C   0  0  0  0  0  0  0  0  0  0  0  0
    1.9020    1.3278   -1.4030 C   0  0  0  0  0  0  0  0  0  0  0  0
   -4.7739   -1.1444    0.2209 C   0  0  0  0  0  0  0  0  0  0  0  0
    2.8498    0.4317   -0.6595 C   0  0  0  0  0  0  0  0  0  0  0  0
   -4.9802   -2.1092   -0.9191 C   0  0  0  0  0  0  0  0  0  0  0  0
    3.3962    0.8486    0.5544 C   0  0  0  0  0  0  0  0  0  0  0  0
    3.1840   -0.8176   -1.1822 C   0  0  0  0  0  0  0  0  0  0  0  0
    4.2769    0.0165    1.2453 C   0  0  0  0  0  0  0  0  0  0  0  0
    4.0649   -1.6498   -0.4914 C   0  0  0  0  0  0  0  0  0  0  0  0
    4.6112   -1.2328    0.7224 C   0  0  0  0  0  0  0  0  0  0  0  0
   -2.3077    0.6913   -1.7334 H   0  0  0  0  0  0  0  0  0  0  0  0
    0.1867   -0.9399   -1.2435 H   0  0  0  0  0  0  0  0  0  0  0  0
   -0.2535    0.0582   -2.6595 H   0  0  0  0  0  0  0  0  0  0  0  0
   -2.5636   -1.7184   -1.2232 H   0  0  0  0  0  0  0  0  0  0  0  0
   -1.6228   -1.5579    0.2587 H   0  0  0  0  0  0  0  0  0  0  0  0
   -3.2525    2.1423    0.3559 H   0  0  0  0  0  0  0  0  0  0  0  0
   -2.1675    2.1941    1.7591 H   0  0  0  0  0  0  0  0  0  0  0  0
   -2.5218   -0.2195    2.1812 H   0  0  0  0  0  0  0  0  0  0  0  0
   -4.1075    0.5488    2.0341 H   0  0  0  0  0  0  0  0  0  0  0  0
    2.1521    2.3753   -1.1952 H   0  0  0  0  0  0  0  0  0  0  0  0
    1.9927    1.1905   -2.4867 H   0  0  0  0  0  0  0  0  0  0  0  0
   -4.3733   -3.0061   -0.7698 H   0  0  0  0  0  0  0  0  0  0  0  0
   -4.7305   -1.6302   -1.8695 H   0  0  0  0  0  0  0  0  0  0  0  0
   -6.0316   -2.4107   -0.9551 H   0  0  0  0  0  0  0  0  0  0  0  0
    3.1439    1.8190    0.9733 H   0  0  0  0  0  0  0  0  0  0  0  0
    2.7657   -1.1539   -2.1272 H   0  0  0  0  0  0  0  0  0  0  0  0
    4.7022    0.3405    2.1905 H   0  0  0  0  0  0  0  0  0  0  0  0
    4.3254   -2.6224   -0.8981 H   0  0  0  0  0  0  0  0  0  0  0  0
  1 21  1  0  0  0  0
  2 12  2  0  0  0  0
  3 14  2  0  0  0  0
  4  7  1  0  0  0  0
  4 10  1  0  0  0  0
  4 12  1  0  0  0  0
  5  8  1  0  0  0  0
  5 12  1  0  0  0  0
  5 13  1  0  0  0  0
  6  9  1  0  0  0  0
  6 11  1  0  0  0  0
  6 14  1  0  0  0  0
  7  8  1  0  0  0  0
  7  9  1  0  0  0  0
  7 22  1  0  0  0  0
  8 23  1  0  0  0  0
  8 24  1  0  0  0  0
  9 25  1  0  0  0  0
  9 26  1  0  0  0  0
 10 11  1  0  0  0  0
 10 27  1  0  0  0  0
 10 28  1  0  0  0  0
 11 29  1  0  0  0  0
 11 30  1  0  0  0  0
 13 15  1  0  0  0  0
 13 31  1  0  0  0  0
 13 32  1  0  0  0  0
 14 16  1  0  0  0  0
 15 17  2  0  0  0  0
 15 18  1  0  0  0  0
 16 33  1  0  0  0  0
 16 34  1  0  0  0  0
 16 35  1  0  0  0  0
 17 19  1  0  0  0  0
 17 36  1  0  0  0  0
 18 20  2  0  0  0  0
 18 37  1  0  0  0  0
 19 21  2  0  0  0  0
 19 38  1  0  0  0  0
 20 21  1  0  0  0  0
 20 39  1  0  0  0  0
M  END
> <PUBCHEM_COMPOUND_CID>
75536985

> <PUBCHEM_CONFORMER_RMSD>
0.6

> <PUBCHEM_CONFORMER_DIVERSEORDER>
1
34
31
38
17
37
36
48
33
42
3
43
22
39
41
47
15
35
26
11
10
45
40
23
14
21
25
28
16
30
27
24
13
4
19
6
44
7
9
46
8
5
32
18
12
2
20
29

> <PUBCHEM_MMFF94_PARTIAL_CHARGES>
25
1 -0.19
10 0.3
11 0.3
12 0.69
13 0.44
14 0.57
15 -0.14
16 0.06
17 -0.15
18 -0.15
19 -0.15
2 -0.57
20 -0.15
21 0.19
3 -0.57
36 0.15
37 0.15
38 0.15
39 0.15
4 -0.66
5 -0.66
6 -0.66
7 0.3
8 0.3
9 0.3

> <PUBCHEM_EFFECTIVE_ROTOR_COUNT>
4.2

> <PUBCHEM_PHARMACOPHORE_FEATURES>
5
1 2 acceptor
1 3 acceptor
5 4 5 7 8 12 rings
6 15 17 18 19 20 21 rings
6 4 6 7 9 10 11 rings

> <PUBCHEM_HEAVY_ATOM_COUNT>
21

> <PUBCHEM_ATOM_DEF_STEREO_COUNT>
1

> <PUBCHEM_ATOM_UDEF_STEREO_COUNT>
0

> <PUBCHEM_BOND_DEF_STEREO_COUNT>
0

> <PUBCHEM_BOND_UDEF_STEREO_COUNT>
0

> <PUBCHEM_ISOTOPIC_ATOM_COUNT>
0

> <PUBCHEM_COMPONENT_COUNT>
1

> <PUBCHEM_CACTVS_TAUTO_COUNT>
1

> <PUBCHEM_CONFORMER_ID>
04809A5900000001

> <PUBCHEM_MMFF94_ENERGY>
47.0708

> <PUBCHEM_FEATURE_SELFOVERLAP>
25.471

> <PUBCHEM_SHAPE_FINGERPRINT>
10319926 262 17417540094591995678
11578080 2 18187351143361590220
11796584 16 17822288033137616387
12363563 72 17530686481193851916
12596602 18 17632295704833246794
12633257 1 16773503456434916938
12670546 177 12468356859993586610
12824470 246 18040989588768220760
12839892 36 17632581578225798855
12892183 10 17060342885741914314
13533116 47 18334861670577017169
13583140 156 17703498900831659184
13782708 43 17824269409474537739
14178342 30 18199196087389478140
1420 369 18408887338646625662
14251764 38 12102195234533520699
14341114 328 16845287284967731258
14848178 5 18186799214182739563
15163728 17 9151174298166089064
15183329 4 16081359744531275823
15188451 53 18342449344512422919
15210252 30 10447921785475085390
15342168 16 12391511988001699600
15475509 8 15574706968496084903
15885798 251 18410295821763623261
17349148 13 18409738386869976615
17862501 102 18272375304111174783
17959699 21 8286209348376448751
1813 80 18114190721953804860
18186145 218 12540703612921210172
18222031 100 18202292432561178533
18785283 64 15338261515031761539
193927 3 18041289798170749946
19784866 240 17894349964506801222
19862831 5 13262394479365346213
200 152 17967813851307416413
20567600 234 15267341855736415067
20645477 70 17095526244192038972
20775530 9 17099176404217790802
20871999 31 11314323757752855489
21033648 29 15626234489371628209
21065199 12 17846216605802857008
22079108 93 13542465384502081327
22646028 28 18259989262426516422
23366157 5 17908987956762068977
23402655 69 8070025580126659974
23559900 14 16843916138133580005
270888 7 12103547707203452826
2838139 119 11240002239419647002
3472631 163 10375861987664481554
4072396 5 18060147539774243821
4259306 186 17240765055958387938
465052 167 17967543397169788691
49207404 50 16845300410181877854
4990 188 14779541344293117013
5104073 3 17773047569272270219
559249 180 18115023001053786457
59682541 52 15719937121355176667
633830 44 10879997947435373748
76465 3 18260830397053139900
7970288 3 18040996198771077162
8988823 20 18200305653757350557
90316 7 18270974444197825969
960060 61 15791737420601968990

> <PUBCHEM_SHAPE_MULTIPOLES>
398.21
11.73
2.19
1.47
2.38
0.28
0.03
-8.66
-4.4
0.03
-0.16
-0.55
-0.04
-1.12

> <PUBCHEM_SHAPE_SELFOVERLAP>
844.428

> <PUBCHEM_SHAPE_VOLUME>
224

> <PUBCHEM_COORDINATE_TYPE>
2
5
10

$$$$
