75367679
  -OEChem-12032416403D

 41 43  0     1  0  0  0  0  0999 V2000
    4.7066    3.3537   -0.7129 F   0  0  0  0  0  0  0  0  0  0  0  0
   -1.4064   -3.1879   -0.8215 O   0  0  0  0  0  0  0  0  0  0  0  0
   -1.9424    0.3942   -0.9498 O   0  0  0  0  0  0  0  0  0  0  0  0
    2.9727   -2.3799    1.0433 O   0  0  0  0  0  0  0  0  0  0  0  0
    0.8243   -1.5369    0.6350 N   0  0  0  0  0  0  0  0  0  0  0  0
   -1.4041   -0.7914   -0.3627 C   0  0  2  0  0  0  0  0  0  0  0  0
   -0.0196   -0.4257    0.1799 C   0  0  0  0  0  0  0  0  0  0  0  0
    0.1759   -2.7961    1.0050 C   0  0  0  0  0  0  0  0  0  0  0  0
   -1.3641   -1.8951   -1.4177 C   0  0  0  0  0  0  0  0  0  0  0  0
   -0.1823   -3.6115   -0.2308 C   0  0  0  0  0  0  0  0  0  0  0  0
    2.2257   -1.4647    0.6986 C   0  0  0  0  0  0  0  0  0  0  0  0
    2.8770   -0.1985    0.3276 C   0  0  0  0  0  0  0  0  0  0  0  0
   -3.0894    0.8863   -0.3907 C   0  0  0  0  0  0  0  0  0  0  0  0
    3.1143    0.7743    1.2988 C   0  0  0  0  0  0  0  0  0  0  0  0
    3.2577    0.0290   -0.9949 C   0  0  0  0  0  0  0  0  0  0  0  0
   -4.2427    0.1023   -0.3599 C   0  0  0  0  0  0  0  0  0  0  0  0
   -3.1060    2.1726    0.1486 C   0  0  0  0  0  0  0  0  0  0  0  0
    3.7320    1.9744    0.9475 C   0  0  0  0  0  0  0  0  0  0  0  0
    3.8755    1.2291   -1.3463 C   0  0  0  0  0  0  0  0  0  0  0  0
   -5.4126    0.6045    0.2101 C   0  0  0  0  0  0  0  0  0  0  0  0
   -4.2758    2.6748    0.7188 C   0  0  0  0  0  0  0  0  0  0  0  0
    4.1126    2.2018   -0.3751 C   0  0  0  0  0  0  0  0  0  0  0  0
   -5.4291    1.8907    0.7493 C   0  0  0  0  0  0  0  0  0  0  0  0
   -2.0203   -1.1276    0.4826 H   0  0  0  0  0  0  0  0  0  0  0  0
    0.5146    0.1520   -0.5816 H   0  0  0  0  0  0  0  0  0  0  0  0
   -0.1348    0.2545    1.0337 H   0  0  0  0  0  0  0  0  0  0  0  0
    0.8695   -3.3815    1.6184 H   0  0  0  0  0  0  0  0  0  0  0  0
   -0.6984   -2.5748    1.6258 H   0  0  0  0  0  0  0  0  0  0  0  0
   -2.2485   -1.8214   -2.0603 H   0  0  0  0  0  0  0  0  0  0  0  0
   -0.4973   -1.8013   -2.0835 H   0  0  0  0  0  0  0  0  0  0  0  0
    0.6174   -3.6055   -0.9808 H   0  0  0  0  0  0  0  0  0  0  0  0
   -0.3379   -4.6527    0.0709 H   0  0  0  0  0  0  0  0  0  0  0  0
    2.8214    0.6072    2.3320 H   0  0  0  0  0  0  0  0  0  0  0  0
    3.0769   -0.7223   -1.7594 H   0  0  0  0  0  0  0  0  0  0  0  0
   -4.2492   -0.8981   -0.7836 H   0  0  0  0  0  0  0  0  0  0  0  0
   -2.2104    2.7874    0.1279 H   0  0  0  0  0  0  0  0  0  0  0  0
    3.9169    2.7320    1.7033 H   0  0  0  0  0  0  0  0  0  0  0  0
    4.1719    1.4066   -2.3758 H   0  0  0  0  0  0  0  0  0  0  0  0
   -6.3112   -0.0051    0.2322 H   0  0  0  0  0  0  0  0  0  0  0  0
   -4.2887    3.6762    1.1388 H   0  0  0  0  0  0  0  0  0  0  0  0
   -6.3400    2.2820    1.1928 H   0  0  0  0  0  0  0  0  0  0  0  0
  1 22  1  0  0  0  0
  2  9  1  0  0  0  0
  2 10  1  0  0  0  0
  3  6  1  0  0  0  0
  3 13  1  0  0  0  0
  4 11  2  0  0  0  0
  5  7  1  0  0  0  0
  5  8  1  0  0  0  0
  5 11  1  0  0  0  0
  6  7  1  0  0  0  0
  6  9  1  0  0  0  0
  6 24  1  0  0  0  0
  7 25  1  0  0  0  0
  7 26  1  0  0  0  0
  8 10  1  0  0  0  0
  8 27  1  0  0  0  0
  8 28  1  0  0  0  0
  9 29  1  0  0  0  0
  9 30  1  0  0  0  0
 10 31  1  0  0  0  0
 10 32  1  0  0  0  0
 11 12  1  0  0  0  0
 12 14  2  0  0  0  0
 12 15  1  0  0  0  0
 13 16  2  0  0  0  0
 13 17  1  0  0  0  0
 14 18  1  0  0  0  0
 14 33  1  0  0  0  0
 15 19  2  0  0  0  0
 15 34  1  0  0  0  0
 16 20  1  0  0  0  0
 16 35  1  0  0  0  0
 17 21  2  0  0  0  0
 17 36  1  0  0  0  0
 18 22  2  0  0  0  0
 18 37  1  0  0  0  0
 19 22  1  0  0  0  0
 19 38  1  0  0  0  0
 20 23  2  0  0  0  0
 20 39  1  0  0  0  0
 21 23  1  0  0  0  0
 21 40  1  0  0  0  0
 23 41  1  0  0  0  0
M  END
> <PUBCHEM_COMPOUND_CID>
75367679

> <PUBCHEM_CONFORMER_RMSD>
0.8

> <PUBCHEM_CONFORMER_DIVERSEORDER>
1
74
29
35
45
67
80
26
6
60
55
69
17
49
27
4
78
31
64
52
75
19
84
47
8
59
20
24
41
39
65
79
37
72
13
50
22
76
62
36
46
34
53
57
87
40
73
10
3
61
66
71
42
33
86
23
11
16
51
18
48
9
54
56
83
28
44
63
5
14
58
38
82
2
32
68
70
7
85
77
30
43
12
15
21
25
81

> <PUBCHEM_MMFF94_PARTIAL_CHARGES>
32
1 -0.19
10 0.28
11 0.54
12 0.09
13 0.08
14 -0.15
15 -0.15
16 -0.15
17 -0.15
18 -0.15
19 -0.15
2 -0.56
20 -0.15
21 -0.15
22 0.19
23 -0.15
3 -0.36
33 0.15
34 0.15
35 0.15
36 0.15
37 0.15
38 0.15
39 0.15
4 -0.57
40 0.15
41 0.15
5 -0.66
6 0.28
7 0.3
8 0.3
9 0.28

> <PUBCHEM_EFFECTIVE_ROTOR_COUNT>
5.4

> <PUBCHEM_PHARMACOPHORE_FEATURES>
6
1 2 acceptor
1 3 acceptor
1 4 acceptor
6 12 14 15 18 19 22 rings
6 13 16 17 20 21 23 rings
7 2 5 6 7 8 9 10 rings

> <PUBCHEM_HEAVY_ATOM_COUNT>
23

> <PUBCHEM_ATOM_DEF_STEREO_COUNT>
1

> <PUBCHEM_ATOM_UDEF_STEREO_COUNT>
0

> <PUBCHEM_BOND_DEF_STEREO_COUNT>
0

> <PUBCHEM_BOND_UDEF_STEREO_COUNT>
0

> <PUBCHEM_ISOTOPIC_ATOM_COUNT>
0

> <PUBCHEM_COMPONENT_COUNT>
1

> <PUBCHEM_CACTVS_TAUTO_COUNT>
1

> <PUBCHEM_CONFORMER_ID>
047E04FF00000001

> <PUBCHEM_MMFF94_ENERGY>
77.922

> <PUBCHEM_FEATURE_SELFOVERLAP>
30.448

> <PUBCHEM_SHAPE_FINGERPRINT>
10493431 412 18336547217475853941
10937287 8 18411134748987669807
11720765 8 17273144492876308644
12173636 292 18342446080284517807
12293681 160 17686594132999086399
12390115 104 18338249274233595089
12403259 118 18192979427661761201
12788726 201 17468779818562947391
13583140 156 17025693898686103475
14251764 75 18341060669937952593
14468879 13 17845942947329009246
146900 427 18341340994269148753
14790565 3 18413112749411912905
14849402 71 18261395508155800584
14955137 171 18048312246005048026
151778 21 18339078181473435769
15342168 16 18260546748870554413
15342816 4 8141790742251668795
17349148 13 12252193931167951481
17980427 23 18055037001281506786
18785283 64 18265332798411625723
20465049 17 18267601121380957550
20567600 9 18054801589238039349
20626108 58 7925614584615427725
20739085 24 18115031779439795925
21285901 2 13038607510609983699
21756936 100 18341889748933383804
23559900 14 17766837231034681731
245318 6 17968958494420748565
2637199 183 18341619170035592902
3178227 256 18193004720249855746
38570 142 18114479928404528092
394222 165 18336260137640870643
474 4 18334010566825059777
49207404 50 18113909225570764331
5048184 11 18409448128426786340
5252454 2 18334852848862319612
5312544 6 18337953394247894593
57527585 21 17337855471691878772
633830 44 18272368625225942503
6438754 60 10735879439555338333
6442390 28 18408892845000622475
7288768 16 17895474850991156098
7808743 9 18266177417037110288
8988823 20 13479143431626530223
960060 61 12247672794556180424
9999458 23 18190182291139304262

> <PUBCHEM_SHAPE_MULTIPOLES>
443.47
10.93
4.09
1.21
6.87
1.72
-0.07
-11.47
0.51
-1.32
0.07
-0.73
0.09
-1.74

> <PUBCHEM_SHAPE_SELFOVERLAP>
947.335

> <PUBCHEM_SHAPE_VOLUME>
244.3

> <PUBCHEM_COORDINATE_TYPE>
2
5
10

$$$$
