38026961
  -OEChem-12032416143D

 66 68  0     1  0  0  0  0  0999 V2000
    1.3353   -3.1334   -0.1254 O   0  0  0  0  0  0  0  0  0  0  0  0
   -3.6951    2.1265   -1.6184 O   0  0  0  0  0  0  0  0  0  0  0  0
   -1.5691    3.1651    1.0219 O   0  0  0  0  0  0  0  0  0  0  0  0
    6.2305    2.0746   -0.0923 O   0  0  0  0  0  0  0  0  0  0  0  0
    2.5208   -1.1379   -0.2084 N   0  0  0  0  0  0  0  0  0  0  0  0
   -3.4193    1.2118    0.4965 N   0  0  0  0  0  0  0  0  0  0  0  0
    5.0717    0.0669    0.0506 N   0  0  0  0  0  0  0  0  0  0  0  0
   -2.6044   -1.4627   -0.6111 C   0  0  1  0  0  0  0  0  0  0  0  0
   -3.6342   -1.2176    0.5202 C   0  0  1  0  0  0  0  0  0  0  0  0
   -1.6212   -2.5729   -0.2099 C   0  0  0  0  0  0  0  0  0  0  0  0
   -0.8549   -2.2334    1.0824 C   0  0  2  0  0  0  0  0  0  0  0  0
   -3.2877   -1.8275   -1.9328 C   0  0  0  0  0  0  0  0  0  0  0  0
   -1.7805   -1.7243    2.1687 C   0  0  0  0  0  0  0  0  0  0  0  0
   -3.0237   -1.2870    1.9003 C   0  0  0  0  0  0  0  0  0  0  0  0
    0.2731   -1.2324    0.8090 C   0  0  0  0  0  0  0  0  0  0  0  0
   -4.3414    0.1306    0.3419 C   0  0  0  0  0  0  0  0  0  0  0  0
   -2.3840   -1.4818   -3.1121 C   0  0  0  0  0  0  0  0  0  0  0  0
   -3.6570   -3.3074   -1.9498 C   0  0  0  0  0  0  0  0  0  0  0  0
   -1.2605   -1.7720    3.5785 C   0  0  0  0  0  0  0  0  0  0  0  0
    1.4184   -1.9266    0.1164 C   0  0  0  0  0  0  0  0  0  0  0  0
    3.6765   -1.7377   -0.8801 C   0  0  0  0  0  0  0  0  0  0  0  0
    2.6201    0.3130   -0.0021 C   0  0  0  0  0  0  0  0  0  0  0  0
    4.9728   -1.3841   -0.1557 C   0  0  0  0  0  0  0  0  0  0  0  0
    3.9162    0.6663    0.7225 C   0  0  0  0  0  0  0  0  0  0  0  0
   -3.1634    2.1407   -0.5114 C   0  0  0  0  0  0  0  0  0  0  0  0
    6.1732    0.8561   -0.2763 C   0  0  0  0  0  0  0  0  0  0  0  0
   -2.1579    3.1899   -0.2027 C   0  0  0  0  0  0  0  0  0  0  0  0
    7.3509    0.1471   -0.8954 C   0  0  0  0  0  0  0  0  0  0  0  0
   -1.6752    4.2391   -0.9499 C   0  0  0  0  0  0  0  0  0  0  0  0
   -0.7288    4.9014   -0.1320 C   0  0  0  0  0  0  0  0  0  0  0  0
   -0.7009    4.2098    1.0568 C   0  0  0  0  0  0  0  0  0  0  0  0
   -2.0299   -0.5427   -0.7687 H   0  0  0  0  0  0  0  0  0  0  0  0
   -4.4062   -1.9968    0.4884 H   0  0  0  0  0  0  0  0  0  0  0  0
   -0.9270   -2.7911   -1.0267 H   0  0  0  0  0  0  0  0  0  0  0  0
   -2.1582   -3.5066    0.0023 H   0  0  0  0  0  0  0  0  0  0  0  0
   -0.4313   -3.1763    1.4564 H   0  0  0  0  0  0  0  0  0  0  0  0
   -4.2075   -1.2475   -2.0601 H   0  0  0  0  0  0  0  0  0  0  0  0
   -3.6612   -0.9769    2.7261 H   0  0  0  0  0  0  0  0  0  0  0  0
    0.6662   -0.8270    1.7478 H   0  0  0  0  0  0  0  0  0  0  0  0
   -0.0760   -0.3965    0.1955 H   0  0  0  0  0  0  0  0  0  0  0  0
   -5.1069    0.2598    1.1167 H   0  0  0  0  0  0  0  0  0  0  0  0
   -4.8582    0.1970   -0.6193 H   0  0  0  0  0  0  0  0  0  0  0  0
   -1.4450   -2.0436   -3.0964 H   0  0  0  0  0  0  0  0  0  0  0  0
   -2.1405   -0.4139   -3.1186 H   0  0  0  0  0  0  0  0  0  0  0  0
   -2.8871   -1.7092   -4.0584 H   0  0  0  0  0  0  0  0  0  0  0  0
   -2.7906   -3.9661   -2.0713 H   0  0  0  0  0  0  0  0  0  0  0  0
   -4.3046   -3.5062   -2.8127 H   0  0  0  0  0  0  0  0  0  0  0  0
   -4.2217   -3.6126   -1.0640 H   0  0  0  0  0  0  0  0  0  0  0  0
   -2.0254   -1.4847    4.3082 H   0  0  0  0  0  0  0  0  0  0  0  0
   -0.4140   -1.0919    3.7084 H   0  0  0  0  0  0  0  0  0  0  0  0
   -0.9346   -2.7867    3.8296 H   0  0  0  0  0  0  0  0  0  0  0  0
   -2.9582    1.3320    1.3941 H   0  0  0  0  0  0  0  0  0  0  0  0
    3.6917   -1.3424   -1.9030 H   0  0  0  0  0  0  0  0  0  0  0  0
    3.5707   -2.8250   -0.9461 H   0  0  0  0  0  0  0  0  0  0  0  0
    1.7726    0.7130    0.5565 H   0  0  0  0  0  0  0  0  0  0  0  0
    2.6040    0.7744   -0.9970 H   0  0  0  0  0  0  0  0  0  0  0  0
    4.9905   -1.8464    0.8386 H   0  0  0  0  0  0  0  0  0  0  0  0
    5.8218   -1.7782   -0.7166 H   0  0  0  0  0  0  0  0  0  0  0  0
    4.0220    1.7534    0.7902 H   0  0  0  0  0  0  0  0  0  0  0  0
    3.9003    0.2700    1.7450 H   0  0  0  0  0  0  0  0  0  0  0  0
    7.0676   -0.2811   -1.8605 H   0  0  0  0  0  0  0  0  0  0  0  0
    7.7216   -0.6316   -0.2236 H   0  0  0  0  0  0  0  0  0  0  0  0
    8.1601    0.8644   -1.0636 H   0  0  0  0  0  0  0  0  0  0  0  0
   -1.9652    4.4979   -1.9584 H   0  0  0  0  0  0  0  0  0  0  0  0
   -0.1405    5.7734   -0.3781 H   0  0  0  0  0  0  0  0  0  0  0  0
   -0.1474    4.3267    1.9770 H   0  0  0  0  0  0  0  0  0  0  0  0
  1 20  2  0  0  0  0
  2 25  2  0  0  0  0
  3 27  1  0  0  0  0
  3 31  1  0  0  0  0
  4 26  2  0  0  0  0
  5 20  1  0  0  0  0
  5 21  1  0  0  0  0
  5 22  1  0  0  0  0
  6 16  1  0  0  0  0
  6 25  1  0  0  0  0
  6 52  1  0  0  0  0
  7 23  1  0  0  0  0
  7 24  1  0  0  0  0
  7 26  1  0  0  0  0
  8  9  1  0  0  0  0
  8 10  1  0  0  0  0
  8 12  1  0  0  0  0
  8 32  1  0  0  0  0
  9 14  1  0  0  0  0
  9 16  1  0  0  0  0
  9 33  1  0  0  0  0
 10 11  1  0  0  0  0
 10 34  1  0  0  0  0
 10 35  1  0  0  0  0
 11 13  1  0  0  0  0
 11 15  1  0  0  0  0
 11 36  1  0  0  0  0
 12 17  1  0  0  0  0
 12 18  1  0  0  0  0
 12 37  1  0  0  0  0
 13 14  2  0  0  0  0
 13 19  1  0  0  0  0
 14 38  1  0  0  0  0
 15 20  1  0  0  0  0
 15 39  1  0  0  0  0
 15 40  1  0  0  0  0
 16 41  1  0  0  0  0
 16 42  1  0  0  0  0
 17 43  1  0  0  0  0
 17 44  1  0  0  0  0
 17 45  1  0  0  0  0
 18 46  1  0  0  0  0
 18 47  1  0  0  0  0
 18 48  1  0  0  0  0
 19 49  1  0  0  0  0
 19 50  1  0  0  0  0
 19 51  1  0  0  0  0
 21 23  1  0  0  0  0
 21 53  1  0  0  0  0
 21 54  1  0  0  0  0
 22 24  1  0  0  0  0
 22 55  1  0  0  0  0
 22 56  1  0  0  0  0
 23 57  1  0  0  0  0
 23 58  1  0  0  0  0
 24 59  1  0  0  0  0
 24 60  1  0  0  0  0
 25 27  1  0  0  0  0
 26 28  1  0  0  0  0
 27 29  2  0  0  0  0
 28 61  1  0  0  0  0
 28 62  1  0  0  0  0
 28 63  1  0  0  0  0
 29 30  1  0  0  0  0
 29 64  1  0  0  0  0
 30 31  2  0  0  0  0
 30 65  1  0  0  0  0
 31 66  1  0  0  0  0
M  END
> <PUBCHEM_COMPOUND_CID>
38026961

> <PUBCHEM_CONFORMER_RMSD>
1

> <PUBCHEM_CONFORMER_DIVERSEORDER>
1
163
170
183
189
137
64
108
38
85
198
35
51
40
89
152
53
113
126
133
92
162
124
96
77
102
103
34
160
37
165
130
143
150
61
132
27
31
33
110
91
155
95
39
106
26
149
125
2
114
79
60
174
105
56
88
86
75
182
131
32
157
93
168
167
7
109
9
55
196
28
197
154
156
80
99
117
104
179
78
24
11
62
194
142
116
83
76
68
122
119
73
10
17
185
181
158
74
123
97
84
146
136
29
100
172
128
193
87
127
3
107
65
16
49
41
57
176
50
46
18
184
14
52
67
171
192
44
66
151
111
112
45
173
4
187
115
190
180
159
63
200
12
148
178
70
186
59
141
153
42
54
177
191
30
47
164
69
72
101
169
21
199
140
129
58
166
94
23
71
19
195
118
188
25
5
22
139
20
147
121
8
135
13
36
98
48
138
81
144
134
82
120
145
175
90
161
43
15
6

> <PUBCHEM_MMFF94_PARTIAL_CHARGES>
31
1 -0.57
11 0.14
13 -0.28
14 -0.29
15 0.06
16 0.3
19 0.14
2 -0.57
20 0.57
21 0.3
22 0.3
23 0.3
24 0.3
25 0.71
26 0.57
27 0.05
28 0.06
29 -0.15
3 -0.28
30 -0.15
31 -0.01
38 0.15
4 -0.57
5 -0.66
52 0.37
6 -0.73
64 0.15
65 0.15
66 0.15
7 -0.66
9 0.14

> <PUBCHEM_EFFECTIVE_ROTOR_COUNT>
11

> <PUBCHEM_PHARMACOPHORE_FEATURES>
9
1 1 acceptor
1 2 acceptor
1 3 acceptor
1 4 acceptor
1 6 donor
3 12 17 18 hydrophobe
5 3 27 29 30 31 rings
6 5 7 21 22 23 24 rings
6 8 9 10 11 13 14 rings

> <PUBCHEM_HEAVY_ATOM_COUNT>
31

> <PUBCHEM_ATOM_DEF_STEREO_COUNT>
3

> <PUBCHEM_ATOM_UDEF_STEREO_COUNT>
0

> <PUBCHEM_BOND_DEF_STEREO_COUNT>
0

> <PUBCHEM_BOND_UDEF_STEREO_COUNT>
0

> <PUBCHEM_ISOTOPIC_ATOM_COUNT>
0

> <PUBCHEM_COMPONENT_COUNT>
1

> <PUBCHEM_CACTVS_TAUTO_COUNT>
2

> <PUBCHEM_CONFORMER_ID>
02443ED100000001

> <PUBCHEM_MMFF94_ENERGY>
56.4953

> <PUBCHEM_FEATURE_SELFOVERLAP>
45.672

> <PUBCHEM_SHAPE_FINGERPRINT>
10006869 2 18045780079758631193
100830 39 18335988584914143728
10291535 26 18333737926701715258
12788726 201 18334851693236457904
13402501 40 18410578408978796776
13761468 95 17702680847448922766
14114206 34 18041824186618396877
14251764 38 18120092780318226922
14279260 333 18120372052436429686
14363568 33 17542249172941872192
16067690 210 18114168779372565552
19930381 70 17545877591668135507
20764821 26 18338521970503582712
21033648 144 18057887051505728906
21716022 299 17051593238997544063
23419403 2 17319014219754698219
469060 322 18199473332261862595
497634 4 17274832384194240506
5171179 24 18057310898090175792
531348 171 18271810069246208374
550186 7 18342466898291357516
57527306 92 18260825991244830695
7288768 16 17749676164737300139

> <PUBCHEM_SHAPE_MULTIPOLES>
599.55
12.02
5.67
2.26
28.36
8.3
0.53
0.14
-3.75
-4.97
-0.56
-3.01
-1.92
-0.12

> <PUBCHEM_SHAPE_SELFOVERLAP>
1240.5

> <PUBCHEM_SHAPE_VOLUME>
341

> <PUBCHEM_COORDINATE_TYPE>
2
5
10

$$$$
