51137020
  -OEChem-12032416203D

 43 45  0     1  0  0  0  0  0999 V2000
   -3.1210   -0.7565   -1.6971 O   0  0  0  0  0  0  0  0  0  0  0  0
   -4.7522    0.3187   -0.0575 O   0  0  0  0  0  0  0  0  0  0  0  0
    6.6510    1.7009    0.1946 O   0  0  0  0  0  0  0  0  0  0  0  0
   -7.6908    2.0628    1.0331 O   0  0  0  0  0  0  0  0  0  0  0  0
   -6.9429    1.5868   -1.0650 O   0  0  0  0  0  0  0  0  0  0  0  0
   -1.6256   -1.4829   -0.0923 N   0  0  0  0  0  0  0  0  0  0  0  0
    2.9534   -1.5055    0.0409 N   0  0  0  0  0  0  0  0  0  0  0  0
    1.4198    0.0516   -0.3633 N   0  0  0  0  0  0  0  0  0  0  0  0
    0.5902   -2.3373   -0.2005 C   0  0  1  0  0  0  0  0  0  0  0  0
    0.0095   -2.5911    1.1995 C   0  0  0  0  0  0  0  0  0  0  0  0
   -0.6750   -2.0734   -1.0264 C   0  0  0  0  0  0  0  0  0  0  0  0
   -1.1752   -1.6363    1.2864 C   0  0  0  0  0  0  0  0  0  0  0  0
    1.6324   -1.2324   -0.1815 C   0  0  0  0  0  0  0  0  0  0  0  0
   -2.7854   -0.8595   -0.5161 C   0  0  0  0  0  0  0  0  0  0  0  0
    3.6390   -0.3186   -0.0005 C   0  0  0  0  0  0  0  0  0  0  0  0
    2.6598    0.6379   -0.2539 C   0  0  0  0  0  0  0  0  0  0  0  0
   -3.6570   -0.2956    0.5772 C   0  0  0  0  0  0  0  0  0  0  0  0
    4.9902   -0.0092    0.1573 C   0  0  0  0  0  0  0  0  0  0  0  0
    3.0329    1.9884   -0.3594 C   0  0  0  0  0  0  0  0  0  0  0  0
    5.3438    1.3399    0.0492 C   0  0  0  0  0  0  0  0  0  0  0  0
    4.3841    2.3226   -0.2044 C   0  0  0  0  0  0  0  0  0  0  0  0
   -5.6596    0.8964    0.8793 C   0  0  0  0  0  0  0  0  0  0  0  0
    7.5854    0.6555    0.4520 C   0  0  0  0  0  0  0  0  0  0  0  0
   -6.8068    1.5367    0.1482 C   0  0  0  0  0  0  0  0  0  0  0  0
    1.0835   -3.2424   -0.5773 H   0  0  0  0  0  0  0  0  0  0  0  0
   -0.3568   -3.6243    1.2547 H   0  0  0  0  0  0  0  0  0  0  0  0
    0.7212   -2.4430    2.0176 H   0  0  0  0  0  0  0  0  0  0  0  0
   -0.5178   -1.4139   -1.8857 H   0  0  0  0  0  0  0  0  0  0  0  0
   -1.1167   -3.0119   -1.3810 H   0  0  0  0  0  0  0  0  0  0  0  0
   -1.9767   -2.0224    1.9219 H   0  0  0  0  0  0  0  0  0  0  0  0
   -0.8719   -0.6501    1.6537 H   0  0  0  0  0  0  0  0  0  0  0  0
    3.3556   -2.4184    0.2077 H   0  0  0  0  0  0  0  0  0  0  0  0
   -3.0899    0.4413    1.1552 H   0  0  0  0  0  0  0  0  0  0  0  0
   -4.0042   -1.1090    1.2224 H   0  0  0  0  0  0  0  0  0  0  0  0
    5.6833   -0.8171    0.3520 H   0  0  0  0  0  0  0  0  0  0  0  0
    2.2947    2.7593   -0.5562 H   0  0  0  0  0  0  0  0  0  0  0  0
    4.6832    3.3651   -0.2841 H   0  0  0  0  0  0  0  0  0  0  0  0
   -5.1421    1.6657    1.4619 H   0  0  0  0  0  0  0  0  0  0  0  0
   -6.0544    0.1121    1.5338 H   0  0  0  0  0  0  0  0  0  0  0  0
    7.3823    0.1585    1.4067 H   0  0  0  0  0  0  0  0  0  0  0  0
    7.6394   -0.0522   -0.3824 H   0  0  0  0  0  0  0  0  0  0  0  0
    8.5733    1.1198    0.5393 H   0  0  0  0  0  0  0  0  0  0  0  0
   -8.4513    2.4877    0.5820 H   0  0  0  0  0  0  0  0  0  0  0  0
  1 14  2  0  0  0  0
  2 17  1  0  0  0  0
  2 22  1  0  0  0  0
  3 20  1  0  0  0  0
  3 23  1  0  0  0  0
  4 24  1  0  0  0  0
  4 43  1  0  0  0  0
  5 24  2  0  0  0  0
  6 11  1  0  0  0  0
  6 12  1  0  0  0  0
  6 14  1  0  0  0  0
  7 13  1  0  0  0  0
  7 15  1  0  0  0  0
  7 32  1  0  0  0  0
  8 13  2  0  0  0  0
  8 16  1  0  0  0  0
  9 10  1  0  0  0  0
  9 11  1  0  0  0  0
  9 13  1  0  0  0  0
  9 25  1  0  0  0  0
 10 12  1  0  0  0  0
 10 26  1  0  0  0  0
 10 27  1  0  0  0  0
 11 28  1  0  0  0  0
 11 29  1  0  0  0  0
 12 30  1  0  0  0  0
 12 31  1  0  0  0  0
 14 17  1  0  0  0  0
 15 16  2  0  0  0  0
 15 18  1  0  0  0  0
 16 19  1  0  0  0  0
 17 33  1  0  0  0  0
 17 34  1  0  0  0  0
 18 20  2  0  0  0  0
 18 35  1  0  0  0  0
 19 21  2  0  0  0  0
 19 36  1  0  0  0  0
 20 21  1  0  0  0  0
 21 37  1  0  0  0  0
 22 24  1  0  0  0  0
 22 38  1  0  0  0  0
 22 39  1  0  0  0  0
 23 40  1  0  0  0  0
 23 41  1  0  0  0  0
 23 42  1  0  0  0  0
M  END
> <PUBCHEM_COMPOUND_CID>
51137020

> <PUBCHEM_CONFORMER_RMSD>
0.8

> <PUBCHEM_CONFORMER_DIVERSEORDER>
1
179
84
33
87
94
143
119
67
115
167
204
121
197
187
44
49
171
100
169
68
122
101
184
139
35
155
219
39
23
8
137
65
220
11
126
140
147
45
191
85
198
117
20
40
186
159
61
76
124
51
113
145
93
77
174
99
158
181
180
63
60
110
222
149
14
214
188
196
13
96
30
86
213
108
38
48
31
52
120
217
15
208
36
202
152
55
9
73
211
189
114
162
168
134
212
203
29
89
57
165
32
170
221
64
116
106
50
148
80
107
111
136
25
161
172
53
215
216
210
173
97
91
127
175
18
37
2
72
193
46
135
26
109
133
160
182
205
153
78
75
207
71
70
112
178
81
56
150
206
146
104
12
218
157
130
92
27
103
43
185
74
88
59
62
142
69
7
24
123
128
105
144
166
5
151
199
3
177
125
192
21
16
17
118
163
58
183
47
201
82
200
164
54
6
194
10
132
95
90
28
176
190
102
42
98
138
141
131
129
66
209
19
34
22
154
156
41
195
79
4
83

> <PUBCHEM_MMFF94_PARTIAL_CHARGES>
28
1 -0.57
11 0.3
12 0.3
13 0.01
14 0.57
15 -0.15
16 0.23
17 0.34
18 -0.15
19 -0.15
2 -0.56
20 0.08
21 -0.15
22 0.34
23 0.28
24 0.66
3 -0.36
32 0.27
35 0.15
36 0.15
37 0.15
4 -0.65
43 0.5
5 -0.57
6 -0.66
7 0.03
8 -0.57
9 0.18

> <PUBCHEM_EFFECTIVE_ROTOR_COUNT>
8

> <PUBCHEM_PHARMACOPHORE_FEATURES>
11
1 1 acceptor
1 2 acceptor
1 3 acceptor
1 4 acceptor
1 5 acceptor
1 7 donor
3 4 5 24 anion
3 7 8 13 cation
5 6 9 10 11 12 rings
5 7 8 13 15 16 rings
6 15 16 18 19 20 21 rings

> <PUBCHEM_HEAVY_ATOM_COUNT>
24

> <PUBCHEM_ATOM_DEF_STEREO_COUNT>
1

> <PUBCHEM_ATOM_UDEF_STEREO_COUNT>
0

> <PUBCHEM_BOND_DEF_STEREO_COUNT>
0

> <PUBCHEM_BOND_UDEF_STEREO_COUNT>
0

> <PUBCHEM_ISOTOPIC_ATOM_COUNT>
0

> <PUBCHEM_COMPONENT_COUNT>
1

> <PUBCHEM_CACTVS_TAUTO_COUNT>
2

> <PUBCHEM_CONFORMER_ID>
030C49FC00000001

> <PUBCHEM_MMFF94_ENERGY>
52.6059

> <PUBCHEM_FEATURE_SELFOVERLAP>
56.006

> <PUBCHEM_SHAPE_FINGERPRINT>
10 15 17967254187346971953
10411042 1 17689718558962697874
10753850 27 9943806664578785127
11069576 57 14044922320960722156
11089746 13 17988358295535660312
11823591 26 18412256233995524011
11963148 33 9222964638297579256
12633257 1 15719683138257859843
12838862 33 18340752789249052816
12895836 83 17703787029371958103
13685833 64 9223227447139465159
13955234 65 17898571978296200131
14123256 34 9079117765101179385
14257110 125 18413108368660711341
15183329 4 13470692504173382279
15238133 3 18114471153654272148
15475509 35 15864907608917626514
15778101 99 18412265064406132135
16087824 20 18409450267822159964
18335252 114 18343015554092593661
20157964 124 18341616975555464755
20526848 3 18343023276929172817
20567600 254 18259699000215782385
20621476 66 18336829788107055444
20715895 44 18412547626093763528
21033648 29 18339072813244364224
21298829 104 18272092669335643105
21307412 95 12247672791005174085
21315759 148 14129320881253957416
21421861 104 17749653140209047434
21585482 111 18192153703252312469
21591340 7 18412535526928316859
21637258 2 8142086442397453303
21774942 28 17560528295992313456
22224240 67 17822012008717010451
23389318 12 10447922898129045618
23559900 14 13614237131498295454
23845131 108 18113621179695803827
270888 7 18412545435359735985
2838139 119 18270678778732863789
3014063 24 8358253731517064937
312425 54 16805605875761097755
3472631 163 18273497879539114503
351380 3 10665230367188756473
3633792 109 17418101979826343342
397830 11 18261128370059824131
445580 204 18060703875040653729
465052 167 10737293437204388123
474 4 18410858746184708587
5104073 3 17824533313554820096
5283384 27 18187920656625575205
5385378 56 18114460076807489482
57724786 102 17896322587737134468
59682541 52 16988575545609603820
77188 2 16824467194572539395
7970288 3 8646772183847100153
999808 66 10952044589997780693

> <PUBCHEM_SHAPE_MULTIPOLES>
449.62
19.13
2.76
1.03
13.77
0.32
-0.04
-19.12
2.6
0.57
0.19
1.12
0.28
-0.48

> <PUBCHEM_SHAPE_SELFOVERLAP>
959.827

> <PUBCHEM_SHAPE_VOLUME>
249.9

> <PUBCHEM_COORDINATE_TYPE>
2
5
10

$$$$
