26743430
  -OEChem-12032416183D

 64 67  0     1  0  0  0  0  0999 V2000
    4.6039   -1.7226   -0.2817 O   0  0  0  0  0  0  0  0  0  0  0  0
   -2.8052    0.9589    0.3593 N   0  0  0  0  0  0  0  0  0  0  0  0
    3.7721    0.3060   -1.0170 N   0  0  0  0  0  0  0  0  0  0  0  0
   -2.5879    2.0188    1.1564 N   0  0  0  0  0  0  0  0  0  0  0  0
    5.9655    0.1890   -0.3305 N   0  0  0  0  0  0  0  0  0  0  0  0
    0.7474    1.3918   -0.4228 C   0  0  2  0  0  0  0  0  0  0  0  0
    1.4715    0.0600   -0.1368 C   0  0  0  0  0  0  0  0  0  0  0  0
    2.4393   -0.1509   -1.3077 C   0  0  1  0  0  0  0  0  0  0  0  0
   -0.6898    1.4029    0.0449 C   0  0  0  0  0  0  0  0  0  0  0  0
    0.9261    1.5436   -1.9056 C   0  0  0  0  0  0  0  0  0  0  0  0
    1.8513    0.7038   -2.3818 C   0  0  0  0  0  0  0  0  0  0  0  0
   -1.7002    0.5505   -0.3282 C   0  0  0  0  0  0  0  0  0  0  0  0
   -1.2939    2.2855    0.9603 C   0  0  0  0  0  0  0  0  0  0  0  0
   -7.9793   -1.3636    0.1261 C   0  0  0  0  0  0  0  0  0  0  0  0
   -4.0768    0.3876    0.2988 C   0  0  0  0  0  0  0  0  0  0  0  0
   -1.7031   -0.5944   -1.2614 C   0  0  0  0  0  0  0  0  0  0  0  0
   -6.6196   -0.7540    0.1860 C   0  0  0  0  0  0  0  0  0  0  0  0
   -0.6684    3.4089    1.6801 C   0  0  0  0  0  0  0  0  0  0  0  0
   -5.1663    1.1516   -0.1197 C   0  0  0  0  0  0  0  0  0  0  0  0
   -4.2586   -0.9470    0.6610 C   0  0  0  0  0  0  0  0  0  0  0  0
    4.7806   -0.5292   -0.5144 C   0  0  0  0  0  0  0  0  0  0  0  0
   -6.4377    0.5807   -0.1761 C   0  0  0  0  0  0  0  0  0  0  0  0
   -5.5300   -1.5178    0.6047 C   0  0  0  0  0  0  0  0  0  0  0  0
   -8.5579   -1.3147   -1.3220 C   0  0  0  0  0  0  0  0  0  0  0  0
   -8.9789   -0.6102    1.0576 C   0  0  0  0  0  0  0  0  0  0  0  0
   -8.0613   -2.8660    0.5566 C   0  0  0  0  0  0  0  0  0  0  0  0
    7.2042   -0.2901    0.1560 C   0  0  0  0  0  0  0  0  0  0  0  0
    8.2889    0.5788    0.2749 C   0  0  0  0  0  0  0  0  0  0  0  0
    7.3415   -1.6304    0.5167 C   0  0  0  0  0  0  0  0  0  0  0  0
    9.5110    0.1073    0.7546 C   0  0  0  0  0  0  0  0  0  0  0  0
    8.5634   -2.1019    0.9966 C   0  0  0  0  0  0  0  0  0  0  0  0
    9.6482   -1.2329    1.1154 C   0  0  0  0  0  0  0  0  0  0  0  0
    1.2925    2.2109    0.0639 H   0  0  0  0  0  0  0  0  0  0  0  0
    1.9824    0.0915    0.8334 H   0  0  0  0  0  0  0  0  0  0  0  0
    0.7756   -0.7858   -0.0888 H   0  0  0  0  0  0  0  0  0  0  0  0
    2.4632   -1.2057   -1.6007 H   0  0  0  0  0  0  0  0  0  0  0  0
    0.3986    2.2679   -2.5104 H   0  0  0  0  0  0  0  0  0  0  0  0
    2.1524    0.6605   -3.4191 H   0  0  0  0  0  0  0  0  0  0  0  0
    3.9871    1.2920   -1.1354 H   0  0  0  0  0  0  0  0  0  0  0  0
   -1.6044   -1.5379   -0.7153 H   0  0  0  0  0  0  0  0  0  0  0  0
   -2.6225   -0.6318   -1.8551 H   0  0  0  0  0  0  0  0  0  0  0  0
   -0.8814   -0.5449   -1.9794 H   0  0  0  0  0  0  0  0  0  0  0  0
   -0.2743    4.1462    0.9732 H   0  0  0  0  0  0  0  0  0  0  0  0
   -1.3810    3.9221    2.3344 H   0  0  0  0  0  0  0  0  0  0  0  0
    0.1589    3.0531    2.3027 H   0  0  0  0  0  0  0  0  0  0  0  0
   -5.0418    2.1924   -0.4090 H   0  0  0  0  0  0  0  0  0  0  0  0
   -3.4256   -1.5552    1.0050 H   0  0  0  0  0  0  0  0  0  0  0  0
   -7.2681    1.1981   -0.5063 H   0  0  0  0  0  0  0  0  0  0  0  0
   -5.6155   -2.5575    0.9005 H   0  0  0  0  0  0  0  0  0  0  0  0
   -9.5452   -1.7882   -1.3732 H   0  0  0  0  0  0  0  0  0  0  0  0
   -8.6738   -0.2865   -1.6819 H   0  0  0  0  0  0  0  0  0  0  0  0
   -7.8969   -1.8378   -2.0230 H   0  0  0  0  0  0  0  0  0  0  0  0
   -9.9715   -1.0749    1.0364 H   0  0  0  0  0  0  0  0  0  0  0  0
   -8.6255   -0.6183    2.0954 H   0  0  0  0  0  0  0  0  0  0  0  0
   -9.1062    0.4365    0.7600 H   0  0  0  0  0  0  0  0  0  0  0  0
   -9.0894   -3.2415    0.4857 H   0  0  0  0  0  0  0  0  0  0  0  0
   -7.4429   -3.5024   -0.0869 H   0  0  0  0  0  0  0  0  0  0  0  0
   -7.7411   -3.0041    1.5960 H   0  0  0  0  0  0  0  0  0  0  0  0
    5.9434    1.1762   -0.5736 H   0  0  0  0  0  0  0  0  0  0  0  0
    8.1955    1.6257   -0.0027 H   0  0  0  0  0  0  0  0  0  0  0  0
    6.5493   -2.3628    0.4530 H   0  0  0  0  0  0  0  0  0  0  0  0
   10.3557    0.7838    0.8472 H   0  0  0  0  0  0  0  0  0  0  0  0
    8.6718   -3.1455    1.2779 H   0  0  0  0  0  0  0  0  0  0  0  0
   10.5996   -1.6001    1.4889 H   0  0  0  0  0  0  0  0  0  0  0  0
  1 21  2  0  0  0  0
  2  4  1  0  0  0  0
  2 12  1  0  0  0  0
  2 15  1  0  0  0  0
  3  8  1  0  0  0  0
  3 21  1  0  0  0  0
  3 39  1  0  0  0  0
  4 13  2  0  0  0  0
  5 21  1  0  0  0  0
  5 27  1  0  0  0  0
  5 59  1  0  0  0  0
  6  7  1  0  0  0  0
  6  9  1  0  0  0  0
  6 10  1  0  0  0  0
  6 33  1  0  0  0  0
  7  8  1  0  0  0  0
  7 34  1  0  0  0  0
  7 35  1  0  0  0  0
  8 11  1  0  0  0  0
  8 36  1  0  0  0  0
  9 12  2  0  0  0  0
  9 13  1  0  0  0  0
 10 11  2  0  0  0  0
 10 37  1  0  0  0  0
 11 38  1  0  0  0  0
 12 16  1  0  0  0  0
 13 18  1  0  0  0  0
 14 17  1  0  0  0  0
 14 24  1  0  0  0  0
 14 25  1  0  0  0  0
 14 26  1  0  0  0  0
 15 19  2  0  0  0  0
 15 20  1  0  0  0  0
 16 40  1  0  0  0  0
 16 41  1  0  0  0  0
 16 42  1  0  0  0  0
 17 22  2  0  0  0  0
 17 23  1  0  0  0  0
 18 43  1  0  0  0  0
 18 44  1  0  0  0  0
 18 45  1  0  0  0  0
 19 22  1  0  0  0  0
 19 46  1  0  0  0  0
 20 23  2  0  0  0  0
 20 47  1  0  0  0  0
 22 48  1  0  0  0  0
 23 49  1  0  0  0  0
 24 50  1  0  0  0  0
 24 51  1  0  0  0  0
 24 52  1  0  0  0  0
 25 53  1  0  0  0  0
 25 54  1  0  0  0  0
 25 55  1  0  0  0  0
 26 56  1  0  0  0  0
 26 57  1  0  0  0  0
 26 58  1  0  0  0  0
 27 28  2  0  0  0  0
 27 29  1  0  0  0  0
 28 30  1  0  0  0  0
 28 60  1  0  0  0  0
 29 31  2  0  0  0  0
 29 61  1  0  0  0  0
 30 32  2  0  0  0  0
 30 62  1  0  0  0  0
 31 32  1  0  0  0  0
 31 63  1  0  0  0  0
 32 64  1  0  0  0  0
M  END
> <PUBCHEM_COMPOUND_CID>
26743430

> <PUBCHEM_CONFORMER_RMSD>
1

> <PUBCHEM_CONFORMER_DIVERSEORDER>
1
87
96
92
95
13
26
100
42
15
5
53
84
104
69
71
33
83
98
55
74
8
22
64
77
39
97
30
23
75
28
68
11
76
41
59
102
32
67
37
89
65
70
29
90
78
35
46
61
17
16
66
38
79
45
94
88
52
10
9
20
93
62
14
80
85
7
57
3
19
73
43
12
24
47
81
34
101
50
25
86
18
72
31
99
103
82
48
21
6
63
56
58
40
36
54
51
49
60
91
4
2
44
27

> <PUBCHEM_MMFF94_PARTIAL_CHARGES>
41
1 -0.57
10 -0.29
11 -0.29
12 -0.33
13 0.11
14 0.14
15 -0.02
16 0.18
17 -0.14
18 0.18
19 -0.15
2 0.59
20 -0.15
21 0.69
22 -0.15
23 -0.15
27 0.12
28 -0.15
29 -0.15
3 -0.73
30 -0.15
31 -0.15
32 -0.15
37 0.15
38 0.15
39 0.37
4 -0.71
46 0.15
47 0.15
48 0.15
49 0.15
5 -0.55
59 0.37
6 0.32
60 0.15
61 0.15
62 0.15
63 0.15
64 0.15
8 0.44
9 -0.18

> <PUBCHEM_EFFECTIVE_ROTOR_COUNT>
7.6

> <PUBCHEM_PHARMACOPHORE_FEATURES>
9
1 1 acceptor
1 3 donor
1 4 acceptor
1 5 donor
4 14 24 25 26 hydrophobe
5 2 4 9 12 13 rings
5 6 7 8 10 11 rings
6 15 17 19 20 22 23 rings
6 27 28 29 30 31 32 rings

> <PUBCHEM_HEAVY_ATOM_COUNT>
32

> <PUBCHEM_ATOM_DEF_STEREO_COUNT>
2

> <PUBCHEM_ATOM_UDEF_STEREO_COUNT>
0

> <PUBCHEM_BOND_DEF_STEREO_COUNT>
0

> <PUBCHEM_BOND_UDEF_STEREO_COUNT>
0

> <PUBCHEM_ISOTOPIC_ATOM_COUNT>
0

> <PUBCHEM_COMPONENT_COUNT>
1

> <PUBCHEM_CACTVS_TAUTO_COUNT>
3

> <PUBCHEM_CONFORMER_ID>
0198128600000001

> <PUBCHEM_MMFF94_ENERGY>
101.0852

> <PUBCHEM_FEATURE_SELFOVERLAP>
45.722

> <PUBCHEM_SHAPE_FINGERPRINT>
10 15 16056881316813939126
10165383 225 14908180850536974948
10369192 42 13470685928062052664
106641 1 17131833178924291038
10670039 82 16298379163968737277
10674148 151 15285634404490659701
10883706 17 17822863112110804827
11103572 95 18194684769806343814
11135609 99 18337955691818313654
11211813 128 17775007877960478870
11386260 185 14707218750884277470
11408170 108 17822011956877047738
11408170 132 8069733106451484282
11411753 3 16986330278579118068
12202916 173 18343868831357186743
12539745 222 18334292028880536820
12643181 29 18260550061150644043
12741549 16 18409167710661611549
13540713 4 16842778031835041972
13560911 43 17846777399973295360
14068700 675 18260832591913972820
14150022 121 16701748155164898809
14664723 55 7781512629133740839
14849402 71 13326845647857575154
15183329 4 15574431029204664925
15188451 53 18334297556951287084
15198563 99 14562804401399154678
15247644 1 16805324396400288554
15326923 82 18410571811908861188
15347590 135 17346604045216730186
15350500 16 17894909629242673278
15392192 104 15554446305705209126
15690457 1 18186237329871596962
15706992 2 13110964266568926254
15728490 51 18202279221268396606
16992610 120 13038905577942384304
1754911 235 10375869666939457963
18393751 57 16487253279165597748
18603816 31 18336542824342073527
20105231 36 18263927637156123798
2026 5 17967530138490039770
20721686 146 10447663370330164595
21095123 293 11527948958709427650
21130935 74 17773888493276638958
212700 22 18334010588390528634
21585482 111 11455628556081872923
21792961 116 17967252023685780987
21895431 317 17531517699601235754
22224240 67 15913326892553053844
23528940 14 18114455658135799610
23559900 14 18190746543585803617
249057 3 16153431674711127915
3004659 81 18113337544397170825
3092352 35 11672061934729296676
3178227 256 16702301261327141504
335352 9 11386369257336684795
3383291 50 18413112775007857715
3711267 37 11095888206495432179
3986486 107 14056715742719793207
4149490 64 17896331375039385009
4440575 13 18113611287943178418
4516262 110 11815620739988322401
45266715 3 15719390591108831466
474113 269 15502643872926537848
4760202 170 11314324854115021294
5758199 1 14045741517405339932
59682541 35 17775281673398357978
6081469 158 17675923201205308068
6126387 218 18342177744261365065
6201320 82 8573896575409104843
6438161 24 18114184150727740023
9663363 56 18060699486269612629
9689198 14 11383832675569248564
9953998 17 15482667996632501007
9962374 69 17916857031936087261

> <PUBCHEM_SHAPE_MULTIPOLES>
632.75
33.1
2.47
1.46
29.91
0.56
-0.5
-25.36
9.63
-1.72
1.07
0.27
0.52
-1.25

> <PUBCHEM_SHAPE_SELFOVERLAP>
1363.735

> <PUBCHEM_SHAPE_VOLUME>
351.5

> <PUBCHEM_COORDINATE_TYPE>
2
5
10

$$$$
