75536073
  -OEChem-12032416293D

 43 45  0     1  0  0  0  0  0999 V2000
    1.0974    3.6002   -0.7237 O   0  0  0  0  0  0  0  0  0  0  0  0
    3.5623    2.3913   -0.6757 O   0  0  0  0  0  0  0  0  0  0  0  0
   -0.7498   -0.5721   -1.4056 O   0  0  0  0  0  0  0  0  0  0  0  0
   -0.4809    1.0890    0.1908 N   0  0  0  0  0  0  0  0  0  0  0  0
    3.1752   -2.2799   -1.2829 N   0  0  0  0  0  0  0  0  0  0  0  0
    1.7641    0.4113    0.9881 C   0  0  2  0  0  0  0  0  0  0  0  0
    0.9365    1.2730    0.0079 C   0  0  2  0  0  0  0  0  0  0  0  0
    1.3731    2.7007    0.3334 C   0  0  1  0  0  0  0  0  0  0  0  0
    2.9970    1.2711    1.3691 C   0  0  0  0  0  0  0  0  0  0  0  0
    2.8736    2.5604    0.5595 C   0  0  1  0  0  0  0  0  0  0  0  0
    2.1043   -0.9557    0.4330 C   0  0  0  0  0  0  0  0  0  0  0  0
    1.6883   -2.1148    1.0784 C   0  0  0  0  0  0  0  0  0  0  0  0
    2.8388   -1.0911   -0.7340 C   0  0  0  0  0  0  0  0  0  0  0  0
   -1.2160    0.1675   -0.5429 C   0  0  0  0  0  0  0  0  0  0  0  0
   -2.6724    0.1177   -0.2540 C   0  0  0  0  0  0  0  0  0  0  0  0
    2.0150   -3.3565    0.5445 C   0  0  0  0  0  0  0  0  0  0  0  0
    2.7533   -3.3847   -0.6275 C   0  0  0  0  0  0  0  0  0  0  0  0
   -3.2767   -1.0517    0.2071 C   0  0  0  0  0  0  0  0  0  0  0  0
   -3.4374    1.2673   -0.4510 C   0  0  0  0  0  0  0  0  0  0  0  0
   -4.6462   -1.0716    0.4713 C   0  0  0  0  0  0  0  0  0  0  0  0
   -2.4812   -2.2969    0.4269 C   0  0  0  0  0  0  0  0  0  0  0  0
   -4.8070    1.2474   -0.1868 C   0  0  0  0  0  0  0  0  0  0  0  0
   -5.4114    0.0779    0.2742 C   0  0  0  0  0  0  0  0  0  0  0  0
    1.1829    0.2660    1.9107 H   0  0  0  0  0  0  0  0  0  0  0  0
    1.1668    1.0524   -1.0418 H   0  0  0  0  0  0  0  0  0  0  0  0
    0.8784    3.0643    1.2430 H   0  0  0  0  0  0  0  0  0  0  0  0
    2.9340    1.5101    2.4382 H   0  0  0  0  0  0  0  0  0  0  0  0
    3.9490    0.7568    1.1999 H   0  0  0  0  0  0  0  0  0  0  0  0
    3.3008    3.4302    1.0674 H   0  0  0  0  0  0  0  0  0  0  0  0
   -0.9476    1.6270    0.9157 H   0  0  0  0  0  0  0  0  0  0  0  0
    1.4852    4.4593   -0.4845 H   0  0  0  0  0  0  0  0  0  0  0  0
    4.5048    2.2683   -0.4702 H   0  0  0  0  0  0  0  0  0  0  0  0
    1.1086   -2.0661    1.9959 H   0  0  0  0  0  0  0  0  0  0  0  0
    3.1984   -0.2307   -1.2879 H   0  0  0  0  0  0  0  0  0  0  0  0
    1.7006   -4.2732    1.0301 H   0  0  0  0  0  0  0  0  0  0  0  0
    3.0336   -4.3278   -1.0848 H   0  0  0  0  0  0  0  0  0  0  0  0
   -2.9819    2.1851   -0.8141 H   0  0  0  0  0  0  0  0  0  0  0  0
   -5.1332   -1.9746    0.8298 H   0  0  0  0  0  0  0  0  0  0  0  0
   -2.1613   -2.7216   -0.5299 H   0  0  0  0  0  0  0  0  0  0  0  0
   -1.6027   -2.0934    1.0480 H   0  0  0  0  0  0  0  0  0  0  0  0
   -3.0655   -3.0629    0.9487 H   0  0  0  0  0  0  0  0  0  0  0  0
   -5.4030    2.1421   -0.3412 H   0  0  0  0  0  0  0  0  0  0  0  0
   -6.4779    0.0624    0.4793 H   0  0  0  0  0  0  0  0  0  0  0  0
  1  8  1  0  0  0  0
  1 31  1  0  0  0  0
  2 10  1  0  0  0  0
  2 32  1  0  0  0  0
  3 14  2  0  0  0  0
  4  7  1  0  0  0  0
  4 14  1  0  0  0  0
  4 30  1  0  0  0  0
  5 13  1  0  0  0  0
  5 17  2  0  0  0  0
  6  7  1  0  0  0  0
  6  9  1  0  0  0  0
  6 11  1  0  0  0  0
  6 24  1  0  0  0  0
  7  8  1  0  0  0  0
  7 25  1  0  0  0  0
  8 10  1  0  0  0  0
  8 26  1  0  0  0  0
  9 10  1  0  0  0  0
  9 27  1  0  0  0  0
  9 28  1  0  0  0  0
 10 29  1  0  0  0  0
 11 12  1  0  0  0  0
 11 13  2  0  0  0  0
 12 16  2  0  0  0  0
 12 33  1  0  0  0  0
 13 34  1  0  0  0  0
 14 15  1  0  0  0  0
 15 18  1  0  0  0  0
 15 19  2  0  0  0  0
 16 17  1  0  0  0  0
 16 35  1  0  0  0  0
 17 36  1  0  0  0  0
 18 20  2  0  0  0  0
 18 21  1  0  0  0  0
 19 22  1  0  0  0  0
 19 37  1  0  0  0  0
 20 23  1  0  0  0  0
 20 38  1  0  0  0  0
 21 39  1  0  0  0  0
 21 40  1  0  0  0  0
 21 41  1  0  0  0  0
 22 23  2  0  0  0  0
 22 42  1  0  0  0  0
 23 43  1  0  0  0  0
M  END
> <PUBCHEM_COMPOUND_CID>
75536073

> <PUBCHEM_CONFORMER_RMSD>
0.8

> <PUBCHEM_CONFORMER_DIVERSEORDER>
1
37
32
12
26
7
33
36
29
40
46
23
41
2
30
45
39
6
31
9
24
19
28
11
43
13
34
5
27
38
3
8
16
22
14
18
4
35
17
44
42
25
10
15
21
20

> <PUBCHEM_MMFF94_PARTIAL_CHARGES>
33
1 -0.68
10 0.28
11 -0.14
12 -0.15
13 0.16
14 0.54
15 0.09
16 -0.15
17 0.16
18 -0.14
19 -0.15
2 -0.68
20 -0.15
21 0.14
22 -0.15
23 -0.15
3 -0.57
30 0.37
31 0.4
32 0.4
33 0.15
34 0.15
35 0.15
36 0.15
37 0.15
38 0.15
4 -0.73
42 0.15
43 0.15
5 -0.62
6 0.14
7 0.3
8 0.28

> <PUBCHEM_EFFECTIVE_ROTOR_COUNT>
5

> <PUBCHEM_PHARMACOPHORE_FEATURES>
10
1 1 acceptor
1 1 donor
1 2 acceptor
1 2 donor
1 3 acceptor
1 4 donor
1 5 acceptor
5 6 7 8 9 10 rings
6 15 18 19 20 22 23 rings
6 5 11 12 13 16 17 rings

> <PUBCHEM_HEAVY_ATOM_COUNT>
23

> <PUBCHEM_ATOM_DEF_STEREO_COUNT>
4

> <PUBCHEM_ATOM_UDEF_STEREO_COUNT>
0

> <PUBCHEM_BOND_DEF_STEREO_COUNT>
0

> <PUBCHEM_BOND_UDEF_STEREO_COUNT>
0

> <PUBCHEM_ISOTOPIC_ATOM_COUNT>
0

> <PUBCHEM_COMPONENT_COUNT>
1

> <PUBCHEM_CACTVS_TAUTO_COUNT>
2

> <PUBCHEM_CONFORMER_ID>
048096C900000001

> <PUBCHEM_MMFF94_ENERGY>
70.4475

> <PUBCHEM_FEATURE_SELFOVERLAP>
50.758

> <PUBCHEM_SHAPE_FINGERPRINT>
10366900 7 18124308561449928881
10616163 171 18047470312123629995
114674 6 18333730208566798443
12107183 9 17982739571963870569
12403259 415 18114741539426552525
12422481 6 18054756604262025082
12553582 1 18122907516805156186
12633257 1 18042384950269525515
12788726 201 17688316689931241018
13140716 1 18195794387602865920
13533116 47 18343581850701043363
13583140 156 17702370931467731929
138480 1 18266175041593050634
14178342 30 17983553463132672618
14223421 5 18337670922933690723
14790565 3 18120376720411960684
15635459 17 18409449176303919699
17492 54 18190484756511967852
17492 89 18413386558151640047
17818456 19 17631174078919984665
1813 80 17915186706470530054
18681886 176 18048031058849272352
20157964 124 18338505422790455413
20600515 1 17552366471061055388
20645477 70 18413383237777267375
20739085 24 18334850658524203880
20832881 197 18118686509325950507
21065198 57 18411418385103011665
21421861 104 18188199901712464704
21756936 100 17693088974391941160
23559900 14 18340200804689412347
3060560 45 18265615562432172924
314173 41 18338520707598360415
3323516 105 18408328791113778090
3421961 26 18341047415494257898
5104073 3 18411141321215963923
6443956 14 18409732850509555532
6823239 73 18410576167200994938
7097593 13 18341606032178890871
7364860 26 18412825802308568364
81228 2 17478313246243690848
8272917 22 18410857693785644289
9709674 26 18336264639183236675

> <PUBCHEM_SHAPE_MULTIPOLES>
445.76
8.88
4.09
1.07
11.84
0.24
-0.02
0.5
0.22
-5.05
-0.21
-0.69
0.16
0.92

> <PUBCHEM_SHAPE_SELFOVERLAP>
959.668

> <PUBCHEM_SHAPE_VOLUME>
245.1

> <PUBCHEM_COORDINATE_TYPE>
2
5
10

$$$$
