11882030
  -OEChem-12032416363D

 73 76  0     1  0  0  0  0  0999 V2000
    4.9728    2.0192   -1.3986 S   0  0  0  0  0  0  0  0  0  0  0  0
    1.9113   -0.9014   -1.1355 O   0  0  0  0  0  0  0  0  0  0  0  0
    4.9524   -1.2052   -0.5162 O   0  0  0  0  0  0  0  0  0  0  0  0
    0.2344    3.2865    2.2067 O   0  0  0  0  0  0  0  0  0  0  0  0
    1.6622   -4.8755   -1.2264 O   0  0  0  0  0  0  0  0  0  0  0  0
    3.4568   -0.0574    0.8267 N   0  0  0  0  0  0  0  0  0  0  0  0
    0.5877    1.2010    1.2518 N   0  0  0  0  0  0  0  0  0  0  0  0
   -1.0430    2.5839    0.3997 N   0  0  0  0  0  0  0  0  0  0  0  0
    0.9379   -2.5964    0.1288 N   0  0  0  0  0  0  0  0  0  0  0  0
   -2.7580   -1.6395    2.3228 N   0  0  0  0  0  0  0  0  0  0  0  0
    0.4161   -4.1625   -3.0195 N   0  0  0  0  0  0  0  0  0  0  0  0
    1.6571    0.7888    2.1259 C   0  0  1  0  0  0  0  0  0  0  0  0
    2.6047   -1.1979    1.1295 C   0  0  1  0  0  0  0  0  0  0  0  0
    1.7130   -0.7337    2.2789 C   0  0  0  0  0  0  0  0  0  0  0  0
    3.0263    1.1383    1.5513 C   0  0  0  0  0  0  0  0  0  0  0  0
   -1.8631    3.7693    0.2836 C   0  0  0  0  0  0  0  0  0  0  0  0
   -3.2665    3.4209   -0.2237 C   0  0  0  0  0  0  0  0  0  0  0  0
   -1.1931    4.8169   -0.6118 C   0  0  0  0  0  0  0  0  0  0  0  0
   -3.2730    3.0238   -1.6999 C   0  0  0  0  0  0  0  0  0  0  0  0
   -1.2030    4.4178   -2.0874 C   0  0  0  0  0  0  0  0  0  0  0  0
    1.7998   -1.5352   -0.0895 C   0  0  0  0  0  0  0  0  0  0  0  0
   -2.6114    4.0867   -2.5716 C   0  0  0  0  0  0  0  0  0  0  0  0
    4.6204   -0.1806    0.0826 C   0  0  0  0  0  0  0  0  0  0  0  0
   -0.0487    2.4368    1.3631 C   0  0  0  0  0  0  0  0  0  0  0  0
    0.0362   -3.1028   -0.8805 C   0  0  2  0  0  0  0  0  0  0  0  0
    5.4900    1.0500    0.0254 C   0  0  0  0  0  0  0  0  0  0  0  0
   -1.2186   -3.7408   -0.2711 C   0  0  0  0  0  0  0  0  0  0  0  0
   -2.0130   -2.7868    0.5747 C   0  0  0  0  0  0  0  0  0  0  0  0
    0.8098   -4.1268   -1.6983 C   0  0  0  0  0  0  0  0  0  0  0  0
   -3.0660   -1.9375    0.1334 C   0  0  0  0  0  0  0  0  0  0  0  0
   -1.8469   -2.5809    1.9249 C   0  0  0  0  0  0  0  0  0  0  0  0
   -3.5158   -1.2287    1.2494 C   0  0  0  0  0  0  0  0  0  0  0  0
   -3.6815   -1.7031   -1.1122 C   0  0  0  0  0  0  0  0  0  0  0  0
    6.1390    3.3942   -1.2392 C   0  0  0  0  0  0  0  0  0  0  0  0
   -4.5546   -0.2934    1.1817 C   0  0  0  0  0  0  0  0  0  0  0  0
   -4.7218   -0.7704   -1.1950 C   0  0  0  0  0  0  0  0  0  0  0  0
   -5.1500   -0.0776   -0.0644 C   0  0  0  0  0  0  0  0  0  0  0  0
    1.5083    1.2764    3.0956 H   0  0  0  0  0  0  0  0  0  0  0  0
    3.2181   -2.0649    1.3998 H   0  0  0  0  0  0  0  0  0  0  0  0
    2.2166   -0.9692    3.2256 H   0  0  0  0  0  0  0  0  0  0  0  0
    0.7211   -1.1900    2.3124 H   0  0  0  0  0  0  0  0  0  0  0  0
    3.7445    1.3023    2.3626 H   0  0  0  0  0  0  0  0  0  0  0  0
    3.0168    2.0145    0.8980 H   0  0  0  0  0  0  0  0  0  0  0  0
   -1.9604    4.1950    1.2901 H   0  0  0  0  0  0  0  0  0  0  0  0
   -3.6956    2.6113    0.3763 H   0  0  0  0  0  0  0  0  0  0  0  0
   -3.9194    4.2932   -0.0917 H   0  0  0  0  0  0  0  0  0  0  0  0
   -1.7252    5.7706   -0.5024 H   0  0  0  0  0  0  0  0  0  0  0  0
   -0.1593    4.9935   -0.2913 H   0  0  0  0  0  0  0  0  0  0  0  0
    0.3161    0.5917    0.4865 H   0  0  0  0  0  0  0  0  0  0  0  0
   -4.3067    2.8715   -2.0312 H   0  0  0  0  0  0  0  0  0  0  0  0
   -2.7574    2.0658   -1.8342 H   0  0  0  0  0  0  0  0  0  0  0  0
   -0.5499    3.5501   -2.2403 H   0  0  0  0  0  0  0  0  0  0  0  0
   -0.7902    5.2345   -2.6905 H   0  0  0  0  0  0  0  0  0  0  0  0
   -2.5724    3.7399   -3.6104 H   0  0  0  0  0  0  0  0  0  0  0  0
   -3.2228    4.9974   -2.5622 H   0  0  0  0  0  0  0  0  0  0  0  0
   -1.1477    1.8478   -0.2915 H   0  0  0  0  0  0  0  0  0  0  0  0
    0.9998   -3.1061    1.0058 H   0  0  0  0  0  0  0  0  0  0  0  0
   -0.2481   -2.2639   -1.5285 H   0  0  0  0  0  0  0  0  0  0  0  0
    6.5277    0.7256   -0.1071 H   0  0  0  0  0  0  0  0  0  0  0  0
    5.4460    1.6363    0.9450 H   0  0  0  0  0  0  0  0  0  0  0  0
   -0.9348   -4.6061    0.3440 H   0  0  0  0  0  0  0  0  0  0  0  0
   -1.8565   -4.1421   -1.0689 H   0  0  0  0  0  0  0  0  0  0  0  0
   -1.1650   -3.0199    2.6398 H   0  0  0  0  0  0  0  0  0  0  0  0
   -2.8597   -1.2953    3.2675 H   0  0  0  0  0  0  0  0  0  0  0  0
    0.8428   -4.8113   -3.6725 H   0  0  0  0  0  0  0  0  0  0  0  0
   -0.3061   -3.5532   -3.3901 H   0  0  0  0  0  0  0  0  0  0  0  0
   -3.3585   -2.2330   -2.0037 H   0  0  0  0  0  0  0  0  0  0  0  0
    5.9690    4.1064   -2.0509 H   0  0  0  0  0  0  0  0  0  0  0  0
    7.1676    3.0301   -1.3052 H   0  0  0  0  0  0  0  0  0  0  0  0
    5.9904    3.9098   -0.2869 H   0  0  0  0  0  0  0  0  0  0  0  0
   -4.8876    0.2480    2.0609 H   0  0  0  0  0  0  0  0  0  0  0  0
   -5.1989   -0.5838   -2.1535 H   0  0  0  0  0  0  0  0  0  0  0  0
   -5.9581    0.6442   -0.1519 H   0  0  0  0  0  0  0  0  0  0  0  0
  1 26  1  0  0  0  0
  1 34  1  0  0  0  0
  2 21  2  0  0  0  0
  3 23  2  0  0  0  0
  4 24  2  0  0  0  0
  5 29  2  0  0  0  0
  6 13  1  0  0  0  0
  6 15  1  0  0  0  0
  6 23  1  0  0  0  0
  7 12  1  0  0  0  0
  7 24  1  0  0  0  0
  7 49  1  0  0  0  0
  8 16  1  0  0  0  0
  8 24  1  0  0  0  0
  8 56  1  0  0  0  0
  9 21  1  0  0  0  0
  9 25  1  0  0  0  0
  9 57  1  0  0  0  0
 10 31  1  0  0  0  0
 10 32  1  0  0  0  0
 10 64  1  0  0  0  0
 11 29  1  0  0  0  0
 11 65  1  0  0  0  0
 11 66  1  0  0  0  0
 12 14  1  0  0  0  0
 12 15  1  0  0  0  0
 12 38  1  0  0  0  0
 13 14  1  0  0  0  0
 13 21  1  0  0  0  0
 13 39  1  0  0  0  0
 14 40  1  0  0  0  0
 14 41  1  0  0  0  0
 15 42  1  0  0  0  0
 15 43  1  0  0  0  0
 16 17  1  0  0  0  0
 16 18  1  0  0  0  0
 16 44  1  0  0  0  0
 17 19  1  0  0  0  0
 17 45  1  0  0  0  0
 17 46  1  0  0  0  0
 18 20  1  0  0  0  0
 18 47  1  0  0  0  0
 18 48  1  0  0  0  0
 19 22  1  0  0  0  0
 19 50  1  0  0  0  0
 19 51  1  0  0  0  0
 20 22  1  0  0  0  0
 20 52  1  0  0  0  0
 20 53  1  0  0  0  0
 22 54  1  0  0  0  0
 22 55  1  0  0  0  0
 23 26  1  0  0  0  0
 25 27  1  0  0  0  0
 25 29  1  0  0  0  0
 25 58  1  0  0  0  0
 26 59  1  0  0  0  0
 26 60  1  0  0  0  0
 27 28  1  0  0  0  0
 27 61  1  0  0  0  0
 27 62  1  0  0  0  0
 28 30  1  0  0  0  0
 28 31  2  0  0  0  0
 30 32  1  0  0  0  0
 30 33  2  0  0  0  0
 31 63  1  0  0  0  0
 32 35  2  0  0  0  0
 33 36  1  0  0  0  0
 33 67  1  0  0  0  0
 34 68  1  0  0  0  0
 34 69  1  0  0  0  0
 34 70  1  0  0  0  0
 35 37  1  0  0  0  0
 35 71  1  0  0  0  0
 36 37  2  0  0  0  0
 36 72  1  0  0  0  0
 37 73  1  0  0  0  0
M  END
> <PUBCHEM_COMPOUND_CID>
11882030

> <PUBCHEM_CONFORMER_RMSD>
1.2

> <PUBCHEM_CONFORMER_DIVERSEORDER>
1
18
46
49
21
29
3
31
19
16
40
54
43
9
34
55
15
35
56
17
47
45
2
53
8
10
12
38
25
14
26
23
33
52
44
28
30
20
13
39
32
7
48
37
36
51
11
5
41
4
24
57
27
50
22
42
6

> <PUBCHEM_MMFF94_PARTIAL_CHARGES>
41
1 -0.46
10 0.03
11 -0.8
12 0.3
13 0.36
15 0.3
16 0.3
2 -0.57
21 0.57
23 0.57
24 0.69
25 0.36
26 0.29
27 0.18
28 -0.18
29 0.57
3 -0.57
31 -0.3
32 -0.15
33 -0.15
34 0.23
35 -0.15
36 -0.15
37 -0.15
4 -0.57
49 0.37
5 -0.57
56 0.37
57 0.37
6 -0.66
63 0.15
64 0.27
65 0.37
66 0.37
67 0.15
7 -0.73
71 0.15
72 0.15
73 0.15
8 -0.73
9 -0.73

> <PUBCHEM_EFFECTIVE_ROTOR_COUNT>
15.2

> <PUBCHEM_PHARMACOPHORE_FEATURES>
15
1 10 cation
1 10 donor
1 11 donor
1 2 acceptor
1 3 acceptor
1 34 hydrophobe
1 4 acceptor
1 5 acceptor
1 7 donor
1 8 donor
1 9 donor
5 10 28 30 31 32 rings
5 6 12 13 14 15 rings
6 16 17 18 19 20 22 rings
6 30 32 33 35 36 37 rings

> <PUBCHEM_HEAVY_ATOM_COUNT>
37

> <PUBCHEM_ATOM_DEF_STEREO_COUNT>
3

> <PUBCHEM_ATOM_UDEF_STEREO_COUNT>
0

> <PUBCHEM_BOND_DEF_STEREO_COUNT>
0

> <PUBCHEM_BOND_UDEF_STEREO_COUNT>
0

> <PUBCHEM_ISOTOPIC_ATOM_COUNT>
0

> <PUBCHEM_COMPONENT_COUNT>
1

> <PUBCHEM_CACTVS_TAUTO_COUNT>
12

> <PUBCHEM_CONFORMER_ID>
00B54E2E00000001

> <PUBCHEM_MMFF94_ENERGY>
65.5249

> <PUBCHEM_FEATURE_SELFOVERLAP>
76.266

> <PUBCHEM_SHAPE_FINGERPRINT>
10940486 97 17552642869665828214
11170278 133 18261950855427356116
11285246 1 16616742454141110654
11513181 2 18053932133708095877
12788726 201 18187348914383547049
13383668 90 14906530500658498824
13402501 40 18413666907587638097
13761468 95 18338811099522731470
14251757 5 18334572460369799529
14930077 153 17755319086588418740
16067690 210 18040151837827019400
20764821 26 18055346947147367179
20775438 99 17191174737184351599
238 59 17113255538815166113
25223398 141 18337659855236012216
3493558 16 16445895299684550668
354706 35 18047442587941436301
6608658 132 18193549189022013518

> <PUBCHEM_SHAPE_MULTIPOLES>
711.93
10.18
7.55
2.48
9.42
3.46
-0.19
3.63
-1.84
-3.09
-5.16
-0.17
-0.16
1.23

> <PUBCHEM_SHAPE_SELFOVERLAP>
1487.288

> <PUBCHEM_SHAPE_VOLUME>
406.2

> <PUBCHEM_COORDINATE_TYPE>
2
5
10

$$$$
