45783353
  -OEChem-12032416263D

 57 60  0     1  0  0  0  0  0999 V2000
   -1.6926    2.8825   -0.6073 O   0  0  0  0  0  0  0  0  0  0  0  0
    4.1506   -0.7812    0.0876 O   0  0  0  0  0  0  0  0  0  0  0  0
    5.9393   -1.9066    1.9229 O   0  0  0  0  0  0  0  0  0  0  0  0
   -3.0926    0.0910    1.3302 N   0  0  1  0  0  0  0  0  0  0  0  0
   -3.4090   -2.9352   -1.6374 N   0  0  0  0  0  0  0  0  0  0  0  0
   -0.5220    1.1980    0.2923 N   0  0  0  0  0  0  0  0  0  0  0  0
   -0.4092    2.9598   -1.1628 N   0  0  0  0  0  0  0  0  0  0  0  0
    4.2683    1.0039   -1.3902 N   0  0  0  0  0  0  0  0  0  0  0  0
   -3.6648   -0.7205    0.2583 C   0  0  0  0  0  0  0  0  0  0  0  0
   -2.9622    1.5179    0.9738 C   0  0  1  0  0  0  0  0  0  0  0  0
   -3.9004    0.0415    2.5491 C   0  0  0  0  0  0  0  0  0  0  0  0
   -3.7600   -2.1845    0.6950 C   0  0  0  0  0  0  0  0  0  0  0  0
   -2.8276   -0.6100   -1.0194 C   0  0  0  0  0  0  0  0  0  0  0  0
   -3.0702    2.2675    2.3146 C   0  0  0  0  0  0  0  0  0  0  0  0
   -3.3209    1.1859    3.3558 C   0  0  0  0  0  0  0  0  0  0  0  0
   -4.2646   -3.0669   -0.4498 C   0  0  0  0  0  0  0  0  0  0  0  0
   -3.3624   -1.5439   -2.1081 C   0  0  0  0  0  0  0  0  0  0  0  0
   -1.6733    1.8188    0.2381 C   0  0  0  0  0  0  0  0  0  0  0  0
   -3.8742   -3.8211   -2.7041 C   0  0  0  0  0  0  0  0  0  0  0  0
    0.2217    1.9339   -0.5837 C   0  0  0  0  0  0  0  0  0  0  0  0
    1.5940    1.6184   -0.8570 C   0  0  0  0  0  0  0  0  0  0  0  0
    2.2019    0.5395   -0.2245 C   0  0  0  0  0  0  0  0  0  0  0  0
    2.3218    2.3903   -1.7559 C   0  0  0  0  0  0  0  0  0  0  0  0
    3.5292    0.2766   -0.5228 C   0  0  0  0  0  0  0  0  0  0  0  0
    3.6436    2.0446   -1.9857 C   0  0  0  0  0  0  0  0  0  0  0  0
    5.5132   -1.0067   -0.2542 C   0  0  0  0  0  0  0  0  0  0  0  0
    6.0306   -2.1952    0.5331 C   0  0  0  0  0  0  0  0  0  0  0  0
    6.3916   -2.9981    2.7121 C   0  0  0  0  0  0  0  0  0  0  0  0
   -4.6807   -0.3672    0.0280 H   0  0  0  0  0  0  0  0  0  0  0  0
   -3.8068    1.8395    0.3477 H   0  0  0  0  0  0  0  0  0  0  0  0
   -3.7888   -0.8968    3.1005 H   0  0  0  0  0  0  0  0  0  0  0  0
   -4.9643    0.2202    2.3484 H   0  0  0  0  0  0  0  0  0  0  0  0
   -4.4532   -2.3093    1.5344 H   0  0  0  0  0  0  0  0  0  0  0  0
   -2.7787   -2.5486    1.0286 H   0  0  0  0  0  0  0  0  0  0  0  0
   -2.8647    0.3971   -1.4448 H   0  0  0  0  0  0  0  0  0  0  0  0
   -1.7797   -0.8691   -0.8221 H   0  0  0  0  0  0  0  0  0  0  0  0
   -2.1791    2.8521    2.5678 H   0  0  0  0  0  0  0  0  0  0  0  0
   -3.9254    2.9536    2.2855 H   0  0  0  0  0  0  0  0  0  0  0  0
   -2.3718    0.8871    3.8182 H   0  0  0  0  0  0  0  0  0  0  0  0
   -3.9943    1.5238    4.1490 H   0  0  0  0  0  0  0  0  0  0  0  0
   -4.2608   -4.1081   -0.1048 H   0  0  0  0  0  0  0  0  0  0  0  0
   -5.3047   -2.8057   -0.6860 H   0  0  0  0  0  0  0  0  0  0  0  0
   -4.3572   -1.2064   -2.4282 H   0  0  0  0  0  0  0  0  0  0  0  0
   -2.6983   -1.4696   -2.9781 H   0  0  0  0  0  0  0  0  0  0  0  0
   -3.8612   -4.8648   -2.3706 H   0  0  0  0  0  0  0  0  0  0  0  0
   -4.8908   -3.5763   -3.0323 H   0  0  0  0  0  0  0  0  0  0  0  0
   -3.2078   -3.7616   -3.5718 H   0  0  0  0  0  0  0  0  0  0  0  0
    1.6732   -0.0908    0.4839 H   0  0  0  0  0  0  0  0  0  0  0  0
    1.9012    3.2429   -2.2788 H   0  0  0  0  0  0  0  0  0  0  0  0
    4.2550    2.6145   -2.6777 H   0  0  0  0  0  0  0  0  0  0  0  0
    6.1053   -0.1208    0.0070 H   0  0  0  0  0  0  0  0  0  0  0  0
    5.6060   -1.2154   -1.3265 H   0  0  0  0  0  0  0  0  0  0  0  0
    5.4201   -3.0788    0.3132 H   0  0  0  0  0  0  0  0  0  0  0  0
    7.0730   -2.3978    0.2635 H   0  0  0  0  0  0  0  0  0  0  0  0
    5.7747   -3.8838    2.5320 H   0  0  0  0  0  0  0  0  0  0  0  0
    7.4413   -3.2191    2.4958 H   0  0  0  0  0  0  0  0  0  0  0  0
    6.3036   -2.7206    3.7659 H   0  0  0  0  0  0  0  0  0  0  0  0
  1  7  1  0  0  0  0
  1 18  1  0  0  0  0
  2 24  1  0  0  0  0
  2 26  1  0  0  0  0
  3 27  1  0  0  0  0
  3 28  1  0  0  0  0
  4  9  1  0  0  0  0
  4 10  1  0  0  0  0
  4 11  1  0  0  0  0
  5 16  1  0  0  0  0
  5 17  1  0  0  0  0
  5 19  1  0  0  0  0
  6 18  2  0  0  0  0
  6 20  1  0  0  0  0
  7 20  2  0  0  0  0
  8 24  2  0  0  0  0
  8 25  1  0  0  0  0
  9 12  1  0  0  0  0
  9 13  1  0  0  0  0
  9 29  1  0  0  0  0
 10 14  1  0  0  0  0
 10 18  1  0  0  0  0
 10 30  1  0  0  0  0
 11 15  1  0  0  0  0
 11 31  1  0  0  0  0
 11 32  1  0  0  0  0
 12 16  1  0  0  0  0
 12 33  1  0  0  0  0
 12 34  1  0  0  0  0
 13 17  1  0  0  0  0
 13 35  1  0  0  0  0
 13 36  1  0  0  0  0
 14 15  1  0  0  0  0
 14 37  1  0  0  0  0
 14 38  1  0  0  0  0
 15 39  1  0  0  0  0
 15 40  1  0  0  0  0
 16 41  1  0  0  0  0
 16 42  1  0  0  0  0
 17 43  1  0  0  0  0
 17 44  1  0  0  0  0
 19 45  1  0  0  0  0
 19 46  1  0  0  0  0
 19 47  1  0  0  0  0
 20 21  1  0  0  0  0
 21 22  2  0  0  0  0
 21 23  1  0  0  0  0
 22 24  1  0  0  0  0
 22 48  1  0  0  0  0
 23 25  2  0  0  0  0
 23 49  1  0  0  0  0
 25 50  1  0  0  0  0
 26 27  1  0  0  0  0
 26 51  1  0  0  0  0
 26 52  1  0  0  0  0
 27 53  1  0  0  0  0
 27 54  1  0  0  0  0
 28 55  1  0  0  0  0
 28 56  1  0  0  0  0
 28 57  1  0  0  0  0
M  END
> <PUBCHEM_COMPOUND_CID>
45783353

> <PUBCHEM_CONFORMER_RMSD>
1

> <PUBCHEM_CONFORMER_DIVERSEORDER>
1
33
45
18
97
49
31
88
43
90
82
104
36
89
79
68
96
30
51
23
38
57
74
58
113
81
80
73
63
29
110
53
62
95
64
103
41
75
19
70
42
5
60
25
40
3
14
16
21
59
22
99
106
55
93
46
69
92
50
12
66
48
94
102
44
101
7
32
77
109
111
84
39
54
56
27
78
85
52
61
67
47
34
83
91
86
100
35
26
37
72
87
107
9
11
6
108
105
20
4
24
8
112
10
28
17
98
65
71
2
76
15
13

> <PUBCHEM_MMFF94_PARTIAL_CHARGES>
27
1 -0.02
10 0.45
11 0.27
16 0.27
17 0.27
18 0.3
19 0.27
2 -0.36
20 0.46
21 0.05
22 -0.15
23 -0.15
24 0.39
25 0.16
26 0.28
27 0.28
28 0.28
3 -0.56
4 -0.81
48 0.15
49 0.15
5 -0.81
50 0.15
6 -0.57
7 -0.41
8 -0.62
9 0.27

> <PUBCHEM_EFFECTIVE_ROTOR_COUNT>
9.2

> <PUBCHEM_PHARMACOPHORE_FEATURES>
8
1 3 acceptor
1 4 cation
1 5 cation
3 6 7 20 cation
5 1 6 7 18 20 rings
5 4 10 11 14 15 rings
6 5 9 12 13 16 17 rings
6 8 21 22 23 24 25 rings

> <PUBCHEM_HEAVY_ATOM_COUNT>
28

> <PUBCHEM_ATOM_DEF_STEREO_COUNT>
1

> <PUBCHEM_ATOM_UDEF_STEREO_COUNT>
0

> <PUBCHEM_BOND_DEF_STEREO_COUNT>
0

> <PUBCHEM_BOND_UDEF_STEREO_COUNT>
0

> <PUBCHEM_ISOTOPIC_ATOM_COUNT>
0

> <PUBCHEM_COMPONENT_COUNT>
1

> <PUBCHEM_CACTVS_TAUTO_COUNT>
1

> <PUBCHEM_CONFORMER_ID>
02BA993900000001

> <PUBCHEM_MMFF94_ENERGY>
52.3805

> <PUBCHEM_FEATURE_SELFOVERLAP>
40.598

> <PUBCHEM_SHAPE_FINGERPRINT>
10305334 12 17898033269073978561
10319688 67 17131283372414931995
10462674 125 14403181859689855301
10622 236 18338793536943223519
10928967 22 18336278893963284502
11135926 11 17532673415149713812
11552529 35 17703244999861597461
11578080 2 18056192708383261593
11607047 403 17695887205909233960
11621639 183 16414915219979944904
12174731 88 18189047591213789402
12218070 45 18341878711575256722
12422481 6 18127980706975197310
12523318 42 17632297865196235955
12549972 3 15480737180661924077
12559416 138 18261395576776044546
12633257 1 17917446301544446792
12788726 201 17412217565308469813
12977781 61 17908379784480816212
13004483 165 17345201210793642189
13383661 66 16596212910078330867
13583140 156 15195022512873869932
14844126 61 18190734228907231616
14848178 96 11887661829010010312
15537594 2 18191615079449615788
16728300 4 18189920689772227809
19032999 76 17631443643662226631
19303781 99 17243579686364021666
20554085 129 17200814202812214753
20775530 9 17698167588588102311
21033648 29 15410632332186299113
21585480 29 18265593461047621354
21599406 157 14996863004885351202
235170 7 15213592267961025108
314194 84 17968106304906396440
3459 110 16056304133249163122
345986 75 17843407534093500223
44880168 125 18052259497428748734
46194498 28 14708078590562336062
484985 159 18336536136813606631
6431902 208 17604152511336492970
7970288 3 17750537206621678938

> <PUBCHEM_SHAPE_MULTIPOLES>
533.71
13.82
4.43
3
21.78
2.45
-1.68
13.74
-5.92
-1.95
1.38
-1.01
0.7
-7.99

> <PUBCHEM_SHAPE_SELFOVERLAP>
1125.298

> <PUBCHEM_SHAPE_VOLUME>
301.6

> <PUBCHEM_COORDINATE_TYPE>
2
5
10

$$$$
