56774336
  -OEChem-12032416323D

 46 48  0     1  0  0  0  0  0999 V2000
   -2.7484   -0.1506   -1.6950 S   0  0  0  0  0  0  0  0  0  0  0  0
   -1.7845   -1.1531   -2.1295 O   0  0  0  0  0  0  0  0  0  0  0  0
   -3.7238    0.3680   -2.6443 O   0  0  0  0  0  0  0  0  0  0  0  0
    4.9272   -0.7589    1.1708 O   0  0  0  0  0  0  0  0  0  0  0  0
    6.7671   -2.0568   -0.8227 O   0  0  0  0  0  0  0  0  0  0  0  0
   -1.8875    1.1691   -1.0127 N   0  0  0  0  0  0  0  0  0  0  0  0
    4.1620    0.3718    1.4292 N   0  0  0  0  0  0  0  0  0  0  0  0
   -0.0277    2.3086    0.3988 C   0  0  0  0  0  0  0  0  0  0  0  0
    1.1362    1.3356    0.6806 C   0  0  1  0  0  0  0  0  0  0  0  0
   -0.8919    1.0665    0.0976 C   0  0  2  0  0  0  0  0  0  0  0  0
    0.4203    0.3319   -0.2472 C   0  0  0  0  0  0  0  0  0  0  0  0
    2.5143    1.7511    0.2219 C   0  0  0  0  0  0  0  0  0  0  0  0
   -0.4404    3.1202    1.6065 C   0  0  0  0  0  0  0  0  0  0  0  0
    0.1453    3.2165   -0.8046 C   0  0  0  0  0  0  0  0  0  0  0  0
    3.4701    0.5850    0.3062 C   0  0  0  0  0  0  0  0  0  0  0  0
    3.7548   -0.3696   -0.6853 C   0  0  0  0  0  0  0  0  0  0  0  0
   -3.6186   -0.7687   -0.3136 C   0  0  0  0  0  0  0  0  0  0  0  0
    4.6761   -1.1911   -0.0915 C   0  0  0  0  0  0  0  0  0  0  0  0
   -4.8910   -0.2810   -0.0159 C   0  0  0  0  0  0  0  0  0  0  0  0
   -3.0401   -1.7473    0.4944 C   0  0  0  0  0  0  0  0  0  0  0  0
    5.4058   -2.3859   -0.5322 C   0  0  0  0  0  0  0  0  0  0  0  0
   -5.5850   -0.7720    1.0901 C   0  0  0  0  0  0  0  0  0  0  0  0
   -3.7340   -2.2384    1.6002 C   0  0  0  0  0  0  0  0  0  0  0  0
   -5.0064   -1.7507    1.8981 C   0  0  0  0  0  0  0  0  0  0  0  0
    1.1490    0.9856    1.7247 H   0  0  0  0  0  0  0  0  0  0  0  0
   -1.3721    0.6653    1.0002 H   0  0  0  0  0  0  0  0  0  0  0  0
    0.7053    0.3809   -1.3049 H   0  0  0  0  0  0  0  0  0  0  0  0
    0.4641   -0.7135    0.0732 H   0  0  0  0  0  0  0  0  0  0  0  0
    2.8864    2.5753    0.8428 H   0  0  0  0  0  0  0  0  0  0  0  0
    2.5200    2.1095   -0.8137 H   0  0  0  0  0  0  0  0  0  0  0  0
   -0.5912    2.4885    2.4892 H   0  0  0  0  0  0  0  0  0  0  0  0
    0.3214    3.8646    1.8633 H   0  0  0  0  0  0  0  0  0  0  0  0
   -1.3814    3.6509    1.4240 H   0  0  0  0  0  0  0  0  0  0  0  0
    0.9237    3.9670   -0.6239 H   0  0  0  0  0  0  0  0  0  0  0  0
    0.4178    2.6770   -1.7181 H   0  0  0  0  0  0  0  0  0  0  0  0
   -0.7770    3.7685   -1.0207 H   0  0  0  0  0  0  0  0  0  0  0  0
   -2.3518    2.0833   -1.0914 H   0  0  0  0  0  0  0  0  0  0  0  0
    3.3514   -0.4503   -1.6839 H   0  0  0  0  0  0  0  0  0  0  0  0
   -5.3579    0.4867   -0.6264 H   0  0  0  0  0  0  0  0  0  0  0  0
   -2.0477   -2.1366    0.2849 H   0  0  0  0  0  0  0  0  0  0  0  0
    5.3967   -3.1547    0.2470 H   0  0  0  0  0  0  0  0  0  0  0  0
    4.9563   -2.8060   -1.4376 H   0  0  0  0  0  0  0  0  0  0  0  0
   -6.5750   -0.3910    1.3233 H   0  0  0  0  0  0  0  0  0  0  0  0
   -3.2829   -2.9991    2.2306 H   0  0  0  0  0  0  0  0  0  0  0  0
   -5.5462   -2.1324    2.7598 H   0  0  0  0  0  0  0  0  0  0  0  0
    7.2021   -2.8787   -1.1073 H   0  0  0  0  0  0  0  0  0  0  0  0
  1  2  2  0  0  0  0
  1  3  2  0  0  0  0
  1  6  1  0  0  0  0
  1 17  1  0  0  0  0
  4  7  1  0  0  0  0
  4 18  1  0  0  0  0
  5 21  1  0  0  0  0
  5 46  1  0  0  0  0
  6 10  1  0  0  0  0
  6 37  1  0  0  0  0
  7 15  2  0  0  0  0
  8  9  1  0  0  0  0
  8 10  1  0  0  0  0
  8 13  1  0  0  0  0
  8 14  1  0  0  0  0
  9 11  1  0  0  0  0
  9 12  1  0  0  0  0
  9 25  1  0  0  0  0
 10 11  1  0  0  0  0
 10 26  1  0  0  0  0
 11 27  1  0  0  0  0
 11 28  1  0  0  0  0
 12 15  1  0  0  0  0
 12 29  1  0  0  0  0
 12 30  1  0  0  0  0
 13 31  1  0  0  0  0
 13 32  1  0  0  0  0
 13 33  1  0  0  0  0
 14 34  1  0  0  0  0
 14 35  1  0  0  0  0
 14 36  1  0  0  0  0
 15 16  1  0  0  0  0
 16 18  2  0  0  0  0
 16 38  1  0  0  0  0
 17 19  2  0  0  0  0
 17 20  1  0  0  0  0
 18 21  1  0  0  0  0
 19 22  1  0  0  0  0
 19 39  1  0  0  0  0
 20 23  2  0  0  0  0
 20 40  1  0  0  0  0
 21 41  1  0  0  0  0
 21 42  1  0  0  0  0
 22 24  2  0  0  0  0
 22 43  1  0  0  0  0
 23 24  1  0  0  0  0
 23 44  1  0  0  0  0
 24 45  1  0  0  0  0
M  END
> <PUBCHEM_COMPOUND_CID>
56774336

> <PUBCHEM_CONFORMER_RMSD>
0.8

> <PUBCHEM_CONFORMER_DIVERSEORDER>
1
94
12
95
49
43
6
76
28
92
82
4
88
86
42
24
57
16
52
38
61
25
71
90
13
85
84
5
10
11
89
87
14
29
60
65
9
93
55
91
27
58
30
75
77
19
41
46
26
3
73
33
18
32
81
63
74
56
96
22
66
34
69
21
59
45
68
36
20
78
47
44
7
37
83
39
79
54
23
31
62
48
50
67
17
80
15
8
64
51
35
2
40
72
70
53

> <PUBCHEM_MMFF94_PARTIAL_CHARGES>
27
1 1.45
10 0.31
12 0.18
15 0.11
16 -0.15
17 -0.01
18 -0.04
19 -0.15
2 -0.65
20 -0.15
21 0.46
22 -0.15
23 -0.15
24 -0.15
3 -0.65
37 0.42
38 0.15
39 0.15
4 -0.02
40 0.15
43 0.15
44 0.15
45 0.15
46 0.4
5 -0.68
6 -0.87
7 -0.41

> <PUBCHEM_EFFECTIVE_ROTOR_COUNT>
6.8

> <PUBCHEM_PHARMACOPHORE_FEATURES>
10
1 2 acceptor
1 3 acceptor
1 5 acceptor
1 5 donor
1 6 donor
1 7 acceptor
3 8 13 14 hydrophobe
4 8 9 10 11 rings
5 4 7 15 16 18 rings
6 17 19 20 22 23 24 rings

> <PUBCHEM_HEAVY_ATOM_COUNT>
24

> <PUBCHEM_ATOM_DEF_STEREO_COUNT>
2

> <PUBCHEM_ATOM_UDEF_STEREO_COUNT>
0

> <PUBCHEM_BOND_DEF_STEREO_COUNT>
0

> <PUBCHEM_BOND_UDEF_STEREO_COUNT>
0

> <PUBCHEM_ISOTOPIC_ATOM_COUNT>
0

> <PUBCHEM_COMPONENT_COUNT>
1

> <PUBCHEM_CACTVS_TAUTO_COUNT>
1

> <PUBCHEM_CONFORMER_ID>
03624EC000000001

> <PUBCHEM_MMFF94_ENERGY>
32.7771

> <PUBCHEM_FEATURE_SELFOVERLAP>
50.765

> <PUBCHEM_SHAPE_FINGERPRINT>
10369192 42 17246676266725019868
10498660 4 8574712407954690654
10928967 22 17895468236726410939
11128504 68 14201395005887875491
11135926 11 18196646518263866308
11370993 144 18263084486933772193
11796584 16 17968084326725169786
11809386 21 18119243962027083962
12403259 118 12895061946871890978
12422481 6 17560530503462539287
12553582 1 18059576935841318268
12596602 18 15625932192367410702
12623949 98 17609796540434169659
12633257 1 17988085611708346887
12760667 363 18342739585248164430
12892183 10 13830129537476837188
13103583 49 16630522959937234532
13402501 40 18261117391111013659
13544653 18 18201428203610937700
13673619 4 17749395905552838787
13782708 43 18115309020386244675
13914758 101 18131349714261614347
13941219 33 18202003217969101419
14251732 14 16009036106859533979
14251751 18 17530952610231315266
14251764 30 18260556657608350835
14251764 38 10374778938567456579
14341114 328 15482670204150875282
14420673 8 18334022687771850363
14739800 52 14906474536864906544
14767858 380 12901549078576942403
14840074 17 17917996083328416974
14950920 106 15338535212049629542
15042514 8 18270405966521261681
15475509 84 17489317368741525600
15537594 2 18202003274267608118
15842332 3 17127888294935295429
16991981 162 13913694556246047927
17492 54 12468638360966818007
17980427 23 14836118918629973145
1813 80 18341622533016578708
193927 3 18408603660694408200
20642791 268 16701166642336644736
20693207 138 17531802579869468677
21033650 10 16515683299775266660
212916 134 14764359253429645893
21365058 27 17109052650859710853
21403212 168 17775010042850822875
22765269 38 9943527379729758538
22950370 63 18334866051296089297
23175994 123 18408318908736863021
23559900 14 18333723629124994524
2838139 119 10375604650430347995
3004659 81 17967256407845161338
341906 21 13686024249279057505
437815 12 18408886252536624211
46194498 28 17313669389887473204
484985 159 18335145233119025499
5104073 3 17916296153158976258
513202 73 18129390306060693146
5486654 36 18200036136212328320
56633871 153 18060701697339539935
621550 5 17967815002681003237
7064713 232 15985100829744647494
7918774 8 18335711545636304234
7970288 3 18413388760842251806
79837 15 17554624893313859368

> <PUBCHEM_SHAPE_MULTIPOLES>
464.32
13.42
3.12
1.83
8.97
1.51
-0.58
-13.16
1.71
1.46
0.7
-2.09
-0.12
2.07

> <PUBCHEM_SHAPE_SELFOVERLAP>
967.581

> <PUBCHEM_SHAPE_VOLUME>
266.2

> <PUBCHEM_COORDINATE_TYPE>
2
5
10

$$$$
