75366989
  -OEChem-12032416383D

 66 69  0     1  0  0  0  0  0999 V2000
    2.8870    0.2355    0.8557 O   0  0  0  0  0  0  0  0  0  0  0  0
    4.7780    2.0563    2.1963 O   0  0  0  0  0  0  0  0  0  0  0  0
    0.9841   -3.4631   -1.7405 O   0  0  0  0  0  0  0  0  0  0  0  0
   -1.1974    3.4909   -0.0866 O   0  0  0  0  0  0  0  0  0  0  0  0
    0.9420    1.5787   -0.7354 N   0  0  0  0  0  0  0  0  0  0  0  0
    2.2948   -3.0761   -1.4890 N   0  0  0  0  0  0  0  0  0  0  0  0
   -2.0385   -2.8432    0.2675 N   0  0  1  0  0  0  0  0  0  0  0  0
    2.9537    1.6556    0.6718 C   0  0  1  0  0  0  0  0  0  0  0  0
    3.7453   -0.5289    0.0055 C   0  0  1  0  0  0  0  0  0  0  0  0
    4.3905    2.1715    0.8245 C   0  0  2  0  0  0  0  0  0  0  0  0
    5.2050   -0.1275    0.2121 C   0  0  0  0  0  0  0  0  0  0  0  0
    5.3872    1.3713   -0.0096 C   0  0  0  0  0  0  0  0  0  0  0  0
    3.5340   -1.9996    0.3437 C   0  0  0  0  0  0  0  0  0  0  0  0
    2.3083    2.0705   -0.6487 C   0  0  0  0  0  0  0  0  0  0  0  0
    2.2672   -2.5358   -0.2673 C   0  0  0  0  0  0  0  0  0  0  0  0
    0.3198    1.9817   -1.9900 C   0  0  0  0  0  0  0  0  0  0  0  0
    0.9794   -2.5542    0.2955 C   0  0  0  0  0  0  0  0  0  0  0  0
    0.2103   -3.1471   -0.6707 C   0  0  0  0  0  0  0  0  0  0  0  0
   -1.1830    1.9357   -1.9107 C   0  0  0  0  0  0  0  0  0  0  0  0
   -1.2137   -3.4893   -0.7679 C   0  0  0  0  0  0  0  0  0  0  0  0
   -2.2731   -1.4458   -0.0791 C   0  0  0  0  0  0  0  0  0  0  0  0
   -1.8704    2.6930   -0.9623 C   0  0  0  0  0  0  0  0  0  0  0  0
   -1.8881    1.1238   -2.7991 C   0  0  0  0  0  0  0  0  0  0  0  0
   -3.3000   -3.5594    0.4215 C   0  0  0  0  0  0  0  0  0  0  0  0
   -2.6256   -0.6200    1.1295 C   0  0  0  0  0  0  0  0  0  0  0  0
   -3.2629    2.6384   -0.9022 C   0  0  0  0  0  0  0  0  0  0  0  0
   -3.2807    1.0691   -2.7391 C   0  0  0  0  0  0  0  0  0  0  0  0
   -3.9681    1.8264   -1.7907 C   0  0  0  0  0  0  0  0  0  0  0  0
   -3.9593   -0.4776    1.5125 C   0  0  0  0  0  0  0  0  0  0  0  0
   -1.6181    0.0030    1.8660 C   0  0  0  0  0  0  0  0  0  0  0  0
   -4.2855    0.2877    2.6321 C   0  0  0  0  0  0  0  0  0  0  0  0
   -1.9443    0.7681    2.9857 C   0  0  0  0  0  0  0  0  0  0  0  0
   -3.2780    0.9106    3.3688 C   0  0  0  0  0  0  0  0  0  0  0  0
    2.3559    2.0771    1.4908 H   0  0  0  0  0  0  0  0  0  0  0  0
    3.4696   -0.3564   -1.0418 H   0  0  0  0  0  0  0  0  0  0  0  0
    4.4435    3.2351    0.5667 H   0  0  0  0  0  0  0  0  0  0  0  0
    5.8585   -0.6849   -0.4685 H   0  0  0  0  0  0  0  0  0  0  0  0
    5.5149   -0.3728    1.2358 H   0  0  0  0  0  0  0  0  0  0  0  0
    6.4159    1.6466    0.2506 H   0  0  0  0  0  0  0  0  0  0  0  0
    5.2488    1.5995   -1.0728 H   0  0  0  0  0  0  0  0  0  0  0  0
    3.4899   -2.1431    1.4309 H   0  0  0  0  0  0  0  0  0  0  0  0
    4.3735   -2.6015   -0.0277 H   0  0  0  0  0  0  0  0  0  0  0  0
    2.8843    1.6966   -1.5021 H   0  0  0  0  0  0  0  0  0  0  0  0
    2.3140    3.1660   -0.7083 H   0  0  0  0  0  0  0  0  0  0  0  0
    0.9208    0.5636   -0.6443 H   0  0  0  0  0  0  0  0  0  0  0  0
    5.6713    2.4309    2.2818 H   0  0  0  0  0  0  0  0  0  0  0  0
    0.6906    1.3433   -2.8014 H   0  0  0  0  0  0  0  0  0  0  0  0
    0.5914    3.0119   -2.2574 H   0  0  0  0  0  0  0  0  0  0  0  0
    0.6672   -2.1973    1.2652 H   0  0  0  0  0  0  0  0  0  0  0  0
   -1.5998   -3.2661   -1.7714 H   0  0  0  0  0  0  0  0  0  0  0  0
   -1.2710   -4.5803   -0.6524 H   0  0  0  0  0  0  0  0  0  0  0  0
   -3.0512   -1.3447   -0.8479 H   0  0  0  0  0  0  0  0  0  0  0  0
   -1.3817   -0.9864   -0.5256 H   0  0  0  0  0  0  0  0  0  0  0  0
   -1.3676    0.5256   -3.5422 H   0  0  0  0  0  0  0  0  0  0  0  0
   -3.1164   -4.6167    0.6476 H   0  0  0  0  0  0  0  0  0  0  0  0
   -3.9216   -3.5129   -0.4802 H   0  0  0  0  0  0  0  0  0  0  0  0
   -3.8809   -3.1841    1.2687 H   0  0  0  0  0  0  0  0  0  0  0  0
   -3.8112    3.2211   -0.1669 H   0  0  0  0  0  0  0  0  0  0  0  0
   -3.8296    0.4351   -3.4291 H   0  0  0  0  0  0  0  0  0  0  0  0
   -5.0521    1.7819   -1.7423 H   0  0  0  0  0  0  0  0  0  0  0  0
   -4.7569   -0.9449    0.9413 H   0  0  0  0  0  0  0  0  0  0  0  0
   -0.5754   -0.0926    1.5780 H   0  0  0  0  0  0  0  0  0  0  0  0
   -1.8377    3.9297    0.4994 H   0  0  0  0  0  0  0  0  0  0  0  0
   -5.3242    0.4017    2.9282 H   0  0  0  0  0  0  0  0  0  0  0  0
   -1.1599    1.2551    3.5576 H   0  0  0  0  0  0  0  0  0  0  0  0
   -3.5321    1.5078    4.2396 H   0  0  0  0  0  0  0  0  0  0  0  0
  1  8  1  0  0  0  0
  1  9  1  0  0  0  0
  2 10  1  0  0  0  0
  2 46  1  0  0  0  0
  3  6  1  0  0  0  0
  3 18  1  0  0  0  0
  4 22  1  0  0  0  0
  4 63  1  0  0  0  0
  5 14  1  0  0  0  0
  5 16  1  0  0  0  0
  5 45  1  0  0  0  0
  6 15  2  0  0  0  0
  7 20  1  0  0  0  0
  7 21  1  0  0  0  0
  7 24  1  0  0  0  0
  8 10  1  0  0  0  0
  8 14  1  0  0  0  0
  8 34  1  0  0  0  0
  9 11  1  0  0  0  0
  9 13  1  0  0  0  0
  9 35  1  0  0  0  0
 10 12  1  0  0  0  0
 10 36  1  0  0  0  0
 11 12  1  0  0  0  0
 11 37  1  0  0  0  0
 11 38  1  0  0  0  0
 12 39  1  0  0  0  0
 12 40  1  0  0  0  0
 13 15  1  0  0  0  0
 13 41  1  0  0  0  0
 13 42  1  0  0  0  0
 14 43  1  0  0  0  0
 14 44  1  0  0  0  0
 15 17  1  0  0  0  0
 16 19  1  0  0  0  0
 16 47  1  0  0  0  0
 16 48  1  0  0  0  0
 17 18  2  0  0  0  0
 17 49  1  0  0  0  0
 18 20  1  0  0  0  0
 19 22  1  0  0  0  0
 19 23  2  0  0  0  0
 20 50  1  0  0  0  0
 20 51  1  0  0  0  0
 21 25  1  0  0  0  0
 21 52  1  0  0  0  0
 21 53  1  0  0  0  0
 22 26  2  0  0  0  0
 23 27  1  0  0  0  0
 23 54  1  0  0  0  0
 24 55  1  0  0  0  0
 24 56  1  0  0  0  0
 24 57  1  0  0  0  0
 25 29  2  0  0  0  0
 25 30  1  0  0  0  0
 26 28  1  0  0  0  0
 26 58  1  0  0  0  0
 27 28  2  0  0  0  0
 27 59  1  0  0  0  0
 28 60  1  0  0  0  0
 29 31  1  0  0  0  0
 29 61  1  0  0  0  0
 30 32  2  0  0  0  0
 30 62  1  0  0  0  0
 31 33  2  0  0  0  0
 31 64  1  0  0  0  0
 32 33  1  0  0  0  0
 32 65  1  0  0  0  0
 33 66  1  0  0  0  0
M  END
> <PUBCHEM_COMPOUND_CID>
75366989

> <PUBCHEM_CONFORMER_RMSD>
1.4

> <PUBCHEM_CONFORMER_DIVERSEORDER>
1
169
229
232
151
192
143
231
177
117
57
199
23
8
200
196
2
193
124
184
236
191
126
170
135
64
181
142
235
93
171
165
153
188
172
78
230
47
209
61
50
205
42
26
104
194
21
179
182
150
129
144
113
157
56
146
122
15
185
79
154
156
65
43
223
137
13
158
5
39
214
89
6
107
120
119
98
163
118
83
147
85
221
189
190
220
228
96
186
134
162
168
202
178
121
237
35
110
234
128
215
51
219
88
70
217
87
112
225
3
187
105
159
24
216
207
198
95
53
82
130
27
136
233
92
86
41
197
166
76
28
4
167
138
59
160
218
29
227
176
211
175
84
208
161
106
195
71
222
201
204
123
80
11
115
125
73
148
103
97
109
149
67
203
20
45
9
206
173
213
226
141
77
46
174
180
183
32
33
75
111
94
37
114
131
108
52
139
132
140
81
30
48
31
145
152
62
10
58
238
164
101
133
72
55
116
12
210
7
127
60
63
212
25
91
17
16
18
14
40
90
74
54
34
49
102
36
69
19
224
22
100
99
44
66
155
68
38

> <PUBCHEM_MMFF94_PARTIAL_CHARGES>
44
1 -0.56
10 0.28
13 0.18
14 0.27
15 0.11
16 0.41
17 -0.15
18 -0.04
19 -0.14
2 -0.68
20 0.45
21 0.41
22 0.08
23 -0.15
24 0.27
25 -0.14
26 -0.15
27 -0.15
28 -0.15
29 -0.15
3 -0.02
30 -0.15
31 -0.15
32 -0.15
33 -0.15
4 -0.53
45 0.36
46 0.4
49 0.15
5 -0.9
54 0.15
58 0.15
59 0.15
6 -0.41
60 0.15
61 0.15
62 0.15
63 0.45
64 0.15
65 0.15
66 0.15
7 -0.81
8 0.28
9 0.28

> <PUBCHEM_EFFECTIVE_ROTOR_COUNT>
11.2

> <PUBCHEM_PHARMACOPHORE_FEATURES>
12
1 1 acceptor
1 2 acceptor
1 2 donor
1 4 donor
1 5 cation
1 5 donor
1 6 acceptor
1 7 cation
5 3 6 15 17 18 rings
6 1 8 9 10 11 12 rings
6 19 22 23 26 27 28 rings
6 25 29 30 31 32 33 rings

> <PUBCHEM_HEAVY_ATOM_COUNT>
33

> <PUBCHEM_ATOM_DEF_STEREO_COUNT>
3

> <PUBCHEM_ATOM_UDEF_STEREO_COUNT>
0

> <PUBCHEM_BOND_DEF_STEREO_COUNT>
0

> <PUBCHEM_BOND_UDEF_STEREO_COUNT>
0

> <PUBCHEM_ISOTOPIC_ATOM_COUNT>
0

> <PUBCHEM_COMPONENT_COUNT>
1

> <PUBCHEM_CACTVS_TAUTO_COUNT>
3

> <PUBCHEM_CONFORMER_ID>
047E024D00000001

> <PUBCHEM_MMFF94_ENERGY>
68.4364

> <PUBCHEM_FEATURE_SELFOVERLAP>
60.9

> <PUBCHEM_SHAPE_FINGERPRINT>
10675989 125 15884041035876958660
10816530 23 18265877207118012848
11513181 2 17489045802359971895
12100795 323 18408882919299085262
12156800 1 16824392247508190559
12422481 6 18261122875841512889
13402501 40 18116991079026844654
1361 2 18264753407797766301
13726171 33 17098093513828652804
13965767 371 18267043724471979994
14020679 6 17183921168112543729
14068700 675 17408245123627310239
14468879 13 18114732733946724481
14725015 67 17611726930179363925
14840074 17 18043550497293965564
15840311 113 17914080628887181515
16067689 68 15264227837329213878
19309040 13 16988019201131449011
19930381 70 17689142423257931973
20764821 26 18263362503812963182
21033648 144 18412262861299016354
21795232 40 18125707127034382865
238 59 18123450705708708270
3052486 1 16443639990708621432
3380486 145 18261117413086470457
35225 105 17916578889906628927
4112364 45 17483705316372186753
469060 322 17969215818764048426
5081480 168 17271184029020943758

> <PUBCHEM_SHAPE_MULTIPOLES>
640.7
9.43
4.88
2.95
9.03
3.09
-1.13
-3.24
-3.94
-0.57
2.34
-3.76
-1.38
2.44

> <PUBCHEM_SHAPE_SELFOVERLAP>
1355.578

> <PUBCHEM_SHAPE_VOLUME>
359.4

> <PUBCHEM_COORDINATE_TYPE>
2
5
10

$$$$
