75536946
  -OEChem-12032416333D

 38 39  0     1  0  0  0  0  0999 V2000
    2.7216   -2.0451    1.1615 O   0  0  0  0  0  0  0  0  0  0  0  0
   -0.1295   -1.3071   -1.0416 O   0  0  0  0  0  0  0  0  0  0  0  0
    1.8093    2.6861   -0.7754 O   0  0  0  0  0  0  0  0  0  0  0  0
   -5.0629    0.5038    0.6413 O   0  0  0  0  0  0  0  0  0  0  0  0
    2.8498    0.6736   -0.2165 N   0  0  0  0  0  0  0  0  0  0  0  0
    0.9870   -0.9709   -0.2195 C   0  0  2  0  0  0  0  0  0  0  0  0
    1.9410   -0.1146   -1.0519 C   0  0  0  0  0  0  0  0  0  0  0  0
    3.8996   -0.0175    0.5447 C   0  0  0  0  0  0  0  0  0  0  0  0
    1.6241   -2.2632    0.2849 C   0  0  0  0  0  0  0  0  0  0  0  0
    3.8810   -1.5399    0.5072 C   0  0  0  0  0  0  0  0  0  0  0  0
    2.6753    2.0643   -0.1551 C   0  0  0  0  0  0  0  0  0  0  0  0
   -1.3521   -0.8584   -0.6247 C   0  0  0  0  0  0  0  0  0  0  0  0
    3.6248    2.8188    0.7456 C   0  0  0  0  0  0  0  0  0  0  0  0
   -1.5798    0.5099   -0.4776 C   0  0  0  0  0  0  0  0  0  0  0  0
   -2.3715   -1.7689   -0.3464 C   0  0  0  0  0  0  0  0  0  0  0  0
   -2.8267    0.9677   -0.0522 C   0  0  0  0  0  0  0  0  0  0  0  0
   -3.6185   -1.3112    0.0791 C   0  0  0  0  0  0  0  0  0  0  0  0
   -3.8461    0.0571    0.2262 C   0  0  0  0  0  0  0  0  0  0  0  0
   -5.2267    1.9154    0.7702 C   0  0  0  0  0  0  0  0  0  0  0  0
    0.6756   -0.3917    0.6620 H   0  0  0  0  0  0  0  0  0  0  0  0
    2.5330   -0.7213   -1.7471 H   0  0  0  0  0  0  0  0  0  0  0  0
    1.3604    0.5590   -1.6924 H   0  0  0  0  0  0  0  0  0  0  0  0
    3.8131    0.3107    1.5865 H   0  0  0  0  0  0  0  0  0  0  0  0
    4.8617    0.3385    0.1599 H   0  0  0  0  0  0  0  0  0  0  0  0
    0.8727   -2.8327    0.8447 H   0  0  0  0  0  0  0  0  0  0  0  0
    1.9230   -2.9144   -0.5466 H   0  0  0  0  0  0  0  0  0  0  0  0
    4.7424   -1.9045    1.0779 H   0  0  0  0  0  0  0  0  0  0  0  0
    3.9848   -1.9436   -0.5063 H   0  0  0  0  0  0  0  0  0  0  0  0
    4.6624    2.6225    0.4653 H   0  0  0  0  0  0  0  0  0  0  0  0
    3.4535    2.5435    1.7892 H   0  0  0  0  0  0  0  0  0  0  0  0
    3.4449    3.8934    0.6415 H   0  0  0  0  0  0  0  0  0  0  0  0
   -0.8001    1.2329   -0.6990 H   0  0  0  0  0  0  0  0  0  0  0  0
   -2.1994   -2.8358   -0.4587 H   0  0  0  0  0  0  0  0  0  0  0  0
   -2.9358    2.0430    0.0388 H   0  0  0  0  0  0  0  0  0  0  0  0
   -4.4086   -2.0253    0.2946 H   0  0  0  0  0  0  0  0  0  0  0  0
   -4.5610    2.3296    1.5351 H   0  0  0  0  0  0  0  0  0  0  0  0
   -6.2525    2.0919    1.1100 H   0  0  0  0  0  0  0  0  0  0  0  0
   -5.1177    2.4228   -0.1942 H   0  0  0  0  0  0  0  0  0  0  0  0
  1  9  1  0  0  0  0
  1 10  1  0  0  0  0
  2  6  1  0  0  0  0
  2 12  1  0  0  0  0
  3 11  2  0  0  0  0
  4 18  1  0  0  0  0
  4 19  1  0  0  0  0
  5  7  1  0  0  0  0
  5  8  1  0  0  0  0
  5 11  1  0  0  0  0
  6  7  1  0  0  0  0
  6  9  1  0  0  0  0
  6 20  1  0  0  0  0
  7 21  1  0  0  0  0
  7 22  1  0  0  0  0
  8 10  1  0  0  0  0
  8 23  1  0  0  0  0
  8 24  1  0  0  0  0
  9 25  1  0  0  0  0
  9 26  1  0  0  0  0
 10 27  1  0  0  0  0
 10 28  1  0  0  0  0
 11 13  1  0  0  0  0
 12 14  2  0  0  0  0
 12 15  1  0  0  0  0
 13 29  1  0  0  0  0
 13 30  1  0  0  0  0
 13 31  1  0  0  0  0
 14 16  1  0  0  0  0
 14 32  1  0  0  0  0
 15 17  2  0  0  0  0
 15 33  1  0  0  0  0
 16 18  2  0  0  0  0
 16 34  1  0  0  0  0
 17 18  1  0  0  0  0
 17 35  1  0  0  0  0
 19 36  1  0  0  0  0
 19 37  1  0  0  0  0
 19 38  1  0  0  0  0
M  END
> <PUBCHEM_COMPOUND_CID>
75536946

> <PUBCHEM_CONFORMER_RMSD>
0.8

> <PUBCHEM_CONFORMER_DIVERSEORDER>
2
60
38
23
69
4
37
51
29
42
10
58
18
67
21
1
65
48
55
73
66
20
35
68
8
6
50
34
74
57
22
15
61
33
46
39
56
43
28
16
3
40
64
44
30
27
9
17
7
31
53
26
36
19
52
49
62
70
14
47
25
54
71
5
41
11
45
32
72
63
13
12
24
59

> <PUBCHEM_MMFF94_PARTIAL_CHARGES>
23
1 -0.56
10 0.28
11 0.57
12 0.08
13 0.06
14 -0.15
15 -0.15
16 -0.15
17 -0.15
18 0.08
19 0.28
2 -0.36
3 -0.57
32 0.15
33 0.15
34 0.15
35 0.15
4 -0.36
5 -0.66
6 0.28
7 0.3
8 0.3
9 0.28

> <PUBCHEM_EFFECTIVE_ROTOR_COUNT>
5.4

> <PUBCHEM_PHARMACOPHORE_FEATURES>
6
1 1 acceptor
1 2 acceptor
1 3 acceptor
1 4 acceptor
6 12 14 15 16 17 18 rings
7 1 5 6 7 8 9 10 rings

> <PUBCHEM_HEAVY_ATOM_COUNT>
19

> <PUBCHEM_ATOM_DEF_STEREO_COUNT>
1

> <PUBCHEM_ATOM_UDEF_STEREO_COUNT>
0

> <PUBCHEM_BOND_DEF_STEREO_COUNT>
0

> <PUBCHEM_BOND_UDEF_STEREO_COUNT>
0

> <PUBCHEM_ISOTOPIC_ATOM_COUNT>
0

> <PUBCHEM_COMPONENT_COUNT>
1

> <PUBCHEM_CACTVS_TAUTO_COUNT>
1

> <PUBCHEM_CONFORMER_ID>
04809A3200000002

> <PUBCHEM_MMFF94_ENERGY>
70.0991

> <PUBCHEM_FEATURE_SELFOVERLAP>
30.449

> <PUBCHEM_SHAPE_FINGERPRINT>
10366900 7 17822017509741973866
10382601 240 18115009918779004136
12251169 10 18337107878285546535
12403259 118 18271799125495016491
12633257 1 17895182320800404066
12670546 177 11671771651101104977
13140716 1 18410854382096677743
13583140 156 17968088678128680487
13675066 3 17603591794655080759
14178342 30 17897449608266398403
14251764 75 18199482119601569937
14341114 176 18409735019161760346
14790565 3 17901394703527645724
14866123 147 16031260144529355459
15196674 1 18341332292079824549
15238133 3 18263092028342306540
17810953 82 18342745074528066489
18186145 218 18409164445884085854
19050596 39 18335420170918212171
20233049 118 17632573851325899274
20559304 39 18336548227061999022
20715895 44 18054228722754095881
21503847 285 18413393133397728402
21665062 11 18408323255132905660
21864079 5 18201441414877196509
22854114 111 18335982060009105454
23503953 91 18341325617864261515
23557571 272 13973381609288411335
23558518 356 17975694206095410390
23559900 14 17987812803907327807
2838139 119 16269652356582062440
474 4 18116713108901930140
49207404 50 18043258035516494914
5104073 3 18408608080363482035
633830 44 18341613775873109326
7097593 13 18262510373522169483
7364860 26 18411983542311394974

> <PUBCHEM_SHAPE_MULTIPOLES>
362.55
9.86
2.92
0.95
7.62
1.24
0.01
3.76
-3.12
-2.22
-0.37
-0.25
-0.02
-0.91

> <PUBCHEM_SHAPE_SELFOVERLAP>
746.949

> <PUBCHEM_SHAPE_VOLUME>
206.5

> <PUBCHEM_COORDINATE_TYPE>
2
5
10

$$$$
