51138037
  -OEChem-12032416323D

 72 76  0     1  0  0  0  0  0999 V2000
    2.2796    1.9681    0.3746 O   0  0  0  0  0  0  0  0  0  0  0  0
    9.0926    1.4461    1.0604 O   0  0  0  0  0  0  0  0  0  0  0  0
    0.7313   -0.6908    0.2367 N   0  0  0  0  0  0  0  0  0  0  0  0
   -3.8839    0.9379   -1.0085 N   0  0  0  0  0  0  0  0  0  0  0  0
    3.1025    0.5421   -1.2714 N   0  0  0  0  0  0  0  0  0  0  0  0
    6.6879    0.6868   -0.2596 N   0  0  0  0  0  0  0  0  0  0  0  0
   -7.7721    1.2267    2.2094 N   0  0  0  0  0  0  0  0  0  0  0  0
    0.0191   -1.8681   -0.2778 C   0  0  2  0  0  0  0  0  0  0  0  0
    0.7845    0.4373   -0.6821 C   0  0  1  0  0  0  0  0  0  0  0  0
   -1.4753   -1.6774   -0.5565 C   0  0  0  0  0  0  0  0  0  0  0  0
   -2.1322   -0.4194   -0.6834 C   0  0  0  0  0  0  0  0  0  0  0  0
   -0.3115    1.4579   -0.3813 C   0  0  0  0  0  0  0  0  0  0  0  0
   -1.6936    0.9486   -0.6193 C   0  0  0  0  0  0  0  0  0  0  0  0
    0.2895   -2.9715    0.7610 C   0  0  0  0  0  0  0  0  0  0  0  0
   -3.5050   -0.3826   -0.9534 C   0  0  0  0  0  0  0  0  0  0  0  0
    1.6966   -3.5664    0.6494 C   0  0  0  0  0  0  0  0  0  0  0  0
   -2.8031    1.7461   -0.8151 C   0  0  0  0  0  0  0  0  0  0  0  0
   -2.2747   -2.8262   -0.7862 C   0  0  0  0  0  0  0  0  0  0  0  0
    2.1221    1.0708   -0.4492 C   0  0  0  0  0  0  0  0  0  0  0  0
   -4.2848   -1.5269   -1.1301 C   0  0  0  0  0  0  0  0  0  0  0  0
   -5.2262    1.4196   -1.2553 C   0  0  0  0  0  0  0  0  0  0  0  0
   -3.6403   -2.7548   -1.0545 C   0  0  0  0  0  0  0  0  0  0  0  0
    2.7955   -2.5221    0.8509 C   0  0  0  0  0  0  0  0  0  0  0  0
    1.8536   -4.6877    1.6792 C   0  0  0  0  0  0  0  0  0  0  0  0
    4.4742    0.9968   -1.2594 C   0  0  0  0  0  0  0  0  0  0  0  0
    5.3083    0.2049   -0.2630 C   0  0  0  0  0  0  0  0  0  0  0  0
   -6.1186    1.3517   -0.0410 C   0  0  0  0  0  0  0  0  0  0  0  0
    7.5882   -0.3126    0.3321 C   0  0  0  0  0  0  0  0  0  0  0  0
    6.7952    1.9568    0.4720 C   0  0  0  0  0  0  0  0  0  0  0  0
    9.0194    0.2173    0.3364 C   0  0  0  0  0  0  0  0  0  0  0  0
    8.2449    2.4332    0.4719 C   0  0  0  0  0  0  0  0  0  0  0  0
   -7.3111    0.6383   -0.0898 C   0  0  0  0  0  0  0  0  0  0  0  0
   -5.7518    2.0025    1.1318 C   0  0  0  0  0  0  0  0  0  0  0  0
   -8.0953    0.6069    1.0521 C   0  0  0  0  0  0  0  0  0  0  0  0
   -6.6057    1.9101    2.2191 C   0  0  0  0  0  0  0  0  0  0  0  0
    0.4716   -2.1703   -1.2323 H   0  0  0  0  0  0  0  0  0  0  0  0
    0.7205    0.1166   -1.7306 H   0  0  0  0  0  0  0  0  0  0  0  0
   -0.2526    1.8038    0.6603 H   0  0  0  0  0  0  0  0  0  0  0  0
   -0.1502    2.3486   -1.0044 H   0  0  0  0  0  0  0  0  0  0  0  0
    0.1130   -2.5928    1.7788 H   0  0  0  0  0  0  0  0  0  0  0  0
   -0.4072   -3.8086    0.6601 H   0  0  0  0  0  0  0  0  0  0  0  0
    0.3620   -0.4099    1.1443 H   0  0  0  0  0  0  0  0  0  0  0  0
    1.8216   -4.0107   -0.3463 H   0  0  0  0  0  0  0  0  0  0  0  0
   -2.8974    2.8241   -0.8336 H   0  0  0  0  0  0  0  0  0  0  0  0
   -1.8288   -3.8181   -0.7925 H   0  0  0  0  0  0  0  0  0  0  0  0
   -5.3462   -1.4767   -1.3453 H   0  0  0  0  0  0  0  0  0  0  0  0
   -5.6356    0.8424   -2.0930 H   0  0  0  0  0  0  0  0  0  0  0  0
   -5.1634    2.4599   -1.5985 H   0  0  0  0  0  0  0  0  0  0  0  0
   -4.2047   -3.6691   -1.2177 H   0  0  0  0  0  0  0  0  0  0  0  0
    3.7656   -3.0139    0.9915 H   0  0  0  0  0  0  0  0  0  0  0  0
    2.6200   -1.9010    1.7351 H   0  0  0  0  0  0  0  0  0  0  0  0
    2.9129   -1.8942   -0.0334 H   0  0  0  0  0  0  0  0  0  0  0  0
    1.0959   -5.4646    1.5313 H   0  0  0  0  0  0  0  0  0  0  0  0
    2.8358   -5.1640    1.5899 H   0  0  0  0  0  0  0  0  0  0  0  0
    1.7546   -4.3063    2.7014 H   0  0  0  0  0  0  0  0  0  0  0  0
    2.8659   -0.2123   -1.9091 H   0  0  0  0  0  0  0  0  0  0  0  0
    4.4642    2.0670   -1.0337 H   0  0  0  0  0  0  0  0  0  0  0  0
    4.8627    0.8702   -2.2761 H   0  0  0  0  0  0  0  0  0  0  0  0
    5.2804   -0.8472   -0.5777 H   0  0  0  0  0  0  0  0  0  0  0  0
    4.8640    0.2347    0.7407 H   0  0  0  0  0  0  0  0  0  0  0  0
    7.5594   -1.2434   -0.2460 H   0  0  0  0  0  0  0  0  0  0  0  0
    7.2786   -0.5402    1.3605 H   0  0  0  0  0  0  0  0  0  0  0  0
    6.4569    1.8291    1.5087 H   0  0  0  0  0  0  0  0  0  0  0  0
    6.1871    2.7415    0.0125 H   0  0  0  0  0  0  0  0  0  0  0  0
    9.3978    0.3692   -0.6818 H   0  0  0  0  0  0  0  0  0  0  0  0
    9.6810   -0.5005    0.8318 H   0  0  0  0  0  0  0  0  0  0  0  0
    8.5965    2.6610   -0.5418 H   0  0  0  0  0  0  0  0  0  0  0  0
    8.3370    3.3472    1.0673 H   0  0  0  0  0  0  0  0  0  0  0  0
   -7.6294    0.1188   -0.9870 H   0  0  0  0  0  0  0  0  0  0  0  0
   -4.8359    2.5775    1.2095 H   0  0  0  0  0  0  0  0  0  0  0  0
   -9.0348    0.0643    1.0658 H   0  0  0  0  0  0  0  0  0  0  0  0
   -6.3666    2.4017    3.1563 H   0  0  0  0  0  0  0  0  0  0  0  0
  1 19  2  0  0  0  0
  2 30  1  0  0  0  0
  2 31  1  0  0  0  0
  3  8  1  0  0  0  0
  3  9  1  0  0  0  0
  3 42  1  0  0  0  0
  4 15  1  0  0  0  0
  4 17  1  0  0  0  0
  4 21  1  0  0  0  0
  5 19  1  0  0  0  0
  5 25  1  0  0  0  0
  5 56  1  0  0  0  0
  6 26  1  0  0  0  0
  6 28  1  0  0  0  0
  6 29  1  0  0  0  0
  7 34  2  0  0  0  0
  7 35  1  0  0  0  0
  8 10  1  0  0  0  0
  8 14  1  0  0  0  0
  8 36  1  0  0  0  0
  9 12  1  0  0  0  0
  9 19  1  0  0  0  0
  9 37  1  0  0  0  0
 10 11  2  0  0  0  0
 10 18  1  0  0  0  0
 11 13  1  0  0  0  0
 11 15  1  0  0  0  0
 12 13  1  0  0  0  0
 12 38  1  0  0  0  0
 12 39  1  0  0  0  0
 13 17  2  0  0  0  0
 14 16  1  0  0  0  0
 14 40  1  0  0  0  0
 14 41  1  0  0  0  0
 15 20  2  0  0  0  0
 16 23  1  0  0  0  0
 16 24  1  0  0  0  0
 16 43  1  0  0  0  0
 17 44  1  0  0  0  0
 18 22  2  0  0  0  0
 18 45  1  0  0  0  0
 20 22  1  0  0  0  0
 20 46  1  0  0  0  0
 21 27  1  0  0  0  0
 21 47  1  0  0  0  0
 21 48  1  0  0  0  0
 22 49  1  0  0  0  0
 23 50  1  0  0  0  0
 23 51  1  0  0  0  0
 23 52  1  0  0  0  0
 24 53  1  0  0  0  0
 24 54  1  0  0  0  0
 24 55  1  0  0  0  0
 25 26  1  0  0  0  0
 25 57  1  0  0  0  0
 25 58  1  0  0  0  0
 26 59  1  0  0  0  0
 26 60  1  0  0  0  0
 27 32  2  0  0  0  0
 27 33  1  0  0  0  0
 28 30  1  0  0  0  0
 28 61  1  0  0  0  0
 28 62  1  0  0  0  0
 29 31  1  0  0  0  0
 29 63  1  0  0  0  0
 29 64  1  0  0  0  0
 30 65  1  0  0  0  0
 30 66  1  0  0  0  0
 31 67  1  0  0  0  0
 31 68  1  0  0  0  0
 32 34  1  0  0  0  0
 32 69  1  0  0  0  0
 33 35  2  0  0  0  0
 33 70  1  0  0  0  0
 34 71  1  0  0  0  0
 35 72  1  0  0  0  0
M  END
> <PUBCHEM_COMPOUND_CID>
51138037

> <PUBCHEM_CONFORMER_RMSD>
1.4

> <PUBCHEM_CONFORMER_DIVERSEORDER>
1
75
8
36
29
79
59
69
93
86
45
30
57
61
53
70
44
89
3
95
63
41
32
11
76
84
65
52
2
68
34
6
22
77
37
21
10
92
31
26
80
90
62
55
20
16
91
58
18
43
78
40
12
49
24
71
39
14
60
35
88
38
5
87
48
33
56
9
47
85
25
51
19
28
17
64
54
67
42
83
27
73
46
7
94
81
4
66
23
72
82
74
13
50
15

> <PUBCHEM_MMFF94_PARTIAL_CHARGES>
40
1 -0.57
10 -0.14
12 0.18
13 -0.18
15 -0.15
17 -0.3
18 -0.15
19 0.57
2 -0.56
20 -0.15
21 0.4
22 -0.15
25 0.3
26 0.27
27 -0.14
28 0.27
29 0.27
3 -0.9
30 0.28
31 0.28
32 -0.15
33 -0.15
34 0.16
35 0.16
4 0.05
42 0.36
44 0.15
45 0.15
46 0.15
49 0.15
5 -0.73
56 0.37
6 -0.81
69 0.15
7 -0.62
70 0.15
71 0.15
72 0.15
8 0.41
9 0.33

> <PUBCHEM_EFFECTIVE_ROTOR_COUNT>
11

> <PUBCHEM_PHARMACOPHORE_FEATURES>
14
1 1 acceptor
1 2 acceptor
1 3 cation
1 3 donor
1 4 cation
1 5 donor
1 6 cation
1 7 acceptor
3 16 23 24 hydrophobe
5 4 11 13 15 17 rings
6 10 11 15 18 20 22 rings
6 2 6 28 29 30 31 rings
6 7 27 32 33 34 35 rings
7 3 8 9 10 11 12 13 rings

> <PUBCHEM_HEAVY_ATOM_COUNT>
35

> <PUBCHEM_ATOM_DEF_STEREO_COUNT>
2

> <PUBCHEM_ATOM_UDEF_STEREO_COUNT>
0

> <PUBCHEM_BOND_DEF_STEREO_COUNT>
0

> <PUBCHEM_BOND_UDEF_STEREO_COUNT>
0

> <PUBCHEM_ISOTOPIC_ATOM_COUNT>
0

> <PUBCHEM_COMPONENT_COUNT>
1

> <PUBCHEM_CACTVS_TAUTO_COUNT>
2

> <PUBCHEM_CONFORMER_ID>
030C4DF500000001

> <PUBCHEM_MMFF94_ENERGY>
76.6264

> <PUBCHEM_FEATURE_SELFOVERLAP>
71.178

> <PUBCHEM_SHAPE_FINGERPRINT>
10076449 9 13830132793726425577
11135926 11 18260539022340498791
11411753 29 15194707057002266015
14028597 1 18201443510631671201
14040222 383 18341607174176403563
14394314 77 18409445895281305700
14849402 71 18343584040670797081
15064986 266 18189904283250272746
15297060 5 18411412926020594746
16126227 98 18342741819000228627
16728433 281 15050346505934005465
16991971 28 9655574132511830608
16993089 31 15213294180398818114
16994733 274 17346600742381416664
19315958 150 18408322190930478252
21033650 10 16271927078757258363
21756936 100 17917994967412191429
21781055 127 18266199283232605468
21792965 39 18341625788807972174
23559900 14 18199455731464635148
23576562 1 11239410698022131689
25147074 1 18341884179004944743
3178227 256 18333740117014171240
4093350 32 17417533510497029662
4339292 15 7925640969027113204
44280117 145 17701530938527560542
4516262 110 18336538357306170495
5385378 56 18335421223369926554
5758199 1 18411702084250627216

> <PUBCHEM_SHAPE_MULTIPOLES>
683.64
24.95
3.97
1.47
28.14
5.15
-0.54
-21.24
-9.94
1.49
-1.49
-2.25
-0.07
-2.33

> <PUBCHEM_SHAPE_SELFOVERLAP>
1460.703

> <PUBCHEM_SHAPE_VOLUME>
377.3

> <PUBCHEM_COORDINATE_TYPE>
2
5
10

$$$$
