45783676
  -OEChem-12032416263D

 55 59  0     1  0  0  0  0  0999 V2000
   -2.4408   -1.8284    1.9080 O   0  0  0  0  0  0  0  0  0  0  0  0
    1.6615    3.2763   -1.2705 O   0  0  0  0  0  0  0  0  0  0  0  0
   -4.3480   -0.4326   -0.9061 N   0  0  1  0  0  0  0  0  0  0  0  0
   -1.6004   -1.2675   -0.0910 N   0  0  0  0  0  0  0  0  0  0  0  0
   -1.0476   -1.8482    2.0518 N   0  0  0  0  0  0  0  0  0  0  0  0
    0.4617    3.4144    0.7542 N   0  0  0  0  0  0  0  0  0  0  0  0
    3.0758   -1.5550    1.2032 N   0  0  0  0  0  0  0  0  0  0  0  0
    4.7863   -1.1086   -0.3377 N   0  0  0  0  0  0  0  0  0  0  0  0
    6.9855   -1.1587   -0.0334 N   0  0  0  0  0  0  0  0  0  0  0  0
   -4.1344   -1.3837    0.2030 C   0  0  1  0  0  0  0  0  0  0  0  0
   -4.6922   -2.7217   -0.3162 C   0  0  0  0  0  0  0  0  0  0  0  0
   -5.2516   -2.4104   -1.6972 C   0  0  0  0  0  0  0  0  0  0  0  0
   -5.5112   -0.9183   -1.6488 C   0  0  0  0  0  0  0  0  0  0  0  0
   -4.5191    0.9434   -0.4579 C   0  0  0  0  0  0  0  0  0  0  0  0
   -2.6809   -1.4778    0.6174 C   0  0  0  0  0  0  0  0  0  0  0  0
   -3.2010    1.5967   -0.1373 C   0  0  0  0  0  0  0  0  0  0  0  0
   -2.9663    2.1020    1.1415 C   0  0  0  0  0  0  0  0  0  0  0  0
   -2.2149    1.6971   -1.1186 C   0  0  0  0  0  0  0  0  0  0  0  0
   -0.6236   -1.5068    0.8313 C   0  0  0  0  0  0  0  0  0  0  0  0
   -1.7456    2.7077    1.4388 C   0  0  0  0  0  0  0  0  0  0  0  0
   -0.9941    2.3029   -0.8215 C   0  0  0  0  0  0  0  0  0  0  0  0
   -0.7596    2.8083    0.4574 C   0  0  0  0  0  0  0  0  0  0  0  0
    0.7680   -1.3975    0.5005 C   0  0  0  0  0  0  0  0  0  0  0  0
    1.1746   -1.0413   -0.7806 C   0  0  0  0  0  0  0  0  0  0  0  0
    1.7489   -1.6417    1.4479 C   0  0  0  0  0  0  0  0  0  0  0  0
    2.5308   -0.9418   -1.0709 C   0  0  0  0  0  0  0  0  0  0  0  0
    3.4331   -1.2064   -0.0531 C   0  0  0  0  0  0  0  0  0  0  0  0
    1.5612    3.6052   -0.0930 C   0  0  0  0  0  0  0  0  0  0  0  0
    2.6957    4.3053    0.6124 C   0  0  0  0  0  0  0  0  0  0  0  0
    5.3384   -0.7716   -1.5414 C   0  0  0  0  0  0  0  0  0  0  0  0
    5.8136   -1.3319    0.5363 C   0  0  0  0  0  0  0  0  0  0  0  0
    6.6962   -0.8093   -1.3288 C   0  0  0  0  0  0  0  0  0  0  0  0
   -4.7276   -1.0957    1.0824 H   0  0  0  0  0  0  0  0  0  0  0  0
   -5.5031   -3.0622    0.3394 H   0  0  0  0  0  0  0  0  0  0  0  0
   -3.9456   -3.5215   -0.3701 H   0  0  0  0  0  0  0  0  0  0  0  0
   -6.1549   -2.9868   -1.9173 H   0  0  0  0  0  0  0  0  0  0  0  0
   -4.5024   -2.6439   -2.4639 H   0  0  0  0  0  0  0  0  0  0  0  0
   -5.5687   -0.4874   -2.6531 H   0  0  0  0  0  0  0  0  0  0  0  0
   -6.4489   -0.7123   -1.1171 H   0  0  0  0  0  0  0  0  0  0  0  0
   -5.2190    1.0124    0.3852 H   0  0  0  0  0  0  0  0  0  0  0  0
   -4.9674    1.5443   -1.2618 H   0  0  0  0  0  0  0  0  0  0  0  0
   -3.7246    2.0288    1.9164 H   0  0  0  0  0  0  0  0  0  0  0  0
   -2.3856    1.3115   -2.1205 H   0  0  0  0  0  0  0  0  0  0  0  0
   -1.5760    3.0962    2.4398 H   0  0  0  0  0  0  0  0  0  0  0  0
   -0.2802    2.3426   -1.6322 H   0  0  0  0  0  0  0  0  0  0  0  0
    0.4569   -0.8350   -1.5704 H   0  0  0  0  0  0  0  0  0  0  0  0
    1.5156   -1.9240    2.4703 H   0  0  0  0  0  0  0  0  0  0  0  0
    0.5559    3.7568    1.7082 H   0  0  0  0  0  0  0  0  0  0  0  0
    2.7980   -0.6607   -2.0814 H   0  0  0  0  0  0  0  0  0  0  0  0
    3.5413    4.4221   -0.0710 H   0  0  0  0  0  0  0  0  0  0  0  0
    2.3693    5.2939    0.9469 H   0  0  0  0  0  0  0  0  0  0  0  0
    3.0164    3.7144    1.4751 H   0  0  0  0  0  0  0  0  0  0  0  0
    4.7901   -0.5341   -2.4409 H   0  0  0  0  0  0  0  0  0  0  0  0
    5.6668   -1.6164    1.5702 H   0  0  0  0  0  0  0  0  0  0  0  0
    7.4804   -0.6026   -2.0424 H   0  0  0  0  0  0  0  0  0  0  0  0
  1  5  1  0  0  0  0
  1 15  1  0  0  0  0
  2 28  2  0  0  0  0
  3 10  1  0  0  0  0
  3 13  1  0  0  0  0
  3 14  1  0  0  0  0
  4 15  2  0  0  0  0
  4 19  1  0  0  0  0
  5 19  2  0  0  0  0
  6 22  1  0  0  0  0
  6 28  1  0  0  0  0
  6 48  1  0  0  0  0
  7 25  1  0  0  0  0
  7 27  2  0  0  0  0
  8 27  1  0  0  0  0
  8 30  1  0  0  0  0
  8 31  1  0  0  0  0
  9 31  2  0  0  0  0
  9 32  1  0  0  0  0
 10 11  1  0  0  0  0
 10 15  1  0  0  0  0
 10 33  1  0  0  0  0
 11 12  1  0  0  0  0
 11 34  1  0  0  0  0
 11 35  1  0  0  0  0
 12 13  1  0  0  0  0
 12 36  1  0  0  0  0
 12 37  1  0  0  0  0
 13 38  1  0  0  0  0
 13 39  1  0  0  0  0
 14 16  1  0  0  0  0
 14 40  1  0  0  0  0
 14 41  1  0  0  0  0
 16 17  2  0  0  0  0
 16 18  1  0  0  0  0
 17 20  1  0  0  0  0
 17 42  1  0  0  0  0
 18 21  2  0  0  0  0
 18 43  1  0  0  0  0
 19 23  1  0  0  0  0
 20 22  2  0  0  0  0
 20 44  1  0  0  0  0
 21 22  1  0  0  0  0
 21 45  1  0  0  0  0
 23 24  1  0  0  0  0
 23 25  2  0  0  0  0
 24 26  2  0  0  0  0
 24 46  1  0  0  0  0
 25 47  1  0  0  0  0
 26 27  1  0  0  0  0
 26 49  1  0  0  0  0
 28 29  1  0  0  0  0
 29 50  1  0  0  0  0
 29 51  1  0  0  0  0
 29 52  1  0  0  0  0
 30 32  2  0  0  0  0
 30 53  1  0  0  0  0
 31 54  1  0  0  0  0
 32 55  1  0  0  0  0
M  END
> <PUBCHEM_COMPOUND_CID>
45783676

> <PUBCHEM_CONFORMER_RMSD>
1

> <PUBCHEM_CONFORMER_DIVERSEORDER>
1
33
53
74
78
93
12
71
8
36
88
87
56
79
84
20
85
59
64
57
26
98
7
61
72
95
32
97
39
23
81
16
22
80
2
67
42
54
86
51
4
9
75
62
37
77
94
19
73
89
24
83
3
65
52
45
6
35
82
28
70
92
34
58
55
31
14
69
76
41
47
10
63
44
50
60
40
68
30
49
25
27
46
48
21
18
38
43
90
91
17
66
5
96
15
13
11
29

> <PUBCHEM_MMFF94_PARTIAL_CHARGES>
41
1 -0.02
10 0.45
13 0.27
14 0.41
15 0.3
16 -0.14
17 -0.15
18 -0.15
19 0.46
2 -0.57
20 -0.15
21 -0.15
22 0.12
23 0.05
24 -0.15
25 0.16
26 -0.15
27 0.29
28 0.57
29 0.06
3 -0.81
30 -0.3
31 0.04
32 0.08
4 -0.57
42 0.15
43 0.15
44 0.15
45 0.15
46 0.15
47 0.15
48 0.37
49 0.15
5 -0.41
53 0.15
54 0.15
55 0.15
6 -0.55
7 -0.62
8 0.33
9 -0.57

> <PUBCHEM_EFFECTIVE_ROTOR_COUNT>
8

> <PUBCHEM_PHARMACOPHORE_FEATURES>
11
1 2 acceptor
1 3 cation
1 6 donor
3 4 5 19 cation
3 7 8 27 cation
3 8 9 31 cation
5 1 4 5 15 19 rings
5 3 10 11 12 13 rings
5 8 9 30 31 32 rings
6 16 17 18 20 21 22 rings
6 7 23 24 25 26 27 rings

> <PUBCHEM_HEAVY_ATOM_COUNT>
32

> <PUBCHEM_ATOM_DEF_STEREO_COUNT>
1

> <PUBCHEM_ATOM_UDEF_STEREO_COUNT>
0

> <PUBCHEM_BOND_DEF_STEREO_COUNT>
0

> <PUBCHEM_BOND_UDEF_STEREO_COUNT>
0

> <PUBCHEM_ISOTOPIC_ATOM_COUNT>
0

> <PUBCHEM_COMPONENT_COUNT>
1

> <PUBCHEM_CACTVS_TAUTO_COUNT>
2

> <PUBCHEM_CONFORMER_ID>
02BA9A7C00000001

> <PUBCHEM_MMFF94_ENERGY>
70.0879

> <PUBCHEM_FEATURE_SELFOVERLAP>
55.942

> <PUBCHEM_SHAPE_FINGERPRINT>
10032420 55 17895461536392480805
1100329 8 18339365167605759721
12107698 1 18342174483542410910
12156800 1 14422859617302091029
12166972 35 17967819378872408574
12645989 146 18342742884558995454
12788726 201 18261668169153102138
13761468 95 17757841026257714486
14068700 675 18342452655657641796
14931854 50 18187076213956469911
15264996 44 18129667547133768868
15876981 60 18410300185386833245
15968369 153 18059565924247167808
16067689 302 18050007989377349623
17492 54 18115298965577205593
18336668 15 18041007215219396244
20609170 92 18187918551812649284
20642791 35 18335405869389078189
20721686 56 18338516452076866160
20764821 26 18336562572337534096
20775438 99 17405962525136818319
21033648 29 17489292054494094682
21344244 246 17981033434591318407
22899556 105 17911523413406180759
23559900 14 17969221303442450125
3298306 158 17905321085224557349
373842 8 18339077203149846632
392239 28 18337678499530697456
4017518 198 16904661135811199329
4280585 95 18337381669418064936
5171179 24 18341327893954491176
531348 171 18057047908663412390
7471813 234 18341611567906607903

> <PUBCHEM_SHAPE_MULTIPOLES>
611.94
13.32
4.66
1.62
14.05
5.95
0.13
-10.13
-5.68
-0.34
0.62
-0.43
-0.5
-0.65

> <PUBCHEM_SHAPE_SELFOVERLAP>
1344.085

> <PUBCHEM_SHAPE_VOLUME>
332.8

> <PUBCHEM_COORDINATE_TYPE>
2
5
10

$$$$
