71693214
  -OEChem-12032416303D

 63 66  0     1  0  0  0  0  0999 V2000
    6.1217   -0.5959   -0.7308 Cl  0  0  0  0  0  0  0  0  0  0  0  0
    1.8695    5.0410   -0.6402 O   0  0  0  0  0  0  0  0  0  0  0  0
   -1.2937    2.5050    0.4503 N   0  0  0  0  0  0  0  0  0  0  0  0
    1.2645   -2.3798   -1.4425 N   0  0  0  0  0  0  0  0  0  0  0  0
    0.7340   -2.4339    0.7151 N   0  0  0  0  0  0  0  0  0  0  0  0
   -2.8663    0.2281   -0.5025 C   0  0  1  0  0  0  0  0  0  0  0  0
   -2.4635    0.4117    0.9793 C   0  0  2  0  0  0  0  0  0  0  0  0
   -2.0412   -0.8934   -1.1491 C   0  0  0  0  0  0  0  0  0  0  0  0
   -2.1627   -2.2447   -0.4126 C   0  0  2  0  0  0  0  0  0  0  0  0
   -4.3711   -0.0378   -0.6444 C   0  0  0  0  0  0  0  0  0  0  0  0
   -2.1838   -2.0980    1.1013 C   0  0  0  0  0  0  0  0  0  0  0  0
   -1.1698    1.2207    1.1180 C   0  0  0  0  0  0  0  0  0  0  0  0
   -2.3073   -0.9009    1.7038 C   0  0  0  0  0  0  0  0  0  0  0  0
   -1.0463   -3.1734   -0.9062 C   0  0  0  0  0  0  0  0  0  0  0  0
   -4.6786   -0.6381   -2.0124 C   0  0  0  0  0  0  0  0  0  0  0  0
   -5.1614    1.2488   -0.4282 C   0  0  0  0  0  0  0  0  0  0  0  0
   -0.0609    3.2800    0.5684 C   0  0  0  0  0  0  0  0  0  0  0  0
   -2.1208   -3.3567    1.9223 C   0  0  0  0  0  0  0  0  0  0  0  0
   -0.3277    4.7746    0.3639 C   0  0  0  0  0  0  0  0  0  0  0  0
    0.9760    2.7892   -0.4459 C   0  0  0  0  0  0  0  0  0  0  0  0
    0.3087   -2.6630   -0.5071 C   0  0  0  0  0  0  0  0  0  0  0  0
    0.9845    5.5510    0.3573 C   0  0  0  0  0  0  0  0  0  0  0  0
    2.2160    3.6757   -0.4077 C   0  0  0  0  0  0  0  0  0  0  0  0
    2.3810   -1.9385   -0.7800 C   0  0  0  0  0  0  0  0  0  0  0  0
    2.0248   -1.9814    0.5650 C   0  0  0  0  0  0  0  0  0  0  0  0
    3.6337   -1.5181   -1.2280 C   0  0  0  0  0  0  0  0  0  0  0  0
    2.9614   -1.5853    1.5346 C   0  0  0  0  0  0  0  0  0  0  0  0
    4.5537   -1.1273   -0.2495 C   0  0  0  0  0  0  0  0  0  0  0  0
    4.2257   -1.1597    1.1078 C   0  0  0  0  0  0  0  0  0  0  0  0
   -2.6517    1.1385   -1.0763 H   0  0  0  0  0  0  0  0  0  0  0  0
   -3.2484    0.9671    1.5059 H   0  0  0  0  0  0  0  0  0  0  0  0
   -0.9992   -0.5496   -1.1387 H   0  0  0  0  0  0  0  0  0  0  0  0
   -2.2513   -1.0183   -2.2170 H   0  0  0  0  0  0  0  0  0  0  0  0
   -3.1139   -2.7155   -0.6885 H   0  0  0  0  0  0  0  0  0  0  0  0
   -4.7071   -0.7606    0.1096 H   0  0  0  0  0  0  0  0  0  0  0  0
   -0.9592    1.3749    2.1851 H   0  0  0  0  0  0  0  0  0  0  0  0
   -0.3324    0.6430    0.7117 H   0  0  0  0  0  0  0  0  0  0  0  0
   -2.3175   -0.8483    2.7904 H   0  0  0  0  0  0  0  0  0  0  0  0
   -1.1064   -3.2716   -1.9979 H   0  0  0  0  0  0  0  0  0  0  0  0
   -1.1723   -4.1864   -0.5059 H   0  0  0  0  0  0  0  0  0  0  0  0
   -2.0669    3.0218    0.8693 H   0  0  0  0  0  0  0  0  0  0  0  0
   -4.2600   -0.0328   -2.8243 H   0  0  0  0  0  0  0  0  0  0  0  0
   -5.7638   -0.6678   -2.1701 H   0  0  0  0  0  0  0  0  0  0  0  0
   -4.3425   -1.6709   -2.1254 H   0  0  0  0  0  0  0  0  0  0  0  0
   -4.8718    2.0211   -1.1494 H   0  0  0  0  0  0  0  0  0  0  0  0
   -5.0273    1.6578    0.5765 H   0  0  0  0  0  0  0  0  0  0  0  0
   -6.2343    1.0658   -0.5556 H   0  0  0  0  0  0  0  0  0  0  0  0
    0.3518    3.1705    1.5814 H   0  0  0  0  0  0  0  0  0  0  0  0
   -2.8881   -4.0622    1.5861 H   0  0  0  0  0  0  0  0  0  0  0  0
   -2.3067   -3.1622    2.9844 H   0  0  0  0  0  0  0  0  0  0  0  0
   -1.1463   -3.8454    1.8506 H   0  0  0  0  0  0  0  0  0  0  0  0
   -0.9878    5.1638    1.1476 H   0  0  0  0  0  0  0  0  0  0  0  0
   -0.8327    4.9256   -0.5993 H   0  0  0  0  0  0  0  0  0  0  0  0
    0.5450    2.8277   -1.4551 H   0  0  0  0  0  0  0  0  0  0  0  0
    1.2762    1.7535   -0.2556 H   0  0  0  0  0  0  0  0  0  0  0  0
    0.7925    6.6034    0.1255 H   0  0  0  0  0  0  0  0  0  0  0  0
    1.4768    5.5121    1.3362 H   0  0  0  0  0  0  0  0  0  0  0  0
    2.7389    3.5897    0.5520 H   0  0  0  0  0  0  0  0  0  0  0  0
    2.9149    3.3711   -1.1932 H   0  0  0  0  0  0  0  0  0  0  0  0
    1.1685   -2.4757   -2.4448 H   0  0  0  0  0  0  0  0  0  0  0  0
    3.8739   -1.4982   -2.2857 H   0  0  0  0  0  0  0  0  0  0  0  0
    2.7155   -1.6063    2.5914 H   0  0  0  0  0  0  0  0  0  0  0  0
    4.9518   -0.8523    1.8574 H   0  0  0  0  0  0  0  0  0  0  0  0
  1 28  1  0  0  0  0
  2 22  1  0  0  0  0
  2 23  1  0  0  0  0
  3 12  1  0  0  0  0
  3 17  1  0  0  0  0
  3 41  1  0  0  0  0
  4 21  1  0  0  0  0
  4 24  1  0  0  0  0
  4 60  1  0  0  0  0
  5 21  2  0  0  0  0
  5 25  1  0  0  0  0
  6  7  1  0  0  0  0
  6  8  1  0  0  0  0
  6 10  1  0  0  0  0
  6 30  1  0  0  0  0
  7 12  1  0  0  0  0
  7 13  1  0  0  0  0
  7 31  1  0  0  0  0
  8  9  1  0  0  0  0
  8 32  1  0  0  0  0
  8 33  1  0  0  0  0
  9 11  1  0  0  0  0
  9 14  1  0  0  0  0
  9 34  1  0  0  0  0
 10 15  1  0  0  0  0
 10 16  1  0  0  0  0
 10 35  1  0  0  0  0
 11 13  2  0  0  0  0
 11 18  1  0  0  0  0
 12 36  1  0  0  0  0
 12 37  1  0  0  0  0
 13 38  1  0  0  0  0
 14 21  1  0  0  0  0
 14 39  1  0  0  0  0
 14 40  1  0  0  0  0
 15 42  1  0  0  0  0
 15 43  1  0  0  0  0
 15 44  1  0  0  0  0
 16 45  1  0  0  0  0
 16 46  1  0  0  0  0
 16 47  1  0  0  0  0
 17 19  1  0  0  0  0
 17 20  1  0  0  0  0
 17 48  1  0  0  0  0
 18 49  1  0  0  0  0
 18 50  1  0  0  0  0
 18 51  1  0  0  0  0
 19 22  1  0  0  0  0
 19 52  1  0  0  0  0
 19 53  1  0  0  0  0
 20 23  1  0  0  0  0
 20 54  1  0  0  0  0
 20 55  1  0  0  0  0
 22 56  1  0  0  0  0
 22 57  1  0  0  0  0
 23 58  1  0  0  0  0
 23 59  1  0  0  0  0
 24 25  2  0  0  0  0
 24 26  1  0  0  0  0
 25 27  1  0  0  0  0
 26 28  2  0  0  0  0
 26 61  1  0  0  0  0
 27 29  2  0  0  0  0
 27 62  1  0  0  0  0
 28 29  1  0  0  0  0
 29 63  1  0  0  0  0
M  END
> <PUBCHEM_COMPOUND_CID>
71693214

> <PUBCHEM_CONFORMER_RMSD>
1

> <PUBCHEM_CONFORMER_DIVERSEORDER>
5
35
118
111
44
40
129
3
76
120
103
25
54
94
10
125
87
86
65
91
51
36
70
98
28
130
47
95
123
42
124
132
126
52
59
84
50
58
93
21
60
55
114
116
105
122
62
137
133
53
61
39
19
31
49
48
113
17
69
131
46
15
83
6
121
8
96
90
92
136
63
89
43
99
82
33
24
119
68
112
128
108
64
127
13
135
74
23
100
73
26
29
117
22
138
11
97
41
30
7
57
88
45
56
104
27
85
16
32
81
4
102
12
38
2
78
34
115
101
79
14
110
109
71
9
66
72
67
107
75
77
134
80
20
106
37
1
18

> <PUBCHEM_MMFF94_PARTIAL_CHARGES>
28
1 -0.18
11 -0.28
12 0.27
13 -0.29
14 0.18
17 0.27
18 0.14
2 -0.56
21 0.01
22 0.28
23 0.28
24 -0.15
25 0.23
26 -0.15
27 -0.15
28 0.18
29 -0.15
3 -0.9
38 0.15
4 0.03
41 0.36
5 -0.57
60 0.27
61 0.15
62 0.15
63 0.15
7 0.14
9 0.14

> <PUBCHEM_EFFECTIVE_ROTOR_COUNT>
8

> <PUBCHEM_PHARMACOPHORE_FEATURES>
10
1 2 acceptor
1 3 cation
1 3 donor
1 4 donor
3 10 15 16 hydrophobe
3 4 5 21 cation
5 4 5 21 24 25 rings
6 2 17 19 20 22 23 rings
6 24 25 26 27 28 29 rings
6 6 7 8 9 11 13 rings

> <PUBCHEM_HEAVY_ATOM_COUNT>
29

> <PUBCHEM_ATOM_DEF_STEREO_COUNT>
3

> <PUBCHEM_ATOM_UDEF_STEREO_COUNT>
0

> <PUBCHEM_BOND_DEF_STEREO_COUNT>
0

> <PUBCHEM_BOND_UDEF_STEREO_COUNT>
0

> <PUBCHEM_ISOTOPIC_ATOM_COUNT>
0

> <PUBCHEM_COMPONENT_COUNT>
1

> <PUBCHEM_CACTVS_TAUTO_COUNT>
3

> <PUBCHEM_CONFORMER_ID>
0445F39E00000005

> <PUBCHEM_MMFF94_ENERGY>
49.0789

> <PUBCHEM_FEATURE_SELFOVERLAP>
50.853

> <PUBCHEM_SHAPE_FINGERPRINT>
10006869 2 17400081869089582889
10498660 4 18197774393190578487
10670039 82 18195820578993873614
10871710 139 18196939863907222909
1100329 8 18410576218550347486
12156800 1 14784334308662581010
12553582 1 18266760016128034368
12788726 201 18192710042627689512
13122387 1 17545888122732857444
15439362 3 18337376254124311557
17492 54 18268128908716811879
17627616 140 17976264861510343484
18785283 64 18338525235374397521
21304303 64 18341054008880960905
22113638 7 18341323457189438277
23419403 2 18115605862850522027
3298306 158 17976822313119421396
463206 1 18409174333004835124
469060 322 18269561542065188603
5081480 168 17699887087355836470
6004065 56 18411408498046293493
6036956 94 18261969517482211332
6608658 132 18339923710642757862

> <PUBCHEM_SHAPE_MULTIPOLES>
577.86
8.85
6.87
1.59
4.52
12.71
0.18
-3.54
-2.69
2.3
0.56
-0.69
-1.12
0.05

> <PUBCHEM_SHAPE_SELFOVERLAP>
1212.593

> <PUBCHEM_SHAPE_VOLUME>
328.1

> <PUBCHEM_COORDINATE_TYPE>
2
5
10

$$$$
