40780655
  -OEChem-12032416283D

 60 62  0     1  0  0  0  0  0999 V2000
    4.5638    1.8715    0.3138 F   0  0  0  0  0  0  0  0  0  0  0  0
   -2.8696   -0.5913    0.4955 O   0  0  0  0  0  0  0  0  0  0  0  0
   -6.3601   -0.5345   -0.3487 O   0  0  0  0  0  0  0  0  0  0  0  0
   -5.2878   -1.9353    1.7623 O   0  0  0  0  0  0  0  0  0  0  0  0
   -3.7561    3.3837    0.0829 O   0  0  0  0  0  0  0  0  0  0  0  0
   -0.7338   -0.7074   -1.5546 O   0  0  0  0  0  0  0  0  0  0  0  0
   -0.9918   -2.6083   -0.2494 N   0  0  0  0  0  0  0  0  0  0  0  0
   -1.7186    2.2985   -0.1852 N   0  0  0  0  0  0  0  0  0  0  0  0
    5.3367   -1.5943    0.1839 N   0  0  0  0  0  0  0  0  0  0  0  0
   -5.0118   -0.9458   -0.4231 C   0  0  2  0  0  0  0  0  0  0  0  0
   -4.6919   -2.1199    0.4788 C   0  0  1  0  0  0  0  0  0  0  0  0
   -4.0621    0.1141    0.1086 C   0  0  2  0  0  0  0  0  0  0  0  0
   -3.1805   -1.9965    0.6365 C   0  0  1  0  0  0  0  0  0  0  0  0
   -3.7160    1.1807   -0.9149 C   0  0  0  0  0  0  0  0  0  0  0  0
   -2.4056   -2.7544   -0.4328 C   0  0  0  0  0  0  0  0  0  0  0  0
   -3.0973    2.4146   -0.2844 C   0  0  0  0  0  0  0  0  0  0  0  0
   -0.2570   -1.5802   -0.8340 C   0  0  0  0  0  0  0  0  0  0  0  0
   -0.8781    3.3312    0.3760 C   0  0  0  0  0  0  0  0  0  0  0  0
    1.2045   -1.5832   -0.5678 C   0  0  0  0  0  0  0  0  0  0  0  0
    0.5760    2.9413    0.3592 C   0  0  0  0  0  0  0  0  0  0  0  0
    2.0820   -1.0086   -1.4874 C   0  0  0  0  0  0  0  0  0  0  0  0
    1.6996   -2.1612    0.6012 C   0  0  0  0  0  0  0  0  0  0  0  0
    3.9493   -1.5905   -0.0692 C   0  0  0  0  0  0  0  0  0  0  0  0
    3.4544   -1.0123   -1.2382 C   0  0  0  0  0  0  0  0  0  0  0  0
    3.0719   -2.1649    0.8505 C   0  0  0  0  0  0  0  0  0  0  0  0
    1.1288    2.2639    1.4462 C   0  0  0  0  0  0  0  0  0  0  0  0
    1.3705    3.2572   -0.7428 C   0  0  0  0  0  0  0  0  0  0  0  0
    2.4759    1.9026    1.4311 C   0  0  0  0  0  0  0  0  0  0  0  0
    2.7177    2.8962   -0.7580 C   0  0  0  0  0  0  0  0  0  0  0  0
    3.2703    2.2189    0.3290 C   0  0  0  0  0  0  0  0  0  0  0  0
    6.2575   -0.9999   -0.7645 C   0  0  0  0  0  0  0  0  0  0  0  0
    5.8595   -2.1860    1.3995 C   0  0  0  0  0  0  0  0  0  0  0  0
   -4.7729   -1.1921   -1.4647 H   0  0  0  0  0  0  0  0  0  0  0  0
   -5.0359   -3.0797    0.0831 H   0  0  0  0  0  0  0  0  0  0  0  0
   -4.4751    0.5875    1.0090 H   0  0  0  0  0  0  0  0  0  0  0  0
   -2.8451   -2.3033    1.6342 H   0  0  0  0  0  0  0  0  0  0  0  0
   -4.6228    1.5198   -1.4309 H   0  0  0  0  0  0  0  0  0  0  0  0
   -3.0401    0.7867   -1.6827 H   0  0  0  0  0  0  0  0  0  0  0  0
   -2.6609   -2.3943   -1.4355 H   0  0  0  0  0  0  0  0  0  0  0  0
   -2.6331   -3.8243   -0.3839 H   0  0  0  0  0  0  0  0  0  0  0  0
   -6.9113   -1.2974   -0.5927 H   0  0  0  0  0  0  0  0  0  0  0  0
   -5.0256   -2.6907    2.3157 H   0  0  0  0  0  0  0  0  0  0  0  0
   -0.5269   -3.3299    0.2907 H   0  0  0  0  0  0  0  0  0  0  0  0
   -1.2754    1.4429   -0.5091 H   0  0  0  0  0  0  0  0  0  0  0  0
   -1.2166    3.5320    1.3996 H   0  0  0  0  0  0  0  0  0  0  0  0
   -1.0414    4.2549   -0.1918 H   0  0  0  0  0  0  0  0  0  0  0  0
    1.7155   -0.5557   -2.4049 H   0  0  0  0  0  0  0  0  0  0  0  0
    1.0485   -2.5899    1.3572 H   0  0  0  0  0  0  0  0  0  0  0  0
    4.0955   -0.5525   -1.9838 H   0  0  0  0  0  0  0  0  0  0  0  0
    3.4067   -2.6200    1.7774 H   0  0  0  0  0  0  0  0  0  0  0  0
    0.5191    2.0092    2.3090 H   0  0  0  0  0  0  0  0  0  0  0  0
    0.9507    3.7825   -1.5965 H   0  0  0  0  0  0  0  0  0  0  0  0
    2.9063    1.3728    2.2757 H   0  0  0  0  0  0  0  0  0  0  0  0
    3.3364    3.1403   -1.6164 H   0  0  0  0  0  0  0  0  0  0  0  0
    7.2962   -1.0808   -0.4253 H   0  0  0  0  0  0  0  0  0  0  0  0
    6.0566    0.0686   -0.8981 H   0  0  0  0  0  0  0  0  0  0  0  0
    6.2070   -1.5064   -1.7349 H   0  0  0  0  0  0  0  0  0  0  0  0
    6.9516   -2.1105    1.4492 H   0  0  0  0  0  0  0  0  0  0  0  0
    5.6188   -3.2535    1.4558 H   0  0  0  0  0  0  0  0  0  0  0  0
    5.4715   -1.6741    2.2871 H   0  0  0  0  0  0  0  0  0  0  0  0
  1 30  1  0  0  0  0
  2 12  1  0  0  0  0
  2 13  1  0  0  0  0
  3 10  1  0  0  0  0
  3 41  1  0  0  0  0
  4 11  1  0  0  0  0
  4 42  1  0  0  0  0
  5 16  2  0  0  0  0
  6 17  2  0  0  0  0
  7 15  1  0  0  0  0
  7 17  1  0  0  0  0
  7 43  1  0  0  0  0
  8 16  1  0  0  0  0
  8 18  1  0  0  0  0
  8 44  1  0  0  0  0
  9 23  1  0  0  0  0
  9 31  1  0  0  0  0
  9 32  1  0  0  0  0
 10 11  1  0  0  0  0
 10 12  1  0  0  0  0
 10 33  1  0  0  0  0
 11 13  1  0  0  0  0
 11 34  1  0  0  0  0
 12 14  1  0  0  0  0
 12 35  1  0  0  0  0
 13 15  1  0  0  0  0
 13 36  1  0  0  0  0
 14 16  1  0  0  0  0
 14 37  1  0  0  0  0
 14 38  1  0  0  0  0
 15 39  1  0  0  0  0
 15 40  1  0  0  0  0
 17 19  1  0  0  0  0
 18 20  1  0  0  0  0
 18 45  1  0  0  0  0
 18 46  1  0  0  0  0
 19 21  2  0  0  0  0
 19 22  1  0  0  0  0
 20 26  2  0  0  0  0
 20 27  1  0  0  0  0
 21 24  1  0  0  0  0
 21 47  1  0  0  0  0
 22 25  2  0  0  0  0
 22 48  1  0  0  0  0
 23 24  2  0  0  0  0
 23 25  1  0  0  0  0
 24 49  1  0  0  0  0
 25 50  1  0  0  0  0
 26 28  1  0  0  0  0
 26 51  1  0  0  0  0
 27 29  2  0  0  0  0
 27 52  1  0  0  0  0
 28 30  2  0  0  0  0
 28 53  1  0  0  0  0
 29 30  1  0  0  0  0
 29 54  1  0  0  0  0
 31 55  1  0  0  0  0
 31 56  1  0  0  0  0
 31 57  1  0  0  0  0
 32 58  1  0  0  0  0
 32 59  1  0  0  0  0
 32 60  1  0  0  0  0
M  END
> <PUBCHEM_COMPOUND_CID>
40780655

> <PUBCHEM_CONFORMER_RMSD>
1.2

> <PUBCHEM_CONFORMER_DIVERSEORDER>
1
40
52
73
37
7
132
78
110
53
25
103
105
27
72
32
118
87
24
140
141
5
97
57
93
90
81
80
88
82
123
74
142
94
83
115
79
108
22
75
43
65
136
17
77
143
99
95
44
113
12
134
69
8
42
139
109
84
48
127
122
67
144
120
116
111
98
114
46
117
89
68
91
31
19
86
129
54
26
2
21
33
137
135
125
55
121
64
76
100
11
59
56
85
34
38
112
62
20
130
145
92
131
126
66
71
138
49
13
10
45
47
133
102
106
29
18
63
23
124
9
104
50
35
51
101
14
16
61
128
58
96
41
119
107
36
60
4
3
39
6
30
15
28
70

> <PUBCHEM_MMFF94_PARTIAL_CHARGES>
44
1 -0.19
10 0.28
11 0.28
12 0.28
13 0.28
14 0.06
15 0.3
16 0.57
17 0.54
18 0.44
19 0.09
2 -0.56
20 -0.14
21 -0.15
22 -0.15
23 0.1
24 -0.15
25 -0.15
26 -0.15
27 -0.15
28 -0.15
29 -0.15
3 -0.68
30 0.19
31 0.37
32 0.37
4 -0.68
41 0.4
42 0.4
43 0.37
44 0.37
47 0.15
48 0.15
49 0.15
5 -0.57
50 0.15
51 0.15
52 0.15
53 0.15
54 0.15
6 -0.57
7 -0.73
8 -0.73
9 -0.84

> <PUBCHEM_EFFECTIVE_ROTOR_COUNT>
11

> <PUBCHEM_PHARMACOPHORE_FEATURES>
13
1 2 acceptor
1 3 acceptor
1 3 donor
1 4 acceptor
1 4 donor
1 5 acceptor
1 6 acceptor
1 7 donor
1 8 donor
1 9 cation
5 2 10 11 12 13 rings
6 19 21 22 23 24 25 rings
6 20 26 27 28 29 30 rings

> <PUBCHEM_HEAVY_ATOM_COUNT>
32

> <PUBCHEM_ATOM_DEF_STEREO_COUNT>
4

> <PUBCHEM_ATOM_UDEF_STEREO_COUNT>
0

> <PUBCHEM_BOND_DEF_STEREO_COUNT>
0

> <PUBCHEM_BOND_UDEF_STEREO_COUNT>
0

> <PUBCHEM_ISOTOPIC_ATOM_COUNT>
0

> <PUBCHEM_COMPONENT_COUNT>
1

> <PUBCHEM_CACTVS_TAUTO_COUNT>
4

> <PUBCHEM_CONFORMER_ID>
026E436F00000001

> <PUBCHEM_MMFF94_ENERGY>
88.8224

> <PUBCHEM_FEATURE_SELFOVERLAP>
65.985

> <PUBCHEM_SHAPE_FINGERPRINT>
1100329 8 18339642218196280692
11135609 12 18408046221063209033
11578080 2 17387106763875848573
12107698 1 18410852161746616595
12422481 6 18127100118641531648
12633257 1 18341624659525926377
12645989 146 18272932695829166574
13122387 1 18124598578752717581
13140716 1 18341897325345942825
13402501 40 18413106165031330181
14466204 15 18338233756696784898
14725015 67 18339070511278952329
15968369 153 18060125549674135000
18336668 15 18260553294822797940
20642791 178 18265064543333839452
20721686 56 18337951298409531067
20764821 26 18410016520145937197
20905425 154 18270971252936404820
21033648 29 17631149923354148362
23559900 14 18333726949039411511
3052486 1 18335974269476566066
329604 57 18408889520832611148
338550 245 18335985362792035652
350125 39 18410295817325951895
373842 8 18410284826821438280
392239 28 18411706456801381395
4280585 95 18189887626692301256
439807 62 18187369813725784665
463206 1 18198622327267006313
508706 21 18334846204679716557
5776283 40 17832723631400164708
6823239 73 18410284809377779984

> <PUBCHEM_SHAPE_MULTIPOLES>
606.98
12.58
4.87
1.28
1.17
3.45
-0.11
-7.08
-1.39
-0.13
-0.54
-0.54
-0.2
0.46

> <PUBCHEM_SHAPE_SELFOVERLAP>
1282.542

> <PUBCHEM_SHAPE_VOLUME>
342.7

> <PUBCHEM_COORDINATE_TYPE>
2
5
10

$$$$
