11882607
  -OEChem-12032416353D

 72 74  0     1  0  0  0  0  0999 V2000
   -7.5089   -1.0558    0.6030 S   0  0  0  0  0  0  0  0  0  0  0  0
    1.2141    0.4150   -1.9717 O   0  0  0  0  0  0  0  0  0  0  0  0
    2.2619    4.1651   -0.8395 O   0  0  0  0  0  0  0  0  0  0  0  0
   -4.0930   -0.3849   -1.2047 O   0  0  0  0  0  0  0  0  0  0  0  0
   -1.7415   -2.9084   -0.8309 O   0  0  0  0  0  0  0  0  0  0  0  0
    6.4056   -1.0542    1.1950 O   0  0  0  0  0  0  0  0  0  0  0  0
    0.6277    2.5285   -0.5709 N   0  0  0  0  0  0  0  0  0  0  0  0
   -3.5586    1.7741   -0.5376 N   0  0  0  0  0  0  0  0  0  0  0  0
    0.2901   -1.0940   -0.4589 N   0  0  0  0  0  0  0  0  0  0  0  0
    4.0261    2.8441    0.6028 N   0  0  0  0  0  0  0  0  0  0  0  0
   -0.7305   -3.5384   -2.7950 N   0  0  0  0  0  0  0  0  0  0  0  0
   -2.1605    1.7243   -0.8912 C   0  0  2  0  0  0  0  0  0  0  0  0
    0.1850    1.2526    0.0146 C   0  0  1  0  0  0  0  0  0  0  0  0
   -1.3216    1.2013    0.2782 C   0  0  0  0  0  0  0  0  0  0  0  0
   -1.6653    3.1028   -1.3230 C   0  0  0  0  0  0  0  0  0  0  0  0
   -0.1833    3.0628   -1.6715 C   0  0  0  0  0  0  0  0  0  0  0  0
    0.6319    0.1661   -0.9192 C   0  0  0  0  0  0  0  0  0  0  0  0
    1.8307    3.1693   -0.2518 C   0  0  0  0  0  0  0  0  0  0  0  0
    2.6253    2.5924    0.8936 C   0  0  2  0  0  0  0  0  0  0  0  0
   -4.4157    0.7015   -0.7272 C   0  0  0  0  0  0  0  0  0  0  0  0
    0.5865   -2.3080   -1.1846 C   0  0  1  0  0  0  0  0  0  0  0  0
    2.2108    3.2510    2.1936 C   0  0  0  0  0  0  0  0  0  0  0  0
    1.4404   -3.2804   -0.3630 C   0  0  0  0  0  0  0  0  0  0  0  0
   -5.8318    0.9838   -0.2648 C   0  0  0  0  0  0  0  0  0  0  0  0
   -0.7447   -2.9488   -1.5483 C   0  0  0  0  0  0  0  0  0  0  0  0
    2.7647   -2.6871    0.0523 C   0  0  0  0  0  0  0  0  0  0  0  0
    4.5453    1.8757   -0.3556 C   0  0  0  0  0  0  0  0  0  0  0  0
   -6.1941    0.0179    0.8286 C   0  0  0  0  0  0  0  0  0  0  0  0
    3.8816   -2.8278   -0.7715 C   0  0  0  0  0  0  0  0  0  0  0  0
    2.8715   -1.9978    1.2601 C   0  0  0  0  0  0  0  0  0  0  0  0
   -5.5970   -0.1473    2.0589 C   0  0  0  0  0  0  0  0  0  0  0  0
    5.1051   -2.2792   -0.3874 C   0  0  0  0  0  0  0  0  0  0  0  0
    4.0949   -1.4491    1.6444 C   0  0  0  0  0  0  0  0  0  0  0  0
   -6.2270   -1.1690    2.8265 C   0  0  0  0  0  0  0  0  0  0  0  0
    5.2118   -1.5899    0.8206 C   0  0  0  0  0  0  0  0  0  0  0  0
   -7.2817   -1.7456    2.1538 C   0  0  0  0  0  0  0  0  0  0  0  0
    6.4443   -0.3624    2.4423 C   0  0  0  0  0  0  0  0  0  0  0  0
   -2.0526    1.0318   -1.7360 H   0  0  0  0  0  0  0  0  0  0  0  0
    0.6600    1.0705    0.9793 H   0  0  0  0  0  0  0  0  0  0  0  0
   -1.5276    1.8362    1.1526 H   0  0  0  0  0  0  0  0  0  0  0  0
   -1.6686    0.2023    0.5637 H   0  0  0  0  0  0  0  0  0  0  0  0
   -1.8310    3.8286   -0.5159 H   0  0  0  0  0  0  0  0  0  0  0  0
   -2.2389    3.4581   -2.1876 H   0  0  0  0  0  0  0  0  0  0  0  0
   -0.0179    2.4451   -2.5601 H   0  0  0  0  0  0  0  0  0  0  0  0
    0.1489    4.0742   -1.9291 H   0  0  0  0  0  0  0  0  0  0  0  0
   -3.9021    2.6102   -0.0742 H   0  0  0  0  0  0  0  0  0  0  0  0
    2.5063    1.5144    1.0027 H   0  0  0  0  0  0  0  0  0  0  0  0
   -0.1686   -1.1946    0.4411 H   0  0  0  0  0  0  0  0  0  0  0  0
    1.1211   -2.0431   -2.1051 H   0  0  0  0  0  0  0  0  0  0  0  0
    2.3575    4.3371    2.1616 H   0  0  0  0  0  0  0  0  0  0  0  0
    1.1498    3.0760    2.4031 H   0  0  0  0  0  0  0  0  0  0  0  0
    2.7866    2.8576    3.0386 H   0  0  0  0  0  0  0  0  0  0  0  0
    4.5709    2.7646    1.4617 H   0  0  0  0  0  0  0  0  0  0  0  0
    0.8940   -3.6008    0.5350 H   0  0  0  0  0  0  0  0  0  0  0  0
    1.6153   -4.2015   -0.9346 H   0  0  0  0  0  0  0  0  0  0  0  0
   -6.4895    0.8940   -1.1369 H   0  0  0  0  0  0  0  0  0  0  0  0
   -5.9328    2.0080    0.1110 H   0  0  0  0  0  0  0  0  0  0  0  0
    5.6211    2.0323   -0.4822 H   0  0  0  0  0  0  0  0  0  0  0  0
    4.3929    0.8506   -0.0230 H   0  0  0  0  0  0  0  0  0  0  0  0
    4.0834    1.9968   -1.3407 H   0  0  0  0  0  0  0  0  0  0  0  0
    3.8099   -3.3605   -1.7160 H   0  0  0  0  0  0  0  0  0  0  0  0
    2.0091   -1.8818    1.9114 H   0  0  0  0  0  0  0  0  0  0  0  0
   -1.5602   -3.9891   -3.1665 H   0  0  0  0  0  0  0  0  0  0  0  0
    0.0990   -3.5613   -3.3793 H   0  0  0  0  0  0  0  0  0  0  0  0
   -4.7491    0.4348    2.3973 H   0  0  0  0  0  0  0  0  0  0  0  0
    5.9713   -2.3908   -1.0338 H   0  0  0  0  0  0  0  0  0  0  0  0
    4.1069   -0.9247    2.5937 H   0  0  0  0  0  0  0  0  0  0  0  0
   -5.9223   -1.4658    3.8216 H   0  0  0  0  0  0  0  0  0  0  0  0
   -7.9298   -2.5390    2.4987 H   0  0  0  0  0  0  0  0  0  0  0  0
    6.2259   -1.0325    3.2808 H   0  0  0  0  0  0  0  0  0  0  0  0
    7.4687   -0.0012    2.5798 H   0  0  0  0  0  0  0  0  0  0  0  0
    5.7934    0.5184    2.4351 H   0  0  0  0  0  0  0  0  0  0  0  0
  1 28  1  0  0  0  0
  1 36  1  0  0  0  0
  2 17  2  0  0  0  0
  3 18  2  0  0  0  0
  4 20  2  0  0  0  0
  5 25  2  0  0  0  0
  6 35  1  0  0  0  0
  6 37  1  0  0  0  0
  7 13  1  0  0  0  0
  7 16  1  0  0  0  0
  7 18  1  0  0  0  0
  8 12  1  0  0  0  0
  8 20  1  0  0  0  0
  8 46  1  0  0  0  0
  9 17  1  0  0  0  0
  9 21  1  0  0  0  0
  9 48  1  0  0  0  0
 10 19  1  0  0  0  0
 10 27  1  0  0  0  0
 10 53  1  0  0  0  0
 11 25  1  0  0  0  0
 11 63  1  0  0  0  0
 11 64  1  0  0  0  0
 12 14  1  0  0  0  0
 12 15  1  0  0  0  0
 12 38  1  0  0  0  0
 13 14  1  0  0  0  0
 13 17  1  0  0  0  0
 13 39  1  0  0  0  0
 14 40  1  0  0  0  0
 14 41  1  0  0  0  0
 15 16  1  0  0  0  0
 15 42  1  0  0  0  0
 15 43  1  0  0  0  0
 16 44  1  0  0  0  0
 16 45  1  0  0  0  0
 18 19  1  0  0  0  0
 19 22  1  0  0  0  0
 19 47  1  0  0  0  0
 20 24  1  0  0  0  0
 21 23  1  0  0  0  0
 21 25  1  0  0  0  0
 21 49  1  0  0  0  0
 22 50  1  0  0  0  0
 22 51  1  0  0  0  0
 22 52  1  0  0  0  0
 23 26  1  0  0  0  0
 23 54  1  0  0  0  0
 23 55  1  0  0  0  0
 24 28  1  0  0  0  0
 24 56  1  0  0  0  0
 24 57  1  0  0  0  0
 26 29  2  0  0  0  0
 26 30  1  0  0  0  0
 27 58  1  0  0  0  0
 27 59  1  0  0  0  0
 27 60  1  0  0  0  0
 28 31  2  0  0  0  0
 29 32  1  0  0  0  0
 29 61  1  0  0  0  0
 30 33  2  0  0  0  0
 30 62  1  0  0  0  0
 31 34  1  0  0  0  0
 31 65  1  0  0  0  0
 32 35  2  0  0  0  0
 32 66  1  0  0  0  0
 33 35  1  0  0  0  0
 33 67  1  0  0  0  0
 34 36  2  0  0  0  0
 34 68  1  0  0  0  0
 36 69  1  0  0  0  0
 37 70  1  0  0  0  0
 37 71  1  0  0  0  0
 37 72  1  0  0  0  0
M  END
> <PUBCHEM_COMPOUND_CID>
11882607

> <PUBCHEM_CONFORMER_RMSD>
1.2

> <PUBCHEM_CONFORMER_DIVERSEORDER>
1
29
61
34
16
46
65
30
33
8
2
31
66
41
43
51
35
15
53
42
45
25
52
44
63
18
14
26
37
64
50
57
32
49
7
22
58
47
11
23
27
36
59
60
21
20
28
19
10
9
39
48
6
4
56
38
12
3
17
40
54
55
13
24
5
62

> <PUBCHEM_MMFF94_PARTIAL_CHARGES>
46
1 -0.08
10 -0.9
11 -0.8
12 0.3
13 0.36
16 0.3
17 0.57
18 0.57
19 0.33
2 -0.57
20 0.57
21 0.36
23 0.14
24 0.24
25 0.57
26 -0.14
27 0.27
28 -0.14
29 -0.15
3 -0.57
30 -0.15
31 -0.15
32 -0.15
33 -0.15
34 -0.15
35 0.08
36 -0.11
37 0.28
4 -0.57
46 0.37
48 0.37
5 -0.57
53 0.36
6 -0.36
61 0.15
62 0.15
63 0.37
64 0.37
65 0.15
66 0.15
67 0.15
68 0.15
69 0.15
7 -0.66
8 -0.73
9 -0.73

> <PUBCHEM_EFFECTIVE_ROTOR_COUNT>
15.2

> <PUBCHEM_PHARMACOPHORE_FEATURES>
13
1 10 cation
1 10 donor
1 11 donor
1 2 acceptor
1 3 acceptor
1 4 acceptor
1 5 acceptor
1 6 acceptor
1 8 donor
1 9 donor
5 1 28 31 34 36 rings
6 26 29 30 32 33 35 rings
6 7 12 13 14 15 16 rings

> <PUBCHEM_HEAVY_ATOM_COUNT>
37

> <PUBCHEM_ATOM_DEF_STEREO_COUNT>
4

> <PUBCHEM_ATOM_UDEF_STEREO_COUNT>
0

> <PUBCHEM_BOND_DEF_STEREO_COUNT>
0

> <PUBCHEM_BOND_UDEF_STEREO_COUNT>
0

> <PUBCHEM_ISOTOPIC_ATOM_COUNT>
0

> <PUBCHEM_COMPONENT_COUNT>
1

> <PUBCHEM_CACTVS_TAUTO_COUNT>
8

> <PUBCHEM_CONFORMER_ID>
00B5506F00000001

> <PUBCHEM_MMFF94_ENERGY>
88.1214

> <PUBCHEM_FEATURE_SELFOVERLAP>
65.974

> <PUBCHEM_SHAPE_FINGERPRINT>
10169797 241 18265922257572799087
10653451 467 18410855425911595475
10675989 125 17185289475967577484
1100329 8 18341878706889113382
11828532 37 17097517490880934387
11963148 33 17969504994854809987
12035758 1 18342730802282793298
12422481 6 18411136961486736051
12758862 65 18261685813200676867
13383668 262 16374132357409268131
14020679 6 18187359943464457066
14955137 171 18269841908634582823
15297060 5 17632569479424361770
15510800 12 17386582396336561235
16112460 7 18272093816001798563
17852330 53 18057073296984453907
19611394 137 18261397702362544882
2260408 40 17631187290239321563
2747138 104 18335985259949885466
437795 139 16153724115283021859

> <PUBCHEM_SHAPE_MULTIPOLES>
711.04
16.33
5.23
2.29
20.84
1.74
-0.76
-7.94
-12.93
-4.76
1.79
0.91
-0.78
1.76

> <PUBCHEM_SHAPE_SELFOVERLAP>
1470.441

> <PUBCHEM_SHAPE_VOLUME>
407.5

> <PUBCHEM_COORDINATE_TYPE>
2
5
10

$$$$
