40777899
  -OEChem-12032416183D

 58 60  0     1  0  0  0  0  0999 V2000
    4.4085   -1.0668    1.4260 F   0  0  0  0  0  0  0  0  0  0  0  0
   -1.9779    1.3257   -0.5835 O   0  0  0  0  0  0  0  0  0  0  0  0
   -5.2428    0.7630    0.8033 O   0  0  0  0  0  0  0  0  0  0  0  0
   -4.7007    2.5066   -1.2545 O   0  0  0  0  0  0  0  0  0  0  0  0
    0.4066   -2.9396   -2.2758 O   0  0  0  0  0  0  0  0  0  0  0  0
   -1.8830   -1.5727   -1.4445 O   0  0  0  0  0  0  0  0  0  0  0  0
    0.4604    1.4711    1.0865 O   0  0  0  0  0  0  0  0  0  0  0  0
   -1.1641   -2.7789    0.3949 N   0  0  0  0  0  0  0  0  0  0  0  0
   -0.2042    3.4553    0.1008 N   0  0  0  0  0  0  0  0  0  0  0  0
    1.9844    2.7716   -0.1370 N   0  0  0  0  0  0  0  0  0  0  0  0
   -3.0090    0.4457   -0.1023 C   0  0  2  0  0  0  0  0  0  0  0  0
   -3.9491    1.3201    0.7098 C   0  0  1  0  0  0  0  0  0  0  0  0
   -3.9092    2.6167   -0.0722 C   0  0  1  0  0  0  0  0  0  0  0  0
   -2.4443    2.6912   -0.4886 C   0  0  1  0  0  0  0  0  0  0  0  0
   -0.6214   -3.9154   -0.3527 C   0  0  2  0  0  0  0  0  0  0  0  0
   -2.3857   -0.6796    0.7041 C   0  0  0  0  0  0  0  0  0  0  0  0
   -0.4438   -5.0002    0.7126 C   0  0  0  0  0  0  0  0  0  0  0  0
   -1.0349   -2.9831    1.8355 C   0  0  0  0  0  0  0  0  0  0  0  0
   -0.1416   -4.2059    1.9779 C   0  0  0  0  0  0  0  0  0  0  0  0
   -1.7939   -1.7109   -0.2233 C   0  0  0  0  0  0  0  0  0  0  0  0
   -1.5711    3.4119    0.5294 C   0  0  0  0  0  0  0  0  0  0  0  0
    0.6969   -3.5561   -1.0354 C   0  0  0  0  0  0  0  0  0  0  0  0
    0.7382    2.4617    0.4147 C   0  0  0  0  0  0  0  0  0  0  0  0
    1.5920   -2.5744   -2.9738 C   0  0  0  0  0  0  0  0  0  0  0  0
    3.1832    2.0265   -0.0465 C   0  0  0  0  0  0  0  0  0  0  0  0
    3.2050    0.8238    0.6596 C   0  0  0  0  0  0  0  0  0  0  0  0
    4.3433    2.4933   -0.6649 C   0  0  0  0  0  0  0  0  0  0  0  0
    4.3866    0.0879    0.7476 C   0  0  0  0  0  0  0  0  0  0  0  0
    5.5249    1.7573   -0.5770 C   0  0  0  0  0  0  0  0  0  0  0  0
    5.5466    0.5546    0.1294 C   0  0  0  0  0  0  0  0  0  0  0  0
   -3.5505    0.0512   -0.9722 H   0  0  0  0  0  0  0  0  0  0  0  0
   -3.5555    1.4754    1.7216 H   0  0  0  0  0  0  0  0  0  0  0  0
   -4.2702    3.4790    0.4954 H   0  0  0  0  0  0  0  0  0  0  0  0
   -2.3216    3.1445   -1.4791 H   0  0  0  0  0  0  0  0  0  0  0  0
   -1.3579   -4.2247   -1.1044 H   0  0  0  0  0  0  0  0  0  0  0  0
   -3.1491   -1.1754    1.3137 H   0  0  0  0  0  0  0  0  0  0  0  0
   -1.5981   -0.2900    1.3562 H   0  0  0  0  0  0  0  0  0  0  0  0
    0.3318   -5.7341    0.4759 H   0  0  0  0  0  0  0  0  0  0  0  0
   -1.3887   -5.5420    0.8463 H   0  0  0  0  0  0  0  0  0  0  0  0
   -2.0350   -3.1703    2.2409 H   0  0  0  0  0  0  0  0  0  0  0  0
   -0.6115   -2.0994    2.3204 H   0  0  0  0  0  0  0  0  0  0  0  0
   -0.3419   -4.7683    2.8939 H   0  0  0  0  0  0  0  0  0  0  0  0
    0.9125   -3.9040    1.9854 H   0  0  0  0  0  0  0  0  0  0  0  0
   -1.6084    2.9142    1.5045 H   0  0  0  0  0  0  0  0  0  0  0  0
   -1.9060    4.4463    0.6574 H   0  0  0  0  0  0  0  0  0  0  0  0
    1.2755   -4.4658   -1.2345 H   0  0  0  0  0  0  0  0  0  0  0  0
    1.3005   -2.8841   -0.4133 H   0  0  0  0  0  0  0  0  0  0  0  0
   -5.8141    1.4235    1.2308 H   0  0  0  0  0  0  0  0  0  0  0  0
   -4.6152    3.3446   -1.7405 H   0  0  0  0  0  0  0  0  0  0  0  0
    0.0942    4.2408   -0.4692 H   0  0  0  0  0  0  0  0  0  0  0  0
    1.3035   -2.1064   -3.9187 H   0  0  0  0  0  0  0  0  0  0  0  0
    2.1970   -3.4598   -3.1918 H   0  0  0  0  0  0  0  0  0  0  0  0
    2.1728   -1.8538   -2.3897 H   0  0  0  0  0  0  0  0  0  0  0  0
    2.0455    3.6362   -0.6688 H   0  0  0  0  0  0  0  0  0  0  0  0
    2.3493    0.3966    1.1628 H   0  0  0  0  0  0  0  0  0  0  0  0
    4.3399    3.4287   -1.2186 H   0  0  0  0  0  0  0  0  0  0  0  0
    6.4281    2.1204   -1.0584 H   0  0  0  0  0  0  0  0  0  0  0  0
    6.4664   -0.0186    0.1981 H   0  0  0  0  0  0  0  0  0  0  0  0
  1 28  1  0  0  0  0
  2 11  1  0  0  0  0
  2 14  1  0  0  0  0
  3 12  1  0  0  0  0
  3 48  1  0  0  0  0
  4 13  1  0  0  0  0
  4 49  1  0  0  0  0
  5 22  1  0  0  0  0
  5 24  1  0  0  0  0
  6 20  2  0  0  0  0
  7 23  2  0  0  0  0
  8 15  1  0  0  0  0
  8 18  1  0  0  0  0
  8 20  1  0  0  0  0
  9 21  1  0  0  0  0
  9 23  1  0  0  0  0
  9 50  1  0  0  0  0
 10 23  1  0  0  0  0
 10 25  1  0  0  0  0
 10 54  1  0  0  0  0
 11 12  1  0  0  0  0
 11 16  1  0  0  0  0
 11 31  1  0  0  0  0
 12 13  1  0  0  0  0
 12 32  1  0  0  0  0
 13 14  1  0  0  0  0
 13 33  1  0  0  0  0
 14 21  1  0  0  0  0
 14 34  1  0  0  0  0
 15 17  1  0  0  0  0
 15 22  1  0  0  0  0
 15 35  1  0  0  0  0
 16 20  1  0  0  0  0
 16 36  1  0  0  0  0
 16 37  1  0  0  0  0
 17 19  1  0  0  0  0
 17 38  1  0  0  0  0
 17 39  1  0  0  0  0
 18 19  1  0  0  0  0
 18 40  1  0  0  0  0
 18 41  1  0  0  0  0
 19 42  1  0  0  0  0
 19 43  1  0  0  0  0
 21 44  1  0  0  0  0
 21 45  1  0  0  0  0
 22 46  1  0  0  0  0
 22 47  1  0  0  0  0
 24 51  1  0  0  0  0
 24 52  1  0  0  0  0
 24 53  1  0  0  0  0
 25 26  2  0  0  0  0
 25 27  1  0  0  0  0
 26 28  1  0  0  0  0
 26 55  1  0  0  0  0
 27 29  2  0  0  0  0
 27 56  1  0  0  0  0
 28 30  2  0  0  0  0
 29 30  1  0  0  0  0
 29 57  1  0  0  0  0
 30 58  1  0  0  0  0
M  END
> <PUBCHEM_COMPOUND_CID>
40777899

> <PUBCHEM_CONFORMER_RMSD>
1.2

> <PUBCHEM_CONFORMER_DIVERSEORDER>
1
144
51
38
83
82
100
18
91
33
41
39
131
88
37
135
75
111
107
145
48
147
114
148
102
140
12
5
81
121
53
28
21
74
130
54
142
62
146
8
68
79
134
49
113
60
108
89
58
136
141
24
9
31
115
2
42
129
97
112
14
139
104
19
59
125
70
124
17
13
127
69
90
67
23
123
10
56
120
47
50
103
32
128
80
126
86
30
119
110
118
55
36
117
143
3
27
46
116
66
78
11
65
6
61
34
72
94
101
64
16
85
29
57
44
137
96
35
25
93
20
109
63
92
133
95
52
73
98
87
132
7
105
76
15
84
45
122
106
138
71
77
99
22
40
43
4
26

> <PUBCHEM_MMFF94_PARTIAL_CHARGES>
36
1 -0.19
10 -0.55
11 0.28
12 0.28
13 0.28
14 0.28
15 0.3
16 0.06
18 0.3
2 -0.56
20 0.57
21 0.3
22 0.28
23 0.69
24 0.28
25 0.12
26 -0.15
27 -0.15
28 0.19
29 -0.15
3 -0.68
30 -0.15
4 -0.68
48 0.4
49 0.4
5 -0.56
50 0.37
54 0.37
55 0.15
56 0.15
57 0.15
58 0.15
6 -0.57
7 -0.57
8 -0.66
9 -0.73

> <PUBCHEM_EFFECTIVE_ROTOR_COUNT>
12

> <PUBCHEM_PHARMACOPHORE_FEATURES>
13
1 10 donor
1 2 acceptor
1 3 acceptor
1 3 donor
1 4 acceptor
1 4 donor
1 5 acceptor
1 6 acceptor
1 7 acceptor
1 9 donor
5 2 11 12 13 14 rings
5 8 15 17 18 19 rings
6 25 26 27 28 29 30 rings

> <PUBCHEM_HEAVY_ATOM_COUNT>
30

> <PUBCHEM_ATOM_DEF_STEREO_COUNT>
5

> <PUBCHEM_ATOM_UDEF_STEREO_COUNT>
0

> <PUBCHEM_BOND_DEF_STEREO_COUNT>
0

> <PUBCHEM_BOND_UDEF_STEREO_COUNT>
0

> <PUBCHEM_ISOTOPIC_ATOM_COUNT>
0

> <PUBCHEM_COMPONENT_COUNT>
1

> <PUBCHEM_CACTVS_TAUTO_COUNT>
3

> <PUBCHEM_CONFORMER_ID>
026E38AB00000001

> <PUBCHEM_MMFF94_ENERGY>
75.6707

> <PUBCHEM_FEATURE_SELFOVERLAP>
66.041

> <PUBCHEM_SHAPE_FINGERPRINT>
107951 10 18334860536426348811
11014199 57 17616255123021469568
12156800 1 16954266483555831139
12788726 201 18120076532072454234
13726171 33 17692009193701667572
138480 1 17472695823724899922
14251757 5 18337959007865453360
14279260 333 18188484788169730594
14659021 117 18049706718737837288
14866123 147 18266744769563930499
15927050 60 18340769235538146045
15961568 22 17328572930700105850
161222 619 18267329614959888107
16719943 64 18409728452583987216
17859628 97 18336822005320412129
19319366 153 17749384901593497496
20531524 4 18198088961327986510
20642791 35 17910405983201056325
20764821 26 18267872683509410254
20775438 99 16902953569189457735
20775530 9 17395851428711870194
21133410 171 17114607289994935690
21133665 82 18340492167234759084
21796203 349 15954434694479379737
238918 7 18131349675100740870
3298306 158 18339357440373817357
3411729 13 18197505013554092425
508706 21 18198919178437971822
5265222 85 18409175423905702404
532947 4 18196934370934279877
613672 6 17185859035807205610

> <PUBCHEM_SHAPE_MULTIPOLES>
559.95
9.41
7
1.71
9.59
6.32
0.85
-8.89
-0.46
-3.75
-0.23
0.22
2.23
0.73

> <PUBCHEM_SHAPE_SELFOVERLAP>
1170.022

> <PUBCHEM_SHAPE_VOLUME>
318

> <PUBCHEM_COORDINATE_TYPE>
2
5
10

$$$$
