40781515
  -OEChem-12032416173D

 46 48  0     1  0  0  0  0  0999 V2000
   -1.6896   -0.4056   -1.0594 O   0  0  0  0  0  0  0  0  0  0  0  0
   -4.3504   -0.2383    1.3473 O   0  0  0  0  0  0  0  0  0  0  0  0
   -3.5745   -2.5280    0.0344 O   0  0  0  0  0  0  0  0  0  0  0  0
    0.0442    2.0385   -1.5271 O   0  0  0  0  0  0  0  0  0  0  0  0
    0.8489   -1.8940   -1.7297 O   0  0  0  0  0  0  0  0  0  0  0  0
   -1.5066    2.1267    0.2097 N   0  0  0  0  0  0  0  0  0  0  0  0
    2.3416   -1.3786   -0.0434 N   0  0  0  0  0  0  0  0  0  0  0  0
   -2.8569    0.2330   -0.5126 C   0  0  1  0  0  0  0  0  0  0  0  0
    0.8234    2.6623    0.6031 C   0  0  0  0  0  0  0  0  0  0  0  0
   -1.3988   -1.5930   -0.2871 C   0  0  2  0  0  0  0  0  0  0  0  0
   -3.0199   -0.3376    0.8862 C   0  0  2  0  0  0  0  0  0  0  0  0
   -2.5591   -1.7666    0.6869 C   0  0  1  0  0  0  0  0  0  0  0  0
    2.2474    2.7142    0.1324 C   0  0  0  0  0  0  0  0  0  0  0  0
    1.5013    3.9868    0.4073 C   0  0  0  0  0  0  0  0  0  0  0  0
   -2.6711    1.7397   -0.5304 C   0  0  0  0  0  0  0  0  0  0  0  0
   -0.0621   -1.3795    0.4100 C   0  0  0  0  0  0  0  0  0  0  0  0
   -0.2431    2.2437   -0.3537 C   0  0  0  0  0  0  0  0  0  0  0  0
    1.0744   -1.5748   -0.5612 C   0  0  0  0  0  0  0  0  0  0  0  0
    3.5433   -1.5350   -0.8497 C   0  0  0  0  0  0  0  0  0  0  0  0
    2.6755   -0.9974    1.3255 C   0  0  0  0  0  0  0  0  0  0  0  0
    4.6501   -0.9214   -0.0060 C   0  0  0  0  0  0  0  0  0  0  0  0
    4.1820   -1.1951    1.4176 C   0  0  0  0  0  0  0  0  0  0  0  0
   -3.7150   -0.0255   -1.1456 H   0  0  0  0  0  0  0  0  0  0  0  0
   -1.3592   -2.4373   -0.9848 H   0  0  0  0  0  0  0  0  0  0  0  0
    0.6714    2.3489    1.6325 H   0  0  0  0  0  0  0  0  0  0  0  0
   -2.3624    0.1546    1.6112 H   0  0  0  0  0  0  0  0  0  0  0  0
   -2.3072   -2.2767    1.6209 H   0  0  0  0  0  0  0  0  0  0  0  0
    2.4831    2.4826   -0.8987 H   0  0  0  0  0  0  0  0  0  0  0  0
    3.0226    2.4281    0.8336 H   0  0  0  0  0  0  0  0  0  0  0  0
    1.7731    4.5499    1.2917 H   0  0  0  0  0  0  0  0  0  0  0  0
    1.2159    4.5967   -0.4411 H   0  0  0  0  0  0  0  0  0  0  0  0
   -3.5347    2.2470   -0.0890 H   0  0  0  0  0  0  0  0  0  0  0  0
   -2.5537    2.0872   -1.5628 H   0  0  0  0  0  0  0  0  0  0  0  0
    0.0560   -2.1230    1.2063 H   0  0  0  0  0  0  0  0  0  0  0  0
    0.0079   -0.3782    0.8440 H   0  0  0  0  0  0  0  0  0  0  0  0
   -1.6215    2.3343    1.1976 H   0  0  0  0  0  0  0  0  0  0  0  0
    3.4255   -1.0504   -1.8234 H   0  0  0  0  0  0  0  0  0  0  0  0
    3.7027   -2.6077   -1.0048 H   0  0  0  0  0  0  0  0  0  0  0  0
    2.1310   -1.6078    2.0506 H   0  0  0  0  0  0  0  0  0  0  0  0
    2.3973    0.0514    1.4629 H   0  0  0  0  0  0  0  0  0  0  0  0
    4.6978    0.1607   -0.1781 H   0  0  0  0  0  0  0  0  0  0  0  0
    5.6328   -1.3481   -0.2239 H   0  0  0  0  0  0  0  0  0  0  0  0
    4.4088   -2.2333    1.6885 H   0  0  0  0  0  0  0  0  0  0  0  0
    4.6486   -0.5375    2.1560 H   0  0  0  0  0  0  0  0  0  0  0  0
   -4.4073   -0.7322    2.1829 H   0  0  0  0  0  0  0  0  0  0  0  0
   -3.2261   -3.4266   -0.0954 H   0  0  0  0  0  0  0  0  0  0  0  0
  1  8  1  0  0  0  0
  1 10  1  0  0  0  0
  2 11  1  0  0  0  0
  2 45  1  0  0  0  0
  3 12  1  0  0  0  0
  3 46  1  0  0  0  0
  4 17  2  0  0  0  0
  5 18  2  0  0  0  0
  6 15  1  0  0  0  0
  6 17  1  0  0  0  0
  6 36  1  0  0  0  0
  7 18  1  0  0  0  0
  7 19  1  0  0  0  0
  7 20  1  0  0  0  0
  8 11  1  0  0  0  0
  8 15  1  0  0  0  0
  8 23  1  0  0  0  0
  9 13  1  0  0  0  0
  9 14  1  0  0  0  0
  9 17  1  0  0  0  0
  9 25  1  0  0  0  0
 10 12  1  0  0  0  0
 10 16  1  0  0  0  0
 10 24  1  0  0  0  0
 11 12  1  0  0  0  0
 11 26  1  0  0  0  0
 12 27  1  0  0  0  0
 13 14  1  0  0  0  0
 13 28  1  0  0  0  0
 13 29  1  0  0  0  0
 14 30  1  0  0  0  0
 14 31  1  0  0  0  0
 15 32  1  0  0  0  0
 15 33  1  0  0  0  0
 16 18  1  0  0  0  0
 16 34  1  0  0  0  0
 16 35  1  0  0  0  0
 19 21  1  0  0  0  0
 19 37  1  0  0  0  0
 19 38  1  0  0  0  0
 20 22  1  0  0  0  0
 20 39  1  0  0  0  0
 20 40  1  0  0  0  0
 21 22  1  0  0  0  0
 21 41  1  0  0  0  0
 21 42  1  0  0  0  0
 22 43  1  0  0  0  0
 22 44  1  0  0  0  0
M  END
> <PUBCHEM_COMPOUND_CID>
40781515

> <PUBCHEM_CONFORMER_RMSD>
1

> <PUBCHEM_CONFORMER_DIVERSEORDER>
4
19
71
97
68
91
81
69
67
32
56
65
15
87
92
57
82
14
34
66
38
52
62
29
86
17
63
98
83
95
72
74
42
89
47
39
50
28
25
93
35
51
6
79
78
31
7
8
88
94
21
11
33
37
61
10
58
22
53
70
64
20
84
12
16
44
60
85
77
23
49
1
46
48
76
90
30
36
41
27
55
9
59
73
13
43
18
26
40
96
54
75
45
80
2
3
24
5

> <PUBCHEM_MMFF94_PARTIAL_CHARGES>
28
1 -0.56
10 0.28
11 0.28
12 0.28
13 -0.2
14 -0.2
15 0.3
16 0.06
17 0.63
18 0.57
19 0.3
2 -0.68
20 0.3
25 0.1
28 0.1
29 0.1
3 -0.68
30 0.1
31 0.1
36 0.37
4 -0.57
45 0.4
46 0.4
5 -0.57
6 -0.73
7 -0.66
8 0.28
9 -0.1

> <PUBCHEM_EFFECTIVE_ROTOR_COUNT>
9.6

> <PUBCHEM_PHARMACOPHORE_FEATURES>
10
1 1 acceptor
1 2 acceptor
1 2 donor
1 3 acceptor
1 3 donor
1 4 acceptor
1 5 acceptor
1 6 donor
5 1 8 10 11 12 rings
5 7 19 20 21 22 rings

> <PUBCHEM_HEAVY_ATOM_COUNT>
22

> <PUBCHEM_ATOM_DEF_STEREO_COUNT>
4

> <PUBCHEM_ATOM_UDEF_STEREO_COUNT>
0

> <PUBCHEM_BOND_DEF_STEREO_COUNT>
0

> <PUBCHEM_BOND_UDEF_STEREO_COUNT>
0

> <PUBCHEM_ISOTOPIC_ATOM_COUNT>
0

> <PUBCHEM_COMPONENT_COUNT>
1

> <PUBCHEM_CACTVS_TAUTO_COUNT>
2

> <PUBCHEM_CONFORMER_ID>
026E46CB00000004

> <PUBCHEM_MMFF94_ENERGY>
46.7823

> <PUBCHEM_FEATURE_SELFOVERLAP>
50.76

> <PUBCHEM_SHAPE_FINGERPRINT>
10006869 2 17547010724468788049
10382601 240 18049181130472756681
10498660 4 18194960743304098412
10675989 125 16677793932834107284
10759866 29 17970068834319914354
10989021 7 18339636871167666967
1100329 8 18338797806319992137
11578080 2 17314487366229343236
12035758 1 18264490590391338313
12422481 6 18052503782441614208
12553582 1 18340491054126397436
12633257 1 18411145722987898547
13140716 1 18337401547191394915
13544592 271 18196362624655389893
14022349 108 18267030642212313401
14081887 123 18123178014288134730
14142880 1 17913770509808462577
14787075 74 18041569156050616234
14790565 3 17763468309468678136
15006816 218 18122623026972439120
17357779 13 18270379629791546566
17780758 139 17536563263824249634
20510252 161 18116440240939687643
20600515 1 18189629245269061606
20691752 17 17459186446877876923
20715895 44 17102265984246358813
20905425 154 18266186217071217484
21033648 29 17560506327060423826
21041028 32 18412554197404522841
23419403 2 18043787961513785527
23557571 272 18267881488045200262
3524813 1 17845355688166881338
43471831 8 17760929945230615817
539174 4 18054533523186040305
57091435 65 18266173023438437080
5939293 188 18412829118229120672
6287921 2 17988361597738075174
69474 34 18410300194451495049
81228 2 17909557155380728840
9925002 15 17413003741338674942

> <PUBCHEM_SHAPE_MULTIPOLES>
413.44
7.15
4.04
1.25
2.02
4.25
-0.05
-4.09
1.9
1.02
0.01
0.22
-0.31
0.5

> <PUBCHEM_SHAPE_SELFOVERLAP>
854.99

> <PUBCHEM_SHAPE_VOLUME>
238.7

> <PUBCHEM_COORDINATE_TYPE>
2
5
10

$$$$
