40533523
  -OEChem-12032416113D

 50 53  0     1  0  0  0  0  0999 V2000
   -1.3225   -1.2734    1.8043 O   0  0  0  0  0  0  0  0  0  0  0  0
    3.0418    1.8189    1.8827 O   0  0  0  0  0  0  0  0  0  0  0  0
    3.2144    0.1939    0.2311 N   0  0  0  0  0  0  0  0  0  0  0  0
    0.4423   -1.3910    0.2840 N   0  0  0  0  0  0  0  0  0  0  0  0
    1.2761    2.5706   -0.5042 N   0  0  0  0  0  0  0  0  0  0  0  0
   -4.7313    1.1798    1.1378 N   0  0  0  0  0  0  0  0  0  0  0  0
    2.7907   -2.1579    0.9566 C   0  0  1  0  0  0  0  0  0  0  0  0
    2.3401   -1.4992   -1.3689 C   0  0  2  0  0  0  0  0  0  0  0  0
    2.9057   -2.6146   -0.4926 C   0  0  0  0  0  0  0  0  0  0  0  0
    3.5857   -0.8594    1.1778 C   0  0  0  0  0  0  0  0  0  0  0  0
    1.3074   -1.9925    1.3080 C   0  0  0  0  0  0  0  0  0  0  0  0
    3.1772   -0.2188   -1.1800 C   0  0  0  0  0  0  0  0  0  0  0  0
    0.8885   -1.2190   -1.0284 C   0  0  0  0  0  0  0  0  0  0  0  0
    0.0435   -0.7807   -1.9751 C   0  0  0  0  0  0  0  0  0  0  0  0
   -0.8830   -1.1030    0.6657 C   0  0  0  0  0  0  0  0  0  0  0  0
    3.0063    1.4934    0.6932 C   0  0  0  0  0  0  0  0  0  0  0  0
   -1.7965   -0.5787   -0.4093 C   0  0  0  0  0  0  0  0  0  0  0  0
   -1.3166   -0.4520   -1.6555 C   0  0  0  0  0  0  0  0  0  0  0  0
    2.7141    2.5425   -0.3495 C   0  0  0  0  0  0  0  0  0  0  0  0
   -3.1890   -0.2013   -0.1106 C   0  0  0  0  0  0  0  0  0  0  0  0
   -4.2542   -0.8251   -0.7506 C   0  0  0  0  0  0  0  0  0  0  0  0
    0.8957    3.1813   -1.7839 C   0  0  0  0  0  0  0  0  0  0  0  0
    0.6410    3.2967    0.6024 C   0  0  0  0  0  0  0  0  0  0  0  0
   -3.4783    0.7862    0.8172 C   0  0  0  0  0  0  0  0  0  0  0  0
   -5.5577   -0.4476   -0.4476 C   0  0  0  0  0  0  0  0  0  0  0  0
   -5.7410    0.5509    0.4953 C   0  0  0  0  0  0  0  0  0  0  0  0
    3.2167   -2.9228    1.6177 H   0  0  0  0  0  0  0  0  0  0  0  0
    2.4205   -1.8144   -2.4175 H   0  0  0  0  0  0  0  0  0  0  0  0
    2.3543   -3.5503   -0.6484 H   0  0  0  0  0  0  0  0  0  0  0  0
    3.9534   -2.8118   -0.7506 H   0  0  0  0  0  0  0  0  0  0  0  0
    4.6557   -1.0506    1.0292 H   0  0  0  0  0  0  0  0  0  0  0  0
    3.4645   -0.5134    2.2098 H   0  0  0  0  0  0  0  0  0  0  0  0
    1.1943   -1.4236    2.2395 H   0  0  0  0  0  0  0  0  0  0  0  0
    0.8816   -2.9855    1.5077 H   0  0  0  0  0  0  0  0  0  0  0  0
    2.7775    0.5527   -1.8376 H   0  0  0  0  0  0  0  0  0  0  0  0
    4.2154   -0.3962   -1.4860 H   0  0  0  0  0  0  0  0  0  0  0  0
    0.3674   -0.6278   -2.9993 H   0  0  0  0  0  0  0  0  0  0  0  0
   -1.9275   -0.0719   -2.4692 H   0  0  0  0  0  0  0  0  0  0  0  0
    3.2634    2.3480   -1.2741 H   0  0  0  0  0  0  0  0  0  0  0  0
    3.1096    3.5048    0.0036 H   0  0  0  0  0  0  0  0  0  0  0  0
   -4.0887   -1.6104   -1.4839 H   0  0  0  0  0  0  0  0  0  0  0  0
    1.3176    2.6136   -2.6206 H   0  0  0  0  0  0  0  0  0  0  0  0
    1.2375    4.2197   -1.8611 H   0  0  0  0  0  0  0  0  0  0  0  0
   -0.1925    3.1619   -1.9111 H   0  0  0  0  0  0  0  0  0  0  0  0
    1.0045    4.3273    0.6869 H   0  0  0  0  0  0  0  0  0  0  0  0
    0.7885    2.7917    1.5614 H   0  0  0  0  0  0  0  0  0  0  0  0
   -0.4450    3.3335    0.4546 H   0  0  0  0  0  0  0  0  0  0  0  0
   -2.6928    1.3162    1.3484 H   0  0  0  0  0  0  0  0  0  0  0  0
   -6.4035   -0.9207   -0.9331 H   0  0  0  0  0  0  0  0  0  0  0  0
   -6.7380    0.8815    0.7674 H   0  0  0  0  0  0  0  0  0  0  0  0
  1 15  2  0  0  0  0
  2 16  2  0  0  0  0
  3 10  1  0  0  0  0
  3 12  1  0  0  0  0
  3 16  1  0  0  0  0
  4 11  1  0  0  0  0
  4 13  1  0  0  0  0
  4 15  1  0  0  0  0
  5 19  1  0  0  0  0
  5 22  1  0  0  0  0
  5 23  1  0  0  0  0
  6 24  1  0  0  0  0
  6 26  2  0  0  0  0
  7  9  1  0  0  0  0
  7 10  1  0  0  0  0
  7 11  1  0  0  0  0
  7 27  1  0  0  0  0
  8  9  1  0  0  0  0
  8 12  1  0  0  0  0
  8 13  1  0  0  0  0
  8 28  1  0  0  0  0
  9 29  1  0  0  0  0
  9 30  1  0  0  0  0
 10 31  1  0  0  0  0
 10 32  1  0  0  0  0
 11 33  1  0  0  0  0
 11 34  1  0  0  0  0
 12 35  1  0  0  0  0
 12 36  1  0  0  0  0
 13 14  2  0  0  0  0
 14 18  1  0  0  0  0
 14 37  1  0  0  0  0
 15 17  1  0  0  0  0
 16 19  1  0  0  0  0
 17 18  2  0  0  0  0
 17 20  1  0  0  0  0
 18 38  1  0  0  0  0
 19 39  1  0  0  0  0
 19 40  1  0  0  0  0
 20 21  1  0  0  0  0
 20 24  2  0  0  0  0
 21 25  2  0  0  0  0
 21 41  1  0  0  0  0
 22 42  1  0  0  0  0
 22 43  1  0  0  0  0
 22 44  1  0  0  0  0
 23 45  1  0  0  0  0
 23 46  1  0  0  0  0
 23 47  1  0  0  0  0
 24 48  1  0  0  0  0
 25 26  1  0  0  0  0
 25 49  1  0  0  0  0
 26 50  1  0  0  0  0
M  END
> <PUBCHEM_COMPOUND_CID>
40533523

> <PUBCHEM_CONFORMER_RMSD>
0.8

> <PUBCHEM_CONFORMER_DIVERSEORDER>
2
12
9
15
11
6
4
17
13
14
10
16
3
8
7
5
1

> <PUBCHEM_MMFF94_PARTIAL_CHARGES>
30
1 -0.57
10 0.3
11 0.3
12 0.3
13 -0.03
14 -0.15
15 0.62
16 0.57
17 -0.01
18 -0.15
19 0.33
2 -0.57
20 0.03
21 -0.15
22 0.27
23 0.27
24 0.16
25 -0.15
26 0.16
3 -0.66
37 0.15
38 0.15
4 -0.47
41 0.15
48 0.15
49 0.15
5 -0.81
50 0.15
6 -0.62
8 0.14

> <PUBCHEM_EFFECTIVE_ROTOR_COUNT>
5

> <PUBCHEM_PHARMACOPHORE_FEATURES>
8
1 1 acceptor
1 2 acceptor
1 5 cation
1 6 acceptor
6 3 7 8 9 10 12 rings
6 4 13 14 15 17 18 rings
6 4 7 8 9 11 13 rings
6 6 20 21 24 25 26 rings

> <PUBCHEM_HEAVY_ATOM_COUNT>
26

> <PUBCHEM_ATOM_DEF_STEREO_COUNT>
2

> <PUBCHEM_ATOM_UDEF_STEREO_COUNT>
0

> <PUBCHEM_BOND_DEF_STEREO_COUNT>
0

> <PUBCHEM_BOND_UDEF_STEREO_COUNT>
0

> <PUBCHEM_ISOTOPIC_ATOM_COUNT>
0

> <PUBCHEM_COMPONENT_COUNT>
1

> <PUBCHEM_CACTVS_TAUTO_COUNT>
3

> <PUBCHEM_CONFORMER_ID>
026A7E1300000002

> <PUBCHEM_MMFF94_ENERGY>
75.2835

> <PUBCHEM_FEATURE_SELFOVERLAP>
42.162

> <PUBCHEM_SHAPE_FINGERPRINT>
10366900 7 18041286512473328247
10382601 240 18337940277776663744
10688039 33 17895470315627471820
11578080 2 17753364081593047585
11640471 11 17702380843830277388
12403259 327 17314214726206166272
12422481 6 18125408996432500584
12633257 1 17677596722142832240
13224815 77 15554448483612576563
13583140 156 18187648041897578395
13965767 371 17987212539620507466
15210252 30 17968114026873006116
15238133 3 18334581205165508380
15420108 30 17915439788003658134
20691752 17 18040722424564810465
20715895 44 17699856116589862041
20905425 154 18270403780562035052
21033648 29 17385711496642375733
21304253 335 17917712379289994809
21503847 285 18343308045686766174
21860390 5 18411141354657972868
23558518 356 17831576848696956278
23559900 14 17603877705695120727
3052486 1 17971479498568382004
345986 75 17752473270441365906
35225 105 17109043322416771772
4409770 3 15680586334098541391
474 4 18336545035758821197
513532 50 17703800240470126660
5283268 108 18339080367822922400
5895379 119 17273436979706450833

> <PUBCHEM_SHAPE_MULTIPOLES>
503.41
9.13
3.25
1.73
14.49
2.74
0.19
0
-1.79
-3.53
0.07
-0.58
0
-0.38

> <PUBCHEM_SHAPE_SELFOVERLAP>
1089.021

> <PUBCHEM_SHAPE_VOLUME>
269.7

> <PUBCHEM_COORDINATE_TYPE>
2
5
10

$$$$
