56775024
  -OEChem-12032416213D

 44 46  0     1  0  0  0  0  0999 V2000
    0.9593    2.7255   -0.6135 O   0  0  0  0  0  0  0  0  0  0  0  0
   -1.9047    2.5421    1.4312 O   0  0  0  0  0  0  0  0  0  0  0  0
    2.6601   -0.0955   -0.6799 N   0  0  1  0  0  0  0  0  0  0  0  0
   -0.6822    0.8038    0.4824 N   0  0  0  0  0  0  0  0  0  0  0  0
   -4.7395   -1.8692   -0.8090 N   0  0  0  0  0  0  0  0  0  0  0  0
    0.4195    0.3851   -0.3798 C   0  0  1  0  0  0  0  0  0  0  0  0
    0.9718    1.4735   -1.2947 C   0  0  2  0  0  0  0  0  0  0  0  0
    1.6644   -0.0471    0.3901 C   0  0  0  0  0  0  0  0  0  0  0  0
    2.4348    1.0827   -1.5275 C   0  0  0  0  0  0  0  0  0  0  0  0
    4.0222   -0.1795   -0.1776 C   0  0  0  0  0  0  0  0  0  0  0  0
    4.2749   -1.4687    0.6227 C   0  0  0  0  0  0  0  0  0  0  0  0
   -1.0450    2.1373    0.6472 C   0  0  0  0  0  0  0  0  0  0  0  0
   -0.3564    3.1089   -0.2871 C   0  0  0  0  0  0  0  0  0  0  0  0
   -1.3465   -0.2346    1.2592 C   0  0  0  0  0  0  0  0  0  0  0  0
    5.6906   -1.5328    1.2016 C   0  0  0  0  0  0  0  0  0  0  0  0
    4.0286   -2.6877   -0.2704 C   0  0  0  0  0  0  0  0  0  0  0  0
   -2.5321   -0.8055    0.5363 C   0  0  0  0  0  0  0  0  0  0  0  0
   -3.7164   -0.0812    0.4565 C   0  0  0  0  0  0  0  0  0  0  0  0
   -2.4501   -2.0610   -0.0557 C   0  0  0  0  0  0  0  0  0  0  0  0
   -4.7813   -0.6524   -0.2213 C   0  0  0  0  0  0  0  0  0  0  0  0
   -3.5718   -2.5436   -0.7107 C   0  0  0  0  0  0  0  0  0  0  0  0
    0.0642   -0.4500   -0.9993 H   0  0  0  0  0  0  0  0  0  0  0  0
    0.4151    1.5566   -2.2354 H   0  0  0  0  0  0  0  0  0  0  0  0
    1.9211    0.6815    1.1703 H   0  0  0  0  0  0  0  0  0  0  0  0
    1.5140   -1.0250    0.8563 H   0  0  0  0  0  0  0  0  0  0  0  0
    2.5973    0.7994   -2.5727 H   0  0  0  0  0  0  0  0  0  0  0  0
    3.1084    1.9136   -1.2846 H   0  0  0  0  0  0  0  0  0  0  0  0
    4.7220   -0.1490   -1.0233 H   0  0  0  0  0  0  0  0  0  0  0  0
    4.2566    0.6884    0.4534 H   0  0  0  0  0  0  0  0  0  0  0  0
    3.5908   -1.5215    1.4779 H   0  0  0  0  0  0  0  0  0  0  0  0
   -0.9597    3.2233   -1.1949 H   0  0  0  0  0  0  0  0  0  0  0  0
   -0.3030    4.0825    0.2103 H   0  0  0  0  0  0  0  0  0  0  0  0
   -1.6898    0.1895    2.2115 H   0  0  0  0  0  0  0  0  0  0  0  0
   -0.6313   -1.0198    1.5259 H   0  0  0  0  0  0  0  0  0  0  0  0
    6.4444   -1.5111    0.4074 H   0  0  0  0  0  0  0  0  0  0  0  0
    5.8349   -2.4493    1.7833 H   0  0  0  0  0  0  0  0  0  0  0  0
    5.8738   -0.6813    1.8653 H   0  0  0  0  0  0  0  0  0  0  0  0
    4.6737   -2.6701   -1.1557 H   0  0  0  0  0  0  0  0  0  0  0  0
    4.2384   -3.6137    0.2764 H   0  0  0  0  0  0  0  0  0  0  0  0
    2.9885   -2.7432   -0.6070 H   0  0  0  0  0  0  0  0  0  0  0  0
   -3.8285    0.8946    0.9133 H   0  0  0  0  0  0  0  0  0  0  0  0
   -1.5420   -2.6526   -0.0148 H   0  0  0  0  0  0  0  0  0  0  0  0
   -5.7281   -0.1297   -0.3095 H   0  0  0  0  0  0  0  0  0  0  0  0
   -3.5594   -3.5172   -1.1894 H   0  0  0  0  0  0  0  0  0  0  0  0
  1  7  1  0  0  0  0
  1 13  1  0  0  0  0
  2 12  2  0  0  0  0
  3  8  1  0  0  0  0
  3  9  1  0  0  0  0
  3 10  1  0  0  0  0
  4  6  1  0  0  0  0
  4 12  1  0  0  0  0
  4 14  1  0  0  0  0
  5 20  2  0  0  0  0
  5 21  1  0  0  0  0
  6  7  1  0  0  0  0
  6  8  1  0  0  0  0
  6 22  1  0  0  0  0
  7  9  1  0  0  0  0
  7 23  1  0  0  0  0
  8 24  1  0  0  0  0
  8 25  1  0  0  0  0
  9 26  1  0  0  0  0
  9 27  1  0  0  0  0
 10 11  1  0  0  0  0
 10 28  1  0  0  0  0
 10 29  1  0  0  0  0
 11 15  1  0  0  0  0
 11 16  1  0  0  0  0
 11 30  1  0  0  0  0
 12 13  1  0  0  0  0
 13 31  1  0  0  0  0
 13 32  1  0  0  0  0
 14 17  1  0  0  0  0
 14 33  1  0  0  0  0
 14 34  1  0  0  0  0
 15 35  1  0  0  0  0
 15 36  1  0  0  0  0
 15 37  1  0  0  0  0
 16 38  1  0  0  0  0
 16 39  1  0  0  0  0
 16 40  1  0  0  0  0
 17 18  2  0  0  0  0
 17 19  1  0  0  0  0
 18 20  1  0  0  0  0
 18 41  1  0  0  0  0
 19 21  2  0  0  0  0
 19 42  1  0  0  0  0
 20 43  1  0  0  0  0
 21 44  1  0  0  0  0
M  END
> <PUBCHEM_COMPOUND_CID>
56775024

> <PUBCHEM_CONFORMER_RMSD>
0.8

> <PUBCHEM_CONFORMER_DIVERSEORDER>
1
9
22
27
8
5
29
10
23
21
7
6
30
14
11
15
24
13
17
28
3
25
2
18
4
19
20
12
16
26

> <PUBCHEM_MMFF94_PARTIAL_CHARGES>
22
1 -0.56
10 0.27
12 0.57
13 0.34
14 0.44
17 -0.14
18 -0.15
19 -0.15
2 -0.57
20 0.16
21 0.16
3 -0.81
4 -0.66
41 0.15
42 0.15
43 0.15
44 0.15
5 -0.62
6 0.3
7 0.28
8 0.27
9 0.27

> <PUBCHEM_EFFECTIVE_ROTOR_COUNT>
5.2

> <PUBCHEM_PHARMACOPHORE_FEATURES>
8
1 1 acceptor
1 2 acceptor
1 3 cation
1 5 acceptor
3 11 15 16 hydrophobe
5 3 6 7 8 9 rings
6 1 4 6 7 12 13 rings
6 5 17 18 19 20 21 rings

> <PUBCHEM_HEAVY_ATOM_COUNT>
21

> <PUBCHEM_ATOM_DEF_STEREO_COUNT>
2

> <PUBCHEM_ATOM_UDEF_STEREO_COUNT>
0

> <PUBCHEM_BOND_DEF_STEREO_COUNT>
0

> <PUBCHEM_BOND_UDEF_STEREO_COUNT>
0

> <PUBCHEM_ISOTOPIC_ATOM_COUNT>
0

> <PUBCHEM_COMPONENT_COUNT>
1

> <PUBCHEM_CACTVS_TAUTO_COUNT>
2

> <PUBCHEM_CONFORMER_ID>
0362517000000001

> <PUBCHEM_MMFF94_ENERGY>
52.2785

> <PUBCHEM_FEATURE_SELFOVERLAP>
40.749

> <PUBCHEM_SHAPE_FINGERPRINT>
10062212 137 18411706508473234563
10681291 71 9799691519326209274
11265709 11 18408887334514935362
11552529 35 18200310988480992922
11578080 2 18270667749284118281
12422481 6 17908735872150782147
12553582 1 18266764491531507398
12633257 1 17489038084070820371
12788726 201 18270137754571989169
13004483 165 18411689993928063098
13083527 12 18342734165410971492
13134695 92 18262801898853877685
13583140 156 17273679989198365690
13828863 39 15911333594368731426
14341114 328 9511473229629336743
14429115 67 18343024367561112030
1454969 45 18334015017529620806
15099037 8 18335708217342429428
15842332 3 18191896498771235956
17492 89 18048875492348239571
1813 80 17677343714494332542
18186145 218 16878500262883404219
18222031 100 18409733954722183366
19141452 34 18122067494611758168
192875 21 18335706056699657458
200 152 18186802478394495730
20600515 1 17988651778566178449
20621476 51 18193270802501607434
20626108 58 18199742708035748823
20645477 70 17676777568831970058
20671657 53 18336830887338952541
21250096 35 18409728490869752326
22112679 90 18263663804322139440
23402539 116 18411976932082114239
23419403 2 17986647407434141305
23557571 272 17202504233012946080
23559900 14 18340762740930533120
23622692 118 18409167676168932230
24859131 72 18201440237982609710
25147074 1 18261692393322617348
2637199 183 8574437538563873670
3004659 81 18260830414544609438
3027735 51 17387118776525289770
339767 52 18410847768063930394
3729539 64 15864619557955537066
463206 1 18337389456262955043
5104073 3 17986402294320108275
56616090 89 18336252488614780680
5924683 9 18339637816128777826
6338986 31 18410863191095869772
7471813 234 18410007775529063292
76465 3 18411133658071309814
9981440 41 17183622633535952145

> <PUBCHEM_SHAPE_MULTIPOLES>
405.49
9.92
3.35
1.21
4.14
1.16
0
-9.7
0.7
-0.5
-0.3
0.28
0.27
-1.79

> <PUBCHEM_SHAPE_SELFOVERLAP>
850.378

> <PUBCHEM_SHAPE_VOLUME>
229.2

> <PUBCHEM_COORDINATE_TYPE>
2
5
10

$$$$
