75536127
  -OEChem-12032416293D

 53 55  0     1  0  0  0  0  0999 V2000
    2.6452   -2.4656   -1.6964 O   0  0  0  0  0  0  0  0  0  0  0  0
    3.8036   -3.6393    0.5308 O   0  0  0  0  0  0  0  0  0  0  0  0
   -6.6346    0.5446   -0.1477 O   0  0  0  0  0  0  0  0  0  0  0  0
    3.4544    0.7709   -0.2778 N   0  0  0  0  0  0  0  0  0  0  0  0
   -1.8553    0.6639    1.1027 N   0  0  0  0  0  0  0  0  0  0  0  0
   -3.8562    0.1337   -0.0444 N   0  0  0  0  0  0  0  0  0  0  0  0
    2.5540   -0.3488   -0.5603 C   0  0  2  0  0  0  0  0  0  0  0  0
    1.6808   -0.6469    0.6977 C   0  0  2  0  0  0  0  0  0  0  0  0
    3.3700   -1.6299   -0.7952 C   0  0  1  0  0  0  0  0  0  0  0  0
    2.0488   -2.0778    1.1357 C   0  0  0  0  0  0  0  0  0  0  0  0
    3.4548   -2.2712    0.5865 C   0  0  1  0  0  0  0  0  0  0  0  0
    0.1956   -0.4538    0.4785 C   0  0  0  0  0  0  0  0  0  0  0  0
    2.7536    2.0422   -0.3903 C   0  0  0  0  0  0  0  0  0  0  0  0
    3.6837    3.2474   -0.1690 C   0  0  0  0  0  0  0  0  0  0  0  0
   -0.4851   -1.1737   -0.4972 C   0  0  0  0  0  0  0  0  0  0  0  0
   -0.5289    0.4447    1.2450 C   0  0  0  0  0  0  0  0  0  0  0  0
   -1.8501   -0.9758   -0.6737 C   0  0  0  0  0  0  0  0  0  0  0  0
   -2.4830   -0.0540    0.1444 C   0  0  0  0  0  0  0  0  0  0  0  0
    4.3001    3.1742    1.2305 C   0  0  0  0  0  0  0  0  0  0  0  0
    4.7962    3.3311   -1.2173 C   0  0  0  0  0  0  0  0  0  0  0  0
   -4.4231    1.4560    0.2538 C   0  0  0  0  0  0  0  0  0  0  0  0
   -4.7788   -0.9942    0.1255 C   0  0  0  0  0  0  0  0  0  0  0  0
   -5.7542    1.6208   -0.4706 C   0  0  0  0  0  0  0  0  0  0  0  0
   -6.0916   -0.6985   -0.5913 C   0  0  0  0  0  0  0  0  0  0  0  0
    1.9508   -0.1289   -1.4502 H   0  0  0  0  0  0  0  0  0  0  0  0
    1.9881    0.0139    1.5218 H   0  0  0  0  0  0  0  0  0  0  0  0
    4.3612   -1.4689   -1.2317 H   0  0  0  0  0  0  0  0  0  0  0  0
    2.0227   -2.1895    2.2256 H   0  0  0  0  0  0  0  0  0  0  0  0
    1.3699   -2.8402    0.7344 H   0  0  0  0  0  0  0  0  0  0  0  0
    4.1867   -1.7434    1.2098 H   0  0  0  0  0  0  0  0  0  0  0  0
    4.2226    0.7541   -0.9473 H   0  0  0  0  0  0  0  0  0  0  0  0
    1.9413    2.1013    0.3427 H   0  0  0  0  0  0  0  0  0  0  0  0
    2.2985    2.1386   -1.3844 H   0  0  0  0  0  0  0  0  0  0  0  0
    2.6080   -2.0072   -2.5532 H   0  0  0  0  0  0  0  0  0  0  0  0
    3.7468   -3.9926    1.4350 H   0  0  0  0  0  0  0  0  0  0  0  0
    3.0781    4.1599   -0.2361 H   0  0  0  0  0  0  0  0  0  0  0  0
    0.0288   -1.8897   -1.1310 H   0  0  0  0  0  0  0  0  0  0  0  0
   -0.0568    1.0370    2.0227 H   0  0  0  0  0  0  0  0  0  0  0  0
   -2.3772   -1.5274   -1.4453 H   0  0  0  0  0  0  0  0  0  0  0  0
    4.9748    2.3189    1.3434 H   0  0  0  0  0  0  0  0  0  0  0  0
    4.8807    4.0799    1.4378 H   0  0  0  0  0  0  0  0  0  0  0  0
    3.5215    3.0992    1.9972 H   0  0  0  0  0  0  0  0  0  0  0  0
    5.5110    2.5064   -1.1333 H   0  0  0  0  0  0  0  0  0  0  0  0
    5.3586    4.2640   -1.0998 H   0  0  0  0  0  0  0  0  0  0  0  0
    4.3775    3.3211   -2.2290 H   0  0  0  0  0  0  0  0  0  0  0  0
   -3.7457    2.2575   -0.0640 H   0  0  0  0  0  0  0  0  0  0  0  0
   -4.5761    1.5412    1.3367 H   0  0  0  0  0  0  0  0  0  0  0  0
   -4.9645   -1.1325    1.1978 H   0  0  0  0  0  0  0  0  0  0  0  0
   -4.3658   -1.9303   -0.2653 H   0  0  0  0  0  0  0  0  0  0  0  0
   -6.2351    2.5540   -0.1607 H   0  0  0  0  0  0  0  0  0  0  0  0
   -5.6150    1.6639   -1.5577 H   0  0  0  0  0  0  0  0  0  0  0  0
   -6.8225   -1.4827   -0.3697 H   0  0  0  0  0  0  0  0  0  0  0  0
   -5.9550   -0.6695   -1.6792 H   0  0  0  0  0  0  0  0  0  0  0  0
  1  9  1  0  0  0  0
  1 34  1  0  0  0  0
  2 11  1  0  0  0  0
  2 35  1  0  0  0  0
  3 23  1  0  0  0  0
  3 24  1  0  0  0  0
  4  7  1  0  0  0  0
  4 13  1  0  0  0  0
  4 31  1  0  0  0  0
  5 16  1  0  0  0  0
  5 18  2  0  0  0  0
  6 18  1  0  0  0  0
  6 21  1  0  0  0  0
  6 22  1  0  0  0  0
  7  8  1  0  0  0  0
  7  9  1  0  0  0  0
  7 25  1  0  0  0  0
  8 10  1  0  0  0  0
  8 12  1  0  0  0  0
  8 26  1  0  0  0  0
  9 11  1  0  0  0  0
  9 27  1  0  0  0  0
 10 11  1  0  0  0  0
 10 28  1  0  0  0  0
 10 29  1  0  0  0  0
 11 30  1  0  0  0  0
 12 15  1  0  0  0  0
 12 16  2  0  0  0  0
 13 14  1  0  0  0  0
 13 32  1  0  0  0  0
 13 33  1  0  0  0  0
 14 19  1  0  0  0  0
 14 20  1  0  0  0  0
 14 36  1  0  0  0  0
 15 17  2  0  0  0  0
 15 37  1  0  0  0  0
 16 38  1  0  0  0  0
 17 18  1  0  0  0  0
 17 39  1  0  0  0  0
 19 40  1  0  0  0  0
 19 41  1  0  0  0  0
 19 42  1  0  0  0  0
 20 43  1  0  0  0  0
 20 44  1  0  0  0  0
 20 45  1  0  0  0  0
 21 23  1  0  0  0  0
 21 46  1  0  0  0  0
 21 47  1  0  0  0  0
 22 24  1  0  0  0  0
 22 48  1  0  0  0  0
 22 49  1  0  0  0  0
 23 50  1  0  0  0  0
 23 51  1  0  0  0  0
 24 52  1  0  0  0  0
 24 53  1  0  0  0  0
M  END
> <PUBCHEM_COMPOUND_CID>
75536127

> <PUBCHEM_CONFORMER_RMSD>
0.8

> <PUBCHEM_CONFORMER_DIVERSEORDER>
4
86
51
14
80
41
64
33
39
71
43
44
19
27
53
75
61
84
26
47
62
11
42
8
58
48
89
73
54
37
56
79
6
49
91
59
31
90
77
3
34
74
9
67
72
52
78
20
23
82
60
13
55
28
83
57
25
45
36
46
81
87
70
35
63
85
15
30
24
50
10
17
69
16
65
18
22
68
40
38
12
29
32
76
1
88
7
2
66
5
21

> <PUBCHEM_MMFF94_PARTIAL_CHARGES>
26
1 -0.68
11 0.28
12 -0.14
13 0.27
15 -0.15
16 0.16
17 -0.15
18 0.41
2 -0.68
21 0.37
22 0.37
23 0.28
24 0.28
3 -0.56
31 0.36
34 0.4
35 0.4
37 0.15
38 0.15
39 0.15
4 -0.9
5 -0.62
6 -0.84
7 0.27
8 0.14
9 0.28

> <PUBCHEM_EFFECTIVE_ROTOR_COUNT>
7.2

> <PUBCHEM_PHARMACOPHORE_FEATURES>
12
1 1 acceptor
1 1 donor
1 2 acceptor
1 2 donor
1 3 acceptor
1 4 cation
1 4 donor
3 14 19 20 hydrophobe
3 5 6 18 cation
5 7 8 9 10 11 rings
6 3 6 21 22 23 24 rings
6 5 12 15 16 17 18 rings

> <PUBCHEM_HEAVY_ATOM_COUNT>
24

> <PUBCHEM_ATOM_DEF_STEREO_COUNT>
4

> <PUBCHEM_ATOM_UDEF_STEREO_COUNT>
0

> <PUBCHEM_BOND_DEF_STEREO_COUNT>
0

> <PUBCHEM_BOND_UDEF_STEREO_COUNT>
0

> <PUBCHEM_ISOTOPIC_ATOM_COUNT>
0

> <PUBCHEM_COMPONENT_COUNT>
1

> <PUBCHEM_CACTVS_TAUTO_COUNT>
1

> <PUBCHEM_CONFORMER_ID>
048096FF00000004

> <PUBCHEM_MMFF94_ENERGY>
72.7971

> <PUBCHEM_FEATURE_SELFOVERLAP>
60.904

> <PUBCHEM_SHAPE_FINGERPRINT>
10411042 1 18048031870956624890
10554248 39 18058722508575874069
10595046 47 18411417341426095229
11135609 127 18341599422251226153
12166972 35 18129095628502208122
12293681 160 17701551825322974424
12633257 1 15575273327846709469
12730499 353 18335712688139517234
12769317 202 18340200907616374240
12788726 201 17346610663951075393
13150687 139 17845382210128251268
13590594 115 18047479928714025192
13878862 14 18116693180491333621
13955234 65 18408040706377766698
14461889 52 18042126634299943459
14528608 73 18410294726868553845
15664445 248 18197225750185034286
15961568 22 18113899402933917517
17844677 252 18337113363496639233
1813 80 18126571111635834366
18681886 176 18270957947560686650
20157964 124 18408602574146881557
20369508 70 18188206486208734186
20554085 129 17987508390233170800
20645477 70 18341898471706208270
21033648 29 16805315575312382685
21304303 282 17483374693883292118
21344244 78 18268411461624286634
21403212 168 18338506539645879184
21452121 103 18335413586801867408
23559900 14 18271805679198677594
23569914 2 17392989181372125269
239999 70 18341050735472764230
3004659 81 18201719505267008743
3411729 13 18334853957011179088
34797466 226 18412831283383066677
4340502 62 18115025320025338547
46194498 28 18341337699538401620
474 4 18263365944488033328
495365 180 17821730524496283098
5104073 3 18334298660979253579
57091435 61 18337670939940155688
59755656 215 18408606976668052436
6327066 14 18047194339348964884
633830 44 18408878513143044679
6695519 79 17982470474328962298
67856867 119 18412257341948984360
77188 2 18119525432824982050
90127 26 18333740091881943617
9841814 1 18187920617701818314
9981440 41 18121214544366651760

> <PUBCHEM_SHAPE_MULTIPOLES>
461.36
13.63
3.81
1.16
19.98
0.8
0.01
6.84
2.11
-8.3
0.12
-0.92
-0.03
-0.39

> <PUBCHEM_SHAPE_SELFOVERLAP>
955.946

> <PUBCHEM_SHAPE_VOLUME>
264.4

> <PUBCHEM_COORDINATE_TYPE>
2
5
10

$$$$
