11939785
  -OEChem-12032416353D

 63 67  0     1  0  0  0  0  0999 V2000
    0.9615    0.5048   -1.9053 O   0  0  0  0  0  0  0  0  0  0  0  0
    2.2214    3.3136   -1.3951 O   0  0  0  0  0  0  0  0  0  0  0  0
    5.6066   -0.3282   -1.7354 O   0  0  0  0  0  0  0  0  0  0  0  0
    6.4468   -3.0449    2.2932 O   0  0  0  0  0  0  0  0  0  0  0  0
    3.7107    0.0880   -0.5122 N   0  0  0  0  0  0  0  0  0  0  0  0
   -0.4609    3.1718    0.1423 N   0  0  0  0  0  0  0  0  0  0  0  0
    5.2661   -1.5372    0.2146 N   0  0  0  0  0  0  0  0  0  0  0  0
   -2.2098    1.6280    0.3949 N   0  0  0  0  0  0  0  0  0  0  0  0
   -1.8554    3.3728    2.0189 N   0  0  0  0  0  0  0  0  0  0  0  0
   -5.9757   -3.2988   -0.9203 N   0  0  0  0  0  0  0  0  0  0  0  0
    2.2870    2.0625   -0.6906 C   0  0  1  0  0  0  0  0  0  0  0  0
    0.9200    1.4148   -0.7930 C   0  0  1  0  0  0  0  0  0  0  0  0
    3.2046    1.1011   -1.4109 C   0  0  2  0  0  0  0  0  0  0  0  0
   -0.0125    2.5648   -1.0918 C   0  0  2  0  0  0  0  0  0  0  0  0
    2.2857    0.4982   -2.4585 C   0  0  0  0  0  0  0  0  0  0  0  0
    0.8789    3.5263   -1.8562 C   0  0  0  0  0  0  0  0  0  0  0  0
    4.9105   -0.5740   -0.7447 C   0  0  0  0  0  0  0  0  0  0  0  0
   -1.5407    2.7104    0.8740 C   0  0  0  0  0  0  0  0  0  0  0  0
    6.4220   -2.4012   -0.0356 C   0  0  0  0  0  0  0  0  0  0  0  0
    4.4966   -1.8885    1.4167 C   0  0  0  0  0  0  0  0  0  0  0  0
    7.2615   -2.5665    1.2213 C   0  0  0  0  0  0  0  0  0  0  0  0
    5.4221   -2.1020    2.6097 C   0  0  0  0  0  0  0  0  0  0  0  0
   -3.2572    1.2052    1.1328 C   0  0  0  0  0  0  0  0  0  0  0  0
   -2.9136    2.8963    2.7070 C   0  0  0  0  0  0  0  0  0  0  0  0
   -3.6590    1.8056    2.3086 C   0  0  0  0  0  0  0  0  0  0  0  0
   -3.9525    0.0547    0.6072 C   0  0  0  0  0  0  0  0  0  0  0  0
   -5.3175   -0.1117    0.8513 C   0  0  0  0  0  0  0  0  0  0  0  0
   -3.2621   -0.8976   -0.1460 C   0  0  0  0  0  0  0  0  0  0  0  0
   -5.9887   -1.2246    0.3448 C   0  0  0  0  0  0  0  0  0  0  0  0
   -3.9334   -2.0103   -0.6527 C   0  0  0  0  0  0  0  0  0  0  0  0
   -5.2966   -2.1740   -0.4073 C   0  0  0  0  0  0  0  0  0  0  0  0
   -5.5482   -3.9102   -2.1629 C   0  0  0  0  0  0  0  0  0  0  0  0
   -7.1182   -3.8491   -0.2187 C   0  0  0  0  0  0  0  0  0  0  0  0
    2.5830    2.2810    0.3405 H   0  0  0  0  0  0  0  0  0  0  0  0
    0.6601    0.8294    0.0948 H   0  0  0  0  0  0  0  0  0  0  0  0
    4.0505    1.6046   -1.8912 H   0  0  0  0  0  0  0  0  0  0  0  0
   -0.8663    2.2889   -1.7212 H   0  0  0  0  0  0  0  0  0  0  0  0
    2.2629    1.1173   -3.3621 H   0  0  0  0  0  0  0  0  0  0  0  0
    2.5514   -0.5231   -2.7481 H   0  0  0  0  0  0  0  0  0  0  0  0
    0.6137    4.5798   -1.7243 H   0  0  0  0  0  0  0  0  0  0  0  0
    0.8664    3.3017   -2.9285 H   0  0  0  0  0  0  0  0  0  0  0  0
    3.0750   -0.2412    0.2023 H   0  0  0  0  0  0  0  0  0  0  0  0
    0.0620    3.9462    0.5354 H   0  0  0  0  0  0  0  0  0  0  0  0
    6.0170   -3.3714   -0.3472 H   0  0  0  0  0  0  0  0  0  0  0  0
    7.0365   -2.0155   -0.8544 H   0  0  0  0  0  0  0  0  0  0  0  0
    3.7623   -1.1275    1.6819 H   0  0  0  0  0  0  0  0  0  0  0  0
    3.9632   -2.8162    1.1798 H   0  0  0  0  0  0  0  0  0  0  0  0
    8.0561   -3.2992    1.0494 H   0  0  0  0  0  0  0  0  0  0  0  0
    7.7337   -1.6218    1.5161 H   0  0  0  0  0  0  0  0  0  0  0  0
    5.8846   -1.1592    2.9260 H   0  0  0  0  0  0  0  0  0  0  0  0
    4.8536   -2.4945    3.4587 H   0  0  0  0  0  0  0  0  0  0  0  0
   -3.1499    3.4302    3.6212 H   0  0  0  0  0  0  0  0  0  0  0  0
   -4.4821    1.4620    2.9217 H   0  0  0  0  0  0  0  0  0  0  0  0
   -5.9008    0.6169    1.4081 H   0  0  0  0  0  0  0  0  0  0  0  0
   -2.1965   -0.8071   -0.3442 H   0  0  0  0  0  0  0  0  0  0  0  0
   -7.0539   -1.3134    0.5388 H   0  0  0  0  0  0  0  0  0  0  0  0
   -3.3627   -2.7383   -1.2224 H   0  0  0  0  0  0  0  0  0  0  0  0
   -6.3434   -4.5297   -2.5928 H   0  0  0  0  0  0  0  0  0  0  0  0
   -5.2959   -3.1548   -2.9157 H   0  0  0  0  0  0  0  0  0  0  0  0
   -4.6800   -4.5569   -1.9985 H   0  0  0  0  0  0  0  0  0  0  0  0
   -8.0195   -3.2621   -0.4242 H   0  0  0  0  0  0  0  0  0  0  0  0
   -7.3168   -4.8794   -0.5348 H   0  0  0  0  0  0  0  0  0  0  0  0
   -6.9484   -3.8796    0.8636 H   0  0  0  0  0  0  0  0  0  0  0  0
  1 12  1  0  0  0  0
  1 15  1  0  0  0  0
  2 11  1  0  0  0  0
  2 16  1  0  0  0  0
  3 17  2  0  0  0  0
  4 21  1  0  0  0  0
  4 22  1  0  0  0  0
  5 13  1  0  0  0  0
  5 17  1  0  0  0  0
  5 42  1  0  0  0  0
  6 14  1  0  0  0  0
  6 18  1  0  0  0  0
  6 43  1  0  0  0  0
  7 17  1  0  0  0  0
  7 19  1  0  0  0  0
  7 20  1  0  0  0  0
  8 18  1  0  0  0  0
  8 23  2  0  0  0  0
  9 18  2  0  0  0  0
  9 24  1  0  0  0  0
 10 31  1  0  0  0  0
 10 32  1  0  0  0  0
 10 33  1  0  0  0  0
 11 12  1  0  0  0  0
 11 13  1  0  0  0  0
 11 34  1  0  0  0  0
 12 14  1  0  0  0  0
 12 35  1  0  0  0  0
 13 15  1  0  0  0  0
 13 36  1  0  0  0  0
 14 16  1  0  0  0  0
 14 37  1  0  0  0  0
 15 38  1  0  0  0  0
 15 39  1  0  0  0  0
 16 40  1  0  0  0  0
 16 41  1  0  0  0  0
 19 21  1  0  0  0  0
 19 44  1  0  0  0  0
 19 45  1  0  0  0  0
 20 22  1  0  0  0  0
 20 46  1  0  0  0  0
 20 47  1  0  0  0  0
 21 48  1  0  0  0  0
 21 49  1  0  0  0  0
 22 50  1  0  0  0  0
 22 51  1  0  0  0  0
 23 25  1  0  0  0  0
 23 26  1  0  0  0  0
 24 25  2  0  0  0  0
 24 52  1  0  0  0  0
 25 53  1  0  0  0  0
 26 27  2  0  0  0  0
 26 28  1  0  0  0  0
 27 29  1  0  0  0  0
 27 54  1  0  0  0  0
 28 30  2  0  0  0  0
 28 55  1  0  0  0  0
 29 31  2  0  0  0  0
 29 56  1  0  0  0  0
 30 31  1  0  0  0  0
 30 57  1  0  0  0  0
 32 58  1  0  0  0  0
 32 59  1  0  0  0  0
 32 60  1  0  0  0  0
 33 61  1  0  0  0  0
 33 62  1  0  0  0  0
 33 63  1  0  0  0  0
M  END
> <PUBCHEM_COMPOUND_CID>
11939785

> <PUBCHEM_CONFORMER_RMSD>
1

> <PUBCHEM_CONFORMER_DIVERSEORDER>
1
17
53
37
12
19
35
10
48
18
30
20
13
56
32
25
6
38
14
51
7
55
47
39
54
27
9
50
23
21
15
58
5
44
52
31
40
4
59
22
11
57
43
36
29
34
24
16
41
42
49
26
28
45
3
46
33
8
2

> <PUBCHEM_MMFF94_PARTIAL_CHARGES>
40
1 -0.56
10 -0.84
11 0.28
12 0.28
13 0.3
14 0.37
15 0.28
16 0.28
17 0.69
18 0.72
19 0.3
2 -0.56
20 0.3
21 0.28
22 0.28
23 0.31
24 0.16
25 -0.15
27 -0.15
28 -0.15
29 -0.15
3 -0.57
30 -0.15
31 0.1
32 0.37
33 0.37
4 -0.56
42 0.37
43 0.4
5 -0.73
52 0.15
53 0.15
54 0.15
55 0.15
56 0.15
57 0.15
6 -0.87
7 -0.66
8 -0.62
9 -0.62

> <PUBCHEM_EFFECTIVE_ROTOR_COUNT>
9.4

> <PUBCHEM_PHARMACOPHORE_FEATURES>
14
1 1 acceptor
1 10 cation
1 2 acceptor
1 3 acceptor
1 4 acceptor
1 5 donor
1 6 donor
1 8 acceptor
4 6 8 9 18 cation
5 1 11 12 13 15 rings
5 2 11 12 14 16 rings
6 26 27 28 29 30 31 rings
6 4 7 19 20 21 22 rings
6 8 9 18 23 24 25 rings

> <PUBCHEM_HEAVY_ATOM_COUNT>
33

> <PUBCHEM_ATOM_DEF_STEREO_COUNT>
4

> <PUBCHEM_ATOM_UDEF_STEREO_COUNT>
0

> <PUBCHEM_BOND_DEF_STEREO_COUNT>
0

> <PUBCHEM_BOND_UDEF_STEREO_COUNT>
0

> <PUBCHEM_ISOTOPIC_ATOM_COUNT>
0

> <PUBCHEM_COMPONENT_COUNT>
1

> <PUBCHEM_CACTVS_TAUTO_COUNT>
6

> <PUBCHEM_CONFORMER_ID>
00B62FC900000001

> <PUBCHEM_MMFF94_ENERGY>
109.5475

> <PUBCHEM_FEATURE_SELFOVERLAP>
71.755

> <PUBCHEM_SHAPE_FINGERPRINT>
10049733 73 17758948230621668042
10254770 206 18130499838502085071
10319688 77 18040435452009226252
10319926 262 17703233897497608032
10622 236 18409730694451466103
11135926 11 16952286250973051196
11211813 140 18261668186406837307
11227150 75 18267566057051980199
11478447 58 17907572880359296886
11607047 403 18053933228982857088
12104220 4 10231763339613385858
12166972 35 18261958569598920023
12559416 138 17822578183948935026
12977781 61 18045467959626670484
131258 38 17693926793361146767
14068700 675 18411696590971475843
14344974 204 18266736892848039358
14395042 24 18271537425381180595
14950920 106 18200869553436991872
15163728 17 10735580424317663136
15320294 125 18341063926097428581
16989713 51 18044376029322358702
19032999 76 18412543197597463265
19315092 285 18412260645206642584
19319366 153 17548984802690604293
19841028 212 18337955709520623467
20156587 76 17985796381565757509
208703 8 18408037420522400622
21033648 29 16414638142591210832
21458453 9 16414904357269082761
21585483 132 18265889336411728775
23569914 152 11964486884297074952
25025965 108 17388522823690573650
397830 11 18131059404321087088
44880168 125 17978801103996442734
45266715 3 17896035628092169152
46194498 28 14419859204973724932
4760202 70 18262246616524479180
484985 159 18189892024717674605
50009960 94 18058149782681021207
50080093 196 18189619336880801963
5047190 6 17313927637850261762
57035037 87 13398352314647307041
5874358 3 17241310384405072642
59025328 239 18040714826667833877
6058803 2 18194993870235105741
6431902 208 17024606495077251792
6691757 9 17986117310265861817
96874 4 18334009484652167482

> <PUBCHEM_SHAPE_MULTIPOLES>
625.76
19.04
5.59
2.56
8.34
0.33
-0.7
29.3
-4.28
-3.8
-0.12
1.57
-0.6
-8.21

> <PUBCHEM_SHAPE_SELFOVERLAP>
1346.74

> <PUBCHEM_SHAPE_VOLUME>
343.7

> <PUBCHEM_COORDINATE_TYPE>
2
5
10

$$$$
