71693544
  -OEChem-12032416233D

 55 56  0     1  0  0  0  0  0999 V2000
    2.6295    1.7955    0.7989 O   0  0  0  0  0  0  0  0  0  0  0  0
    2.7064   -0.6391   -2.5532 O   0  0  0  0  0  0  0  0  0  0  0  0
    6.1309    1.2701    0.4024 O   0  0  0  0  0  0  0  0  0  0  0  0
   -4.4517    1.3454   -1.2176 O   0  0  0  0  0  0  0  0  0  0  0  0
    4.3656   -0.1353   -0.1823 N   0  0  0  0  0  0  0  0  0  0  0  0
   -3.4974    0.3882    0.7027 N   0  0  0  0  0  0  0  0  0  0  0  0
    6.3132   -3.2340    0.5798 N   0  0  0  0  0  0  0  0  0  0  0  0
    2.9022   -0.3780   -0.1864 C   0  0  1  0  0  0  0  0  0  0  0  0
    2.1176    0.9475   -0.2300 C   0  0  1  0  0  0  0  0  0  0  0  0
    2.4630   -1.3034   -1.3302 C   0  0  0  0  0  0  0  0  0  0  0  0
    0.6308    0.7987    0.0170 C   0  0  0  0  0  0  0  0  0  0  0  0
    5.2514   -1.2714   -0.4207 C   0  0  0  0  0  0  0  0  0  0  0  0
    4.9233    1.0657    0.2607 C   0  0  0  0  0  0  0  0  0  0  0  0
    3.9461    2.1979    0.5068 C   0  0  0  0  0  0  0  0  0  0  0  0
   -6.4388   -0.9404    0.1311 C   0  0  0  0  0  0  0  0  0  0  0  0
   -5.9020    0.4706    0.4713 C   0  0  0  0  0  0  0  0  0  0  0  0
    5.4503   -2.0904    0.8462 C   0  0  0  0  0  0  0  0  0  0  0  0
    0.1750    0.1876    1.1851 C   0  0  0  0  0  0  0  0  0  0  0  0
   -0.2830    1.2734   -0.9240 C   0  0  0  0  0  0  0  0  0  0  0  0
   -7.8239   -1.0950    0.7895 C   0  0  0  0  0  0  0  0  0  0  0  0
   -6.5999   -1.1198   -1.3877 C   0  0  0  0  0  0  0  0  0  0  0  0
   -5.5164   -2.0426    0.6771 C   0  0  0  0  0  0  0  0  0  0  0  0
   -2.1081    0.5263    0.4715 C   0  0  0  0  0  0  0  0  0  0  0  0
   -1.1944    0.0515    1.4125 C   0  0  0  0  0  0  0  0  0  0  0  0
   -1.6524    1.1373   -0.6967 C   0  0  0  0  0  0  0  0  0  0  0  0
   -4.5373    0.7937   -0.1238 C   0  0  0  0  0  0  0  0  0  0  0  0
    2.7124   -0.8896    0.7650 H   0  0  0  0  0  0  0  0  0  0  0  0
    2.2715    1.4551   -1.1923 H   0  0  0  0  0  0  0  0  0  0  0  0
    1.3895   -1.5112   -1.2655 H   0  0  0  0  0  0  0  0  0  0  0  0
    2.9601   -2.2762   -1.3245 H   0  0  0  0  0  0  0  0  0  0  0  0
    4.9122   -1.8757   -1.2637 H   0  0  0  0  0  0  0  0  0  0  0  0
    6.2278   -0.8779   -0.7338 H   0  0  0  0  0  0  0  0  0  0  0  0
    4.3089    2.7768    1.3625 H   0  0  0  0  0  0  0  0  0  0  0  0
    3.9493    2.8581   -0.3682 H   0  0  0  0  0  0  0  0  0  0  0  0
   -6.5998    1.2373    0.1090 H   0  0  0  0  0  0  0  0  0  0  0  0
   -5.8518    0.6032    1.5602 H   0  0  0  0  0  0  0  0  0  0  0  0
    5.8908   -1.4746    1.6383 H   0  0  0  0  0  0  0  0  0  0  0  0
    4.4883   -2.4579    1.2188 H   0  0  0  0  0  0  0  0  0  0  0  0
    0.8690   -0.1782    1.9366 H   0  0  0  0  0  0  0  0  0  0  0  0
    0.0581    1.7512   -1.8386 H   0  0  0  0  0  0  0  0  0  0  0  0
   -8.5239   -0.3361    0.4220 H   0  0  0  0  0  0  0  0  0  0  0  0
   -8.2587   -2.0782    0.5764 H   0  0  0  0  0  0  0  0  0  0  0  0
   -7.7581   -0.9899    1.8784 H   0  0  0  0  0  0  0  0  0  0  0  0
   -7.2362   -0.3357   -1.8130 H   0  0  0  0  0  0  0  0  0  0  0  0
   -5.6340   -1.0849   -1.9028 H   0  0  0  0  0  0  0  0  0  0  0  0
   -7.0599   -2.0861   -1.6243 H   0  0  0  0  0  0  0  0  0  0  0  0
   -4.5492   -2.0561    0.1645 H   0  0  0  0  0  0  0  0  0  0  0  0
   -5.9644   -3.0333    0.5364 H   0  0  0  0  0  0  0  0  0  0  0  0
   -5.3348   -1.9134    1.7497 H   0  0  0  0  0  0  0  0  0  0  0  0
   -1.5365   -0.4243    2.3280 H   0  0  0  0  0  0  0  0  0  0  0  0
   -2.2970    1.5304   -1.4701 H   0  0  0  0  0  0  0  0  0  0  0  0
    2.4020   -1.2267   -3.2655 H   0  0  0  0  0  0  0  0  0  0  0  0
   -3.7420   -0.0595    1.5829 H   0  0  0  0  0  0  0  0  0  0  0  0
    7.2263   -2.9095    0.2640 H   0  0  0  0  0  0  0  0  0  0  0  0
    6.4758   -3.7444    1.4468 H   0  0  0  0  0  0  0  0  0  0  0  0
  1  9  1  0  0  0  0
  1 14  1  0  0  0  0
  2 10  1  0  0  0  0
  2 52  1  0  0  0  0
  3 13  2  0  0  0  0
  4 26  2  0  0  0  0
  5  8  1  0  0  0  0
  5 12  1  0  0  0  0
  5 13  1  0  0  0  0
  6 23  1  0  0  0  0
  6 26  1  0  0  0  0
  6 53  1  0  0  0  0
  7 17  1  0  0  0  0
  7 54  1  0  0  0  0
  7 55  1  0  0  0  0
  8  9  1  0  0  0  0
  8 10  1  0  0  0  0
  8 27  1  0  0  0  0
  9 11  1  0  0  0  0
  9 28  1  0  0  0  0
 10 29  1  0  0  0  0
 10 30  1  0  0  0  0
 11 18  2  0  0  0  0
 11 19  1  0  0  0  0
 12 17  1  0  0  0  0
 12 31  1  0  0  0  0
 12 32  1  0  0  0  0
 13 14  1  0  0  0  0
 14 33  1  0  0  0  0
 14 34  1  0  0  0  0
 15 16  1  0  0  0  0
 15 20  1  0  0  0  0
 15 21  1  0  0  0  0
 15 22  1  0  0  0  0
 16 26  1  0  0  0  0
 16 35  1  0  0  0  0
 16 36  1  0  0  0  0
 17 37  1  0  0  0  0
 17 38  1  0  0  0  0
 18 24  1  0  0  0  0
 18 39  1  0  0  0  0
 19 25  2  0  0  0  0
 19 40  1  0  0  0  0
 20 41  1  0  0  0  0
 20 42  1  0  0  0  0
 20 43  1  0  0  0  0
 21 44  1  0  0  0  0
 21 45  1  0  0  0  0
 21 46  1  0  0  0  0
 22 47  1  0  0  0  0
 22 48  1  0  0  0  0
 22 49  1  0  0  0  0
 23 24  2  0  0  0  0
 23 25  1  0  0  0  0
 24 50  1  0  0  0  0
 25 51  1  0  0  0  0
M  END
> <PUBCHEM_COMPOUND_CID>
71693544

> <PUBCHEM_CONFORMER_RMSD>
1

> <PUBCHEM_CONFORMER_DIVERSEORDER>
1
48
51
50
29
37
31
20
52
40
34
15
46
19
8
55
30
4
22
27
18
35
33
38
43
25
54
16
53
6
28
39
13
32
24
9
2
21
12
41
45
14
47
56
57
36
42
3
5
7
17
49
44
11
26
23
10

> <PUBCHEM_MMFF94_PARTIAL_CHARGES>
30
1 -0.56
10 0.28
11 -0.14
12 0.3
13 0.57
14 0.34
16 0.06
17 0.27
18 -0.15
19 -0.15
2 -0.68
23 0.12
24 -0.15
25 -0.15
26 0.57
3 -0.57
39 0.15
4 -0.57
40 0.15
5 -0.66
50 0.15
51 0.15
52 0.4
53 0.37
54 0.36
55 0.36
6 -0.55
7 -0.99
8 0.3
9 0.42

> <PUBCHEM_EFFECTIVE_ROTOR_COUNT>
9

> <PUBCHEM_PHARMACOPHORE_FEATURES>
11
1 1 acceptor
1 2 acceptor
1 2 donor
1 3 acceptor
1 4 acceptor
1 6 donor
1 7 cation
1 7 donor
4 15 20 21 22 hydrophobe
6 1 5 8 9 13 14 rings
6 11 18 19 23 24 25 rings

> <PUBCHEM_HEAVY_ATOM_COUNT>
26

> <PUBCHEM_ATOM_DEF_STEREO_COUNT>
2

> <PUBCHEM_ATOM_UDEF_STEREO_COUNT>
0

> <PUBCHEM_BOND_DEF_STEREO_COUNT>
0

> <PUBCHEM_BOND_UDEF_STEREO_COUNT>
0

> <PUBCHEM_ISOTOPIC_ATOM_COUNT>
0

> <PUBCHEM_COMPONENT_COUNT>
1

> <PUBCHEM_CACTVS_TAUTO_COUNT>
6

> <PUBCHEM_CONFORMER_ID>
0445F4E800000001

> <PUBCHEM_MMFF94_ENERGY>
69.8171

> <PUBCHEM_FEATURE_SELFOVERLAP>
55.821

> <PUBCHEM_SHAPE_FINGERPRINT>
10 15 12895353300822190187
106641 1 18060129930867623586
10670039 82 15864351285971687031
10763959 59 10665233661149539695
11089746 13 12612748043242883197
11135609 99 18409165494426597414
11719270 70 17775286045084696111
12166972 35 17821453451697767477
12236239 1 16988847172121250592
12516196 113 18343585161546393833
12616971 3 17346873455614430165
13073987 5 18341895173308780561
13533116 47 18412824690255034520
13685833 64 18411985762951469851
13782708 43 18335981986789114863
14294032 229 16010139884017759045
15183329 4 13984661438864008815
15352257 5 18410294713973478995
15537594 2 15985107422862441981
15716309 27 18131071550340718023
17844677 252 18341058462778312913
18222031 100 17313104159153598845
18335252 98 18334016124649955936
19377110 9 16630535028842867811
19958102 18 18114176445815341459
2026 5 18337951195631925123
20281389 69 11167950151835500603
21130935 74 18411419483828974763
21150785 3 17095244756293646045
21267235 1 17632305540877793740
21623969 137 17846224371119799671
21637258 2 18272645740942728907
21641784 216 14562804413698116919
22224240 67 18059289967896659424
23522609 53 18122659151837539849
23536379 177 18343585144619530945
23559900 14 17458357325290799460
23569943 247 17897723171977005403
2838139 119 12973877122780018607
29717793 49 16805325500148178191
4073 2 18189619521516006778
4325135 7 18272653484278185740
4340502 62 17775006816401923580
465052 167 18343019965688592806
5104073 3 18131349670431461440
5718773 13 18262797350974446210
59755656 215 17167858651659914315
7495541 125 17489304230879262217

> <PUBCHEM_SHAPE_MULTIPOLES>
496.65
19.73
2.25
1.35
17.63
1.13
-0.54
10.22
1.7
-3.21
0.29
0.1
0.24
0.47

> <PUBCHEM_SHAPE_SELFOVERLAP>
1020.004

> <PUBCHEM_SHAPE_VOLUME>
283.1

> <PUBCHEM_COORDINATE_TYPE>
2
5
10

$$$$
