45783583
  -OEChem-12032416393D

 62 67  0     1  0  0  0  0  0999 V2000
   -4.4706   -1.4389   -0.4908 O   0  0  0  0  0  0  0  0  0  0  0  0
    3.0544   -2.4641   -0.8976 O   0  0  0  0  0  0  0  0  0  0  0  0
    4.2904    0.3838    1.0690 N   0  0  1  0  0  0  0  0  0  0  0  0
    1.7951   -1.0810    0.3345 N   0  0  0  0  0  0  0  0  0  0  0  0
    1.9400    1.7136   -2.5743 N   0  0  0  0  0  0  0  0  0  0  0  0
    1.7253   -2.7259   -1.2539 N   0  0  0  0  0  0  0  0  0  0  0  0
   -2.4091   -0.7563    0.3252 N   0  0  0  0  0  0  0  0  0  0  0  0
    4.3344   -1.0147    0.5971 C   0  0  1  0  0  0  0  0  0  0  0  0
    4.7865   -1.8274    1.8244 C   0  0  0  0  0  0  0  0  0  0  0  0
    5.2732    0.4872    2.1478 C   0  0  0  0  0  0  0  0  0  0  0  0
    5.0308   -0.7959    2.9166 C   0  0  0  0  0  0  0  0  0  0  0  0
    4.5343    1.3552    0.0103 C   0  0  0  0  0  0  0  0  0  0  0  0
   -5.0155   -0.4719    0.4005 C   0  0  0  0  0  0  0  0  0  0  0  0
    3.0059   -1.4840    0.0423 C   0  0  0  0  0  0  0  0  0  0  0  0
   -5.0972    0.8835   -0.3008 C   0  0  0  0  0  0  0  0  0  0  0  0
   -6.3871   -0.9376    0.8864 C   0  0  0  0  0  0  0  0  0  0  0  0
   -5.7657    1.9325    0.5817 C   0  0  0  0  0  0  0  0  0  0  0  0
   -7.0558    0.1114    1.7690 C   0  0  0  0  0  0  0  0  0  0  0  0
   -7.1354    1.4663    1.0693 C   0  0  0  0  0  0  0  0  0  0  0  0
    3.3069    1.5886   -0.8299 C   0  0  0  0  0  0  0  0  0  0  0  0
    2.0417    2.0516   -0.3715 C   0  0  0  0  0  0  0  0  0  0  0  0
    3.2128    1.3897   -2.1881 C   0  0  0  0  0  0  0  0  0  0  0  0
    1.2025    2.1211   -1.4856 C   0  0  0  0  0  0  0  0  0  0  0  0
    1.0434   -1.8714   -0.4853 C   0  0  0  0  0  0  0  0  0  0  0  0
    1.5285    2.4192    0.8882 C   0  0  0  0  0  0  0  0  0  0  0  0
   -3.1066   -1.5626   -0.5061 C   0  0  0  0  0  0  0  0  0  0  0  0
   -0.3868   -1.7835   -0.5115 C   0  0  0  0  0  0  0  0  0  0  0  0
   -0.1297    2.5417   -1.4025 C   0  0  0  0  0  0  0  0  0  0  0  0
    0.1979    2.8420    0.9864 C   0  0  0  0  0  0  0  0  0  0  0  0
   -2.5253   -2.4897   -1.3560 C   0  0  0  0  0  0  0  0  0  0  0  0
   -1.1388   -2.5961   -1.3527 C   0  0  0  0  0  0  0  0  0  0  0  0
   -0.6167    2.9015   -0.1427 C   0  0  0  0  0  0  0  0  0  0  0  0
   -1.0638   -0.8880    0.3007 C   0  0  0  0  0  0  0  0  0  0  0  0
    5.0989   -1.1383   -0.1829 H   0  0  0  0  0  0  0  0  0  0  0  0
    4.0573   -2.5761    2.1525 H   0  0  0  0  0  0  0  0  0  0  0  0
    5.7242   -2.3487    1.5961 H   0  0  0  0  0  0  0  0  0  0  0  0
    5.1065    1.3689    2.7743 H   0  0  0  0  0  0  0  0  0  0  0  0
    6.3003    0.5115    1.7620 H   0  0  0  0  0  0  0  0  0  0  0  0
    5.8737   -1.0657    3.5596 H   0  0  0  0  0  0  0  0  0  0  0  0
    4.1375   -0.7015    3.5465 H   0  0  0  0  0  0  0  0  0  0  0  0
    5.3916    1.0750   -0.6154 H   0  0  0  0  0  0  0  0  0  0  0  0
    4.7886    2.3277    0.4547 H   0  0  0  0  0  0  0  0  0  0  0  0
   -4.4087   -0.3749    1.3114 H   0  0  0  0  0  0  0  0  0  0  0  0
   -4.0979    1.2300   -0.5891 H   0  0  0  0  0  0  0  0  0  0  0  0
   -5.6552    0.7775   -1.2403 H   0  0  0  0  0  0  0  0  0  0  0  0
   -7.0271   -1.1622    0.0232 H   0  0  0  0  0  0  0  0  0  0  0  0
   -6.2861   -1.8822    1.4345 H   0  0  0  0  0  0  0  0  0  0  0  0
   -5.8726    2.8699    0.0242 H   0  0  0  0  0  0  0  0  0  0  0  0
   -5.1237    2.1455    1.4452 H   0  0  0  0  0  0  0  0  0  0  0  0
   -6.4913    0.2163    2.7038 H   0  0  0  0  0  0  0  0  0  0  0  0
   -8.0633   -0.2230    2.0405 H   0  0  0  0  0  0  0  0  0  0  0  0
   -7.8206    1.3949    0.2155 H   0  0  0  0  0  0  0  0  0  0  0  0
   -7.5557    2.2108    1.7547 H   0  0  0  0  0  0  0  0  0  0  0  0
    3.9355    1.0458   -2.9149 H   0  0  0  0  0  0  0  0  0  0  0  0
    1.5909    1.6604   -3.5212 H   0  0  0  0  0  0  0  0  0  0  0  0
    2.1484    2.3813    1.7793 H   0  0  0  0  0  0  0  0  0  0  0  0
   -0.7652    2.5865   -2.2805 H   0  0  0  0  0  0  0  0  0  0  0  0
   -0.2038    3.1257    1.9555 H   0  0  0  0  0  0  0  0  0  0  0  0
   -3.1266   -3.1158   -2.0061 H   0  0  0  0  0  0  0  0  0  0  0  0
   -0.6776   -3.3218   -2.0176 H   0  0  0  0  0  0  0  0  0  0  0  0
   -1.6481    3.2301   -0.0432 H   0  0  0  0  0  0  0  0  0  0  0  0
   -0.5472   -0.2282    0.9904 H   0  0  0  0  0  0  0  0  0  0  0  0
  1 13  1  0  0  0  0
  1 26  1  0  0  0  0
  2  6  1  0  0  0  0
  2 14  1  0  0  0  0
  3  8  1  0  0  0  0
  3 10  1  0  0  0  0
  3 12  1  0  0  0  0
  4 14  2  0  0  0  0
  4 24  1  0  0  0  0
  5 22  1  0  0  0  0
  5 23  1  0  0  0  0
  5 55  1  0  0  0  0
  6 24  2  0  0  0  0
  7 26  2  0  0  0  0
  7 33  1  0  0  0  0
  8  9  1  0  0  0  0
  8 14  1  0  0  0  0
  8 34  1  0  0  0  0
  9 11  1  0  0  0  0
  9 35  1  0  0  0  0
  9 36  1  0  0  0  0
 10 11  1  0  0  0  0
 10 37  1  0  0  0  0
 10 38  1  0  0  0  0
 11 39  1  0  0  0  0
 11 40  1  0  0  0  0
 12 20  1  0  0  0  0
 12 41  1  0  0  0  0
 12 42  1  0  0  0  0
 13 15  1  0  0  0  0
 13 16  1  0  0  0  0
 13 43  1  0  0  0  0
 15 17  1  0  0  0  0
 15 44  1  0  0  0  0
 15 45  1  0  0  0  0
 16 18  1  0  0  0  0
 16 46  1  0  0  0  0
 16 47  1  0  0  0  0
 17 19  1  0  0  0  0
 17 48  1  0  0  0  0
 17 49  1  0  0  0  0
 18 19  1  0  0  0  0
 18 50  1  0  0  0  0
 18 51  1  0  0  0  0
 19 52  1  0  0  0  0
 19 53  1  0  0  0  0
 20 21  1  0  0  0  0
 20 22  2  0  0  0  0
 21 23  1  0  0  0  0
 21 25  2  0  0  0  0
 22 54  1  0  0  0  0
 23 28  2  0  0  0  0
 24 27  1  0  0  0  0
 25 29  1  0  0  0  0
 25 56  1  0  0  0  0
 26 30  1  0  0  0  0
 27 31  1  0  0  0  0
 27 33  2  0  0  0  0
 28 32  1  0  0  0  0
 28 57  1  0  0  0  0
 29 32  2  0  0  0  0
 29 58  1  0  0  0  0
 30 31  2  0  0  0  0
 30 59  1  0  0  0  0
 31 60  1  0  0  0  0
 32 61  1  0  0  0  0
 33 62  1  0  0  0  0
M  END
> <PUBCHEM_COMPOUND_CID>
45783583

> <PUBCHEM_CONFORMER_RMSD>
1.2

> <PUBCHEM_CONFORMER_DIVERSEORDER>
1
45
80
33
3
28
72
109
99
53
35
82
47
90
6
49
21
89
58
79
40
63
46
67
52
43
12
106
38
111
101
97
29
85
70
62
75
104
19
116
68
103
61
88
66
11
4
41
74
115
34
65
31
32
98
48
23
102
54
2
25
110
76
86
59
105
42
26
5
92
37
69
44
60
36
56
71
107
16
20
64
114
73
78
84
95
10
117
24
18
112
83
14
108
17
8
39
100
22
91
96
81
94
87
55
113
93
7
30
50
51
9
57
27
77
13
15

> <PUBCHEM_MMFF94_PARTIAL_CHARGES>
34
1 -0.36
10 0.27
12 0.45
13 0.28
14 0.3
2 -0.02
20 -0.18
22 -0.3
23 -0.15
24 0.46
25 -0.15
26 0.39
27 0.05
28 -0.15
29 -0.15
3 -0.81
30 -0.15
31 -0.15
32 -0.15
33 0.16
4 -0.57
5 0.03
54 0.15
55 0.27
56 0.15
57 0.15
58 0.15
59 0.15
6 -0.41
60 0.15
61 0.15
62 0.15
7 -0.62
8 0.45

> <PUBCHEM_EFFECTIVE_ROTOR_COUNT>
8.2

> <PUBCHEM_PHARMACOPHORE_FEATURES>
10
1 3 cation
1 5 cation
1 5 donor
3 4 6 24 cation
5 2 4 6 14 24 rings
5 3 8 9 10 11 rings
5 5 20 21 22 23 rings
6 13 15 16 17 18 19 rings
6 21 23 25 28 29 32 rings
6 7 26 27 30 31 33 rings

> <PUBCHEM_HEAVY_ATOM_COUNT>
33

> <PUBCHEM_ATOM_DEF_STEREO_COUNT>
1

> <PUBCHEM_ATOM_UDEF_STEREO_COUNT>
0

> <PUBCHEM_BOND_DEF_STEREO_COUNT>
0

> <PUBCHEM_BOND_UDEF_STEREO_COUNT>
0

> <PUBCHEM_ISOTOPIC_ATOM_COUNT>
0

> <PUBCHEM_COMPONENT_COUNT>
1

> <PUBCHEM_CACTVS_TAUTO_COUNT>
1

> <PUBCHEM_CONFORMER_ID>
02BA9A1F00000001

> <PUBCHEM_MMFF94_ENERGY>
57.436

> <PUBCHEM_FEATURE_SELFOVERLAP>
50.842

> <PUBCHEM_SHAPE_FINGERPRINT>
10190108 129 18113889430958333386
10439779 11 18271807960401207841
10674148 151 18268444580740091996
10939801 23 18338236084785558176
12166972 35 16298669387044931226
12422481 6 18336818710932581917
13782708 43 15719385136162826307
14020679 6 18113901606415339403
14294032 229 17773883180650396967
14394314 77 18339359794201031584
14950920 106 17749108933134423827
15183329 4 18341617040460022169
15238133 3 18410860983498504046
15274700 259 18115295685256712821
15420108 30 17841137064273029510
15840311 113 17631739253930079115
15968369 153 18200027340415114341
1601671 61 18342176695450490189
17809404 112 16558477503487681759
17980427 23 17988346178621035639
1979834 28 18272093772725051759
20775438 99 12036596313298792192
21033648 29 17703212018997921946
21298829 104 18273213131475830489
21304253 335 18202561782766207751
21421861 104 18261107491791021156
22149856 69 17916325917478347747
23559900 14 17059516130217568044
338550 245 18335708234596541613
3388396 114 16906351081536314005
3680242 22 18334857199299901243
4112364 45 17845934155963704761
4144715 1 18263661623264814827
513202 73 17167855340947205485
513532 50 17417823824178435660
6371009 1 18199454632343086247
653340 110 18128538154606274129
8509985 295 18336265729529552940

> <PUBCHEM_SHAPE_MULTIPOLES>
642.48
14.9
3.7
2.09
23.24
0.53
-0.33
0.35
-10.31
-0.73
1.23
-2.42
0.12
-2.07

> <PUBCHEM_SHAPE_SELFOVERLAP>
1412.798

> <PUBCHEM_SHAPE_VOLUME>
346.4

> <PUBCHEM_COORDINATE_TYPE>
2
5
10

$$$$
