7144119
  -OEChem-12032416113D

 54 57  0     1  0  0  0  0  0999 V2000
    3.1805   -1.1319   -0.9104 S   0  0  0  0  0  0  0  0  0  0  0  0
    4.4679   -0.5015   -1.1061 O   0  0  0  0  0  0  0  0  0  0  0  0
    2.3492   -1.5251   -2.0273 O   0  0  0  0  0  0  0  0  0  0  0  0
    1.1223    4.5559   -0.8036 O   0  0  0  0  0  0  0  0  0  0  0  0
   -5.1056   -2.8300   -0.0526 O   0  0  0  0  0  0  0  0  0  0  0  0
    2.2517   -0.1696    0.1566 N   0  0  2  0  0  0  0  0  0  0  0  0
    0.6054    2.5142    0.2214 N   0  0  0  0  0  0  0  0  0  0  0  0
    2.1266    1.4870    2.0120 C   0  0  1  0  0  0  0  0  0  0  0  0
    0.0953    0.3036    1.3049 C   0  0  2  0  0  0  0  0  0  0  0  0
    0.8479    0.8414    2.5195 C   0  0  0  0  0  0  0  0  0  0  0  0
    3.0032    0.4611    1.2775 C   0  0  0  0  0  0  0  0  0  0  0  0
    0.9565   -0.7628    0.6000 C   0  0  0  0  0  0  0  0  0  0  0  0
    1.7545    2.6749    1.1231 C   0  0  0  0  0  0  0  0  0  0  0  0
   -0.2820    1.4253    0.3332 C   0  0  0  0  0  0  0  0  0  0  0  0
   -1.4111    1.3929   -0.4219 C   0  0  0  0  0  0  0  0  0  0  0  0
    0.3886    3.5752   -0.6758 C   0  0  0  0  0  0  0  0  0  0  0  0
    3.4185   -2.5546    0.1232 C   0  0  0  0  0  0  0  0  0  0  0  0
   -1.6659    2.4679   -1.3620 C   0  0  0  0  0  0  0  0  0  0  0  0
   -0.8314    3.4964   -1.5107 C   0  0  0  0  0  0  0  0  0  0  0  0
   -2.3826    0.2816   -0.3245 C   0  0  0  0  0  0  0  0  0  0  0  0
    4.2403   -3.6203   -0.5828 C   0  0  0  0  0  0  0  0  0  0  0  0
   -2.2316   -0.8408   -1.1327 C   0  0  0  0  0  0  0  0  0  0  0  0
   -3.4412    0.3669    0.5747 C   0  0  0  0  0  0  0  0  0  0  0  0
    4.4288   -4.8477    0.2928 C   0  0  0  0  0  0  0  0  0  0  0  0
   -3.1483   -1.8882   -1.0412 C   0  0  0  0  0  0  0  0  0  0  0  0
   -4.3578   -0.6806    0.6664 C   0  0  0  0  0  0  0  0  0  0  0  0
   -4.2113   -1.8082   -0.1416 C   0  0  0  0  0  0  0  0  0  0  0  0
   -6.1685   -2.6830    0.8880 C   0  0  0  0  0  0  0  0  0  0  0  0
    2.7073    1.8644    2.8632 H   0  0  0  0  0  0  0  0  0  0  0  0
   -0.8053   -0.1883    1.6895 H   0  0  0  0  0  0  0  0  0  0  0  0
    0.2351    1.5690    3.0664 H   0  0  0  0  0  0  0  0  0  0  0  0
    1.0804    0.0288    3.2186 H   0  0  0  0  0  0  0  0  0  0  0  0
    3.8942    0.9684    0.8928 H   0  0  0  0  0  0  0  0  0  0  0  0
    3.3280   -0.3070    1.9877 H   0  0  0  0  0  0  0  0  0  0  0  0
    1.1382   -1.5779    1.3087 H   0  0  0  0  0  0  0  0  0  0  0  0
    0.4262   -1.1747   -0.2620 H   0  0  0  0  0  0  0  0  0  0  0  0
    1.5020    3.5268    1.7699 H   0  0  0  0  0  0  0  0  0  0  0  0
    2.6214    2.9964    0.5318 H   0  0  0  0  0  0  0  0  0  0  0  0
    2.4408   -2.9758    0.3672 H   0  0  0  0  0  0  0  0  0  0  0  0
    3.9261   -2.2403    1.0385 H   0  0  0  0  0  0  0  0  0  0  0  0
   -2.5649    2.4175   -1.9692 H   0  0  0  0  0  0  0  0  0  0  0  0
   -1.0272    4.2924   -2.2191 H   0  0  0  0  0  0  0  0  0  0  0  0
    3.7507   -3.9175   -1.5177 H   0  0  0  0  0  0  0  0  0  0  0  0
    5.2228   -3.2184   -0.8563 H   0  0  0  0  0  0  0  0  0  0  0  0
   -1.4136   -0.9146   -1.8449 H   0  0  0  0  0  0  0  0  0  0  0  0
   -3.5665    1.2399    1.2105 H   0  0  0  0  0  0  0  0  0  0  0  0
    5.0241   -5.6008   -0.2331 H   0  0  0  0  0  0  0  0  0  0  0  0
    4.9493   -4.5913    1.2211 H   0  0  0  0  0  0  0  0  0  0  0  0
    3.4649   -5.2974    0.5517 H   0  0  0  0  0  0  0  0  0  0  0  0
   -3.0300   -2.7633   -1.6744 H   0  0  0  0  0  0  0  0  0  0  0  0
   -5.1593   -0.5532    1.3859 H   0  0  0  0  0  0  0  0  0  0  0  0
   -6.7828   -3.5872    0.8253 H   0  0  0  0  0  0  0  0  0  0  0  0
   -6.8168   -1.8377    0.6335 H   0  0  0  0  0  0  0  0  0  0  0  0
   -5.7918   -2.6230    1.9147 H   0  0  0  0  0  0  0  0  0  0  0  0
  1  2  2  0  0  0  0
  1  3  2  0  0  0  0
  1  6  1  0  0  0  0
  1 17  1  0  0  0  0
  4 16  2  0  0  0  0
  5 27  1  0  0  0  0
  5 28  1  0  0  0  0
  6 11  1  0  0  0  0
  6 12  1  0  0  0  0
  7 13  1  0  0  0  0
  7 14  1  0  0  0  0
  7 16  1  0  0  0  0
  8 10  1  0  0  0  0
  8 11  1  0  0  0  0
  8 13  1  0  0  0  0
  8 29  1  0  0  0  0
  9 10  1  0  0  0  0
  9 12  1  0  0  0  0
  9 14  1  0  0  0  0
  9 30  1  0  0  0  0
 10 31  1  0  0  0  0
 10 32  1  0  0  0  0
 11 33  1  0  0  0  0
 11 34  1  0  0  0  0
 12 35  1  0  0  0  0
 12 36  1  0  0  0  0
 13 37  1  0  0  0  0
 13 38  1  0  0  0  0
 14 15  2  0  0  0  0
 15 18  1  0  0  0  0
 15 20  1  0  0  0  0
 16 19  1  0  0  0  0
 17 21  1  0  0  0  0
 17 39  1  0  0  0  0
 17 40  1  0  0  0  0
 18 19  2  0  0  0  0
 18 41  1  0  0  0  0
 19 42  1  0  0  0  0
 20 22  2  0  0  0  0
 20 23  1  0  0  0  0
 21 24  1  0  0  0  0
 21 43  1  0  0  0  0
 21 44  1  0  0  0  0
 22 25  1  0  0  0  0
 22 45  1  0  0  0  0
 23 26  2  0  0  0  0
 23 46  1  0  0  0  0
 24 47  1  0  0  0  0
 24 48  1  0  0  0  0
 24 49  1  0  0  0  0
 25 27  2  0  0  0  0
 25 50  1  0  0  0  0
 26 27  1  0  0  0  0
 26 51  1  0  0  0  0
 28 52  1  0  0  0  0
 28 53  1  0  0  0  0
 28 54  1  0  0  0  0
M  END
> <PUBCHEM_COMPOUND_CID>
7144119

> <PUBCHEM_CONFORMER_RMSD>
0.8

> <PUBCHEM_CONFORMER_DIVERSEORDER>
1
3
7
4
2
5
8
6

> <PUBCHEM_MMFF94_PARTIAL_CHARGES>
30
1 1.33
11 0.36
12 0.36
13 0.3
14 -0.03
15 -0.03
16 0.62
17 0.11
18 -0.15
19 -0.14
2 -0.65
20 0.03
22 -0.15
23 -0.15
25 -0.15
26 -0.15
27 0.08
28 0.28
3 -0.65
4 -0.57
41 0.15
42 0.15
45 0.15
46 0.15
5 -0.36
50 0.15
51 0.15
6 -0.85
7 -0.47
9 0.14

> <PUBCHEM_EFFECTIVE_ROTOR_COUNT>
6

> <PUBCHEM_PHARMACOPHORE_FEATURES>
9
1 2 acceptor
1 24 hydrophobe
1 3 acceptor
1 4 acceptor
1 5 acceptor
6 20 22 23 25 26 27 rings
6 6 8 9 10 11 12 rings
6 7 14 15 16 18 19 rings
6 7 8 9 10 13 14 rings

> <PUBCHEM_HEAVY_ATOM_COUNT>
28

> <PUBCHEM_ATOM_DEF_STEREO_COUNT>
2

> <PUBCHEM_ATOM_UDEF_STEREO_COUNT>
0

> <PUBCHEM_BOND_DEF_STEREO_COUNT>
0

> <PUBCHEM_BOND_UDEF_STEREO_COUNT>
0

> <PUBCHEM_ISOTOPIC_ATOM_COUNT>
0

> <PUBCHEM_COMPONENT_COUNT>
1

> <PUBCHEM_CACTVS_TAUTO_COUNT>
1

> <PUBCHEM_CONFORMER_ID>
006D02B700000001

> <PUBCHEM_MMFF94_ENERGY>
75.916

> <PUBCHEM_FEATURE_SELFOVERLAP>
47.273

> <PUBCHEM_SHAPE_FINGERPRINT>
10554248 39 18193549194593639935
12107183 9 18270979946946893619
12156800 1 13231315580784005732
12293681 25 18123437567298287380
12403259 327 16414076489928435347
12422481 6 17984955298046484912
12633257 1 17203888574219175287
12712778 12 17617071635271173882
12714826 92 18127129663199275014
12778500 126 17488203628503710723
12969540 37 18270114737720586330
13955234 65 18125447663959613033
13994607 96 7996239540497763682
14251757 5 17834106446958475298
14251764 30 18335431149076556859
14863182 85 17980757465187876017
15664445 248 18188484795551694493
17492 54 17899716827334651308
17974551 9 17203047374845867145
17980427 26 16053761066071002704
1813 80 18334575776184603193
1979834 28 18124024900197714681
20775530 9 18272651229626577846
22182313 1 18267841982819882325
23466295 7 18053106120754005642
23559900 14 17694764248371909178
239999 70 17825659221629389689
25222932 49 17028229660415623243
2818148 4 18337123284291247229
3380486 145 17342618298707445546
3737641 26 18342177765214091770
44062 13 17904482905177153262
4409770 3 17761208821847012631
6287921 2 18126562555580497469
70251023 43 18334863865700911953
70634741 139 17981045211882838966

> <PUBCHEM_SHAPE_MULTIPOLES>
546.64
9.43
5.61
1.73
5.37
0.11
-0.42
-15.38
-0.22
-2.78
1.34
-0.67
0.75
1.79

> <PUBCHEM_SHAPE_SELFOVERLAP>
1160.779

> <PUBCHEM_SHAPE_VOLUME>
306.6

> <PUBCHEM_COORDINATE_TYPE>
2
5
10

$$$$
