11941642
  -OEChem-12032416353D

 57 60  0     1  0  0  0  0  0999 V2000
   -1.0193   -3.4430   -0.5489 O   0  0  0  0  0  0  0  0  0  0  0  0
   -1.3929   -1.5798    1.9260 O   0  0  0  0  0  0  0  0  0  0  0  0
    3.1548   -2.3452   -0.3553 O   0  0  0  0  0  0  0  0  0  0  0  0
   -3.1807   -1.3411   -1.2483 N   0  0  0  0  0  0  0  0  0  0  0  0
    1.5533   -1.3303    0.9678 N   0  0  0  0  0  0  0  0  0  0  0  0
   -4.2681    0.4257   -0.1521 N   0  0  0  0  0  0  0  0  0  0  0  0
   -4.1905    0.3230   -2.5585 N   0  0  0  0  0  0  0  0  0  0  0  0
    3.5014   -0.1967    0.5249 N   0  0  0  0  0  0  0  0  0  0  0  0
    7.6373    4.0095    0.4661 N   0  0  0  0  0  0  0  0  0  0  0  0
   -1.5131   -1.3697    0.5089 C   0  0  1  0  0  0  0  0  0  0  0  0
   -0.4291   -2.1912   -0.1612 C   0  0  1  0  0  0  0  0  0  0  0  0
   -2.8013   -1.9704   -0.0023 C   0  0  2  0  0  0  0  0  0  0  0  0
    0.5950   -2.4083    0.9293 C   0  0  2  0  0  0  0  0  0  0  0  0
   -2.4209   -3.4202   -0.2408 C   0  0  0  0  0  0  0  0  0  0  0  0
   -0.2630   -2.4271    2.1818 C   0  0  0  0  0  0  0  0  0  0  0  0
   -3.9013   -0.1623   -1.3218 C   0  0  0  0  0  0  0  0  0  0  0  0
    2.7878   -1.3790    0.3092 C   0  0  0  0  0  0  0  0  0  0  0  0
   -5.3797    2.2321    1.0132 C   0  0  0  0  0  0  0  0  0  0  0  0
   -4.9690    1.5734   -0.2608 C   0  0  0  0  0  0  0  0  0  0  0  0
   -5.3138    2.1500   -1.4661 C   0  0  0  0  0  0  0  0  0  0  0  0
   -4.8939    1.4738   -2.5933 C   0  0  0  0  0  0  0  0  0  0  0  0
   -4.7850    3.6703    1.1235 C   0  0  0  0  0  0  0  0  0  0  0  0
   -6.9317    2.3559    1.1108 C   0  0  0  0  0  0  0  0  0  0  0  0
   -4.9371    1.4971    2.3216 C   0  0  0  0  0  0  0  0  0  0  0  0
    4.7832    0.1453    0.0344 C   0  0  0  0  0  0  0  0  0  0  0  0
    5.3282    1.3767    0.3599 C   0  0  0  0  0  0  0  0  0  0  0  0
    5.4668   -0.7578   -0.7633 C   0  0  0  0  0  0  0  0  0  0  0  0
    6.5915    1.7141   -0.1259 C   0  0  0  0  0  0  0  0  0  0  0  0
    6.7300   -0.4203   -1.2490 C   0  0  0  0  0  0  0  0  0  0  0  0
    7.2925    0.8157   -0.9303 C   0  0  0  0  0  0  0  0  0  0  0  0
    7.1683    2.9800    0.2005 C   0  0  0  0  0  0  0  0  0  0  0  0
   -1.4024   -0.2954    0.3303 H   0  0  0  0  0  0  0  0  0  0  0  0
   -0.0330   -1.7207   -1.0668 H   0  0  0  0  0  0  0  0  0  0  0  0
   -3.6249   -1.9292    0.7198 H   0  0  0  0  0  0  0  0  0  0  0  0
    1.1354   -3.3548    0.8205 H   0  0  0  0  0  0  0  0  0  0  0  0
   -2.9778   -3.8987   -1.0523 H   0  0  0  0  0  0  0  0  0  0  0  0
   -2.5615   -4.0153    0.6683 H   0  0  0  0  0  0  0  0  0  0  0  0
   -0.6497   -3.4335    2.3766 H   0  0  0  0  0  0  0  0  0  0  0  0
    0.2566   -2.0781    3.0794 H   0  0  0  0  0  0  0  0  0  0  0  0
   -2.8675   -1.7426   -2.1248 H   0  0  0  0  0  0  0  0  0  0  0  0
    1.2938   -0.4698    1.4407 H   0  0  0  0  0  0  0  0  0  0  0  0
    3.0513    0.5073    1.1045 H   0  0  0  0  0  0  0  0  0  0  0  0
   -5.8759    3.0705   -1.5529 H   0  0  0  0  0  0  0  0  0  0  0  0
   -5.1178    1.8500   -3.5858 H   0  0  0  0  0  0  0  0  0  0  0  0
   -3.6905    3.6438    1.0653 H   0  0  0  0  0  0  0  0  0  0  0  0
   -5.0605    4.1436    2.0731 H   0  0  0  0  0  0  0  0  0  0  0  0
   -5.1431    4.3243    0.3208 H   0  0  0  0  0  0  0  0  0  0  0  0
   -7.2361    2.8116    2.0601 H   0  0  0  0  0  0  0  0  0  0  0  0
   -7.3445    2.9762    0.3077 H   0  0  0  0  0  0  0  0  0  0  0  0
   -7.4054    1.3693    1.0436 H   0  0  0  0  0  0  0  0  0  0  0  0
   -5.2691    2.0323    3.2186 H   0  0  0  0  0  0  0  0  0  0  0  0
   -5.3553    0.4844    2.3625 H   0  0  0  0  0  0  0  0  0  0  0  0
   -3.8455    1.4076    2.3703 H   0  0  0  0  0  0  0  0  0  0  0  0
    4.7778    2.0743    0.9873 H   0  0  0  0  0  0  0  0  0  0  0  0
    5.1008   -1.7311   -1.0542 H   0  0  0  0  0  0  0  0  0  0  0  0
    7.2769   -1.1191   -1.8755 H   0  0  0  0  0  0  0  0  0  0  0  0
    8.2781    1.0643   -1.3165 H   0  0  0  0  0  0  0  0  0  0  0  0
  1 11  1  0  0  0  0
  1 14  1  0  0  0  0
  2 10  1  0  0  0  0
  2 15  1  0  0  0  0
  3 17  2  0  0  0  0
  4 12  1  0  0  0  0
  4 16  1  0  0  0  0
  4 40  1  0  0  0  0
  5 13  1  0  0  0  0
  5 17  1  0  0  0  0
  5 41  1  0  0  0  0
  6 16  1  0  0  0  0
  6 19  2  0  0  0  0
  7 16  2  0  0  0  0
  7 21  1  0  0  0  0
  8 17  1  0  0  0  0
  8 25  1  0  0  0  0
  8 42  1  0  0  0  0
  9 31  3  0  0  0  0
 10 11  1  0  0  0  0
 10 12  1  0  0  0  0
 10 32  1  0  0  0  0
 11 13  1  0  0  0  0
 11 33  1  0  0  0  0
 12 14  1  0  0  0  0
 12 34  1  0  0  0  0
 13 15  1  0  0  0  0
 13 35  1  0  0  0  0
 14 36  1  0  0  0  0
 14 37  1  0  0  0  0
 15 38  1  0  0  0  0
 15 39  1  0  0  0  0
 18 19  1  0  0  0  0
 18 22  1  0  0  0  0
 18 23  1  0  0  0  0
 18 24  1  0  0  0  0
 19 20  1  0  0  0  0
 20 21  2  0  0  0  0
 20 43  1  0  0  0  0
 21 44  1  0  0  0  0
 22 45  1  0  0  0  0
 22 46  1  0  0  0  0
 22 47  1  0  0  0  0
 23 48  1  0  0  0  0
 23 49  1  0  0  0  0
 23 50  1  0  0  0  0
 24 51  1  0  0  0  0
 24 52  1  0  0  0  0
 24 53  1  0  0  0  0
 25 26  1  0  0  0  0
 25 27  2  0  0  0  0
 26 28  2  0  0  0  0
 26 54  1  0  0  0  0
 27 29  1  0  0  0  0
 27 55  1  0  0  0  0
 28 30  1  0  0  0  0
 28 31  1  0  0  0  0
 29 30  2  0  0  0  0
 29 56  1  0  0  0  0
 30 57  1  0  0  0  0
M  END
> <PUBCHEM_COMPOUND_CID>
11941642

> <PUBCHEM_CONFORMER_RMSD>
1

> <PUBCHEM_CONFORMER_DIVERSEORDER>
1
47
228
313
315
280
185
333
249
196
304
163
382
68
316
177
343
165
129
341
288
281
274
31
295
373
26
231
182
307
296
32
255
322
354
217
70
222
345
247
113
139
314
233
377
303
275
220
210
392
27
190
301
205
171
327
188
184
342
265
261
134
378
23
229
74
393
285
202
298
365
376
98
310
312
234
218
406
400
357
338
174
396
260
356
395
388
111
109
37
336
149
17
244
284
258
226
173
268
35
155
137
78
124
271
107
297
143
183
239
381
348
398
161
225
122
299
399
157
305
350
292
407
273
335
30
100
347
191
340
370
43
253
363
53
151
326
409
93
282
24
168
116
76
374
215
147
77
22
346
359
142
164
402
21
101
394
372
403
384
257
371
283
230
369
318
85
199
127
167
236
223
386
401
89
46
366
187
110
362
237
28
131
391
211
96
272
367
251
209
156
179
166
321
286
90
408
324
325
54
306
135
397
405
380
207
71
162
227
92
123
62
219
39
387
169
262
323
64
270
364
45
86
145
195
320
300
42
178
250
72
245
337
358
176
360
56
180
133
121
308
104
66
269
153
118
317
88
69
389
158
34
160
259
48
385
214
8
404
200
13
19
277
106
75
181
242
339
91
119
309
51
25
355
351
29
289
329
95
238
361
40
390
136
252
197
50
293
117
114
73
332
87
276
11
204
287
192
194
240
263
201
144
246
9
291
410
12
379
208
159
154
79
344
112
175
138
49
334
328
97
330
203
213
349
140
2
294
278
198
146
6
256
224
232
84
254
57
311
99
126
20
61
279
15
10
108
83
290
82
383
67
128
148
243
267
105
266
186
5
264
18
141
120
368
353
94
302
33
52
221
189
81
172
59
63
103
55
352
38
152
216
125
241
36
44
16
14
150
58
206
375
248
102
60
193
80
331
212
65
7
170
319
132
235
41
3
130
115
4

> <PUBCHEM_MMFF94_PARTIAL_CHARGES>
37
1 -0.56
10 0.28
11 0.28
12 0.37
13 0.3
14 0.28
15 0.28
16 0.72
17 0.69
18 0.14
19 0.17
2 -0.56
20 -0.15
21 0.16
25 0.12
26 -0.15
27 -0.15
28 0.07
29 -0.15
3 -0.57
30 -0.15
31 0.48
4 -0.87
40 0.4
41 0.37
42 0.37
43 0.15
44 0.15
5 -0.73
54 0.15
55 0.15
56 0.15
57 0.15
6 -0.62
7 -0.62
8 -0.55
9 -0.56

> <PUBCHEM_EFFECTIVE_ROTOR_COUNT>
8.2

> <PUBCHEM_PHARMACOPHORE_FEATURES>
14
1 1 acceptor
1 2 acceptor
1 3 acceptor
1 4 donor
1 5 donor
1 6 acceptor
1 8 donor
1 9 acceptor
4 18 22 23 24 hydrophobe
4 4 6 7 16 cation
5 1 10 11 12 14 rings
5 2 10 11 13 15 rings
6 25 26 27 28 29 30 rings
6 6 7 16 19 20 21 rings

> <PUBCHEM_HEAVY_ATOM_COUNT>
31

> <PUBCHEM_ATOM_DEF_STEREO_COUNT>
4

> <PUBCHEM_ATOM_UDEF_STEREO_COUNT>
0

> <PUBCHEM_BOND_DEF_STEREO_COUNT>
0

> <PUBCHEM_BOND_UDEF_STEREO_COUNT>
0

> <PUBCHEM_ISOTOPIC_ATOM_COUNT>
0

> <PUBCHEM_COMPONENT_COUNT>
1

> <PUBCHEM_CACTVS_TAUTO_COUNT>
9

> <PUBCHEM_CONFORMER_ID>
00B6370A00000001

> <PUBCHEM_MMFF94_ENERGY>
91.8288

> <PUBCHEM_FEATURE_SELFOVERLAP>
71.805

> <PUBCHEM_SHAPE_FINGERPRINT>
10369192 42 18341059558026381391
10454371 7 18341327877264946951
10675989 125 18338517427150818162
11007060 377 18186797002574840317
11135609 201 18260266369527353091
11393246 34 9871478603465235760
11475781 23 18412823617140983644
11963148 33 10086828960295330156
12013929 29 18200883868352050792
12390115 104 18261111876568034559
12760667 363 10231752288714922679
12895837 130 18342178924596688644
1361 87 13254785880339128077
13627167 48 18268707212603355357
13690498 29 17487889219349197935
13782708 43 9007067859666485212
13885169 86 18261117373914936725
14150022 121 18042419074481317011
14251764 75 18409730625421006331
14347329 18 18341606010456252082
14664723 55 17844820183155299457
14765038 42 18410860923680568613
14840074 17 18188772743413515549
14848178 5 11239699895244343639
15119646 57 18341893021719575503
15131766 46 18264197038188091541
15163728 17 18342177722249082199
15183329 4 18202280269203155422
15274700 21 18263370338582651331
15513586 35 17171541083541848108
16120349 67 17987525823024785755
16126227 98 18411422825803939785
19304152 47 16878221970366645215
19438510 23 18260832596424718098
20691028 202 18410297982042775057
21033648 29 16733550386726681375
21401589 2 17967533458805246787
21774942 28 18201435853685968912
249057 25 18192122972344240483
2748736 6 18409720768972247864
2838139 119 18337951186618996990
328310 18 17988929980787904281
38570 142 18059296444728421427
4098825 35 17988929937933871983
4258327 124 18267571422473305933
44575985 347 16828120876682417920
474113 269 7853567986126197417
50009960 94 11886578793225975220
50677037 204 18408600375034748060
5104073 3 17676481761839985546
5718773 13 9692730456824138409
5937810 71 18263374732403052412
6289498 60 17895463843845785244
636775 72 18118961645374491724
6712543 237 12757423917471363773
6898599 12 18271525402871433134
96874 4 10737584842288542137

> <PUBCHEM_SHAPE_MULTIPOLES>
590.47
22.01
4.62
1.95
29.3
0.74
-0.33
27.2
-3.03
-0.33
1.28
-3.64
0.33
-0.34

> <PUBCHEM_SHAPE_SELFOVERLAP>
1267.958

> <PUBCHEM_SHAPE_VOLUME>
322.9

> <PUBCHEM_COORDINATE_TYPE>
2
5
10

$$$$
