86769012
  -OEChem-12032416323D

 38 40  0     1  0  0  0  0  0999 V2000
    5.3156   -0.4642   -1.3894 O   0  0  0  0  0  0  0  0  0  0  0  0
   -0.9251    2.3587   -0.3535 O   0  0  0  0  0  0  0  0  0  0  0  0
    3.1567   -0.1456   -0.5073 N   0  0  0  0  0  0  0  0  0  0  0  0
    0.9252    1.2138    0.4445 N   0  0  0  0  0  0  0  0  0  0  0  0
    4.4893   -1.6941    0.4300 N   0  0  0  0  0  0  0  0  0  0  0  0
   -1.2388    0.8113    1.3083 N   0  0  0  0  0  0  0  0  0  0  0  0
    2.3205   -0.8018    0.4838 C   0  0  2  0  0  0  0  0  0  0  0  0
    1.5939    0.2385    1.3307 C   0  0  0  0  0  0  0  0  0  0  0  0
    3.3004   -1.6837    1.2515 C   0  0  0  0  0  0  0  0  0  0  0  0
    2.6046    0.9103   -1.3380 C   0  0  0  0  0  0  0  0  0  0  0  0
    1.8419    1.9123   -0.4718 C   0  0  0  0  0  0  0  0  0  0  0  0
    4.4251   -0.7306   -0.5939 C   0  0  0  0  0  0  0  0  0  0  0  0
   -0.4442    1.5193    0.4154 C   0  0  0  0  0  0  0  0  0  0  0  0
   -2.6680    1.0147    1.3891 C   0  0  0  0  0  0  0  0  0  0  0  0
   -3.4187    0.1035    0.4616 C   0  0  0  0  0  0  0  0  0  0  0  0
   -3.6986    0.5119   -0.8424 C   0  0  0  0  0  0  0  0  0  0  0  0
   -3.8362   -1.1516    0.9042 C   0  0  0  0  0  0  0  0  0  0  0  0
   -4.3962   -0.3348   -1.7040 C   0  0  0  0  0  0  0  0  0  0  0  0
   -4.5337   -1.9983    0.0428 C   0  0  0  0  0  0  0  0  0  0  0  0
   -4.8137   -1.5899   -1.2613 C   0  0  0  0  0  0  0  0  0  0  0  0
    1.5995   -1.4181   -0.0683 H   0  0  0  0  0  0  0  0  0  0  0  0
    0.9191   -0.2574    2.0263 H   0  0  0  0  0  0  0  0  0  0  0  0
    2.3059    0.8135    1.9365 H   0  0  0  0  0  0  0  0  0  0  0  0
    3.5726   -1.2733    2.2288 H   0  0  0  0  0  0  0  0  0  0  0  0
    2.9350   -2.7064    1.3777 H   0  0  0  0  0  0  0  0  0  0  0  0
    1.9261    0.4308   -2.0525 H   0  0  0  0  0  0  0  0  0  0  0  0
    3.4065    1.3972   -1.9012 H   0  0  0  0  0  0  0  0  0  0  0  0
    2.5396    2.4849    0.1512 H   0  0  0  0  0  0  0  0  0  0  0  0
    1.3064    2.6236   -1.1076 H   0  0  0  0  0  0  0  0  0  0  0  0
    5.3072   -2.2659    0.6152 H   0  0  0  0  0  0  0  0  0  0  0  0
   -0.8582    0.0854    1.8983 H   0  0  0  0  0  0  0  0  0  0  0  0
   -2.9079    2.0627    1.1737 H   0  0  0  0  0  0  0  0  0  0  0  0
   -2.9657    0.8321    2.4281 H   0  0  0  0  0  0  0  0  0  0  0  0
   -3.3852    1.4885   -1.2004 H   0  0  0  0  0  0  0  0  0  0  0  0
   -3.6226   -1.4821    1.9172 H   0  0  0  0  0  0  0  0  0  0  0  0
   -4.6152   -0.0164   -2.7190 H   0  0  0  0  0  0  0  0  0  0  0  0
   -4.8586   -2.9758    0.3871 H   0  0  0  0  0  0  0  0  0  0  0  0
   -5.3570   -2.2492   -1.9320 H   0  0  0  0  0  0  0  0  0  0  0  0
  1 12  2  0  0  0  0
  2 13  2  0  0  0  0
  3  7  1  0  0  0  0
  3 10  1  0  0  0  0
  3 12  1  0  0  0  0
  4  8  1  0  0  0  0
  4 11  1  0  0  0  0
  4 13  1  0  0  0  0
  5  9  1  0  0  0  0
  5 12  1  0  0  0  0
  5 30  1  0  0  0  0
  6 13  1  0  0  0  0
  6 14  1  0  0  0  0
  6 31  1  0  0  0  0
  7  8  1  0  0  0  0
  7  9  1  0  0  0  0
  7 21  1  0  0  0  0
  8 22  1  0  0  0  0
  8 23  1  0  0  0  0
  9 24  1  0  0  0  0
  9 25  1  0  0  0  0
 10 11  1  0  0  0  0
 10 26  1  0  0  0  0
 10 27  1  0  0  0  0
 11 28  1  0  0  0  0
 11 29  1  0  0  0  0
 14 15  1  0  0  0  0
 14 32  1  0  0  0  0
 14 33  1  0  0  0  0
 15 16  2  0  0  0  0
 15 17  1  0  0  0  0
 16 18  1  0  0  0  0
 16 34  1  0  0  0  0
 17 19  2  0  0  0  0
 17 35  1  0  0  0  0
 18 20  2  0  0  0  0
 18 36  1  0  0  0  0
 19 20  1  0  0  0  0
 19 37  1  0  0  0  0
 20 38  1  0  0  0  0
M  END
> <PUBCHEM_COMPOUND_CID>
86769012

> <PUBCHEM_CONFORMER_RMSD>
0.8

> <PUBCHEM_CONFORMER_DIVERSEORDER>
2
20
21
10
17
14
22
9
19
15
3
11
16
13
12
4
6
5
7
18
8
1

> <PUBCHEM_MMFF94_PARTIAL_CHARGES>
27
1 -0.57
10 0.3
11 0.3
12 0.69
13 0.69
14 0.44
15 -0.14
16 -0.15
17 -0.15
18 -0.15
19 -0.15
2 -0.57
20 -0.15
3 -0.66
30 0.37
31 0.37
34 0.15
35 0.15
36 0.15
37 0.15
38 0.15
4 -0.66
5 -0.73
6 -0.73
7 0.3
8 0.3
9 0.3

> <PUBCHEM_EFFECTIVE_ROTOR_COUNT>
5.2

> <PUBCHEM_PHARMACOPHORE_FEATURES>
7
1 1 acceptor
1 2 acceptor
1 5 donor
1 6 donor
5 3 5 7 9 12 rings
6 15 16 17 18 19 20 rings
6 3 4 7 8 10 11 rings

> <PUBCHEM_HEAVY_ATOM_COUNT>
20

> <PUBCHEM_ATOM_DEF_STEREO_COUNT>
1

> <PUBCHEM_ATOM_UDEF_STEREO_COUNT>
0

> <PUBCHEM_BOND_DEF_STEREO_COUNT>
0

> <PUBCHEM_BOND_UDEF_STEREO_COUNT>
0

> <PUBCHEM_ISOTOPIC_ATOM_COUNT>
0

> <PUBCHEM_COMPONENT_COUNT>
1

> <PUBCHEM_CACTVS_TAUTO_COUNT>
4

> <PUBCHEM_CONFORMER_ID>
052BFD7400000002

> <PUBCHEM_MMFF94_ENERGY>
44.7571

> <PUBCHEM_FEATURE_SELFOVERLAP>
35.619

> <PUBCHEM_SHAPE_FINGERPRINT>
10042902 136 17846215613243743847
10447042 23 18040715840791168354
10498660 4 13695863727623594943
11046707 91 18201719526810131281
11370993 144 13757812377380103023
11796584 16 18273215266137587789
12363563 72 17989204871727475521
12553582 1 18335425642590249993
12596602 18 13973675148633642799
12633257 1 14620791643461217631
12670546 177 17603302661213637143
12892183 10 13326858855081898373
13103583 49 15267074622296654115
13583140 156 14836123195952870545
13887833 79 16877937231077872871
14123255 352 11241970399397743399
14123260 362 11746936495079755553
1420 369 17989202681278557487
14251764 30 16486708965655425068
14251764 38 12325399500807235438
14576447 43 18334861619301199034
14848178 5 18272643537134259559
14950920 106 14333405649137380583
15188451 53 15697989782859075063
15209294 21 9079113341147435331
15342168 16 11675138351911696955
15537594 2 18338528451582553635
15880784 105 16343697763983408019
1798214 20 18408879650876536499
18186145 218 16588023515709489105
18915474 69 18408606967476256754
193927 3 18131354137265812311
19862831 5 17240482489891127153
200 152 18187369804835319024
20626108 58 18201433705411101433
20645477 70 18113903805026734968
20671657 53 18340767139246205841
20739085 24 13326853344855486794
20871999 31 17967813847260356105
21503847 285 9871483027260594328
21713013 43 17894912992413251059
21756936 100 9294988198849876176
221357 26 17967246525257113223
22393880 68 17676480679212365899
22646028 28 18343584053454809179
23402539 116 18261400996781171840
235170 7 16443063906845630459
23559900 14 18201426004777723105
23596394 208 17530682130070182160
2838139 119 13623524679799144742
3004659 81 18411133658530193831
312423 11 18059583528537132785
328310 1195 15430617154838918806
339767 52 18341601603582669414
341906 21 12468639477389341573
3472631 163 12685091497234884999
351380 3 18272094911244910395
3737641 26 16700914695238787430
4028521 119 14129057010968358959
44062 13 18411691098462645879
46194498 28 16661779958344085855
474 4 9583525300033282025
49207404 50 12679464230946282069
5281201 14 16588032320159986317
602551 16 17346878944745963350
7970288 3 17988926725382854335
960060 61 17967245403679876839

> <PUBCHEM_SHAPE_MULTIPOLES>
379.93
11.64
2.11
1.54
0.37
0.15
0.13
-7.27
4.03
0.09
-0.11
0.39
-0.04
-0.95

> <PUBCHEM_SHAPE_SELFOVERLAP>
803.62

> <PUBCHEM_SHAPE_VOLUME>
211.8

> <PUBCHEM_COORDINATE_TYPE>
2
5
10

$$$$
