40780192
  -OEChem-12032416163D

 72 76  0     1  0  0  0  0  0999 V2000
   -5.1246   -1.9629    0.4624 O   0  0  0  0  0  0  0  0  0  0  0  0
   -0.8871   -3.6218    0.1134 N   0  0  2  0  0  0  0  0  0  0  0  0
    2.8043   -0.4803    0.4683 N   0  0  0  0  0  0  0  0  0  0  0  0
   -3.2053   -0.8154    1.0554 N   0  0  0  0  0  0  0  0  0  0  0  0
   -5.1082    0.3833    0.5370 N   0  0  0  0  0  0  0  0  0  0  0  0
   -8.8248    4.8833   -0.4162 N   0  0  0  0  0  0  0  0  0  0  0  0
    0.5883   -1.8022   -1.0178 C   0  0  2  0  0  0  0  0  0  0  0  0
    1.3141   -2.4244    0.1969 C   0  0  2  0  0  0  0  0  0  0  0  0
   -0.7607   -1.2172   -0.5610 C   0  0  0  0  0  0  0  0  0  0  0  0
   -1.6580   -2.3572   -0.0298 C   0  0  2  0  0  0  0  0  0  0  0  0
    0.3406   -3.3882    0.9118 C   0  0  0  0  0  0  0  0  0  0  0  0
    0.2792   -2.9546   -1.9927 C   0  0  0  0  0  0  0  0  0  0  0  0
   -0.4793   -4.0638   -1.2425 C   0  0  0  0  0  0  0  0  0  0  0  0
    1.8820   -1.3825    1.1578 C   0  0  0  0  0  0  0  0  0  0  0  0
   -2.3745   -1.9610    1.2632 C   0  0  0  0  0  0  0  0  0  0  0  0
    4.1278   -1.1034    0.3330 C   0  0  0  0  0  0  0  0  0  0  0  0
    2.8927    0.8039    1.1761 C   0  0  0  0  0  0  0  0  0  0  0  0
    5.2084    1.1807    0.2328 C   0  0  0  0  0  0  0  0  0  0  0  0
    5.0901   -0.1941   -0.4338 C   0  0  0  0  0  0  0  0  0  0  0  0
    3.8124    1.7786    0.4377 C   0  0  0  0  0  0  0  0  0  0  0  0
    6.0903    2.1155   -0.5905 C   0  0  0  0  0  0  0  0  0  0  0  0
   -4.5530   -0.8934    0.6606 C   0  0  0  0  0  0  0  0  0  0  0  0
    7.5519    1.8276   -0.3810 C   0  0  0  0  0  0  0  0  0  0  0  0
    8.2529    2.4800    0.6331 C   0  0  0  0  0  0  0  0  0  0  0  0
    8.2061    0.9084   -1.2013 C   0  0  0  0  0  0  0  0  0  0  0  0
    9.6082    2.2131    0.8274 C   0  0  0  0  0  0  0  0  0  0  0  0
    9.5615    0.6414   -1.0072 C   0  0  0  0  0  0  0  0  0  0  0  0
   -6.4291    0.7230    0.1625 C   0  0  0  0  0  0  0  0  0  0  0  0
   10.2624    1.2936    0.0073 C   0  0  0  0  0  0  0  0  0  0  0  0
   -6.8114    2.0625    0.0893 C   0  0  0  0  0  0  0  0  0  0  0  0
   -7.3498   -0.2822   -0.1343 C   0  0  0  0  0  0  0  0  0  0  0  0
   -8.1141    2.3970   -0.2806 C   0  0  0  0  0  0  0  0  0  0  0  0
   -8.6525    0.0523   -0.5044 C   0  0  0  0  0  0  0  0  0  0  0  0
   -9.0347    1.3918   -0.5774 C   0  0  0  0  0  0  0  0  0  0  0  0
   -8.5063    3.7690   -0.3555 C   0  0  0  0  0  0  0  0  0  0  0  0
    1.1904   -1.0415   -1.5243 H   0  0  0  0  0  0  0  0  0  0  0  0
    2.1420   -3.0364   -0.1856 H   0  0  0  0  0  0  0  0  0  0  0  0
   -0.5982   -0.4340    0.1865 H   0  0  0  0  0  0  0  0  0  0  0  0
   -1.2562   -0.7359   -1.4138 H   0  0  0  0  0  0  0  0  0  0  0  0
   -2.4469   -2.5370   -0.7753 H   0  0  0  0  0  0  0  0  0  0  0  0
    0.8437   -4.3497    1.0800 H   0  0  0  0  0  0  0  0  0  0  0  0
    0.0799   -3.0342    1.9154 H   0  0  0  0  0  0  0  0  0  0  0  0
    1.2075   -3.3576   -2.4143 H   0  0  0  0  0  0  0  0  0  0  0  0
   -0.3246   -2.5850   -2.8303 H   0  0  0  0  0  0  0  0  0  0  0  0
   -1.3625   -4.3670   -1.8185 H   0  0  0  0  0  0  0  0  0  0  0  0
    0.1439   -4.9641   -1.1674 H   0  0  0  0  0  0  0  0  0  0  0  0
    2.3698   -1.8735    2.0109 H   0  0  0  0  0  0  0  0  0  0  0  0
    1.0476   -0.8153    1.5889 H   0  0  0  0  0  0  0  0  0  0  0  0
   -1.6694   -1.6966    2.0575 H   0  0  0  0  0  0  0  0  0  0  0  0
   -2.9925   -2.7906    1.6254 H   0  0  0  0  0  0  0  0  0  0  0  0
    4.0611   -2.0461   -0.2205 H   0  0  0  0  0  0  0  0  0  0  0  0
    4.5544   -1.3358    1.3179 H   0  0  0  0  0  0  0  0  0  0  0  0
    3.2527    0.6601    2.2033 H   0  0  0  0  0  0  0  0  0  0  0  0
    1.8990    1.2645    1.2393 H   0  0  0  0  0  0  0  0  0  0  0  0
    5.6519    1.0415    1.2292 H   0  0  0  0  0  0  0  0  0  0  0  0
    6.0643   -0.6919   -0.4748 H   0  0  0  0  0  0  0  0  0  0  0  0
    4.7395   -0.0856   -1.4686 H   0  0  0  0  0  0  0  0  0  0  0  0
    3.3685    2.0340   -0.5337 H   0  0  0  0  0  0  0  0  0  0  0  0
    3.8838    2.7112    1.0101 H   0  0  0  0  0  0  0  0  0  0  0  0
   -2.7991    0.1042    1.1979 H   0  0  0  0  0  0  0  0  0  0  0  0
    5.9032    3.1596   -0.3054 H   0  0  0  0  0  0  0  0  0  0  0  0
    5.8425    2.0596   -1.6584 H   0  0  0  0  0  0  0  0  0  0  0  0
   -4.4943    1.1686    0.7382 H   0  0  0  0  0  0  0  0  0  0  0  0
    7.7542    3.1965    1.2804 H   0  0  0  0  0  0  0  0  0  0  0  0
    7.6756    0.3993   -2.0015 H   0  0  0  0  0  0  0  0  0  0  0  0
   10.1540    2.7206    1.6173 H   0  0  0  0  0  0  0  0  0  0  0  0
   10.0715   -0.0728   -1.6471 H   0  0  0  0  0  0  0  0  0  0  0  0
   11.3177    1.0859    0.1583 H   0  0  0  0  0  0  0  0  0  0  0  0
   -6.0916    2.8453    0.3211 H   0  0  0  0  0  0  0  0  0  0  0  0
   -7.1299   -1.3398   -0.1003 H   0  0  0  0  0  0  0  0  0  0  0  0
   -9.3702   -0.7296   -0.7358 H   0  0  0  0  0  0  0  0  0  0  0  0
  -10.0539    1.6365   -0.8672 H   0  0  0  0  0  0  0  0  0  0  0  0
  1 22  2  0  0  0  0
  2 10  1  0  0  0  0
  2 11  1  0  0  0  0
  2 13  1  0  0  0  0
  3 14  1  0  0  0  0
  3 16  1  0  0  0  0
  3 17  1  0  0  0  0
  4 15  1  0  0  0  0
  4 22  1  0  0  0  0
  4 60  1  0  0  0  0
  5 22  1  0  0  0  0
  5 28  1  0  0  0  0
  5 63  1  0  0  0  0
  6 35  3  0  0  0  0
  7  8  1  0  0  0  0
  7  9  1  0  0  0  0
  7 12  1  0  0  0  0
  7 36  1  0  0  0  0
  8 11  1  0  0  0  0
  8 14  1  0  0  0  0
  8 37  1  0  0  0  0
  9 10  1  0  0  0  0
  9 38  1  0  0  0  0
  9 39  1  0  0  0  0
 10 15  1  0  0  0  0
 10 40  1  0  0  0  0
 11 41  1  0  0  0  0
 11 42  1  0  0  0  0
 12 13  1  0  0  0  0
 12 43  1  0  0  0  0
 12 44  1  0  0  0  0
 13 45  1  0  0  0  0
 13 46  1  0  0  0  0
 14 47  1  0  0  0  0
 14 48  1  0  0  0  0
 15 49  1  0  0  0  0
 15 50  1  0  0  0  0
 16 19  1  0  0  0  0
 16 51  1  0  0  0  0
 16 52  1  0  0  0  0
 17 20  1  0  0  0  0
 17 53  1  0  0  0  0
 17 54  1  0  0  0  0
 18 19  1  0  0  0  0
 18 20  1  0  0  0  0
 18 21  1  0  0  0  0
 18 55  1  0  0  0  0
 19 56  1  0  0  0  0
 19 57  1  0  0  0  0
 20 58  1  0  0  0  0
 20 59  1  0  0  0  0
 21 23  1  0  0  0  0
 21 61  1  0  0  0  0
 21 62  1  0  0  0  0
 23 24  2  0  0  0  0
 23 25  1  0  0  0  0
 24 26  1  0  0  0  0
 24 64  1  0  0  0  0
 25 27  2  0  0  0  0
 25 65  1  0  0  0  0
 26 29  2  0  0  0  0
 26 66  1  0  0  0  0
 27 29  1  0  0  0  0
 27 67  1  0  0  0  0
 28 30  1  0  0  0  0
 28 31  2  0  0  0  0
 29 68  1  0  0  0  0
 30 32  2  0  0  0  0
 30 69  1  0  0  0  0
 31 33  1  0  0  0  0
 31 70  1  0  0  0  0
 32 34  1  0  0  0  0
 32 35  1  0  0  0  0
 33 34  2  0  0  0  0
 33 71  1  0  0  0  0
 34 72  1  0  0  0  0
M  END
> <PUBCHEM_COMPOUND_CID>
40780192

> <PUBCHEM_CONFORMER_RMSD>
1.4

> <PUBCHEM_CONFORMER_DIVERSEORDER>
1
76
34
77
117
155
123
25
160
60
58
93
18
84
78
106
149
145
46
5
148
28
59
100
141
116
99
137
135
20
152
111
143
23
44
82
41
24
110
21
15
75
88
131
130
125
13
57
113
48
85
43
50
118
47
69
36
109
128
157
65
86
133
55
42
127
17
81
64
102
32
61
158
121
45
134
94
8
63
11
14
4
38
147
151
154
72
31
35
114
144
37
103
142
30
68
138
126
119
115
80
10
74
79
51
91
156
107
153
22
39
161
108
54
2
132
122
97
140
70
62
27
87
12
105
16
53
40
136
66
33
150
3
124
95
146
92
139
56
120
73
129
19
112
49
52
7
98
29
96
101
89
26
104
67
83
71
90
159
6
9

> <PUBCHEM_MMFF94_PARTIAL_CHARGES>
39
1 -0.57
10 0.27
11 0.27
13 0.27
14 0.27
15 0.3
16 0.27
17 0.27
2 -0.81
21 0.14
22 0.69
23 -0.14
24 -0.15
25 -0.15
26 -0.15
27 -0.15
28 0.12
29 -0.15
3 -0.81
30 -0.15
31 -0.15
32 0.07
33 -0.15
34 -0.15
35 0.48
4 -0.73
5 -0.55
6 -0.56
60 0.37
63 0.37
64 0.15
65 0.15
66 0.15
67 0.15
68 0.15
69 0.15
70 0.15
71 0.15
72 0.15

> <PUBCHEM_EFFECTIVE_ROTOR_COUNT>
11.4

> <PUBCHEM_PHARMACOPHORE_FEATURES>
10
1 1 acceptor
1 2 cation
1 3 cation
1 4 donor
1 5 donor
1 6 acceptor
6 23 24 25 26 27 29 rings
6 28 30 31 32 33 34 rings
6 3 16 17 18 19 20 rings
8 2 7 8 9 10 11 12 13 rings

> <PUBCHEM_HEAVY_ATOM_COUNT>
35

> <PUBCHEM_ATOM_DEF_STEREO_COUNT>
3

> <PUBCHEM_ATOM_UDEF_STEREO_COUNT>
0

> <PUBCHEM_BOND_DEF_STEREO_COUNT>
0

> <PUBCHEM_BOND_UDEF_STEREO_COUNT>
0

> <PUBCHEM_ISOTOPIC_ATOM_COUNT>
0

> <PUBCHEM_COMPONENT_COUNT>
1

> <PUBCHEM_CACTVS_TAUTO_COUNT>
3

> <PUBCHEM_CONFORMER_ID>
026E41A000000001

> <PUBCHEM_MMFF94_ENERGY>
82.6774

> <PUBCHEM_FEATURE_SELFOVERLAP>
50.796

> <PUBCHEM_SHAPE_FINGERPRINT>
10100884 174 10087642598403785484
10190206 1 17775011167816010625
10533779 1 18335133160198746853
10864689 126 18343017834857988960
10904742 90 18410855473371824828
11297010 23 17989211443360086246
11421887 21 18200316499019934169
11621639 179 18343298163626563480
11621639 183 18040439876326024881
12047536 79 16444168830358922755
12098696 120 18341057384508867386
12522641 68 18201718478955254111
12539745 222 11674865694049827727
13248334 5 18121780534609811939
13782708 43 10159688098266819019
14150023 24 18410294731269795610
14400156 350 18268143163048882150
15152005 290 18410574002785338807
15198563 99 17768237265857128743
15350500 55 18335138691408819595
15439362 3 18412547587466276062
15890870 6 18412544318879242153
16087824 20 18409167701322317336
17852330 162 15122652787205273824
19053607 189 18340475670086280865
20721686 146 18408604730067431965
21585481 151 8934999274876026573
21585482 111 18335137553807716389
21647283 7 17677059077984296696
21792938 703 11383818394634100703
21796203 349 13334740154272242714
22899556 10 8209987933806855343
23516275 100 18263078821751668189
23522609 53 17024606709999774526
23523787 8 16343695526279288607
23569943 247 9943803396916340533
23729398 52 18119527635722277266
24771293 8 18260267430864309933
3918712 181 18411699851010461009
4756326 101 18059855082345137540
5372103 7 18273217478172352437
54039377 194 9727637206500825568
5719381 82 10952052264703164837
57303763 176 18338234865663036520
6201320 82 18269564845407638401
6327066 14 18413389856005775007
636775 8 9151184160022819904
6698420 124 17677613232756650282
9962374 69 11743839179609781410

> <PUBCHEM_SHAPE_MULTIPOLES>
689.51
36.27
4.96
1.18
5.35
0.08
0.16
-50.33
5.05
-7.49
0.83
0.73
0.62
1.61

> <PUBCHEM_SHAPE_SELFOVERLAP>
1467.264

> <PUBCHEM_SHAPE_VOLUME>
375.6

> <PUBCHEM_COORDINATE_TYPE>
2
5
10

$$$$
