75368649
  -OEChem-12032416393D

 40 42  0     1  0  0  0  0  0999 V2000
    0.0134    2.4553    0.5387 O   0  0  0  0  0  0  0  0  0  0  0  0
    0.6553    0.2828   -0.1186 N   0  0  0  0  0  0  0  0  0  0  0  0
   -1.5229    0.8274   -0.1745 N   0  0  0  0  0  0  0  0  0  0  0  0
   -3.8560   -0.7431   -0.2103 N   0  0  2  0  0  0  0  0  0  0  0  0
   -1.4660   -0.5016   -0.7466 C   0  0  1  0  0  0  0  0  0  0  0  0
    2.0800    0.3282    0.1056 C   0  0  0  0  0  0  0  0  0  0  0  0
   -0.0268   -0.9448   -0.4915 C   0  0  0  0  0  0  0  0  0  0  0  0
   -2.5345   -1.3967   -0.1198 C   0  0  0  0  0  0  0  0  0  0  0  0
    2.4989   -0.7164    1.1435 C   0  0  0  0  0  0  0  0  0  0  0  0
    2.8366    0.1394   -1.2114 C   0  0  0  0  0  0  0  0  0  0  0  0
   -0.2517    1.3327    0.1295 C   0  0  0  0  0  0  0  0  0  0  0  0
   -2.7999    1.5032   -0.0773 C   0  0  0  0  0  0  0  0  0  0  0  0
    4.0104   -0.7226    1.3562 C   0  0  0  0  0  0  0  0  0  0  0  0
    4.3478    0.1305   -0.9960 C   0  0  0  0  0  0  0  0  0  0  0  0
   -3.8524    0.5525    0.4987 C   0  0  0  0  0  0  0  0  0  0  0  0
    4.7626   -0.9088    0.0416 C   0  0  0  0  0  0  0  0  0  0  0  0
   -4.8949   -1.6180    0.3324 C   0  0  0  0  0  0  0  0  0  0  0  0
   -1.6404   -0.3931   -1.8252 H   0  0  0  0  0  0  0  0  0  0  0  0
    2.3245    1.3231    0.4995 H   0  0  0  0  0  0  0  0  0  0  0  0
    0.0320   -1.6530    0.3405 H   0  0  0  0  0  0  0  0  0  0  0  0
    0.4184   -1.3901   -1.3848 H   0  0  0  0  0  0  0  0  0  0  0  0
   -2.5482   -2.3546   -0.6536 H   0  0  0  0  0  0  0  0  0  0  0  0
   -2.2907   -1.6075    0.9304 H   0  0  0  0  0  0  0  0  0  0  0  0
    1.9931   -0.5243    2.0975 H   0  0  0  0  0  0  0  0  0  0  0  0
    2.2004   -1.7234    0.8273 H   0  0  0  0  0  0  0  0  0  0  0  0
    2.5710    0.9385   -1.9144 H   0  0  0  0  0  0  0  0  0  0  0  0
    2.5508   -0.8036   -1.6928 H   0  0  0  0  0  0  0  0  0  0  0  0
   -3.0786    1.8190   -1.0892 H   0  0  0  0  0  0  0  0  0  0  0  0
   -2.6944    2.4001    0.5410 H   0  0  0  0  0  0  0  0  0  0  0  0
    4.2819   -1.5237    2.0529 H   0  0  0  0  0  0  0  0  0  0  0  0
    4.3168    0.2225    1.8213 H   0  0  0  0  0  0  0  0  0  0  0  0
    4.6746    1.1247   -0.6672 H   0  0  0  0  0  0  0  0  0  0  0  0
    4.8548   -0.0739   -1.9458 H   0  0  0  0  0  0  0  0  0  0  0  0
   -3.6538    0.3970    1.5677 H   0  0  0  0  0  0  0  0  0  0  0  0
   -4.8349    1.0317    0.4135 H   0  0  0  0  0  0  0  0  0  0  0  0
    5.8414   -0.8404    0.2211 H   0  0  0  0  0  0  0  0  0  0  0  0
    4.5669   -1.9142   -0.3512 H   0  0  0  0  0  0  0  0  0  0  0  0
   -4.9302   -2.5623   -0.2220 H   0  0  0  0  0  0  0  0  0  0  0  0
   -5.8819   -1.1546    0.2256 H   0  0  0  0  0  0  0  0  0  0  0  0
   -4.7333   -1.8458    1.3922 H   0  0  0  0  0  0  0  0  0  0  0  0
  1 11  2  0  0  0  0
  2  6  1  0  0  0  0
  2  7  1  0  0  0  0
  2 11  1  0  0  0  0
  3  5  1  0  0  0  0
  3 11  1  0  0  0  0
  3 12  1  0  0  0  0
  4  8  1  0  0  0  0
  4 15  1  0  0  0  0
  4 17  1  0  0  0  0
  5  7  1  0  0  0  0
  5  8  1  0  0  0  0
  5 18  1  0  0  0  0
  6  9  1  0  0  0  0
  6 10  1  0  0  0  0
  6 19  1  0  0  0  0
  7 20  1  0  0  0  0
  7 21  1  0  0  0  0
  8 22  1  0  0  0  0
  8 23  1  0  0  0  0
  9 13  1  0  0  0  0
  9 24  1  0  0  0  0
  9 25  1  0  0  0  0
 10 14  1  0  0  0  0
 10 26  1  0  0  0  0
 10 27  1  0  0  0  0
 12 15  1  0  0  0  0
 12 28  1  0  0  0  0
 12 29  1  0  0  0  0
 13 16  1  0  0  0  0
 13 30  1  0  0  0  0
 13 31  1  0  0  0  0
 14 16  1  0  0  0  0
 14 32  1  0  0  0  0
 14 33  1  0  0  0  0
 15 34  1  0  0  0  0
 15 35  1  0  0  0  0
 16 36  1  0  0  0  0
 16 37  1  0  0  0  0
 17 38  1  0  0  0  0
 17 39  1  0  0  0  0
 17 40  1  0  0  0  0
M  END
> <PUBCHEM_COMPOUND_CID>
75368649

> <PUBCHEM_CONFORMER_RMSD>
0.6

> <PUBCHEM_CONFORMER_DIVERSEORDER>
1
14
5
6
4
16
2
12
15
9
13
11
8
3
7
10

> <PUBCHEM_MMFF94_PARTIAL_CHARGES>
12
1 -0.57
11 0.69
12 0.3
15 0.27
17 0.27
2 -0.66
3 -0.66
4 -0.81
5 0.3
6 0.3
7 0.3
8 0.27

> <PUBCHEM_EFFECTIVE_ROTOR_COUNT>
3.4

> <PUBCHEM_PHARMACOPHORE_FEATURES>
5
1 1 acceptor
1 4 cation
5 2 3 5 7 11 rings
6 3 4 5 8 12 15 rings
6 6 9 10 13 14 16 rings

> <PUBCHEM_HEAVY_ATOM_COUNT>
17

> <PUBCHEM_ATOM_DEF_STEREO_COUNT>
1

> <PUBCHEM_ATOM_UDEF_STEREO_COUNT>
0

> <PUBCHEM_BOND_DEF_STEREO_COUNT>
0

> <PUBCHEM_BOND_UDEF_STEREO_COUNT>
0

> <PUBCHEM_ISOTOPIC_ATOM_COUNT>
0

> <PUBCHEM_COMPONENT_COUNT>
1

> <PUBCHEM_CACTVS_TAUTO_COUNT>
1

> <PUBCHEM_CONFORMER_ID>
047E08C900000001

> <PUBCHEM_MMFF94_ENERGY>
27.8937

> <PUBCHEM_FEATURE_SELFOVERLAP>
25.468

> <PUBCHEM_SHAPE_FINGERPRINT>
11046707 91 18409446986075865633
11132069 177 18272652316295007525
11543360 7 16443346511282292703
11578080 2 17897136161616966828
12032990 46 18343868822413038005
12236239 1 18113620067250858838
12553582 1 18340479062498572871
13103583 49 18047504307285878283
13167823 11 18113337492335460250
13214271 11 18130501951335012549
13288520 33 18411702054417828406
13581323 91 18412539882367747526
13675066 3 17346598577548749511
13760787 19 17968095274813156233
13760787 5 17894916230433308015
13862211 1 18341890827255570527
14252887 29 17847068782969883198
14576447 43 17822009809493314162
15375462 189 18187644691252829890
16752209 62 18337375081191297567
16945 1 18270959051113671165
17804303 29 18343020016948683881
17834072 33 17894351098462641318
18186145 218 17894345588356983436
18222031 100 18201431523762744655
18915474 69 18113901576223577194
19026448 5 17676207939887846916
19141452 34 17418374731307699239
19422 9 18113336392623203522
200 152 16950000322483795132
20028762 73 17844527915084400055
20279233 1 17131828751140030622
20281475 54 18186795868244745923
20645477 70 15502644980363702154
21029758 27 18408606989252007637
21033648 29 16558459808338447635
21267235 1 18410020943714338782
22646028 1 18040433282944518410
22646028 28 18259700086542061898
22854114 59 16630806608051475726
2297311 6 18201167576700445892
23366157 5 18046904058955820661
23402539 116 18343014467560702988
23532345 42 18202562890856980232
23557571 272 18059590056834272516
23559900 14 18128261073797338606
2838139 119 13757528660868659155
465052 167 18338525265133784895
474 4 17460044096397962012
5104073 3 18342181115478396673
573450 72 18261387810814776809
5902787 121 18339921614318817968
633830 44 12319742474663805364
7364860 26 17985829469424755800
77492 1 18041000605448927764
8863177 126 17754186589669909699

> <PUBCHEM_SHAPE_MULTIPOLES>
329.04
9.65
1.68
1.04
0.69
0.53
0.05
-3.79
0.6
-1.34
0.25
1
-0.1
-0.5

> <PUBCHEM_SHAPE_SELFOVERLAP>
678.113

> <PUBCHEM_SHAPE_VOLUME>
189.3

> <PUBCHEM_COORDINATE_TYPE>
2
5
10

$$$$
