11882081
  -OEChem-12032416123D

 71 74  0     1  0  0  0  0  0999 V2000
   -6.9046   -0.7467   -1.4953 S   0  0  0  0  0  0  0  0  0  0  0  0
    2.7160    1.4363    0.8439 O   0  0  0  0  0  0  0  0  0  0  0  0
    3.3497   -1.0100   -1.6412 O   0  0  0  0  0  0  0  0  0  0  0  0
   -2.3082   -0.3817    0.3074 O   0  0  0  0  0  0  0  0  0  0  0  0
    2.3541    2.6375   -2.9356 O   0  0  0  0  0  0  0  0  0  0  0  0
    2.4467   -1.1945    0.4734 N   0  0  0  0  0  0  0  0  0  0  0  0
   -0.5748   -1.6833    1.1108 N   0  0  0  0  0  0  0  0  0  0  0  0
    1.0014    1.8529   -0.6746 N   0  0  0  0  0  0  0  0  0  0  0  0
    5.7914   -2.1126   -0.1563 N   0  0  0  0  0  0  0  0  0  0  0  0
   -2.5074   -2.7175    0.4293 N   0  0  0  0  0  0  0  0  0  0  0  0
    3.1136    4.4826   -1.7976 N   0  0  0  0  0  0  0  0  0  0  0  0
    0.3382   -0.5982    1.3813 C   0  0  2  0  0  0  0  0  0  0  0  0
    1.2799   -0.3600    0.2003 C   0  0  1  0  0  0  0  0  0  0  0  0
    1.2899   -0.9533    2.5263 C   0  0  0  0  0  0  0  0  0  0  0  0
    2.4095   -1.7228    1.8375 C   0  0  0  0  0  0  0  0  0  0  0  0
    1.7622    1.0602    0.1676 C   0  0  0  0  0  0  0  0  0  0  0  0
    3.3893   -1.5004   -0.5120 C   0  0  0  0  0  0  0  0  0  0  0  0
    4.4556   -2.4173   -0.1292 C   0  0  0  0  0  0  0  0  0  0  0  0
    1.2454    3.2642   -0.8659 C   0  0  2  0  0  0  0  0  0  0  0  0
   -1.8562   -1.4904    0.5831 C   0  0  0  0  0  0  0  0  0  0  0  0
   -0.0298    4.0273   -1.2421 C   0  0  0  0  0  0  0  0  0  0  0  0
    4.3276   -3.7152    0.3138 C   0  0  0  0  0  0  0  0  0  0  0  0
    2.2852    3.3935   -1.9694 C   0  0  0  0  0  0  0  0  0  0  0  0
    6.5181   -3.1963    0.2635 C   0  0  0  0  0  0  0  0  0  0  0  0
    5.6325   -4.2081    0.5620 C   0  0  0  0  0  0  0  0  0  0  0  0
   -0.9059    4.3239   -0.0494 C   0  0  0  0  0  0  0  0  0  0  0  0
    6.3637   -0.8475   -0.5613 C   0  0  0  0  0  0  0  0  0  0  0  0
   -3.8098   -2.9526   -0.0699 C   0  0  0  0  0  0  0  0  0  0  0  0
   -1.8889    3.4130    0.3376 C   0  0  0  0  0  0  0  0  0  0  0  0
   -0.7326    5.5087    0.6661 C   0  0  0  0  0  0  0  0  0  0  0  0
   -4.6042   -1.8817   -0.4798 C   0  0  0  0  0  0  0  0  0  0  0  0
   -4.2997   -4.2560   -0.1518 C   0  0  0  0  0  0  0  0  0  0  0  0
   -2.6986    3.6869    1.4399 C   0  0  0  0  0  0  0  0  0  0  0  0
   -1.5422    5.7824    1.7685 C   0  0  0  0  0  0  0  0  0  0  0  0
   -2.5252    4.8714    2.1553 C   0  0  0  0  0  0  0  0  0  0  0  0
   -5.8887   -2.1143   -0.9714 C   0  0  0  0  0  0  0  0  0  0  0  0
   -5.5842   -4.4886   -0.6433 C   0  0  0  0  0  0  0  0  0  0  0  0
   -6.3787   -3.4178   -1.0532 C   0  0  0  0  0  0  0  0  0  0  0  0
   -7.0303    0.2259    0.0320 C   0  0  0  0  0  0  0  0  0  0  0  0
   -0.2507    0.2919    1.6302 H   0  0  0  0  0  0  0  0  0  0  0  0
    0.8515   -0.6427   -0.7683 H   0  0  0  0  0  0  0  0  0  0  0  0
    0.8219   -1.5327    3.3283 H   0  0  0  0  0  0  0  0  0  0  0  0
    1.6962   -0.0350    2.9674 H   0  0  0  0  0  0  0  0  0  0  0  0
    3.3765   -1.5952    2.3324 H   0  0  0  0  0  0  0  0  0  0  0  0
    2.1626   -2.7877    1.7892 H   0  0  0  0  0  0  0  0  0  0  0  0
   -0.2507   -2.6358    1.2487 H   0  0  0  0  0  0  0  0  0  0  0  0
    0.2656    1.4207   -1.2262 H   0  0  0  0  0  0  0  0  0  0  0  0
    1.6738    3.6633    0.0626 H   0  0  0  0  0  0  0  0  0  0  0  0
    0.2275    4.9800   -1.7247 H   0  0  0  0  0  0  0  0  0  0  0  0
   -0.6074    3.4745   -1.9954 H   0  0  0  0  0  0  0  0  0  0  0  0
    3.4028   -4.2628    0.4327 H   0  0  0  0  0  0  0  0  0  0  0  0
   -1.9899   -3.5471    0.7087 H   0  0  0  0  0  0  0  0  0  0  0  0
    7.5982   -3.1641    0.3145 H   0  0  0  0  0  0  0  0  0  0  0  0
    5.8988   -5.1942    0.9158 H   0  0  0  0  0  0  0  0  0  0  0  0
    7.4295   -0.8343   -0.3187 H   0  0  0  0  0  0  0  0  0  0  0  0
    5.8559   -0.0444   -0.0211 H   0  0  0  0  0  0  0  0  0  0  0  0
    6.2254   -0.7383   -1.6397 H   0  0  0  0  0  0  0  0  0  0  0  0
    3.8436    4.6924   -2.4702 H   0  0  0  0  0  0  0  0  0  0  0  0
    3.0297    5.1126   -1.0062 H   0  0  0  0  0  0  0  0  0  0  0  0
   -2.0347    2.4873   -0.2123 H   0  0  0  0  0  0  0  0  0  0  0  0
    0.0315    6.2250    0.3760 H   0  0  0  0  0  0  0  0  0  0  0  0
   -4.2688   -0.8549   -0.4479 H   0  0  0  0  0  0  0  0  0  0  0  0
   -3.6911   -5.0993    0.1642 H   0  0  0  0  0  0  0  0  0  0  0  0
   -3.4638    2.9773    1.7408 H   0  0  0  0  0  0  0  0  0  0  0  0
   -1.4068    6.7044    2.3262 H   0  0  0  0  0  0  0  0  0  0  0  0
   -3.1554    5.0845    3.0138 H   0  0  0  0  0  0  0  0  0  0  0  0
   -5.9657   -5.5035   -0.7069 H   0  0  0  0  0  0  0  0  0  0  0  0
   -7.3772   -3.6189   -1.4333 H   0  0  0  0  0  0  0  0  0  0  0  0
   -7.4136   -0.3937    0.8472 H   0  0  0  0  0  0  0  0  0  0  0  0
   -6.0566    0.6355    0.3129 H   0  0  0  0  0  0  0  0  0  0  0  0
   -7.7216    1.0572   -0.1295 H   0  0  0  0  0  0  0  0  0  0  0  0
  1 36  1  0  0  0  0
  1 39  1  0  0  0  0
  2 16  2  0  0  0  0
  3 17  2  0  0  0  0
  4 20  2  0  0  0  0
  5 23  2  0  0  0  0
  6 13  1  0  0  0  0
  6 15  1  0  0  0  0
  6 17  1  0  0  0  0
  7 12  1  0  0  0  0
  7 20  1  0  0  0  0
  7 46  1  0  0  0  0
  8 16  1  0  0  0  0
  8 19  1  0  0  0  0
  8 47  1  0  0  0  0
  9 18  1  0  0  0  0
  9 24  1  0  0  0  0
  9 27  1  0  0  0  0
 10 20  1  0  0  0  0
 10 28  1  0  0  0  0
 10 52  1  0  0  0  0
 11 23  1  0  0  0  0
 11 58  1  0  0  0  0
 11 59  1  0  0  0  0
 12 13  1  0  0  0  0
 12 14  1  0  0  0  0
 12 40  1  0  0  0  0
 13 16  1  0  0  0  0
 13 41  1  0  0  0  0
 14 15  1  0  0  0  0
 14 42  1  0  0  0  0
 14 43  1  0  0  0  0
 15 44  1  0  0  0  0
 15 45  1  0  0  0  0
 17 18  1  0  0  0  0
 18 22  2  0  0  0  0
 19 21  1  0  0  0  0
 19 23  1  0  0  0  0
 19 48  1  0  0  0  0
 21 26  1  0  0  0  0
 21 49  1  0  0  0  0
 21 50  1  0  0  0  0
 22 25  1  0  0  0  0
 22 51  1  0  0  0  0
 24 25  2  0  0  0  0
 24 53  1  0  0  0  0
 25 54  1  0  0  0  0
 26 29  2  0  0  0  0
 26 30  1  0  0  0  0
 27 55  1  0  0  0  0
 27 56  1  0  0  0  0
 27 57  1  0  0  0  0
 28 31  2  0  0  0  0
 28 32  1  0  0  0  0
 29 33  1  0  0  0  0
 29 60  1  0  0  0  0
 30 34  2  0  0  0  0
 30 61  1  0  0  0  0
 31 36  1  0  0  0  0
 31 62  1  0  0  0  0
 32 37  2  0  0  0  0
 32 63  1  0  0  0  0
 33 35  2  0  0  0  0
 33 64  1  0  0  0  0
 34 35  1  0  0  0  0
 34 65  1  0  0  0  0
 35 66  1  0  0  0  0
 36 38  2  0  0  0  0
 37 38  1  0  0  0  0
 37 67  1  0  0  0  0
 38 68  1  0  0  0  0
 39 69  1  0  0  0  0
 39 70  1  0  0  0  0
 39 71  1  0  0  0  0
M  END
> <PUBCHEM_COMPOUND_CID>
11882081

> <PUBCHEM_CONFORMER_RMSD>
1.2

> <PUBCHEM_CONFORMER_DIVERSEORDER>
1
109
117
65
52
59
80
79
45
114
41
96
10
111
73
28
100
85
68
76
25
51
39
84
123
101
26
83
78
115
86
14
104
47
54
75
90
71
30
40
58
98
24
62
119
91
81
124
36
12
63
108
87
9
38
97
69
118
23
105
32
82
61
107
34
74
33
46
72
49
113
20
121
48
16
57
7
35
88
122
42
53
66
6
60
89
99
2
92
70
110
27
19
116
64
43
112
120
17
67
56
37
55
106
21
18
93
103
44
95
13
22
102
94
29
31
15
50
8
4
5
3
11
77

> <PUBCHEM_MMFF94_PARTIAL_CHARGES>
55
1 -0.33
10 -0.55
11 -0.8
12 0.3
13 0.36
15 0.3
16 0.57
17 0.71
18 -0.24
19 0.36
2 -0.57
20 0.69
21 0.14
22 -0.15
23 0.57
24 -0.3
25 -0.15
26 -0.14
27 0.26
28 0.12
29 -0.15
3 -0.57
30 -0.15
31 -0.15
32 -0.15
33 -0.15
34 -0.15
35 -0.15
36 0.1
37 -0.15
38 -0.15
39 0.23
4 -0.57
46 0.37
47 0.37
5 -0.57
51 0.15
52 0.37
53 0.15
54 0.15
58 0.37
59 0.37
6 -0.66
60 0.15
61 0.15
62 0.15
63 0.15
64 0.15
65 0.15
66 0.15
67 0.15
68 0.15
7 -0.73
8 -0.73
9 0.05

> <PUBCHEM_EFFECTIVE_ROTOR_COUNT>
14

> <PUBCHEM_PHARMACOPHORE_FEATURES>
14
1 10 donor
1 11 donor
1 2 acceptor
1 3 acceptor
1 39 hydrophobe
1 4 acceptor
1 5 acceptor
1 7 donor
1 8 donor
1 9 cation
5 6 12 13 14 15 rings
5 9 18 22 24 25 rings
6 26 29 30 33 34 35 rings
6 28 31 32 36 37 38 rings

> <PUBCHEM_HEAVY_ATOM_COUNT>
39

> <PUBCHEM_ATOM_DEF_STEREO_COUNT>
3

> <PUBCHEM_ATOM_UDEF_STEREO_COUNT>
0

> <PUBCHEM_BOND_DEF_STEREO_COUNT>
0

> <PUBCHEM_BOND_UDEF_STEREO_COUNT>
0

> <PUBCHEM_ISOTOPIC_ATOM_COUNT>
0

> <PUBCHEM_COMPONENT_COUNT>
1

> <PUBCHEM_CACTVS_TAUTO_COUNT>
12

> <PUBCHEM_CONFORMER_ID>
00B54E6100000001

> <PUBCHEM_MMFF94_ENERGY>
100.8189

> <PUBCHEM_FEATURE_SELFOVERLAP>
71.1

> <PUBCHEM_SHAPE_FINGERPRINT>
10815517 723 18268432322312091305
10940486 97 18193568769941478340
11093857 51 17321548627809572213
11115154 58 18187080624777249175
11331351 85 18339910559199975499
11445158 3 14638581625772179558
11578080 2 18057028135535113882
11720765 8 18339917237815604711
12218070 45 18053108320099372065
13757389 114 18051424963295817044
14068700 675 18411413982244679027
14114211 80 17477487504073663424
15082195 135 17980745354403656607
15264996 142 18192730959846142731
15484559 13 17550679145744902614
15950262 2 14711146395091273308
18365409 1 18126007062112951225
19311894 1 18119528730763493686
21779490 27 18271238306320530437
21968339 14 18049724319144141791
23559900 14 18338506560546137475
25019877 29 17399527719175530468
255183 313 17833278523561447552
3504750 166 17975123254723814642
376196 1 17179391695369404995
4046055 25 18411134723223706110
4461854 278 17836106485059770969
508180 173 18187355541966276251
6700243 42 17843715238071816350

> <PUBCHEM_SHAPE_MULTIPOLES>
753.09
15.31
9.69
1.9
6.26
11.52
0.11
-24.99
4.68
4.52
-0.96
-0.53
2.07
-5

> <PUBCHEM_SHAPE_SELFOVERLAP>
1593.929

> <PUBCHEM_SHAPE_VOLUME>
424.1

> <PUBCHEM_COORDINATE_TYPE>
2
5
10

$$$$
