11885132
  -OEChem-12032416213D

 56 60  0     1  0  0  0  0  0999 V2000
   -1.7041    6.4800   -0.1473 Cl  0  0  0  0  0  0  0  0  0  0  0  0
    1.1925   -0.9406   -1.9714 O   0  0  0  0  0  0  0  0  0  0  0  0
   -2.8307    0.1143    2.0609 O   0  0  0  0  0  0  0  0  0  0  0  0
    6.6987    1.4488   -0.1765 O   0  0  0  0  0  0  0  0  0  0  0  0
   -3.1914   -1.4721    0.4153 N   0  0  0  0  0  0  0  0  0  0  0  0
   -0.2831   -2.2047   -0.6816 N   0  0  0  0  0  0  0  0  0  0  0  0
   -3.4556    0.8242   -0.0569 N   0  0  0  0  0  0  0  0  0  0  0  0
   -2.5856   -2.9266   -1.5334 C   0  0  1  0  0  0  0  0  0  0  0  0
   -1.8703   -3.5585    0.7301 C   0  0  2  0  0  0  0  0  0  0  0  0
   -2.4194   -4.1061   -0.5847 C   0  0  0  0  0  0  0  0  0  0  0  0
   -3.5558   -1.8788   -0.9514 C   0  0  0  0  0  0  0  0  0  0  0  0
   -1.2028   -2.3281   -1.8204 C   0  0  0  0  0  0  0  0  0  0  0  0
   -2.8912   -2.5778    1.3334 C   0  0  0  0  0  0  0  0  0  0  0  0
   -0.5409   -2.8564    0.5265 C   0  0  0  0  0  0  0  0  0  0  0  0
    0.3696   -2.8315    1.5126 C   0  0  0  0  0  0  0  0  0  0  0  0
    0.9130   -1.4957   -0.9073 C   0  0  0  0  0  0  0  0  0  0  0  0
   -3.1300   -0.1440    0.8923 C   0  0  0  0  0  0  0  0  0  0  0  0
    1.8961   -1.4506    0.2313 C   0  0  0  0  0  0  0  0  0  0  0  0
    1.6024   -2.1120    1.3608 C   0  0  0  0  0  0  0  0  0  0  0  0
    3.1540   -0.6912    0.1239 C   0  0  0  0  0  0  0  0  0  0  0  0
   -3.0368    2.1774   -0.0785 C   0  0  0  0  0  0  0  0  0  0  0  0
    4.3065   -1.3132   -0.3575 C   0  0  0  0  0  0  0  0  0  0  0  0
    3.1939    0.6507    0.5041 C   0  0  0  0  0  0  0  0  0  0  0  0
    5.4974   -0.5940   -0.4584 C   0  0  0  0  0  0  0  0  0  0  0  0
    4.3848    1.3699    0.4030 C   0  0  0  0  0  0  0  0  0  0  0  0
   -3.5320    3.0392   -1.0529 C   0  0  0  0  0  0  0  0  0  0  0  0
   -2.1323    2.6368    0.8748 C   0  0  0  0  0  0  0  0  0  0  0  0
    5.5366    0.7474   -0.0782 C   0  0  0  0  0  0  0  0  0  0  0  0
   -3.1192    4.3715   -1.0743 C   0  0  0  0  0  0  0  0  0  0  0  0
   -1.7197    3.9690    0.8534 C   0  0  0  0  0  0  0  0  0  0  0  0
   -2.2131    4.8364   -0.1211 C   0  0  0  0  0  0  0  0  0  0  0  0
    6.6684    2.8163    0.2294 C   0  0  0  0  0  0  0  0  0  0  0  0
   -3.0097   -3.2770   -2.4827 H   0  0  0  0  0  0  0  0  0  0  0  0
   -1.7433   -4.3991    1.4247 H   0  0  0  0  0  0  0  0  0  0  0  0
   -1.7373   -4.8527   -1.0107 H   0  0  0  0  0  0  0  0  0  0  0  0
   -3.3820   -4.6058   -0.4219 H   0  0  0  0  0  0  0  0  0  0  0  0
   -0.6866   -2.9678   -2.5493 H   0  0  0  0  0  0  0  0  0  0  0  0
   -1.3018   -1.3457   -2.2990 H   0  0  0  0  0  0  0  0  0  0  0  0
   -3.6035   -1.0340   -1.6400 H   0  0  0  0  0  0  0  0  0  0  0  0
   -4.5649   -2.3039   -0.8888 H   0  0  0  0  0  0  0  0  0  0  0  0
   -3.8397   -3.0936    1.5285 H   0  0  0  0  0  0  0  0  0  0  0  0
   -2.5334   -2.1994    2.2969 H   0  0  0  0  0  0  0  0  0  0  0  0
    0.1897   -3.3198    2.4647 H   0  0  0  0  0  0  0  0  0  0  0  0
    2.2762   -2.1105    2.2126 H   0  0  0  0  0  0  0  0  0  0  0  0
   -4.0887    0.5675   -0.8066 H   0  0  0  0  0  0  0  0  0  0  0  0
    4.2917   -2.3579   -0.6587 H   0  0  0  0  0  0  0  0  0  0  0  0
    2.3033    1.1491    0.8800 H   0  0  0  0  0  0  0  0  0  0  0  0
    6.3914   -1.0841   -0.8341 H   0  0  0  0  0  0  0  0  0  0  0  0
    4.3447    2.4078    0.7152 H   0  0  0  0  0  0  0  0  0  0  0  0
   -4.2382    2.6890   -1.8011 H   0  0  0  0  0  0  0  0  0  0  0  0
   -1.6864    2.0054    1.6330 H   0  0  0  0  0  0  0  0  0  0  0  0
   -3.5120    5.0360   -1.8396 H   0  0  0  0  0  0  0  0  0  0  0  0
   -1.0070    4.3162    1.5972 H   0  0  0  0  0  0  0  0  0  0  0  0
    7.6762    3.2189    0.0843 H   0  0  0  0  0  0  0  0  0  0  0  0
    6.4353    2.9148    1.2951 H   0  0  0  0  0  0  0  0  0  0  0  0
    5.9943    3.4078   -0.3993 H   0  0  0  0  0  0  0  0  0  0  0  0
  1 31  1  0  0  0  0
  2 16  2  0  0  0  0
  3 17  2  0  0  0  0
  4 28  1  0  0  0  0
  4 32  1  0  0  0  0
  5 11  1  0  0  0  0
  5 13  1  0  0  0  0
  5 17  1  0  0  0  0
  6 12  1  0  0  0  0
  6 14  1  0  0  0  0
  6 16  1  0  0  0  0
  7 17  1  0  0  0  0
  7 21  1  0  0  0  0
  7 45  1  0  0  0  0
  8 10  1  0  0  0  0
  8 11  1  0  0  0  0
  8 12  1  0  0  0  0
  8 33  1  0  0  0  0
  9 10  1  0  0  0  0
  9 13  1  0  0  0  0
  9 14  1  0  0  0  0
  9 34  1  0  0  0  0
 10 35  1  0  0  0  0
 10 36  1  0  0  0  0
 11 39  1  0  0  0  0
 11 40  1  0  0  0  0
 12 37  1  0  0  0  0
 12 38  1  0  0  0  0
 13 41  1  0  0  0  0
 13 42  1  0  0  0  0
 14 15  2  0  0  0  0
 15 19  1  0  0  0  0
 15 43  1  0  0  0  0
 16 18  1  0  0  0  0
 18 19  2  0  0  0  0
 18 20  1  0  0  0  0
 19 44  1  0  0  0  0
 20 22  2  0  0  0  0
 20 23  1  0  0  0  0
 21 26  2  0  0  0  0
 21 27  1  0  0  0  0
 22 24  1  0  0  0  0
 22 46  1  0  0  0  0
 23 25  2  0  0  0  0
 23 47  1  0  0  0  0
 24 28  2  0  0  0  0
 24 48  1  0  0  0  0
 25 28  1  0  0  0  0
 25 49  1  0  0  0  0
 26 29  1  0  0  0  0
 26 50  1  0  0  0  0
 27 30  2  0  0  0  0
 27 51  1  0  0  0  0
 29 31  2  0  0  0  0
 29 52  1  0  0  0  0
 30 31  1  0  0  0  0
 30 53  1  0  0  0  0
 32 54  1  0  0  0  0
 32 55  1  0  0  0  0
 32 56  1  0  0  0  0
M  END
> <PUBCHEM_COMPOUND_CID>
11885132

> <PUBCHEM_CONFORMER_RMSD>
0.8

> <PUBCHEM_CONFORMER_DIVERSEORDER>
1
17
4
15
16
20
3
11
7
9
21
10
8
13
14
19
23
12
5
18
6
22
2

> <PUBCHEM_MMFF94_PARTIAL_CHARGES>
41
1 -0.18
11 0.3
12 0.3
13 0.3
14 -0.03
15 -0.15
16 0.62
17 0.69
18 -0.01
19 -0.15
2 -0.57
20 0.03
21 0.12
22 -0.15
23 -0.15
24 -0.15
25 -0.15
26 -0.15
27 -0.15
28 0.08
29 -0.15
3 -0.57
30 -0.15
31 0.18
32 0.28
4 -0.36
43 0.15
44 0.15
45 0.37
46 0.15
47 0.15
48 0.15
49 0.15
5 -0.66
50 0.15
51 0.15
52 0.15
53 0.15
6 -0.47
7 -0.55
9 0.14

> <PUBCHEM_EFFECTIVE_ROTOR_COUNT>
6

> <PUBCHEM_PHARMACOPHORE_FEATURES>
9
1 2 acceptor
1 3 acceptor
1 4 acceptor
1 7 donor
6 20 22 23 24 25 28 rings
6 21 26 27 29 30 31 rings
6 5 8 9 10 11 13 rings
6 6 14 15 16 18 19 rings
6 6 8 9 10 12 14 rings

> <PUBCHEM_HEAVY_ATOM_COUNT>
32

> <PUBCHEM_ATOM_DEF_STEREO_COUNT>
2

> <PUBCHEM_ATOM_UDEF_STEREO_COUNT>
0

> <PUBCHEM_BOND_DEF_STEREO_COUNT>
0

> <PUBCHEM_BOND_UDEF_STEREO_COUNT>
0

> <PUBCHEM_ISOTOPIC_ATOM_COUNT>
0

> <PUBCHEM_COMPONENT_COUNT>
1

> <PUBCHEM_CACTVS_TAUTO_COUNT>
2

> <PUBCHEM_CONFORMER_ID>
00B55A4C00000001

> <PUBCHEM_MMFF94_ENERGY>
103.7797

> <PUBCHEM_FEATURE_SELFOVERLAP>
47.241

> <PUBCHEM_SHAPE_FINGERPRINT>
100830 39 18410575120057299000
10087517 78 18268146642636354536
10838868 217 17251997465396033160
10871710 139 18411412925988906639
10937287 8 18193271888637105643
10951579 204 18337127726474576060
11476731 118 17689999360041006232
11477941 20 18056467581387446910
11763715 3 18121509208714116590
12104220 1 18191301783756443548
12107183 9 17973712594374623698
12788726 201 18335687386350175963
13761468 95 18129401322994744640
13944108 23 16607453762994177124
13965767 371 17246967224946236543
14020679 6 13407334266982118935
14251764 75 18124037819275400249
14394314 77 18410578418407436145
15400415 2 18050004394543145844
155225 5 18409730651798043072
15961568 22 18124880320286400124
16067690 210 18045762736475313128
16992787 43 18338509730880920197
17974551 9 17027142994834576147
21033648 144 18273497892613874552
21033650 10 18190484765033778870
21716022 299 15544850051722985463
21927370 108 18049453835248256739
21987440 362 17760657962595743484
22956985 138 16675009475207225035
23516275 100 17693083476908272912
238 59 17334779682876488107
24771293 8 18271824423606563187
25019877 29 16915684638382218047
3493558 16 18189905395214760380
376196 1 17756425955104197497
4173938 77 16181589797974087433
4487111 67 18409445869554024936
469060 322 16515681169434291854
50677037 204 18195809789688424792
53794403 172 17402332569012039757
550186 7 18271255988241537142
550186 72 18266179616187525172
57527306 92 18188203329698084167
6036956 94 18334017202592828461
6201320 215 18342171203390943584
6608658 132 18269545203688133406
9981440 41 18121496848140278913

> <PUBCHEM_SHAPE_MULTIPOLES>
627.86
11.15
7.97
1.46
23.29
10.76
-0.06
8.77
-0.7
-10.08
-0.47
-0.96
-0.93
0.28

> <PUBCHEM_SHAPE_SELFOVERLAP>
1369.207

> <PUBCHEM_SHAPE_VOLUME>
339.1

> <PUBCHEM_COORDINATE_TYPE>
2
5
10

$$$$
