38027389
  -OEChem-12032416253D

 71 72  0     1  0  0  0  0  0999 V2000
    2.7461   -2.5308    1.1576 S   0  0  0  0  0  0  0  0  0  0  0  0
   -1.3604    3.7204    0.1504 O   0  0  0  0  0  0  0  0  0  0  0  0
    2.8763   -2.6044    2.6004 O   0  0  0  0  0  0  0  0  0  0  0  0
    3.4525   -3.4743    0.3124 O   0  0  0  0  0  0  0  0  0  0  0  0
   -3.0013   -2.9719   -0.1845 O   0  0  0  0  0  0  0  0  0  0  0  0
    3.0798   -0.9133    0.6590 N   0  0  0  0  0  0  0  0  0  0  0  0
   -1.7106    1.9659    1.6336 N   0  0  0  0  0  0  0  0  0  0  0  0
   -5.0543    0.9239    0.3673 N   0  0  0  0  0  0  0  0  0  0  0  0
    1.4922    0.8228   -1.2142 C   0  0  1  0  0  0  0  0  0  0  0  0
    3.0365    0.7721   -1.1034 C   0  0  1  0  0  0  0  0  0  0  0  0
    1.0030    2.2791   -1.2254 C   0  0  0  0  0  0  0  0  0  0  0  0
    1.4269    3.0459    0.0415 C   0  0  2  0  0  0  0  0  0  0  0  0
    0.9874    0.0964   -2.4649 C   0  0  0  0  0  0  0  0  0  0  0  0
    2.8897    2.8260    0.3697 C   0  0  0  0  0  0  0  0  0  0  0  0
    3.5962    1.8125   -0.1619 C   0  0  0  0  0  0  0  0  0  0  0  0
    3.5146   -0.6185   -0.6702 C   0  0  0  0  0  0  0  0  0  0  0  0
    0.5359    2.6789    1.2334 C   0  0  0  0  0  0  0  0  0  0  0  0
   -0.5376    0.0727   -2.4874 C   0  0  0  0  0  0  0  0  0  0  0  0
    1.5369    0.7601   -3.7235 C   0  0  0  0  0  0  0  0  0  0  0  0
    3.5352    3.8256    1.2886 C   0  0  0  0  0  0  0  0  0  0  0  0
   -0.9321    2.8701    0.9260 C   0  0  0  0  0  0  0  0  0  0  0  0
    1.0294   -2.6649    0.7580 C   0  0  0  0  0  0  0  0  0  0  0  0
   -3.1515    1.9200    1.5365 C   0  0  0  0  0  0  0  0  0  0  0  0
   -3.5994    0.9774    0.4293 C   0  0  0  0  0  0  0  0  0  0  0  0
    0.6405   -3.1174   -0.5029 C   0  0  0  0  0  0  0  0  0  0  0  0
    0.0638   -2.3156    1.7022 C   0  0  0  0  0  0  0  0  0  0  0  0
   -0.7140   -3.2204   -0.8196 C   0  0  0  0  0  0  0  0  0  0  0  0
   -1.2907   -2.4186    1.3853 C   0  0  0  0  0  0  0  0  0  0  0  0
   -1.6796   -2.8712    0.1246 C   0  0  0  0  0  0  0  0  0  0  0  0
   -5.5850    2.0971   -0.3298 C   0  0  0  0  0  0  0  0  0  0  0  0
   -5.4981   -0.3037   -0.2963 C   0  0  0  0  0  0  0  0  0  0  0  0
   -3.3283   -3.4416   -1.4916 C   0  0  0  0  0  0  0  0  0  0  0  0
    1.0472    0.3313   -0.3398 H   0  0  0  0  0  0  0  0  0  0  0  0
    3.5105    0.9933   -2.0630 H   0  0  0  0  0  0  0  0  0  0  0  0
   -0.0735    2.3467   -1.3821 H   0  0  0  0  0  0  0  0  0  0  0  0
    1.4563    2.8182   -2.0669 H   0  0  0  0  0  0  0  0  0  0  0  0
    1.2843    4.1132   -0.1792 H   0  0  0  0  0  0  0  0  0  0  0  0
    1.3276   -0.9438   -2.4506 H   0  0  0  0  0  0  0  0  0  0  0  0
    4.6557    1.7306    0.0734 H   0  0  0  0  0  0  0  0  0  0  0  0
    4.6111   -0.6529   -0.6897 H   0  0  0  0  0  0  0  0  0  0  0  0
    3.1708   -1.3757   -1.3799 H   0  0  0  0  0  0  0  0  0  0  0  0
    0.7622    3.3188    2.0950 H   0  0  0  0  0  0  0  0  0  0  0  0
    0.7267    1.6453    1.5475 H   0  0  0  0  0  0  0  0  0  0  0  0
   -0.9730    1.0303   -2.7897 H   0  0  0  0  0  0  0  0  0  0  0  0
   -0.9537   -0.2050   -1.5141 H   0  0  0  0  0  0  0  0  0  0  0  0
   -0.8861   -0.6687   -3.2158 H   0  0  0  0  0  0  0  0  0  0  0  0
    1.2169    1.7972   -3.8512 H   0  0  0  0  0  0  0  0  0  0  0  0
    1.1518    0.2237   -4.6007 H   0  0  0  0  0  0  0  0  0  0  0  0
    2.6235    0.7078   -3.8112 H   0  0  0  0  0  0  0  0  0  0  0  0
    3.4182    4.8387    0.8903 H   0  0  0  0  0  0  0  0  0  0  0  0
    4.6080    3.6416    1.4100 H   0  0  0  0  0  0  0  0  0  0  0  0
    3.0805    3.7869    2.2830 H   0  0  0  0  0  0  0  0  0  0  0  0
    3.3338   -0.2470    1.3984 H   0  0  0  0  0  0  0  0  0  0  0  0
   -1.2640    1.2962    2.2530 H   0  0  0  0  0  0  0  0  0  0  0  0
   -3.5258    1.5807    2.5090 H   0  0  0  0  0  0  0  0  0  0  0  0
   -3.5099    2.9412    1.3747 H   0  0  0  0  0  0  0  0  0  0  0  0
   -3.1563    1.2565   -0.5361 H   0  0  0  0  0  0  0  0  0  0  0  0
   -3.1962   -0.0151    0.6692 H   0  0  0  0  0  0  0  0  0  0  0  0
    1.3760   -3.3882   -1.2550 H   0  0  0  0  0  0  0  0  0  0  0  0
    0.3450   -1.9528    2.6867 H   0  0  0  0  0  0  0  0  0  0  0  0
   -0.9460   -3.5756   -1.8178 H   0  0  0  0  0  0  0  0  0  0  0  0
   -2.0385   -2.1418    2.1235 H   0  0  0  0  0  0  0  0  0  0  0  0
   -5.3437    3.0259    0.1958 H   0  0  0  0  0  0  0  0  0  0  0  0
   -6.6796    2.0511   -0.3709 H   0  0  0  0  0  0  0  0  0  0  0  0
   -5.2112    2.1729   -1.3575 H   0  0  0  0  0  0  0  0  0  0  0  0
   -5.1765   -1.1839    0.2706 H   0  0  0  0  0  0  0  0  0  0  0  0
   -5.1089   -0.3853   -1.3177 H   0  0  0  0  0  0  0  0  0  0  0  0
   -6.5922   -0.3463   -0.3387 H   0  0  0  0  0  0  0  0  0  0  0  0
   -4.4207   -3.4595   -1.5643 H   0  0  0  0  0  0  0  0  0  0  0  0
   -2.9800   -4.4677   -1.6498 H   0  0  0  0  0  0  0  0  0  0  0  0
   -2.9680   -2.7560   -2.2662 H   0  0  0  0  0  0  0  0  0  0  0  0
  1  3  2  0  0  0  0
  1  4  2  0  0  0  0
  1  6  1  0  0  0  0
  1 22  1  0  0  0  0
  2 21  2  0  0  0  0
  5 29  1  0  0  0  0
  5 32  1  0  0  0  0
  6 16  1  0  0  0  0
  6 53  1  0  0  0  0
  7 21  1  0  0  0  0
  7 23  1  0  0  0  0
  7 54  1  0  0  0  0
  8 24  1  0  0  0  0
  8 30  1  0  0  0  0
  8 31  1  0  0  0  0
  9 10  1  0  0  0  0
  9 11  1  0  0  0  0
  9 13  1  0  0  0  0
  9 33  1  0  0  0  0
 10 15  1  0  0  0  0
 10 16  1  0  0  0  0
 10 34  1  0  0  0  0
 11 12  1  0  0  0  0
 11 35  1  0  0  0  0
 11 36  1  0  0  0  0
 12 14  1  0  0  0  0
 12 17  1  0  0  0  0
 12 37  1  0  0  0  0
 13 18  1  0  0  0  0
 13 19  1  0  0  0  0
 13 38  1  0  0  0  0
 14 15  2  0  0  0  0
 14 20  1  0  0  0  0
 15 39  1  0  0  0  0
 16 40  1  0  0  0  0
 16 41  1  0  0  0  0
 17 21  1  0  0  0  0
 17 42  1  0  0  0  0
 17 43  1  0  0  0  0
 18 44  1  0  0  0  0
 18 45  1  0  0  0  0
 18 46  1  0  0  0  0
 19 47  1  0  0  0  0
 19 48  1  0  0  0  0
 19 49  1  0  0  0  0
 20 50  1  0  0  0  0
 20 51  1  0  0  0  0
 20 52  1  0  0  0  0
 22 25  2  0  0  0  0
 22 26  1  0  0  0  0
 23 24  1  0  0  0  0
 23 55  1  0  0  0  0
 23 56  1  0  0  0  0
 24 57  1  0  0  0  0
 24 58  1  0  0  0  0
 25 27  1  0  0  0  0
 25 59  1  0  0  0  0
 26 28  2  0  0  0  0
 26 60  1  0  0  0  0
 27 29  2  0  0  0  0
 27 61  1  0  0  0  0
 28 29  1  0  0  0  0
 28 62  1  0  0  0  0
 30 63  1  0  0  0  0
 30 64  1  0  0  0  0
 30 65  1  0  0  0  0
 31 66  1  0  0  0  0
 31 67  1  0  0  0  0
 31 68  1  0  0  0  0
 32 69  1  0  0  0  0
 32 70  1  0  0  0  0
 32 71  1  0  0  0  0
M  END
> <PUBCHEM_COMPOUND_CID>
38027389

> <PUBCHEM_CONFORMER_RMSD>
1.4

> <PUBCHEM_CONFORMER_DIVERSEORDER>
1
72
103
33
27
58
99
37
52
41
59
38
88
87
70
84
98
106
51
108
90
29
43
57
16
31
96
30
112
61
63
56
39
71
80
18
102
65
60
26
97
82
120
114
55
19
42
48
40
111
10
83
104
105
14
22
73
92
44
34
2
76
107
115
62
47
35
12
116
32
86
74
49
78
79
68
7
93
11
95
64
109
20
119
8
67
9
24
117
36
66
28
118
113
15
81
94
17
69
3
53
25
100
101
75
50
77
91
45
54
4
23
21
85
13
5
89
46
6
110

> <PUBCHEM_MMFF94_PARTIAL_CHARGES>
34
1 1.45
10 0.14
12 0.14
14 -0.28
15 -0.29
16 0.36
17 0.06
2 -0.57
20 0.14
21 0.57
22 -0.01
23 0.3
24 0.27
25 -0.15
26 -0.15
27 -0.15
28 -0.15
29 0.08
3 -0.65
30 0.27
31 0.27
32 0.28
39 0.15
4 -0.65
5 -0.36
53 0.42
54 0.37
59 0.15
6 -0.91
60 0.15
61 0.15
62 0.15
7 -0.73
8 -0.81

> <PUBCHEM_EFFECTIVE_ROTOR_COUNT>
12.8

> <PUBCHEM_PHARMACOPHORE_FEATURES>
10
1 2 acceptor
1 3 acceptor
1 4 acceptor
1 5 acceptor
1 6 donor
1 7 donor
1 8 cation
3 13 18 19 hydrophobe
6 22 25 26 27 28 29 rings
6 9 10 11 12 14 15 rings

> <PUBCHEM_HEAVY_ATOM_COUNT>
32

> <PUBCHEM_ATOM_DEF_STEREO_COUNT>
3

> <PUBCHEM_ATOM_UDEF_STEREO_COUNT>
0

> <PUBCHEM_BOND_DEF_STEREO_COUNT>
0

> <PUBCHEM_BOND_UDEF_STEREO_COUNT>
0

> <PUBCHEM_ISOTOPIC_ATOM_COUNT>
0

> <PUBCHEM_COMPONENT_COUNT>
1

> <PUBCHEM_CACTVS_TAUTO_COUNT>
2

> <PUBCHEM_CONFORMER_ID>
0244407D00000001

> <PUBCHEM_MMFF94_ENERGY>
63.4205

> <PUBCHEM_FEATURE_SELFOVERLAP>
50.764

> <PUBCHEM_SHAPE_FINGERPRINT>
10675989 125 17690273129628960249
1100329 8 18410570660952558130
11513181 2 17766289669153056151
11828532 37 16893975013120112167
12156800 1 16126090192019624205
12422481 6 17534026857511395152
13122387 1 18338529542408969953
13642711 20 15966197218750802079
14117953 113 17835516021355381533
20764821 26 18122634009324946089
21421861 104 17907603349225826177
22113638 7 18267017272021455371
25222932 49 18269839886174224813
35225 105 18341344287902260140
463206 1 18049174263136743465
469060 322 17188637072040612114
6287921 2 17551804620640282923
6669772 16 18340762762458318641

> <PUBCHEM_SHAPE_MULTIPOLES>
623.97
8.11
6.09
2.42
9.45
1.32
-1.66
-3.45
0.39
-0.39
2.32
-1.18
0.25
-1.42

> <PUBCHEM_SHAPE_SELFOVERLAP>
1254.155

> <PUBCHEM_SHAPE_VOLUME>
370

> <PUBCHEM_COORDINATE_TYPE>
2
5
10

$$$$
