56774196
  -OEChem-12032416323D

 57 60  0     1  0  0  0  0  0999 V2000
   -7.3756   -2.5453    0.3301 O   0  0  0  0  0  0  0  0  0  0  0  0
    2.8959    2.0559    0.7674 O   0  0  0  0  0  0  0  0  0  0  0  0
    7.6732   -1.9971    0.1657 O   0  0  0  0  0  0  0  0  0  0  0  0
   -3.7551   -0.5923   -0.5091 N   0  0  0  0  0  0  0  0  0  0  0  0
    1.6635    2.6812    0.6220 N   0  0  0  0  0  0  0  0  0  0  0  0
   -2.9006    1.7113   -0.1476 C   0  0  0  0  0  0  0  0  0  0  0  0
   -1.4185    1.6644    0.2789 C   0  0  1  0  0  0  0  0  0  0  0  0
   -3.0291    0.2815    0.4173 C   0  0  2  0  0  0  0  0  0  0  0  0
   -1.5144    0.1285    0.1664 C   0  0  0  0  0  0  0  0  0  0  0  0
   -0.4128    2.3022   -0.6522 C   0  0  0  0  0  0  0  0  0  0  0  0
   -3.1035    1.8991   -1.6360 C   0  0  0  0  0  0  0  0  0  0  0  0
   -3.7703    2.7040    0.6048 C   0  0  0  0  0  0  0  0  0  0  0  0
   -5.1139   -0.7972   -0.0134 C   0  0  0  0  0  0  0  0  0  0  0  0
    0.9913    1.9219   -0.2478 C   0  0  0  0  0  0  0  0  0  0  0  0
   -5.1508   -1.8916    1.0579 C   0  0  0  0  0  0  0  0  0  0  0  0
   -6.0525   -1.1618   -1.1673 C   0  0  0  0  0  0  0  0  0  0  0  0
   -6.5902   -2.1849    1.4666 C   0  0  0  0  0  0  0  0  0  0  0  0
   -7.4419   -1.4957   -0.6354 C   0  0  0  0  0  0  0  0  0  0  0  0
    1.7414    0.8150   -0.6812 C   0  0  0  0  0  0  0  0  0  0  0  0
    2.9302    0.9459   -0.0135 C   0  0  0  0  0  0  0  0  0  0  0  0
    4.1477    0.1895    0.0334 C   0  0  0  0  0  0  0  0  0  0  0  0
    4.2789   -0.9692   -0.7320 C   0  0  0  0  0  0  0  0  0  0  0  0
    5.2011    0.6129    0.8438 C   0  0  0  0  0  0  0  0  0  0  0  0
    5.4632   -1.7046   -0.6870 C   0  0  0  0  0  0  0  0  0  0  0  0
    6.3855   -0.1225    0.8890 C   0  0  0  0  0  0  0  0  0  0  0  0
    6.5165   -1.2812    0.1237 C   0  0  0  0  0  0  0  0  0  0  0  0
    7.7407   -3.1698   -0.6445 C   0  0  0  0  0  0  0  0  0  0  0  0
   -1.2722    1.9914    1.3200 H   0  0  0  0  0  0  0  0  0  0  0  0
   -3.2799    0.2036    1.4822 H   0  0  0  0  0  0  0  0  0  0  0  0
   -1.2322   -0.2793   -0.8129 H   0  0  0  0  0  0  0  0  0  0  0  0
   -0.9721   -0.4298    0.9362 H   0  0  0  0  0  0  0  0  0  0  0  0
   -0.5419    1.9937   -1.6954 H   0  0  0  0  0  0  0  0  0  0  0  0
   -0.5165    3.3940   -0.6295 H   0  0  0  0  0  0  0  0  0  0  0  0
   -4.1609    1.7905   -1.9071 H   0  0  0  0  0  0  0  0  0  0  0  0
   -2.5484    1.1774   -2.2452 H   0  0  0  0  0  0  0  0  0  0  0  0
   -2.8036    2.9036   -1.9573 H   0  0  0  0  0  0  0  0  0  0  0  0
   -4.8320    2.5574    0.3783 H   0  0  0  0  0  0  0  0  0  0  0  0
   -3.5096    3.7347    0.3395 H   0  0  0  0  0  0  0  0  0  0  0  0
   -3.6494    2.6084    1.6897 H   0  0  0  0  0  0  0  0  0  0  0  0
   -3.3133   -1.4973   -0.6690 H   0  0  0  0  0  0  0  0  0  0  0  0
   -5.4995    0.1352    0.4220 H   0  0  0  0  0  0  0  0  0  0  0  0
   -4.5722   -1.6099    1.9440 H   0  0  0  0  0  0  0  0  0  0  0  0
   -4.7081   -2.8123    0.6554 H   0  0  0  0  0  0  0  0  0  0  0  0
   -5.6571   -2.0390   -1.6962 H   0  0  0  0  0  0  0  0  0  0  0  0
   -6.1158   -0.3409   -1.8909 H   0  0  0  0  0  0  0  0  0  0  0  0
   -7.0466   -1.3231    1.9675 H   0  0  0  0  0  0  0  0  0  0  0  0
   -6.6139   -3.0254    2.1674 H   0  0  0  0  0  0  0  0  0  0  0  0
   -8.0816   -1.8372   -1.4553 H   0  0  0  0  0  0  0  0  0  0  0  0
   -7.9197   -0.6168   -0.1868 H   0  0  0  0  0  0  0  0  0  0  0  0
    1.4507    0.0418   -1.3774 H   0  0  0  0  0  0  0  0  0  0  0  0
    3.4752   -1.3233   -1.3727 H   0  0  0  0  0  0  0  0  0  0  0  0
    5.1376    1.5101    1.4542 H   0  0  0  0  0  0  0  0  0  0  0  0
    5.4980   -2.5942   -1.3066 H   0  0  0  0  0  0  0  0  0  0  0  0
    7.2031    0.2121    1.5217 H   0  0  0  0  0  0  0  0  0  0  0  0
    8.7294   -3.6137   -0.4887 H   0  0  0  0  0  0  0  0  0  0  0  0
    7.6633   -2.9278   -1.7099 H   0  0  0  0  0  0  0  0  0  0  0  0
    7.0023   -3.9167   -0.3335 H   0  0  0  0  0  0  0  0  0  0  0  0
  1 17  1  0  0  0  0
  1 18  1  0  0  0  0
  2  5  1  0  0  0  0
  2 20  1  0  0  0  0
  3 26  1  0  0  0  0
  3 27  1  0  0  0  0
  4  8  1  0  0  0  0
  4 13  1  0  0  0  0
  4 40  1  0  0  0  0
  5 14  2  0  0  0  0
  6  7  1  0  0  0  0
  6  8  1  0  0  0  0
  6 11  1  0  0  0  0
  6 12  1  0  0  0  0
  7  9  1  0  0  0  0
  7 10  1  0  0  0  0
  7 28  1  0  0  0  0
  8  9  1  0  0  0  0
  8 29  1  0  0  0  0
  9 30  1  0  0  0  0
  9 31  1  0  0  0  0
 10 14  1  0  0  0  0
 10 32  1  0  0  0  0
 10 33  1  0  0  0  0
 11 34  1  0  0  0  0
 11 35  1  0  0  0  0
 11 36  1  0  0  0  0
 12 37  1  0  0  0  0
 12 38  1  0  0  0  0
 12 39  1  0  0  0  0
 13 15  1  0  0  0  0
 13 16  1  0  0  0  0
 13 41  1  0  0  0  0
 14 19  1  0  0  0  0
 15 17  1  0  0  0  0
 15 42  1  0  0  0  0
 15 43  1  0  0  0  0
 16 18  1  0  0  0  0
 16 44  1  0  0  0  0
 16 45  1  0  0  0  0
 17 46  1  0  0  0  0
 17 47  1  0  0  0  0
 18 48  1  0  0  0  0
 18 49  1  0  0  0  0
 19 20  2  0  0  0  0
 19 50  1  0  0  0  0
 20 21  1  0  0  0  0
 21 22  2  0  0  0  0
 21 23  1  0  0  0  0
 22 24  1  0  0  0  0
 22 51  1  0  0  0  0
 23 25  2  0  0  0  0
 23 52  1  0  0  0  0
 24 26  2  0  0  0  0
 24 53  1  0  0  0  0
 25 26  1  0  0  0  0
 25 54  1  0  0  0  0
 27 55  1  0  0  0  0
 27 56  1  0  0  0  0
 27 57  1  0  0  0  0
M  END
> <PUBCHEM_COMPOUND_CID>
56774196

> <PUBCHEM_CONFORMER_RMSD>
1

> <PUBCHEM_CONFORMER_DIVERSEORDER>
1
6
64
46
7
92
28
57
71
69
68
66
86
54
8
70
32
16
73
27
83
74
48
18
37
30
84
45
9
49
5
3
39
17
52
81
53
88
79
75
35
94
78
90
21
89
40
11
82
38
91
87
65
55
56
50
41
33
76
77
42
25
59
13
58
4
43
19
61
14
44
60
72
34
62
85
31
47
23
2
29
80
22
10
93
24
67
63
20
26
36
51
12
15

> <PUBCHEM_MMFF94_PARTIAL_CHARGES>
26
1 -0.56
10 0.18
13 0.27
14 0.11
17 0.28
18 0.28
19 -0.15
2 -0.02
20 0.09
21 0.05
22 -0.15
23 -0.15
24 -0.15
25 -0.15
26 0.08
27 0.28
3 -0.36
4 -0.84
40 0.36
5 -0.41
50 0.15
51 0.15
52 0.15
53 0.15
54 0.15
8 0.21

> <PUBCHEM_EFFECTIVE_ROTOR_COUNT>
8

> <PUBCHEM_PHARMACOPHORE_FEATURES>
10
1 1 acceptor
1 3 acceptor
1 4 cation
1 4 donor
1 5 acceptor
3 6 11 12 hydrophobe
4 6 7 8 9 rings
5 2 5 14 19 20 rings
6 1 13 15 16 17 18 rings
6 21 22 23 24 25 26 rings

> <PUBCHEM_HEAVY_ATOM_COUNT>
27

> <PUBCHEM_ATOM_DEF_STEREO_COUNT>
2

> <PUBCHEM_ATOM_UDEF_STEREO_COUNT>
0

> <PUBCHEM_BOND_DEF_STEREO_COUNT>
0

> <PUBCHEM_BOND_UDEF_STEREO_COUNT>
0

> <PUBCHEM_ISOTOPIC_ATOM_COUNT>
0

> <PUBCHEM_COMPONENT_COUNT>
1

> <PUBCHEM_CACTVS_TAUTO_COUNT>
1

> <PUBCHEM_CONFORMER_ID>
03624E3400000001

> <PUBCHEM_MMFF94_ENERGY>
68.017

> <PUBCHEM_FEATURE_SELFOVERLAP>
50.747

> <PUBCHEM_SHAPE_FINGERPRINT>
10 15 11887958765657957703
10740516 88 18115602559731261987
11135609 201 10952050035725986149
11273773 42 12252176356109308439
11393246 34 18335985289634666307
117089 54 18339933614948696574
11809386 21 18187076213935299089
12166972 35 17458346385571364205
12342043 65 18410567409620617080
12760667 363 18411417345836964099
12895836 83 9511465515873373605
13073987 5 18343864433247339568
13533116 47 18269836578627887969
13668630 136 18114178648558174554
13685833 64 18411136952553838528
13782708 43 18409448093840038785
14123256 34 18409450276152845570
14216079 64 18410011070280721039
14931854 50 17530682091473953994
15183329 4 14995995540890150399
15188451 53 18411134740392577452
15419008 91 18043506460805045141
15510800 12 18335427871821279314
15519825 34 15482376664827386775
16120349 21 18408611336312961601
16126227 98 9223231858403395415
16992779 147 16414051175855469840
16994733 274 10807931561520075190
17627616 140 17751352893979134362
18643901 69 18113901533511073589
19302320 297 11312049968303266050
20028762 73 18201719578345172566
2026 5 18410570652395083826
20281389 69 10952057753154209452
21033650 10 16370996370512320333
21095123 293 12679454323090272898
21130935 74 18271805662941662906
21267235 1 18410294722082897924
21304304 249 18411419526815869790
21585482 310 18261403285978180747
21585483 132 17315340446469162762
21682296 61 18337112362917030243
229767 8 17984433940689227334
23389318 12 18040724684439827374
23424784 1240 18201728297640304478
23522609 53 18050886365623601425
23559900 14 18042685186170176401
25122255 55 18333735753643351107
255183 451 18260269685047277420
270888 7 9439403519082250564
2748736 6 9511463290563349474
3004659 81 17458900548063960217
3383291 50 18335419097018783003
3472631 163 8430321233786134073
3504750 166 18131069351465142727
3627633 1 18335981961004656541
406291 66 18411134744725111047
439807 62 18334579035700842503
444769 64 18261117353595180321
4461854 278 17917996109441723294
465052 167 18272933817621907372
474113 269 18272925047398994015
5104073 3 18060422417038389616
5718773 13 18410855464513111750
59755656 215 18040710377134137547
6138700 20 18334012805094208971
636775 8 18199196088735053670
6691757 9 15267047138790365436
6712543 237 16056884632639761111
9962374 69 18199175368461902622
999808 66 18411700976180642183

> <PUBCHEM_SHAPE_MULTIPOLES>
528.08
23.28
3.41
1.12
8.34
0.16
0.05
26.26
-0.83
-0.79
-0.1
-0.87
0.09
1.98

> <PUBCHEM_SHAPE_SELFOVERLAP>
1124.496

> <PUBCHEM_SHAPE_VOLUME>
297

> <PUBCHEM_COORDINATE_TYPE>
2
5
10

$$$$
