7049570
  -OEChem-12032416123D

 61 62  0     1  0  0  0  0  0999 V2000
   -4.3772    4.1486   -0.4179 S   0  0  0  0  0  0  0  0  0  0  0  0
    5.5437    2.3415   -0.5236 F   0  0  0  0  0  0  0  0  0  0  0  0
    8.0865   -1.6132   -1.0481 F   0  0  0  0  0  0  0  0  0  0  0  0
   -3.2541    0.2756    1.2801 O   0  0  0  0  0  0  0  0  0  0  0  0
   -2.6299    1.7362   -1.9390 O   0  0  0  0  0  0  0  0  0  0  0  0
    1.9535   -0.9221    0.9403 O   0  0  0  0  0  0  0  0  0  0  0  0
   -5.0228   -3.4635   -0.3482 O   0  0  0  0  0  0  0  0  0  0  0  0
   -4.0552   -1.7913   -1.5935 O   0  0  0  0  0  0  0  0  0  0  0  0
   -1.7039    2.1249    0.1466 N   0  0  0  0  0  0  0  0  0  0  0  0
    1.1741    1.2529    1.0225 N   0  0  0  0  0  0  0  0  0  0  0  0
   -2.0464   -1.4156    0.2313 N   0  0  0  0  0  0  0  0  0  0  0  0
    3.3312    0.8789    0.3324 N   0  0  0  0  0  0  0  0  0  0  0  0
   -0.1541    0.9373    1.4921 C   0  0  2  0  0  0  0  0  0  0  0  0
   -1.1290    0.7952    0.3232 C   0  0  1  0  0  0  0  0  0  0  0  0
   -0.7439    2.0893    2.3101 C   0  0  0  0  0  0  0  0  0  0  0  0
   -1.3573    3.0053    1.2590 C   0  0  0  0  0  0  0  0  0  0  0  0
   -2.2670   -0.1197    0.6654 C   0  0  0  0  0  0  0  0  0  0  0  0
   -2.3521    2.5065   -1.0183 C   0  0  0  0  0  0  0  0  0  0  0  0
   -2.9810   -2.4945    0.4562 C   0  0  2  0  0  0  0  0  0  0  0  0
   -2.2803   -3.8640    0.5912 C   0  0  0  0  0  0  0  0  0  0  0  0
   -2.7259    3.9648   -1.1066 C   0  0  0  0  0  0  0  0  0  0  0  0
    2.1490    0.2799    0.7764 C   0  0  0  0  0  0  0  0  0  0  0  0
   -4.0659   -2.5306   -0.6145 C   0  0  0  0  0  0  0  0  0  0  0  0
   -1.2065   -3.8896    1.6843 C   0  0  0  0  0  0  0  0  0  0  0  0
   -1.6778   -4.3130   -0.7434 C   0  0  0  0  0  0  0  0  0  0  0  0
    4.5455    0.2456   -0.0215 C   0  0  0  0  0  0  0  0  0  0  0  0
   -4.5752    5.9340   -0.6393 C   0  0  0  0  0  0  0  0  0  0  0  0
   -6.0818   -3.5602   -1.3063 C   0  0  0  0  0  0  0  0  0  0  0  0
    5.6350    1.0063   -0.4457 C   0  0  0  0  0  0  0  0  0  0  0  0
    4.6519   -1.1430    0.0555 C   0  0  0  0  0  0  0  0  0  0  0  0
    6.8311    0.3784   -0.7929 C   0  0  0  0  0  0  0  0  0  0  0  0
    5.8481   -1.7709   -0.2919 C   0  0  0  0  0  0  0  0  0  0  0  0
    6.9376   -1.0102   -0.7161 C   0  0  0  0  0  0  0  0  0  0  0  0
   -0.0953    0.0254    2.0973 H   0  0  0  0  0  0  0  0  0  0  0  0
   -0.6520    0.4803   -0.6124 H   0  0  0  0  0  0  0  0  0  0  0  0
   -1.5359    1.7070    2.9655 H   0  0  0  0  0  0  0  0  0  0  0  0
   -0.0117    2.6089    2.9359 H   0  0  0  0  0  0  0  0  0  0  0  0
   -0.6202    3.7331    0.9030 H   0  0  0  0  0  0  0  0  0  0  0  0
   -2.2350    3.5361    1.6352 H   0  0  0  0  0  0  0  0  0  0  0  0
    1.3923    2.2191    0.7987 H   0  0  0  0  0  0  0  0  0  0  0  0
   -1.2148   -1.6100   -0.3180 H   0  0  0  0  0  0  0  0  0  0  0  0
   -3.4982   -2.2717    1.3992 H   0  0  0  0  0  0  0  0  0  0  0  0
   -3.0374   -4.6097    0.8684 H   0  0  0  0  0  0  0  0  0  0  0  0
   -2.7344    4.2487   -2.1645 H   0  0  0  0  0  0  0  0  0  0  0  0
   -2.0079    4.6125   -0.6007 H   0  0  0  0  0  0  0  0  0  0  0  0
   -0.8089   -4.9021    1.8114 H   0  0  0  0  0  0  0  0  0  0  0  0
   -1.6266   -3.5721    2.6443 H   0  0  0  0  0  0  0  0  0  0  0  0
   -0.3671   -3.2288    1.4441 H   0  0  0  0  0  0  0  0  0  0  0  0
   -1.2205   -5.3036   -0.6384 H   0  0  0  0  0  0  0  0  0  0  0  0
   -2.4369   -4.3947   -1.5274 H   0  0  0  0  0  0  0  0  0  0  0  0
   -0.8974   -3.6297   -1.0928 H   0  0  0  0  0  0  0  0  0  0  0  0
    3.3297    1.8926    0.2516 H   0  0  0  0  0  0  0  0  0  0  0  0
   -3.8086    6.4738   -0.0773 H   0  0  0  0  0  0  0  0  0  0  0  0
   -4.5091    6.1954   -1.6985 H   0  0  0  0  0  0  0  0  0  0  0  0
   -5.5575    6.2362   -0.2667 H   0  0  0  0  0  0  0  0  0  0  0  0
   -5.6819   -3.8434   -2.2847 H   0  0  0  0  0  0  0  0  0  0  0  0
   -6.6237   -2.6117   -1.3690 H   0  0  0  0  0  0  0  0  0  0  0  0
   -6.7732   -4.3379   -0.9714 H   0  0  0  0  0  0  0  0  0  0  0  0
    3.8551   -1.8000    0.3735 H   0  0  0  0  0  0  0  0  0  0  0  0
    7.6795    0.9706   -1.1228 H   0  0  0  0  0  0  0  0  0  0  0  0
    5.9329   -2.8521   -0.2325 H   0  0  0  0  0  0  0  0  0  0  0  0
  1 21  1  0  0  0  0
  1 27  1  0  0  0  0
  2 29  1  0  0  0  0
  3 33  1  0  0  0  0
  4 17  2  0  0  0  0
  5 18  2  0  0  0  0
  6 22  2  0  0  0  0
  7 23  1  0  0  0  0
  7 28  1  0  0  0  0
  8 23  2  0  0  0  0
  9 14  1  0  0  0  0
  9 16  1  0  0  0  0
  9 18  1  0  0  0  0
 10 13  1  0  0  0  0
 10 22  1  0  0  0  0
 10 40  1  0  0  0  0
 11 17  1  0  0  0  0
 11 19  1  0  0  0  0
 11 41  1  0  0  0  0
 12 22  1  0  0  0  0
 12 26  1  0  0  0  0
 12 52  1  0  0  0  0
 13 14  1  0  0  0  0
 13 15  1  0  0  0  0
 13 34  1  0  0  0  0
 14 17  1  0  0  0  0
 14 35  1  0  0  0  0
 15 16  1  0  0  0  0
 15 36  1  0  0  0  0
 15 37  1  0  0  0  0
 16 38  1  0  0  0  0
 16 39  1  0  0  0  0
 18 21  1  0  0  0  0
 19 20  1  0  0  0  0
 19 23  1  0  0  0  0
 19 42  1  0  0  0  0
 20 24  1  0  0  0  0
 20 25  1  0  0  0  0
 20 43  1  0  0  0  0
 21 44  1  0  0  0  0
 21 45  1  0  0  0  0
 24 46  1  0  0  0  0
 24 47  1  0  0  0  0
 24 48  1  0  0  0  0
 25 49  1  0  0  0  0
 25 50  1  0  0  0  0
 25 51  1  0  0  0  0
 26 29  2  0  0  0  0
 26 30  1  0  0  0  0
 27 53  1  0  0  0  0
 27 54  1  0  0  0  0
 27 55  1  0  0  0  0
 28 56  1  0  0  0  0
 28 57  1  0  0  0  0
 28 58  1  0  0  0  0
 29 31  1  0  0  0  0
 30 32  2  0  0  0  0
 30 59  1  0  0  0  0
 31 33  2  0  0  0  0
 31 60  1  0  0  0  0
 32 33  1  0  0  0  0
 32 61  1  0  0  0  0
M  END
> <PUBCHEM_COMPOUND_CID>
7049570

> <PUBCHEM_CONFORMER_RMSD>
1.2

> <PUBCHEM_CONFORMER_DIVERSEORDER>
1
17
10
16
4
14
24
12
15
6
26
2
18
3
23
8
20
21
13
11
22
25
9
5
7
19
27

> <PUBCHEM_MMFF94_PARTIAL_CHARGES>
35
1 -0.46
10 -0.73
11 -0.73
12 -0.55
13 0.3
14 0.36
16 0.3
17 0.57
18 0.57
19 0.36
2 -0.19
21 0.29
22 0.69
23 0.66
26 0.12
27 0.23
28 0.28
29 0.19
3 -0.19
30 -0.15
31 -0.15
32 -0.15
33 0.19
4 -0.57
40 0.37
41 0.37
5 -0.57
52 0.37
59 0.15
6 -0.57
60 0.15
61 0.15
7 -0.43
8 -0.57
9 -0.66

> <PUBCHEM_EFFECTIVE_ROTOR_COUNT>
14

> <PUBCHEM_PHARMACOPHORE_FEATURES>
11
1 10 donor
1 11 donor
1 12 donor
1 27 hydrophobe
1 4 acceptor
1 5 acceptor
1 6 acceptor
1 8 acceptor
3 20 24 25 hydrophobe
5 9 13 14 15 16 rings
6 26 29 30 31 32 33 rings

> <PUBCHEM_HEAVY_ATOM_COUNT>
33

> <PUBCHEM_ATOM_DEF_STEREO_COUNT>
3

> <PUBCHEM_ATOM_UDEF_STEREO_COUNT>
0

> <PUBCHEM_BOND_DEF_STEREO_COUNT>
0

> <PUBCHEM_BOND_UDEF_STEREO_COUNT>
0

> <PUBCHEM_ISOTOPIC_ATOM_COUNT>
0

> <PUBCHEM_COMPONENT_COUNT>
1

> <PUBCHEM_CACTVS_TAUTO_COUNT>
6

> <PUBCHEM_CONFORMER_ID>
006B916200000001

> <PUBCHEM_MMFF94_ENERGY>
76.2292

> <PUBCHEM_FEATURE_SELFOVERLAP>
55.874

> <PUBCHEM_SHAPE_FINGERPRINT>
11069576 57 16615591875690568687
11297750 10 18200584925627069289
11991303 11 18267018367438933309
12522641 33 18120089482469886253
12760667 363 18272375320800979362
12788726 201 18262223512909385331
13540713 4 17987498429655502152
13631057 29 18343305894662629018
13690498 29 18341047501398807143
13757389 114 18264208019961006117
14251757 5 18410575106465476562
14347332 77 18412545423028735162
14931854 50 18335409223068329847
15064986 266 18334588965902399866
15198563 99 18408878564793416373
15230672 131 18118969088399828562
15250474 111 18335415756372892642
15927050 60 18195522598299588319
15950262 2 15071685780472329773
16628084 112 18408881807009213483
16994733 274 14852422421317634183
19301676 85 17406283131312760086
19958102 18 18409163281953145350
21033648 29 17676499311582907840
21716022 299 17319035097004395567
22393880 68 18335699421713598632
23559900 14 17689427613830227003
24771750 20 17472130675429549797
255183 313 18268451074340188193
4058900 60 17908987599931649801
437815 12 18200028598581705067
484985 159 17632582638855600667
5265222 85 18409730616968462057
531348 171 18187931608686470402
563151 40 18339359640125098857
58260988 587 17615974305792979489
6898599 12 18335146371322678244

> <PUBCHEM_SHAPE_MULTIPOLES>
619.16
16.12
7.19
1.55
35.26
1.34
0.34
-2.49
-8.48
-17.17
-1.46
-1.01
0.18
0.14

> <PUBCHEM_SHAPE_SELFOVERLAP>
1264.177

> <PUBCHEM_SHAPE_VOLUME>
362

> <PUBCHEM_COORDINATE_TYPE>
2
5
10

$$$$
