7142872
  -OEChem-12032416413D

 50 54  0     1  0  0  0  0  0999 V2000
    4.4060   -0.9744   -0.9360 S   0  0  0  0  0  0  0  0  0  0  0  0
    1.8401   -2.3686   -0.8179 S   0  0  0  0  0  0  0  0  0  0  0  0
    5.7304   -1.0443   -0.3553 O   0  0  0  0  0  0  0  0  0  0  0  0
    4.2154   -1.0612   -2.3684 O   0  0  0  0  0  0  0  0  0  0  0  0
   -0.9905    1.7419   -1.7329 O   0  0  0  0  0  0  0  0  0  0  0  0
   -3.6741    0.3495    1.9589 O   0  0  0  0  0  0  0  0  0  0  0  0
    3.6116    0.4244   -0.3520 N   0  0  2  0  0  0  0  0  0  0  0  0
    0.7432    1.7401   -0.1663 N   0  0  0  0  0  0  0  0  0  0  0  0
   -2.6598    0.2805   -0.1110 N   0  0  0  0  0  0  0  0  0  0  0  0
   -4.9827   -0.3534   -1.2322 N   0  0  0  0  0  0  0  0  0  0  0  0
   -7.3410   -0.6697    0.2526 N   0  0  0  0  0  0  0  0  0  0  0  0
    3.0152    2.8350   -0.6102 C   0  0  1  0  0  0  0  0  0  0  0  0
    2.6059    1.7014    1.5300 C   0  0  2  0  0  0  0  0  0  0  0  0
    3.0652    3.0141    0.9015 C   0  0  0  0  0  0  0  0  0  0  0  0
    3.9506    1.6971   -1.0506 C   0  0  0  0  0  0  0  0  0  0  0  0
    3.5758    0.5734    1.1337 C   0  0  0  0  0  0  0  0  0  0  0  0
    1.5613    2.5958   -1.0360 C   0  0  0  0  0  0  0  0  0  0  0  0
    1.1914    1.3571    1.1019 C   0  0  0  0  0  0  0  0  0  0  0  0
    0.3821    0.6701    1.9256 C   0  0  0  0  0  0  0  0  0  0  0  0
   -0.5467    1.4135   -0.6316 C   0  0  0  0  0  0  0  0  0  0  0  0
   -1.4087    0.6273    0.3070 C   0  0  0  0  0  0  0  0  0  0  0  0
   -0.9431    0.2981    1.5165 C   0  0  0  0  0  0  0  0  0  0  0  0
    3.4196   -2.2288   -0.1803 C   0  0  0  0  0  0  0  0  0  0  0  0
    3.6605   -3.1272    0.8286 C   0  0  0  0  0  0  0  0  0  0  0  0
    2.5265   -3.9504    1.0863 C   0  0  0  0  0  0  0  0  0  0  0  0
    1.4666   -3.6441    0.2617 C   0  0  0  0  0  0  0  0  0  0  0  0
   -3.7555    0.1544    0.7447 C   0  0  0  0  0  0  0  0  0  0  0  0
   -5.0283   -0.1976    0.0967 C   0  0  0  0  0  0  0  0  0  0  0  0
   -6.1690   -0.3480    0.8350 C   0  0  0  0  0  0  0  0  0  0  0  0
   -6.1548   -0.6754   -1.8145 C   0  0  0  0  0  0  0  0  0  0  0  0
   -7.3132   -0.8306   -1.0853 C   0  0  0  0  0  0  0  0  0  0  0  0
    3.3661    3.7535   -1.0973 H   0  0  0  0  0  0  0  0  0  0  0  0
    2.6416    1.8180    2.6212 H   0  0  0  0  0  0  0  0  0  0  0  0
    2.4191    3.8438    1.2145 H   0  0  0  0  0  0  0  0  0  0  0  0
    4.0837    3.2604    1.2255 H   0  0  0  0  0  0  0  0  0  0  0  0
    3.8619    1.5583   -2.1336 H   0  0  0  0  0  0  0  0  0  0  0  0
    4.9911    1.9615   -0.8266 H   0  0  0  0  0  0  0  0  0  0  0  0
    4.5848    0.8042    1.4973 H   0  0  0  0  0  0  0  0  0  0  0  0
    3.2529   -0.3523    1.6169 H   0  0  0  0  0  0  0  0  0  0  0  0
    1.0427    3.5639   -1.0686 H   0  0  0  0  0  0  0  0  0  0  0  0
    1.5190    2.1978   -2.0577 H   0  0  0  0  0  0  0  0  0  0  0  0
    0.7109    0.3519    2.9093 H   0  0  0  0  0  0  0  0  0  0  0  0
   -1.4860   -0.3122    2.2286 H   0  0  0  0  0  0  0  0  0  0  0  0
   -2.8403    0.3244   -1.1111 H   0  0  0  0  0  0  0  0  0  0  0  0
    4.6002   -3.1962    1.3610 H   0  0  0  0  0  0  0  0  0  0  0  0
    2.4899   -4.7273    1.8388 H   0  0  0  0  0  0  0  0  0  0  0  0
    0.4903   -4.1073    0.2422 H   0  0  0  0  0  0  0  0  0  0  0  0
   -6.2060   -0.2220    1.9101 H   0  0  0  0  0  0  0  0  0  0  0  0
   -6.1332   -0.8048   -2.8895 H   0  0  0  0  0  0  0  0  0  0  0  0
   -8.2545   -1.0892   -1.5540 H   0  0  0  0  0  0  0  0  0  0  0  0
  1  3  2  0  0  0  0
  1  4  2  0  0  0  0
  1  7  1  0  0  0  0
  1 23  1  0  0  0  0
  2 23  1  0  0  0  0
  2 26  1  0  0  0  0
  5 20  2  0  0  0  0
  6 27  2  0  0  0  0
  7 15  1  0  0  0  0
  7 16  1  0  0  0  0
  8 17  1  0  0  0  0
  8 18  1  0  0  0  0
  8 20  1  0  0  0  0
  9 21  1  0  0  0  0
  9 27  1  0  0  0  0
  9 44  1  0  0  0  0
 10 28  2  0  0  0  0
 10 30  1  0  0  0  0
 11 29  2  0  0  0  0
 11 31  1  0  0  0  0
 12 14  1  0  0  0  0
 12 15  1  0  0  0  0
 12 17  1  0  0  0  0
 12 32  1  0  0  0  0
 13 14  1  0  0  0  0
 13 16  1  0  0  0  0
 13 18  1  0  0  0  0
 13 33  1  0  0  0  0
 14 34  1  0  0  0  0
 14 35  1  0  0  0  0
 15 36  1  0  0  0  0
 15 37  1  0  0  0  0
 16 38  1  0  0  0  0
 16 39  1  0  0  0  0
 17 40  1  0  0  0  0
 17 41  1  0  0  0  0
 18 19  2  0  0  0  0
 19 22  1  0  0  0  0
 19 42  1  0  0  0  0
 20 21  1  0  0  0  0
 21 22  2  0  0  0  0
 22 43  1  0  0  0  0
 23 24  2  0  0  0  0
 24 25  1  0  0  0  0
 24 45  1  0  0  0  0
 25 26  2  0  0  0  0
 25 46  1  0  0  0  0
 26 47  1  0  0  0  0
 27 28  1  0  0  0  0
 28 29  1  0  0  0  0
 29 48  1  0  0  0  0
 30 31  2  0  0  0  0
 30 49  1  0  0  0  0
 31 50  1  0  0  0  0
M  END
> <PUBCHEM_COMPOUND_CID>
7142872

> <PUBCHEM_CONFORMER_RMSD>
0.8

> <PUBCHEM_CONFORMER_DIVERSEORDER>
1
45
22
24
7
49
53
31
30
9
41
39
21
43
50
46
42
52
26
29
38
47
19
14
12
36
51
8
32
20
10
5
48
17
33
18
35
40
23
16
6
28
3
2
15
34
37
25
11
13
4
44
27

> <PUBCHEM_MMFF94_PARTIAL_CHARGES>
38
1 1.5
10 -0.62
11 -0.62
13 0.14
15 0.36
16 0.36
17 0.3
18 -0.03
19 -0.15
2 -0.08
20 0.62
21 0.12
22 -0.15
23 -0.02
24 -0.15
25 -0.15
26 -0.11
27 0.54
28 0.4
29 0.16
3 -0.65
30 0.16
31 0.16
4 -0.65
42 0.15
43 0.15
44 0.37
45 0.15
46 0.15
47 0.15
48 0.15
49 0.15
5 -0.57
50 0.15
6 -0.57
7 -0.85
8 -0.47
9 -0.54

> <PUBCHEM_EFFECTIVE_ROTOR_COUNT>
6

> <PUBCHEM_PHARMACOPHORE_FEATURES>
12
1 10 acceptor
1 11 acceptor
1 3 acceptor
1 4 acceptor
1 5 acceptor
1 6 acceptor
1 9 donor
5 2 23 24 25 26 rings
6 10 11 28 29 30 31 rings
6 7 12 13 14 15 16 rings
6 8 12 13 14 17 18 rings
6 8 18 19 20 21 22 rings

> <PUBCHEM_HEAVY_ATOM_COUNT>
31

> <PUBCHEM_ATOM_DEF_STEREO_COUNT>
2

> <PUBCHEM_ATOM_UDEF_STEREO_COUNT>
0

> <PUBCHEM_BOND_DEF_STEREO_COUNT>
0

> <PUBCHEM_BOND_UDEF_STEREO_COUNT>
0

> <PUBCHEM_ISOTOPIC_ATOM_COUNT>
0

> <PUBCHEM_COMPONENT_COUNT>
1

> <PUBCHEM_CACTVS_TAUTO_COUNT>
2

> <PUBCHEM_CONFORMER_ID>
006CFDD800000001

> <PUBCHEM_MMFF94_ENERGY>
78.8211

> <PUBCHEM_FEATURE_SELFOVERLAP>
62.506

> <PUBCHEM_SHAPE_FINGERPRINT>
10316853 100 18334581273527016707
10675989 125 18129377283699376993
11135609 149 18118379809552467407
11796584 16 17632301237119953909
11828532 37 15575012692372617801
12147406 95 17677872570443463787
12539745 222 13828759439643191372
12596602 18 17060336318605122139
13150687 139 18117296933425565772
13533116 47 18273215326515355081
1361 2 18335421308857393528
14347332 77 18342736274598798521
15001296 14 18059847424428920303
15183329 4 18261109656660214605
15324884 4 17608961972585623560
15348495 7 11455885893425814357
15664445 248 16805612485906034068
17134984 74 18410289255128334387
17138139 8 17630031909091436327
17492 54 18189642534879056942
17857418 61 17918557934065232357
17909252 39 18261670381208789749
18681886 176 15625949814455144584
19026451 147 18338797789377720882
19315092 285 18201431433204519546
20775438 99 18339629148521836187
20775530 9 17829341185407951938
21033650 10 16009591240478807533
21285901 2 17676481739974401245
21703447 108 18272643550051232720
23516275 137 17201390509238519038
23559900 14 18188497976795783089
23569914 152 17324043012230077159
25222932 49 18270398287715510870
27425 322 16879633915074360256
3004659 81 17988925561461884467
345986 75 17916580934437669363
34797466 226 17458348584990322981
3886686 26 15405026871662818767
397830 11 10735583753112042101
4340502 62 17917138516046246544
46194498 28 17967531293814721260
463206 1 18272086144921292651
484989 97 18264224658590353522
5309563 4 18266178340544171558
5326457 24 18341043134081984831
57527452 28 15410629051759323804
5951187 136 14779562187727720214
59682541 52 18261384538804077879
6086070 43 17203035310969034729
6669772 16 18261950859842765282
9896288 288 12026655637652569434

> <PUBCHEM_SHAPE_MULTIPOLES>
597.28
14.79
3.84
1.79
32.88
2.48
-0.09
5.42
-4.07
-6.95
0.35
0.11
-0.2
-0.44

> <PUBCHEM_SHAPE_SELFOVERLAP>
1287.449

> <PUBCHEM_SHAPE_VOLUME>
327.3

> <PUBCHEM_COORDINATE_TYPE>
2
5
10

$$$$
