11879719
  -OEChem-12032416373D

 64 66  0     1  0  0  0  0  0999 V2000
    2.4749    1.0748   -1.3436 O   0  0  0  0  0  0  0  0  0  0  0  0
    4.7220    1.1854    1.1227 O   0  0  0  0  0  0  0  0  0  0  0  0
   -0.2157   -3.7079   -1.1879 O   0  0  0  0  0  0  0  0  0  0  0  0
    7.0164    0.2225    0.6413 O   0  0  0  0  0  0  0  0  0  0  0  0
   -1.3020    2.8912   -2.8192 O   0  0  0  0  0  0  0  0  0  0  0  0
   -1.1046    0.7659   -1.9633 O   0  0  0  0  0  0  0  0  0  0  0  0
    3.5016   -0.6390    0.3517 N   0  0  0  0  0  0  0  0  0  0  0  0
    0.9995   -2.1012   -0.0501 N   0  0  0  0  0  0  0  0  0  0  0  0
    0.6403    1.5843   -0.0044 N   0  0  0  0  0  0  0  0  0  0  0  0
   -1.1941   -2.6331    0.6308 N   0  0  0  0  0  0  0  0  0  0  0  0
   -2.7506    2.2513    2.8022 N   0  0  0  0  0  0  0  0  0  0  0  0
    2.2228   -0.0511    0.7495 C   0  0  2  0  0  0  0  0  0  0  0  0
    1.1254   -1.0842    1.0049 C   0  0  0  0  0  0  0  0  0  0  0  0
    3.4688   -1.9870   -0.2260 C   0  0  0  0  0  0  0  0  0  0  0  0
    2.1535   -2.2939   -0.9270 C   0  0  0  0  0  0  0  0  0  0  0  0
    1.8093    0.9152   -0.3238 C   0  0  0  0  0  0  0  0  0  0  0  0
    4.6840    0.0521    0.6372 C   0  0  0  0  0  0  0  0  0  0  0  0
   -0.1609   -2.8799   -0.2758 C   0  0  0  0  0  0  0  0  0  0  0  0
    0.0427    2.5840   -0.8599 C   0  0  2  0  0  0  0  0  0  0  0  0
    5.9729   -0.6608    0.3096 C   0  0  0  0  0  0  0  0  0  0  0  0
   -0.6912    3.6639   -0.0510 C   0  0  0  0  0  0  0  0  0  0  0  0
   -0.8508    1.9656   -1.9270 C   0  0  0  0  0  0  0  0  0  0  0  0
   -1.8787    3.1629    0.7397 C   0  0  0  0  0  0  0  0  0  0  0  0
   -2.5884   -2.7423    0.4035 C   0  0  0  0  0  0  0  0  0  0  0  0
   -3.1523    3.1391    0.1822 C   0  0  0  0  0  0  0  0  0  0  0  0
   -1.7322    2.7121    2.0418 C   0  0  0  0  0  0  0  0  0  0  0  0
   -3.4870   -2.4548    1.4310 C   0  0  0  0  0  0  0  0  0  0  0  0
   -3.0625   -3.1366   -0.8477 C   0  0  0  0  0  0  0  0  0  0  0  0
    8.3001   -0.3400    0.3753 C   0  0  0  0  0  0  0  0  0  0  0  0
   -4.2252    2.6720    0.9331 C   0  0  0  0  0  0  0  0  0  0  0  0
   -4.8597   -2.5620    1.2073 C   0  0  0  0  0  0  0  0  0  0  0  0
   -4.4352   -3.2435   -1.0713 C   0  0  0  0  0  0  0  0  0  0  0  0
   -2.1353    2.3881   -3.8685 C   0  0  0  0  0  0  0  0  0  0  0  0
   -3.9738    2.2432    2.2265 C   0  0  0  0  0  0  0  0  0  0  0  0
   -5.3337   -2.9563   -0.0437 C   0  0  0  0  0  0  0  0  0  0  0  0
    2.3781    0.5355    1.6644 H   0  0  0  0  0  0  0  0  0  0  0  0
    0.1536   -0.6196    1.1862 H   0  0  0  0  0  0  0  0  0  0  0  0
    1.3759   -1.6443    1.9153 H   0  0  0  0  0  0  0  0  0  0  0  0
    4.2912   -2.1195   -0.9328 H   0  0  0  0  0  0  0  0  0  0  0  0
    3.6290   -2.6864    0.6034 H   0  0  0  0  0  0  0  0  0  0  0  0
    2.1673   -3.3214   -1.3062 H   0  0  0  0  0  0  0  0  0  0  0  0
    2.0112   -1.6335   -1.7903 H   0  0  0  0  0  0  0  0  0  0  0  0
    0.1762    1.3725    0.8710 H   0  0  0  0  0  0  0  0  0  0  0  0
    0.8665    3.0651   -1.4036 H   0  0  0  0  0  0  0  0  0  0  0  0
    6.0443   -1.5803    0.8992 H   0  0  0  0  0  0  0  0  0  0  0  0
    6.0122   -0.8770   -0.7622 H   0  0  0  0  0  0  0  0  0  0  0  0
   -1.0302    4.4680   -0.7175 H   0  0  0  0  0  0  0  0  0  0  0  0
    0.0145    4.1405    0.6429 H   0  0  0  0  0  0  0  0  0  0  0  0
   -0.9397   -2.2941    1.5539 H   0  0  0  0  0  0  0  0  0  0  0  0
   -3.3240    3.4857   -0.8327 H   0  0  0  0  0  0  0  0  0  0  0  0
   -0.7657    2.7118    2.5362 H   0  0  0  0  0  0  0  0  0  0  0  0
   -3.1310   -2.1451    2.4102 H   0  0  0  0  0  0  0  0  0  0  0  0
   -2.4144   -3.3481   -1.6894 H   0  0  0  0  0  0  0  0  0  0  0  0
    8.4041   -0.5647   -0.6905 H   0  0  0  0  0  0  0  0  0  0  0  0
    9.0606    0.3933    0.6559 H   0  0  0  0  0  0  0  0  0  0  0  0
    8.4489   -1.2467    0.9696 H   0  0  0  0  0  0  0  0  0  0  0  0
   -5.2268    2.6449    0.5193 H   0  0  0  0  0  0  0  0  0  0  0  0
   -5.5594   -2.3372    2.0069 H   0  0  0  0  0  0  0  0  0  0  0  0
   -4.8056   -3.5448   -2.0469 H   0  0  0  0  0  0  0  0  0  0  0  0
   -2.4245    3.2284   -4.5052 H   0  0  0  0  0  0  0  0  0  0  0  0
   -3.0400    1.9372   -3.4497 H   0  0  0  0  0  0  0  0  0  0  0  0
   -1.5849    1.6616   -4.4738 H   0  0  0  0  0  0  0  0  0  0  0  0
   -4.7765    1.8689    2.8533 H   0  0  0  0  0  0  0  0  0  0  0  0
   -6.4026   -3.0381   -0.2184 H   0  0  0  0  0  0  0  0  0  0  0  0
  1 16  2  0  0  0  0
  2 17  2  0  0  0  0
  3 18  2  0  0  0  0
  4 20  1  0  0  0  0
  4 29  1  0  0  0  0
  5 22  1  0  0  0  0
  5 33  1  0  0  0  0
  6 22  2  0  0  0  0
  7 12  1  0  0  0  0
  7 14  1  0  0  0  0
  7 17  1  0  0  0  0
  8 13  1  0  0  0  0
  8 15  1  0  0  0  0
  8 18  1  0  0  0  0
  9 16  1  0  0  0  0
  9 19  1  0  0  0  0
  9 43  1  0  0  0  0
 10 18  1  0  0  0  0
 10 24  1  0  0  0  0
 10 49  1  0  0  0  0
 11 26  1  0  0  0  0
 11 34  2  0  0  0  0
 12 13  1  0  0  0  0
 12 16  1  0  0  0  0
 12 36  1  0  0  0  0
 13 37  1  0  0  0  0
 13 38  1  0  0  0  0
 14 15  1  0  0  0  0
 14 39  1  0  0  0  0
 14 40  1  0  0  0  0
 15 41  1  0  0  0  0
 15 42  1  0  0  0  0
 17 20  1  0  0  0  0
 19 21  1  0  0  0  0
 19 22  1  0  0  0  0
 19 44  1  0  0  0  0
 20 45  1  0  0  0  0
 20 46  1  0  0  0  0
 21 23  1  0  0  0  0
 21 47  1  0  0  0  0
 21 48  1  0  0  0  0
 23 25  1  0  0  0  0
 23 26  2  0  0  0  0
 24 27  2  0  0  0  0
 24 28  1  0  0  0  0
 25 30  2  0  0  0  0
 25 50  1  0  0  0  0
 26 51  1  0  0  0  0
 27 31  1  0  0  0  0
 27 52  1  0  0  0  0
 28 32  2  0  0  0  0
 28 53  1  0  0  0  0
 29 54  1  0  0  0  0
 29 55  1  0  0  0  0
 29 56  1  0  0  0  0
 30 34  1  0  0  0  0
 30 57  1  0  0  0  0
 31 35  2  0  0  0  0
 31 58  1  0  0  0  0
 32 35  1  0  0  0  0
 32 59  1  0  0  0  0
 33 60  1  0  0  0  0
 33 61  1  0  0  0  0
 33 62  1  0  0  0  0
 34 63  1  0  0  0  0
 35 64  1  0  0  0  0
M  END
> <PUBCHEM_COMPOUND_CID>
11879719

> <PUBCHEM_CONFORMER_RMSD>
1.2

> <PUBCHEM_CONFORMER_DIVERSEORDER>
3
36
23
71
41
57
53
17
93
98
20
80
92
99
11
1
102
86
62
103
70
29
42
10
61
104
97
69
4
39
72
54
28
59
51
77
88
7
91
44
35
96
31
47
40
16
100
34
43
12
27
73
65
19
13
55
67
68
6
49
82
89
52
90
30
58
84
2
75
18
46
105
95
37
83
50
78
33
81
26
66
22
48
79
101
24
64
56
94
60
45
87
85
25
15
38
9
14
5
8
74
63
21
76
32

> <PUBCHEM_MMFF94_PARTIAL_CHARGES>
46
1 -0.57
10 -0.55
11 -0.62
12 0.36
13 0.3
14 0.3
15 0.3
16 0.57
17 0.57
18 0.69
19 0.36
2 -0.57
20 0.34
21 0.14
22 0.66
23 -0.14
24 0.12
25 -0.15
26 0.16
27 -0.15
28 -0.15
29 0.28
3 -0.57
30 -0.15
31 -0.15
32 -0.15
33 0.28
34 0.16
35 -0.15
4 -0.56
43 0.37
49 0.37
5 -0.43
50 0.15
51 0.15
52 0.15
53 0.15
57 0.15
58 0.15
59 0.15
6 -0.57
63 0.15
64 0.15
7 -0.66
8 -0.66
9 -0.73

> <PUBCHEM_EFFECTIVE_ROTOR_COUNT>
14.2

> <PUBCHEM_PHARMACOPHORE_FEATURES>
11
1 1 acceptor
1 10 donor
1 11 acceptor
1 2 acceptor
1 3 acceptor
1 4 acceptor
1 6 acceptor
1 9 donor
6 11 23 25 26 30 34 rings
6 24 27 28 31 32 35 rings
6 7 8 12 13 14 15 rings

> <PUBCHEM_HEAVY_ATOM_COUNT>
35

> <PUBCHEM_ATOM_DEF_STEREO_COUNT>
2

> <PUBCHEM_ATOM_UDEF_STEREO_COUNT>
0

> <PUBCHEM_BOND_DEF_STEREO_COUNT>
0

> <PUBCHEM_BOND_UDEF_STEREO_COUNT>
0

> <PUBCHEM_ISOTOPIC_ATOM_COUNT>
0

> <PUBCHEM_COMPONENT_COUNT>
1

> <PUBCHEM_CACTVS_TAUTO_COUNT>
4

> <PUBCHEM_CONFORMER_ID>
00B5452700000003

> <PUBCHEM_MMFF94_ENERGY>
98.0694

> <PUBCHEM_FEATURE_SELFOVERLAP>
55.841

> <PUBCHEM_SHAPE_FINGERPRINT>
10815517 723 18409456898628601170
11513181 2 18129404694539115983
12156800 1 18053981456663650119
12166972 35 18047188841732588947
12788726 201 18125740107945271693
14068700 675 18270118062521093435
150020 26 17396703559277801683
15276724 80 18199187472566076344
15297060 5 18059859424931308819
18336668 15 18336267959261216451
238 59 17036393100517691263
469060 322 17530682099947382342
46939830 39 17459185343007959943
5080951 261 18265593469236037666
653340 110 18343585139781004530

> <PUBCHEM_SHAPE_MULTIPOLES>
660.16
12.53
5.92
2.37
24.74
0.3
1.64
5.4
-4.88
-9.35
0.65
-2.83
-2.59
-0.53

> <PUBCHEM_SHAPE_SELFOVERLAP>
1382.75

> <PUBCHEM_SHAPE_VOLUME>
366.6

> <PUBCHEM_COORDINATE_TYPE>
2
5
10

$$$$
