75537053
  -OEChem-12032416323D

 43 46  0     1  0  0  0  0  0999 V2000
   -2.7731   -2.4157   -0.1489 O   0  0  0  0  0  0  0  0  0  0  0  0
   -0.6396   -1.4834   -0.2611 N   0  0  0  0  0  0  0  0  0  0  0  0
    2.1143   -1.1613    0.2171 N   0  0  2  0  0  0  0  0  0  0  0  0
   -2.3907   -0.0529   -0.1414 N   0  0  0  0  0  0  0  0  0  0  0  0
    5.1911    2.2489    0.4708 N   0  0  0  0  0  0  0  0  0  0  0  0
   -0.0476   -0.1795   -0.4268 C   0  0  2  0  0  0  0  0  0  0  0  0
    1.1903   -0.0348    0.4574 C   0  0  0  0  0  0  0  0  0  0  0  0
   -1.1895    0.7736   -0.0945 C   0  0  0  0  0  0  0  0  0  0  0  0
    0.2071   -2.6575   -0.3277 C   0  0  0  0  0  0  0  0  0  0  0  0
    1.4618   -2.4498    0.5239 C   0  0  0  0  0  0  0  0  0  0  0  0
   -2.0410   -1.4355   -0.1857 C   0  0  0  0  0  0  0  0  0  0  0  0
    3.3300   -1.0023    1.0147 C   0  0  0  0  0  0  0  0  0  0  0  0
   -3.7018    0.4995   -0.0650 C   0  0  0  0  0  0  0  0  0  0  0  0
    4.2631    0.0172    0.4176 C   0  0  0  0  0  0  0  0  0  0  0  0
   -4.8124   -0.3436   -0.0256 C   0  0  0  0  0  0  0  0  0  0  0  0
   -3.8748    1.8830   -0.0297 C   0  0  0  0  0  0  0  0  0  0  0  0
    5.0397   -0.2871   -0.6950 C   0  0  0  0  0  0  0  0  0  0  0  0
    4.3746    1.2881    0.9582 C   0  0  0  0  0  0  0  0  0  0  0  0
   -6.0962    0.1970    0.0490 C   0  0  0  0  0  0  0  0  0  0  0  0
   -5.1585    2.4237    0.0449 C   0  0  0  0  0  0  0  0  0  0  0  0
   -6.2692    1.5807    0.0842 C   0  0  0  0  0  0  0  0  0  0  0  0
    5.8920    0.6750   -1.2253 C   0  0  0  0  0  0  0  0  0  0  0  0
    5.9305    1.9165   -0.6112 C   0  0  0  0  0  0  0  0  0  0  0  0
    0.2254   -0.0845   -1.4862 H   0  0  0  0  0  0  0  0  0  0  0  0
    1.6603    0.9246    0.2157 H   0  0  0  0  0  0  0  0  0  0  0  0
    0.9002   -0.0030    1.5165 H   0  0  0  0  0  0  0  0  0  0  0  0
   -1.0997    1.1972    0.9120 H   0  0  0  0  0  0  0  0  0  0  0  0
   -1.2342    1.5783   -0.8354 H   0  0  0  0  0  0  0  0  0  0  0  0
    0.4756   -2.8050   -1.3801 H   0  0  0  0  0  0  0  0  0  0  0  0
   -0.3557   -3.5359    0.0037 H   0  0  0  0  0  0  0  0  0  0  0  0
    1.1912   -2.4911    1.5875 H   0  0  0  0  0  0  0  0  0  0  0  0
    2.1498   -3.2805    0.3265 H   0  0  0  0  0  0  0  0  0  0  0  0
    3.8879   -1.9486    1.0521 H   0  0  0  0  0  0  0  0  0  0  0  0
    3.1026   -0.7601    2.0619 H   0  0  0  0  0  0  0  0  0  0  0  0
   -4.7508   -1.4228   -0.0506 H   0  0  0  0  0  0  0  0  0  0  0  0
   -3.0399    2.5761   -0.0515 H   0  0  0  0  0  0  0  0  0  0  0  0
    4.9888   -1.2695   -1.1564 H   0  0  0  0  0  0  0  0  0  0  0  0
    3.7948    1.5862    1.8263 H   0  0  0  0  0  0  0  0  0  0  0  0
   -6.9618   -0.4584    0.0795 H   0  0  0  0  0  0  0  0  0  0  0  0
   -5.2938    3.5009    0.0739 H   0  0  0  0  0  0  0  0  0  0  0  0
   -7.2686    2.0017    0.1426 H   0  0  0  0  0  0  0  0  0  0  0  0
    6.5064    0.4601   -2.0920 H   0  0  0  0  0  0  0  0  0  0  0  0
    6.5786    2.7017   -0.9864 H   0  0  0  0  0  0  0  0  0  0  0  0
  1 11  2  0  0  0  0
  2  6  1  0  0  0  0
  2  9  1  0  0  0  0
  2 11  1  0  0  0  0
  3  7  1  0  0  0  0
  3 10  1  0  0  0  0
  3 12  1  0  0  0  0
  4  8  1  0  0  0  0
  4 11  1  0  0  0  0
  4 13  1  0  0  0  0
  5 18  1  0  0  0  0
  5 23  2  0  0  0  0
  6  7  1  0  0  0  0
  6  8  1  0  0  0  0
  6 24  1  0  0  0  0
  7 25  1  0  0  0  0
  7 26  1  0  0  0  0
  8 27  1  0  0  0  0
  8 28  1  0  0  0  0
  9 10  1  0  0  0  0
  9 29  1  0  0  0  0
  9 30  1  0  0  0  0
 10 31  1  0  0  0  0
 10 32  1  0  0  0  0
 12 14  1  0  0  0  0
 12 33  1  0  0  0  0
 12 34  1  0  0  0  0
 13 15  2  0  0  0  0
 13 16  1  0  0  0  0
 14 17  1  0  0  0  0
 14 18  2  0  0  0  0
 15 19  1  0  0  0  0
 15 35  1  0  0  0  0
 16 20  2  0  0  0  0
 16 36  1  0  0  0  0
 17 22  2  0  0  0  0
 17 37  1  0  0  0  0
 18 38  1  0  0  0  0
 19 21  2  0  0  0  0
 19 39  1  0  0  0  0
 20 21  1  0  0  0  0
 20 40  1  0  0  0  0
 21 41  1  0  0  0  0
 22 23  1  0  0  0  0
 22 42  1  0  0  0  0
 23 43  1  0  0  0  0
M  END
> <PUBCHEM_COMPOUND_CID>
75537053

> <PUBCHEM_CONFORMER_RMSD>
0.8

> <PUBCHEM_CONFORMER_DIVERSEORDER>
1
22
14
7
16
12
19
8
10
15
11
17
13
20
4
9
21
18
2
3
6
5

> <PUBCHEM_MMFF94_PARTIAL_CHARGES>
32
1 -0.57
10 0.27
11 0.69
12 0.41
13 0.12
14 -0.14
15 -0.15
16 -0.15
17 -0.15
18 0.16
19 -0.15
2 -0.66
20 -0.15
21 -0.15
22 -0.15
23 0.16
3 -0.81
35 0.15
36 0.15
37 0.15
38 0.15
39 0.15
4 -0.48
40 0.15
41 0.15
42 0.15
43 0.15
5 -0.62
6 0.3
7 0.27
8 0.3
9 0.3

> <PUBCHEM_EFFECTIVE_ROTOR_COUNT>
4.2

> <PUBCHEM_PHARMACOPHORE_FEATURES>
7
1 1 acceptor
1 3 cation
1 5 acceptor
5 2 4 6 8 11 rings
6 13 15 16 19 20 21 rings
6 2 3 6 7 9 10 rings
6 5 14 17 18 22 23 rings

> <PUBCHEM_HEAVY_ATOM_COUNT>
23

> <PUBCHEM_ATOM_DEF_STEREO_COUNT>
1

> <PUBCHEM_ATOM_UDEF_STEREO_COUNT>
0

> <PUBCHEM_BOND_DEF_STEREO_COUNT>
0

> <PUBCHEM_BOND_UDEF_STEREO_COUNT>
0

> <PUBCHEM_ISOTOPIC_ATOM_COUNT>
0

> <PUBCHEM_COMPONENT_COUNT>
1

> <PUBCHEM_CACTVS_TAUTO_COUNT>
1

> <PUBCHEM_CONFORMER_ID>
04809A9D00000001

> <PUBCHEM_MMFF94_ENERGY>
68.8819

> <PUBCHEM_FEATURE_SELFOVERLAP>
35.615

> <PUBCHEM_SHAPE_FINGERPRINT>
10 15 18187652375883317361
10378564 45 17988929951345573308
10411042 1 17690561214487584295
10554248 39 18192413204811651815
10670039 82 17846225397580404664
10753850 27 11167943550080272628
11796584 16 13110951029126370788
11991303 11 16916778630596327653
12236239 1 18114181934213268358
12390115 104 18342186578312871107
12422481 6 17167857526341520788
12516196 113 7925909279242713918
12596602 18 17095243588384743425
12760667 363 8502654805543125393
12788726 201 17631734850686677257
13533116 47 16661201443492377402
13782708 43 12103549897615603149
13785724 45 17761768465024828346
13885169 86 18262245520332592996
14020679 6 17386012813946338785
14211702 104 9583512148654024477
14251732 16 18260831510103641587
14257110 125 18409166610521085980
14341114 328 17385721413436980010
14347332 77 10375874069486619131
14528608 73 18413105056760962660
1454969 45 18412257359899214327
14790565 3 18410013264470958604
14840074 17 17749112209672173052
14933364 13 18412548703761412861
15183329 4 15913333480985555384
15196674 1 18339640019668773835
15961568 22 18261115127705329981
17349148 13 11167946896033960304
17857418 61 9367343742990082620
17980427 23 17822295733760946359
19611394 137 17969800738034261395
19784866 170 18334860493787749795
20281389 69 18334293149835007777
20374829 77 9367340440661158019
20567600 234 15864362362454914364
21033648 29 18270955868948983328
21304253 335 18333456425744048508
21315763 87 12107791817490942332
22079108 93 16732985344770538400
23272321 79 18410009927718966161
23559900 14 18056192479963686286
245318 6 17750813218637989420
2747138 104 17972891533391491683
2838139 119 18341885281898338124
293599 30 18411982468300188054
29717793 49 12103845661636725458
3004659 81 18412264996398623458
3472631 163 18410861001279760324
34797466 226 17917437539721128477
350125 39 18411417358547792681
4073 2 17968101944728945834
4340502 62 16443064984776498586
465052 167 8214139677170157096
5104073 3 18186799154047910275
53794403 172 18192434284701700276
56616090 163 18342461430339390822
59682541 35 18260841419136506497
59682541 52 16199872769556883412
59755656 215 18271814484266301900
633830 44 18341604937105045374
636775 72 18196648726004007872
6438161 24 9511169725770723597
7808743 9 18410851092199403394
7970288 3 9583526408209288572
8988823 20 12613042703711209694
960060 61 13614237118502085008
9658208 31 17988912418730596890

> <PUBCHEM_SHAPE_MULTIPOLES>
447.54
16.32
2.69
0.86
0.44
0.56
0
-12.16
-1.25
0.1
0.05
-1.04
-0.06
-0.42

> <PUBCHEM_SHAPE_SELFOVERLAP>
968.411

> <PUBCHEM_SHAPE_VOLUME>
243.1

> <PUBCHEM_COORDINATE_TYPE>
2
5
10

$$$$
