44716821
  -OEChem-12032416123D

 68 71  0     1  0  0  0  0  0999 V2000
    5.1163    0.1992    0.5334 S   0  0  0  0  0  0  0  0  0  0  0  0
   -4.6483   -3.9983    0.0480 S   0  0  0  0  0  0  0  0  0  0  0  0
   -0.2853   -0.0241    1.7484 O   0  0  0  0  0  0  0  0  0  0  0  0
   -1.3746    4.1711    2.0865 O   0  0  0  0  0  0  0  0  0  0  0  0
    5.1756   -0.0561    1.9600 O   0  0  0  0  0  0  0  0  0  0  0  0
    6.3347    0.4391   -0.2159 O   0  0  0  0  0  0  0  0  0  0  0  0
   -1.0315   -2.3009   -2.5660 O   0  0  0  0  0  0  0  0  0  0  0  0
   -0.0032    2.5629    1.0715 N   0  0  0  0  0  0  0  0  0  0  0  0
    4.0295    1.4676    0.2300 N   0  0  0  0  0  0  0  0  0  0  0  0
   -0.8385   -0.5573   -0.4491 N   0  0  0  0  0  0  0  0  0  0  0  0
   -1.9860    4.2426   -1.0587 N   0  0  0  0  0  0  0  0  0  0  0  0
    3.7480   -2.1923    0.4986 N   0  0  0  0  0  0  0  0  0  0  0  0
   -2.9782    4.0558   -1.9456 N   0  0  0  0  0  0  0  0  0  0  0  0
    3.4488   -2.5557   -1.6716 N   0  0  0  0  0  0  0  0  0  0  0  0
   -0.7601   -4.0316   -1.0802 N   0  0  0  0  0  0  0  0  0  0  0  0
    2.6411    1.3897    0.7463 C   0  0  2  0  0  0  0  0  0  0  0  0
    1.6591    1.4357   -0.4257 C   0  0  0  0  0  0  0  0  0  0  0  0
    0.1996    1.5511    0.0191 C   0  0  1  0  0  0  0  0  0  0  0  0
    2.3932    2.5530    1.7017 C   0  0  0  0  0  0  0  0  0  0  0  0
    0.9495    2.5526    2.1872 C   0  0  0  0  0  0  0  0  0  0  0  0
   -0.3326    0.2531    0.5528 C   0  0  0  0  0  0  0  0  0  0  0  0
   -1.1138    3.4146    1.1522 C   0  0  0  0  0  0  0  0  0  0  0  0
   -2.0608    3.4265    0.0317 C   0  0  0  0  0  0  0  0  0  0  0  0
   -1.3902   -1.8698   -0.2014 C   0  0  1  0  0  0  0  0  0  0  0  0
    4.3013   -1.1702   -0.2316 C   0  0  0  0  0  0  0  0  0  0  0  0
   -2.9047   -1.8273    0.0322 C   0  0  0  0  0  0  0  0  0  0  0  0
   -3.1798    2.6524   -0.1547 C   0  0  0  0  0  0  0  0  0  0  0  0
   -1.0649   -2.7288   -1.4147 C   0  0  0  0  0  0  0  0  0  0  0  0
    4.1282   -1.3737   -1.5804 C   0  0  0  0  0  0  0  0  0  0  0  0
   -3.7043    3.0832   -1.3882 C   0  0  0  0  0  0  0  0  0  0  0  0
   -3.4175   -3.0452    0.7615 C   0  0  0  0  0  0  0  0  0  0  0  0
   -0.9782    5.2421   -1.3267 C   0  0  0  0  0  0  0  0  0  0  0  0
    3.2428   -3.0095   -0.3985 C   0  0  0  0  0  0  0  0  0  0  0  0
   -4.9087    2.5852   -2.0734 C   0  0  0  0  0  0  0  0  0  0  0  0
   -3.0261   -3.5389    1.9865 C   0  0  0  0  0  0  0  0  0  0  0  0
    3.0261   -3.2063   -2.8879 C   0  0  0  0  0  0  0  0  0  0  0  0
   -3.7461   -4.7153    2.3440 C   0  0  0  0  0  0  0  0  0  0  0  0
   -4.6604   -5.0757    1.3788 C   0  0  0  0  0  0  0  0  0  0  0  0
    2.5019    0.4539    1.3003 H   0  0  0  0  0  0  0  0  0  0  0  0
    1.8938    2.3089   -1.0505 H   0  0  0  0  0  0  0  0  0  0  0  0
    1.7959    0.5567   -1.0665 H   0  0  0  0  0  0  0  0  0  0  0  0
   -0.3875    1.8267   -0.8621 H   0  0  0  0  0  0  0  0  0  0  0  0
    2.6086    3.5034    1.1954 H   0  0  0  0  0  0  0  0  0  0  0  0
    3.0739    2.4931    2.5592 H   0  0  0  0  0  0  0  0  0  0  0  0
    0.7554    1.6942    2.8350 H   0  0  0  0  0  0  0  0  0  0  0  0
    0.7936    3.4390    2.8124 H   0  0  0  0  0  0  0  0  0  0  0  0
    4.1617    2.0412   -0.6124 H   0  0  0  0  0  0  0  0  0  0  0  0
   -0.8380   -0.2166   -1.4066 H   0  0  0  0  0  0  0  0  0  0  0  0
   -0.8699   -2.2735    0.6755 H   0  0  0  0  0  0  0  0  0  0  0  0
   -3.1565   -0.9538    0.6492 H   0  0  0  0  0  0  0  0  0  0  0  0
   -3.4310   -1.6840   -0.9206 H   0  0  0  0  0  0  0  0  0  0  0  0
   -3.5589    1.8861    0.5063 H   0  0  0  0  0  0  0  0  0  0  0  0
    4.4177   -0.8013   -2.4509 H   0  0  0  0  0  0  0  0  0  0  0  0
   -0.8494    5.8591   -0.4340 H   0  0  0  0  0  0  0  0  0  0  0  0
   -1.2987    5.8693   -2.1627 H   0  0  0  0  0  0  0  0  0  0  0  0
   -0.0474    4.7276   -1.5780 H   0  0  0  0  0  0  0  0  0  0  0  0
    2.7225   -3.9336   -0.1861 H   0  0  0  0  0  0  0  0  0  0  0  0
   -5.6498    3.3838   -2.1820 H   0  0  0  0  0  0  0  0  0  0  0  0
   -4.6594    2.2085   -3.0709 H   0  0  0  0  0  0  0  0  0  0  0  0
   -5.3757    1.7676   -1.5144 H   0  0  0  0  0  0  0  0  0  0  0  0
   -0.5087   -4.7063   -1.7950 H   0  0  0  0  0  0  0  0  0  0  0  0
   -0.7798   -4.3701   -0.1236 H   0  0  0  0  0  0  0  0  0  0  0  0
   -2.2635   -3.0810    2.6035 H   0  0  0  0  0  0  0  0  0  0  0  0
    3.8989   -3.6830   -3.3405 H   0  0  0  0  0  0  0  0  0  0  0  0
    2.2644   -3.9541   -2.6534 H   0  0  0  0  0  0  0  0  0  0  0  0
    2.6080   -2.4530   -3.5606 H   0  0  0  0  0  0  0  0  0  0  0  0
   -3.6014   -5.2685    3.2628 H   0  0  0  0  0  0  0  0  0  0  0  0
   -5.3349   -5.9202    1.3915 H   0  0  0  0  0  0  0  0  0  0  0  0
  1  5  2  0  0  0  0
  1  6  2  0  0  0  0
  1  9  1  0  0  0  0
  1 25  1  0  0  0  0
  2 31  1  0  0  0  0
  2 38  1  0  0  0  0
  3 21  2  0  0  0  0
  4 22  2  0  0  0  0
  7 28  2  0  0  0  0
  8 18  1  0  0  0  0
  8 20  1  0  0  0  0
  8 22  1  0  0  0  0
  9 16  1  0  0  0  0
  9 47  1  0  0  0  0
 10 21  1  0  0  0  0
 10 24  1  0  0  0  0
 10 48  1  0  0  0  0
 11 13  1  0  0  0  0
 11 23  1  0  0  0  0
 11 32  1  0  0  0  0
 12 25  1  0  0  0  0
 12 33  2  0  0  0  0
 13 30  2  0  0  0  0
 14 29  1  0  0  0  0
 14 33  1  0  0  0  0
 14 36  1  0  0  0  0
 15 28  1  0  0  0  0
 15 61  1  0  0  0  0
 15 62  1  0  0  0  0
 16 17  1  0  0  0  0
 16 19  1  0  0  0  0
 16 39  1  0  0  0  0
 17 18  1  0  0  0  0
 17 40  1  0  0  0  0
 17 41  1  0  0  0  0
 18 21  1  0  0  0  0
 18 42  1  0  0  0  0
 19 20  1  0  0  0  0
 19 43  1  0  0  0  0
 19 44  1  0  0  0  0
 20 45  1  0  0  0  0
 20 46  1  0  0  0  0
 22 23  1  0  0  0  0
 23 27  2  0  0  0  0
 24 26  1  0  0  0  0
 24 28  1  0  0  0  0
 24 49  1  0  0  0  0
 25 29  2  0  0  0  0
 26 31  1  0  0  0  0
 26 50  1  0  0  0  0
 26 51  1  0  0  0  0
 27 30  1  0  0  0  0
 27 52  1  0  0  0  0
 29 53  1  0  0  0  0
 30 34  1  0  0  0  0
 31 35  2  0  0  0  0
 32 54  1  0  0  0  0
 32 55  1  0  0  0  0
 32 56  1  0  0  0  0
 33 57  1  0  0  0  0
 34 58  1  0  0  0  0
 34 59  1  0  0  0  0
 34 60  1  0  0  0  0
 35 37  1  0  0  0  0
 35 63  1  0  0  0  0
 36 64  1  0  0  0  0
 36 65  1  0  0  0  0
 36 66  1  0  0  0  0
 37 38  2  0  0  0  0
 37 67  1  0  0  0  0
 38 68  1  0  0  0  0
M  END
> <PUBCHEM_COMPOUND_CID>
44716821

> <PUBCHEM_CONFORMER_RMSD>
1.2

> <PUBCHEM_CONFORMER_DIVERSEORDER>
1
87
50
32
110
17
18
97
98
62
93
46
112
88
25
22
14
58
57
111
53
71
74
21
81
49
108
35
86
95
23
66
109
91
12
24
51
47
33
94
113
92
61
107
7
36
30
55
27
76
10
77
59
89
19
44
73
15
43
99
78
64
72
90
115
26
106
5
79
4
83
65
114
68
80
38
96
104
103
6
28
85
67
37
45
105
9
63
84
31
13
102
3
29
100
69
16
82
75
39
70
48
56
34
52
60
2
101
8
40
54
42
11
41
20

> <PUBCHEM_MMFF94_PARTIAL_CHARGES>
46
1 1.5
10 -0.73
11 0.31
12 -0.57
13 -0.71
14 0.05
15 -0.8
16 0.36
18 0.36
2 -0.08
20 0.3
21 0.57
22 0.71
23 -0.24
24 0.36
25 0.16
26 0.18
27 -0.15
28 0.57
29 -0.3
3 -0.57
30 0.11
31 -0.14
32 0.26
33 0.04
34 0.18
35 -0.15
36 0.26
37 -0.15
38 -0.11
4 -0.57
47 0.42
48 0.37
5 -0.65
52 0.15
53 0.15
57 0.15
6 -0.65
61 0.37
62 0.37
63 0.15
67 0.15
68 0.15
7 -0.57
8 -0.66
9 -0.91

> <PUBCHEM_EFFECTIVE_ROTOR_COUNT>
12.2

> <PUBCHEM_PHARMACOPHORE_FEATURES>
14
1 10 donor
1 13 acceptor
1 15 donor
1 3 acceptor
1 4 acceptor
1 5 acceptor
1 6 acceptor
1 7 acceptor
1 9 donor
3 12 14 33 cation
5 11 13 23 27 30 rings
5 12 14 25 29 33 rings
5 2 31 35 37 38 rings
6 8 16 17 18 19 20 rings

> <PUBCHEM_HEAVY_ATOM_COUNT>
38

> <PUBCHEM_ATOM_DEF_STEREO_COUNT>
3

> <PUBCHEM_ATOM_UDEF_STEREO_COUNT>
0

> <PUBCHEM_BOND_DEF_STEREO_COUNT>
0

> <PUBCHEM_BOND_UDEF_STEREO_COUNT>
0

> <PUBCHEM_ISOTOPIC_ATOM_COUNT>
0

> <PUBCHEM_COMPONENT_COUNT>
1

> <PUBCHEM_CACTVS_TAUTO_COUNT>
4

> <PUBCHEM_CONFORMER_ID>
02AA531500000001

> <PUBCHEM_MMFF94_ENERGY>
70.6487

> <PUBCHEM_FEATURE_SELFOVERLAP>
71.068

> <PUBCHEM_SHAPE_FINGERPRINT>
10258939 38 18118393180324120480
10653451 467 18413671331578422135
11991303 11 18113898213417107013
15484559 13 17692237548115620773
19319366 153 17688581668533881167
20775438 99 18054205662430865422
21049683 271 17832999616859453208
5309563 4 18196094567141207466

> <PUBCHEM_SHAPE_MULTIPOLES>
720.53
10.45
8.8
2.42
3.06
6.31
-0.36
-12.31
2.06
-9.05
-2.12
-0.42
-0.43
5.7

> <PUBCHEM_SHAPE_SELFOVERLAP>
1501.63

> <PUBCHEM_SHAPE_VOLUME>
412.4

> <PUBCHEM_COORDINATE_TYPE>
2
5
10

$$$$
