75536934
  -OEChem-12032416333D

 40 42  0     1  0  0  0  0  0999 V2000
    3.5940    1.0574   -1.1626 O   0  0  0  0  0  0  0  0  0  0  0  0
    0.5052    2.4069    0.3116 O   0  0  0  0  0  0  0  0  0  0  0  0
    2.0555   -0.9344    0.2342 N   0  0  1  0  0  0  0  0  0  0  0  0
   -1.7438   -2.8192   -0.5700 N   0  0  0  0  0  0  0  0  0  0  0  0
   -2.1356   -2.7718    0.7147 N   0  0  0  0  0  0  0  0  0  0  0  0
   -1.2833    1.1619   -0.4988 N   0  0  0  0  0  0  0  0  0  0  0  0
   -3.0480    3.0894    0.5193 N   0  0  0  0  0  0  0  0  0  0  0  0
    1.4715    0.2732    0.8171 C   0  0  0  0  0  0  0  0  0  0  0  0
    1.3301    1.3786   -0.2375 C   0  0  2  0  0  0  0  0  0  0  0  0
    3.5224   -0.9548    0.2196 C   0  0  0  0  0  0  0  0  0  0  0  0
    1.5446   -2.1430    0.8820 C   0  0  0  0  0  0  0  0  0  0  0  0
    2.6383    2.0084   -0.7093 C   0  0  0  0  0  0  0  0  0  0  0  0
    4.2206    0.3679   -0.0876 C   0  0  0  0  0  0  0  0  0  0  0  0
    0.1113   -2.4153    0.5102 C   0  0  0  0  0  0  0  0  0  0  0  0
   -0.4072   -2.6119   -0.7465 C   0  0  0  0  0  0  0  0  0  0  0  0
   -0.9982   -2.5247    1.3698 C   0  0  0  0  0  0  0  0  0  0  0  0
   -0.8451    2.2563    0.1544 C   0  0  0  0  0  0  0  0  0  0  0  0
   -2.7149   -3.0715   -1.6072 C   0  0  0  0  0  0  0  0  0  0  0  0
   -1.7119    3.2031    0.6545 C   0  0  0  0  0  0  0  0  0  0  0  0
   -2.6195    1.0483   -0.6340 C   0  0  0  0  0  0  0  0  0  0  0  0
   -3.4862    1.9950   -0.1340 C   0  0  0  0  0  0  0  0  0  0  0  0
    2.0458    0.6276    1.6839 H   0  0  0  0  0  0  0  0  0  0  0  0
    0.4758    0.0717    1.2289 H   0  0  0  0  0  0  0  0  0  0  0  0
    0.8841    0.9455   -1.1444 H   0  0  0  0  0  0  0  0  0  0  0  0
    3.8249   -1.6781   -0.5486 H   0  0  0  0  0  0  0  0  0  0  0  0
    3.9210   -1.3221    1.1747 H   0  0  0  0  0  0  0  0  0  0  0  0
    2.1188   -3.0204    0.5533 H   0  0  0  0  0  0  0  0  0  0  0  0
    1.6553   -2.0867    1.9730 H   0  0  0  0  0  0  0  0  0  0  0  0
    2.4204    2.6772   -1.5508 H   0  0  0  0  0  0  0  0  0  0  0  0
    3.0724    2.6555    0.0640 H   0  0  0  0  0  0  0  0  0  0  0  0
    5.2496    0.1543   -0.3978 H   0  0  0  0  0  0  0  0  0  0  0  0
    4.2918    0.9996    0.8064 H   0  0  0  0  0  0  0  0  0  0  0  0
    0.0524   -2.6209   -1.7255 H   0  0  0  0  0  0  0  0  0  0  0  0
   -1.0278   -2.4340    2.4463 H   0  0  0  0  0  0  0  0  0  0  0  0
   -3.0794   -4.0952   -1.4919 H   0  0  0  0  0  0  0  0  0  0  0  0
   -3.5348   -2.3575   -1.4969 H   0  0  0  0  0  0  0  0  0  0  0  0
   -2.2440   -2.9482   -2.5855 H   0  0  0  0  0  0  0  0  0  0  0  0
   -1.3639    4.0842    1.1802 H   0  0  0  0  0  0  0  0  0  0  0  0
   -2.9727    0.1712   -1.1610 H   0  0  0  0  0  0  0  0  0  0  0  0
   -4.5597    1.9032   -0.2437 H   0  0  0  0  0  0  0  0  0  0  0  0
  1 12  1  0  0  0  0
  1 13  1  0  0  0  0
  2  9  1  0  0  0  0
  2 17  1  0  0  0  0
  3  8  1  0  0  0  0
  3 10  1  0  0  0  0
  3 11  1  0  0  0  0
  4  5  1  0  0  0  0
  4 15  1  0  0  0  0
  4 18  1  0  0  0  0
  5 16  2  0  0  0  0
  6 17  2  0  0  0  0
  6 20  1  0  0  0  0
  7 19  2  0  0  0  0
  7 21  1  0  0  0  0
  8  9  1  0  0  0  0
  8 22  1  0  0  0  0
  8 23  1  0  0  0  0
  9 12  1  0  0  0  0
  9 24  1  0  0  0  0
 10 13  1  0  0  0  0
 10 25  1  0  0  0  0
 10 26  1  0  0  0  0
 11 14  1  0  0  0  0
 11 27  1  0  0  0  0
 11 28  1  0  0  0  0
 12 29  1  0  0  0  0
 12 30  1  0  0  0  0
 13 31  1  0  0  0  0
 13 32  1  0  0  0  0
 14 15  2  0  0  0  0
 14 16  1  0  0  0  0
 15 33  1  0  0  0  0
 16 34  1  0  0  0  0
 17 19  1  0  0  0  0
 18 35  1  0  0  0  0
 18 36  1  0  0  0  0
 18 37  1  0  0  0  0
 19 38  1  0  0  0  0
 20 21  2  0  0  0  0
 20 39  1  0  0  0  0
 21 40  1  0  0  0  0
M  END
> <PUBCHEM_COMPOUND_CID>
75536934

> <PUBCHEM_CONFORMER_RMSD>
1

> <PUBCHEM_CONFORMER_DIVERSEORDER>
4
83
108
98
124
100
77
109
45
126
1
16
113
23
14
121
91
105
74
17
65
120
25
119
103
117
33
15
88
115
112
26
110
84
27
123
56
60
90
3
72
116
68
67
82
106
21
78
94
18
54
48
12
97
2
24
30
92
42
41
52
86
125
96
118
37
22
69
102
87
66
57
122
28
104
43
114
34
6
19
107
5
70
62
79
8
75
51
10
95
73
76
58
20
61
111
36
39
55
31
93
32
101
81
59
38
80
13
11
85
71
9
99
7
49
63
53
46
89
44
40
35
29
64
50
47

> <PUBCHEM_MMFF94_PARTIAL_CHARGES>
26
1 -0.56
10 0.27
11 0.45
12 0.28
13 0.28
14 -0.18
15 -0.3
16 0.14
17 0.39
18 0.26
19 0.16
2 -0.36
20 0.16
21 0.16
3 -0.81
33 0.15
34 0.15
38 0.15
39 0.15
4 0.31
40 0.15
5 -0.71
6 -0.62
7 -0.62
8 0.27
9 0.28

> <PUBCHEM_EFFECTIVE_ROTOR_COUNT>
5.4

> <PUBCHEM_PHARMACOPHORE_FEATURES>
7
1 1 acceptor
1 3 cation
1 5 acceptor
1 7 acceptor
5 4 5 14 15 16 rings
6 6 7 17 19 20 21 rings
7 1 3 8 9 10 12 13 rings

> <PUBCHEM_HEAVY_ATOM_COUNT>
21

> <PUBCHEM_ATOM_DEF_STEREO_COUNT>
1

> <PUBCHEM_ATOM_UDEF_STEREO_COUNT>
0

> <PUBCHEM_BOND_DEF_STEREO_COUNT>
0

> <PUBCHEM_BOND_UDEF_STEREO_COUNT>
0

> <PUBCHEM_ISOTOPIC_ATOM_COUNT>
0

> <PUBCHEM_COMPONENT_COUNT>
1

> <PUBCHEM_CACTVS_TAUTO_COUNT>
1

> <PUBCHEM_CONFORMER_ID>
04809A2600000004

> <PUBCHEM_MMFF94_ENERGY>
57.3642

> <PUBCHEM_FEATURE_SELFOVERLAP>
35.522

> <PUBCHEM_SHAPE_FINGERPRINT>
104564 63 18264777738581567886
10616163 171 18122065304120752817
1100329 8 18335978663101437570
11578080 2 17631725114285525952
12156800 1 12204512243376579527
12553582 1 17833558172934152008
12788726 201 18048038759930738432
13140716 1 18337385058310525896
138480 1 16969141436980965699
14081887 123 18198611327935233800
14931854 50 18337372938060646703
15210252 30 17536577853310740917
17138139 8 17982976121434913797
20645477 70 17757832230402815309
21041028 32 18118972622456046450
21197605 99 18337126596565127107
21236236 1 18336549443165653580
2255824 54 17761780563392935744
22620623 9 18200333098993816390
23419403 2 12861167211548987078
23558518 356 18114751546330943954
23559900 14 18342458132959769004
25147074 1 18040996272491668204
2748010 2 16245186242129384098
3014063 31 18194395826234705927
3060560 45 17903362507196626718
3524813 1 17320396296273095367
5171179 24 17771056387720944592
6287921 2 17552353272578834923
6438718 38 18201451319029901151
7097593 13 16829250563936928192
7226269 152 17324354594769652976
7364860 26 17547573678041832592
81228 2 18118960540575782321
8272917 22 17833275212142181521

> <PUBCHEM_SHAPE_MULTIPOLES>
395.53
5.87
5.07
1.12
2.63
1.74
0.09
-2.77
1
-4.3
-0.04
-0.22
0.65
-1.41

> <PUBCHEM_SHAPE_SELFOVERLAP>
831.898

> <PUBCHEM_SHAPE_VOLUME>
221.9

> <PUBCHEM_COORDINATE_TYPE>
2
5
10

$$$$
