28961042
  -OEChem-12032416233D

 51 55  0     1  0  0  0  0  0999 V2000
   -2.9992   -1.8566    1.0273 S   0  0  0  0  0  0  0  0  0  0  0  0
    2.2259    2.8655    0.7303 O   0  0  0  0  0  0  0  0  0  0  0  0
   -3.0608   -1.7983    2.4754 O   0  0  0  0  0  0  0  0  0  0  0  0
   -2.7253   -3.1143    0.3589 O   0  0  0  0  0  0  0  0  0  0  0  0
    8.0608   -0.0453   -0.1105 O   0  0  0  0  0  0  0  0  0  0  0  0
    7.5701   -2.3121   -0.7651 O   0  0  0  0  0  0  0  0  0  0  0  0
   -0.8063    1.8471   -0.7506 N   0  0  1  0  0  0  0  0  0  0  0  0
   -1.9072   -0.6891    0.4591 N   0  0  0  0  0  0  0  0  0  0  0  0
    2.0185    0.7235    0.1092 N   0  0  0  0  0  0  0  0  0  0  0  0
    3.5294    2.3735    0.5877 N   0  0  0  0  0  0  0  0  0  0  0  0
   -9.2157    0.5608   -1.5405 N   0  0  0  0  0  0  0  0  0  0  0  0
   -2.0705    0.7312    0.8610 C   0  0  1  0  0  0  0  0  0  0  0  0
   -0.0875    2.1098    0.5107 C   0  0  1  0  0  0  0  0  0  0  0  0
   -0.8009    1.2241    1.5506 C   0  0  0  0  0  0  0  0  0  0  0  0
   -2.2031    1.6088   -0.3729 C   0  0  0  0  0  0  0  0  0  0  0  0
    1.3980    1.8305    0.4305 C   0  0  0  0  0  0  0  0  0  0  0  0
   -0.6830    2.9303   -1.7187 C   0  0  0  0  0  0  0  0  0  0  0  0
   -4.5368   -1.2589    0.3922 C   0  0  0  0  0  0  0  0  0  0  0  0
    3.3240    1.1053    0.2197 C   0  0  0  0  0  0  0  0  0  0  0  0
    4.4001    0.1941   -0.0434 C   0  0  0  0  0  0  0  0  0  0  0  0
   -4.9781   -1.6682   -0.8661 C   0  0  0  0  0  0  0  0  0  0  0  0
   -5.3087   -0.3780    1.1497 C   0  0  0  0  0  0  0  0  0  0  0  0
    5.7221    0.6274    0.0831 C   0  0  0  0  0  0  0  0  0  0  0  0
   -6.1914   -1.1966   -1.3669 C   0  0  0  0  0  0  0  0  0  0  0  0
   -6.5220    0.0937    0.6487 C   0  0  0  0  0  0  0  0  0  0  0  0
    4.1139   -1.1284   -0.4254 C   0  0  0  0  0  0  0  0  0  0  0  0
    6.7230   -0.2853   -0.1797 C   0  0  0  0  0  0  0  0  0  0  0  0
   -6.9635   -0.3157   -0.6096 C   0  0  0  0  0  0  0  0  0  0  0  0
    6.4428   -1.5797   -0.5536 C   0  0  0  0  0  0  0  0  0  0  0  0
    5.1462   -2.0328   -0.6855 C   0  0  0  0  0  0  0  0  0  0  0  0
    8.5913   -1.3339   -0.4822 C   0  0  0  0  0  0  0  0  0  0  0  0
   -8.2064    0.1679   -1.1233 C   0  0  0  0  0  0  0  0  0  0  0  0
   -2.9192    0.8550    1.5358 H   0  0  0  0  0  0  0  0  0  0  0  0
   -0.2328    3.1572    0.8126 H   0  0  0  0  0  0  0  0  0  0  0  0
   -0.1816    0.3943    1.9115 H   0  0  0  0  0  0  0  0  0  0  0  0
   -1.0657    1.8376    2.4210 H   0  0  0  0  0  0  0  0  0  0  0  0
   -2.7646    1.1257   -1.1795 H   0  0  0  0  0  0  0  0  0  0  0  0
   -2.7063    2.5473   -0.1065 H   0  0  0  0  0  0  0  0  0  0  0  0
   -1.2965   -0.8864   -0.3428 H   0  0  0  0  0  0  0  0  0  0  0  0
    0.3633    3.0735   -2.0090 H   0  0  0  0  0  0  0  0  0  0  0  0
   -1.0655    3.8816   -1.3316 H   0  0  0  0  0  0  0  0  0  0  0  0
   -1.2340    2.6865   -2.6336 H   0  0  0  0  0  0  0  0  0  0  0  0
   -4.3895   -2.3475   -1.4761 H   0  0  0  0  0  0  0  0  0  0  0  0
   -4.9911   -0.0515    2.1356 H   0  0  0  0  0  0  0  0  0  0  0  0
    5.9850    1.6388    0.3754 H   0  0  0  0  0  0  0  0  0  0  0  0
   -6.5212   -1.5232   -2.3503 H   0  0  0  0  0  0  0  0  0  0  0  0
   -7.1135    0.7788    1.2514 H   0  0  0  0  0  0  0  0  0  0  0  0
    3.0895   -1.4795   -0.5277 H   0  0  0  0  0  0  0  0  0  0  0  0
    4.9301   -3.0533   -0.9805 H   0  0  0  0  0  0  0  0  0  0  0  0
    9.2161   -1.7060    0.3379 H   0  0  0  0  0  0  0  0  0  0  0  0
    9.2170   -1.2118   -1.3738 H   0  0  0  0  0  0  0  0  0  0  0  0
  1  3  2  0  0  0  0
  1  4  2  0  0  0  0
  1  8  1  0  0  0  0
  1 18  1  0  0  0  0
  2 10  1  0  0  0  0
  2 16  1  0  0  0  0
  5 27  1  0  0  0  0
  5 31  1  0  0  0  0
  6 29  1  0  0  0  0
  6 31  1  0  0  0  0
  7 13  1  0  0  0  0
  7 15  1  0  0  0  0
  7 17  1  0  0  0  0
  8 12  1  0  0  0  0
  8 39  1  0  0  0  0
  9 16  2  0  0  0  0
  9 19  1  0  0  0  0
 10 19  2  0  0  0  0
 11 32  3  0  0  0  0
 12 14  1  0  0  0  0
 12 15  1  0  0  0  0
 12 33  1  0  0  0  0
 13 14  1  0  0  0  0
 13 16  1  0  0  0  0
 13 34  1  0  0  0  0
 14 35  1  0  0  0  0
 14 36  1  0  0  0  0
 15 37  1  0  0  0  0
 15 38  1  0  0  0  0
 17 40  1  0  0  0  0
 17 41  1  0  0  0  0
 17 42  1  0  0  0  0
 18 21  2  0  0  0  0
 18 22  1  0  0  0  0
 19 20  1  0  0  0  0
 20 23  2  0  0  0  0
 20 26  1  0  0  0  0
 21 24  1  0  0  0  0
 21 43  1  0  0  0  0
 22 25  2  0  0  0  0
 22 44  1  0  0  0  0
 23 27  1  0  0  0  0
 23 45  1  0  0  0  0
 24 28  2  0  0  0  0
 24 46  1  0  0  0  0
 25 28  1  0  0  0  0
 25 47  1  0  0  0  0
 26 30  2  0  0  0  0
 26 48  1  0  0  0  0
 27 29  2  0  0  0  0
 28 32  1  0  0  0  0
 29 30  1  0  0  0  0
 30 49  1  0  0  0  0
 31 50  1  0  0  0  0
 31 51  1  0  0  0  0
M  END
> <PUBCHEM_COMPOUND_CID>
28961042

> <PUBCHEM_CONFORMER_RMSD>
0.8

> <PUBCHEM_CONFORMER_DIVERSEORDER>
1
99
171
173
217
229
140
163
257
111
43
240
192
153
256
44
232
143
234
119
37
254
5
241
208
189
166
180
202
35
258
220
239
178
113
194
253
170
18
100
182
243
76
98
237
181
107
191
88
199
235
246
195
3
33
96
209
228
238
4
68
128
65
39
124
248
156
61
138
222
114
213
207
123
11
255
186
231
183
197
174
42
69
87
247
16
206
159
40
201
19
74
190
14
200
32
126
27
112
245
244
117
48
221
177
120
77
148
125
36
214
164
157
66
236
54
81
139
226
160
30
89
49
79
251
13
150
34
103
53
233
169
64
46
84
154
252
230
168
80
21
137
26
204
185
109
210
198
47
151
215
249
104
92
179
102
224
85
63
184
7
121
115
15
162
196
67
95
144
31
135
212
161
136
78
158
91
52
10
225
12
211
172
8
94
101
62
145
106
45
193
127
242
141
25
6
38
227
130
219
155
24
55
134
142
17
93
73
122
250
116
51
29
216
57
23
165
9
75
90
146
167
41
110
205
50
97
83
176
28
72
203
20
223
187
129
132
133
118
59
149
2
105
82
58
22
188
147
70
60
56
86
131
175
218
108
152
71

> <PUBCHEM_MMFF94_PARTIAL_CHARGES>
39
1 1.45
10 -0.41
11 -0.56
12 0.36
13 0.45
15 0.27
16 0.3
17 0.27
18 -0.01
19 0.46
2 -0.02
20 0.05
21 -0.15
22 -0.15
23 -0.15
24 -0.15
25 -0.15
26 -0.15
27 0.08
28 0.07
29 0.08
3 -0.65
30 -0.15
31 0.56
32 0.48
39 0.42
4 -0.65
43 0.15
44 0.15
45 0.15
46 0.15
47 0.15
48 0.15
49 0.15
5 -0.36
6 -0.36
7 -0.81
8 -0.91
9 -0.57

> <PUBCHEM_EFFECTIVE_ROTOR_COUNT>
6.6

> <PUBCHEM_PHARMACOPHORE_FEATURES>
13
1 11 acceptor
1 3 acceptor
1 4 acceptor
1 5 acceptor
1 6 acceptor
1 7 cation
1 8 donor
3 9 10 19 cation
5 2 9 10 16 19 rings
5 5 6 27 29 31 rings
5 7 12 13 14 15 rings
6 18 21 22 24 25 28 rings
6 20 23 26 27 29 30 rings

> <PUBCHEM_HEAVY_ATOM_COUNT>
32

> <PUBCHEM_ATOM_DEF_STEREO_COUNT>
2

> <PUBCHEM_ATOM_UDEF_STEREO_COUNT>
0

> <PUBCHEM_BOND_DEF_STEREO_COUNT>
0

> <PUBCHEM_BOND_UDEF_STEREO_COUNT>
0

> <PUBCHEM_ISOTOPIC_ATOM_COUNT>
0

> <PUBCHEM_COMPONENT_COUNT>
1

> <PUBCHEM_CACTVS_TAUTO_COUNT>
1

> <PUBCHEM_CONFORMER_ID>
01B9E91200000001

> <PUBCHEM_MMFF94_ENERGY>
55.7228

> <PUBCHEM_FEATURE_SELFOVERLAP>
66.147

> <PUBCHEM_SHAPE_FINGERPRINT>
10391435 84 18335700602787400834
10483366 6 18260544507361921123
10622 236 17271708774834189375
10674148 151 18187358827326444921
10917259 69 18197776606059468321
11211813 89 18334013895298074668
11374522 155 10087628325826735379
11408170 108 17489316247907872775
12202916 173 18342740702351891398
12592606 108 18202278130831850671
12643181 29 18260830427213350674
12760667 363 18342461438934301513
12857493 111 18410008831981222844
13008946 113 16518197789169630293
13673619 4 18410856547288345916
14068700 675 17918276454261136441
14117953 113 18407760334975406079
14294032 229 16733817563631313853
14675019 173 18113337535217036493
14931854 50 18040720230105697234
15052358 14 18113897182930683539
15131766 46 15766931446216167136
15183329 4 18408036317237304747
15198563 99 17676763172154953413
15320295 40 15482669074954284617
15350500 16 16343697738703766409
15351339 4 18115304459041318970
15361156 5 18188215432250571638
15475509 8 18113050546114045525
15519825 34 14764052497864000943
15604295 49 11531353090576716662
15927050 60 17835527016292882977
18393751 57 10447925070628792033
18603816 31 17846489370549449663
18643901 69 18335427833355945052
19301676 85 18412266112315712791
19315958 150 18269272537657964609
20028762 73 17847064385140040262
20501277 279 18060131090814956864
21033650 10 16732978700403994597
21307412 95 18259990396414408139
21365058 27 14056998326483862737
23559900 14 18266458891713154041
23569917 315 18337676442859132027
23569943 247 18340486677956078715
23576562 1 17386849603347472727
3004659 81 18261390074626649304
3103668 31 18115297870598923261
32027 91 18341051933651985225
4339292 15 18336265640527801646
437815 12 18411982472611343577
439807 62 18334576820273138798
444769 64 18411989053265684275
474113 269 17560799914192672141
59682541 35 10807932691718641189
59755656 215 18113615673067136330
6009941 240 17748831838681619587
6081469 158 18333731303635096653
6138700 20 18411419514468810227
6608658 132 15719662161427013093
9689198 14 13695864805924117055

> <PUBCHEM_SHAPE_MULTIPOLES>
608.14
25.74
2.94
1.38
6.18
0.51
0.18
-13.26
-9.54
1.46
-0.11
-2.26
-0.02
1.79

> <PUBCHEM_SHAPE_SELFOVERLAP>
1323.978

> <PUBCHEM_SHAPE_VOLUME>
335.2

> <PUBCHEM_COORDINATE_TYPE>
2
5
10

$$$$
