38028655
  -OEChem-12032416403D

 56 57  0     1  0  0  0  0  0999 V2000
    3.9805   -0.4629   -0.5107 O   0  0  0  0  0  0  0  0  0  0  0  0
   -2.9754    0.7556    1.9218 O   0  0  0  0  0  0  0  0  0  0  0  0
   -2.2890    1.3909   -0.2021 N   0  0  0  0  0  0  0  0  0  0  0  0
    2.6999   -2.3851   -0.7681 N   0  0  0  0  0  0  0  0  0  0  0  0
   -2.9945   -1.0466   -1.1003 N   0  0  0  0  0  0  0  0  0  0  0  0
    0.5133    1.9708    0.7223 C   0  0  1  0  0  0  0  0  0  0  0  0
   -0.3603    2.8835   -0.1742 C   0  0  1  0  0  0  0  0  0  0  0  0
    1.9243    1.8304    0.1311 C   0  0  0  0  0  0  0  0  0  0  0  0
    1.9037    1.2413   -1.2921 C   0  0  2  0  0  0  0  0  0  0  0  0
    0.6025    2.5000    2.1571 C   0  0  0  0  0  0  0  0  0  0  0  0
    0.8678    1.9180   -2.1666 C   0  0  0  0  0  0  0  0  0  0  0  0
   -0.1287    2.6589   -1.6501 C   0  0  0  0  0  0  0  0  0  0  0  0
   -1.8499    2.7070    0.1417 C   0  0  0  0  0  0  0  0  0  0  0  0
    1.6873   -0.2757   -1.2588 C   0  0  0  0  0  0  0  0  0  0  0  0
    1.6545    3.6001    2.2539 C   0  0  0  0  0  0  0  0  0  0  0  0
    0.9172    1.3637    3.1248 C   0  0  0  0  0  0  0  0  0  0  0  0
    1.0300    1.7613   -3.6531 C   0  0  0  0  0  0  0  0  0  0  0  0
    2.9243   -1.0167   -0.8039 C   0  0  0  0  0  0  0  0  0  0  0  0
   -2.8263    0.5030    0.7292 C   0  0  0  0  0  0  0  0  0  0  0  0
    3.7088   -3.3401   -0.3714 C   0  0  0  0  0  0  0  0  0  0  0  0
   -3.2111   -0.8376    0.2177 C   0  0  0  0  0  0  0  0  0  0  0  0
   -3.7529   -1.7826    1.0741 C   0  0  0  0  0  0  0  0  0  0  0  0
    3.6636   -3.5867    1.0696 C   0  0  0  0  0  0  0  0  0  0  0  0
   -4.0942   -3.0217    0.5437 C   0  0  0  0  0  0  0  0  0  0  0  0
   -3.3387   -2.2627   -1.5800 C   0  0  0  0  0  0  0  0  0  0  0  0
   -3.8863   -3.2744   -0.8078 C   0  0  0  0  0  0  0  0  0  0  0  0
    3.6298   -3.7915    2.2521 C   0  0  0  0  0  0  0  0  0  0  0  0
    0.0605    0.9731    0.7555 H   0  0  0  0  0  0  0  0  0  0  0  0
   -0.1094    3.9344    0.0176 H   0  0  0  0  0  0  0  0  0  0  0  0
    2.5658    1.2287    0.7823 H   0  0  0  0  0  0  0  0  0  0  0  0
    2.4046    2.8129    0.0373 H   0  0  0  0  0  0  0  0  0  0  0  0
    2.8879    1.4522   -1.7337 H   0  0  0  0  0  0  0  0  0  0  0  0
   -0.3585    2.9220    2.4688 H   0  0  0  0  0  0  0  0  0  0  0  0
   -0.8165    3.1603   -2.3282 H   0  0  0  0  0  0  0  0  0  0  0  0
   -2.4476    3.4027   -0.4597 H   0  0  0  0  0  0  0  0  0  0  0  0
   -2.0748    2.9290    1.1883 H   0  0  0  0  0  0  0  0  0  0  0  0
    1.4530   -0.6563   -2.2605 H   0  0  0  0  0  0  0  0  0  0  0  0
    0.8481   -0.5541   -0.6117 H   0  0  0  0  0  0  0  0  0  0  0  0
    2.6803    3.2210    2.1968 H   0  0  0  0  0  0  0  0  0  0  0  0
    1.5729    4.0904    3.2320 H   0  0  0  0  0  0  0  0  0  0  0  0
    1.5167    4.3843    1.5036 H   0  0  0  0  0  0  0  0  0  0  0  0
    1.8846    0.8959    2.9176 H   0  0  0  0  0  0  0  0  0  0  0  0
    0.1475    0.5857    3.0787 H   0  0  0  0  0  0  0  0  0  0  0  0
    0.9461    1.7358    4.1549 H   0  0  0  0  0  0  0  0  0  0  0  0
    2.0300    2.0823   -3.9622 H   0  0  0  0  0  0  0  0  0  0  0  0
    0.3061    2.3650   -4.2110 H   0  0  0  0  0  0  0  0  0  0  0  0
    0.8889    0.7199   -3.9561 H   0  0  0  0  0  0  0  0  0  0  0  0
   -2.2437    1.1035   -1.1757 H   0  0  0  0  0  0  0  0  0  0  0  0
    1.7818   -2.7440   -1.0149 H   0  0  0  0  0  0  0  0  0  0  0  0
    3.5169   -4.2636   -0.9266 H   0  0  0  0  0  0  0  0  0  0  0  0
    4.6944   -2.9648   -0.6656 H   0  0  0  0  0  0  0  0  0  0  0  0
   -3.9153   -1.5865    2.1284 H   0  0  0  0  0  0  0  0  0  0  0  0
   -4.5213   -3.7892    1.1820 H   0  0  0  0  0  0  0  0  0  0  0  0
   -3.1564   -2.4094   -2.6395 H   0  0  0  0  0  0  0  0  0  0  0  0
   -4.1447   -4.2331   -1.2427 H   0  0  0  0  0  0  0  0  0  0  0  0
    3.5996   -3.9728    3.3009 H   0  0  0  0  0  0  0  0  0  0  0  0
  1 18  2  0  0  0  0
  2 19  2  0  0  0  0
  3 13  1  0  0  0  0
  3 19  1  0  0  0  0
  3 48  1  0  0  0  0
  4 18  1  0  0  0  0
  4 20  1  0  0  0  0
  4 49  1  0  0  0  0
  5 21  1  0  0  0  0
  5 25  2  0  0  0  0
  6  7  1  0  0  0  0
  6  8  1  0  0  0  0
  6 10  1  0  0  0  0
  6 28  1  0  0  0  0
  7 12  1  0  0  0  0
  7 13  1  0  0  0  0
  7 29  1  0  0  0  0
  8  9  1  0  0  0  0
  8 30  1  0  0  0  0
  8 31  1  0  0  0  0
  9 11  1  0  0  0  0
  9 14  1  0  0  0  0
  9 32  1  0  0  0  0
 10 15  1  0  0  0  0
 10 16  1  0  0  0  0
 10 33  1  0  0  0  0
 11 12  2  0  0  0  0
 11 17  1  0  0  0  0
 12 34  1  0  0  0  0
 13 35  1  0  0  0  0
 13 36  1  0  0  0  0
 14 18  1  0  0  0  0
 14 37  1  0  0  0  0
 14 38  1  0  0  0  0
 15 39  1  0  0  0  0
 15 40  1  0  0  0  0
 15 41  1  0  0  0  0
 16 42  1  0  0  0  0
 16 43  1  0  0  0  0
 16 44  1  0  0  0  0
 17 45  1  0  0  0  0
 17 46  1  0  0  0  0
 17 47  1  0  0  0  0
 19 21  1  0  0  0  0
 20 23  1  0  0  0  0
 20 50  1  0  0  0  0
 20 51  1  0  0  0  0
 21 22  2  0  0  0  0
 22 24  1  0  0  0  0
 22 52  1  0  0  0  0
 23 27  3  0  0  0  0
 24 26  2  0  0  0  0
 24 53  1  0  0  0  0
 25 26  1  0  0  0  0
 25 54  1  0  0  0  0
 26 55  1  0  0  0  0
 27 56  1  0  0  0  0
M  END
> <PUBCHEM_COMPOUND_CID>
38028655

> <PUBCHEM_CONFORMER_RMSD>
1

> <PUBCHEM_CONFORMER_DIVERSEORDER>
1
9
45
139
84
147
4
140
101
85
53
127
145
120
28
142
78
58
77
16
99
68
51
3
88
86
76
89
36
57
107
105
117
124
27
94
74
131
100
31
18
82
93
49
110
133
138
81
22
90
98
116
59
33
109
34
97
60
66
143
24
134
106
108
67
50
32
115
126
56
39
102
7
132
54
29
17
23
8
10
47
148
129
40
69
80
11
83
13
141
62
73
43
125
63
30
48
118
123
146
25
128
5
61
26
79
52
135
64
35
65
92
137
114
55
75
15
38
70
42
2
46
20
6
72
113
112
121
103
12
119
19
91
37
104
96
130
122
95
14
111
21
144
41
44
87
71
136

> <PUBCHEM_MMFF94_PARTIAL_CHARGES>
30
1 -0.57
11 -0.28
12 -0.29
13 0.3
14 0.06
17 0.14
18 0.57
19 0.54
2 -0.57
20 0.5
21 0.4
22 -0.15
23 -0.2
24 -0.15
25 0.16
26 -0.15
27 -0.18
3 -0.73
34 0.15
4 -0.73
48 0.37
49 0.37
5 -0.62
52 0.15
53 0.15
54 0.15
55 0.15
56 0.18
7 0.14
9 0.14

> <PUBCHEM_EFFECTIVE_ROTOR_COUNT>
9.8

> <PUBCHEM_PHARMACOPHORE_FEATURES>
9
1 1 acceptor
1 2 acceptor
1 27 hydrophobe
1 3 donor
1 4 donor
1 5 acceptor
3 10 15 16 hydrophobe
6 5 21 22 24 25 26 rings
6 6 7 8 9 11 12 rings

> <PUBCHEM_HEAVY_ATOM_COUNT>
27

> <PUBCHEM_ATOM_DEF_STEREO_COUNT>
3

> <PUBCHEM_ATOM_UDEF_STEREO_COUNT>
0

> <PUBCHEM_BOND_DEF_STEREO_COUNT>
0

> <PUBCHEM_BOND_UDEF_STEREO_COUNT>
0

> <PUBCHEM_ISOTOPIC_ATOM_COUNT>
0

> <PUBCHEM_COMPONENT_COUNT>
1

> <PUBCHEM_CACTVS_TAUTO_COUNT>
4

> <PUBCHEM_CONFORMER_ID>
0244456F00000001

> <PUBCHEM_MMFF94_ENERGY>
50.7142

> <PUBCHEM_FEATURE_SELFOVERLAP>
45.671

> <PUBCHEM_SHAPE_FINGERPRINT>
114674 6 17909271630228700715
11552529 35 17981602672435142822
11578080 2 18342175622263613133
12156800 1 16668192060548181127
12523318 42 17759790452301096434
12539773 59 17541944187018284162
13004483 165 18044943363487881700
14020679 6 16911424859146294760
14468879 13 8321961609525558812
14705955 166 16052941582084348842
14787075 74 17842576294776887860
14863182 85 17904196284433664721
19315092 285 17416119714695644075
20775530 9 18409736161760737279
21315759 227 17822584917877321346
21860390 5 7852482758794594408
66674814 147 17895765101066502834
86090 222 16826727790795712883

> <PUBCHEM_SHAPE_MULTIPOLES>
528.97
7.53
5.85
2.95
4.96
3.73
-0.09
10.69
0.72
-3.71
1.84
-1.66
-1.94
-1.21

> <PUBCHEM_SHAPE_SELFOVERLAP>
1085.704

> <PUBCHEM_SHAPE_VOLUME>
300.8

> <PUBCHEM_COORDINATE_TYPE>
2
5
10

$$$$
