11912249
  -OEChem-12032416133D

 52 53  0     1  0  0  0  0  0999 V2000
    4.2760   -1.0696    0.4930 S   0  0  0  0  0  0  0  0  0  0  0  0
   -2.0303    2.4091   -0.4329 S   0  0  0  0  0  0  0  0  0  0  0  0
    1.0998   -0.5915   -1.5469 O   0  0  0  0  0  0  0  0  0  0  0  0
    5.3701   -1.0989   -0.4531 O   0  0  0  0  0  0  0  0  0  0  0  0
    3.5679   -2.2723    0.8738 O   0  0  0  0  0  0  0  0  0  0  0  0
    0.6112    4.1912   -1.4359 O   0  0  0  0  0  0  0  0  0  0  0  0
   -2.6684   -1.1467    0.9781 O   0  0  0  0  0  0  0  0  0  0  0  0
   -5.6286    1.9978    1.1609 O   0  0  0  0  0  0  0  0  0  0  0  0
   -4.6052    1.1629   -0.6887 O   0  0  0  0  0  0  0  0  0  0  0  0
    3.1392    0.1010   -0.0158 N   0  0  1  0  0  0  0  0  0  0  0  0
    1.3803    2.3965   -0.1809 N   0  0  0  0  0  0  0  0  0  0  0  0
   -0.0349   -1.4309    0.3043 N   0  0  0  0  0  0  0  0  0  0  0  0
   -3.1413   -3.2642    0.2637 N   0  0  0  0  0  0  0  0  0  0  0  0
    1.8010    0.0661    0.6348 C   0  0  1  0  0  0  0  0  0  0  0  0
    1.2321    1.4516    0.9331 C   0  0  0  0  0  0  0  0  0  0  0  0
    3.6736    1.4597   -0.2858 C   0  0  0  0  0  0  0  0  0  0  0  0
    2.6027    2.2902   -0.9749 C   0  0  0  0  0  0  0  0  0  0  0  0
    0.9386   -0.6804   -0.3325 C   0  0  0  0  0  0  0  0  0  0  0  0
   -1.0070   -2.2231   -0.4032 C   0  0  1  0  0  0  0  0  0  0  0  0
   -0.4857   -3.6331   -0.6441 C   0  0  0  0  0  0  0  0  0  0  0  0
   -1.5932   -4.4927   -1.2319 C   0  0  0  0  0  0  0  0  0  0  0  0
    0.4576    3.3907   -0.5097 C   0  0  0  0  0  0  0  0  0  0  0  0
   -2.3176   -2.1623    0.3737 C   0  0  0  0  0  0  0  0  0  0  0  0
   -2.7427   -4.5638   -0.2445 C   0  0  0  0  0  0  0  0  0  0  0  0
    4.8531   -0.2810    1.9740 C   0  0  0  0  0  0  0  0  0  0  0  0
   -0.7893    3.4601    0.3355 C   0  0  0  0  0  0  0  0  0  0  0  0
   -3.3813    2.6660    0.7438 C   0  0  0  0  0  0  0  0  0  0  0  0
   -4.5777    1.8678    0.3120 C   0  0  0  0  0  0  0  0  0  0  0  0
    1.8553   -0.4810    1.5830 H   0  0  0  0  0  0  0  0  0  0  0  0
    1.7688    1.8978    1.7798 H   0  0  0  0  0  0  0  0  0  0  0  0
    0.1899    1.3447    1.2375 H   0  0  0  0  0  0  0  0  0  0  0  0
    3.9723    1.9471    0.6478 H   0  0  0  0  0  0  0  0  0  0  0  0
    4.5473    1.3939   -0.9419 H   0  0  0  0  0  0  0  0  0  0  0  0
    2.3237    1.8460   -1.9379 H   0  0  0  0  0  0  0  0  0  0  0  0
    2.9813    3.2976   -1.1819 H   0  0  0  0  0  0  0  0  0  0  0  0
   -1.2032   -1.7471   -1.3730 H   0  0  0  0  0  0  0  0  0  0  0  0
    0.3711   -3.6083   -1.3279 H   0  0  0  0  0  0  0  0  0  0  0  0
   -0.1278   -4.0777    0.2938 H   0  0  0  0  0  0  0  0  0  0  0  0
   -0.0679   -1.4378    1.3199 H   0  0  0  0  0  0  0  0  0  0  0  0
   -1.2225   -5.5000   -1.4495 H   0  0  0  0  0  0  0  0  0  0  0  0
   -1.9366   -4.0586   -2.1789 H   0  0  0  0  0  0  0  0  0  0  0  0
   -3.6220   -5.0261   -0.7040 H   0  0  0  0  0  0  0  0  0  0  0  0
   -2.4623   -5.1684    0.6253 H   0  0  0  0  0  0  0  0  0  0  0  0
    4.0084   -0.0423    2.6217 H   0  0  0  0  0  0  0  0  0  0  0  0
    5.4297    0.6100    1.7231 H   0  0  0  0  0  0  0  0  0  0  0  0
    5.5072   -0.9903    2.4880 H   0  0  0  0  0  0  0  0  0  0  0  0
   -4.0420   -3.2116    0.7295 H   0  0  0  0  0  0  0  0  0  0  0  0
   -0.6074    3.2106    1.3824 H   0  0  0  0  0  0  0  0  0  0  0  0
   -1.1425    4.4975    0.3189 H   0  0  0  0  0  0  0  0  0  0  0  0
   -3.0697    2.3260    1.7352 H   0  0  0  0  0  0  0  0  0  0  0  0
   -3.6520    3.7251    0.7650 H   0  0  0  0  0  0  0  0  0  0  0  0
   -6.4006    1.4663    0.8716 H   0  0  0  0  0  0  0  0  0  0  0  0
  1  4  2  0  0  0  0
  1  5  2  0  0  0  0
  1 10  1  0  0  0  0
  1 25  1  0  0  0  0
  2 26  1  0  0  0  0
  2 27  1  0  0  0  0
  3 18  2  0  0  0  0
  6 22  2  0  0  0  0
  7 23  2  0  0  0  0
  8 28  1  0  0  0  0
  8 52  1  0  0  0  0
  9 28  2  0  0  0  0
 10 14  1  0  0  0  0
 10 16  1  0  0  0  0
 11 15  1  0  0  0  0
 11 17  1  0  0  0  0
 11 22  1  0  0  0  0
 12 18  1  0  0  0  0
 12 19  1  0  0  0  0
 12 39  1  0  0  0  0
 13 23  1  0  0  0  0
 13 24  1  0  0  0  0
 13 47  1  0  0  0  0
 14 15  1  0  0  0  0
 14 18  1  0  0  0  0
 14 29  1  0  0  0  0
 15 30  1  0  0  0  0
 15 31  1  0  0  0  0
 16 17  1  0  0  0  0
 16 32  1  0  0  0  0
 16 33  1  0  0  0  0
 17 34  1  0  0  0  0
 17 35  1  0  0  0  0
 19 20  1  0  0  0  0
 19 23  1  0  0  0  0
 19 36  1  0  0  0  0
 20 21  1  0  0  0  0
 20 37  1  0  0  0  0
 20 38  1  0  0  0  0
 21 24  1  0  0  0  0
 21 40  1  0  0  0  0
 21 41  1  0  0  0  0
 22 26  1  0  0  0  0
 24 42  1  0  0  0  0
 24 43  1  0  0  0  0
 25 44  1  0  0  0  0
 25 45  1  0  0  0  0
 25 46  1  0  0  0  0
 26 48  1  0  0  0  0
 26 49  1  0  0  0  0
 27 28  1  0  0  0  0
 27 50  1  0  0  0  0
 27 51  1  0  0  0  0
M  END
> <PUBCHEM_COMPOUND_CID>
11912249

> <PUBCHEM_CONFORMER_RMSD>
1

> <PUBCHEM_CONFORMER_DIVERSEORDER>
1
59
18
121
58
89
14
125
35
134
94
178
167
170
54
175
49
138
145
69
150
100
129
48
41
52
177
106
174
139
109
57
53
104
113
160
118
73
28
17
112
183
16
79
126
135
103
142
123
63
117
182
146
116
38
11
152
85
107
87
141
162
32
168
12
97
114
180
20
169
165
96
70
154
26
76
81
179
140
15
74
31
148
120
75
24
111
68
166
55
39
172
25
92
60
110
43
127
161
91
37
130
136
163
3
83
176
90
88
61
71
131
22
101
4
147
65
51
124
44
119
10
66
155
67
143
132
30
137
40
45
95
8
80
153
56
98
84
93
50
105
6
108
19
157
23
47
82
115
36
159
122
149
29
33
64
128
133
99
181
13
21
62
151
42
102
27
34
72
171
9
78
7
77
158
2
156
164
144
86
173
46
5

> <PUBCHEM_MMFF94_PARTIAL_CHARGES>
29
1 1.33
10 -0.85
11 -0.66
12 -0.73
13 -0.73
14 0.42
15 0.3
16 0.36
17 0.3
18 0.57
19 0.36
2 -0.46
22 0.57
23 0.57
24 0.3
25 0.11
26 0.29
27 0.29
28 0.66
3 -0.57
39 0.37
4 -0.65
47 0.37
5 -0.65
52 0.5
6 -0.57
7 -0.57
8 -0.65
9 -0.57

> <PUBCHEM_EFFECTIVE_ROTOR_COUNT>
11.2

> <PUBCHEM_PHARMACOPHORE_FEATURES>
12
1 12 donor
1 13 donor
1 3 acceptor
1 4 acceptor
1 5 acceptor
1 6 acceptor
1 7 acceptor
1 8 acceptor
1 9 acceptor
3 8 9 28 anion
6 10 11 14 15 16 17 rings
6 13 19 20 21 23 24 rings

> <PUBCHEM_HEAVY_ATOM_COUNT>
28

> <PUBCHEM_ATOM_DEF_STEREO_COUNT>
2

> <PUBCHEM_ATOM_UDEF_STEREO_COUNT>
0

> <PUBCHEM_BOND_DEF_STEREO_COUNT>
0

> <PUBCHEM_BOND_UDEF_STEREO_COUNT>
0

> <PUBCHEM_ISOTOPIC_ATOM_COUNT>
0

> <PUBCHEM_COMPONENT_COUNT>
1

> <PUBCHEM_CACTVS_TAUTO_COUNT>
4

> <PUBCHEM_CONFORMER_ID>
00B5C43900000001

> <PUBCHEM_MMFF94_ENERGY>
55.3496

> <PUBCHEM_FEATURE_SELFOVERLAP>
60.976

> <PUBCHEM_SHAPE_FINGERPRINT>
10074138 170 18122871353549835138
1100329 8 18409729560343073717
11014199 57 18123466348122596802
11578080 2 17917136325713289376
12839892 36 17761478206596254408
13140716 1 18410282636620271504
138480 1 17330561947666560769
14117953 113 18265052423553100821
14863182 85 18121795923439502085
14866123 147 18194670485172755586
15403338 16 16880186703166763259
16728300 4 17172910748612471370
17818456 19 18410291406632110386
19319366 153 17676776362093970386
19591789 44 17762053234103460006
20028762 73 18200586987105369599
20764821 26 18339095838595576037
20775438 99 17121093321944980887
21033648 29 17988347230861643362
21344244 78 17835498793688247954
22113638 7 18409166597757977629
23559900 14 17620183678173794098
238918 7 18127121970733889442
5047190 48 18411978036379358690

> <PUBCHEM_SHAPE_MULTIPOLES>
522.92
9.1
6.58
1.22
0.89
2.86
-0.09
-0.46
-2.9
-6.52
1.79
0.55
-0.14
-1.64

> <PUBCHEM_SHAPE_SELFOVERLAP>
1039.143

> <PUBCHEM_SHAPE_VOLUME>
309.7

> <PUBCHEM_COORDINATE_TYPE>
2
5
10

$$$$
