25389544
  -OEChem-12032416173D

 67 71  0     1  0  0  0  0  0999 V2000
    3.0754    1.4200   -0.1527 O   0  0  0  0  0  0  0  0  0  0  0  0
    3.6292    0.1941    1.6966 O   0  0  0  0  0  0  0  0  0  0  0  0
   -1.8783   -4.1628   -0.2381 O   0  0  0  0  0  0  0  0  0  0  0  0
   -4.5461   -4.9399   -0.2889 O   0  0  0  0  0  0  0  0  0  0  0  0
    0.9794    4.4144    0.5365 N   0  0  2  0  0  0  0  0  0  0  0  0
   -3.3665    2.4860    0.7390 N   0  0  0  0  0  0  0  0  0  0  0  0
   -4.0084    1.3097    0.8414 N   0  0  0  0  0  0  0  0  0  0  0  0
    4.3971   -0.3797   -0.4391 N   0  0  0  0  0  0  0  0  0  0  0  0
   -0.4558    3.6611   -1.5020 C   0  0  2  0  0  0  0  0  0  0  0  0
   -1.3005    3.6232   -0.1985 C   0  0  2  0  0  0  0  0  0  0  0  0
    1.7059    3.3758   -0.2405 C   0  0  2  0  0  0  0  0  0  0  0  0
    0.7920    2.7699   -1.3273 C   0  0  0  0  0  0  0  0  0  0  0  0
    0.0431    5.1127   -1.6671 C   0  0  0  0  0  0  0  0  0  0  0  0
   -0.3316    3.8862    0.9895 C   0  0  0  0  0  0  0  0  0  0  0  0
    0.7285    5.5640   -0.3655 C   0  0  0  0  0  0  0  0  0  0  0  0
   -2.1956    2.4161    0.0429 C   0  0  0  0  0  0  0  0  0  0  0  0
    2.3169    2.2975    0.6569 C   0  0  0  0  0  0  0  0  0  0  0  0
   -2.0621    1.1027   -0.3362 C   0  0  0  0  0  0  0  0  0  0  0  0
   -3.2068    0.4686    0.1826 C   0  0  0  0  0  0  0  0  0  0  0  0
   -3.9454    3.6610    1.3481 C   0  0  0  0  0  0  0  0  0  0  0  0
   -3.5482   -0.9249    0.0624 C   0  0  0  0  0  0  0  0  0  0  0  0
    3.7055    0.3760    0.4876 C   0  0  0  0  0  0  0  0  0  0  0  0
   -2.5402   -1.8847   -0.0303 C   0  0  0  0  0  0  0  0  0  0  0  0
   -4.8873   -1.3152    0.0378 C   0  0  0  0  0  0  0  0  0  0  0  0
   -2.8713   -3.2347   -0.1478 C   0  0  0  0  0  0  0  0  0  0  0  0
   -5.2183   -2.6651   -0.0801 C   0  0  0  0  0  0  0  0  0  0  0  0
    5.1769   -1.5364   -0.2114 C   0  0  0  0  0  0  0  0  0  0  0  0
   -4.2102   -3.6249   -0.1728 C   0  0  0  0  0  0  0  0  0  0  0  0
    5.8083   -2.1730   -1.2799 C   0  0  0  0  0  0  0  0  0  0  0  0
    5.3141   -2.0420    1.0815 C   0  0  0  0  0  0  0  0  0  0  0  0
    6.5769   -3.3152   -1.0557 C   0  0  0  0  0  0  0  0  0  0  0  0
    6.0827   -3.1843    1.3056 C   0  0  0  0  0  0  0  0  0  0  0  0
   -0.5362   -3.6811   -0.2050 C   0  0  0  0  0  0  0  0  0  0  0  0
   -5.9373   -5.2543   -0.3065 C   0  0  0  0  0  0  0  0  0  0  0  0
    6.7143   -3.8207    0.2371 C   0  0  0  0  0  0  0  0  0  0  0  0
   -1.0418    3.3468   -2.3721 H   0  0  0  0  0  0  0  0  0  0  0  0
   -1.9773    4.4882   -0.2666 H   0  0  0  0  0  0  0  0  0  0  0  0
    2.5537    3.8565   -0.7509 H   0  0  0  0  0  0  0  0  0  0  0  0
    0.5183    1.7420   -1.0857 H   0  0  0  0  0  0  0  0  0  0  0  0
    1.3420    2.7293   -2.2763 H   0  0  0  0  0  0  0  0  0  0  0  0
   -0.7939    5.7817   -1.8986 H   0  0  0  0  0  0  0  0  0  0  0  0
    0.7470    5.1719   -2.5062 H   0  0  0  0  0  0  0  0  0  0  0  0
   -0.7886    4.6171    1.6697 H   0  0  0  0  0  0  0  0  0  0  0  0
   -0.1910    2.9883    1.6021 H   0  0  0  0  0  0  0  0  0  0  0  0
    1.6733    6.0705   -0.5983 H   0  0  0  0  0  0  0  0  0  0  0  0
    0.1128    6.3128    0.1489 H   0  0  0  0  0  0  0  0  0  0  0  0
    1.5425    1.7229    1.1772 H   0  0  0  0  0  0  0  0  0  0  0  0
    2.9728    2.7626    1.4030 H   0  0  0  0  0  0  0  0  0  0  0  0
   -1.2690    0.6618   -0.9193 H   0  0  0  0  0  0  0  0  0  0  0  0
   -4.2313    4.3560    0.5551 H   0  0  0  0  0  0  0  0  0  0  0  0
   -4.8304    3.3741    1.9228 H   0  0  0  0  0  0  0  0  0  0  0  0
   -3.2087    4.1107    2.0172 H   0  0  0  0  0  0  0  0  0  0  0  0
   -1.5122   -1.5416    0.0078 H   0  0  0  0  0  0  0  0  0  0  0  0
   -5.6944   -0.5890    0.0996 H   0  0  0  0  0  0  0  0  0  0  0  0
    4.3404   -0.0682   -1.4057 H   0  0  0  0  0  0  0  0  0  0  0  0
   -6.2781   -2.8946   -0.0949 H   0  0  0  0  0  0  0  0  0  0  0  0
    5.7093   -1.7897   -2.2922 H   0  0  0  0  0  0  0  0  0  0  0  0
    4.8551   -1.6036    1.9567 H   0  0  0  0  0  0  0  0  0  0  0  0
    7.0685   -3.8110   -1.8876 H   0  0  0  0  0  0  0  0  0  0  0  0
    6.1902   -3.5792    2.3118 H   0  0  0  0  0  0  0  0  0  0  0  0
   -0.3016   -3.2030    0.7523 H   0  0  0  0  0  0  0  0  0  0  0  0
   -0.3168   -3.0343   -1.0614 H   0  0  0  0  0  0  0  0  0  0  0  0
    0.1204   -4.5532   -0.2916 H   0  0  0  0  0  0  0  0  0  0  0  0
   -6.0205   -6.3419   -0.4028 H   0  0  0  0  0  0  0  0  0  0  0  0
   -6.4384   -4.8190   -1.1778 H   0  0  0  0  0  0  0  0  0  0  0  0
   -6.4250   -4.9805    0.6353 H   0  0  0  0  0  0  0  0  0  0  0  0
    7.3127   -4.7100    0.4117 H   0  0  0  0  0  0  0  0  0  0  0  0
  1 17  1  0  0  0  0
  1 22  1  0  0  0  0
  2 22  2  0  0  0  0
  3 25  1  0  0  0  0
  3 33  1  0  0  0  0
  4 28  1  0  0  0  0
  4 34  1  0  0  0  0
  5 11  1  0  0  0  0
  5 14  1  0  0  0  0
  5 15  1  0  0  0  0
  6  7  1  0  0  0  0
  6 16  1  0  0  0  0
  6 20  1  0  0  0  0
  7 19  2  0  0  0  0
  8 22  1  0  0  0  0
  8 27  1  0  0  0  0
  8 55  1  0  0  0  0
  9 10  1  0  0  0  0
  9 12  1  0  0  0  0
  9 13  1  0  0  0  0
  9 36  1  0  0  0  0
 10 14  1  0  0  0  0
 10 16  1  0  0  0  0
 10 37  1  0  0  0  0
 11 12  1  0  0  0  0
 11 17  1  0  0  0  0
 11 38  1  0  0  0  0
 12 39  1  0  0  0  0
 12 40  1  0  0  0  0
 13 15  1  0  0  0  0
 13 41  1  0  0  0  0
 13 42  1  0  0  0  0
 14 43  1  0  0  0  0
 14 44  1  0  0  0  0
 15 45  1  0  0  0  0
 15 46  1  0  0  0  0
 16 18  2  0  0  0  0
 17 47  1  0  0  0  0
 17 48  1  0  0  0  0
 18 19  1  0  0  0  0
 18 49  1  0  0  0  0
 19 21  1  0  0  0  0
 20 50  1  0  0  0  0
 20 51  1  0  0  0  0
 20 52  1  0  0  0  0
 21 23  2  0  0  0  0
 21 24  1  0  0  0  0
 23 25  1  0  0  0  0
 23 53  1  0  0  0  0
 24 26  2  0  0  0  0
 24 54  1  0  0  0  0
 25 28  2  0  0  0  0
 26 28  1  0  0  0  0
 26 56  1  0  0  0  0
 27 29  2  0  0  0  0
 27 30  1  0  0  0  0
 29 31  1  0  0  0  0
 29 57  1  0  0  0  0
 30 32  2  0  0  0  0
 30 58  1  0  0  0  0
 31 35  2  0  0  0  0
 31 59  1  0  0  0  0
 32 35  1  0  0  0  0
 32 60  1  0  0  0  0
 33 61  1  0  0  0  0
 33 62  1  0  0  0  0
 33 63  1  0  0  0  0
 34 64  1  0  0  0  0
 34 65  1  0  0  0  0
 34 66  1  0  0  0  0
 35 67  1  0  0  0  0
M  END
> <PUBCHEM_COMPOUND_CID>
25389544

> <PUBCHEM_CONFORMER_RMSD>
1

> <PUBCHEM_CONFORMER_DIVERSEORDER>
1
85
29
20
133
27
73
62
60
89
34
103
100
46
87
21
72
7
81
136
59
54
144
69
33
28
63
93
19
48
99
114
127
30
8
56
41
38
47
104
110
5
23
138
49
9
74
24
17
12
37
11
95
26
129
80
112
122
42
130
71
66
128
75
39
50
113
96
14
16
91
109
67
121
31
53
4
132
51
10
108
143
139
22
83
18
57
142
64
55
45
79
102
52
35
94
88
25
116
2
15
86
123
92
44
43
126
141
135
32
125
140
105
58
124
78
117
145
119
115
40
131
6
76
101
36
13
111
97
134
68
107
3
61
84
98
70
106
118
90
82
120
137
77
65

> <PUBCHEM_MMFF94_PARTIAL_CHARGES>
42
1 -0.43
10 0.18
11 0.27
14 0.27
15 0.27
16 -0.33
17 0.28
18 -0.15
19 0.23
2 -0.57
20 0.26
21 0.05
22 0.78
23 -0.15
24 -0.15
25 0.08
26 -0.15
27 0.12
28 0.08
29 -0.15
3 -0.36
30 -0.15
31 -0.15
32 -0.15
33 0.28
34 0.28
35 -0.15
4 -0.36
49 0.15
5 -0.81
53 0.15
54 0.15
55 0.37
56 0.15
57 0.15
58 0.15
59 0.15
6 0.31
60 0.15
67 0.15
7 -0.71
8 -0.55

> <PUBCHEM_EFFECTIVE_ROTOR_COUNT>
10.2

> <PUBCHEM_PHARMACOPHORE_FEATURES>
10
1 2 acceptor
1 3 acceptor
1 4 acceptor
1 5 cation
1 7 acceptor
1 8 donor
5 6 7 16 18 19 rings
6 21 23 24 25 26 28 rings
6 27 29 30 31 32 35 rings
8 5 9 10 11 12 13 14 15 rings

> <PUBCHEM_HEAVY_ATOM_COUNT>
35

> <PUBCHEM_ATOM_DEF_STEREO_COUNT>
3

> <PUBCHEM_ATOM_UDEF_STEREO_COUNT>
0

> <PUBCHEM_BOND_DEF_STEREO_COUNT>
0

> <PUBCHEM_BOND_UDEF_STEREO_COUNT>
0

> <PUBCHEM_ISOTOPIC_ATOM_COUNT>
0

> <PUBCHEM_COMPONENT_COUNT>
1

> <PUBCHEM_CACTVS_TAUTO_COUNT>
2

> <PUBCHEM_CONFORMER_ID>
018369E800000001

> <PUBCHEM_MMFF94_ENERGY>
114.4021

> <PUBCHEM_FEATURE_SELFOVERLAP>
50.752

> <PUBCHEM_SHAPE_FINGERPRINT>
10290309 65 17473266470254473364
10319688 45 18337390414335684436
10462674 296 18410854382308356578
10622 236 18338799017468627533
10677394 353 18339373951082711035
10928967 22 18188205386691500960
11069576 57 17904479954450095373
11285246 1 18187365475450224507
11455722 242 18409730652604794758
117089 54 18411987996087427470
11756154 67 18410016494175368215
11763389 116 17832704569844109549
12107183 9 18341063990553957217
12677640 9 18343023255860713329
12969540 37 18193835075157646164
14040221 299 17982738467988470574
14117953 113 18266169548962641661
14444916 359 17547863953586439544
14866123 147 18341054008854691249
15001296 14 18336820889198653714
15264996 154 17903083570509334430
15320291 9 17979347887128998734
15320294 125 17754452349070756322
15320467 1 18050850219394498934
15400415 2 17257368549928684460
15538507 19 18194679260455319754
15803439 3 16958135411444798244
15911013 46 18341047522789825912
15927050 60 17259898521177567293
16628084 112 18122620815955968495
17492 89 18339924943081957153
19246450 95 17982189833309467737
19301676 85 18410003330755149631
19311894 1 18337951190687455578
2835820 82 18122062268043922999
2835820 90 17413890742960328574
32027 91 18411973694051715797
3383291 50 18123748656444321225
3534868 343 17832993015911522437
3886686 26 18342461396370406665
4017518 198 17687743835603958925
404807 14 18410295839402818187
4394409 98 17900538978295503989
4435113 14 17486503594680925302
484985 159 18120370952101869348
508706 21 18197494022411022302
56633871 153 18411427198059645713
6201320 221 17624113298920861135
6441014 3 18410852136230683034
70251023 43 18192432102667377273
7970288 3 18410009923176040062

> <PUBCHEM_SHAPE_MULTIPOLES>
676.88
15.06
10.35
1.21
21.48
1.61
-0.03
-26.84
1.15
-7.69
-1.83
0.92
0.82
-1.37

> <PUBCHEM_SHAPE_SELFOVERLAP>
1465.644

> <PUBCHEM_SHAPE_VOLUME>
368.2

> <PUBCHEM_COORDINATE_TYPE>
2
5
10

$$$$
