75536676
  -OEChem-12032416343D

 48 50  0     1  0  0  0  0  0999 V2000
    3.8611    1.6234   -0.1211 S   0  0  0  0  0  0  0  0  0  0  0  0
   -0.4378    0.6931   -1.3549 O   0  0  0  0  0  0  0  0  0  0  0  0
   -1.1541    0.5454    2.1622 O   0  0  0  0  0  0  0  0  0  0  0  0
   -7.4729   -0.2734    0.0936 O   0  0  0  0  0  0  0  0  0  0  0  0
    3.8280    2.1822    1.2170 O   0  0  0  0  0  0  0  0  0  0  0  0
    4.5592    2.3192   -1.1850 O   0  0  0  0  0  0  0  0  0  0  0  0
   -3.3121   -0.7905    0.3089 N   0  0  0  0  0  0  0  0  0  0  0  0
    2.2734    1.2848   -0.6298 N   0  0  0  0  0  0  0  0  0  0  0  0
   -2.3061    0.2225    0.0341 C   0  0  1  0  0  0  0  0  0  0  0  0
   -1.0332    0.0517    0.8423 C   0  0  1  0  0  0  0  0  0  0  0  0
   -0.0500    0.8713    0.0176 C   0  0  1  0  0  0  0  0  0  0  0  0
   -4.6141   -0.3967   -0.2238 C   0  0  0  0  0  0  0  0  0  0  0  0
   -1.7714    0.1552   -1.3870 C   0  0  0  0  0  0  0  0  0  0  0  0
   -5.2956    0.6284    0.6880 C   0  0  0  0  0  0  0  0  0  0  0  0
   -5.5128   -1.6247   -0.3954 C   0  0  0  0  0  0  0  0  0  0  0  0
    1.3942    0.4409    0.2029 C   0  0  0  0  0  0  0  0  0  0  0  0
   -6.7053    0.9265    0.1893 C   0  0  0  0  0  0  0  0  0  0  0  0
   -6.9105   -1.2016   -0.8339 C   0  0  0  0  0  0  0  0  0  0  0  0
    4.5611    0.0034   -0.0177 C   0  0  0  0  0  0  0  0  0  0  0  0
    5.1896   -0.5567   -1.1297 C   0  0  0  0  0  0  0  0  0  0  0  0
    4.4814   -0.7160    1.1745 C   0  0  0  0  0  0  0  0  0  0  0  0
    5.7386   -1.8366   -1.0496 C   0  0  0  0  0  0  0  0  0  0  0  0
    5.0302   -1.9957    1.2548 C   0  0  0  0  0  0  0  0  0  0  0  0
    5.6589   -2.5562    0.1427 C   0  0  0  0  0  0  0  0  0  0  0  0
   -2.6880    1.2304    0.2381 H   0  0  0  0  0  0  0  0  0  0  0  0
   -0.7311   -1.0022    0.8852 H   0  0  0  0  0  0  0  0  0  0  0  0
   -0.1431    1.9410    0.2479 H   0  0  0  0  0  0  0  0  0  0  0  0
   -4.4963    0.0449   -1.2224 H   0  0  0  0  0  0  0  0  0  0  0  0
   -1.6949   -0.8746   -1.7549 H   0  0  0  0  0  0  0  0  0  0  0  0
   -2.3744    0.7305   -2.0958 H   0  0  0  0  0  0  0  0  0  0  0  0
   -3.3841   -0.9492    1.3135 H   0  0  0  0  0  0  0  0  0  0  0  0
   -4.7357    1.5669    0.7449 H   0  0  0  0  0  0  0  0  0  0  0  0
   -5.3639    0.2236    1.7065 H   0  0  0  0  0  0  0  0  0  0  0  0
   -5.5897   -2.1574    0.5617 H   0  0  0  0  0  0  0  0  0  0  0  0
   -5.0853   -2.3202   -1.1269 H   0  0  0  0  0  0  0  0  0  0  0  0
    1.5254   -0.5975   -0.1211 H   0  0  0  0  0  0  0  0  0  0  0  0
    1.6679    0.5243    1.2590 H   0  0  0  0  0  0  0  0  0  0  0  0
   -6.6865    1.4268   -0.7861 H   0  0  0  0  0  0  0  0  0  0  0  0
   -7.2156    1.5924    0.8925 H   0  0  0  0  0  0  0  0  0  0  0  0
   -7.5687   -2.0755   -0.8712 H   0  0  0  0  0  0  0  0  0  0  0  0
   -6.8970   -0.7546   -1.8349 H   0  0  0  0  0  0  0  0  0  0  0  0
   -1.4237    1.4783    2.1165 H   0  0  0  0  0  0  0  0  0  0  0  0
    2.0737    1.2783   -1.6379 H   0  0  0  0  0  0  0  0  0  0  0  0
    5.2562   -0.0177   -2.0705 H   0  0  0  0  0  0  0  0  0  0  0  0
    3.9940   -0.3007    2.0519 H   0  0  0  0  0  0  0  0  0  0  0  0
    6.2264   -2.2738   -1.9159 H   0  0  0  0  0  0  0  0  0  0  0  0
    4.9674   -2.5565    2.1828 H   0  0  0  0  0  0  0  0  0  0  0  0
    6.0857   -3.5529    0.2051 H   0  0  0  0  0  0  0  0  0  0  0  0
  1  5  2  0  0  0  0
  1  6  2  0  0  0  0
  1  8  1  0  0  0  0
  1 19  1  0  0  0  0
  2 11  1  0  0  0  0
  2 13  1  0  0  0  0
  3 10  1  0  0  0  0
  3 42  1  0  0  0  0
  4 17  1  0  0  0  0
  4 18  1  0  0  0  0
  7  9  1  0  0  0  0
  7 12  1  0  0  0  0
  7 31  1  0  0  0  0
  8 16  1  0  0  0  0
  8 43  1  0  0  0  0
  9 10  1  0  0  0  0
  9 13  1  0  0  0  0
  9 25  1  0  0  0  0
 10 11  1  0  0  0  0
 10 26  1  0  0  0  0
 11 16  1  0  0  0  0
 11 27  1  0  0  0  0
 12 14  1  0  0  0  0
 12 15  1  0  0  0  0
 12 28  1  0  0  0  0
 13 29  1  0  0  0  0
 13 30  1  0  0  0  0
 14 17  1  0  0  0  0
 14 32  1  0  0  0  0
 14 33  1  0  0  0  0
 15 18  1  0  0  0  0
 15 34  1  0  0  0  0
 15 35  1  0  0  0  0
 16 36  1  0  0  0  0
 16 37  1  0  0  0  0
 17 38  1  0  0  0  0
 17 39  1  0  0  0  0
 18 40  1  0  0  0  0
 18 41  1  0  0  0  0
 19 20  2  0  0  0  0
 19 21  1  0  0  0  0
 20 22  1  0  0  0  0
 20 44  1  0  0  0  0
 21 23  2  0  0  0  0
 21 45  1  0  0  0  0
 22 24  2  0  0  0  0
 22 46  1  0  0  0  0
 23 24  1  0  0  0  0
 23 47  1  0  0  0  0
 24 48  1  0  0  0  0
M  END
> <PUBCHEM_COMPOUND_CID>
75536676

> <PUBCHEM_CONFORMER_RMSD>
0.8

> <PUBCHEM_CONFORMER_DIVERSEORDER>
1
137
26
194
27
35
283
205
251
273
230
274
136
21
282
264
133
119
42
121
193
10
173
34
91
190
212
86
11
69
23
153
148
176
158
15
14
117
232
106
260
225
107
128
59
254
211
275
63
180
188
177
269
277
112
172
41
145
187
197
192
84
130
89
90
231
167
243
74
249
31
186
203
240
62
164
178
199
149
20
174
8
286
215
97
61
287
104
140
126
138
159
207
179
268
281
28
48
132
100
239
236
147
248
189
118
124
13
276
258
218
234
170
169
160
29
266
219
131
263
94
284
223
150
98
83
53
154
3
245
71
175
214
238
57
51
220
259
201
24
139
246
19
32
36
280
87
191
255
127
156
38
208
155
257
43
261
78
237
75
288
242
16
33
17
285
168
9
144
141
44
125
195
54
224
256
58
272
229
183
22
233
81
181
253
92
93
72
49
198
88
142
85
4
102
56
216
222
60
204
25
151
279
96
210
114
250
227
79
6
30
235
115
18
171
122
244
265
66
101
196
39
241
228
80
202
64
120
113
271
213
12
108
165
77
163
76
95
45
278
184
52
206
162
116
105
185
267
5
46
134
67
82
270
226
65
161
200
217
129
73
157
103
40
152
37
110
123
55
135
50
2
221
7
262
209
47
146
182
252
109
143
247
68
166
111
70
99

> <PUBCHEM_MMFF94_PARTIAL_CHARGES>
30
1 1.45
10 0.28
11 0.28
12 0.27
13 0.28
16 0.36
17 0.28
18 0.28
19 -0.01
2 -0.56
20 -0.15
21 -0.15
22 -0.15
23 -0.15
24 -0.15
3 -0.68
31 0.36
4 -0.56
42 0.4
43 0.42
44 0.15
45 0.15
46 0.15
47 0.15
48 0.15
5 -0.65
6 -0.65
7 -0.9
8 -0.91
9 0.27

> <PUBCHEM_EFFECTIVE_ROTOR_COUNT>
8.2

> <PUBCHEM_PHARMACOPHORE_FEATURES>
12
1 2 acceptor
1 3 acceptor
1 3 donor
1 4 acceptor
1 5 acceptor
1 6 acceptor
1 7 cation
1 7 donor
1 8 donor
5 2 9 10 11 13 rings
6 19 20 21 22 23 24 rings
6 4 12 14 15 17 18 rings

> <PUBCHEM_HEAVY_ATOM_COUNT>
24

> <PUBCHEM_ATOM_DEF_STEREO_COUNT>
3

> <PUBCHEM_ATOM_UDEF_STEREO_COUNT>
0

> <PUBCHEM_BOND_DEF_STEREO_COUNT>
0

> <PUBCHEM_BOND_UDEF_STEREO_COUNT>
0

> <PUBCHEM_ISOTOPIC_ATOM_COUNT>
0

> <PUBCHEM_COMPONENT_COUNT>
1

> <PUBCHEM_CACTVS_TAUTO_COUNT>
1

> <PUBCHEM_CONFORMER_ID>
0480992400000001

> <PUBCHEM_MMFF94_ENERGY>
35.0371

> <PUBCHEM_FEATURE_SELFOVERLAP>
60.916

> <PUBCHEM_SHAPE_FINGERPRINT>
10 15 15482382127350579123
10670039 82 14490746802849662486
10906281 52 13551464805866721061
11719270 70 17561366166997316407
11724838 91 10519695675194133160
11796584 16 18343305906751244494
12166972 35 18411703188126326969
12236239 1 18342739633067674681
125118 31 10303826379928618891
12616971 3 17846206769895298108
13533116 47 18412826897810176112
1361 2 18260547835840451034
13617811 41 15430036556311152239
13782708 43 18413102888298467495
13914758 101 18341333297787987281
14211702 104 18263086677103992083
14251752 14 18271806796649433529
14251764 75 11166780301761297602
14347332 77 18187640250251656629
14347424 109 18201433679804880128
15183329 4 18334013882835282771
15188451 53 17846496985589625514
15419008 42 17699851718216082933
15475509 8 17240766147033081853
17844677 252 18113898247328894460
20028762 73 18273495650499593510
20567600 234 12535339116984694899
20645477 70 18333449846745590164
21150785 3 13334744526632787319
21344244 78 17703498931803799080
21521721 280 9655576335972693141
21641784 216 14707197786842697159
21792934 111 15195295179515883763
220451 1 18341337794175335589
22061861 79 18186796980831244815
221357 26 17821729408221367884
2215653 11 17603871095798104042
23081809 10 18271811250377642581
23522609 53 18117870752802022180
23536379 177 18411701002388269665
23559900 14 16878237436596573172
23569943 247 17823410496912776835
29717793 49 18410014338275839324
3004659 81 18341897394059644558
3014965 18 18335137579149524567
3472631 163 11891630017909143290
34797466 226 12973890281821185546
3886686 26 16265200077001933214
394071 54 17095811035074166900
397830 11 13038609825845217519
4072396 5 16845574214215343277
4073 2 18116436036319393610
4340502 62 13326854426691327524
465052 167 18342740698309501670
5372103 7 14925099096711348638
59682541 52 17894907412596859203
59755656 215 17095518470523026251
960060 61 17676496038505929366
9965369 4 18342177748445458489

> <PUBCHEM_SHAPE_MULTIPOLES>
458.45
20.27
2.11
1.34
19.83
0.18
0.18
8.23
-1.35
-3.72
-0.05
-0.87
-0.07
-1.01

> <PUBCHEM_SHAPE_SELFOVERLAP>
938.816

> <PUBCHEM_SHAPE_VOLUME>
264.7

> <PUBCHEM_COORDINATE_TYPE>
2
5
10

$$$$
