11943564
  -OEChem-12032416153D

 47 49  0     1  0  0  0  0  0999 V2000
   -6.4166   -0.2434    0.8130 O   0  0  0  0  0  0  0  0  0  0  0  0
    3.4329    1.4607   -0.4338 N   0  0  2  0  0  0  0  0  0  0  0  0
   -0.2742    0.7310   -0.3701 N   0  0  0  0  0  0  0  0  0  0  0  0
    3.6817   -0.4308    1.3338 C   0  0  2  0  0  0  0  0  0  0  0  0
    2.1005    1.1120    0.1289 C   0  0  2  0  0  0  0  0  0  0  0  0
    4.3591   -0.8330    0.0024 C   0  0  2  0  0  0  0  0  0  0  0  0
    2.1975   -0.1137    1.0641 C   0  0  0  0  0  0  0  0  0  0  0  0
    4.3535    0.8703    1.8103 C   0  0  0  0  0  0  0  0  0  0  0  0
    4.0629    0.2653   -1.0467 C   0  0  0  0  0  0  0  0  0  0  0  0
    4.2960    1.9151    0.6829 C   0  0  0  0  0  0  0  0  0  0  0  0
    1.0422    0.9149   -0.9586 C   0  0  0  0  0  0  0  0  0  0  0  0
    3.9419   -2.1903   -0.4778 C   0  0  0  0  0  0  0  0  0  0  0  0
    4.7839   -3.2148   -0.6502 C   0  0  0  0  0  0  0  0  0  0  0  0
   -1.2856    0.5325   -1.4009 C   0  0  0  0  0  0  0  0  0  0  0  0
   -2.6550    0.3254   -0.8104 C   0  0  0  0  0  0  0  0  0  0  0  0
   -3.4725    1.4227   -0.5795 C   0  0  0  0  0  0  0  0  0  0  0  0
   -3.0795   -0.9599   -0.5051 C   0  0  0  0  0  0  0  0  0  0  0  0
   -4.7409    1.2305   -0.0316 C   0  0  0  0  0  0  0  0  0  0  0  0
   -4.3479   -1.1521    0.0426 C   0  0  0  0  0  0  0  0  0  0  0  0
   -5.1786   -0.0569    0.2794 C   0  0  0  0  0  0  0  0  0  0  0  0
   -6.8013   -1.5855    1.1075 C   0  0  0  0  0  0  0  0  0  0  0  0
    3.7797   -1.2160    2.0916 H   0  0  0  0  0  0  0  0  0  0  0  0
    1.7692    1.9733    0.7286 H   0  0  0  0  0  0  0  0  0  0  0  0
    5.4451   -0.8439    0.1767 H   0  0  0  0  0  0  0  0  0  0  0  0
    1.6897   -0.9917    0.6512 H   0  0  0  0  0  0  0  0  0  0  0  0
    1.6984    0.1173    2.0139 H   0  0  0  0  0  0  0  0  0  0  0  0
    5.3964    0.6811    2.0898 H   0  0  0  0  0  0  0  0  0  0  0  0
    3.8415    1.2501    2.7028 H   0  0  0  0  0  0  0  0  0  0  0  0
    5.0056    0.5695   -1.5216 H   0  0  0  0  0  0  0  0  0  0  0  0
    3.4483   -0.1066   -1.8747 H   0  0  0  0  0  0  0  0  0  0  0  0
    3.9265    2.8700    1.0771 H   0  0  0  0  0  0  0  0  0  0  0  0
    5.3064    2.1249    0.3096 H   0  0  0  0  0  0  0  0  0  0  0  0
    1.2864    0.0425   -1.5755 H   0  0  0  0  0  0  0  0  0  0  0  0
    1.0356    1.7928   -1.6176 H   0  0  0  0  0  0  0  0  0  0  0  0
    2.8947   -2.3507   -0.7209 H   0  0  0  0  0  0  0  0  0  0  0  0
   -0.5122    1.5482    0.1918 H   0  0  0  0  0  0  0  0  0  0  0  0
    4.4193   -4.1704   -1.0108 H   0  0  0  0  0  0  0  0  0  0  0  0
    5.8431   -3.1225   -0.4371 H   0  0  0  0  0  0  0  0  0  0  0  0
   -1.0326   -0.3377   -2.0206 H   0  0  0  0  0  0  0  0  0  0  0  0
   -1.3151    1.3932   -2.0823 H   0  0  0  0  0  0  0  0  0  0  0  0
   -3.1406    2.4296   -0.8165 H   0  0  0  0  0  0  0  0  0  0  0  0
   -2.4389   -1.8191   -0.6840 H   0  0  0  0  0  0  0  0  0  0  0  0
   -5.3833    2.0875    0.1509 H   0  0  0  0  0  0  0  0  0  0  0  0
   -4.6244   -2.1779    0.2608 H   0  0  0  0  0  0  0  0  0  0  0  0
   -7.8129   -1.5477    1.5247 H   0  0  0  0  0  0  0  0  0  0  0  0
   -6.1562   -2.0302    1.8728 H   0  0  0  0  0  0  0  0  0  0  0  0
   -6.8522   -2.1977    0.2007 H   0  0  0  0  0  0  0  0  0  0  0  0
  1 20  1  0  0  0  0
  1 21  1  0  0  0  0
  2  5  1  0  0  0  0
  2  9  1  0  0  0  0
  2 10  1  0  0  0  0
  3 11  1  0  0  0  0
  3 14  1  0  0  0  0
  3 36  1  0  0  0  0
  4  6  1  0  0  0  0
  4  7  1  0  0  0  0
  4  8  1  0  0  0  0
  4 22  1  0  0  0  0
  5  7  1  0  0  0  0
  5 11  1  0  0  0  0
  5 23  1  0  0  0  0
  6  9  1  0  0  0  0
  6 12  1  0  0  0  0
  6 24  1  0  0  0  0
  7 25  1  0  0  0  0
  7 26  1  0  0  0  0
  8 10  1  0  0  0  0
  8 27  1  0  0  0  0
  8 28  1  0  0  0  0
  9 29  1  0  0  0  0
  9 30  1  0  0  0  0
 10 31  1  0  0  0  0
 10 32  1  0  0  0  0
 11 33  1  0  0  0  0
 11 34  1  0  0  0  0
 12 13  2  0  0  0  0
 12 35  1  0  0  0  0
 13 37  1  0  0  0  0
 13 38  1  0  0  0  0
 14 15  1  0  0  0  0
 14 39  1  0  0  0  0
 14 40  1  0  0  0  0
 15 16  2  0  0  0  0
 15 17  1  0  0  0  0
 16 18  1  0  0  0  0
 16 41  1  0  0  0  0
 17 19  2  0  0  0  0
 17 42  1  0  0  0  0
 18 20  2  0  0  0  0
 18 43  1  0  0  0  0
 19 20  1  0  0  0  0
 19 44  1  0  0  0  0
 21 45  1  0  0  0  0
 21 46  1  0  0  0  0
 21 47  1  0  0  0  0
M  END
> <PUBCHEM_COMPOUND_CID>
11943564

> <PUBCHEM_CONFORMER_RMSD>
0.8

> <PUBCHEM_CONFORMER_DIVERSEORDER>
1
2
9
12
6
8
16
15
5
10
13
11
3
17
14
7
4

> <PUBCHEM_MMFF94_PARTIAL_CHARGES>
26
1 -0.36
10 0.27
11 0.27
12 -0.29
13 -0.3
14 0.41
15 -0.14
16 -0.15
17 -0.15
18 -0.15
19 -0.15
2 -0.81
20 0.08
21 0.28
3 -0.9
35 0.15
36 0.36
37 0.15
38 0.15
41 0.15
42 0.15
43 0.15
44 0.15
5 0.27
6 0.14
9 0.27

> <PUBCHEM_EFFECTIVE_ROTOR_COUNT>
7.2

> <PUBCHEM_PHARMACOPHORE_FEATURES>
7
1 1 acceptor
1 13 hydrophobe
1 2 cation
1 3 cation
1 3 donor
6 15 16 17 18 19 20 rings
8 2 4 5 6 7 8 9 10 rings

> <PUBCHEM_HEAVY_ATOM_COUNT>
21

> <PUBCHEM_ATOM_DEF_STEREO_COUNT>
3

> <PUBCHEM_ATOM_UDEF_STEREO_COUNT>
0

> <PUBCHEM_BOND_DEF_STEREO_COUNT>
0

> <PUBCHEM_BOND_UDEF_STEREO_COUNT>
0

> <PUBCHEM_ISOTOPIC_ATOM_COUNT>
0

> <PUBCHEM_COMPONENT_COUNT>
1

> <PUBCHEM_CACTVS_TAUTO_COUNT>
1

> <PUBCHEM_CONFORMER_ID>
00B63E8C00000001

> <PUBCHEM_MMFF94_ENERGY>
58.9749

> <PUBCHEM_FEATURE_SELFOVERLAP>
35.52

> <PUBCHEM_SHAPE_FINGERPRINT>
10912923 1 16702006608874049037
11089746 13 10087643693450932356
11552529 35 17630598144911233783
12107183 9 17840595794618498465
12596602 18 18341898506746422737
12616971 3 16917060036558174381
12633257 1 15697988639585539736
12730499 353 18412546539920542712
12769317 202 11386951981763240382
12778500 126 17775010037616885226
12925494 130 18125157126887185921
13073987 5 18272934903636982953
13167823 11 18260265248435250133
13533116 47 18272936011548472138
13551218 46 18410576189182265951
13675066 3 18342447128008605021
13914758 101 18186792579581523341
13955234 65 18272081713305879544
14211702 104 17969512674799939947
14251740 57 18333455330701623446
14251764 30 18114747023066009094
14252887 29 18408878534538636356
14341114 176 18413392042386500865
14420673 8 18121786027993458335
14528608 73 9295287244327044713
15183329 4 12895358789879792947
15475509 84 17273975744920477528
16120349 189 10955469573071812230
17844677 252 18413111645304527025
1813 80 16950284000974012245
18222031 100 16660364787952426629
193927 3 17676215680020125529
20157964 124 8214140750632191466
20645477 70 18334012774944541630
21315759 148 18410013238843372225
21421861 104 16988557971257678918
21521721 280 18201714107743175720
220451 1 17989489657992037789
23559900 14 18410292471847264860
239999 70 18113616794527970720
268830 7 16199853042677374464
2767999 5 13542468648788021819
2838139 119 10591495958131871499
312425 54 18202006551496921035
341906 21 13038892352914686086
3421961 26 18271238314836280670
351380 3 17530962501593654163
46194498 28 18113340782881504254
465052 167 18271530797555793070
5104073 3 18130227060311175313
542803 24 16272209712800158277
57724786 102 16271924968952591328
5924683 9 17845079844209001871
8509985 295 15841548561552114514
8863177 126 18409732837493103238
960060 61 13840268086835439319

> <PUBCHEM_SHAPE_MULTIPOLES>
416.34
16.34
2.25
1.32
19.02
1.52
0.26
5.6
4.61
-2.87
-0.25
-0.67
-0.09
1.87

> <PUBCHEM_SHAPE_SELFOVERLAP>
870.114

> <PUBCHEM_SHAPE_VOLUME>
233.4

> <PUBCHEM_COORDINATE_TYPE>
2
5
10

$$$$
