45784328
  -OEChem-12032416243D

 37 39  0     1  0  0  0  0  0999 V2000
   -3.9012    0.2882    0.0849 N   0  0  1  0  0  0  0  0  0  0  0  0
    0.7823    1.2816    0.2770 N   0  0  0  0  0  0  0  0  0  0  0  0
    0.1634   -0.6776   -0.5704 N   0  0  0  0  0  0  0  0  0  0  0  0
    6.7197    0.3223    0.6267 N   0  0  0  0  0  0  0  0  0  0  0  0
   -1.6773    0.9987   -0.1355 C   0  0  2  0  0  0  0  0  0  0  0  0
   -2.5994    0.1378    0.7384 C   0  0  0  0  0  0  0  0  0  0  0  0
   -2.3692    1.0398   -1.5091 C   0  0  0  0  0  0  0  0  0  0  0  0
   -3.6188    0.1839   -1.3467 C   0  0  0  0  0  0  0  0  0  0  0  0
   -4.8656   -0.7055    0.5332 C   0  0  0  0  0  0  0  0  0  0  0  0
   -0.2512    0.4992   -0.1576 C   0  0  0  0  0  0  0  0  0  0  0  0
   -5.0803   -0.5625    2.0366 C   0  0  0  0  0  0  0  0  0  0  0  0
   -6.1801   -0.5471   -0.2257 C   0  0  0  0  0  0  0  0  0  0  0  0
    1.9407    0.5617    0.1355 C   0  0  0  0  0  0  0  0  0  0  0  0
    1.5280   -0.6572   -0.3952 C   0  0  0  0  0  0  0  0  0  0  0  0
    3.2736    0.8630    0.4174 C   0  0  0  0  0  0  0  0  0  0  0  0
    2.4884   -1.6461   -0.6671 C   0  0  0  0  0  0  0  0  0  0  0  0
    4.2162   -0.1328    0.1407 C   0  0  0  0  0  0  0  0  0  0  0  0
    3.8327   -1.3657   -0.3920 C   0  0  0  0  0  0  0  0  0  0  0  0
    5.5982    0.1184    0.4090 C   0  0  0  0  0  0  0  0  0  0  0  0
   -1.6807    2.0239    0.2628 H   0  0  0  0  0  0  0  0  0  0  0  0
   -2.5972    0.5167    1.7661 H   0  0  0  0  0  0  0  0  0  0  0  0
   -2.2700   -0.9097    0.7529 H   0  0  0  0  0  0  0  0  0  0  0  0
   -2.6483    2.0745   -1.7449 H   0  0  0  0  0  0  0  0  0  0  0  0
   -1.7381    0.6722   -2.3252 H   0  0  0  0  0  0  0  0  0  0  0  0
   -3.4022   -0.8490   -1.6483 H   0  0  0  0  0  0  0  0  0  0  0  0
   -4.4256    0.5757   -1.9738 H   0  0  0  0  0  0  0  0  0  0  0  0
   -4.4940   -1.7220    0.3438 H   0  0  0  0  0  0  0  0  0  0  0  0
   -5.8910   -1.2201    2.3710 H   0  0  0  0  0  0  0  0  0  0  0  0
   -4.1939   -0.8461    2.6132 H   0  0  0  0  0  0  0  0  0  0  0  0
   -5.3578    0.4621    2.3100 H   0  0  0  0  0  0  0  0  0  0  0  0
   -6.9459   -1.2104    0.1927 H   0  0  0  0  0  0  0  0  0  0  0  0
   -6.0833   -0.8120   -1.2836 H   0  0  0  0  0  0  0  0  0  0  0  0
   -6.5633    0.4777   -0.1594 H   0  0  0  0  0  0  0  0  0  0  0  0
    0.7096    2.2233    0.6390 H   0  0  0  0  0  0  0  0  0  0  0  0
    3.5554    1.8258    0.8312 H   0  0  0  0  0  0  0  0  0  0  0  0
    2.2003   -2.6072   -1.0810 H   0  0  0  0  0  0  0  0  0  0  0  0
    4.5770   -2.1314   -0.6026 H   0  0  0  0  0  0  0  0  0  0  0  0
  1  6  1  0  0  0  0
  1  8  1  0  0  0  0
  1  9  1  0  0  0  0
  2 10  1  0  0  0  0
  2 13  1  0  0  0  0
  2 34  1  0  0  0  0
  3 10  2  0  0  0  0
  3 14  1  0  0  0  0
  4 19  3  0  0  0  0
  5  6  1  0  0  0  0
  5  7  1  0  0  0  0
  5 10  1  0  0  0  0
  5 20  1  0  0  0  0
  6 21  1  0  0  0  0
  6 22  1  0  0  0  0
  7  8  1  0  0  0  0
  7 23  1  0  0  0  0
  7 24  1  0  0  0  0
  8 25  1  0  0  0  0
  8 26  1  0  0  0  0
  9 11  1  0  0  0  0
  9 12  1  0  0  0  0
  9 27  1  0  0  0  0
 11 28  1  0  0  0  0
 11 29  1  0  0  0  0
 11 30  1  0  0  0  0
 12 31  1  0  0  0  0
 12 32  1  0  0  0  0
 12 33  1  0  0  0  0
 13 14  2  0  0  0  0
 13 15  1  0  0  0  0
 14 16  1  0  0  0  0
 15 17  2  0  0  0  0
 15 35  1  0  0  0  0
 16 18  2  0  0  0  0
 16 36  1  0  0  0  0
 17 18  1  0  0  0  0
 17 19  1  0  0  0  0
 18 37  1  0  0  0  0
M  END
> <PUBCHEM_COMPOUND_CID>
45784328

> <PUBCHEM_CONFORMER_RMSD>
0.6

> <PUBCHEM_CONFORMER_DIVERSEORDER>
1
15
9
10
18
21
14
17
5
19
2
16
7
20
13
11
8
4
6
12
3

> <PUBCHEM_MMFF94_PARTIAL_CHARGES>
20
1 -0.81
10 0.01
13 -0.15
14 0.23
15 -0.15
16 -0.15
17 0.07
18 -0.15
19 0.48
2 0.03
3 -0.57
34 0.27
35 0.15
36 0.15
37 0.15
4 -0.56
5 0.18
6 0.27
8 0.27
9 0.27

> <PUBCHEM_EFFECTIVE_ROTOR_COUNT>
3

> <PUBCHEM_PHARMACOPHORE_FEATURES>
8
1 1 cation
1 2 donor
1 4 acceptor
3 2 3 10 cation
3 9 11 12 hydrophobe
5 1 5 6 7 8 rings
5 2 3 10 13 14 rings
6 13 14 15 16 17 18 rings

> <PUBCHEM_HEAVY_ATOM_COUNT>
19

> <PUBCHEM_ATOM_DEF_STEREO_COUNT>
1

> <PUBCHEM_ATOM_UDEF_STEREO_COUNT>
0

> <PUBCHEM_BOND_DEF_STEREO_COUNT>
0

> <PUBCHEM_BOND_UDEF_STEREO_COUNT>
0

> <PUBCHEM_ISOTOPIC_ATOM_COUNT>
0

> <PUBCHEM_COMPONENT_COUNT>
1

> <PUBCHEM_CACTVS_TAUTO_COUNT>
2

> <PUBCHEM_CONFORMER_ID>
02BA9D0800000001

> <PUBCHEM_MMFF94_ENERGY>
27.0885

> <PUBCHEM_FEATURE_SELFOVERLAP>
40.703

> <PUBCHEM_SHAPE_FINGERPRINT>
10 15 18260540174293891960
10354089 29 17418375800806867746
106641 1 17917427674212911018
11287383 113 17894351094468367420
11315181 36 15864074268997105324
12107183 9 16696981626182212643
12236239 1 16774081760527110690
12596602 18 16917074347653461947
12670543 26 8718556016779681944
13073987 5 18340204081780984440
13288520 33 16877942750490448293
1420 363 18407762529951457662
14251718 22 17022903458412435760
14252887 29 18201727210580632790
14386348 63 18259988176032061515
14849402 71 17202473580496169280
15048467 5 13901906722174798480
15183329 4 11025789925208327937
17834072 8 8718827595967178018
17844677 252 18410015433535347533
1813 80 18130240288684197133
18785283 64 18264209295513324132
19141452 34 18409453626739318699
19489759 90 16370721517673228253
19784866 170 13901912202278910741
200 152 18201714042537820869
20281389 69 13901908903617563594
20374829 77 17385445440788076939
20645477 70 18270114604687779446
20681677 155 15195280941356341334
21054139 6 15140680310464867416
21065198 48 17060063597193844235
21150785 3 15719685299027752158
21267235 1 18130229255962622758
21503847 285 14333116490706647170
21623969 137 18412830183133421518
22224240 67 18131064965449387354
23035841 295 16702303447291473894
23402539 116 15936125266176152719
23557571 272 17749103362160927381
23559900 14 16371010775283946117
26918003 58 18411421722129090081
29717793 49 14562530657020274922
300161 21 16845567595728638733
3009799 131 10881398747172065006
314173 85 18041287603970021325
3545911 37 18343862221670835238
4340502 62 17894908530169201130
465052 167 18187081746427981474
474229 33 18259704510210865650
5104073 3 18199183984741123442
5283156 175 15430033249724137785
5758199 1 17560797762878118098
59682541 35 18341327902865757290
7495541 125 17822297919835846524

> <PUBCHEM_SHAPE_MULTIPOLES>
371.09
14.41
1.23
1.2
1.35
0.01
0
-3.61
2.55
-0.68
-0.1
-0.49
-0.19
1.51

> <PUBCHEM_SHAPE_SELFOVERLAP>
798.451

> <PUBCHEM_SHAPE_VOLUME>
204.5

> <PUBCHEM_COORDINATE_TYPE>
2
5
10

$$$$
