51136875
  -OEChem-12032416223D

 62 66  0     1  0  0  0  0  0999 V2000
   -3.8200    2.3207   -1.2594 O   0  0  0  0  0  0  0  0  0  0  0  0
    3.6316   -1.0589    1.5293 O   0  0  0  0  0  0  0  0  0  0  0  0
    9.7377   -0.7505    0.0002 O   0  0  0  0  0  0  0  0  0  0  0  0
   -5.5981   -0.0745    0.8871 N   0  0  1  0  0  0  0  0  0  0  0  0
   -2.8692    0.9361    0.2222 N   0  0  0  0  0  0  0  0  0  0  0  0
   -2.4447    2.3538   -1.5226 N   0  0  0  0  0  0  0  0  0  0  0  0
    1.7006    1.5933   -1.2974 N   0  0  0  0  0  0  0  0  0  0  0  0
    3.4991    0.4655   -0.2547 N   0  0  0  0  0  0  0  0  0  0  0  0
   -5.9041   -1.1270   -0.0796 C   0  0  0  0  0  0  0  0  0  0  0  0
   -5.4031    1.2497    0.2636 C   0  0  1  0  0  0  0  0  0  0  0  0
   -4.7601   -1.2534   -1.0917 C   0  0  0  0  0  0  0  0  0  0  0  0
   -6.1441   -2.4524    0.6517 C   0  0  0  0  0  0  0  0  0  0  0  0
   -6.6612    0.0880    1.8790 C   0  0  0  0  0  0  0  0  0  0  0  0
   -5.8199    2.2586    1.3498 C   0  0  0  0  0  0  0  0  0  0  0  0
   -6.2908    1.4093    2.5219 C   0  0  0  0  0  0  0  0  0  0  0  0
   -5.0095   -2.3968   -2.0737 C   0  0  0  0  0  0  0  0  0  0  0  0
   -6.3924   -3.5940   -0.3327 C   0  0  0  0  0  0  0  0  0  0  0  0
   -5.2609   -3.7164   -1.3494 C   0  0  0  0  0  0  0  0  0  0  0  0
   -3.9836    1.4629   -0.2184 C   0  0  0  0  0  0  0  0  0  0  0  0
   -1.9526    1.5123   -0.6085 C   0  0  0  0  0  0  0  0  0  0  0  0
   -0.5513    1.2268   -0.4976 C   0  0  0  0  0  0  0  0  0  0  0  0
   -0.0732    0.3466    0.4670 C   0  0  0  0  0  0  0  0  0  0  0  0
    0.3685    1.8188   -1.3480 C   0  0  0  0  0  0  0  0  0  0  0  0
    1.2907    0.0892    0.5503 C   0  0  0  0  0  0  0  0  0  0  0  0
    2.1281    0.7321   -0.3470 C   0  0  0  0  0  0  0  0  0  0  0  0
    4.1495   -0.3842    0.6458 C   0  0  0  0  0  0  0  0  0  0  0  0
    5.6228   -0.4811    0.4745 C   0  0  0  0  0  0  0  0  0  0  0  0
    6.2969   -1.6355    0.8730 C   0  0  0  0  0  0  0  0  0  0  0  0
    6.3316    0.5828   -0.0837 C   0  0  0  0  0  0  0  0  0  0  0  0
    7.6796   -1.7260    0.7137 C   0  0  0  0  0  0  0  0  0  0  0  0
    7.7143    0.4923   -0.2431 C   0  0  0  0  0  0  0  0  0  0  0  0
    8.3883   -0.6620    0.1556 C   0  0  0  0  0  0  0  0  0  0  0  0
   10.3996    0.3740   -0.5772 C   0  0  0  0  0  0  0  0  0  0  0  0
   -6.8218   -0.8727   -0.6300 H   0  0  0  0  0  0  0  0  0  0  0  0
   -6.0857    1.3812   -0.5881 H   0  0  0  0  0  0  0  0  0  0  0  0
   -3.8063   -1.4353   -0.5809 H   0  0  0  0  0  0  0  0  0  0  0  0
   -4.6618   -0.3596   -1.7127 H   0  0  0  0  0  0  0  0  0  0  0  0
   -7.0194   -2.4002    1.3085 H   0  0  0  0  0  0  0  0  0  0  0  0
   -5.2799   -2.7024    1.2814 H   0  0  0  0  0  0  0  0  0  0  0  0
   -6.6682   -0.7007    2.6372 H   0  0  0  0  0  0  0  0  0  0  0  0
   -7.6535    0.1573    1.4155 H   0  0  0  0  0  0  0  0  0  0  0  0
   -6.6525    2.8716    0.9835 H   0  0  0  0  0  0  0  0  0  0  0  0
   -5.0151    2.9349    1.6579 H   0  0  0  0  0  0  0  0  0  0  0  0
   -7.1299    1.8675    3.0536 H   0  0  0  0  0  0  0  0  0  0  0  0
   -5.4689    1.2716    3.2356 H   0  0  0  0  0  0  0  0  0  0  0  0
   -5.8757   -2.1565   -2.7029 H   0  0  0  0  0  0  0  0  0  0  0  0
   -4.1484   -2.5030   -2.7434 H   0  0  0  0  0  0  0  0  0  0  0  0
   -7.3394   -3.4229   -0.8595 H   0  0  0  0  0  0  0  0  0  0  0  0
   -6.4978   -4.5372    0.2154 H   0  0  0  0  0  0  0  0  0  0  0  0
   -5.5034   -4.4972   -2.0789 H   0  0  0  0  0  0  0  0  0  0  0  0
   -4.3434   -4.0311   -0.8371 H   0  0  0  0  0  0  0  0  0  0  0  0
   -0.7413   -0.1518    1.1649 H   0  0  0  0  0  0  0  0  0  0  0  0
    0.0777    2.5169   -2.1275 H   0  0  0  0  0  0  0  0  0  0  0  0
    1.5832   -0.6031    1.3222 H   0  0  0  0  0  0  0  0  0  0  0  0
    4.0408    0.9379   -0.9719 H   0  0  0  0  0  0  0  0  0  0  0  0
    5.7631   -2.4777    1.3053 H   0  0  0  0  0  0  0  0  0  0  0  0
    5.8549    1.5145   -0.3729 H   0  0  0  0  0  0  0  0  0  0  0  0
    8.1992   -2.6281    1.0250 H   0  0  0  0  0  0  0  0  0  0  0  0
    8.2042    1.3581   -0.6755 H   0  0  0  0  0  0  0  0  0  0  0  0
   10.0642    0.5551   -1.6040 H   0  0  0  0  0  0  0  0  0  0  0  0
   10.3047    1.2642    0.0538 H   0  0  0  0  0  0  0  0  0  0  0  0
   11.4659    0.1304   -0.6277 H   0  0  0  0  0  0  0  0  0  0  0  0
  1  6  1  0  0  0  0
  1 19  1  0  0  0  0
  2 26  2  0  0  0  0
  3 32  1  0  0  0  0
  3 33  1  0  0  0  0
  4  9  1  0  0  0  0
  4 10  1  0  0  0  0
  4 13  1  0  0  0  0
  5 19  2  0  0  0  0
  5 20  1  0  0  0  0
  6 20  2  0  0  0  0
  7 23  1  0  0  0  0
  7 25  2  0  0  0  0
  8 25  1  0  0  0  0
  8 26  1  0  0  0  0
  8 55  1  0  0  0  0
  9 11  1  0  0  0  0
  9 12  1  0  0  0  0
  9 34  1  0  0  0  0
 10 14  1  0  0  0  0
 10 19  1  0  0  0  0
 10 35  1  0  0  0  0
 11 16  1  0  0  0  0
 11 36  1  0  0  0  0
 11 37  1  0  0  0  0
 12 17  1  0  0  0  0
 12 38  1  0  0  0  0
 12 39  1  0  0  0  0
 13 15  1  0  0  0  0
 13 40  1  0  0  0  0
 13 41  1  0  0  0  0
 14 15  1  0  0  0  0
 14 42  1  0  0  0  0
 14 43  1  0  0  0  0
 15 44  1  0  0  0  0
 15 45  1  0  0  0  0
 16 18  1  0  0  0  0
 16 46  1  0  0  0  0
 16 47  1  0  0  0  0
 17 18  1  0  0  0  0
 17 48  1  0  0  0  0
 17 49  1  0  0  0  0
 18 50  1  0  0  0  0
 18 51  1  0  0  0  0
 20 21  1  0  0  0  0
 21 22  1  0  0  0  0
 21 23  2  0  0  0  0
 22 24  2  0  0  0  0
 22 52  1  0  0  0  0
 23 53  1  0  0  0  0
 24 25  1  0  0  0  0
 24 54  1  0  0  0  0
 26 27  1  0  0  0  0
 27 28  2  0  0  0  0
 27 29  1  0  0  0  0
 28 30  1  0  0  0  0
 28 56  1  0  0  0  0
 29 31  2  0  0  0  0
 29 57  1  0  0  0  0
 30 32  2  0  0  0  0
 30 58  1  0  0  0  0
 31 32  1  0  0  0  0
 31 59  1  0  0  0  0
 33 60  1  0  0  0  0
 33 61  1  0  0  0  0
 33 62  1  0  0  0  0
M  END
> <PUBCHEM_COMPOUND_CID>
51136875

> <PUBCHEM_CONFORMER_RMSD>
1

> <PUBCHEM_CONFORMER_DIVERSEORDER>
1
11
20
7
21
12
8
9
10
15
18
13
14
3
16
19
6
5
4
2
17

> <PUBCHEM_MMFF94_PARTIAL_CHARGES>
34
1 -0.02
10 0.45
13 0.27
19 0.3
2 -0.57
20 0.46
21 0.05
22 -0.15
23 0.16
24 -0.15
25 0.43
26 0.54
27 0.09
28 -0.15
29 -0.15
3 -0.36
30 -0.15
31 -0.15
32 0.08
33 0.28
4 -0.81
5 -0.57
52 0.15
53 0.15
54 0.15
55 0.37
56 0.15
57 0.15
58 0.15
59 0.15
6 -0.41
7 -0.62
8 -0.55
9 0.27

> <PUBCHEM_EFFECTIVE_ROTOR_COUNT>
9.2

> <PUBCHEM_PHARMACOPHORE_FEATURES>
10
1 2 acceptor
1 3 acceptor
1 4 cation
1 8 donor
3 5 6 20 cation
5 1 5 6 19 20 rings
5 4 10 13 14 15 rings
6 27 28 29 30 31 32 rings
6 7 21 22 23 24 25 rings
6 9 11 12 16 17 18 rings

> <PUBCHEM_HEAVY_ATOM_COUNT>
33

> <PUBCHEM_ATOM_DEF_STEREO_COUNT>
1

> <PUBCHEM_ATOM_UDEF_STEREO_COUNT>
0

> <PUBCHEM_BOND_DEF_STEREO_COUNT>
0

> <PUBCHEM_BOND_UDEF_STEREO_COUNT>
0

> <PUBCHEM_ISOTOPIC_ATOM_COUNT>
0

> <PUBCHEM_COMPONENT_COUNT>
1

> <PUBCHEM_CACTVS_TAUTO_COUNT>
14

> <PUBCHEM_CONFORMER_ID>
030C496B00000001

> <PUBCHEM_MMFF94_ENERGY>
82.5

> <PUBCHEM_FEATURE_SELFOVERLAP>
50.748

> <PUBCHEM_SHAPE_FINGERPRINT>
10 15 15482391967210363993
10299344 5 18410856551725029914
10462385 53 18186524280526013618
11103572 155 18201440212450754598
11181472 205 10735880612914873074
11497681 19 18260544546248527628
11607047 191 17774174375797001129
11621639 183 16557923212478837673
12104220 1 17988927743247561097
12106331 60 17458339732683190897
12522641 126 17823423876078924924
12539745 222 17703792561437983139
12559416 138 17967810574786350251
13782708 43 18410001152805531128
14040221 310 16732973228747132637
14142895 15 17967821574777206892
14344974 204 18058729238030861887
14671636 106 18337389439583576630
14856354 85 17988921163478930429
15021287 119 18041002856075328517
15183329 4 17822004328677467850
15289351 153 10087637075496997806
15320294 125 18341050813615684735
15352257 5 18201717340999351454
15444296 121 17489591139016139097
15461852 350 18408606959846366374
15728490 51 18335138700695190454
16989713 51 18409439306700935799
17324776 126 16983189270549442863
1754908 1 18130779063189427410
17780758 139 18202847652343593545
19315958 150 18127700336020820345
19611394 137 17132114675338948203
21362267 20 18412822483139008814
21792938 703 17823983539764744443
21795232 338 17845926446571384590
22164985 6 14923945631023397344
23522609 53 18192180219905605509
23523788 1 16915396605079955479
335507 130 18113624473697530388
3383291 50 17022914448938562825
397638 5 8502373305297868958
397830 11 17988348382123660560
437795 83 7853573517611810667
44389302 135 18266168450164015330
44802255 64 13190337976702747449
44880568 143 12685091445690295390
45377200 153 18273218604267089838
4625314 4 18409445865221731748
4760202 70 18192992849471660340
484985 159 18337660998103300215
5028188 123 18342461448183781652
5104073 3 17988080105771620737
54039377 194 18187085100803181891
58260988 114 18337112367449478431
6009941 240 17346321471102353665
636775 72 9511455632848164014
6691757 9 18059860537760367617
68570916 9 18341053016311382060
9953998 17 18202284693462627601
9962374 69 18040997376045367756
999808 66 17676213454963380953

> <PUBCHEM_SHAPE_MULTIPOLES>
636.61
30.38
3.15
1.61
64.02
2.48
-0.2
12.52
-5.88
-8.64
0.97
-2.84
-0.26
-3.49

> <PUBCHEM_SHAPE_SELFOVERLAP>
1379.047

> <PUBCHEM_SHAPE_VOLUME>
347.1

> <PUBCHEM_COORDINATE_TYPE>
2
5
10

$$$$
