75537133
  -OEChem-12032416313D

 50 53  0     1  0  0  0  0  0999 V2000
    2.7788    2.6820   -0.2901 O   0  0  0  0  0  0  0  0  0  0  0  0
    2.4810    0.3436   -0.2068 N   0  0  0  0  0  0  0  0  0  0  0  0
    0.6651    1.6581   -0.3450 N   0  0  0  0  0  0  0  0  0  0  0  0
   -2.0438    1.1956    0.2538 N   0  0  2  0  0  0  0  0  0  0  0  0
   -5.5613   -1.2666   -0.5517 N   0  0  0  0  0  0  0  0  0  0  0  0
   -5.1277   -2.1295    0.3831 N   0  0  0  0  0  0  0  0  0  0  0  0
    0.1455    0.3098   -0.4389 C   0  0  1  0  0  0  0  0  0  0  0  0
    3.8441   -0.1111   -0.0750 C   0  0  0  0  0  0  0  0  0  0  0  0
    1.3530   -0.5675   -0.1144 C   0  0  0  0  0  0  0  0  0  0  0  0
   -1.0477    0.1331    0.4995 C   0  0  0  0  0  0  0  0  0  0  0  0
    4.2462   -0.9586   -1.2844 C   0  0  0  0  0  0  0  0  0  0  0  0
    4.0339   -0.8824    1.2338 C   0  0  0  0  0  0  0  0  0  0  0  0
    2.0649    1.6879   -0.2858 C   0  0  0  0  0  0  0  0  0  0  0  0
   -0.2501    2.7775   -0.4235 C   0  0  0  0  0  0  0  0  0  0  0  0
   -1.4571    2.5311    0.4851 C   0  0  0  0  0  0  0  0  0  0  0  0
    5.6678   -1.4973   -1.1464 C   0  0  0  0  0  0  0  0  0  0  0  0
    5.4564   -1.4196    1.3683 C   0  0  0  0  0  0  0  0  0  0  0  0
    5.8558   -2.2625    0.1605 C   0  0  0  0  0  0  0  0  0  0  0  0
   -3.2171    1.0002    1.1051 C   0  0  0  0  0  0  0  0  0  0  0  0
   -4.1110   -0.0941    0.5853 C   0  0  0  0  0  0  0  0  0  0  0  0
   -4.9833   -0.0336   -0.4739 C   0  0  0  0  0  0  0  0  0  0  0  0
   -4.2419   -1.4077    1.0745 C   0  0  0  0  0  0  0  0  0  0  0  0
   -6.5516   -1.6884   -1.5129 C   0  0  0  0  0  0  0  0  0  0  0  0
   -0.1607    0.1570   -1.4823 H   0  0  0  0  0  0  0  0  0  0  0  0
    4.4909    0.7754   -0.0498 H   0  0  0  0  0  0  0  0  0  0  0  0
    1.2968   -0.9644    0.9037 H   0  0  0  0  0  0  0  0  0  0  0  0
    1.4501   -1.3921   -0.8250 H   0  0  0  0  0  0  0  0  0  0  0  0
   -1.4737   -0.8598    0.3175 H   0  0  0  0  0  0  0  0  0  0  0  0
   -0.7158    0.1624    1.5464 H   0  0  0  0  0  0  0  0  0  0  0  0
    4.1669   -0.3636   -2.2025 H   0  0  0  0  0  0  0  0  0  0  0  0
    3.5650   -1.8092   -1.4074 H   0  0  0  0  0  0  0  0  0  0  0  0
    3.8012   -0.2368    2.0893 H   0  0  0  0  0  0  0  0  0  0  0  0
    3.3466   -1.7354    1.2882 H   0  0  0  0  0  0  0  0  0  0  0  0
   -0.5666    2.8659   -1.4691 H   0  0  0  0  0  0  0  0  0  0  0  0
    0.2726    3.6989   -0.1481 H   0  0  0  0  0  0  0  0  0  0  0  0
   -1.1492    2.6303    1.5347 H   0  0  0  0  0  0  0  0  0  0  0  0
   -2.2000    3.3123    0.2846 H   0  0  0  0  0  0  0  0  0  0  0  0
    6.3789   -0.6629   -1.1860 H   0  0  0  0  0  0  0  0  0  0  0  0
    5.8980   -2.1527   -1.9939 H   0  0  0  0  0  0  0  0  0  0  0  0
    5.5393   -2.0206    2.2809 H   0  0  0  0  0  0  0  0  0  0  0  0
    6.1544   -0.5800    1.4744 H   0  0  0  0  0  0  0  0  0  0  0  0
    6.9018   -2.5742    0.2581 H   0  0  0  0  0  0  0  0  0  0  0  0
    5.2503   -3.1769    0.1378 H   0  0  0  0  0  0  0  0  0  0  0  0
   -3.8273    1.9141    1.1203 H   0  0  0  0  0  0  0  0  0  0  0  0
   -2.9368    0.8043    2.1484 H   0  0  0  0  0  0  0  0  0  0  0  0
   -5.2332    0.7643   -1.1600 H   0  0  0  0  0  0  0  0  0  0  0  0
   -3.7296   -1.8710    1.9057 H   0  0  0  0  0  0  0  0  0  0  0  0
   -6.7807   -0.8608   -2.1887 H   0  0  0  0  0  0  0  0  0  0  0  0
   -6.1450   -2.5306   -2.0785 H   0  0  0  0  0  0  0  0  0  0  0  0
   -7.4518   -1.9878   -0.9705 H   0  0  0  0  0  0  0  0  0  0  0  0
  1 13  2  0  0  0  0
  2  8  1  0  0  0  0
  2  9  1  0  0  0  0
  2 13  1  0  0  0  0
  3  7  1  0  0  0  0
  3 13  1  0  0  0  0
  3 14  1  0  0  0  0
  4 10  1  0  0  0  0
  4 15  1  0  0  0  0
  4 19  1  0  0  0  0
  5  6  1  0  0  0  0
  5 21  1  0  0  0  0
  5 23  1  0  0  0  0
  6 22  2  0  0  0  0
  7  9  1  0  0  0  0
  7 10  1  0  0  0  0
  7 24  1  0  0  0  0
  8 11  1  0  0  0  0
  8 12  1  0  0  0  0
  8 25  1  0  0  0  0
  9 26  1  0  0  0  0
  9 27  1  0  0  0  0
 10 28  1  0  0  0  0
 10 29  1  0  0  0  0
 11 16  1  0  0  0  0
 11 30  1  0  0  0  0
 11 31  1  0  0  0  0
 12 17  1  0  0  0  0
 12 32  1  0  0  0  0
 12 33  1  0  0  0  0
 14 15  1  0  0  0  0
 14 34  1  0  0  0  0
 14 35  1  0  0  0  0
 15 36  1  0  0  0  0
 15 37  1  0  0  0  0
 16 18  1  0  0  0  0
 16 38  1  0  0  0  0
 16 39  1  0  0  0  0
 17 18  1  0  0  0  0
 17 40  1  0  0  0  0
 17 41  1  0  0  0  0
 18 42  1  0  0  0  0
 18 43  1  0  0  0  0
 19 20  1  0  0  0  0
 19 44  1  0  0  0  0
 19 45  1  0  0  0  0
 20 21  2  0  0  0  0
 20 22  1  0  0  0  0
 21 46  1  0  0  0  0
 22 47  1  0  0  0  0
 23 48  1  0  0  0  0
 23 49  1  0  0  0  0
 23 50  1  0  0  0  0
M  END
> <PUBCHEM_COMPOUND_CID>
75537133

> <PUBCHEM_CONFORMER_RMSD>
0.8

> <PUBCHEM_CONFORMER_DIVERSEORDER>
1
17
41
39
50
30
79
51
72
69
82
63
15
38
54
76
35
66
74
20
55
52
8
70
47
58
14
19
57
22
13
23
61
31
44
12
43
11
56
34
6
48
67
36
18
65
77
26
75
32
7
73
10
28
16
80
68
9
71
21
37
24
40
5
49
53
78
4
62
33
25
27
2
81
45
59
42
64
60
3
46
29

> <PUBCHEM_MMFF94_PARTIAL_CHARGES>
20
1 -0.57
10 0.27
13 0.69
14 0.3
15 0.27
19 0.45
2 -0.66
20 -0.18
21 -0.3
22 0.14
23 0.26
3 -0.66
4 -0.81
46 0.15
47 0.15
5 0.31
6 -0.71
7 0.3
8 0.3
9 0.3

> <PUBCHEM_EFFECTIVE_ROTOR_COUNT>
5.4

> <PUBCHEM_PHARMACOPHORE_FEATURES>
7
1 1 acceptor
1 4 cation
1 6 acceptor
5 2 3 7 9 13 rings
5 5 6 20 21 22 rings
6 3 4 7 10 14 15 rings
6 8 11 12 16 17 18 rings

> <PUBCHEM_HEAVY_ATOM_COUNT>
23

> <PUBCHEM_ATOM_DEF_STEREO_COUNT>
1

> <PUBCHEM_ATOM_UDEF_STEREO_COUNT>
0

> <PUBCHEM_BOND_DEF_STEREO_COUNT>
0

> <PUBCHEM_BOND_UDEF_STEREO_COUNT>
0

> <PUBCHEM_ISOTOPIC_ATOM_COUNT>
0

> <PUBCHEM_COMPONENT_COUNT>
1

> <PUBCHEM_CACTVS_TAUTO_COUNT>
1

> <PUBCHEM_CONFORMER_ID>
04809AED00000001

> <PUBCHEM_MMFF94_ENERGY>
34.653

> <PUBCHEM_FEATURE_SELFOVERLAP>
35.618

> <PUBCHEM_SHAPE_FINGERPRINT>
10 15 12751239220774050215
10378564 45 12612750190942809418
10447042 23 18339639061653599269
10721379 63 7781255369836837704
10753850 27 18409446999266852731
11069576 57 16806435912994413202
11545043 162 17774720857600565056
11796584 16 17095514154027938897
12293681 160 12035449423976068204
12422481 6 17418097593862699519
12555020 224 18114180856820425947
12596602 18 17346597444078810946
12616971 3 18341908398077100201
12760667 363 18408886213713165499
12839892 36 18059856138495642143
12892183 10 16415204412379914936
13533116 47 18341330093119970200
13540713 5 18266764465862658057
13583140 156 15697437698455669353
13782708 43 17845939507641122678
13862211 1 18410854347816469934
13885169 86 10303517446756551675
14123256 34 18410303501086202570
14848178 5 18341893000197350555
15183329 4 15647328611434617163
15188451 53 17988917864764497507
15475509 35 15122692253190688036
15880784 105 17988647388840167482
17349148 13 18271537458749141435
17857418 61 18334013869713140674
18222031 100 18410293605750110128
18927931 339 18339933627780181723
193927 3 18340779186122672471
200 152 18411419531727612345
20028762 73 18273493476855673790
21033648 29 17058633085389864480
21267235 1 18409741659703471811
21401589 2 11167938061349679317
21756936 100 8574419920708421305
22224240 67 11095884883070712581
22393880 68 17749660883628997171
23402539 116 18410575050641041649
23402655 69 11025799816349432720
23522609 53 18050324472500978372
23559900 14 18187646963538812937
23622692 118 18410573967987951885
2838139 119 8069738551699252250
2916195 48 7997677680195069735
293599 30 8862941684257060515
3004659 81 18259703415125658111
3014063 24 18131063853422168719
312425 54 17274551923056814643
314194 84 18114474366179111354
465052 167 18411707590673104990
5104073 3 18271816743503846865
543368 44 7925907067825452643
559249 180 18412263905481945217
5718773 13 18129654331519496447
59682541 52 14346066487319244122
6034566 193 10303232699045909554
633830 44 9222963538590305153
76465 3 18408041801314702432
7808743 9 9727625090466602989
7970288 3 18336827498742261354
960060 61 16805324396626523474

> <PUBCHEM_SHAPE_MULTIPOLES>
442.55
15.7
2.79
1.21
4.2
1.4
-0.01
-14.98
1.7
0.19
0.21
-0.13
-0.48
-0.98

> <PUBCHEM_SHAPE_SELFOVERLAP>
930.865

> <PUBCHEM_SHAPE_VOLUME>
250.9

> <PUBCHEM_COORDINATE_TYPE>
2
5
10

$$$$
