26743120
  -OEChem-12032416193D

 68 71  0     1  0  0  0  0  0999 V2000
   -1.8105   -4.0972    0.2408 S   0  0  0  0  0  0  0  0  0  0  0  0
    1.1561    2.8672   -1.8767 O   0  0  0  0  0  0  0  0  0  0  0  0
    0.2251   -1.6554    1.2640 O   0  0  0  0  0  0  0  0  0  0  0  0
    2.7562   -2.2910   -1.9166 O   0  0  0  0  0  0  0  0  0  0  0  0
    3.5420   -3.1247    0.6158 O   0  0  0  0  0  0  0  0  0  0  0  0
   -3.5646    2.9623    0.7829 N   0  0  0  0  0  0  0  0  0  0  0  0
    2.7086    3.1094   -0.1645 N   0  0  0  0  0  0  0  0  0  0  0  0
    0.4663   -0.2913    1.1533 N   0  0  0  0  0  0  0  0  0  0  0  0
   -0.9131    3.8013   -0.1341 C   0  0  1  0  0  0  0  0  0  0  0  0
   -1.2526    2.3113    0.1114 C   0  0  2  0  0  0  0  0  0  0  0  0
   -1.8180    4.7176    0.7032 C   0  0  0  0  0  0  0  0  0  0  0  0
   -2.7648    2.0930   -0.0820 C   0  0  0  0  0  0  0  0  0  0  0  0
   -3.2943    4.3735    0.5093 C   0  0  0  0  0  0  0  0  0  0  0  0
   -0.7986    1.7894    1.4810 C   0  0  0  0  0  0  0  0  0  0  0  0
    0.5603    4.1343    0.0960 C   0  0  0  0  0  0  0  0  0  0  0  0
   -0.6884    0.2921    1.4869 C   0  0  0  0  0  0  0  0  0  0  0  0
    1.4784    3.3040   -0.7753 C   0  0  0  0  0  0  0  0  0  0  0  0
   -1.6844   -0.6442    1.8142 C   0  0  0  0  0  0  0  0  0  0  0  0
   -1.0589   -1.8529    1.6582 C   0  0  0  0  0  0  0  0  0  0  0  0
    3.7791    2.3509   -0.7699 C   0  0  0  0  0  0  0  0  0  0  0  0
   -1.4857   -3.2471    1.8262 C   0  0  0  0  0  0  0  0  0  0  0  0
    3.7134    0.8962   -0.4044 C   0  0  0  0  0  0  0  0  0  0  0  0
    3.2593   -0.0371   -1.3362 C   0  0  0  0  0  0  0  0  0  0  0  0
    4.1081    0.4776    0.8664 C   0  0  0  0  0  0  0  0  0  0  0  0
    3.1999   -1.3888   -0.9974 C   0  0  0  0  0  0  0  0  0  0  0  0
    4.0488   -0.8742    1.2053 C   0  0  0  0  0  0  0  0  0  0  0  0
    3.5946   -1.8073    0.2733 C   0  0  0  0  0  0  0  0  0  0  0  0
   -3.0213   -3.0053   -0.4907 C   0  0  0  0  0  0  0  0  0  0  0  0
   -4.2320   -2.7697    0.1605 C   0  0  0  0  0  0  0  0  0  0  0  0
   -2.7555   -2.3889   -1.7134 C   0  0  0  0  0  0  0  0  0  0  0  0
   -5.1772   -1.9176   -0.4110 C   0  0  0  0  0  0  0  0  0  0  0  0
   -3.7005   -1.5368   -2.2849 C   0  0  0  0  0  0  0  0  0  0  0  0
    2.3718   -1.7808   -3.1919 C   0  0  0  0  0  0  0  0  0  0  0  0
    3.9636   -3.4687    1.9343 C   0  0  0  0  0  0  0  0  0  0  0  0
   -4.9113   -1.3012   -1.6336 C   0  0  0  0  0  0  0  0  0  0  0  0
   -1.1397    4.0095   -1.1906 H   0  0  0  0  0  0  0  0  0  0  0  0
   -0.7540    1.7184   -0.6669 H   0  0  0  0  0  0  0  0  0  0  0  0
   -1.6523    5.7645    0.4218 H   0  0  0  0  0  0  0  0  0  0  0  0
   -1.5594    4.6321    1.7664 H   0  0  0  0  0  0  0  0  0  0  0  0
   -3.0324    2.2846   -1.1294 H   0  0  0  0  0  0  0  0  0  0  0  0
   -3.0472    1.0529    0.1027 H   0  0  0  0  0  0  0  0  0  0  0  0
   -3.9033    4.9884    1.1810 H   0  0  0  0  0  0  0  0  0  0  0  0
   -3.6103    4.6204   -0.5115 H   0  0  0  0  0  0  0  0  0  0  0  0
   -1.4593    2.1106    2.2929 H   0  0  0  0  0  0  0  0  0  0  0  0
    0.1923    2.1698    1.7469 H   0  0  0  0  0  0  0  0  0  0  0  0
    0.8328    4.0544    1.1531 H   0  0  0  0  0  0  0  0  0  0  0  0
    0.7400    5.1817   -0.1808 H   0  0  0  0  0  0  0  0  0  0  0  0
   -3.3664    2.7609    1.7612 H   0  0  0  0  0  0  0  0  0  0  0  0
   -2.7044   -0.4691    2.1229 H   0  0  0  0  0  0  0  0  0  0  0  0
    2.8789    3.5050    0.7555 H   0  0  0  0  0  0  0  0  0  0  0  0
    4.7265    2.7806   -0.4247 H   0  0  0  0  0  0  0  0  0  0  0  0
    3.7449    2.4862   -1.8571 H   0  0  0  0  0  0  0  0  0  0  0  0
   -0.7068   -3.8137    2.3479 H   0  0  0  0  0  0  0  0  0  0  0  0
   -2.3833   -3.3043    2.4508 H   0  0  0  0  0  0  0  0  0  0  0  0
    2.9635    0.3456   -2.3070 H   0  0  0  0  0  0  0  0  0  0  0  0
    4.4631    1.1968    1.6001 H   0  0  0  0  0  0  0  0  0  0  0  0
    4.3704   -1.1261    2.2098 H   0  0  0  0  0  0  0  0  0  0  0  0
   -4.4643   -3.2444    1.1104 H   0  0  0  0  0  0  0  0  0  0  0  0
   -1.8164   -2.5589   -2.2345 H   0  0  0  0  0  0  0  0  0  0  0  0
    2.0458   -2.6348   -3.7950 H   0  0  0  0  0  0  0  0  0  0  0  0
    3.2185   -1.3262   -3.7174 H   0  0  0  0  0  0  0  0  0  0  0  0
    1.5149   -1.1028   -3.1137 H   0  0  0  0  0  0  0  0  0  0  0  0
   -6.1204   -1.7346    0.0955 H   0  0  0  0  0  0  0  0  0  0  0  0
   -3.4930   -1.0555   -3.2360 H   0  0  0  0  0  0  0  0  0  0  0  0
    3.8556   -4.5538    2.0341 H   0  0  0  0  0  0  0  0  0  0  0  0
    3.3192   -3.0143    2.6947 H   0  0  0  0  0  0  0  0  0  0  0  0
    5.0226   -3.2386    2.0926 H   0  0  0  0  0  0  0  0  0  0  0  0
   -5.6466   -0.6370   -2.0782 H   0  0  0  0  0  0  0  0  0  0  0  0
  1 21  1  0  0  0  0
  1 28  1  0  0  0  0
  2 17  2  0  0  0  0
  3  8  1  0  0  0  0
  3 19  1  0  0  0  0
  4 25  1  0  0  0  0
  4 33  1  0  0  0  0
  5 27  1  0  0  0  0
  5 34  1  0  0  0  0
  6 12  1  0  0  0  0
  6 13  1  0  0  0  0
  6 48  1  0  0  0  0
  7 17  1  0  0  0  0
  7 20  1  0  0  0  0
  7 50  1  0  0  0  0
  8 16  2  0  0  0  0
  9 10  1  0  0  0  0
  9 11  1  0  0  0  0
  9 15  1  0  0  0  0
  9 36  1  0  0  0  0
 10 12  1  0  0  0  0
 10 14  1  0  0  0  0
 10 37  1  0  0  0  0
 11 13  1  0  0  0  0
 11 38  1  0  0  0  0
 11 39  1  0  0  0  0
 12 40  1  0  0  0  0
 12 41  1  0  0  0  0
 13 42  1  0  0  0  0
 13 43  1  0  0  0  0
 14 16  1  0  0  0  0
 14 44  1  0  0  0  0
 14 45  1  0  0  0  0
 15 17  1  0  0  0  0
 15 46  1  0  0  0  0
 15 47  1  0  0  0  0
 16 18  1  0  0  0  0
 18 19  2  0  0  0  0
 18 49  1  0  0  0  0
 19 21  1  0  0  0  0
 20 22  1  0  0  0  0
 20 51  1  0  0  0  0
 20 52  1  0  0  0  0
 21 53  1  0  0  0  0
 21 54  1  0  0  0  0
 22 23  2  0  0  0  0
 22 24  1  0  0  0  0
 23 25  1  0  0  0  0
 23 55  1  0  0  0  0
 24 26  2  0  0  0  0
 24 56  1  0  0  0  0
 25 27  2  0  0  0  0
 26 27  1  0  0  0  0
 26 57  1  0  0  0  0
 28 29  2  0  0  0  0
 28 30  1  0  0  0  0
 29 31  1  0  0  0  0
 29 58  1  0  0  0  0
 30 32  2  0  0  0  0
 30 59  1  0  0  0  0
 31 35  2  0  0  0  0
 31 63  1  0  0  0  0
 32 35  1  0  0  0  0
 32 64  1  0  0  0  0
 33 60  1  0  0  0  0
 33 61  1  0  0  0  0
 33 62  1  0  0  0  0
 34 65  1  0  0  0  0
 34 66  1  0  0  0  0
 34 67  1  0  0  0  0
 35 68  1  0  0  0  0
M  END
> <PUBCHEM_COMPOUND_CID>
26743120

> <PUBCHEM_CONFORMER_RMSD>
1.4

> <PUBCHEM_CONFORMER_DIVERSEORDER>
2
237
90
179
158
8
137
67
45
215
194
59
13
115
233
240
27
226
181
47
118
75
232
120
99
6
163
102
217
74
143
204
172
183
29
246
1
156
16
196
81
228
185
161
42
49
205
78
100
40
109
241
11
209
135
18
177
32
98
26
202
157
30
51
245
107
14
160
77
165
167
197
223
37
150
66
153
80
234
119
84
148
122
50
184
166
199
164
191
22
136
220
35
36
69
121
207
195
212
33
201
106
174
105
175
63
243
114
235
25
92
231
139
124
208
213
95
154
76
7
129
9
218
117
130
17
147
188
103
138
200
53
206
46
97
39
61
216
176
82
134
238
85
104
68
34
203
23
219
10
171
19
144
152
65
112
186
116
93
193
198
86
123
236
190
159
71
72
180
55
162
140
210
222
146
83
56
44
3
224
62
91
168
230
88
24
178
239
170
242
111
28
31
20
87
94
101
145
73
38
244
58
189
12
57
221
64
211
79
48
131
60
182
108
5
126
229
96
169
113
21
214
225
187
142
89
41
52
4
110
15
54
151
227
192
43
133
173
70
125
127
149
132
155
128
141

> <PUBCHEM_MMFF94_PARTIAL_CHARGES>
43
1 -0.33
12 0.27
13 0.27
14 0.18
15 0.06
16 0.11
17 0.57
18 -0.15
19 -0.04
2 -0.57
20 0.44
21 0.41
22 -0.14
23 -0.15
24 -0.15
25 0.08
26 -0.15
27 0.08
28 0.1
29 -0.15
3 -0.02
30 -0.15
31 -0.15
32 -0.15
33 0.28
34 0.28
35 -0.15
4 -0.36
48 0.36
49 0.15
5 -0.36
50 0.37
55 0.15
56 0.15
57 0.15
58 0.15
59 0.15
6 -0.9
63 0.15
64 0.15
68 0.15
7 -0.73
8 -0.41

> <PUBCHEM_EFFECTIVE_ROTOR_COUNT>
13.2

> <PUBCHEM_PHARMACOPHORE_FEATURES>
11
1 2 acceptor
1 4 acceptor
1 5 acceptor
1 6 cation
1 6 donor
1 7 donor
1 8 acceptor
5 3 8 16 18 19 rings
6 22 23 24 25 26 27 rings
6 28 29 30 31 32 35 rings
6 6 9 10 11 12 13 rings

> <PUBCHEM_HEAVY_ATOM_COUNT>
35

> <PUBCHEM_ATOM_DEF_STEREO_COUNT>
2

> <PUBCHEM_ATOM_UDEF_STEREO_COUNT>
0

> <PUBCHEM_BOND_DEF_STEREO_COUNT>
0

> <PUBCHEM_BOND_UDEF_STEREO_COUNT>
0

> <PUBCHEM_ISOTOPIC_ATOM_COUNT>
0

> <PUBCHEM_COMPONENT_COUNT>
1

> <PUBCHEM_CACTVS_TAUTO_COUNT>
2

> <PUBCHEM_CONFORMER_ID>
0198115000000002

> <PUBCHEM_MMFF94_ENERGY>
81.4675

> <PUBCHEM_FEATURE_SELFOVERLAP>
55.827

> <PUBCHEM_SHAPE_FINGERPRINT>
10675989 125 18262794202235202625
11513181 2 18339652126917486748
12160290 23 18126588737532706483
12422481 6 17914646941451867795
12788726 201 18411421721654622191
13642711 20 17975685409490581454
14251757 17 17823687762747150591
15484559 13 17402895519091555061
161222 10 18265341603131227181
17909252 39 18196927984349591785
20028762 73 17906169551365617001
20764821 26 18261963938070656114
21857420 4 17907817955787418909
26353 1 18200034074480215783
38695281 34 17547565977408090385
4066623 53 18192684909122606757
463206 1 17978517751411719769
5309563 4 17834968846326331737
54131252 126 16392078140118102613

> <PUBCHEM_SHAPE_MULTIPOLES>
685.71
9.15
7.24
2.23
1.44
6.28
0.95
-5.85
2.4
2.13
-1.26
-0.29
-1.79
-1.84

> <PUBCHEM_SHAPE_SELFOVERLAP>
1435.534

> <PUBCHEM_SHAPE_VOLUME>
389.8

> <PUBCHEM_COORDINATE_TYPE>
2
5
10

$$$$
