75536533
  -OEChem-12032416343D

 39 40  0     1  0  0  0  0  0999 V2000
   -0.1105    1.0391   -0.5635 O   0  0  0  0  0  0  0  0  0  0  0  0
   -1.2671   -2.2208    0.4064 O   0  0  0  0  0  0  0  0  0  0  0  0
    3.3641   -1.5119    0.7244 O   0  0  0  0  0  0  0  0  0  0  0  0
   -3.5308   -0.1840   -0.3705 N   0  0  0  0  0  0  0  0  0  0  0  0
    2.4581   -0.1903   -0.9672 N   0  0  0  0  0  0  0  0  0  0  0  0
    4.6364    0.3143   -0.0373 C   0  0  0  0  0  0  0  0  0  0  0  0
   -2.1623    0.0259    0.0733 C   0  0  1  0  0  0  0  0  0  0  0  0
    4.4526    1.7816    0.1641 C   0  0  0  0  0  0  0  0  0  0  0  0
    5.0519    0.9413    1.2517 C   0  0  0  0  0  0  0  0  0  0  0  0
    0.1361   -0.3386   -0.2363 C   0  0  1  0  0  0  0  0  0  0  0  0
   -1.2001   -1.0528   -0.3885 C   0  0  1  0  0  0  0  0  0  0  0  0
   -1.5297    1.2704   -0.5277 C   0  0  0  0  0  0  0  0  0  0  0  0
    1.2208   -0.8949   -1.1416 C   0  0  0  0  0  0  0  0  0  0  0  0
    3.4271   -0.5607   -0.0458 C   0  0  0  0  0  0  0  0  0  0  0  0
   -4.4576    0.6695    0.3632 C   0  0  0  0  0  0  0  0  0  0  0  0
   -4.7475    0.0758    1.7388 C   0  0  0  0  0  0  0  0  0  0  0  0
   -5.7415    0.8360   -0.4434 C   0  0  0  0  0  0  0  0  0  0  0  0
    5.4333   -0.0048   -0.7008 H   0  0  0  0  0  0  0  0  0  0  0  0
   -2.0990    0.0713    1.1674 H   0  0  0  0  0  0  0  0  0  0  0  0
   -1.3856   -1.3259   -1.4348 H   0  0  0  0  0  0  0  0  0  0  0  0
    0.4773   -0.3705    0.8069 H   0  0  0  0  0  0  0  0  0  0  0  0
    3.4582    2.1767    0.3327 H   0  0  0  0  0  0  0  0  0  0  0  0
    5.1106    2.4516   -0.3761 H   0  0  0  0  0  0  0  0  0  0  0  0
    6.1126    1.0478    1.4439 H   0  0  0  0  0  0  0  0  0  0  0  0
    4.4539    0.7671    2.1379 H   0  0  0  0  0  0  0  0  0  0  0  0
   -1.8539    1.4454   -1.5601 H   0  0  0  0  0  0  0  0  0  0  0  0
   -1.7324    2.1740    0.0550 H   0  0  0  0  0  0  0  0  0  0  0  0
    0.9438   -0.7746   -2.1946 H   0  0  0  0  0  0  0  0  0  0  0  0
    1.3810   -1.9599   -0.9423 H   0  0  0  0  0  0  0  0  0  0  0  0
   -3.7918   -1.1625   -0.2524 H   0  0  0  0  0  0  0  0  0  0  0  0
    2.6247    0.6213   -1.5552 H   0  0  0  0  0  0  0  0  0  0  0  0
   -4.0418    1.6760    0.4956 H   0  0  0  0  0  0  0  0  0  0  0  0
   -1.1040   -1.9711    1.3316 H   0  0  0  0  0  0  0  0  0  0  0  0
   -5.1531   -0.9396    1.6616 H   0  0  0  0  0  0  0  0  0  0  0  0
   -3.8599    0.0372    2.3768 H   0  0  0  0  0  0  0  0  0  0  0  0
   -5.4911    0.6846    2.2657 H   0  0  0  0  0  0  0  0  0  0  0  0
   -6.2410   -0.1255   -0.6079 H   0  0  0  0  0  0  0  0  0  0  0  0
   -5.5344    1.2817   -1.4228 H   0  0  0  0  0  0  0  0  0  0  0  0
   -6.4448    1.4939    0.0785 H   0  0  0  0  0  0  0  0  0  0  0  0
  1 10  1  0  0  0  0
  1 12  1  0  0  0  0
  2 11  1  0  0  0  0
  2 33  1  0  0  0  0
  3 14  2  0  0  0  0
  4  7  1  0  0  0  0
  4 15  1  0  0  0  0
  4 30  1  0  0  0  0
  5 13  1  0  0  0  0
  5 14  1  0  0  0  0
  5 31  1  0  0  0  0
  6  8  1  0  0  0  0
  6  9  1  0  0  0  0
  6 14  1  0  0  0  0
  6 18  1  0  0  0  0
  7 11  1  0  0  0  0
  7 12  1  0  0  0  0
  7 19  1  0  0  0  0
  8  9  1  0  0  0  0
  8 22  1  0  0  0  0
  8 23  1  0  0  0  0
  9 24  1  0  0  0  0
  9 25  1  0  0  0  0
 10 11  1  0  0  0  0
 10 13  1  0  0  0  0
 10 21  1  0  0  0  0
 11 20  1  0  0  0  0
 12 26  1  0  0  0  0
 12 27  1  0  0  0  0
 13 28  1  0  0  0  0
 13 29  1  0  0  0  0
 15 16  1  0  0  0  0
 15 17  1  0  0  0  0
 15 32  1  0  0  0  0
 16 34  1  0  0  0  0
 16 35  1  0  0  0  0
 16 36  1  0  0  0  0
 17 37  1  0  0  0  0
 17 38  1  0  0  0  0
 17 39  1  0  0  0  0
M  END
> <PUBCHEM_COMPOUND_CID>
75536533

> <PUBCHEM_CONFORMER_RMSD>
0.8

> <PUBCHEM_CONFORMER_DIVERSEORDER>
1
52
50
59
32
67
62
40
47
24
15
44
69
5
58
33
51
27
22
54
13
61
43
9
64
55
60
17
57
30
6
26
49
7
11
34
70
46
21
65
45
20
39
71
66
35
48
16
28
25
31
68
42
3
56
38
72
37
18
2
14
63
53
41
23
19
10
8
4
29
12
36

> <PUBCHEM_MMFF94_PARTIAL_CHARGES>
23
1 -0.56
10 0.28
11 0.28
12 0.28
13 0.3
14 0.63
15 0.27
18 0.1
2 -0.68
22 0.1
23 0.1
24 0.1
25 0.1
3 -0.57
30 0.36
31 0.37
33 0.4
4 -0.9
5 -0.73
6 -0.1
7 0.27
8 -0.2
9 -0.2

> <PUBCHEM_EFFECTIVE_ROTOR_COUNT>
7.6

> <PUBCHEM_PHARMACOPHORE_FEATURES>
9
1 1 acceptor
1 2 acceptor
1 2 donor
1 3 acceptor
1 4 cation
1 4 donor
1 5 donor
3 15 16 17 hydrophobe
5 1 7 10 11 12 rings

> <PUBCHEM_HEAVY_ATOM_COUNT>
17

> <PUBCHEM_ATOM_DEF_STEREO_COUNT>
3

> <PUBCHEM_ATOM_UDEF_STEREO_COUNT>
0

> <PUBCHEM_BOND_DEF_STEREO_COUNT>
0

> <PUBCHEM_BOND_UDEF_STEREO_COUNT>
0

> <PUBCHEM_ISOTOPIC_ATOM_COUNT>
0

> <PUBCHEM_COMPONENT_COUNT>
1

> <PUBCHEM_CACTVS_TAUTO_COUNT>
2

> <PUBCHEM_CONFORMER_ID>
0480989500000001

> <PUBCHEM_MMFF94_ENERGY>
24.0153

> <PUBCHEM_FEATURE_SELFOVERLAP>
45.671

> <PUBCHEM_SHAPE_FINGERPRINT>
10014705 185 18342736347164420887
10912923 1 17418092083857501279
11132069 177 18409737252945745983
11401426 45 18408322177423038861
117890 112 18131632270568147177
12251169 10 18333168384252906924
12592029 89 14201397153524693169
12596602 18 18342748411965199267
12633257 1 18263349421791017992
12670543 26 9655304696418095683
13533116 47 18261671450793128106
13675066 3 17749109976157121271
13955234 65 18060143081556765526
14251764 75 17770222966233729336
14341114 176 18334292059830894216
14528608 73 16271922722684480505
14573314 32 11312065330820320641
14787075 74 17989487411877343625
15048467 5 17418095399630224257
15375358 24 18342179972473750319
17834072 33 16845283956436707109
17862501 102 14562532881728717285
18785283 64 17897455114256716980
19050596 39 18261948648366844934
19784866 240 12685083749224347504
20369508 70 12179848320838746654
20645477 56 18407759239858699238
21150785 3 13829841452476781865
21618674 25 18343299271358964542
21637258 2 14924230490629373427
22224240 67 18410301307381086747
22926399 37 16343705456243143226
23402539 116 18409441497229059087
23559900 14 18339943536238436758
23590187 198 14562529578920121665
26918003 58 17022905644545547185
2916195 48 18343300366728450033
3060560 45 12895353287984722340
34797466 226 15482392049004795909
3545911 37 18410575081127689070
4072396 5 17676486112509291631
42 15 16660366973779452615
4259306 186 10953736724689919585
465052 167 12252192848129382793
4990 188 10879991354602194868
5104073 3 18412546517623326242
5374978 207 18261388927938868280
542803 24 17275107223372307360

> <PUBCHEM_SHAPE_MULTIPOLES>
322.28
12.54
1.56
1.11
1.69
0.22
0.31
-5.14
3.3
-0.84
0.1
0.36
-0.02
0.39

> <PUBCHEM_SHAPE_SELFOVERLAP>
642.605

> <PUBCHEM_SHAPE_VOLUME>
193.7

> <PUBCHEM_COORDINATE_TYPE>
2
5
10

$$$$
