11883013
  -OEChem-12032416123D

 81 84  0     1  0  0  0  0  0999 V2000
   -0.6093    2.9001   -0.8397 S   0  0  0  0  0  0  0  0  0  0  0  0
   -7.1437   -1.4490   -0.9596 O   0  0  0  0  0  0  0  0  0  0  0  0
   -7.4820    0.9080   -0.6877 O   0  0  0  0  0  0  0  0  0  0  0  0
    1.2843   -0.8227    2.5633 O   0  0  0  0  0  0  0  0  0  0  0  0
    3.2257    1.0326    0.9892 O   0  0  0  0  0  0  0  0  0  0  0  0
    6.6741   -2.0331   -1.2440 O   0  0  0  0  0  0  0  0  0  0  0  0
    0.3422    0.8601    0.4355 N   0  0  0  0  0  0  0  0  0  0  0  0
    0.6416   -2.3831    0.9654 N   0  0  0  0  0  0  0  0  0  0  0  0
    1.8979    2.6129   -0.1276 N   0  0  0  0  0  0  0  0  0  0  0  0
    3.8884   -2.4782   -0.8647 N   0  0  0  0  0  0  0  0  0  0  0  0
   -3.2687   -0.4502    0.7713 C   0  0  2  0  0  0  0  0  0  0  0  0
   -3.7211    0.2136   -0.6036 C   0  0  1  0  0  0  0  0  0  0  0  0
   -5.2494    0.1098   -0.9799 C   0  0  1  0  0  0  0  0  0  0  0  0
   -1.6798   -0.6175    0.7386 C   0  0  1  0  0  0  0  0  0  0  0  0
   -3.9058   -1.8584    0.8982 C   0  0  0  0  0  0  0  0  0  0  0  0
   -5.7350   -1.3497   -0.7520 C   0  0  1  0  0  0  0  0  0  0  0  0
   -3.1314    1.6450   -0.7652 C   0  0  0  0  0  0  0  0  0  0  0  0
   -5.4052   -1.8828    0.6379 C   0  0  0  0  0  0  0  0  0  0  0  0
   -3.6725    0.3913    2.0069 C   0  0  0  0  0  0  0  0  0  0  0  0
   -1.0118    0.6447    0.2565 C   0  0  0  0  0  0  0  0  0  0  0  0
   -6.1606    1.1151   -0.2415 C   0  0  0  0  0  0  0  0  0  0  0  0
   -5.4213    0.4235   -2.4932 C   0  0  0  0  0  0  0  0  0  0  0  0
   -1.6778    1.6382   -0.4319 C   0  0  0  0  0  0  0  0  0  0  0  0
   -1.0633   -1.1122    2.0540 C   0  0  0  0  0  0  0  0  0  0  0  0
    0.4141   -1.3979    1.9152 C   0  0  0  0  0  0  0  0  0  0  0  0
    0.6636    2.0200   -0.0952 C   0  0  0  0  0  0  0  0  0  0  0  0
    1.9622   -2.8580    0.6208 C   0  0  0  0  0  0  0  0  0  0  0  0
    3.1000    2.1063    0.4037 C   0  0  0  0  0  0  0  0  0  0  0  0
    2.5403   -2.0325   -0.5192 C   0  0  0  0  0  0  0  0  0  0  0  0
    4.3191    3.0400    0.1931 C   0  0  0  0  0  0  0  0  0  0  0  0
    5.5772    2.4205    0.8219 C   0  0  0  0  0  0  0  0  0  0  0  0
    4.5435    3.2898   -1.3066 C   0  0  0  0  0  0  0  0  0  0  0  0
    4.0516    4.3947    0.8763 C   0  0  0  0  0  0  0  0  0  0  0  0
    4.8017   -2.3094    0.2741 C   0  0  0  0  0  0  0  0  0  0  0  0
    4.3977   -1.7443   -2.0315 C   0  0  0  0  0  0  0  0  0  0  0  0
    6.2043   -2.7690   -0.1138 C   0  0  0  0  0  0  0  0  0  0  0  0
    5.8093   -2.2183   -2.3653 C   0  0  0  0  0  0  0  0  0  0  0  0
   -3.2154   -0.3976   -1.3714 H   0  0  0  0  0  0  0  0  0  0  0  0
   -1.4735   -1.3548   -0.0497 H   0  0  0  0  0  0  0  0  0  0  0  0
   -3.4250   -2.5440    0.1879 H   0  0  0  0  0  0  0  0  0  0  0  0
   -3.7229   -2.2755    1.8955 H   0  0  0  0  0  0  0  0  0  0  0  0
   -5.2583   -2.0131   -1.4863 H   0  0  0  0  0  0  0  0  0  0  0  0
   -3.2628    1.9938   -1.7949 H   0  0  0  0  0  0  0  0  0  0  0  0
   -3.6439    2.3550   -0.1076 H   0  0  0  0  0  0  0  0  0  0  0  0
   -5.9509   -1.3253    1.4072 H   0  0  0  0  0  0  0  0  0  0  0  0
   -5.7713   -2.9140    0.7227 H   0  0  0  0  0  0  0  0  0  0  0  0
   -3.2112    1.3829    2.0089 H   0  0  0  0  0  0  0  0  0  0  0  0
   -3.3735   -0.1039    2.9373 H   0  0  0  0  0  0  0  0  0  0  0  0
   -4.7474    0.5279    2.0968 H   0  0  0  0  0  0  0  0  0  0  0  0
   -6.1751    0.9636    0.8341 H   0  0  0  0  0  0  0  0  0  0  0  0
   -5.8837    2.1568   -0.4314 H   0  0  0  0  0  0  0  0  0  0  0  0
   -6.4280    0.2167   -2.8690 H   0  0  0  0  0  0  0  0  0  0  0  0
   -4.7337   -0.1811   -3.0963 H   0  0  0  0  0  0  0  0  0  0  0  0
   -5.2130    1.4758   -2.7137 H   0  0  0  0  0  0  0  0  0  0  0  0
   -1.5464   -2.0302    2.4044 H   0  0  0  0  0  0  0  0  0  0  0  0
   -1.1654   -0.3605    2.8455 H   0  0  0  0  0  0  0  0  0  0  0  0
   -7.3089   -1.4276   -1.9166 H   0  0  0  0  0  0  0  0  0  0  0  0
   -7.6202    1.4500   -1.4828 H   0  0  0  0  0  0  0  0  0  0  0  0
   -0.1445   -2.8433    0.5173 H   0  0  0  0  0  0  0  0  0  0  0  0
    1.9146    3.5155   -0.5928 H   0  0  0  0  0  0  0  0  0  0  0  0
    2.5560   -2.8049    1.5360 H   0  0  0  0  0  0  0  0  0  0  0  0
    1.8664   -3.9105    0.3327 H   0  0  0  0  0  0  0  0  0  0  0  0
    2.5265   -0.9680   -0.2675 H   0  0  0  0  0  0  0  0  0  0  0  0
    1.8829   -2.1481   -1.3913 H   0  0  0  0  0  0  0  0  0  0  0  0
    5.8117    1.4537    0.3613 H   0  0  0  0  0  0  0  0  0  0  0  0
    6.4495    3.0709    0.6930 H   0  0  0  0  0  0  0  0  0  0  0  0
    5.4428    2.2488    1.8961 H   0  0  0  0  0  0  0  0  0  0  0  0
    3.7099    3.8271   -1.7706 H   0  0  0  0  0  0  0  0  0  0  0  0
    4.6579    2.3411   -1.8436 H   0  0  0  0  0  0  0  0  0  0  0  0
    5.4494    3.8826   -1.4764 H   0  0  0  0  0  0  0  0  0  0  0  0
    3.2190    4.9363    0.4149 H   0  0  0  0  0  0  0  0  0  0  0  0
    4.9321    5.0451    0.8226 H   0  0  0  0  0  0  0  0  0  0  0  0
    3.8006    4.2549    1.9342 H   0  0  0  0  0  0  0  0  0  0  0  0
    4.5124   -2.9186    1.1339 H   0  0  0  0  0  0  0  0  0  0  0  0
    4.8354   -1.2586    0.5881 H   0  0  0  0  0  0  0  0  0  0  0  0
    4.4146   -0.6661   -1.8246 H   0  0  0  0  0  0  0  0  0  0  0  0
    3.7515   -1.9137   -2.9002 H   0  0  0  0  0  0  0  0  0  0  0  0
    6.8987   -2.5864    0.7126 H   0  0  0  0  0  0  0  0  0  0  0  0
    6.2316   -3.8422   -0.3389 H   0  0  0  0  0  0  0  0  0  0  0  0
    5.8217   -3.2728   -2.6672 H   0  0  0  0  0  0  0  0  0  0  0  0
    6.2126   -1.6312   -3.1967 H   0  0  0  0  0  0  0  0  0  0  0  0
  1 23  1  0  0  0  0
  1 26  1  0  0  0  0
  2 16  1  0  0  0  0
  2 57  1  0  0  0  0
  3 21  1  0  0  0  0
  3 58  1  0  0  0  0
  4 25  2  0  0  0  0
  5 28  2  0  0  0  0
  6 36  1  0  0  0  0
  6 37  1  0  0  0  0
  7 20  1  0  0  0  0
  7 26  2  0  0  0  0
  8 25  1  0  0  0  0
  8 27  1  0  0  0  0
  8 59  1  0  0  0  0
  9 26  1  0  0  0  0
  9 28  1  0  0  0  0
  9 60  1  0  0  0  0
 10 29  1  0  0  0  0
 10 34  1  0  0  0  0
 10 35  1  0  0  0  0
 11 12  1  0  0  0  0
 11 14  1  0  0  0  0
 11 15  1  0  0  0  0
 11 19  1  0  0  0  0
 12 13  1  0  0  0  0
 12 17  1  0  0  0  0
 12 38  1  0  0  0  0
 13 16  1  0  0  0  0
 13 21  1  0  0  0  0
 13 22  1  0  0  0  0
 14 20  1  0  0  0  0
 14 24  1  0  0  0  0
 14 39  1  0  0  0  0
 15 18  1  0  0  0  0
 15 40  1  0  0  0  0
 15 41  1  0  0  0  0
 16 18  1  0  0  0  0
 16 42  1  0  0  0  0
 17 23  1  0  0  0  0
 17 43  1  0  0  0  0
 17 44  1  0  0  0  0
 18 45  1  0  0  0  0
 18 46  1  0  0  0  0
 19 47  1  0  0  0  0
 19 48  1  0  0  0  0
 19 49  1  0  0  0  0
 20 23  2  0  0  0  0
 21 50  1  0  0  0  0
 21 51  1  0  0  0  0
 22 52  1  0  0  0  0
 22 53  1  0  0  0  0
 22 54  1  0  0  0  0
 24 25  1  0  0  0  0
 24 55  1  0  0  0  0
 24 56  1  0  0  0  0
 27 29  1  0  0  0  0
 27 61  1  0  0  0  0
 27 62  1  0  0  0  0
 28 30  1  0  0  0  0
 29 63  1  0  0  0  0
 29 64  1  0  0  0  0
 30 31  1  0  0  0  0
 30 32  1  0  0  0  0
 30 33  1  0  0  0  0
 31 65  1  0  0  0  0
 31 66  1  0  0  0  0
 31 67  1  0  0  0  0
 32 68  1  0  0  0  0
 32 69  1  0  0  0  0
 32 70  1  0  0  0  0
 33 71  1  0  0  0  0
 33 72  1  0  0  0  0
 33 73  1  0  0  0  0
 34 36  1  0  0  0  0
 34 74  1  0  0  0  0
 34 75  1  0  0  0  0
 35 37  1  0  0  0  0
 35 76  1  0  0  0  0
 35 77  1  0  0  0  0
 36 78  1  0  0  0  0
 36 79  1  0  0  0  0
 37 80  1  0  0  0  0
 37 81  1  0  0  0  0
M  END
> <PUBCHEM_COMPOUND_CID>
11883013

> <PUBCHEM_CONFORMER_RMSD>
1.2

> <PUBCHEM_CONFORMER_DIVERSEORDER>
1
27
29
4
2
18
28
25
11
26
6
10
12
9
15
24
21
5
17
23
19
7
14
20
3
13
8
16
22

> <PUBCHEM_MMFF94_PARTIAL_CHARGES>
31
1 -0.08
10 -0.81
14 0.18
16 0.28
17 0.18
2 -0.68
20 0.05
21 0.28
23 -0.14
24 0.06
25 0.57
26 0.44
27 0.3
28 0.57
29 0.27
3 -0.68
30 0.06
34 0.27
35 0.27
36 0.28
37 0.28
4 -0.57
5 -0.57
57 0.4
58 0.4
59 0.37
6 -0.56
60 0.37
7 -0.57
8 -0.73
9 -0.49

> <PUBCHEM_EFFECTIVE_ROTOR_COUNT>
12.4

> <PUBCHEM_PHARMACOPHORE_FEATURES>
15
1 10 cation
1 2 acceptor
1 2 donor
1 3 acceptor
1 3 donor
1 4 acceptor
1 5 acceptor
1 6 acceptor
1 8 donor
1 9 donor
4 30 31 32 33 hydrophobe
5 1 7 20 23 26 rings
6 11 12 13 15 16 18 rings
6 11 12 14 17 20 23 rings
6 6 10 34 35 36 37 rings

> <PUBCHEM_HEAVY_ATOM_COUNT>
37

> <PUBCHEM_ATOM_DEF_STEREO_COUNT>
5

> <PUBCHEM_ATOM_UDEF_STEREO_COUNT>
0

> <PUBCHEM_BOND_DEF_STEREO_COUNT>
0

> <PUBCHEM_BOND_UDEF_STEREO_COUNT>
0

> <PUBCHEM_ISOTOPIC_ATOM_COUNT>
0

> <PUBCHEM_COMPONENT_COUNT>
1

> <PUBCHEM_CACTVS_TAUTO_COUNT>
6

> <PUBCHEM_CONFORMER_ID>
00B5520500000001

> <PUBCHEM_MMFF94_ENERGY>
107.256

> <PUBCHEM_FEATURE_SELFOVERLAP>
76.268

> <PUBCHEM_SHAPE_FINGERPRINT>
10906281 52 17822295738267111025
11621639 179 17608645021606874813
12107698 1 18341049606043474052
12522641 33 18338512062435809828
12857493 111 18411133598480701816
13540713 4 18115882956011103299
13636023 20 18337941394246608499
13811026 1 18335416902242196322
14068700 675 18269836420046101984
14725015 67 18261945268433357344
14931854 50 17969805016064859206
15264996 44 18271821129456201140
15444296 7 17846488254300836950
15721738 202 17561081376484953674
20609170 92 18188504583410345036
20642791 35 18261107431645421113
20775438 99 18269263724691353294
21279426 13 18259978271816429893
21344244 246 18339359798379440983
22182313 1 17969236692341978971
22393880 68 18041271085256554751
23559900 14 18114189643795739652
24771293 8 18202285763400023610
3298306 158 18266182910590211244
4066623 53 18188206508073954740
4093350 32 18273491277868594089
46194498 28 18343297042355165390
5171179 24 18411136896867521944
57828716 16 16630536115817805435
59755656 215 18335418027703196764
6669772 16 18337952415201235318
6823239 73 18337101285399763370

> <PUBCHEM_SHAPE_MULTIPOLES>
716.02
17.32
4.56
1.94
7.42
2.29
0.11
-4.57
7.84
-9.38
0.16
-0.2
-0.73
2.81

> <PUBCHEM_SHAPE_SELFOVERLAP>
1479.856

> <PUBCHEM_SHAPE_VOLUME>
414.7

> <PUBCHEM_COORDINATE_TYPE>
2
5
10

$$$$
