45784185
  -OEChem-12032416363D

 39 42  0     1  0  0  0  0  0999 V2000
   -1.3764   -1.3576    0.7478 O   0  0  0  0  0  0  0  0  0  0  0  0
    3.1535   -0.3500   -0.1337 N   0  0  1  0  0  0  0  0  0  0  0  0
   -1.0139    0.3930   -0.6455 N   0  0  0  0  0  0  0  0  0  0  0  0
    4.0832    0.7839   -0.0725 C   0  0  0  0  0  0  0  0  0  0  0  0
    5.5021    0.3105   -0.4507 C   0  0  0  0  0  0  0  0  0  0  0  0
    4.6052    0.9473    1.3703 C   0  0  0  0  0  0  0  0  0  0  0  0
    6.0118    1.1199    0.7599 C   0  0  0  0  0  0  0  0  0  0  0  0
    1.9051   -0.0378    0.5676 C   0  0  0  0  0  0  0  0  0  0  0  0
    0.9370   -1.0987    0.0269 C   0  0  2  0  0  0  0  0  0  0  0  0
    2.7507   -0.6163   -1.5158 C   0  0  0  0  0  0  0  0  0  0  0  0
    1.5132   -1.4880   -1.3457 C   0  0  0  0  0  0  0  0  0  0  0  0
   -0.4991   -0.6288    0.0024 C   0  0  0  0  0  0  0  0  0  0  0  0
   -2.3445    0.3446   -0.3063 C   0  0  0  0  0  0  0  0  0  0  0  0
   -2.5702   -0.7258    0.5465 C   0  0  0  0  0  0  0  0  0  0  0  0
   -3.4254    1.1602   -0.6709 C   0  0  0  0  0  0  0  0  0  0  0  0
   -3.8067   -1.0646    1.0817 C   0  0  0  0  0  0  0  0  0  0  0  0
   -4.6900    0.8497   -0.1503 C   0  0  0  0  0  0  0  0  0  0  0  0
   -4.8744   -0.2410    0.7083 C   0  0  0  0  0  0  0  0  0  0  0  0
   -5.8614    1.6995   -0.5200 C   0  0  0  0  0  0  0  0  0  0  0  0
    3.7647    1.7189   -0.5493 H   0  0  0  0  0  0  0  0  0  0  0  0
    5.6918   -0.7661   -0.3548 H   0  0  0  0  0  0  0  0  0  0  0  0
    5.8689    0.6459   -1.4248 H   0  0  0  0  0  0  0  0  0  0  0  0
    4.2241    1.8144    1.9170 H   0  0  0  0  0  0  0  0  0  0  0  0
    4.5314    0.0630    2.0160 H   0  0  0  0  0  0  0  0  0  0  0  0
    1.5531    0.9767    0.3361 H   0  0  0  0  0  0  0  0  0  0  0  0
    2.0090   -0.1218    1.6549 H   0  0  0  0  0  0  0  0  0  0  0  0
    6.2650    2.1592    0.5210 H   0  0  0  0  0  0  0  0  0  0  0  0
    6.8342    0.6707    1.3219 H   0  0  0  0  0  0  0  0  0  0  0  0
    0.9946   -1.9859    0.6735 H   0  0  0  0  0  0  0  0  0  0  0  0
    2.4834    0.3049   -2.0497 H   0  0  0  0  0  0  0  0  0  0  0  0
    3.5295   -1.1343   -2.0844 H   0  0  0  0  0  0  0  0  0  0  0  0
    0.8073   -1.3428   -2.1704 H   0  0  0  0  0  0  0  0  0  0  0  0
    1.7976   -2.5476   -1.3336 H   0  0  0  0  0  0  0  0  0  0  0  0
   -3.2800    2.0062   -1.3351 H   0  0  0  0  0  0  0  0  0  0  0  0
   -3.9384   -1.9100    1.7453 H   0  0  0  0  0  0  0  0  0  0  0  0
   -5.8643   -0.4625    1.1021 H   0  0  0  0  0  0  0  0  0  0  0  0
   -6.7769    1.1014   -0.5831 H   0  0  0  0  0  0  0  0  0  0  0  0
   -5.7183    2.1693   -1.4991 H   0  0  0  0  0  0  0  0  0  0  0  0
   -6.0048    2.4860    0.2275 H   0  0  0  0  0  0  0  0  0  0  0  0
  1 12  1  0  0  0  0
  1 14  1  0  0  0  0
  2  4  1  0  0  0  0
  2  8  1  0  0  0  0
  2 10  1  0  0  0  0
  3 12  2  0  0  0  0
  3 13  1  0  0  0  0
  4  5  1  0  0  0  0
  4  6  1  0  0  0  0
  4 20  1  0  0  0  0
  5  7  1  0  0  0  0
  5 21  1  0  0  0  0
  5 22  1  0  0  0  0
  6  7  1  0  0  0  0
  6 23  1  0  0  0  0
  6 24  1  0  0  0  0
  7 27  1  0  0  0  0
  7 28  1  0  0  0  0
  8  9  1  0  0  0  0
  8 25  1  0  0  0  0
  8 26  1  0  0  0  0
  9 11  1  0  0  0  0
  9 12  1  0  0  0  0
  9 29  1  0  0  0  0
 10 11  1  0  0  0  0
 10 30  1  0  0  0  0
 10 31  1  0  0  0  0
 11 32  1  0  0  0  0
 11 33  1  0  0  0  0
 13 14  2  0  0  0  0
 13 15  1  0  0  0  0
 14 16  1  0  0  0  0
 15 17  2  0  0  0  0
 15 34  1  0  0  0  0
 16 18  2  0  0  0  0
 16 35  1  0  0  0  0
 17 18  1  0  0  0  0
 17 19  1  0  0  0  0
 18 36  1  0  0  0  0
 19 37  1  0  0  0  0
 19 38  1  0  0  0  0
 19 39  1  0  0  0  0
M  END
> <PUBCHEM_COMPOUND_CID>
45784185

> <PUBCHEM_CONFORMER_RMSD>
0.6

> <PUBCHEM_CONFORMER_DIVERSEORDER>
1
8
13
9
11
6
7
12
10
4
2
3
5

> <PUBCHEM_MMFF94_PARTIAL_CHARGES>
18
1 -0.28
10 0.27
12 0.3
13 0.23
14 0.14
15 -0.15
16 -0.15
17 -0.14
18 -0.15
19 0.14
2 -0.75
3 -0.57
34 0.15
35 0.15
36 0.15
4 0.21
8 0.27
9 0.18

> <PUBCHEM_EFFECTIVE_ROTOR_COUNT>
3.8

> <PUBCHEM_PHARMACOPHORE_FEATURES>
5
1 2 cation
4 4 5 6 7 rings
5 1 3 12 13 14 rings
5 2 8 9 10 11 rings
6 13 14 15 16 17 18 rings

> <PUBCHEM_HEAVY_ATOM_COUNT>
19

> <PUBCHEM_ATOM_DEF_STEREO_COUNT>
1

> <PUBCHEM_ATOM_UDEF_STEREO_COUNT>
0

> <PUBCHEM_BOND_DEF_STEREO_COUNT>
0

> <PUBCHEM_BOND_UDEF_STEREO_COUNT>
0

> <PUBCHEM_ISOTOPIC_ATOM_COUNT>
0

> <PUBCHEM_COMPONENT_COUNT>
1

> <PUBCHEM_CACTVS_TAUTO_COUNT>
1

> <PUBCHEM_CONFORMER_ID>
02BA9C7900000001

> <PUBCHEM_MMFF94_ENERGY>
42.4208

> <PUBCHEM_FEATURE_SELFOVERLAP>
25.492

> <PUBCHEM_SHAPE_FINGERPRINT>
10 15 17530974583379355865
10014705 185 18201998862840426367
10670039 82 18199770102065527012
10912923 1 16081382885419538063
11128504 68 14908178668376986248
11132069 177 17894639119481084223
117890 112 18335419045552306625
11796584 16 9583527511883579532
12107183 9 16447536548449036528
12236239 1 16153709842541817426
12403259 118 18261392307730042276
12403259 415 18339372889276235470
12507557 5 18261112997432978133
12596602 18 16732703882832217024
12616971 3 15430044261851648519
12730499 353 17988931071694208334
12969540 114 17917421025693090669
13214271 11 18408603682290629087
13288520 33 10735877279365804881
13402501 40 18413102866344109216
13533116 47 18189331273803508362
13685833 64 10665230336770628916
13760787 5 16702311113254430039
14251751 18 8934991586051279256
14341114 328 17167863075755725384
14350574 20 9295283949997217559
14528608 73 16200428078768636176
15183329 4 14692577615388551228
15238133 3 17530690891956635564
15375358 24 18412547608581461295
16079462 125 18411975841329453565
17834072 33 13973965411118176424
17980427 23 17749112235357515943
1813 80 13912600512280027858
19050596 39 16443071603426576591
19141452 34 11314322645752133785
193927 3 11746929855086696274
19489759 90 17894629275220804499
204376 136 17846500348216799990
20612939 158 17131558254247590686
20645477 56 18411981373020289111
20645477 70 17632020728147368878
21033648 29 18342165709335909504
21054139 6 14189569732983510012
21150785 3 17132106949521223421
21859007 373 16155939502163342871
231179 274 18272933834564301962
23402539 116 18261387883834638575
23402655 69 17060339604249750223
23522609 53 9870623325127178467
23557571 272 18336277806930266046
23559900 14 18115885009047980326
26918003 58 13262399960012556613
2916195 48 18411696608019606000
29717793 49 14548747196756129940
345986 75 14924483305226774212
3545911 37 18413111662636870278
4325135 7 18060134388542432479
465052 167 11818992968337129808
474 4 17274821411021908104
5104073 3 17968383321553904923
542803 24 17022904566635226508
543368 44 16056875862152660977
573450 72 17095243648376674019
6025842 7 17489308534162212574
8863177 126 8430015577975098893

> <PUBCHEM_SHAPE_MULTIPOLES>
375.18
14.15
1.45
1.18
3.39
0.02
-0.05
7.32
1.37
-0.43
-0.1
0.35
-0.14
1.82

> <PUBCHEM_SHAPE_SELFOVERLAP>
817.068

> <PUBCHEM_SHAPE_VOLUME>
208.4

> <PUBCHEM_COORDINATE_TYPE>
2
5
10

$$$$
