75367757
  -OEChem-12032416383D

 32 33  0     1  0  0  0  0  0999 V2000
   -4.9085   -0.7819   -0.9501 F   0  0  0  0  0  0  0  0  0  0  0  0
    3.9625    0.4642   -0.8240 O   0  0  0  0  0  0  0  0  0  0  0  0
    2.5424   -2.7319    0.0275 O   0  0  0  0  0  0  0  0  0  0  0  0
    1.0979    0.6883    0.3884 N   0  0  2  0  0  0  0  0  0  0  0  0
    1.3272   -0.7439    0.6089 C   0  0  0  0  0  0  0  0  0  0  0  0
    2.6920   -1.3223    0.2030 C   0  0  2  0  0  0  0  0  0  0  0  0
    2.2704    1.5311    0.6271 C   0  0  0  0  0  0  0  0  0  0  0  0
   -0.0543    1.1392    1.1699 C   0  0  0  0  0  0  0  0  0  0  0  0
    3.2600   -0.7458   -1.0869 C   0  0  0  0  0  0  0  0  0  0  0  0
    3.1294    1.5998   -0.6362 C   0  0  0  0  0  0  0  0  0  0  0  0
   -1.3514    0.6258    0.6036 C   0  0  0  0  0  0  0  0  0  0  0  0
   -2.0381    1.3724   -0.3539 C   0  0  0  0  0  0  0  0  0  0  0  0
   -1.8664   -0.5962    1.0361 C   0  0  0  0  0  0  0  0  0  0  0  0
   -3.2398    0.8973   -0.8787 C   0  0  0  0  0  0  0  0  0  0  0  0
   -3.0682   -1.0715    0.5114 C   0  0  0  0  0  0  0  0  0  0  0  0
   -3.7549   -0.3247   -0.4460 C   0  0  0  0  0  0  0  0  0  0  0  0
    0.5656   -1.3050    0.0531 H   0  0  0  0  0  0  0  0  0  0  0  0
    1.1832   -1.0075    1.6663 H   0  0  0  0  0  0  0  0  0  0  0  0
    3.4112   -1.1646    1.0162 H   0  0  0  0  0  0  0  0  0  0  0  0
    2.8455    1.1908    1.4964 H   0  0  0  0  0  0  0  0  0  0  0  0
    1.9585    2.5626    0.8341 H   0  0  0  0  0  0  0  0  0  0  0  0
   -0.1213    2.2361    1.1607 H   0  0  0  0  0  0  0  0  0  0  0  0
    0.0386    0.8719    2.2316 H   0  0  0  0  0  0  0  0  0  0  0  0
    3.9908   -1.4453   -1.5089 H   0  0  0  0  0  0  0  0  0  0  0  0
    2.4938   -0.6017   -1.8585 H   0  0  0  0  0  0  0  0  0  0  0  0
    2.5244    1.7729   -1.5351 H   0  0  0  0  0  0  0  0  0  0  0  0
    3.8032    2.4594   -0.5470 H   0  0  0  0  0  0  0  0  0  0  0  0
    2.2145   -3.0980    0.8666 H   0  0  0  0  0  0  0  0  0  0  0  0
   -1.6468    2.3248   -0.7017 H   0  0  0  0  0  0  0  0  0  0  0  0
   -1.3507   -1.1850    1.7898 H   0  0  0  0  0  0  0  0  0  0  0  0
   -3.7744    1.4778   -1.6247 H   0  0  0  0  0  0  0  0  0  0  0  0
   -3.4708   -2.0217    0.8496 H   0  0  0  0  0  0  0  0  0  0  0  0
  1 16  1  0  0  0  0
  2  9  1  0  0  0  0
  2 10  1  0  0  0  0
  3  6  1  0  0  0  0
  3 28  1  0  0  0  0
  4  5  1  0  0  0  0
  4  7  1  0  0  0  0
  4  8  1  0  0  0  0
  5  6  1  0  0  0  0
  5 17  1  0  0  0  0
  5 18  1  0  0  0  0
  6  9  1  0  0  0  0
  6 19  1  0  0  0  0
  7 10  1  0  0  0  0
  7 20  1  0  0  0  0
  7 21  1  0  0  0  0
  8 11  1  0  0  0  0
  8 22  1  0  0  0  0
  8 23  1  0  0  0  0
  9 24  1  0  0  0  0
  9 25  1  0  0  0  0
 10 26  1  0  0  0  0
 10 27  1  0  0  0  0
 11 12  2  0  0  0  0
 11 13  1  0  0  0  0
 12 14  1  0  0  0  0
 12 29  1  0  0  0  0
 13 15  2  0  0  0  0
 13 30  1  0  0  0  0
 14 16  2  0  0  0  0
 14 31  1  0  0  0  0
 15 16  1  0  0  0  0
 15 32  1  0  0  0  0
M  END
> <PUBCHEM_COMPOUND_CID>
75367757

> <PUBCHEM_CONFORMER_RMSD>
0.6

> <PUBCHEM_CONFORMER_DIVERSEORDER>
1
10
24
18
23
4
21
29
15
5
19
16
8
2
26
28
3
17
25
6
27
12
13
14
7
20
11
9
22

> <PUBCHEM_MMFF94_PARTIAL_CHARGES>
21
1 -0.19
10 0.28
11 -0.14
12 -0.15
13 -0.15
14 -0.15
15 -0.15
16 0.19
2 -0.56
28 0.4
29 0.15
3 -0.68
30 0.15
31 0.15
32 0.15
4 -0.81
5 0.27
6 0.28
7 0.27
8 0.41
9 0.28

> <PUBCHEM_EFFECTIVE_ROTOR_COUNT>
3.4

> <PUBCHEM_PHARMACOPHORE_FEATURES>
6
1 2 acceptor
1 3 acceptor
1 3 donor
1 4 cation
6 11 12 13 14 15 16 rings
7 2 4 5 6 7 9 10 rings

> <PUBCHEM_HEAVY_ATOM_COUNT>
16

> <PUBCHEM_ATOM_DEF_STEREO_COUNT>
1

> <PUBCHEM_ATOM_UDEF_STEREO_COUNT>
0

> <PUBCHEM_BOND_DEF_STEREO_COUNT>
0

> <PUBCHEM_BOND_UDEF_STEREO_COUNT>
0

> <PUBCHEM_ISOTOPIC_ATOM_COUNT>
0

> <PUBCHEM_COMPONENT_COUNT>
1

> <PUBCHEM_CACTVS_TAUTO_COUNT>
1

> <PUBCHEM_CONFORMER_ID>
047E054D00000001

> <PUBCHEM_MMFF94_ENERGY>
44.8014

> <PUBCHEM_FEATURE_SELFOVERLAP>
30.446

> <PUBCHEM_SHAPE_FINGERPRINT>
10498660 4 17168411685003380029
12251169 10 9943807780953965673
12616999 72 18335980947528186162
12670546 177 18187361056218993967
12707595 3 17632852023156475280
13296908 3 17989200439073553033
14576447 43 18343584032090956998
15239191 94 17060623304135519437
15375462 6 18408041818494435268
18186145 218 17023189275411094387
18915474 69 17989208169940722598
19422 9 17418106424394587177
19433438 38 18259985963828407500
200 152 18202283606208108568
20279233 1 18334574672050850360
20281475 54 18343864398950183611
20361792 2 16917063360863270705
20645477 70 18131070445700744981
20671657 53 18342739563942042200
20871999 31 18187079547188584477
21501502 16 18339928099798770737
22646028 28 17418094312660425063
23114952 82 18187365381119010340
23402539 116 17241037829357581088
23402655 69 18336548230945743469
23557571 272 17169000030960973419
23559900 14 18335413543899465840
23596394 208 18408879642091377885
2748010 2 17616258421308582696
2838139 119 15938123173867986390
2871803 45 18411421730202157278
3060560 45 18335421322317490524
3082319 5 18260830371394099385
3323516 105 18340207487341981361
3472631 163 15936691566193580847
4028521 119 17240757381057370133
42 15 12391519693373651077
465052 167 17202767141515618327
5262128 65 18127142887351156638
58051976 378 18336828692616016820
93112 12 18261957353521969821
94968 8 18060420239610541982
9709674 26 18334859402729101603

> <PUBCHEM_SHAPE_MULTIPOLES>
305.28
8.03
1.94
1.11
2.99
0.59
0
1.3
-3.18
-1.47
0.03
0.11
-0.1
0.17

> <PUBCHEM_SHAPE_SELFOVERLAP>
631.306

> <PUBCHEM_SHAPE_VOLUME>
174.2

> <PUBCHEM_COORDINATE_TYPE>
2
5
10

$$$$
