51136963
  -OEChem-12032416223D

 51 55  0     1  0  0  0  0  0999 V2000
   -3.9860    3.6501    0.5925 O   0  0  0  0  0  0  0  0  0  0  0  0
   -1.9381   -2.0221    1.6621 O   0  0  0  0  0  0  0  0  0  0  0  0
   -4.1002   -0.3185   -0.7727 N   0  0  1  0  0  0  0  0  0  0  0  0
   -1.2397   -0.8933   -0.1419 N   0  0  0  0  0  0  0  0  0  0  0  0
   -0.5547   -1.8636    1.8134 N   0  0  0  0  0  0  0  0  0  0  0  0
    3.4574   -0.7627    1.1006 N   0  0  0  0  0  0  0  0  0  0  0  0
    7.8046    0.9349   -0.5895 N   0  0  0  0  0  0  0  0  0  0  0  0
   -4.4655    0.8777   -0.0176 C   0  0  0  0  0  0  0  0  0  0  0  0
   -3.7200   -1.4565    0.0879 C   0  0  1  0  0  0  0  0  0  0  0  0
   -5.1951   -0.7896   -1.6210 C   0  0  0  0  0  0  0  0  0  0  0  0
   -4.0835   -2.7069   -0.7339 C   0  0  0  0  0  0  0  0  0  0  0  0
   -4.7163   -2.1733   -2.0112 C   0  0  0  0  0  0  0  0  0  0  0  0
   -4.8954    2.0109   -0.9544 C   0  0  0  0  0  0  0  0  0  0  0  0
   -3.2932    1.3354    0.8548 C   0  0  0  0  0  0  0  0  0  0  0  0
   -5.1437    3.2890   -0.1608 C   0  0  0  0  0  0  0  0  0  0  0  0
   -3.6301    2.6509    1.5481 C   0  0  0  0  0  0  0  0  0  0  0  0
   -2.2592   -1.4228    0.4858 C   0  0  0  0  0  0  0  0  0  0  0  0
   -0.2161   -1.1888    0.7107 C   0  0  0  0  0  0  0  0  0  0  0  0
    1.1348   -0.7965    0.4304 C   0  0  0  0  0  0  0  0  0  0  0  0
    1.4514   -0.0961   -0.7284 C   0  0  0  0  0  0  0  0  0  0  0  0
    2.1649   -1.1028    1.3048 C   0  0  0  0  0  0  0  0  0  0  0  0
    2.7698    0.2713   -0.9738 C   0  0  0  0  0  0  0  0  0  0  0  0
    3.7269   -0.0828   -0.0364 C   0  0  0  0  0  0  0  0  0  0  0  0
    5.1154    0.2644   -0.2249 C   0  0  0  0  0  0  0  0  0  0  0  0
    5.4933    1.5978   -0.3375 C   0  0  0  0  0  0  0  0  0  0  0  0
    6.0806   -0.7341   -0.2943 C   0  0  0  0  0  0  0  0  0  0  0  0
    6.8384    1.8778   -0.5170 C   0  0  0  0  0  0  0  0  0  0  0  0
    7.3995   -0.3499   -0.4759 C   0  0  0  0  0  0  0  0  0  0  0  0
   -5.3137    0.6518    0.6455 H   0  0  0  0  0  0  0  0  0  0  0  0
   -4.3312   -1.4726    1.0016 H   0  0  0  0  0  0  0  0  0  0  0  0
   -5.3377   -0.1767   -2.5161 H   0  0  0  0  0  0  0  0  0  0  0  0
   -6.1434   -0.8577   -1.0728 H   0  0  0  0  0  0  0  0  0  0  0  0
   -3.2270   -3.3501   -0.9634 H   0  0  0  0  0  0  0  0  0  0  0  0
   -4.8180   -3.3084   -0.1844 H   0  0  0  0  0  0  0  0  0  0  0  0
   -5.5283   -2.8133   -2.3689 H   0  0  0  0  0  0  0  0  0  0  0  0
   -3.9593   -2.1081   -2.8027 H   0  0  0  0  0  0  0  0  0  0  0  0
   -4.1029    2.1989   -1.6906 H   0  0  0  0  0  0  0  0  0  0  0  0
   -5.8114    1.7655   -1.5021 H   0  0  0  0  0  0  0  0  0  0  0  0
   -3.0593    0.6227    1.6494 H   0  0  0  0  0  0  0  0  0  0  0  0
   -2.4023    1.4937    0.2344 H   0  0  0  0  0  0  0  0  0  0  0  0
   -5.9996    3.1796    0.5157 H   0  0  0  0  0  0  0  0  0  0  0  0
   -5.3664    4.1142   -0.8446 H   0  0  0  0  0  0  0  0  0  0  0  0
   -2.7582    3.0148    2.1010 H   0  0  0  0  0  0  0  0  0  0  0  0
   -4.4490    2.5263    2.2666 H   0  0  0  0  0  0  0  0  0  0  0  0
    0.6922    0.1757   -1.4573 H   0  0  0  0  0  0  0  0  0  0  0  0
    2.0021   -1.6465    2.2307 H   0  0  0  0  0  0  0  0  0  0  0  0
    3.0211    0.8136   -1.8797 H   0  0  0  0  0  0  0  0  0  0  0  0
    4.7737    2.4086   -0.2836 H   0  0  0  0  0  0  0  0  0  0  0  0
    5.8273   -1.7865   -0.2144 H   0  0  0  0  0  0  0  0  0  0  0  0
    7.1851    2.9018   -0.6091 H   0  0  0  0  0  0  0  0  0  0  0  0
    8.1902   -1.0903   -0.5376 H   0  0  0  0  0  0  0  0  0  0  0  0
  1 15  1  0  0  0  0
  1 16  1  0  0  0  0
  2  5  1  0  0  0  0
  2 17  1  0  0  0  0
  3  8  1  0  0  0  0
  3  9  1  0  0  0  0
  3 10  1  0  0  0  0
  4 17  2  0  0  0  0
  4 18  1  0  0  0  0
  5 18  2  0  0  0  0
  6 21  1  0  0  0  0
  6 23  2  0  0  0  0
  7 27  2  0  0  0  0
  7 28  1  0  0  0  0
  8 13  1  0  0  0  0
  8 14  1  0  0  0  0
  8 29  1  0  0  0  0
  9 11  1  0  0  0  0
  9 17  1  0  0  0  0
  9 30  1  0  0  0  0
 10 12  1  0  0  0  0
 10 31  1  0  0  0  0
 10 32  1  0  0  0  0
 11 12  1  0  0  0  0
 11 33  1  0  0  0  0
 11 34  1  0  0  0  0
 12 35  1  0  0  0  0
 12 36  1  0  0  0  0
 13 15  1  0  0  0  0
 13 37  1  0  0  0  0
 13 38  1  0  0  0  0
 14 16  1  0  0  0  0
 14 39  1  0  0  0  0
 14 40  1  0  0  0  0
 15 41  1  0  0  0  0
 15 42  1  0  0  0  0
 16 43  1  0  0  0  0
 16 44  1  0  0  0  0
 18 19  1  0  0  0  0
 19 20  1  0  0  0  0
 19 21  2  0  0  0  0
 20 22  2  0  0  0  0
 20 45  1  0  0  0  0
 21 46  1  0  0  0  0
 22 23  1  0  0  0  0
 22 47  1  0  0  0  0
 23 24  1  0  0  0  0
 24 25  2  0  0  0  0
 24 26  1  0  0  0  0
 25 27  1  0  0  0  0
 25 48  1  0  0  0  0
 26 28  2  0  0  0  0
 26 49  1  0  0  0  0
 27 50  1  0  0  0  0
 28 51  1  0  0  0  0
M  END
> <PUBCHEM_COMPOUND_CID>
51136963

> <PUBCHEM_CONFORMER_RMSD>
0.8

> <PUBCHEM_CONFORMER_DIVERSEORDER>
1
36
21
20
38
11
12
27
32
33
23
31
7
37
22
8
28
19
13
2
25
26
29
18
15
17
9
5
30
34
16
14
35
4
3
6
24
10

> <PUBCHEM_MMFF94_PARTIAL_CHARGES>
30
1 -0.56
10 0.27
15 0.28
16 0.28
17 0.3
18 0.46
19 0.05
2 -0.02
20 -0.15
21 0.16
22 -0.15
23 0.31
25 -0.15
26 -0.15
27 0.16
28 0.16
3 -0.81
4 -0.57
45 0.15
46 0.15
47 0.15
48 0.15
49 0.15
5 -0.41
50 0.15
51 0.15
6 -0.62
7 -0.62
8 0.27
9 0.45

> <PUBCHEM_EFFECTIVE_ROTOR_COUNT>
6.2

> <PUBCHEM_PHARMACOPHORE_FEATURES>
10
1 1 acceptor
1 3 cation
1 6 acceptor
1 7 acceptor
3 4 5 18 cation
5 2 4 5 17 18 rings
5 3 9 10 11 12 rings
6 1 8 13 14 15 16 rings
6 6 19 20 21 22 23 rings
6 7 24 25 26 27 28 rings

> <PUBCHEM_HEAVY_ATOM_COUNT>
28

> <PUBCHEM_ATOM_DEF_STEREO_COUNT>
1

> <PUBCHEM_ATOM_UDEF_STEREO_COUNT>
0

> <PUBCHEM_BOND_DEF_STEREO_COUNT>
0

> <PUBCHEM_BOND_UDEF_STEREO_COUNT>
0

> <PUBCHEM_ISOTOPIC_ATOM_COUNT>
0

> <PUBCHEM_COMPONENT_COUNT>
1

> <PUBCHEM_CACTVS_TAUTO_COUNT>
1

> <PUBCHEM_CONFORMER_ID>
030C49C300000001

> <PUBCHEM_MMFF94_ENERGY>
62.7852

> <PUBCHEM_FEATURE_SELFOVERLAP>
50.749

> <PUBCHEM_SHAPE_FINGERPRINT>
10 15 13840268100290326182
10087517 78 18408322189738839180
10291535 26 18336553793497792443
10454371 7 18342176665460137501
10595046 47 18411133649756110638
10670039 82 18410569587237049297
10906281 52 17458643215668158662
11089746 13 18335138713637991080
11101153 10 18197780109692140789
11315181 36 18187928429751366334
11477941 20 18059281180151401285
11991303 11 16701735077110483588
12107698 1 18271804687145498549
12717326 25 15647049327270920064
12895837 130 18410579461873719725
13673619 4 16773229734254522823
13690498 29 17916577773690431607
14251764 75 17837219177858327673
14394314 77 18261395482350184541
15064981 113 17915160348308677295
15064981 194 18041853938194226351
15183329 4 18113049437991137042
15289351 153 18264772250790744348
15352257 5 8358268042591130000
1577012 14 18334857200011849712
15876981 60 18340208587286613749
16992828 155 18043526123561127973
17913733 40 15502091934557444912
17980427 23 18334585658640640436
19489759 90 18413108385260513750
20505436 4 18263641776241896043
21033648 144 17458617900487766411
21033650 10 18269294416094230366
21236236 1 18410294717856749380
21756936 100 18260836981939664099
23081809 10 18333444340450167994
23198884 109 18409165528015676438
23559900 14 18042401512185527720
255183 451 17482532485299626231
2838139 119 18408606976541198312
328310 18 18272092677940960097
328310 630 17822301231582556460
397830 11 11242263995468470198
4098825 35 18202007590145737959
4169191 19 17604438534789253788
445580 204 18408602556545019152
44802255 64 17846501469556432958
5104073 3 17240762887316292018
5171179 24 17987790959461418080
5283173 99 18342458144968867456
531348 171 18202003200710488070
563151 97 18408601439817053622
5937810 71 17968677011734779148
6086070 43 18131346402456993896
6299153 45 18116710721422249530
6327066 14 18265331699701786493
6328613 192 18114187462643612004
636775 72 18262799687732274964
7226269 152 18409452449084966368
7970288 3 10159106451757067669

> <PUBCHEM_SHAPE_MULTIPOLES>
539.58
19.18
3.2
1.45
30.55
2.28
0.13
7.81
-6.93
-6.75
0.28
-1.44
-0.52
-2.04

> <PUBCHEM_SHAPE_SELFOVERLAP>
1182.118

> <PUBCHEM_SHAPE_VOLUME>
290.8

> <PUBCHEM_COORDINATE_TYPE>
2
5
10

$$$$
