51136834
  -OEChem-12032416223D

 57 61  0     1  0  0  0  0  0999 V2000
   -3.8335   -2.1305   -0.0269 O   0  0  0  0  0  0  0  0  0  0  0  0
    5.9822    2.8473   -1.6269 O   0  0  0  0  0  0  0  0  0  0  0  0
   -3.9779    1.5318   -0.2952 N   0  0  1  0  0  0  0  0  0  0  0  0
   -2.0742   -0.7675   -0.2789 N   0  0  0  0  0  0  0  0  0  0  0  0
    2.9816   -0.8872   -0.0045 N   0  0  0  0  0  0  0  0  0  0  0  0
   -2.6973   -2.9110    0.2218 N   0  0  0  0  0  0  0  0  0  0  0  0
    4.9880    1.1677   -0.3658 N   0  0  0  0  0  0  0  0  0  0  0  0
    2.3667   -3.1068    0.5173 N   0  0  0  0  0  0  0  0  0  0  0  0
   -3.3162    3.0112    1.5250 C   0  0  0  0  0  0  0  0  0  0  0  0
   -3.0474    3.2167    2.9870 C   0  0  0  0  0  0  0  0  0  0  0  0
   -1.9640    2.6911    2.0916 C   0  0  0  0  0  0  0  0  0  0  0  0
   -4.2112    1.8937    1.0970 C   0  0  0  0  0  0  0  0  0  0  0  0
   -4.4267    0.1640   -0.6240 C   0  0  1  0  0  0  0  0  0  0  0  0
   -4.6715    2.4280   -1.2205 C   0  0  0  0  0  0  0  0  0  0  0  0
   -4.7873    0.2197   -2.1200 C   0  0  0  0  0  0  0  0  0  0  0  0
   -4.5680    1.6695   -2.5283 C   0  0  0  0  0  0  0  0  0  0  0  0
   -3.3777   -0.8832   -0.3141 C   0  0  0  0  0  0  0  0  0  0  0  0
   -1.7006   -2.0369    0.0541 C   0  0  0  0  0  0  0  0  0  0  0  0
    2.7901    0.1992   -0.9693 C   0  0  0  0  0  0  0  0  0  0  0  0
    4.2527   -0.9527    0.7208 C   0  0  0  0  0  0  0  0  0  0  0  0
    4.1358    0.7233   -1.4657 C   0  0  0  0  0  0  0  0  0  0  0  0
    4.8479    0.4440    0.8998 C   0  0  0  0  0  0  0  0  0  0  0  0
   -0.3203   -2.4002    0.2101 C   0  0  0  0  0  0  0  0  0  0  0  0
    1.9935   -1.8500    0.1873 C   0  0  0  0  0  0  0  0  0  0  0  0
    0.6772   -1.4496    0.0234 C   0  0  0  0  0  0  0  0  0  0  0  0
    5.8628    2.2368   -0.5621 C   0  0  0  0  0  0  0  0  0  0  0  0
    0.0241   -3.7037    0.5502 C   0  0  0  0  0  0  0  0  0  0  0  0
    1.3696   -4.0033    0.6905 C   0  0  0  0  0  0  0  0  0  0  0  0
    6.7014    2.6386    0.6265 C   0  0  0  0  0  0  0  0  0  0  0  0
   -3.4266    3.9073    0.9266 H   0  0  0  0  0  0  0  0  0  0  0  0
   -2.9549    4.2348    3.3449 H   0  0  0  0  0  0  0  0  0  0  0  0
   -3.4893    2.5311    3.6995 H   0  0  0  0  0  0  0  0  0  0  0  0
   -1.1454    3.3563    1.8451 H   0  0  0  0  0  0  0  0  0  0  0  0
   -1.6761    1.6529    2.2038 H   0  0  0  0  0  0  0  0  0  0  0  0
   -4.0158    1.0264    1.7420 H   0  0  0  0  0  0  0  0  0  0  0  0
   -5.2594    2.1661    1.2749 H   0  0  0  0  0  0  0  0  0  0  0  0
   -5.3416   -0.0817   -0.0661 H   0  0  0  0  0  0  0  0  0  0  0  0
   -5.7261    2.5663   -0.9504 H   0  0  0  0  0  0  0  0  0  0  0  0
   -4.1920    3.4086   -1.2944 H   0  0  0  0  0  0  0  0  0  0  0  0
   -4.1912   -0.4547   -2.7444 H   0  0  0  0  0  0  0  0  0  0  0  0
   -5.8436   -0.0435   -2.2542 H   0  0  0  0  0  0  0  0  0  0  0  0
   -5.3002    2.0061   -3.2682 H   0  0  0  0  0  0  0  0  0  0  0  0
   -3.5667    1.7874   -2.9611 H   0  0  0  0  0  0  0  0  0  0  0  0
    2.2217   -0.1454   -1.8419 H   0  0  0  0  0  0  0  0  0  0  0  0
    2.2327    1.0157   -0.4938 H   0  0  0  0  0  0  0  0  0  0  0  0
    4.1107   -1.3980    1.7131 H   0  0  0  0  0  0  0  0  0  0  0  0
    4.9488   -1.5921    0.1646 H   0  0  0  0  0  0  0  0  0  0  0  0
    3.9810    1.5419   -2.1767 H   0  0  0  0  0  0  0  0  0  0  0  0
    4.6843   -0.0674   -1.9924 H   0  0  0  0  0  0  0  0  0  0  0  0
    5.8192    0.3646    1.3965 H   0  0  0  0  0  0  0  0  0  0  0  0
    4.1971    1.0530    1.5390 H   0  0  0  0  0  0  0  0  0  0  0  0
    0.4180   -0.4247   -0.2216 H   0  0  0  0  0  0  0  0  0  0  0  0
   -0.7099   -4.4869    0.7085 H   0  0  0  0  0  0  0  0  0  0  0  0
    1.6913   -5.0053    0.9549 H   0  0  0  0  0  0  0  0  0  0  0  0
    7.2199    3.5762    0.4041 H   0  0  0  0  0  0  0  0  0  0  0  0
    6.0733    2.8006    1.5062 H   0  0  0  0  0  0  0  0  0  0  0  0
    7.4504    1.8692    0.8309 H   0  0  0  0  0  0  0  0  0  0  0  0
  1  6  1  0  0  0  0
  1 17  1  0  0  0  0
  2 26  2  0  0  0  0
  3 12  1  0  0  0  0
  3 13  1  0  0  0  0
  3 14  1  0  0  0  0
  4 17  2  0  0  0  0
  4 18  1  0  0  0  0
  5 19  1  0  0  0  0
  5 20  1  0  0  0  0
  5 24  1  0  0  0  0
  6 18  2  0  0  0  0
  7 21  1  0  0  0  0
  7 22  1  0  0  0  0
  7 26  1  0  0  0  0
  8 24  2  0  0  0  0
  8 28  1  0  0  0  0
  9 10  1  0  0  0  0
  9 11  1  0  0  0  0
  9 12  1  0  0  0  0
  9 30  1  0  0  0  0
 10 11  1  0  0  0  0
 10 31  1  0  0  0  0
 10 32  1  0  0  0  0
 11 33  1  0  0  0  0
 11 34  1  0  0  0  0
 12 35  1  0  0  0  0
 12 36  1  0  0  0  0
 13 15  1  0  0  0  0
 13 17  1  0  0  0  0
 13 37  1  0  0  0  0
 14 16  1  0  0  0  0
 14 38  1  0  0  0  0
 14 39  1  0  0  0  0
 15 16  1  0  0  0  0
 15 40  1  0  0  0  0
 15 41  1  0  0  0  0
 16 42  1  0  0  0  0
 16 43  1  0  0  0  0
 18 23  1  0  0  0  0
 19 21  1  0  0  0  0
 19 44  1  0  0  0  0
 19 45  1  0  0  0  0
 20 22  1  0  0  0  0
 20 46  1  0  0  0  0
 20 47  1  0  0  0  0
 21 48  1  0  0  0  0
 21 49  1  0  0  0  0
 22 50  1  0  0  0  0
 22 51  1  0  0  0  0
 23 25  2  0  0  0  0
 23 27  1  0  0  0  0
 24 25  1  0  0  0  0
 25 52  1  0  0  0  0
 26 29  1  0  0  0  0
 27 28  2  0  0  0  0
 27 53  1  0  0  0  0
 28 54  1  0  0  0  0
 29 55  1  0  0  0  0
 29 56  1  0  0  0  0
 29 57  1  0  0  0  0
M  END
> <PUBCHEM_COMPOUND_CID>
51136834

> <PUBCHEM_CONFORMER_RMSD>
1

> <PUBCHEM_CONFORMER_DIVERSEORDER>
1
18
20
54
26
23
59
14
66
55
22
38
71
27
47
57
40
21
45
43
32
72
30
67
52
25
13
46
35
61
39
11
51
12
63
68
53
56
34
9
49
64
65
33
62
41
19
2
5
6
70
48
31
17
36
69
16
73
44
42
50
8
58
37
60
24
4
29
3
28
10
15
7

> <PUBCHEM_MMFF94_PARTIAL_CHARGES>
35
1 -0.02
10 -0.2
11 -0.2
12 0.37
13 0.45
14 0.27
17 0.3
18 0.46
19 0.37
2 -0.57
20 0.37
21 0.3
22 0.3
23 0.05
24 0.41
25 -0.15
26 0.57
27 -0.15
28 0.16
29 0.06
3 -0.81
30 0.1
31 0.1
32 0.1
33 0.1
34 0.1
4 -0.57
5 -0.84
52 0.15
53 0.15
54 0.15
6 -0.41
7 -0.66
8 -0.62
9 -0.19

> <PUBCHEM_EFFECTIVE_ROTOR_COUNT>
8.8

> <PUBCHEM_PHARMACOPHORE_FEATURES>
8
1 2 acceptor
1 3 cation
3 4 6 18 cation
3 5 8 24 cation
5 1 4 6 17 18 rings
5 3 13 14 15 16 rings
6 5 7 19 20 21 22 rings
6 8 23 24 25 27 28 rings

> <PUBCHEM_HEAVY_ATOM_COUNT>
29

> <PUBCHEM_ATOM_DEF_STEREO_COUNT>
1

> <PUBCHEM_ATOM_UDEF_STEREO_COUNT>
0

> <PUBCHEM_BOND_DEF_STEREO_COUNT>
0

> <PUBCHEM_BOND_UDEF_STEREO_COUNT>
0

> <PUBCHEM_ISOTOPIC_ATOM_COUNT>
0

> <PUBCHEM_COMPONENT_COUNT>
1

> <PUBCHEM_CACTVS_TAUTO_COUNT>
1

> <PUBCHEM_CONFORMER_ID>
030C494200000001

> <PUBCHEM_MMFF94_ENERGY>
73.7636

> <PUBCHEM_FEATURE_SELFOVERLAP>
40.598

> <PUBCHEM_SHAPE_FINGERPRINT>
11049842 53 16483029853488526551
11135609 187 18337101290460134517
11408170 253 17830752202693213668
11479125 193 18118405047445904601
12107183 9 18114726202156607858
12390115 104 18335995250117656174
12422481 6 17023175003567313742
12788726 201 18199756993460511538
13590594 115 17398955977276945610
13627167 48 18265630800828355708
14040221 97 18187376449730027005
14251764 75 18339084795923447313
14556957 393 17628045947038562549
14790565 3 18260547879058668772
14848178 96 18337104575392359750
14931854 50 18272644641384141997
15064981 113 17775292664631184318
15119646 57 17202785733970451337
15274700 147 15948546745768788876
15289351 153 18130499817791762992
15513586 35 17174365750388915092
16067690 210 17775017738620633028
21033650 10 16987438599231920387
21049683 271 18121214549073873919
235170 7 16056588833814858925
23559900 14 18265889155891278778
2748736 6 18335124424007900324
3459 39 18265316465304555224
469060 322 18042426753908708907
48014 12 18042697284992927140
50150288 127 17274557412146436289
5104073 3 17894625963812049938
563151 74 16370713842967844656
6034566 193 18115609143456508252
6299153 45 18260538993108956578
6371009 1 18196073479136114280
6608658 132 18059847394147754413
6609424 69 13663533249671625601
6700243 42 15984520270763124101
7808743 9 18190174766741496010
7970288 3 10302655430072775373
9980921 221 18055385555279116316
9981440 41 18114744935812462018

> <PUBCHEM_SHAPE_MULTIPOLES>
555.18
14.69
5.23
2
14.25
1.81
-0.1
-15.54
4.7
0.67
-2.4
-2.58
-2.41
-2.5

> <PUBCHEM_SHAPE_SELFOVERLAP>
1184.033

> <PUBCHEM_SHAPE_VOLUME>
309.7

> <PUBCHEM_COORDINATE_TYPE>
2
5
10

$$$$
