45361513
  -OEChem-12032416313D

 81 84  0     1  0  0  0  0  0999 V2000
   -0.0318   -0.5545    2.1536 O   0  0  0  0  0  0  0  0  0  0  0  0
   -4.7365   -2.4246    0.6145 O   0  0  0  0  0  0  0  0  0  0  0  0
    5.2552    1.2954   -1.8282 O   0  0  0  0  0  0  0  0  0  0  0  0
   -9.3596    3.1818   -0.8899 O   0  0  0  0  0  0  0  0  0  0  0  0
    4.5377   -0.6332   -0.7543 N   0  0  0  0  0  0  0  0  0  0  0  0
   -4.5998   -0.3843    1.7093 N   0  0  0  0  0  0  0  0  0  0  0  0
   -7.4213    1.2565   -0.0914 N   0  0  0  0  0  0  0  0  0  0  0  0
    0.4062   -1.5928   -1.4941 C   0  0  1  0  0  0  0  0  0  0  0  0
    0.7405   -0.8945   -0.1340 C   0  0  2  0  0  0  0  0  0  0  0  0
    2.2718   -1.0148    0.1947 C   0  0  1  0  0  0  0  0  0  0  0  0
   -0.2240   -1.3644    0.9928 C   0  0  2  0  0  0  0  0  0  0  0  0
   -1.0827   -1.3585   -1.8423 C   0  0  0  0  0  0  0  0  0  0  0  0
    1.2579   -0.9503   -2.6134 C   0  0  0  0  0  0  0  0  0  0  0  0
   -1.7127   -1.2246    0.5979 C   0  0  1  0  0  0  0  0  0  0  0  0
    3.1201   -0.4338   -0.9713 C   0  0  2  0  0  0  0  0  0  0  0  0
   -2.0315   -1.8533   -0.7585 C   0  0  0  0  0  0  0  0  0  0  0  0
    2.7533   -1.0132   -2.3371 C   0  0  0  0  0  0  0  0  0  0  0  0
    0.6756   -3.1186   -1.4604 C   0  0  0  0  0  0  0  0  0  0  0  0
   -2.6425   -1.8129    1.6664 C   0  0  2  0  0  0  0  0  0  0  0  0
    2.6760   -0.3234    1.5077 C   0  0  0  0  0  0  0  0  0  0  0  0
   -2.3348   -3.2918    1.8733 C   0  0  0  0  0  0  0  0  0  0  0  0
   -4.0983   -1.5987    1.2638 C   0  0  0  0  0  0  0  0  0  0  0  0
    5.4931    0.2619   -1.2084 C   0  0  0  0  0  0  0  0  0  0  0  0
    6.8932   -0.1889   -0.8390 C   0  0  0  0  0  0  0  0  0  0  0  0
   -5.9547    0.0439    1.4497 C   0  0  0  0  0  0  0  0  0  0  0  0
    7.6269    0.7963    0.0322 C   0  0  0  0  0  0  0  0  0  0  0  0
   -6.0455    0.8246    0.1468 C   0  0  0  0  0  0  0  0  0  0  0  0
    8.4025    1.7990   -0.5498 C   0  0  0  0  0  0  0  0  0  0  0  0
    7.5309    0.7063    1.4208 C   0  0  0  0  0  0  0  0  0  0  0  0
   -7.7638    2.4022    0.7627 C   0  0  0  0  0  0  0  0  0  0  0  0
   -7.6214    1.6047   -1.5050 C   0  0  0  0  0  0  0  0  0  0  0  0
    9.0822    2.7118    0.2569 C   0  0  0  0  0  0  0  0  0  0  0  0
    8.2105    1.6191    2.2275 C   0  0  0  0  0  0  0  0  0  0  0  0
   -9.1990    2.8417    0.4878 C   0  0  0  0  0  0  0  0  0  0  0  0
   -9.0598    2.0642   -1.7267 C   0  0  0  0  0  0  0  0  0  0  0  0
    8.9863    2.6217    1.6455 C   0  0  0  0  0  0  0  0  0  0  0  0
    0.5533    0.1837   -0.2630 H   0  0  0  0  0  0  0  0  0  0  0  0
    2.5257   -2.0753    0.3176 H   0  0  0  0  0  0  0  0  0  0  0  0
    0.0465   -2.3872    1.2612 H   0  0  0  0  0  0  0  0  0  0  0  0
   -1.2607   -0.2859   -1.9985 H   0  0  0  0  0  0  0  0  0  0  0  0
   -1.3334   -1.8506   -2.7909 H   0  0  0  0  0  0  0  0  0  0  0  0
    1.0510   -1.4366   -3.5752 H   0  0  0  0  0  0  0  0  0  0  0  0
    0.9725    0.1033   -2.7351 H   0  0  0  0  0  0  0  0  0  0  0  0
   -1.9396   -0.1506    0.5217 H   0  0  0  0  0  0  0  0  0  0  0  0
    2.9401    0.6496   -1.0108 H   0  0  0  0  0  0  0  0  0  0  0  0
   -1.9963   -2.9443   -0.7439 H   0  0  0  0  0  0  0  0  0  0  0  0
   -3.0435   -1.5832   -1.0808 H   0  0  0  0  0  0  0  0  0  0  0  0
    3.2815   -0.4643   -3.1276 H   0  0  0  0  0  0  0  0  0  0  0  0
    3.1078   -2.0481   -2.4165 H   0  0  0  0  0  0  0  0  0  0  0  0
    1.7285   -3.3603   -1.2950 H   0  0  0  0  0  0  0  0  0  0  0  0
    0.3882   -3.5814   -2.4119 H   0  0  0  0  0  0  0  0  0  0  0  0
    0.1140   -3.6254   -0.6707 H   0  0  0  0  0  0  0  0  0  0  0  0
   -2.4779   -1.3037    2.6248 H   0  0  0  0  0  0  0  0  0  0  0  0
    2.3097    0.7078    1.5431 H   0  0  0  0  0  0  0  0  0  0  0  0
    3.7628   -0.2932    1.6367 H   0  0  0  0  0  0  0  0  0  0  0  0
    2.2952   -0.8698    2.3751 H   0  0  0  0  0  0  0  0  0  0  0  0
    4.8287   -1.4967   -0.3057 H   0  0  0  0  0  0  0  0  0  0  0  0
   -0.2204    0.3685    1.9126 H   0  0  0  0  0  0  0  0  0  0  0  0
   -3.0534   -3.7068    2.5922 H   0  0  0  0  0  0  0  0  0  0  0  0
   -2.4364   -3.9068    0.9768 H   0  0  0  0  0  0  0  0  0  0  0  0
   -1.3489   -3.4636    2.3120 H   0  0  0  0  0  0  0  0  0  0  0  0
   -3.9941    0.2484    2.2236 H   0  0  0  0  0  0  0  0  0  0  0  0
    6.8843   -1.1693   -0.3473 H   0  0  0  0  0  0  0  0  0  0  0  0
    7.4432   -0.3428   -1.7764 H   0  0  0  0  0  0  0  0  0  0  0  0
   -6.6072   -0.8365    1.4194 H   0  0  0  0  0  0  0  0  0  0  0  0
   -6.2442    0.6484    2.3139 H   0  0  0  0  0  0  0  0  0  0  0  0
   -5.3448    1.6702    0.1436 H   0  0  0  0  0  0  0  0  0  0  0  0
   -5.7189    0.1562   -0.6615 H   0  0  0  0  0  0  0  0  0  0  0  0
    8.4839    1.8807   -1.6304 H   0  0  0  0  0  0  0  0  0  0  0  0
    6.9277   -0.0692    1.8854 H   0  0  0  0  0  0  0  0  0  0  0  0
   -7.0846    3.2418    0.5649 H   0  0  0  0  0  0  0  0  0  0  0  0
   -7.6900    2.1502    1.8247 H   0  0  0  0  0  0  0  0  0  0  0  0
   -6.9313    2.4061   -1.7995 H   0  0  0  0  0  0  0  0  0  0  0  0
   -7.4272    0.7359   -2.1444 H   0  0  0  0  0  0  0  0  0  0  0  0
    9.6858    3.4929   -0.1962 H   0  0  0  0  0  0  0  0  0  0  0  0
    8.1353    1.5495    3.3087 H   0  0  0  0  0  0  0  0  0  0  0  0
   -9.4361    3.7320    1.0792 H   0  0  0  0  0  0  0  0  0  0  0  0
   -9.9207    2.0616    0.7592 H   0  0  0  0  0  0  0  0  0  0  0  0
   -9.1936    2.3814   -2.7659 H   0  0  0  0  0  0  0  0  0  0  0  0
   -9.7769    1.2576   -1.5313 H   0  0  0  0  0  0  0  0  0  0  0  0
    9.5152    3.3325    2.2737 H   0  0  0  0  0  0  0  0  0  0  0  0
  1 11  1  0  0  0  0
  1 58  1  0  0  0  0
  2 22  2  0  0  0  0
  3 23  2  0  0  0  0
  4 34  1  0  0  0  0
  4 35  1  0  0  0  0
  5 15  1  0  0  0  0
  5 23  1  0  0  0  0
  5 57  1  0  0  0  0
  6 22  1  0  0  0  0
  6 25  1  0  0  0  0
  6 62  1  0  0  0  0
  7 27  1  0  0  0  0
  7 30  1  0  0  0  0
  7 31  1  0  0  0  0
  8  9  1  0  0  0  0
  8 12  1  0  0  0  0
  8 13  1  0  0  0  0
  8 18  1  0  0  0  0
  9 10  1  0  0  0  0
  9 11  1  0  0  0  0
  9 37  1  0  0  0  0
 10 15  1  0  0  0  0
 10 20  1  0  0  0  0
 10 38  1  0  0  0  0
 11 14  1  0  0  0  0
 11 39  1  0  0  0  0
 12 16  1  0  0  0  0
 12 40  1  0  0  0  0
 12 41  1  0  0  0  0
 13 17  1  0  0  0  0
 13 42  1  0  0  0  0
 13 43  1  0  0  0  0
 14 16  1  0  0  0  0
 14 19  1  0  0  0  0
 14 44  1  0  0  0  0
 15 17  1  0  0  0  0
 15 45  1  0  0  0  0
 16 46  1  0  0  0  0
 16 47  1  0  0  0  0
 17 48  1  0  0  0  0
 17 49  1  0  0  0  0
 18 50  1  0  0  0  0
 18 51  1  0  0  0  0
 18 52  1  0  0  0  0
 19 21  1  0  0  0  0
 19 22  1  0  0  0  0
 19 53  1  0  0  0  0
 20 54  1  0  0  0  0
 20 55  1  0  0  0  0
 20 56  1  0  0  0  0
 21 59  1  0  0  0  0
 21 60  1  0  0  0  0
 21 61  1  0  0  0  0
 23 24  1  0  0  0  0
 24 26  1  0  0  0  0
 24 63  1  0  0  0  0
 24 64  1  0  0  0  0
 25 27  1  0  0  0  0
 25 65  1  0  0  0  0
 25 66  1  0  0  0  0
 26 28  2  0  0  0  0
 26 29  1  0  0  0  0
 27 67  1  0  0  0  0
 27 68  1  0  0  0  0
 28 32  1  0  0  0  0
 28 69  1  0  0  0  0
 29 33  2  0  0  0  0
 29 70  1  0  0  0  0
 30 34  1  0  0  0  0
 30 71  1  0  0  0  0
 30 72  1  0  0  0  0
 31 35  1  0  0  0  0
 31 73  1  0  0  0  0
 31 74  1  0  0  0  0
 32 36  2  0  0  0  0
 32 75  1  0  0  0  0
 33 36  1  0  0  0  0
 33 76  1  0  0  0  0
 34 77  1  0  0  0  0
 34 78  1  0  0  0  0
 35 79  1  0  0  0  0
 35 80  1  0  0  0  0
 36 81  1  0  0  0  0
M  END
> <PUBCHEM_COMPOUND_CID>
45361513

> <PUBCHEM_CONFORMER_RMSD>
1.4

> <PUBCHEM_CONFORMER_DIVERSEORDER>
1
105
109
6
136
68
132
130
143
62
111
16
139
56
100
89
120
35
45
104
135
124
118
90
103
99
133
25
46
79
71
102
80
127
112
145
28
113
147
61
31
72
73
129
22
92
137
96
58
98
70
74
116
141
108
149
131
117
75
44
47
54
85
49
21
91
142
67
11
65
134
48
39
51
94
122
125
20
107
2
83
140
114
43
66
55
77
128
126
106
13
84
32
23
50
29
41
38
19
95
26
63
146
119
52
15
12
24
97
78
138
86
81
27
33
115
60
148
121
4
110
42
69
34
76
59
17
30
14
88
87
82
37
123
7
53
3
144
10
8
93
9
36
40
5
101
64
18
57

> <PUBCHEM_MMFF94_PARTIAL_CHARGES>
33
1 -0.68
11 0.28
15 0.3
19 0.06
2 -0.57
22 0.57
23 0.57
24 0.2
25 0.3
26 -0.14
27 0.27
28 -0.15
29 -0.15
3 -0.57
30 0.27
31 0.27
32 -0.15
33 -0.15
34 0.28
35 0.28
36 -0.15
4 -0.56
5 -0.73
57 0.37
58 0.4
6 -0.73
62 0.37
69 0.15
7 -0.81
70 0.15
75 0.15
76 0.15
81 0.15

> <PUBCHEM_EFFECTIVE_ROTOR_COUNT>
12.8

> <PUBCHEM_PHARMACOPHORE_FEATURES>
13
1 1 acceptor
1 1 donor
1 2 acceptor
1 21 hydrophobe
1 3 acceptor
1 4 acceptor
1 5 donor
1 6 donor
1 7 cation
6 26 28 29 32 33 36 rings
6 4 7 30 31 34 35 rings
6 8 9 10 13 15 17 rings
6 8 9 11 12 14 16 rings

> <PUBCHEM_HEAVY_ATOM_COUNT>
36

> <PUBCHEM_ATOM_DEF_STEREO_COUNT>
6

> <PUBCHEM_ATOM_UDEF_STEREO_COUNT>
1

> <PUBCHEM_BOND_DEF_STEREO_COUNT>
0

> <PUBCHEM_BOND_UDEF_STEREO_COUNT>
0

> <PUBCHEM_ISOTOPIC_ATOM_COUNT>
0

> <PUBCHEM_COMPONENT_COUNT>
1

> <PUBCHEM_CACTVS_TAUTO_COUNT>
4

> <PUBCHEM_CONFORMER_ID>
02B4296900000001

> <PUBCHEM_MMFF94_ENERGY>
91.236

> <PUBCHEM_FEATURE_SELFOVERLAP>
65.986

> <PUBCHEM_SHAPE_FINGERPRINT>
10029044 110 18201440230115829625
10190108 129 13406791121465367656
10258705 36 8430322341878037072
10280341 67 17895753986176860229
10429389 143 18343866623337268809
10533779 1 17968652723800435933
10533779 47 15430315772161790064
10625338 131 18041002855627299033
11456790 92 16081374063340830860
11478447 183 13901907779116970761
11578821 258 18338517577190311236
11607047 141 18188768320114445194
12539745 222 7781521426107575295
12838862 33 17132111360679100210
13383668 262 10807668761789888828
13383668 40 17968660398875572270
14040221 275 13263226711727558879
14040221 310 18410292563313559715
15274700 208 18334563673247059701
15274700 259 17988351586022083632
15350500 55 18413670214195601472
15419008 145 14634867514638368957
16991971 28 12391506486538990323
1818759 1 10159695807068613305
19246450 95 15719664391089726815
2026 5 8718558211588039784
20721686 146 18335139778035591372
20982279 24 12035716584312590976
21033648 29 18410012156933957782
21362857 166 13470418721620919052
22149856 69 17095521782691592146
23522609 53 16010465515126237814
23576562 1 17131542972221461016
306946 40 18272927241795317024
393628 179 18412543189672712593
3991529 202 17023173882891968992
4403749 210 18272091651101580087
4516262 110 17703793652860160798
45377200 153 10087637100376056908
4756326 101 18412538799830767469
4760202 170 17703788146491340600
5372103 7 18202565056011315709
54039377 194 11600001060011275609
6058803 2 15867480710655355991
6204607 403 17388552781546749860
636775 8 11312057651619437121
9980921 7 17702942664476675840
999808 66 12540692647669191234

> <PUBCHEM_SHAPE_MULTIPOLES>
702.44
32.59
3.5
2.43
4.77
0.76
0.16
46.45
-1.29
3.96
-0.22
-0.3
-0.63
4.67

> <PUBCHEM_SHAPE_SELFOVERLAP>
1455.962

> <PUBCHEM_SHAPE_VOLUME>
396.1

> <PUBCHEM_COORDINATE_TYPE>
2
5
10

$$$$
