11887237
  -OEChem-12032416123D

 50 55  0     1  0  0  0  0  0999 V2000
   -0.5916    3.2480    0.8974 O   0  0  0  0  0  0  0  0  0  0  0  0
   -0.1964    0.2153    1.6311 O   0  0  0  0  0  0  0  0  0  0  0  0
   -4.9186    0.8113    1.7679 O   0  0  0  0  0  0  0  0  0  0  0  0
    3.2320   -3.5509   -0.3745 O   0  0  0  0  0  0  0  0  0  0  0  0
    5.1029   -3.3380    1.1296 O   0  0  0  0  0  0  0  0  0  0  0  0
    2.0374    2.0168   -0.6282 N   0  0  0  0  0  0  0  0  0  0  0  0
   -3.0309    0.5657    0.4434 N   0  0  0  0  0  0  0  0  0  0  0  0
    1.7439    3.0421   -1.4341 N   0  0  0  0  0  0  0  0  0  0  0  0
    3.3934    1.8176   -2.3002 N   0  0  0  0  0  0  0  0  0  0  0  0
    2.5788    2.9159   -2.4584 N   0  0  0  0  0  0  0  0  0  0  0  0
    0.0488    0.9961    0.4471 C   0  0  1  0  0  0  0  0  0  0  0  0
   -1.0707    2.0134    0.3416 C   0  0  1  0  0  0  0  0  0  0  0  0
    1.3067    1.8246    0.6272 C   0  0  2  0  0  0  0  0  0  0  0  0
   -2.1752    1.4444    1.2035 C   0  0  2  0  0  0  0  0  0  0  0  0
    0.7850    3.1036    1.2729 C   0  0  0  0  0  0  0  0  0  0  0  0
   -1.3999    0.6785    2.2593 C   0  0  0  0  0  0  0  0  0  0  0  0
    3.0396    1.2758   -1.1575 C   0  0  0  0  0  0  0  0  0  0  0  0
   -4.3502    0.3204    0.7961 C   0  0  0  0  0  0  0  0  0  0  0  0
    3.6002    0.0979   -0.5466 C   0  0  0  0  0  0  0  0  0  0  0  0
   -5.0902   -0.6293   -0.0743 C   0  0  0  0  0  0  0  0  0  0  0  0
    3.0564   -1.1589   -0.8295 C   0  0  0  0  0  0  0  0  0  0  0  0
    4.6927    0.2197    0.3322 C   0  0  0  0  0  0  0  0  0  0  0  0
    3.6268   -2.2576   -0.2204 C   0  0  0  0  0  0  0  0  0  0  0  0
   -6.1368   -1.3490    0.4638 C   0  0  0  0  0  0  0  0  0  0  0  0
   -4.7069   -0.7612   -1.3927 C   0  0  0  0  0  0  0  0  0  0  0  0
    5.2518   -0.9092    0.9358 C   0  0  0  0  0  0  0  0  0  0  0  0
    4.6951   -2.1361    0.6385 C   0  0  0  0  0  0  0  0  0  0  0  0
   -6.8312   -2.2410   -0.3535 C   0  0  0  0  0  0  0  0  0  0  0  0
   -5.4014   -1.6530   -2.2100 C   0  0  0  0  0  0  0  0  0  0  0  0
    4.1719   -4.2298    0.4832 C   0  0  0  0  0  0  0  0  0  0  0  0
   -6.4636   -2.3929   -1.6904 C   0  0  0  0  0  0  0  0  0  0  0  0
    0.0760    0.3031   -0.3997 H   0  0  0  0  0  0  0  0  0  0  0  0
   -1.3675    2.2147   -0.6928 H   0  0  0  0  0  0  0  0  0  0  0  0
    2.0184    1.3550    1.3159 H   0  0  0  0  0  0  0  0  0  0  0  0
   -2.7924    2.2190    1.6714 H   0  0  0  0  0  0  0  0  0  0  0  0
    0.8072    3.0141    2.3650 H   0  0  0  0  0  0  0  0  0  0  0  0
    1.3368    4.0088    1.0025 H   0  0  0  0  0  0  0  0  0  0  0  0
   -1.1045    1.3368    3.0837 H   0  0  0  0  0  0  0  0  0  0  0  0
   -1.9417   -0.1753    2.6772 H   0  0  0  0  0  0  0  0  0  0  0  0
   -2.5952    0.0361   -0.3044 H   0  0  0  0  0  0  0  0  0  0  0  0
    2.2135   -1.2755   -1.5034 H   0  0  0  0  0  0  0  0  0  0  0  0
    5.1156    1.1977    0.5529 H   0  0  0  0  0  0  0  0  0  0  0  0
   -6.4322   -1.2463    1.5036 H   0  0  0  0  0  0  0  0  0  0  0  0
   -3.9095   -0.1798   -1.8437 H   0  0  0  0  0  0  0  0  0  0  0  0
    6.0931   -0.8178    1.6134 H   0  0  0  0  0  0  0  0  0  0  0  0
   -7.6577   -2.8179    0.0512 H   0  0  0  0  0  0  0  0  0  0  0  0
   -5.1207   -1.7659   -3.2532 H   0  0  0  0  0  0  0  0  0  0  0  0
    4.7369   -4.9519   -0.1175 H   0  0  0  0  0  0  0  0  0  0  0  0
    3.6140   -4.7737    1.2542 H   0  0  0  0  0  0  0  0  0  0  0  0
   -7.0053   -3.0861   -2.3271 H   0  0  0  0  0  0  0  0  0  0  0  0
  1 12  1  0  0  0  0
  1 15  1  0  0  0  0
  2 11  1  0  0  0  0
  2 16  1  0  0  0  0
  3 18  2  0  0  0  0
  4 23  1  0  0  0  0
  4 30  1  0  0  0  0
  5 27  1  0  0  0  0
  5 30  1  0  0  0  0
  6  8  1  0  0  0  0
  6 13  1  0  0  0  0
  6 17  1  0  0  0  0
  7 14  1  0  0  0  0
  7 18  1  0  0  0  0
  7 40  1  0  0  0  0
  8 10  2  0  0  0  0
  9 10  1  0  0  0  0
  9 17  2  0  0  0  0
 11 12  1  0  0  0  0
 11 13  1  0  0  0  0
 11 32  1  0  0  0  0
 12 14  1  0  0  0  0
 12 33  1  0  0  0  0
 13 15  1  0  0  0  0
 13 34  1  0  0  0  0
 14 16  1  0  0  0  0
 14 35  1  0  0  0  0
 15 36  1  0  0  0  0
 15 37  1  0  0  0  0
 16 38  1  0  0  0  0
 16 39  1  0  0  0  0
 17 19  1  0  0  0  0
 18 20  1  0  0  0  0
 19 21  2  0  0  0  0
 19 22  1  0  0  0  0
 20 24  2  0  0  0  0
 20 25  1  0  0  0  0
 21 23  1  0  0  0  0
 21 41  1  0  0  0  0
 22 26  2  0  0  0  0
 22 42  1  0  0  0  0
 23 27  2  0  0  0  0
 24 28  1  0  0  0  0
 24 43  1  0  0  0  0
 25 29  2  0  0  0  0
 25 44  1  0  0  0  0
 26 27  1  0  0  0  0
 26 45  1  0  0  0  0
 28 31  2  0  0  0  0
 28 46  1  0  0  0  0
 29 31  1  0  0  0  0
 29 47  1  0  0  0  0
 30 48  1  0  0  0  0
 30 49  1  0  0  0  0
 31 50  1  0  0  0  0
M  END
> <PUBCHEM_COMPOUND_CID>
11887237

> <PUBCHEM_CONFORMER_RMSD>
0.8

> <PUBCHEM_CONFORMER_DIVERSEORDER>
1
84
134
119
76
103
111
14
129
45
58
127
113
78
59
82
22
92
18
61
87
108
115
80
90
117
70
128
93
75
13
73
100
54
56
72
20
37
107
52
95
91
121
17
62
74
88
44
69
98
122
130
116
67
29
68
51
86
123
125
57
33
118
96
124
120
25
131
79
64
42
66
85
81
39
27
83
12
55
30
105
109
97
89
77
102
133
60
106
32
94
71
16
19
7
43
48
38
126
23
53
99
24
110
6
49
101
104
11
21
112
5
9
63
132
114
10
36
28
65
31
2
46
4
40
15
50
3
8
41
47
34
26
35

> <PUBCHEM_MMFF94_PARTIAL_CHARGES>
39
1 -0.56
11 0.28
12 0.28
13 0.26
14 0.3
15 0.28
16 0.28
17 0.13
18 0.54
19 0.05
2 -0.56
20 0.09
21 -0.15
22 -0.15
23 0.08
24 -0.15
25 -0.15
26 -0.15
27 0.08
28 -0.15
29 -0.15
3 -0.57
30 0.56
31 -0.15
4 -0.36
40 0.37
41 0.15
42 0.15
43 0.15
44 0.15
45 0.15
46 0.15
47 0.15
5 -0.36
50 0.15
6 0.31
7 -0.73
8 -0.42
9 -0.34

> <PUBCHEM_EFFECTIVE_ROTOR_COUNT>
6.8

> <PUBCHEM_PHARMACOPHORE_FEATURES>
13
1 1 acceptor
1 2 acceptor
1 3 acceptor
1 4 acceptor
1 5 acceptor
1 7 donor
3 6 9 17 cation
5 1 11 12 13 15 rings
5 2 11 12 14 16 rings
5 4 5 23 27 30 rings
5 6 8 9 10 17 rings
6 19 21 22 23 26 27 rings
6 20 24 25 28 29 31 rings

> <PUBCHEM_HEAVY_ATOM_COUNT>
31

> <PUBCHEM_ATOM_DEF_STEREO_COUNT>
4

> <PUBCHEM_ATOM_UDEF_STEREO_COUNT>
0

> <PUBCHEM_BOND_DEF_STEREO_COUNT>
0

> <PUBCHEM_BOND_UDEF_STEREO_COUNT>
0

> <PUBCHEM_ISOTOPIC_ATOM_COUNT>
0

> <PUBCHEM_COMPONENT_COUNT>
1

> <PUBCHEM_CACTVS_TAUTO_COUNT>
2

> <PUBCHEM_CONFORMER_ID>
00B5628500000001

> <PUBCHEM_MMFF94_ENERGY>
82.3387

> <PUBCHEM_FEATURE_SELFOVERLAP>
66.822

> <PUBCHEM_SHAPE_FINGERPRINT>
10556698 54 16300042698928093279
10622 236 18338234856186982315
10928967 22 18200883988684241303
11069576 57 18335994112014444606
11103572 155 18191037892772131883
11135609 149 18187629285405774692
11135926 11 17970370289147109972
11497681 19 18267868281991579126
11763715 3 18201451237663270608
11796584 16 17346330297339748585
11828532 37 15864356917016605523
12166972 35 18335698330148587062
12390115 104 10519110769420713936
12422481 6 17060059181788142447
12977781 61 18054191441820937569
131258 38 18129652136231766614
13782708 43 16951431930237452553
14150023 79 17768524237700784176
14347332 77 18272932752638777321
1454969 45 18261120656498532884
15119646 104 18411422817256144723
15163728 17 11891337504533958441
15250474 111 18342742961625495095
15264996 154 18342189859605648134
15419009 47 17898840250253045781
17134984 74 18194404613431845095
17492 89 18197498411957437962
17857418 61 18201438108174326055
19303781 99 18188496748462095298
19315092 285 18060134324033254714
19319366 153 18195808702781481484
20567600 247 18342172306453096443
20775438 99 18191857040690696011
20775530 9 18118133476472841730
21458453 9 14260479488226526335
21585483 132 17772450525737227967
21792938 131 17986661770897055487
23569914 152 17905854048359507591
25222932 49 17703502281403437860
3004659 81 17345205582901960429
314194 84 18340775913695229507
34797466 226 16661209290693084165
4015057 19 18113908181994009841
4017518 198 16681760962053763108
439807 62 18411697730045553815
46194498 28 17822002159686828301
463206 1 18412548725257420155
513532 50 17096072718693546220
5223283 242 17023179375917971285
57035037 87 13840271421096339270
59025328 239 18113621153667244644
59682541 52 18334849576481991623
6058803 2 18195552336195022048
613672 6 17968387741049183978
66674814 147 18334011670558419330
6669772 16 17981878949921014609
6677587 24 17173191476428572141

> <PUBCHEM_SHAPE_MULTIPOLES>
583.71
15.96
4.56
1.98
20.59
1.84
-0.7
16.84
-2.54
-5.11
-0.13
0.5
-0.9
-4.34

> <PUBCHEM_SHAPE_SELFOVERLAP>
1307.364

> <PUBCHEM_SHAPE_VOLUME>
310.4

> <PUBCHEM_COORDINATE_TYPE>
2
5
10

$$$$
