25390480
  -OEChem-12032416173D

 59 62  0     1  0  0  0  0  0999 V2000
    3.0743    0.3731   -1.0860 O   0  0  0  0  0  0  0  0  0  0  0  0
    5.3726    2.1294   -0.1438 O   0  0  0  0  0  0  0  0  0  0  0  0
    5.9958   -0.3492    0.8744 O   0  0  0  0  0  0  0  0  0  0  0  0
    0.7423    2.2247   -1.2716 O   0  0  0  0  0  0  0  0  0  0  0  0
    1.0317   -1.7622   -1.5418 O   0  0  0  0  0  0  0  0  0  0  0  0
   -3.6819   -1.8141   -1.6744 O   0  0  0  0  0  0  0  0  0  0  0  0
   -0.5954    1.7591    0.5833 N   0  0  0  0  0  0  0  0  0  0  0  0
    2.6816   -2.2136    0.0112 N   0  0  0  0  0  0  0  0  0  0  0  0
    0.4985   -2.4522    0.6377 N   0  0  0  0  0  0  0  0  0  0  0  0
    3.0639    1.5142   -0.1979 C   0  0  2  0  0  0  0  0  0  0  0  0
    4.3618    1.4495    0.5997 C   0  0  1  0  0  0  0  0  0  0  0  0
    4.6411   -0.0389    0.6273 C   0  0  1  0  0  0  0  0  0  0  0  0
    4.2055   -0.4564   -0.7673 C   0  0  1  0  0  0  0  0  0  0  0  0
    1.8213    1.4129    0.6763 C   0  0  0  0  0  0  0  0  0  0  0  0
    3.8096   -1.9191   -0.8617 C   0  0  0  0  0  0  0  0  0  0  0  0
    0.6047    1.8422   -0.1095 C   0  0  0  0  0  0  0  0  0  0  0  0
   -0.7576    1.2995    1.9787 C   0  0  0  0  0  0  0  0  0  0  0  0
   -1.8673    2.0996    0.0775 C   0  0  0  0  0  0  0  0  0  0  0  0
   -2.2496    1.3670    2.3226 C   0  0  0  0  0  0  0  0  0  0  0  0
   -2.8425    1.8865    1.0540 C   0  0  0  0  0  0  0  0  0  0  0  0
   -2.2166    2.5801   -1.1761 C   0  0  0  0  0  0  0  0  0  0  0  0
   -4.1817    2.1462    0.8045 C   0  0  0  0  0  0  0  0  0  0  0  0
    1.3585   -2.1089   -0.4092 C   0  0  0  0  0  0  0  0  0  0  0  0
   -3.5650    2.8453   -1.4360 C   0  0  0  0  0  0  0  0  0  0  0  0
   -4.5411    2.6298   -0.4533 C   0  0  0  0  0  0  0  0  0  0  0  0
   -0.9157   -2.4769    0.6268 C   0  0  0  0  0  0  0  0  0  0  0  0
   -1.6096   -2.1293   -0.5323 C   0  0  0  0  0  0  0  0  0  0  0  0
   -1.6163   -2.8474    1.7746 C   0  0  0  0  0  0  0  0  0  0  0  0
   -3.0042   -2.1523   -0.5434 C   0  0  0  0  0  0  0  0  0  0  0  0
   -3.0108   -2.8703    1.7634 C   0  0  0  0  0  0  0  0  0  0  0  0
   -3.7048   -2.5226    0.6044 C   0  0  0  0  0  0  0  0  0  0  0  0
   -2.9032   -1.4456   -2.8119 C   0  0  0  0  0  0  0  0  0  0  0  0
    3.0504    2.4164   -0.8202 H   0  0  0  0  0  0  0  0  0  0  0  0
    4.3170    1.9023    1.5942 H   0  0  0  0  0  0  0  0  0  0  0  0
    4.0287   -0.5071    1.4057 H   0  0  0  0  0  0  0  0  0  0  0  0
    4.9950   -0.2553   -1.5020 H   0  0  0  0  0  0  0  0  0  0  0  0
    1.9168    2.0881    1.5339 H   0  0  0  0  0  0  0  0  0  0  0  0
    1.6754    0.3913    1.0370 H   0  0  0  0  0  0  0  0  0  0  0  0
    4.6362   -2.5732   -0.5673 H   0  0  0  0  0  0  0  0  0  0  0  0
    3.5187   -2.1635   -1.8891 H   0  0  0  0  0  0  0  0  0  0  0  0
   -0.1675    1.9464    2.6373 H   0  0  0  0  0  0  0  0  0  0  0  0
   -0.3718    0.2793    2.0718 H   0  0  0  0  0  0  0  0  0  0  0  0
    5.1397    3.0735   -0.1554 H   0  0  0  0  0  0  0  0  0  0  0  0
    6.2375    0.0559    1.7246 H   0  0  0  0  0  0  0  0  0  0  0  0
   -2.4313    2.0514    3.1568 H   0  0  0  0  0  0  0  0  0  0  0  0
   -2.6430    0.3760    2.5681 H   0  0  0  0  0  0  0  0  0  0  0  0
    2.8744   -2.5135    0.9617 H   0  0  0  0  0  0  0  0  0  0  0  0
   -1.4897    2.7570   -1.9591 H   0  0  0  0  0  0  0  0  0  0  0  0
   -4.9360    1.9780    1.5657 H   0  0  0  0  0  0  0  0  0  0  0  0
   -3.8606    3.2218   -2.4117 H   0  0  0  0  0  0  0  0  0  0  0  0
   -5.5836    2.8407   -0.6743 H   0  0  0  0  0  0  0  0  0  0  0  0
    0.9332   -2.7158    1.5183 H   0  0  0  0  0  0  0  0  0  0  0  0
   -1.0760   -1.8408   -1.4191 H   0  0  0  0  0  0  0  0  0  0  0  0
   -1.0876   -3.1190    2.6847 H   0  0  0  0  0  0  0  0  0  0  0  0
   -3.5565   -3.1575    2.6574 H   0  0  0  0  0  0  0  0  0  0  0  0
   -4.7911   -2.5414    0.6021 H   0  0  0  0  0  0  0  0  0  0  0  0
   -3.6056   -1.2069   -3.6175 H   0  0  0  0  0  0  0  0  0  0  0  0
   -2.2863   -2.2782   -3.1669 H   0  0  0  0  0  0  0  0  0  0  0  0
   -2.3180   -0.5386   -2.6249 H   0  0  0  0  0  0  0  0  0  0  0  0
  1 10  1  0  0  0  0
  1 13  1  0  0  0  0
  2 11  1  0  0  0  0
  2 43  1  0  0  0  0
  3 12  1  0  0  0  0
  3 44  1  0  0  0  0
  4 16  2  0  0  0  0
  5 23  2  0  0  0  0
  6 29  1  0  0  0  0
  6 32  1  0  0  0  0
  7 16  1  0  0  0  0
  7 17  1  0  0  0  0
  7 18  1  0  0  0  0
  8 15  1  0  0  0  0
  8 23  1  0  0  0  0
  8 47  1  0  0  0  0
  9 23  1  0  0  0  0
  9 26  1  0  0  0  0
  9 52  1  0  0  0  0
 10 11  1  0  0  0  0
 10 14  1  0  0  0  0
 10 33  1  0  0  0  0
 11 12  1  0  0  0  0
 11 34  1  0  0  0  0
 12 13  1  0  0  0  0
 12 35  1  0  0  0  0
 13 15  1  0  0  0  0
 13 36  1  0  0  0  0
 14 16  1  0  0  0  0
 14 37  1  0  0  0  0
 14 38  1  0  0  0  0
 15 39  1  0  0  0  0
 15 40  1  0  0  0  0
 17 19  1  0  0  0  0
 17 41  1  0  0  0  0
 17 42  1  0  0  0  0
 18 20  1  0  0  0  0
 18 21  2  0  0  0  0
 19 20  1  0  0  0  0
 19 45  1  0  0  0  0
 19 46  1  0  0  0  0
 20 22  2  0  0  0  0
 21 24  1  0  0  0  0
 21 48  1  0  0  0  0
 22 25  1  0  0  0  0
 22 49  1  0  0  0  0
 24 25  2  0  0  0  0
 24 50  1  0  0  0  0
 25 51  1  0  0  0  0
 26 27  2  0  0  0  0
 26 28  1  0  0  0  0
 27 29  1  0  0  0  0
 27 53  1  0  0  0  0
 28 30  2  0  0  0  0
 28 54  1  0  0  0  0
 29 31  2  0  0  0  0
 30 31  1  0  0  0  0
 30 55  1  0  0  0  0
 31 56  1  0  0  0  0
 32 57  1  0  0  0  0
 32 58  1  0  0  0  0
 32 59  1  0  0  0  0
M  END
> <PUBCHEM_COMPOUND_CID>
25390480

> <PUBCHEM_CONFORMER_RMSD>
1.6

> <PUBCHEM_CONFORMER_DIVERSEORDER>
1
70
84
54
64
21
16
80
89
61
49
81
50
77
59
39
69
55
11
48
67
47
2
79
5
72
7
71
24
25
3
17
66
65
27
30
9
82
73
42
46
68
12
33
14
74
4
37
85
83
53
8
78
23
38
52
13
44
28
35
22
40
41
18
43
29
26
86
19
58
20
62
75
34
90
15
76
36
57
10
60
45
88
31
87
32
63
56
51
6

> <PUBCHEM_MMFF94_PARTIAL_CHARGES>
44
1 -0.56
10 0.28
11 0.28
12 0.28
13 0.28
14 0.06
15 0.3
16 0.57
17 0.3
18 0.12
19 0.14
2 -0.68
20 -0.14
21 -0.15
22 -0.15
23 0.69
24 -0.15
25 -0.15
26 0.12
27 -0.15
28 -0.15
29 0.08
3 -0.68
30 -0.15
31 -0.15
32 0.28
4 -0.57
43 0.4
44 0.4
47 0.37
48 0.15
49 0.15
5 -0.57
50 0.15
51 0.15
52 0.37
53 0.15
54 0.15
55 0.15
56 0.15
6 -0.36
7 -0.48
8 -0.73
9 -0.55

> <PUBCHEM_EFFECTIVE_ROTOR_COUNT>
10.6

> <PUBCHEM_PHARMACOPHORE_FEATURES>
14
1 1 acceptor
1 2 acceptor
1 2 donor
1 3 acceptor
1 3 donor
1 4 acceptor
1 5 acceptor
1 6 acceptor
1 8 donor
1 9 donor
5 1 10 11 12 13 rings
5 7 17 18 19 20 rings
6 18 20 21 22 24 25 rings
6 26 27 28 29 30 31 rings

> <PUBCHEM_HEAVY_ATOM_COUNT>
32

> <PUBCHEM_ATOM_DEF_STEREO_COUNT>
4

> <PUBCHEM_ATOM_UDEF_STEREO_COUNT>
0

> <PUBCHEM_BOND_DEF_STEREO_COUNT>
0

> <PUBCHEM_BOND_UDEF_STEREO_COUNT>
0

> <PUBCHEM_ISOTOPIC_ATOM_COUNT>
0

> <PUBCHEM_COMPONENT_COUNT>
1

> <PUBCHEM_CACTVS_TAUTO_COUNT>
3

> <PUBCHEM_CONFORMER_ID>
01836D9000000001

> <PUBCHEM_MMFF94_ENERGY>
101.912

> <PUBCHEM_FEATURE_SELFOVERLAP>
71.204

> <PUBCHEM_SHAPE_FINGERPRINT>
104564 63 18340487884461281387
10670039 82 18193299574930193868
10688039 33 18044946907015249051
1100329 8 18047747101238656450
11513181 2 18131638885055583054
12156800 1 15949845912680931859
12422481 6 18052292641490373763
12788726 201 18264199390922555344
13140716 1 18339086986710436610
14251751 93 18408606941991452345
14725015 67 18264765643954150147
15484559 13 17474103203330877213
15968369 153 18272653497801274219
17138139 8 17913453988383861421
17357779 13 18269834383793818738
17492 54 18050560747683880013
20764821 26 18335148582702704044
21236236 1 18413106191128103568
21304304 249 17975405829485920482
23227448 37 18337957788010111215
3027735 51 18340767130455746219
3052486 1 18263097612037103294
3298306 158 17972318417392437137
338550 245 18334585645782176717
38695281 34 18120091676670588689
460360 51 18260832588077434474
463206 1 18340202986116554445
469060 322 18117295833174685955
508706 21 18334863809312715210
5171179 24 17629465651981782584

> <PUBCHEM_SHAPE_MULTIPOLES>
608.39
9.93
4.59
1.94
10.9
1.12
0.2
-2.79
0.45
-4.26
-0.11
-1.93
0.43
0.64

> <PUBCHEM_SHAPE_SELFOVERLAP>
1308.805

> <PUBCHEM_SHAPE_VOLUME>
334.9

> <PUBCHEM_COORDINATE_TYPE>
2
5
10

$$$$
