11885145
  -OEChem-12032416213D

 57 62  0     1  0  0  0  0  0999 V2000
   -0.8142   -2.6874    1.0944 O   0  0  0  0  0  0  0  0  0  0  0  0
    3.0100    0.1597    2.7627 O   0  0  0  0  0  0  0  0  0  0  0  0
    3.7209   -0.7018    0.7317 N   0  0  0  0  0  0  0  0  0  0  0  0
    1.1254   -2.2711   -0.1321 N   0  0  0  0  0  0  0  0  0  0  0  0
    1.0012    5.9956   -1.5451 N   0  0  0  0  0  0  0  0  0  0  0  0
    3.4203   -3.1656    0.5739 C   0  0  1  0  0  0  0  0  0  0  0  0
    3.2146   -1.7768   -1.4485 C   0  0  2  0  0  0  0  0  0  0  0  0
    3.7453   -3.1064   -0.9149 C   0  0  0  0  0  0  0  0  0  0  0  0
    4.0889   -1.9931    1.3153 C   0  0  0  0  0  0  0  0  0  0  0  0
    1.8959   -3.1645    0.7458 C   0  0  0  0  0  0  0  0  0  0  0  0
    3.9200   -0.6104   -0.7254 C   0  0  0  0  0  0  0  0  0  0  0  0
    1.7155   -1.6662   -1.2447 C   0  0  0  0  0  0  0  0  0  0  0  0
    0.9670   -0.9540   -2.1020 C   0  0  0  0  0  0  0  0  0  0  0  0
   -0.2499   -2.1428    0.1440 C   0  0  0  0  0  0  0  0  0  0  0  0
    3.1506    0.2943    1.5461 C   0  0  0  0  0  0  0  0  0  0  0  0
   -1.0533   -1.2991   -0.8085 C   0  0  0  0  0  0  0  0  0  0  0  0
   -0.4374   -0.7660   -1.8741 C   0  0  0  0  0  0  0  0  0  0  0  0
    2.6924    1.5094    0.8869 C   0  0  0  0  0  0  0  0  0  0  0  0
   -2.4850   -1.0427   -0.5782 C   0  0  0  0  0  0  0  0  0  0  0  0
    1.3843    1.5917    0.4166 C   0  0  0  0  0  0  0  0  0  0  0  0
    3.5644    2.5839    0.7314 C   0  0  0  0  0  0  0  0  0  0  0  0
   -2.8846    0.0575    0.1819 C   0  0  0  0  0  0  0  0  0  0  0  0
   -3.4408   -1.8979   -1.1195 C   0  0  0  0  0  0  0  0  0  0  0  0
   -4.2462    0.3153    0.4102 C   0  0  0  0  0  0  0  0  0  0  0  0
   -4.7979   -1.6567   -0.9032 C   0  0  0  0  0  0  0  0  0  0  0  0
   -5.2172   -0.5544   -0.1406 C   0  0  0  0  0  0  0  0  0  0  0  0
    0.9453    2.7561   -0.2136 C   0  0  0  0  0  0  0  0  0  0  0  0
    3.1254    3.7484    0.1015 C   0  0  0  0  0  0  0  0  0  0  0  0
    1.8158    3.8345   -0.3711 C   0  0  0  0  0  0  0  0  0  0  0  0
   -4.6652    1.4180    1.1725 C   0  0  0  0  0  0  0  0  0  0  0  0
   -6.5787   -0.2964    0.0877 C   0  0  0  0  0  0  0  0  0  0  0  0
   -6.0222    1.6591    1.3892 C   0  0  0  0  0  0  0  0  0  0  0  0
   -6.9770    0.8034    0.8480 C   0  0  0  0  0  0  0  0  0  0  0  0
    1.3666    5.0264   -1.0186 C   0  0  0  0  0  0  0  0  0  0  0  0
    3.8155   -4.0961    0.9997 H   0  0  0  0  0  0  0  0  0  0  0  0
    3.4514   -1.7169   -2.5186 H   0  0  0  0  0  0  0  0  0  0  0  0
    3.2858   -3.9502   -1.4449 H   0  0  0  0  0  0  0  0  0  0  0  0
    4.8282   -3.1784   -1.0735 H   0  0  0  0  0  0  0  0  0  0  0  0
    3.8357   -2.0285    2.3799 H   0  0  0  0  0  0  0  0  0  0  0  0
    5.1799   -2.0770    1.2403 H   0  0  0  0  0  0  0  0  0  0  0  0
    1.5187   -4.1757    0.5408 H   0  0  0  0  0  0  0  0  0  0  0  0
    1.6281   -2.9483    1.7877 H   0  0  0  0  0  0  0  0  0  0  0  0
    5.0018   -0.6596   -0.9008 H   0  0  0  0  0  0  0  0  0  0  0  0
    3.5793    0.3477   -1.1249 H   0  0  0  0  0  0  0  0  0  0  0  0
    1.4039   -0.4614   -2.9642 H   0  0  0  0  0  0  0  0  0  0  0  0
   -0.9706   -0.1462   -2.5891 H   0  0  0  0  0  0  0  0  0  0  0  0
    0.6920    0.7693    0.5607 H   0  0  0  0  0  0  0  0  0  0  0  0
    4.5867    2.5266    1.0957 H   0  0  0  0  0  0  0  0  0  0  0  0
   -2.1320    0.7229    0.6033 H   0  0  0  0  0  0  0  0  0  0  0  0
   -3.1456   -2.7598   -1.7132 H   0  0  0  0  0  0  0  0  0  0  0  0
   -5.5268   -2.3387   -1.3360 H   0  0  0  0  0  0  0  0  0  0  0  0
   -0.0803    2.8092   -0.5713 H   0  0  0  0  0  0  0  0  0  0  0  0
    3.8160    4.5803   -0.0143 H   0  0  0  0  0  0  0  0  0  0  0  0
   -3.9363    2.1001    1.6051 H   0  0  0  0  0  0  0  0  0  0  0  0
   -7.3425   -0.9519   -0.3258 H   0  0  0  0  0  0  0  0  0  0  0  0
   -6.3330    2.5152    1.9809 H   0  0  0  0  0  0  0  0  0  0  0  0
   -8.0333    0.9917    1.0172 H   0  0  0  0  0  0  0  0  0  0  0  0
  1 14  2  0  0  0  0
  2 15  2  0  0  0  0
  3  9  1  0  0  0  0
  3 11  1  0  0  0  0
  3 15  1  0  0  0  0
  4 10  1  0  0  0  0
  4 12  1  0  0  0  0
  4 14  1  0  0  0  0
  5 34  3  0  0  0  0
  6  8  1  0  0  0  0
  6  9  1  0  0  0  0
  6 10  1  0  0  0  0
  6 35  1  0  0  0  0
  7  8  1  0  0  0  0
  7 11  1  0  0  0  0
  7 12  1  0  0  0  0
  7 36  1  0  0  0  0
  8 37  1  0  0  0  0
  8 38  1  0  0  0  0
  9 39  1  0  0  0  0
  9 40  1  0  0  0  0
 10 41  1  0  0  0  0
 10 42  1  0  0  0  0
 11 43  1  0  0  0  0
 11 44  1  0  0  0  0
 12 13  2  0  0  0  0
 13 17  1  0  0  0  0
 13 45  1  0  0  0  0
 14 16  1  0  0  0  0
 15 18  1  0  0  0  0
 16 17  2  0  0  0  0
 16 19  1  0  0  0  0
 17 46  1  0  0  0  0
 18 20  2  0  0  0  0
 18 21  1  0  0  0  0
 19 22  2  0  0  0  0
 19 23  1  0  0  0  0
 20 27  1  0  0  0  0
 20 47  1  0  0  0  0
 21 28  2  0  0  0  0
 21 48  1  0  0  0  0
 22 24  1  0  0  0  0
 22 49  1  0  0  0  0
 23 25  2  0  0  0  0
 23 50  1  0  0  0  0
 24 26  1  0  0  0  0
 24 30  2  0  0  0  0
 25 26  1  0  0  0  0
 25 51  1  0  0  0  0
 26 31  2  0  0  0  0
 27 29  2  0  0  0  0
 27 52  1  0  0  0  0
 28 29  1  0  0  0  0
 28 53  1  0  0  0  0
 29 34  1  0  0  0  0
 30 32  1  0  0  0  0
 30 54  1  0  0  0  0
 31 33  1  0  0  0  0
 31 55  1  0  0  0  0
 32 33  2  0  0  0  0
 32 56  1  0  0  0  0
 33 57  1  0  0  0  0
M  END
> <PUBCHEM_COMPOUND_CID>
11885145

> <PUBCHEM_CONFORMER_RMSD>
0.8

> <PUBCHEM_CONFORMER_DIVERSEORDER>
1
7
9
6
14
4
12
3
15
10
11
8
13
5
2

> <PUBCHEM_MMFF94_PARTIAL_CHARGES>
43
1 -0.57
10 0.3
11 0.3
12 -0.03
13 -0.15
14 0.62
15 0.54
16 -0.01
17 -0.15
18 0.09
19 0.03
2 -0.57
20 -0.15
21 -0.15
22 -0.15
23 -0.15
25 -0.15
27 -0.15
28 -0.15
29 0.07
3 -0.66
30 -0.15
31 -0.15
32 -0.15
33 -0.15
34 0.48
4 -0.47
45 0.15
46 0.15
47 0.15
48 0.15
49 0.15
5 -0.56
50 0.15
51 0.15
52 0.15
53 0.15
54 0.15
55 0.15
56 0.15
57 0.15
7 0.14
9 0.3

> <PUBCHEM_EFFECTIVE_ROTOR_COUNT>
4

> <PUBCHEM_PHARMACOPHORE_FEATURES>
9
1 1 acceptor
1 2 acceptor
1 5 acceptor
6 18 20 21 27 28 29 rings
6 19 22 23 24 25 26 rings
6 24 26 30 31 32 33 rings
6 3 6 7 8 9 11 rings
6 4 12 13 14 16 17 rings
6 4 6 7 8 10 12 rings

> <PUBCHEM_HEAVY_ATOM_COUNT>
34

> <PUBCHEM_ATOM_DEF_STEREO_COUNT>
2

> <PUBCHEM_ATOM_UDEF_STEREO_COUNT>
0

> <PUBCHEM_BOND_DEF_STEREO_COUNT>
0

> <PUBCHEM_BOND_UDEF_STEREO_COUNT>
0

> <PUBCHEM_ISOTOPIC_ATOM_COUNT>
0

> <PUBCHEM_COMPONENT_COUNT>
1

> <PUBCHEM_CACTVS_TAUTO_COUNT>
1

> <PUBCHEM_CONFORMER_ID>
00B55A5900000001

> <PUBCHEM_MMFF94_ENERGY>
101.5888

> <PUBCHEM_FEATURE_SELFOVERLAP>
47.298

> <PUBCHEM_SHAPE_FINGERPRINT>
10190108 129 18338505354240141538
10483366 6 18339098076864777532
10674148 151 18130510855652147108
10937287 8 17689151640121248428
11421498 54 17825956918714044570
12422481 6 18058999576092926539
12633257 1 18043508672907783610
12788726 201 17975428914634533942
13965767 371 17630859704514963186
14849402 71 18408891762441575340
15475509 84 17686897220139928002
16993438 75 17469887679786955609
17818456 19 17775289322613851577
20691752 17 18260541217116363095
20764821 26 18192999214370989269
21033648 29 17531237341199528711
21860390 5 18342457066895107534
22149856 69 16630260156286601235
23559900 14 16988012583151744823
245318 6 17755023338965846061
24771293 8 18272638070373881178
3103668 31 17761784970213894460
338550 245 18343867710412550249
3411729 13 18272090534382916676
345986 75 17752196185111505850
3493558 16 18272374200156744009
397830 11 18188783872422768755
4058900 60 18046070629415948508
4144715 1 18059021588291753503
474 4 18340197617549605919
513532 50 17060344032830686916
53794403 172 18264497350400622085
54076057 255 18263664925471608356
6086070 43 18118377615457260143
9896288 288 17326620700681245976
9981440 41 17907579477728353915

> <PUBCHEM_SHAPE_MULTIPOLES>
673.02
12.48
5.83
1.72
25.1
8.92
-0.09
-0.49
-4.06
-7.35
1.95
-0.94
-0.02
-1.4

> <PUBCHEM_SHAPE_SELFOVERLAP>
1511.992

> <PUBCHEM_SHAPE_VOLUME>
347.8

> <PUBCHEM_COORDINATE_TYPE>
2
5
10

$$$$
