25390274
  -OEChem-12032416173D

 48 49  0     1  0  0  0  0  0999 V2000
    2.7067    0.1032   -2.0919 S   0  0  0  0  0  0  0  0  0  0  0  0
   -1.4722    1.2383   -0.7007 O   0  0  0  0  0  0  0  0  0  0  0  0
   -1.5563    4.2492   -0.2695 O   0  0  0  0  0  0  0  0  0  0  0  0
   -2.2903    3.2261    2.1765 O   0  0  0  0  0  0  0  0  0  0  0  0
   -4.3695   -0.0192   -0.6501 O   0  0  0  0  0  0  0  0  0  0  0  0
    3.4210    1.3184   -2.4340 O   0  0  0  0  0  0  0  0  0  0  0  0
    2.6489   -0.9985   -3.0332 O   0  0  0  0  0  0  0  0  0  0  0  0
    1.1252    0.4986   -1.6027 N   0  0  0  0  0  0  0  0  0  0  0  0
   -4.1922   -1.6613    0.9849 N   0  0  0  0  0  0  0  0  0  0  0  0
   -0.4060    2.2132   -0.7631 C   0  0  1  0  0  0  0  0  0  0  0  0
   -0.7124    3.2539    0.3082 C   0  0  2  0  0  0  0  0  0  0  0  0
   -1.4817    2.4397    1.3278 C   0  0  2  0  0  0  0  0  0  0  0  0
   -2.3083    1.5327    0.4322 C   0  0  2  0  0  0  0  0  0  0  0  0
    0.9082    1.4820   -0.5255 C   0  0  0  0  0  0  0  0  0  0  0  0
   -2.7282    0.2395    1.1077 C   0  0  0  0  0  0  0  0  0  0  0  0
   -3.8478   -0.4681    0.3671 C   0  0  0  0  0  0  0  0  0  0  0  0
    3.3993   -0.5327   -0.5949 C   0  0  0  0  0  0  0  0  0  0  0  0
    3.3020   -1.8937   -0.3050 C   0  0  0  0  0  0  0  0  0  0  0  0
    4.0404    0.3265    0.2974 C   0  0  0  0  0  0  0  0  0  0  0  0
   -5.2309   -2.5352    0.4897 C   0  0  0  0  0  0  0  0  0  0  0  0
    3.8458   -2.3953    0.8773 C   0  0  0  0  0  0  0  0  0  0  0  0
    4.5843   -0.1753    1.4798 C   0  0  0  0  0  0  0  0  0  0  0  0
    4.4872   -1.5362    1.7698 C   0  0  0  0  0  0  0  0  0  0  0  0
    5.0688   -2.0728    3.0338 C   0  0  0  0  0  0  0  0  0  0  0  0
   -4.6908   -3.5141   -0.4533 C   0  0  0  0  0  0  0  0  0  0  0  0
   -4.2513   -4.3190   -1.2282 C   0  0  0  0  0  0  0  0  0  0  0  0
   -0.4207    2.6454   -1.7706 H   0  0  0  0  0  0  0  0  0  0  0  0
    0.1646    3.7573    0.7250 H   0  0  0  0  0  0  0  0  0  0  0  0
   -0.7898    1.8508    1.9422 H   0  0  0  0  0  0  0  0  0  0  0  0
   -3.1906    2.0739    0.0666 H   0  0  0  0  0  0  0  0  0  0  0  0
    0.8841    0.9350    0.4230 H   0  0  0  0  0  0  0  0  0  0  0  0
    1.7269    2.2075   -0.4998 H   0  0  0  0  0  0  0  0  0  0  0  0
   -3.0935    0.4450    2.1212 H   0  0  0  0  0  0  0  0  0  0  0  0
   -1.8785   -0.4507    1.1769 H   0  0  0  0  0  0  0  0  0  0  0  0
    0.3886   -0.2092   -1.7149 H   0  0  0  0  0  0  0  0  0  0  0  0
   -1.0331    4.7198   -0.9407 H   0  0  0  0  0  0  0  0  0  0  0  0
   -1.7074    3.8579    2.6310 H   0  0  0  0  0  0  0  0  0  0  0  0
   -3.6867   -1.9521    1.8170 H   0  0  0  0  0  0  0  0  0  0  0  0
    2.8005   -2.5794   -0.9819 H   0  0  0  0  0  0  0  0  0  0  0  0
    4.1253    1.3899    0.0930 H   0  0  0  0  0  0  0  0  0  0  0  0
   -5.6719   -3.0376    1.3563 H   0  0  0  0  0  0  0  0  0  0  0  0
   -6.0107   -1.9325    0.0126 H   0  0  0  0  0  0  0  0  0  0  0  0
    3.7637   -3.4575    1.0922 H   0  0  0  0  0  0  0  0  0  0  0  0
    5.0824    0.5039    2.1666 H   0  0  0  0  0  0  0  0  0  0  0  0
    6.1080   -2.3753    2.8705 H   0  0  0  0  0  0  0  0  0  0  0  0
    5.0430   -1.3219    3.8308 H   0  0  0  0  0  0  0  0  0  0  0  0
    4.5031   -2.9395    3.3924 H   0  0  0  0  0  0  0  0  0  0  0  0
   -3.8612   -5.0327   -1.9157 H   0  0  0  0  0  0  0  0  0  0  0  0
  1  6  2  0  0  0  0
  1  7  2  0  0  0  0
  1  8  1  0  0  0  0
  1 17  1  0  0  0  0
  2 10  1  0  0  0  0
  2 13  1  0  0  0  0
  3 11  1  0  0  0  0
  3 36  1  0  0  0  0
  4 12  1  0  0  0  0
  4 37  1  0  0  0  0
  5 16  2  0  0  0  0
  8 14  1  0  0  0  0
  8 35  1  0  0  0  0
  9 16  1  0  0  0  0
  9 20  1  0  0  0  0
  9 38  1  0  0  0  0
 10 11  1  0  0  0  0
 10 14  1  0  0  0  0
 10 27  1  0  0  0  0
 11 12  1  0  0  0  0
 11 28  1  0  0  0  0
 12 13  1  0  0  0  0
 12 29  1  0  0  0  0
 13 15  1  0  0  0  0
 13 30  1  0  0  0  0
 14 31  1  0  0  0  0
 14 32  1  0  0  0  0
 15 16  1  0  0  0  0
 15 33  1  0  0  0  0
 15 34  1  0  0  0  0
 17 18  2  0  0  0  0
 17 19  1  0  0  0  0
 18 21  1  0  0  0  0
 18 39  1  0  0  0  0
 19 22  2  0  0  0  0
 19 40  1  0  0  0  0
 20 25  1  0  0  0  0
 20 41  1  0  0  0  0
 20 42  1  0  0  0  0
 21 23  2  0  0  0  0
 21 43  1  0  0  0  0
 22 23  1  0  0  0  0
 22 44  1  0  0  0  0
 23 24  1  0  0  0  0
 24 45  1  0  0  0  0
 24 46  1  0  0  0  0
 24 47  1  0  0  0  0
 25 26  3  0  0  0  0
 26 48  1  0  0  0  0
M  END
> <PUBCHEM_COMPOUND_CID>
25390274

> <PUBCHEM_CONFORMER_RMSD>
1.2

> <PUBCHEM_CONFORMER_DIVERSEORDER>
1
62
123
57
45
68
16
15
131
24
86
116
34
72
91
43
75
110
81
122
80
128
65
130
99
52
41
3
4
64
53
138
90
51
50
124
71
142
66
106
119
135
18
55
32
105
22
84
103
94
134
121
125
95
60
78
76
113
87
20
132
114
17
70
47
117
133
46
100
14
11
88
69
89
92
129
77
127
38
111
19
141
28
73
12
120
137
101
136
31
59
97
58
6
27
9
44
56
29
83
40
85
25
61
42
33
140
36
82
112
96
118
102
98
126
48
93
35
10
108
54
37
109
104
49
139
74
13
7
107
21
30
8
5
23
63
26
115
2
79
67
39

> <PUBCHEM_MMFF94_PARTIAL_CHARGES>
35
1 1.45
10 0.28
11 0.28
12 0.28
13 0.28
14 0.36
15 0.06
16 0.57
17 -0.01
18 -0.15
19 -0.15
2 -0.56
20 0.5
21 -0.15
22 -0.15
23 -0.14
24 0.14
25 -0.2
26 -0.18
3 -0.68
35 0.42
36 0.4
37 0.4
38 0.37
39 0.15
4 -0.68
40 0.15
43 0.15
44 0.15
48 0.18
5 -0.57
6 -0.65
7 -0.65
8 -0.91
9 -0.73

> <PUBCHEM_EFFECTIVE_ROTOR_COUNT>
9

> <PUBCHEM_PHARMACOPHORE_FEATURES>
13
1 2 acceptor
1 26 hydrophobe
1 3 acceptor
1 3 donor
1 4 acceptor
1 4 donor
1 5 acceptor
1 6 acceptor
1 7 acceptor
1 8 donor
1 9 donor
5 2 10 11 12 13 rings
6 17 18 19 21 22 23 rings

> <PUBCHEM_HEAVY_ATOM_COUNT>
26

> <PUBCHEM_ATOM_DEF_STEREO_COUNT>
4

> <PUBCHEM_ATOM_UDEF_STEREO_COUNT>
0

> <PUBCHEM_BOND_DEF_STEREO_COUNT>
0

> <PUBCHEM_BOND_UDEF_STEREO_COUNT>
0

> <PUBCHEM_ISOTOPIC_ATOM_COUNT>
0

> <PUBCHEM_COMPONENT_COUNT>
1

> <PUBCHEM_CACTVS_TAUTO_COUNT>
2

> <PUBCHEM_CONFORMER_ID>
01836CC200000001

> <PUBCHEM_MMFF94_ENERGY>
42.9337

> <PUBCHEM_FEATURE_SELFOVERLAP>
66.003

> <PUBCHEM_SHAPE_FINGERPRINT>
10074138 170 18058176020984483961
10622 236 18041271101972908603
11069576 57 17821732771175979630
11552529 35 18269273469870888120
12523318 42 18267853991458511752
12549972 3 16913983465764200812
13583140 156 17984962818666322384
13828863 39 13973674096097428618
14508693 111 18337677541072768362
14848178 5 18186794781655092675
14950920 106 15051464764582798743
15003188 105 18121784099384220551
19032999 76 18335969926494762802
20567600 70 18125721438017984471
20645477 70 15502960553175523932
20775530 9 18123764307689743567
21049683 118 16980972242653205201
21458453 9 16843019065109406642
22122407 14 14116974413393216579
23559900 14 17842578248765240764
25222932 49 18195242454282633470
4394409 98 18265312011672299159
46194498 28 12614767820180303638
463206 1 18189056546231157723
49207404 50 17417243209473126012
59025328 239 17022895770468481958
5924683 9 18264200314377655152
613672 6 18131071563083494671

> <PUBCHEM_SHAPE_MULTIPOLES>
493.74
12.1
4.99
2.45
1.95
0.22
0.41
-13.99
-3.83
6.84
-0.55
-3.54
-0.42
-3.55

> <PUBCHEM_SHAPE_SELFOVERLAP>
1005.688

> <PUBCHEM_SHAPE_VOLUME>
286.1

> <PUBCHEM_COORDINATE_TYPE>
2
5
10

$$$$
