40474972
  -OEChem-12032416123D

 59 64  0     1  0  0  0  0  0999 V2000
    0.5738    3.5308    0.3112 S   0  0  0  0  0  0  0  0  0  0  0  0
    4.6581    1.2452    1.1844 O   0  0  0  0  0  0  0  0  0  0  0  0
    3.4551    0.5516   -1.6165 O   0  0  0  0  0  0  0  0  0  0  0  0
    0.7931    4.1959   -0.9582 O   0  0  0  0  0  0  0  0  0  0  0  0
   -0.0606    4.2273    1.4138 O   0  0  0  0  0  0  0  0  0  0  0  0
    1.5674   -1.6319   -0.7926 O   0  0  0  0  0  0  0  0  0  0  0  0
    2.0327    2.8568    0.8749 N   0  0  0  0  0  0  0  0  0  0  0  0
    3.6633   -2.1802    0.1779 N   0  0  0  0  0  0  0  0  0  0  0  0
    4.2291   -3.2546    0.7454 N   0  0  0  0  0  0  0  0  0  0  0  0
    2.1429   -3.7253    0.1157 N   0  0  0  0  0  0  0  0  0  0  0  0
    3.2945   -4.1964    0.7048 N   0  0  0  0  0  0  0  0  0  0  0  0
   -3.9213   -2.1688    0.0383 N   0  0  0  0  0  0  0  0  0  0  0  0
   -5.8445   -2.4671    1.1078 N   0  0  0  0  0  0  0  0  0  0  0  0
    2.8740    0.9167   -0.3545 C   0  0  1  0  0  0  0  0  0  0  0  0
    3.7057    0.2651    0.7332 C   0  0  1  0  0  0  0  0  0  0  0  0
    3.0401    2.3973   -0.1123 C   0  0  2  0  0  0  0  0  0  0  0  0
    4.4247   -0.8753    0.0339 C   0  0  2  0  0  0  0  0  0  0  0  0
    4.4251    2.4832    0.4977 C   0  0  0  0  0  0  0  0  0  0  0  0
    4.5537   -0.3426   -1.3902 C   0  0  0  0  0  0  0  0  0  0  0  0
    2.3932   -2.4761   -0.2025 C   0  0  0  0  0  0  0  0  0  0  0  0
   -0.3710    2.0567    0.0004 C   0  0  0  0  0  0  0  0  0  0  0  0
   -1.8183    2.4406   -0.0298 C   0  0  0  0  0  0  0  0  0  0  0  0
   -2.3341    3.1324   -1.1257 C   0  0  0  0  0  0  0  0  0  0  0  0
   -2.6505    2.1063    1.0385 C   0  0  0  0  0  0  0  0  0  0  0  0
    0.1853   -1.7667   -0.5832 C   0  0  0  0  0  0  0  0  0  0  0  0
   -3.6822    3.4900   -1.1533 C   0  0  0  0  0  0  0  0  0  0  0  0
   -3.9985    2.4636    1.0108 C   0  0  0  0  0  0  0  0  0  0  0  0
   -0.6947   -1.6838   -1.6623 C   0  0  0  0  0  0  0  0  0  0  0  0
   -0.3074   -1.9834    0.7036 C   0  0  0  0  0  0  0  0  0  0  0  0
   -4.5143    3.1556   -0.0850 C   0  0  0  0  0  0  0  0  0  0  0  0
   -2.0674   -1.8176   -1.4545 C   0  0  0  0  0  0  0  0  0  0  0  0
   -1.6801   -2.1172    0.9114 C   0  0  0  0  0  0  0  0  0  0  0  0
   -2.5603   -2.0344   -0.1676 C   0  0  0  0  0  0  0  0  0  0  0  0
   -4.8946   -2.1116   -0.9191 C   0  0  0  0  0  0  0  0  0  0  0  0
   -4.5392   -2.3837    1.2387 C   0  0  0  0  0  0  0  0  0  0  0  0
   -6.0727   -2.2984   -0.2350 C   0  0  0  0  0  0  0  0  0  0  0  0
    1.8353    0.6045   -0.3555 H   0  0  0  0  0  0  0  0  0  0  0  0
    3.1130   -0.0383    1.6023 H   0  0  0  0  0  0  0  0  0  0  0  0
    2.9983    3.0041   -1.0209 H   0  0  0  0  0  0  0  0  0  0  0  0
    5.4138   -1.0849    0.4576 H   0  0  0  0  0  0  0  0  0  0  0  0
    5.1913    2.5719   -0.2804 H   0  0  0  0  0  0  0  0  0  0  0  0
    4.5485    3.3142    1.1989 H   0  0  0  0  0  0  0  0  0  0  0  0
    5.4757    0.2372   -1.5067 H   0  0  0  0  0  0  0  0  0  0  0  0
    4.5407   -1.1299   -2.1496 H   0  0  0  0  0  0  0  0  0  0  0  0
    2.0274    2.3603    1.7749 H   0  0  0  0  0  0  0  0  0  0  0  0
   -0.0602    1.6213   -0.9527 H   0  0  0  0  0  0  0  0  0  0  0  0
   -0.1745    1.3473    0.8100 H   0  0  0  0  0  0  0  0  0  0  0  0
   -1.7009    3.3918   -1.9697 H   0  0  0  0  0  0  0  0  0  0  0  0
   -2.2626    1.5673    1.8987 H   0  0  0  0  0  0  0  0  0  0  0  0
   -4.0844    4.0266   -2.0076 H   0  0  0  0  0  0  0  0  0  0  0  0
   -4.6467    2.2021    1.8421 H   0  0  0  0  0  0  0  0  0  0  0  0
   -0.3146   -1.5138   -2.6658 H   0  0  0  0  0  0  0  0  0  0  0  0
    0.3581   -2.0312    1.5614 H   0  0  0  0  0  0  0  0  0  0  0  0
   -5.5641    3.4330   -0.1069 H   0  0  0  0  0  0  0  0  0  0  0  0
   -2.7008   -1.7429   -2.3318 H   0  0  0  0  0  0  0  0  0  0  0  0
   -2.0021   -2.2788    1.9344 H   0  0  0  0  0  0  0  0  0  0  0  0
   -4.7236   -1.9514   -1.9735 H   0  0  0  0  0  0  0  0  0  0  0  0
   -4.0341   -2.4762    2.1899 H   0  0  0  0  0  0  0  0  0  0  0  0
   -7.0735   -2.3196   -0.6410 H   0  0  0  0  0  0  0  0  0  0  0  0
  1  4  2  0  0  0  0
  1  5  2  0  0  0  0
  1  7  1  0  0  0  0
  1 21  1  0  0  0  0
  2 15  1  0  0  0  0
  2 18  1  0  0  0  0
  3 14  1  0  0  0  0
  3 19  1  0  0  0  0
  6 20  1  0  0  0  0
  6 25  1  0  0  0  0
  7 16  1  0  0  0  0
  7 45  1  0  0  0  0
  8  9  1  0  0  0  0
  8 17  1  0  0  0  0
  8 20  1  0  0  0  0
  9 11  2  0  0  0  0
 10 11  1  0  0  0  0
 10 20  2  0  0  0  0
 12 33  1  0  0  0  0
 12 34  1  0  0  0  0
 12 35  1  0  0  0  0
 13 35  2  0  0  0  0
 13 36  1  0  0  0  0
 14 15  1  0  0  0  0
 14 16  1  0  0  0  0
 14 37  1  0  0  0  0
 15 17  1  0  0  0  0
 15 38  1  0  0  0  0
 16 18  1  0  0  0  0
 16 39  1  0  0  0  0
 17 19  1  0  0  0  0
 17 40  1  0  0  0  0
 18 41  1  0  0  0  0
 18 42  1  0  0  0  0
 19 43  1  0  0  0  0
 19 44  1  0  0  0  0
 21 22  1  0  0  0  0
 21 46  1  0  0  0  0
 21 47  1  0  0  0  0
 22 23  2  0  0  0  0
 22 24  1  0  0  0  0
 23 26  1  0  0  0  0
 23 48  1  0  0  0  0
 24 27  2  0  0  0  0
 24 49  1  0  0  0  0
 25 28  2  0  0  0  0
 25 29  1  0  0  0  0
 26 30  2  0  0  0  0
 26 50  1  0  0  0  0
 27 30  1  0  0  0  0
 27 51  1  0  0  0  0
 28 31  1  0  0  0  0
 28 52  1  0  0  0  0
 29 32  2  0  0  0  0
 29 53  1  0  0  0  0
 30 54  1  0  0  0  0
 31 33  2  0  0  0  0
 31 55  1  0  0  0  0
 32 33  1  0  0  0  0
 32 56  1  0  0  0  0
 34 36  2  0  0  0  0
 34 57  1  0  0  0  0
 35 58  1  0  0  0  0
 36 59  1  0  0  0  0
M  END
> <PUBCHEM_COMPOUND_CID>
40474972

> <PUBCHEM_CONFORMER_RMSD>
1.2

> <PUBCHEM_CONFORMER_DIVERSEORDER>
1
12
17
53
24
90
46
106
88
79
25
58
32
7
38
44
114
103
48
6
28
96
113
51
115
85
119
116
98
83
59
67
54
78
49
120
97
117
87
80
73
61
16
105
104
64
93
65
102
55
14
11
71
22
63
111
30
36
109
76
89
74
33
118
18
15
57
47
101
45
77
20
86
34
92
108
42
26
19
81
75
52
40
95
94
66
13
10
50
82
56
23
99
37
4
107
68
39
70
112
41
2
43
72
69
21
5
110
60
91
62
8
29
3
31
9
100
27
35
84

> <PUBCHEM_MMFF94_PARTIAL_CHARGES>
48
1 1.33
10 -0.34
12 0.33
13 -0.57
14 0.28
15 0.28
16 0.36
17 0.26
18 0.28
19 0.28
2 -0.56
20 0.25
21 0.25
22 -0.14
23 -0.15
24 -0.15
25 0.08
26 -0.15
27 -0.15
28 -0.15
29 -0.15
3 -0.56
30 -0.15
31 -0.15
32 -0.15
33 -0.02
34 -0.3
35 0.04
36 0.08
4 -0.65
45 0.42
48 0.15
49 0.15
5 -0.65
50 0.15
51 0.15
52 0.15
53 0.15
54 0.15
55 0.15
56 0.15
57 0.15
58 0.15
59 0.15
6 -0.15
7 -0.91
8 0.31
9 -0.42

> <PUBCHEM_EFFECTIVE_ROTOR_COUNT>
9.2

> <PUBCHEM_PHARMACOPHORE_FEATURES>
13
1 2 acceptor
1 3 acceptor
1 4 acceptor
1 5 acceptor
1 7 donor
3 12 13 35 cation
3 8 10 20 cation
5 12 13 34 35 36 rings
5 2 14 15 16 18 rings
5 3 14 15 17 19 rings
5 8 9 10 11 20 rings
6 22 23 24 26 27 30 rings
6 25 28 29 31 32 33 rings

> <PUBCHEM_HEAVY_ATOM_COUNT>
36

> <PUBCHEM_ATOM_DEF_STEREO_COUNT>
4

> <PUBCHEM_ATOM_UDEF_STEREO_COUNT>
0

> <PUBCHEM_BOND_DEF_STEREO_COUNT>
0

> <PUBCHEM_BOND_UDEF_STEREO_COUNT>
0

> <PUBCHEM_ISOTOPIC_ATOM_COUNT>
0

> <PUBCHEM_COMPONENT_COUNT>
1

> <PUBCHEM_CACTVS_TAUTO_COUNT>
1

> <PUBCHEM_CONFORMER_ID>
0269995C00000001

> <PUBCHEM_MMFF94_ENERGY>
90.3241

> <PUBCHEM_FEATURE_SELFOVERLAP>
66.692

> <PUBCHEM_SHAPE_FINGERPRINT>
10006869 2 18342737408195760743
10190108 129 18264791989583834163
10675989 125 18050848020281527189
10864689 126 17618511978444633645
1100329 8 18121776123713899335
11578080 2 17272252874545270450
12422481 6 18197803127254823865
12788726 201 18194691585814168341
131258 38 18115581531486607410
13140716 1 18267863891442531086
1361 2 17545876492014381827
140371 6 18115317811630060279
14725015 67 18265602363548948361
14840074 17 17987525981996961687
15276724 80 18411140204582878095
15320467 1 18266457792158762689
15351339 4 18335405873341050675
15483637 11 18337388245456178309
15484559 13 17620177747050695557
15815584 197 17978528742777005503
15968369 153 18130492116166139021
16112460 7 18270129990210043833
20764821 26 18338802212607888520
21133410 90 17274809238689225945
3027735 51 18340203111155552209
373842 8 18411692167471522355
392239 28 17979359660045131817
463206 1 18196084439423797860
469060 322 18187938321404083037
57527573 199 17763179542496465092

> <PUBCHEM_SHAPE_MULTIPOLES>
680.5
11.5
6.72
1.33
4.63
2.61
0.2
-5.02
-1.1
1.85
-0.69
0.27
0.07
0.44

> <PUBCHEM_SHAPE_SELFOVERLAP>
1485.992

> <PUBCHEM_SHAPE_VOLUME>
371.7

> <PUBCHEM_COORDINATE_TYPE>
2
5
10

$$$$
