38028154
  -OEChem-12032416253D

 70 72  0     1  0  0  0  0  0999 V2000
    3.1395    3.0351    0.3580 O   0  0  0  0  0  0  0  0  0  0  0  0
   -1.1015    4.7895   -1.4846 O   0  0  0  0  0  0  0  0  0  0  0  0
    0.1135   -3.3707   -1.8705 O   0  0  0  0  0  0  0  0  0  0  0  0
   -5.1099    0.8417    1.6421 O   0  0  0  0  0  0  0  0  0  0  0  0
    0.6172   -2.9230    0.3502 N   0  0  0  0  0  0  0  0  0  0  0  0
    0.8861    3.4884    0.0310 N   0  0  0  0  0  0  0  0  0  0  0  0
   -5.3934   -0.7305   -0.0919 N   0  0  0  0  0  0  0  0  0  0  0  0
    2.9719   -1.2021   -0.3828 C   0  0  1  0  0  0  0  0  0  0  0  0
    2.9540   -2.3156    0.6943 C   0  0  1  0  0  0  0  0  0  0  0  0
    3.6268    0.0714    0.1734 C   0  0  0  0  0  0  0  0  0  0  0  0
    2.8940    0.6077    1.4177 C   0  0  2  0  0  0  0  0  0  0  0  0
    3.7039   -1.6501   -1.6517 C   0  0  0  0  0  0  0  0  0  0  0  0
    2.6000   -0.4935    2.4162 C   0  0  0  0  0  0  0  0  0  0  0  0
    2.6449   -1.7944    2.0782 C   0  0  0  0  0  0  0  0  0  0  0  0
    1.9567   -3.4213    0.3304 C   0  0  0  0  0  0  0  0  0  0  0  0
    1.6115    1.3501    1.0261 C   0  0  0  0  0  0  0  0  0  0  0  0
    3.2189   -0.8499   -2.8563 C   0  0  0  0  0  0  0  0  0  0  0  0
    5.2118   -1.5028   -1.4760 C   0  0  0  0  0  0  0  0  0  0  0  0
    2.2975   -0.0663    3.8255 C   0  0  0  0  0  0  0  0  0  0  0  0
    1.9562    2.6981    0.4448 C   0  0  0  0  0  0  0  0  0  0  0  0
    1.1320    4.8086   -0.5489 C   0  0  0  0  0  0  0  0  0  0  0  0
   -0.5323    3.1748    0.2345 C   0  0  0  0  0  0  0  0  0  0  0  0
   -0.2140   -2.9365   -0.7693 C   0  0  0  0  0  0  0  0  0  0  0  0
    0.2776    5.0093   -1.7924 C   0  0  0  0  0  0  0  0  0  0  0  0
   -1.3209    3.4481   -1.0402 C   0  0  0  0  0  0  0  0  0  0  0  0
   -1.5705   -2.3576   -0.5916 C   0  0  0  0  0  0  0  0  0  0  0  0
   -2.6262   -2.7992   -1.3894 C   0  0  0  0  0  0  0  0  0  0  0  0
   -1.7893   -1.3736    0.3725 C   0  0  0  0  0  0  0  0  0  0  0  0
   -3.9004   -2.2566   -1.2232 C   0  0  0  0  0  0  0  0  0  0  0  0
   -3.0634   -0.8308    0.5387 C   0  0  0  0  0  0  0  0  0  0  0  0
   -4.1189   -1.2723   -0.2591 C   0  0  0  0  0  0  0  0  0  0  0  0
   -5.8019    0.2565    0.8153 C   0  0  0  0  0  0  0  0  0  0  0  0
   -7.2713    0.5676    0.6791 C   0  0  0  0  0  0  0  0  0  0  0  0
    1.9380   -0.9596   -0.6547 H   0  0  0  0  0  0  0  0  0  0  0  0
    3.9461   -2.7802    0.7577 H   0  0  0  0  0  0  0  0  0  0  0  0
    3.6947    0.8426   -0.5994 H   0  0  0  0  0  0  0  0  0  0  0  0
    4.6539   -0.1340    0.5018 H   0  0  0  0  0  0  0  0  0  0  0  0
    3.5851    1.3007    1.9181 H   0  0  0  0  0  0  0  0  0  0  0  0
    3.4891   -2.7022   -1.8653 H   0  0  0  0  0  0  0  0  0  0  0  0
    2.4708   -2.5436    2.8482 H   0  0  0  0  0  0  0  0  0  0  0  0
    2.0014   -4.2285    1.0717 H   0  0  0  0  0  0  0  0  0  0  0  0
    2.1860   -3.8759   -0.6371 H   0  0  0  0  0  0  0  0  0  0  0  0
    0.9876    1.5308    1.9083 H   0  0  0  0  0  0  0  0  0  0  0  0
    1.0221    0.7799    0.3019 H   0  0  0  0  0  0  0  0  0  0  0  0
    2.1406   -0.9767   -3.0020 H   0  0  0  0  0  0  0  0  0  0  0  0
    3.7160   -1.1951   -3.7696 H   0  0  0  0  0  0  0  0  0  0  0  0
    3.4236    0.2204   -2.7557 H   0  0  0  0  0  0  0  0  0  0  0  0
    5.7211   -1.9981   -2.3120 H   0  0  0  0  0  0  0  0  0  0  0  0
    5.5802   -1.9813   -0.5638 H   0  0  0  0  0  0  0  0  0  0  0  0
    5.5483   -0.4608   -1.4992 H   0  0  0  0  0  0  0  0  0  0  0  0
    3.1029    0.5663    4.2125 H   0  0  0  0  0  0  0  0  0  0  0  0
    2.2008   -0.9224    4.5022 H   0  0  0  0  0  0  0  0  0  0  0  0
    1.3599    0.4947    3.8733 H   0  0  0  0  0  0  0  0  0  0  0  0
    0.2447   -2.6328    1.2483 H   0  0  0  0  0  0  0  0  0  0  0  0
    2.1912    4.9438   -0.7874 H   0  0  0  0  0  0  0  0  0  0  0  0
    0.8599    5.5415    0.2198 H   0  0  0  0  0  0  0  0  0  0  0  0
   -0.8792    3.8337    1.0392 H   0  0  0  0  0  0  0  0  0  0  0  0
   -0.6916    2.1442    0.5547 H   0  0  0  0  0  0  0  0  0  0  0  0
    0.3813    6.0352   -2.1590 H   0  0  0  0  0  0  0  0  0  0  0  0
    0.5802    4.3316   -2.5996 H   0  0  0  0  0  0  0  0  0  0  0  0
   -1.0399    2.7519   -1.8395 H   0  0  0  0  0  0  0  0  0  0  0  0
   -2.3922    3.3269   -0.8520 H   0  0  0  0  0  0  0  0  0  0  0  0
   -2.4764   -3.5682   -2.1426 H   0  0  0  0  0  0  0  0  0  0  0  0
   -0.9870   -0.9833    0.9923 H   0  0  0  0  0  0  0  0  0  0  0  0
   -4.7141   -2.6110   -1.8509 H   0  0  0  0  0  0  0  0  0  0  0  0
   -3.1534   -0.0680    1.2995 H   0  0  0  0  0  0  0  0  0  0  0  0
   -6.1092   -1.1055   -0.7109 H   0  0  0  0  0  0  0  0  0  0  0  0
   -7.8597   -0.3396    0.8431 H   0  0  0  0  0  0  0  0  0  0  0  0
   -7.4744    0.9595   -0.3215 H   0  0  0  0  0  0  0  0  0  0  0  0
   -7.5619    1.3170    1.4204 H   0  0  0  0  0  0  0  0  0  0  0  0
  1 20  2  0  0  0  0
  2 24  1  0  0  0  0
  2 25  1  0  0  0  0
  3 23  2  0  0  0  0
  4 32  2  0  0  0  0
  5 15  1  0  0  0  0
  5 23  1  0  0  0  0
  5 54  1  0  0  0  0
  6 20  1  0  0  0  0
  6 21  1  0  0  0  0
  6 22  1  0  0  0  0
  7 31  1  0  0  0  0
  7 32  1  0  0  0  0
  7 67  1  0  0  0  0
  8  9  1  0  0  0  0
  8 10  1  0  0  0  0
  8 12  1  0  0  0  0
  8 34  1  0  0  0  0
  9 14  1  0  0  0  0
  9 15  1  0  0  0  0
  9 35  1  0  0  0  0
 10 11  1  0  0  0  0
 10 36  1  0  0  0  0
 10 37  1  0  0  0  0
 11 13  1  0  0  0  0
 11 16  1  0  0  0  0
 11 38  1  0  0  0  0
 12 17  1  0  0  0  0
 12 18  1  0  0  0  0
 12 39  1  0  0  0  0
 13 14  2  0  0  0  0
 13 19  1  0  0  0  0
 14 40  1  0  0  0  0
 15 41  1  0  0  0  0
 15 42  1  0  0  0  0
 16 20  1  0  0  0  0
 16 43  1  0  0  0  0
 16 44  1  0  0  0  0
 17 45  1  0  0  0  0
 17 46  1  0  0  0  0
 17 47  1  0  0  0  0
 18 48  1  0  0  0  0
 18 49  1  0  0  0  0
 18 50  1  0  0  0  0
 19 51  1  0  0  0  0
 19 52  1  0  0  0  0
 19 53  1  0  0  0  0
 21 24  1  0  0  0  0
 21 55  1  0  0  0  0
 21 56  1  0  0  0  0
 22 25  1  0  0  0  0
 22 57  1  0  0  0  0
 22 58  1  0  0  0  0
 23 26  1  0  0  0  0
 24 59  1  0  0  0  0
 24 60  1  0  0  0  0
 25 61  1  0  0  0  0
 25 62  1  0  0  0  0
 26 27  2  0  0  0  0
 26 28  1  0  0  0  0
 27 29  1  0  0  0  0
 27 63  1  0  0  0  0
 28 30  2  0  0  0  0
 28 64  1  0  0  0  0
 29 31  2  0  0  0  0
 29 65  1  0  0  0  0
 30 31  1  0  0  0  0
 30 66  1  0  0  0  0
 32 33  1  0  0  0  0
 33 68  1  0  0  0  0
 33 69  1  0  0  0  0
 33 70  1  0  0  0  0
M  END
> <PUBCHEM_COMPOUND_CID>
38028154

> <PUBCHEM_CONFORMER_RMSD>
1.2

> <PUBCHEM_CONFORMER_DIVERSEORDER>
1
127
35
114
159
38
9
57
77
54
80
140
89
102
119
65
12
43
143
87
108
14
90
128
55
18
17
64
124
73
135
29
36
46
5
110
72
79
42
126
84
26
95
51
144
101
130
97
52
150
40
75
33
66
148
157
22
44
106
158
59
154
20
10
21
116
86
104
47
147
63
155
16
62
103
76
41
71
48
132
145
13
99
15
32
131
3
118
117
2
49
111
58
153
146
11
7
141
139
53
91
4
8
100
27
98
137
121
68
67
115
23
56
45
149
82
136
151
96
134
129
78
112
70
19
105
123
94
34
88
152
60
37
50
107
109
30
120
138
92
156
125
31
28
69
24
39
142
25
113
61
6
93
83
122
85
74
81
133

> <PUBCHEM_MMFF94_PARTIAL_CHARGES>
35
1 -0.57
11 0.14
13 -0.28
14 -0.29
15 0.3
16 0.06
19 0.14
2 -0.56
20 0.57
21 0.3
22 0.3
23 0.54
24 0.28
25 0.28
26 0.09
27 -0.15
28 -0.15
29 -0.15
3 -0.57
30 -0.15
31 0.12
32 0.57
33 0.06
4 -0.57
40 0.15
5 -0.73
54 0.37
6 -0.66
63 0.15
64 0.15
65 0.15
66 0.15
67 0.37
7 -0.55
9 0.14

> <PUBCHEM_EFFECTIVE_ROTOR_COUNT>
12

> <PUBCHEM_PHARMACOPHORE_FEATURES>
10
1 1 acceptor
1 2 acceptor
1 3 acceptor
1 4 acceptor
1 5 donor
1 7 donor
3 12 17 18 hydrophobe
6 2 6 21 22 24 25 rings
6 26 27 28 29 30 31 rings
6 8 9 10 11 13 14 rings

> <PUBCHEM_HEAVY_ATOM_COUNT>
33

> <PUBCHEM_ATOM_DEF_STEREO_COUNT>
3

> <PUBCHEM_ATOM_UDEF_STEREO_COUNT>
0

> <PUBCHEM_BOND_DEF_STEREO_COUNT>
0

> <PUBCHEM_BOND_UDEF_STEREO_COUNT>
0

> <PUBCHEM_ISOTOPIC_ATOM_COUNT>
0

> <PUBCHEM_COMPONENT_COUNT>
1

> <PUBCHEM_CACTVS_TAUTO_COUNT>
7

> <PUBCHEM_CONFORMER_ID>
0244437A00000001

> <PUBCHEM_MMFF94_ENERGY>
81.3321

> <PUBCHEM_FEATURE_SELFOVERLAP>
50.747

> <PUBCHEM_SHAPE_FINGERPRINT>
10483366 6 18266757929644458020
11059048 146 17399243439427374413
11421498 54 18041567927716362946
11434127 23 16466161674276295637
11513181 2 17774727587788061319
12788726 201 18042127552947885259
13561361 72 17976815394454667457
14289585 56 18264786375570967665
15001296 14 18340488962904436729
15210252 30 18336834181721091804
15274700 256 18338237069467010838
15444296 9 18272366482754789868
16114785 44 16542625802070263042
17818456 19 18059861679731292033
17977149 70 18199481978014386846
20764821 26 18265878216529552245
21860390 5 18125433361755583838
23559900 14 17703794738374511375
35225 105 18051121498097263404
4173938 77 18337401542864499645
5081480 168 17768570331579175334
54076057 255 18262534648713788847
550186 83 18261386732846732881
86090 222 16898747412705587873

> <PUBCHEM_SHAPE_MULTIPOLES>
640.7
10.66
6.59
2.48
18.96
9.57
-1.11
-3.82
-1.45
-1.17
3.82
-2.68
-0.37
-0.18

> <PUBCHEM_SHAPE_SELFOVERLAP>
1328.614

> <PUBCHEM_SHAPE_VOLUME>
362.2

> <PUBCHEM_COORDINATE_TYPE>
2
5
10

$$$$
