45784359
  -OEChem-12032416243D

 48 51  0     1  0  0  0  0  0999 V2000
   -7.6748    0.3836    1.6668 F   0  0  0  0  0  0  0  0  0  0  0  0
   -8.1527   -0.7732   -0.1112 F   0  0  0  0  0  0  0  0  0  0  0  0
   -8.1348    1.3996   -0.1933 F   0  0  0  0  0  0  0  0  0  0  0  0
    2.8711   -0.3026    0.1505 O   0  0  0  0  0  0  0  0  0  0  0  0
    5.9259    2.7782   -0.0733 O   0  0  0  0  0  0  0  0  0  0  0  0
    3.6595    2.4040    0.0760 O   0  0  0  0  0  0  0  0  0  0  0  0
   -1.1157   -0.7548   -0.2992 N   0  0  1  0  0  0  0  0  0  0  0  0
    3.3453   -2.5190    0.1389 N   0  0  0  0  0  0  0  0  0  0  0  0
    0.9206   -1.7568    0.2917 C   0  0  1  0  0  0  0  0  0  0  0  0
    0.2800   -1.1195    1.5370 C   0  0  0  0  0  0  0  0  0  0  0  0
    0.1674   -1.1368   -0.8930 C   0  0  0  0  0  0  0  0  0  0  0  0
   -0.7714   -0.1612    0.9927 C   0  0  0  0  0  0  0  0  0  0  0  0
   -1.8691    0.1586   -1.1456 C   0  0  0  0  0  0  0  0  0  0  0  0
    2.4189   -1.5872    0.1911 C   0  0  0  0  0  0  0  0  0  0  0  0
   -3.3253    0.2029   -0.7656 C   0  0  0  0  0  0  0  0  0  0  0  0
    4.2266   -0.4426    0.0636 C   0  0  0  0  0  0  0  0  0  0  0  0
    4.5129   -1.7998    0.0567 C   0  0  0  0  0  0  0  0  0  0  0  0
   -4.1730   -0.8430   -1.1307 C   0  0  0  0  0  0  0  0  0  0  0  0
   -3.8266    1.2890   -0.0481 C   0  0  0  0  0  0  0  0  0  0  0  0
    5.1779    0.5677   -0.0070 C   0  0  0  0  0  0  0  0  0  0  0  0
    5.8513   -2.2096   -0.0267 C   0  0  0  0  0  0  0  0  0  0  0  0
   -5.5220   -0.8028   -0.7784 C   0  0  0  0  0  0  0  0  0  0  0  0
   -5.1756    1.3292    0.3043 C   0  0  0  0  0  0  0  0  0  0  0  0
   -6.0233    0.2835   -0.0609 C   0  0  0  0  0  0  0  0  0  0  0  0
    6.5082    0.1419   -0.0895 C   0  0  0  0  0  0  0  0  0  0  0  0
    6.8407   -1.2183   -0.0995 C   0  0  0  0  0  0  0  0  0  0  0  0
    4.8208    1.9720    0.0045 C   0  0  0  0  0  0  0  0  0  0  0  0
   -7.4650    0.3248    0.3184 C   0  0  0  0  0  0  0  0  0  0  0  0
    5.7022    4.1923   -0.0703 C   0  0  0  0  0  0  0  0  0  0  0  0
    0.7123   -2.8354    0.3202 H   0  0  0  0  0  0  0  0  0  0  0  0
    0.9979   -0.6011    2.1813 H   0  0  0  0  0  0  0  0  0  0  0  0
   -0.2005   -1.9020    2.1378 H   0  0  0  0  0  0  0  0  0  0  0  0
    0.6961   -0.2637   -1.2975 H   0  0  0  0  0  0  0  0  0  0  0  0
    0.0379   -1.8628   -1.7031 H   0  0  0  0  0  0  0  0  0  0  0  0
   -1.6294   -0.0953    1.6689 H   0  0  0  0  0  0  0  0  0  0  0  0
   -0.3340    0.8394    0.8811 H   0  0  0  0  0  0  0  0  0  0  0  0
   -1.4346    1.1675   -1.1551 H   0  0  0  0  0  0  0  0  0  0  0  0
   -1.8257   -0.1809   -2.1903 H   0  0  0  0  0  0  0  0  0  0  0  0
   -3.7942   -1.6947   -1.6895 H   0  0  0  0  0  0  0  0  0  0  0  0
   -3.1765    2.1093    0.2441 H   0  0  0  0  0  0  0  0  0  0  0  0
    6.1204   -3.2606   -0.0351 H   0  0  0  0  0  0  0  0  0  0  0  0
   -6.1653   -1.6277   -1.0719 H   0  0  0  0  0  0  0  0  0  0  0  0
   -5.5569    2.1791    0.8641 H   0  0  0  0  0  0  0  0  0  0  0  0
    7.3284    0.8538   -0.1488 H   0  0  0  0  0  0  0  0  0  0  0  0
    7.8852   -1.5130   -0.1647 H   0  0  0  0  0  0  0  0  0  0  0  0
    5.0973    4.4797   -0.9354 H   0  0  0  0  0  0  0  0  0  0  0  0
    5.2133    4.4942    0.8606 H   0  0  0  0  0  0  0  0  0  0  0  0
    6.6726    4.6909   -0.1370 H   0  0  0  0  0  0  0  0  0  0  0  0
  1 28  1  0  0  0  0
  2 28  1  0  0  0  0
  3 28  1  0  0  0  0
  4 14  1  0  0  0  0
  4 16  1  0  0  0  0
  5 27  1  0  0  0  0
  5 29  1  0  0  0  0
  6 27  2  0  0  0  0
  7 11  1  0  0  0  0
  7 12  1  0  0  0  0
  7 13  1  0  0  0  0
  8 14  2  0  0  0  0
  8 17  1  0  0  0  0
  9 10  1  0  0  0  0
  9 11  1  0  0  0  0
  9 14  1  0  0  0  0
  9 30  1  0  0  0  0
 10 12  1  0  0  0  0
 10 31  1  0  0  0  0
 10 32  1  0  0  0  0
 11 33  1  0  0  0  0
 11 34  1  0  0  0  0
 12 35  1  0  0  0  0
 12 36  1  0  0  0  0
 13 15  1  0  0  0  0
 13 37  1  0  0  0  0
 13 38  1  0  0  0  0
 15 18  2  0  0  0  0
 15 19  1  0  0  0  0
 16 17  1  0  0  0  0
 16 20  2  0  0  0  0
 17 21  2  0  0  0  0
 18 22  1  0  0  0  0
 18 39  1  0  0  0  0
 19 23  2  0  0  0  0
 19 40  1  0  0  0  0
 20 25  1  0  0  0  0
 20 27  1  0  0  0  0
 21 26  1  0  0  0  0
 21 41  1  0  0  0  0
 22 24  2  0  0  0  0
 22 42  1  0  0  0  0
 23 24  1  0  0  0  0
 23 43  1  0  0  0  0
 24 28  1  0  0  0  0
 25 26  2  0  0  0  0
 25 44  1  0  0  0  0
 26 45  1  0  0  0  0
 29 46  1  0  0  0  0
 29 47  1  0  0  0  0
 29 48  1  0  0  0  0
M  END
> <PUBCHEM_COMPOUND_CID>
45784359

> <PUBCHEM_CONFORMER_RMSD>
0.8

> <PUBCHEM_CONFORMER_DIVERSEORDER>
1
126
56
148
133
66
86
33
107
158
15
96
180
172
115
132
87
57
16
67
83
113
123
46
116
58
74
131
157
155
153
142
105
163
10
134
179
144
68
146
31
80
103
160
38
109
24
78
114
161
32
79
12
100
69
165
159
183
168
147
125
174
55
48
62
37
104
138
50
140
36
52
75
129
89
92
127
110
106
124
23
118
135
76
43
175
29
85
112
27
61
152
9
28
121
164
2
4
47
5
143
145
22
40
120
139
130
156
178
17
7
137
101
111
173
167
82
166
122
34
99
54
70
97
181
128
25
44
49
90
119
136
39
177
71
41
45
176
64
141
11
63
14
35
93
108
91
102
149
81
88
59
21
3
182
77
98
18
42
19
13
60
154
162
150
8
30
95
20
94
151
171
51
73
72
53
169
117
6
84
65
170
26

> <PUBCHEM_MMFF94_PARTIAL_CHARGES>
35
1 -0.34
11 0.27
12 0.27
13 0.41
14 0.3
15 -0.14
16 0.14
17 0.23
18 -0.15
19 -0.15
2 -0.34
20 0.09
21 -0.15
22 -0.15
23 -0.15
24 -0.14
25 -0.15
26 -0.15
27 0.63
28 1.16
29 0.28
3 -0.34
39 0.15
4 -0.28
40 0.15
41 0.15
42 0.15
43 0.15
44 0.15
45 0.15
5 -0.43
6 -0.57
7 -0.81
8 -0.57
9 0.18

> <PUBCHEM_EFFECTIVE_ROTOR_COUNT>
7

> <PUBCHEM_PHARMACOPHORE_FEATURES>
6
1 6 acceptor
1 7 cation
5 4 8 14 16 17 rings
5 7 9 10 11 12 rings
6 15 18 19 22 23 24 rings
6 16 17 20 21 25 26 rings

> <PUBCHEM_HEAVY_ATOM_COUNT>
29

> <PUBCHEM_ATOM_DEF_STEREO_COUNT>
1

> <PUBCHEM_ATOM_UDEF_STEREO_COUNT>
0

> <PUBCHEM_BOND_DEF_STEREO_COUNT>
0

> <PUBCHEM_BOND_UDEF_STEREO_COUNT>
0

> <PUBCHEM_ISOTOPIC_ATOM_COUNT>
0

> <PUBCHEM_COMPONENT_COUNT>
1

> <PUBCHEM_CACTVS_TAUTO_COUNT>
1

> <PUBCHEM_CONFORMER_ID>
02BA9D2700000001

> <PUBCHEM_MMFF94_ENERGY>
61.3912

> <PUBCHEM_FEATURE_SELFOVERLAP>
30.566

> <PUBCHEM_SHAPE_FINGERPRINT>
10 15 15574721304527212734
10165383 225 17676492736061609950
10299344 5 18131348601327449879
10411042 1 18050003291469338578
10595046 47 18342171189402845047
10638233 991 18341892987291511953
10673678 19 18271811263109284348
11315181 36 11530775777956673391
11456790 92 18187920639371638936
11796584 16 13326559774812858374
1200032 147 18115306817310627664
12236239 1 18060696174296095550
12522641 24 17604419700808807386
12717326 120 15720821201897331289
12730499 353 18113336375918731386
13383665 225 17388838636761568118
13560911 43 18261104133396030664
14251764 18 17917988365773261183
14294032 229 16485870003211550857
14429380 56 18336816546580288733
14849402 71 18410014372472826988
14856354 85 17346877854409546823
14933364 13 18410573964035414863
15003188 100 18334577941180221824
15183329 4 15051734183665222339
15419008 145 18189886527534289840
15419008 47 17312818260508286701
15475509 8 14045752525433055779
1577012 14 18201152243097643084
15840311 113 18409731763946003901
16120349 18 18411695483513478661
17844677 252 18339927008739596141
19301679 30 17831849159337882890
19302320 297 18115865369186356844
19304671 126 17773611601595204460
20157964 124 18411700985282285938
20165401 70 8430323424241210064
20554085 129 16153703219807970145
21033648 29 17022888043764203302
21521721 280 18408042914170259235
21641784 216 16415208849017835609
22224240 67 17240485793042997603
22956985 138 13986599783400852944
23522609 53 17846232059359270569
249057 3 18272086081077246638
255183 451 17771635551429518998
2747138 104 17458351840412178389
2838139 119 18335695040393211124
3004659 81 18060698369451690542
335352 9 18409735050498104006
34797466 226 18201725037248034103
3711267 37 17918001559596647961
397830 11 18041571355036689283
4073 2 18188211012750901443
4325135 7 18341894069760303751
44317340 157 18271801341566246360
444735 82 18259988171500361149
44555599 121 18273220776660282849
445580 126 18341039801229535344
4625314 4 18411135810688838319
53794403 172 17968946426147910364
58902169 19 18131062745468072390
59682541 35 17748831838881455835
6328613 192 18272651255981404489

> <PUBCHEM_SHAPE_MULTIPOLES>
547.42
23.92
2.9
0.97
28.81
2.88
-0.14
7.14
-0.96
-7.62
-0.01
1.07
-0.16
-0.59

> <PUBCHEM_SHAPE_SELFOVERLAP>
1199.651

> <PUBCHEM_SHAPE_VOLUME>
300.4

> <PUBCHEM_COORDINATE_TYPE>
2
5
10

$$$$
