40777679
  -OEChem-12032416183D

 52 54  0     1  0  0  0  0  0999 V2000
    7.6156    2.3194   -0.4181 F   0  0  0  0  0  0  0  0  0  0  0  0
    8.3936    0.2895   -0.3722 F   0  0  0  0  0  0  0  0  0  0  0  0
    7.9901    1.3474    1.4841 F   0  0  0  0  0  0  0  0  0  0  0  0
   -5.0887    2.1174    0.2745 O   0  0  0  0  0  0  0  0  0  0  0  0
   -9.9066    1.1193    1.4579 O   0  0  0  0  0  0  0  0  0  0  0  0
   -9.2229   -0.7379    0.3437 O   0  0  0  0  0  0  0  0  0  0  0  0
   -4.3453    0.2161   -0.8359 N   0  0  0  0  0  0  0  0  0  0  0  0
    2.2190   -0.9665    0.2092 N   0  0  0  0  0  0  0  0  0  0  0  0
    1.9660   -2.1389    0.8156 N   0  0  0  0  0  0  0  0  0  0  0  0
   -1.3667   -1.0934   -0.5302 C   0  0  2  0  0  0  0  0  0  0  0  0
   -2.0171    0.1991    0.0049 C   0  0  0  0  0  0  0  0  0  0  0  0
   -2.9980    0.6558   -1.0821 C   0  0  1  0  0  0  0  0  0  0  0  0
    0.0778   -1.2518   -0.1146 C   0  0  0  0  0  0  0  0  0  0  0  0
   -1.5844   -0.9744   -2.0109 C   0  0  0  0  0  0  0  0  0  0  0  0
   -2.4765   -0.0229   -2.3058 C   0  0  0  0  0  0  0  0  0  0  0  0
    1.1213   -0.3941   -0.3634 C   0  0  0  0  0  0  0  0  0  0  0  0
    0.6564   -2.3078    0.6146 C   0  0  0  0  0  0  0  0  0  0  0  0
    1.1615    0.8955   -1.0826 C   0  0  0  0  0  0  0  0  0  0  0  0
   -0.0089   -3.5104    1.1460 C   0  0  0  0  0  0  0  0  0  0  0  0
   -5.2857    0.9906   -0.1724 C   0  0  0  0  0  0  0  0  0  0  0  0
    3.5159   -0.4519    0.2113 C   0  0  0  0  0  0  0  0  0  0  0  0
   -6.6179    0.2722   -0.0557 C   0  0  0  0  0  0  0  0  0  0  0  0
    4.5567   -1.1793   -0.3661 C   0  0  0  0  0  0  0  0  0  0  0  0
    3.7719    0.7889    0.7950 C   0  0  0  0  0  0  0  0  0  0  0  0
   -7.6683    1.1059    0.6710 C   0  0  0  0  0  0  0  0  0  0  0  0
    5.8535   -0.6657   -0.3599 C   0  0  0  0  0  0  0  0  0  0  0  0
    5.0688    1.3023    0.8012 C   0  0  0  0  0  0  0  0  0  0  0  0
    6.1096    0.5751    0.2236 C   0  0  0  0  0  0  0  0  0  0  0  0
   -8.9869    0.3774    0.7869 C   0  0  0  0  0  0  0  0  0  0  0  0
    7.4965    1.1232    0.2304 C   0  0  0  0  0  0  0  0  0  0  0  0
   -1.9417   -1.9596   -0.1776 H   0  0  0  0  0  0  0  0  0  0  0  0
   -2.5080    0.0212    0.9696 H   0  0  0  0  0  0  0  0  0  0  0  0
   -1.2789    0.9908    0.1785 H   0  0  0  0  0  0  0  0  0  0  0  0
   -2.9758    1.7458   -1.1853 H   0  0  0  0  0  0  0  0  0  0  0  0
   -1.1068   -1.6047   -2.7480 H   0  0  0  0  0  0  0  0  0  0  0  0
   -2.7970    0.2153   -3.3101 H   0  0  0  0  0  0  0  0  0  0  0  0
   -4.6087   -0.7211   -1.1294 H   0  0  0  0  0  0  0  0  0  0  0  0
    1.1220    1.7322   -0.3778 H   0  0  0  0  0  0  0  0  0  0  0  0
    2.0687    0.9944   -1.6880 H   0  0  0  0  0  0  0  0  0  0  0  0
    0.3231    1.0103   -1.7732 H   0  0  0  0  0  0  0  0  0  0  0  0
   -0.4543   -4.0935    0.3335 H   0  0  0  0  0  0  0  0  0  0  0  0
    0.6909   -4.1624    1.6794 H   0  0  0  0  0  0  0  0  0  0  0  0
   -0.8041   -3.2322    1.8453 H   0  0  0  0  0  0  0  0  0  0  0  0
   -6.9665    0.0255   -1.0661 H   0  0  0  0  0  0  0  0  0  0  0  0
   -6.4543   -0.6731    0.4763 H   0  0  0  0  0  0  0  0  0  0  0  0
    4.3742   -2.1464   -0.8285 H   0  0  0  0  0  0  0  0  0  0  0  0
    2.9786    1.3651    1.2645 H   0  0  0  0  0  0  0  0  0  0  0  0
   -7.8413    2.0431    0.1300 H   0  0  0  0  0  0  0  0  0  0  0  0
   -7.3194    1.3449    1.6820 H   0  0  0  0  0  0  0  0  0  0  0  0
    6.6499   -1.2476   -0.8155 H   0  0  0  0  0  0  0  0  0  0  0  0
    5.2594    2.2682    1.2614 H   0  0  0  0  0  0  0  0  0  0  0  0
  -10.7654    0.6520    1.5373 H   0  0  0  0  0  0  0  0  0  0  0  0
  1 30  1  0  0  0  0
  2 30  1  0  0  0  0
  3 30  1  0  0  0  0
  4 20  2  0  0  0  0
  5 29  1  0  0  0  0
  5 52  1  0  0  0  0
  6 29  2  0  0  0  0
  7 12  1  0  0  0  0
  7 20  1  0  0  0  0
  7 37  1  0  0  0  0
  8  9  1  0  0  0  0
  8 16  1  0  0  0  0
  8 21  1  0  0  0  0
  9 17  2  0  0  0  0
 10 11  1  0  0  0  0
 10 13  1  0  0  0  0
 10 14  1  0  0  0  0
 10 31  1  0  0  0  0
 11 12  1  0  0  0  0
 11 32  1  0  0  0  0
 11 33  1  0  0  0  0
 12 15  1  0  0  0  0
 12 34  1  0  0  0  0
 13 16  2  0  0  0  0
 13 17  1  0  0  0  0
 14 15  2  0  0  0  0
 14 35  1  0  0  0  0
 15 36  1  0  0  0  0
 16 18  1  0  0  0  0
 17 19  1  0  0  0  0
 18 38  1  0  0  0  0
 18 39  1  0  0  0  0
 18 40  1  0  0  0  0
 19 41  1  0  0  0  0
 19 42  1  0  0  0  0
 19 43  1  0  0  0  0
 20 22  1  0  0  0  0
 21 23  2  0  0  0  0
 21 24  1  0  0  0  0
 22 25  1  0  0  0  0
 22 44  1  0  0  0  0
 22 45  1  0  0  0  0
 23 26  1  0  0  0  0
 23 46  1  0  0  0  0
 24 27  2  0  0  0  0
 24 47  1  0  0  0  0
 25 29  1  0  0  0  0
 25 48  1  0  0  0  0
 25 49  1  0  0  0  0
 26 28  2  0  0  0  0
 26 50  1  0  0  0  0
 27 28  1  0  0  0  0
 27 51  1  0  0  0  0
 28 30  1  0  0  0  0
M  END
> <PUBCHEM_COMPOUND_CID>
40777679

> <PUBCHEM_CONFORMER_RMSD>
1

> <PUBCHEM_CONFORMER_DIVERSEORDER>
1
13
16
5
41
17
36
28
26
7
12
34
8
21
30
11
37
15
29
32
14
22
4
2
35
33
24
40
6
25
19
31
39
23
10
3
20
38
27
18
9

> <PUBCHEM_MMFF94_PARTIAL_CHARGES>
37
1 -0.34
10 0.32
12 0.44
13 -0.18
14 -0.29
15 -0.29
16 -0.33
17 0.11
18 0.18
19 0.18
2 -0.34
20 0.57
21 -0.02
22 0.06
23 -0.15
24 -0.15
25 0.06
26 -0.15
27 -0.15
28 -0.14
29 0.66
3 -0.34
30 1.16
35 0.15
36 0.15
37 0.37
4 -0.57
46 0.15
47 0.15
5 -0.65
50 0.15
51 0.15
52 0.5
6 -0.57
7 -0.73
8 0.59
9 -0.71

> <PUBCHEM_EFFECTIVE_ROTOR_COUNT>
8.6

> <PUBCHEM_PHARMACOPHORE_FEATURES>
9
1 4 acceptor
1 5 acceptor
1 6 acceptor
1 7 donor
1 9 acceptor
3 5 6 29 anion
5 10 11 12 14 15 rings
5 8 9 13 16 17 rings
6 21 23 24 26 27 28 rings

> <PUBCHEM_HEAVY_ATOM_COUNT>
30

> <PUBCHEM_ATOM_DEF_STEREO_COUNT>
2

> <PUBCHEM_ATOM_UDEF_STEREO_COUNT>
0

> <PUBCHEM_BOND_DEF_STEREO_COUNT>
0

> <PUBCHEM_BOND_UDEF_STEREO_COUNT>
0

> <PUBCHEM_ISOTOPIC_ATOM_COUNT>
0

> <PUBCHEM_COMPONENT_COUNT>
1

> <PUBCHEM_CACTVS_TAUTO_COUNT>
2

> <PUBCHEM_CONFORMER_ID>
026E37CF00000001

> <PUBCHEM_MMFF94_ENERGY>
64.0173

> <PUBCHEM_FEATURE_SELFOVERLAP>
45.73

> <PUBCHEM_SHAPE_FINGERPRINT>
10 15 17603585235844374304
10162869 55 18186517735986942351
10165383 225 18261111876862940010
10369192 42 17346597453085541757
106641 1 17240203243981298477
10670039 82 14836129828189465403
10674148 151 12895353279110119739
10883706 142 18413384333268403186
11135609 99 12901841522731523745
11408170 108 12107775273018689561
11724838 91 18334295371108365151
11828422 8 11669199992226149955
12592606 108 9007050258896112265
12741549 16 16008748009961074021
14849402 71 18410293648647886565
15064981 194 17844251932657781112
15183329 4 15769776853353699354
15188451 53 12107785194476817878
15326923 82 8790882974419380458
15347590 135 17603581898839869873
15690457 1 12829207780332027857
15706992 2 18412553132300034492
15728490 51 18410291446231470991
1577012 14 17775275063127152647
15840311 113 18413112757954108796
16126227 98 18409728490790475107
16992610 120 18335433382928497582
18393751 57 17749106707671366518
18603816 31 12757440492483402617
18608769 82 18335137626568458947
19841028 212 8502389822835675960
20505436 4 18059849558959471719
21033648 29 18339068415382255178
21130935 74 17314223363760068459
21307412 95 12175617421005925173
21424621 283 18411697665103514352
21792961 116 13686306780981396359
22224240 67 18040435486489809139
23559900 14 13685715282670911190
23576562 1 13901038146327517897
249057 3 15985099738643625224
3004659 81 13182733763022707674
3009799 131 12823289109371578366
3092352 35 17560798827666433263
3178227 256 17967816054414837660
3633792 109 15052012394999323794
3711267 37 17775575247114189913
4093350 32 17917993850288268990
4173938 188 18336550512765589379
4339292 15 9799424330413298608
4340502 62 18333733494828481643
474113 269 11746930988683762345
5104073 3 17242439526115118401
5385378 56 18260259712686986898
54076057 127 18342460296568738631
5758199 1 18408885131423773747
59682541 35 17821452365777461785
59755656 520 18334566963075651486
6081469 158 11025795405607917231
6126387 218 13767924616603006965
9663363 56 16877661267788960013
9689198 14 18060140925429649157
9953998 17 18187649116076817107

> <PUBCHEM_SHAPE_MULTIPOLES>
563.01
27.4
2.21
1.35
28.56
1.45
-0.52
-16.86
10.3
-1.48
0.78
1.03
0.06
-0.2

> <PUBCHEM_SHAPE_SELFOVERLAP>
1205.995

> <PUBCHEM_SHAPE_VOLUME>
313.6

> <PUBCHEM_COORDINATE_TYPE>
2
5
10

$$$$
