45784294
  -OEChem-12032416243D

 49 52  0     1  0  0  0  0  0999 V2000
    6.8085    0.8618   -0.1231 O   0  0  0  0  0  0  0  0  0  0  0  0
   -2.4678   -0.8892   -0.3462 N   0  0  1  0  0  0  0  0  0  0  0  0
   -6.3263    0.8905   -0.2527 N   0  0  0  0  0  0  0  0  0  0  0  0
    2.2595   -0.6660   -1.0979 N   0  0  0  0  0  0  0  0  0  0  0  0
    1.5002   -0.1864    0.9352 N   0  0  0  0  0  0  0  0  0  0  0  0
   -3.5845   -0.0655    0.1114 C   0  0  0  0  0  0  0  0  0  0  0  0
   -0.1653   -1.1709   -0.6906 C   0  0  2  0  0  0  0  0  0  0  0  0
   -1.2615   -0.1004   -0.6058 C   0  0  0  0  0  0  0  0  0  0  0  0
   -2.0626   -1.8812    0.6496 C   0  0  0  0  0  0  0  0  0  0  0  0
   -0.7120   -2.3539    0.1274 C   0  0  0  0  0  0  0  0  0  0  0  0
   -3.9488    0.9935   -0.9333 C   0  0  0  0  0  0  0  0  0  0  0  0
   -4.8023   -0.9434    0.4112 C   0  0  0  0  0  0  0  0  0  0  0  0
   -5.1873    1.7843   -0.5040 C   0  0  0  0  0  0  0  0  0  0  0  0
   -6.0129   -0.0892    0.7969 C   0  0  0  0  0  0  0  0  0  0  0  0
    1.1882   -0.6647   -0.2485 C   0  0  0  0  0  0  0  0  0  0  0  0
   -7.5142    1.6640    0.1074 C   0  0  0  0  0  0  0  0  0  0  0  0
    3.3343   -0.1543   -0.4170 C   0  0  0  0  0  0  0  0  0  0  0  0
    2.8348    0.1374    0.8492 C   0  0  0  0  0  0  0  0  0  0  0  0
    4.6600    0.0716   -0.7888 C   0  0  0  0  0  0  0  0  0  0  0  0
    3.6948    0.6873    1.8147 C   0  0  0  0  0  0  0  0  0  0  0  0
    5.5019    0.6195    0.1846 C   0  0  0  0  0  0  0  0  0  0  0  0
    5.0301    0.9226    1.4638 C   0  0  0  0  0  0  0  0  0  0  0  0
    7.2333    0.5325   -1.4435 C   0  0  0  0  0  0  0  0  0  0  0  0
   -3.3060    0.4563    1.0389 H   0  0  0  0  0  0  0  0  0  0  0  0
   -0.0875   -1.5046   -1.7357 H   0  0  0  0  0  0  0  0  0  0  0  0
   -1.0602    0.6131    0.2044 H   0  0  0  0  0  0  0  0  0  0  0  0
   -1.3167    0.4526   -1.5496 H   0  0  0  0  0  0  0  0  0  0  0  0
   -1.9406   -1.4375    1.6460 H   0  0  0  0  0  0  0  0  0  0  0  0
   -2.7520   -2.7282    0.7189 H   0  0  0  0  0  0  0  0  0  0  0  0
   -0.8442   -3.2212   -0.5315 H   0  0  0  0  0  0  0  0  0  0  0  0
   -0.0522   -2.6575    0.9472 H   0  0  0  0  0  0  0  0  0  0  0  0
   -3.1308    1.7084   -1.0781 H   0  0  0  0  0  0  0  0  0  0  0  0
   -4.1395    0.5199   -1.9059 H   0  0  0  0  0  0  0  0  0  0  0  0
   -5.0556   -1.5580   -0.4633 H   0  0  0  0  0  0  0  0  0  0  0  0
   -4.6071   -1.6301    1.2427 H   0  0  0  0  0  0  0  0  0  0  0  0
   -5.4386    2.4870   -1.3080 H   0  0  0  0  0  0  0  0  0  0  0  0
   -4.9533    2.3803    0.3881 H   0  0  0  0  0  0  0  0  0  0  0  0
   -5.8207    0.4118    1.7549 H   0  0  0  0  0  0  0  0  0  0  0  0
   -6.8690   -0.7587    0.9458 H   0  0  0  0  0  0  0  0  0  0  0  0
   -8.3768    1.0027    0.2456 H   0  0  0  0  0  0  0  0  0  0  0  0
   -7.3700    2.2401    1.0287 H   0  0  0  0  0  0  0  0  0  0  0  0
   -7.7788    2.3597   -0.6966 H   0  0  0  0  0  0  0  0  0  0  0  0
    2.2629   -0.9862   -2.0573 H   0  0  0  0  0  0  0  0  0  0  0  0
    4.9624   -0.1852   -1.7955 H   0  0  0  0  0  0  0  0  0  0  0  0
    3.3377    0.9263    2.8113 H   0  0  0  0  0  0  0  0  0  0  0  0
    5.7039    1.3481    2.2038 H   0  0  0  0  0  0  0  0  0  0  0  0
    7.1527   -0.5426   -1.6372 H   0  0  0  0  0  0  0  0  0  0  0  0
    6.7105    1.1315   -2.1970 H   0  0  0  0  0  0  0  0  0  0  0  0
    8.2954    0.7894   -1.5143 H   0  0  0  0  0  0  0  0  0  0  0  0
  1 21  1  0  0  0  0
  1 23  1  0  0  0  0
  2  6  1  0  0  0  0
  2  8  1  0  0  0  0
  2  9  1  0  0  0  0
  3 13  1  0  0  0  0
  3 14  1  0  0  0  0
  3 16  1  0  0  0  0
  4 15  1  0  0  0  0
  4 17  1  0  0  0  0
  4 43  1  0  0  0  0
  5 15  2  0  0  0  0
  5 18  1  0  0  0  0
  6 11  1  0  0  0  0
  6 12  1  0  0  0  0
  6 24  1  0  0  0  0
  7  8  1  0  0  0  0
  7 10  1  0  0  0  0
  7 15  1  0  0  0  0
  7 25  1  0  0  0  0
  8 26  1  0  0  0  0
  8 27  1  0  0  0  0
  9 10  1  0  0  0  0
  9 28  1  0  0  0  0
  9 29  1  0  0  0  0
 10 30  1  0  0  0  0
 10 31  1  0  0  0  0
 11 13  1  0  0  0  0
 11 32  1  0  0  0  0
 11 33  1  0  0  0  0
 12 14  1  0  0  0  0
 12 34  1  0  0  0  0
 12 35  1  0  0  0  0
 13 36  1  0  0  0  0
 13 37  1  0  0  0  0
 14 38  1  0  0  0  0
 14 39  1  0  0  0  0
 16 40  1  0  0  0  0
 16 41  1  0  0  0  0
 16 42  1  0  0  0  0
 17 18  2  0  0  0  0
 17 19  1  0  0  0  0
 18 20  1  0  0  0  0
 19 21  2  0  0  0  0
 19 44  1  0  0  0  0
 20 22  2  0  0  0  0
 20 45  1  0  0  0  0
 21 22  1  0  0  0  0
 22 46  1  0  0  0  0
 23 47  1  0  0  0  0
 23 48  1  0  0  0  0
 23 49  1  0  0  0  0
M  END
> <PUBCHEM_COMPOUND_CID>
45784294

> <PUBCHEM_CONFORMER_RMSD>
0.8

> <PUBCHEM_CONFORMER_DIVERSEORDER>
1
31
8
34
16
36
10
27
11
20
28
32
12
30
26
38
13
14
18
19
5
29
23
33
21
15
7
3
4
25
17
37
6
9
2
24
35
22

> <PUBCHEM_MMFF94_PARTIAL_CHARGES>
24
1 -0.36
13 0.27
14 0.27
15 0.01
16 0.27
17 -0.15
18 0.23
19 -0.15
2 -0.81
20 -0.15
21 0.08
22 -0.15
23 0.28
3 -0.81
4 0.03
43 0.27
44 0.15
45 0.15
46 0.15
5 -0.57
6 0.27
7 0.18
8 0.27
9 0.27

> <PUBCHEM_EFFECTIVE_ROTOR_COUNT>
5.2

> <PUBCHEM_PHARMACOPHORE_FEATURES>
9
1 1 acceptor
1 2 cation
1 3 cation
1 4 donor
3 4 5 15 cation
5 2 7 8 9 10 rings
5 4 5 15 17 18 rings
6 17 18 19 20 21 22 rings
6 3 6 11 12 13 14 rings

> <PUBCHEM_HEAVY_ATOM_COUNT>
23

> <PUBCHEM_ATOM_DEF_STEREO_COUNT>
1

> <PUBCHEM_ATOM_UDEF_STEREO_COUNT>
0

> <PUBCHEM_BOND_DEF_STEREO_COUNT>
0

> <PUBCHEM_BOND_UDEF_STEREO_COUNT>
0

> <PUBCHEM_ISOTOPIC_ATOM_COUNT>
0

> <PUBCHEM_COMPONENT_COUNT>
1

> <PUBCHEM_CACTVS_TAUTO_COUNT>
2

> <PUBCHEM_CONFORMER_ID>
02BA9CE600000001

> <PUBCHEM_MMFF94_ENERGY>
44.9827

> <PUBCHEM_FEATURE_SELFOVERLAP>
45.779

> <PUBCHEM_SHAPE_FINGERPRINT>
10 15 17749392551267958245
10354089 29 16877661266876304468
10411042 1 17831024894794281939
106641 1 16950289524750347001
10670039 82 17988649549357001576
10693767 8 14979411560628994140
10763959 59 18202561804584130648
11315181 36 8862942784338784047
11646440 116 18272657857082849497
11796584 16 18412829114784122582
12011746 2 17917993879883450440
12236239 1 17313100865293074882
12403259 415 18059854021029110411
12516196 113 12540697015819690903
12596602 18 16660358164902249153
12730499 353 17988647384672294143
13177829 20 16081093688096975297
13402501 40 18273209802987257817
13533116 47 18271242712477045138
13668630 136 12031794664705955028
13673619 4 8862939481493251927
13862211 1 9871745797876179645
14251757 52 18261114114773471220
14251764 18 17240484723685350055
14341114 176 15430031041900009306
14341114 328 17095521782000606329
14848160 23 10665225951624623041
14933364 13 18334860515215055140
15183329 4 16128377055867101829
15238133 3 18113904874695111852
15461852 350 18335414699884206287
15510800 12 8141796240285178273
15685185 35 15649053892088397036
17980427 23 17967254226207640543
18335252 114 16702017565240857384
190975 80 12540702543505930100
19377110 9 15864068767360166716
200 152 14692575437492024562
20281389 69 18334010601591161800
20374829 77 10015864288792435503
20567600 254 18412539899658509951
20645477 56 18341610434404643119
21033648 29 18129649915807039896
21150785 3 12535344619481093520
21585482 111 18127416644995226513
21792961 116 18059868238488815294
221357 26 16702020859586190832
22224240 67 14779268639645003576
23198884 109 15698280019305285817
23559900 14 15913036677539851018
249999 5 18190457164936222347
2838139 119 16988848276180748529
2916195 48 18271801346003469699
293599 30 18412260636146916451
29717793 49 14117524255338343880
314173 85 7853577937112000935
3411729 13 18187362086901031522
3545911 37 18202285822427187398
3663271 9 16588022403144251905
465052 167 11674878883719501482
5104073 3 13552010197740706884
5385378 56 18335701577165169811
542803 24 17749385988272905018
559249 180 10735880565321715285
5718773 13 7925327629973039489
5758199 1 16226051124203221700
58902169 19 15410889673905615561
59682541 35 18334304171971011337
59682541 52 16917074326309981324
59755656 215 17917997152985873684
59755656 520 18410848876091711591

> <PUBCHEM_SHAPE_MULTIPOLES>
447.54
19.68
1.65
1.25
2.38
0.44
0.23
-11.55
-0.94
2.14
0.03
-1.67
-0.2
0.86

> <PUBCHEM_SHAPE_SELFOVERLAP>
959.288

> <PUBCHEM_SHAPE_VOLUME>
249.7

> <PUBCHEM_COORDINATE_TYPE>
2
5
10

$$$$
