26742923
  -OEChem-12032416253D

 53 56  0     1  0  0  0  0  0999 V2000
   -6.1911    1.4133   -0.9643 F   0  0  0  0  0  0  0  0  0  0  0  0
    1.1876   -1.6761   -1.5252 O   0  0  0  0  0  0  0  0  0  0  0  0
   -0.3763    3.4150    0.2666 O   0  0  0  0  0  0  0  0  0  0  0  0
   -1.9052   -4.2613   -0.4741 O   0  0  0  0  0  0  0  0  0  0  0  0
    5.8651    0.8627   -0.4138 N   0  0  0  0  0  0  0  0  0  0  0  0
    1.3832   -3.0104    0.3675 N   0  0  0  0  0  0  0  0  0  0  0  0
    0.9637    3.4460    0.6331 N   0  0  0  0  0  0  0  0  0  0  0  0
    2.9828    0.2524   -0.5761 C   0  0  1  0  0  0  0  0  0  0  0  0
    3.5402    1.4472    0.2337 C   0  0  2  0  0  0  0  0  0  0  0  0
    3.9850   -0.1145   -1.6835 C   0  0  0  0  0  0  0  0  0  0  0  0
    4.9814    1.1907    0.7055 C   0  0  0  0  0  0  0  0  0  0  0  0
    5.4013   -0.3141   -1.1457 C   0  0  0  0  0  0  0  0  0  0  0  0
    2.6502    1.8383    1.4142 C   0  0  0  0  0  0  0  0  0  0  0  0
    2.6400   -0.9743    0.2776 C   0  0  0  0  0  0  0  0  0  0  0  0
    1.2617    2.1855    0.9608 C   0  0  0  0  0  0  0  0  0  0  0  0
    1.6622   -1.8994   -0.4149 C   0  0  0  0  0  0  0  0  0  0  0  0
    0.1602    1.3234    0.8224 C   0  0  0  0  0  0  0  0  0  0  0  0
   -0.8436    2.1457    0.3836 C   0  0  0  0  0  0  0  0  0  0  0  0
    0.4788   -4.0591   -0.0451 C   0  0  0  0  0  0  0  0  0  0  0  0
   -2.2224    1.9569    0.0372 C   0  0  0  0  0  0  0  0  0  0  0  0
   -0.9408   -3.7616    0.3426 C   0  0  0  0  0  0  0  0  0  0  0  0
   -2.7962    0.6885    0.1243 C   0  0  0  0  0  0  0  0  0  0  0  0
   -2.9894    3.0417   -0.3879 C   0  0  0  0  0  0  0  0  0  0  0  0
   -1.5046   -3.0655    1.3866 C   0  0  0  0  0  0  0  0  0  0  0  0
   -4.1369    0.5047   -0.2138 C   0  0  0  0  0  0  0  0  0  0  0  0
   -4.3301    2.8580   -0.7261 C   0  0  0  0  0  0  0  0  0  0  0  0
   -2.9053   -3.1427    1.1995 C   0  0  0  0  0  0  0  0  0  0  0  0
   -3.0977   -3.8803    0.0543 C   0  0  0  0  0  0  0  0  0  0  0  0
   -4.9038    1.5896   -0.6391 C   0  0  0  0  0  0  0  0  0  0  0  0
    2.0744    0.5911   -1.0902 H   0  0  0  0  0  0  0  0  0  0  0  0
    3.5767    2.3073   -0.4532 H   0  0  0  0  0  0  0  0  0  0  0  0
    4.0001    0.6942   -2.4268 H   0  0  0  0  0  0  0  0  0  0  0  0
    3.6697   -1.0159   -2.2207 H   0  0  0  0  0  0  0  0  0  0  0  0
    5.3699    2.0911    1.1953 H   0  0  0  0  0  0  0  0  0  0  0  0
    5.0091    0.3874    1.4521 H   0  0  0  0  0  0  0  0  0  0  0  0
    5.4648   -1.2056   -0.5122 H   0  0  0  0  0  0  0  0  0  0  0  0
    6.0773   -0.4854   -1.9910 H   0  0  0  0  0  0  0  0  0  0  0  0
    3.0826    2.7184    1.9103 H   0  0  0  0  0  0  0  0  0  0  0  0
    2.6171    1.0651    2.1889 H   0  0  0  0  0  0  0  0  0  0  0  0
    2.1748   -0.7079    1.2284 H   0  0  0  0  0  0  0  0  0  0  0  0
    3.5371   -1.5496    0.5305 H   0  0  0  0  0  0  0  0  0  0  0  0
    6.8065    0.6917   -0.0615 H   0  0  0  0  0  0  0  0  0  0  0  0
    0.0959    0.2657    1.0260 H   0  0  0  0  0  0  0  0  0  0  0  0
    1.8154   -3.0939    1.2832 H   0  0  0  0  0  0  0  0  0  0  0  0
    0.8038   -4.9853    0.4392 H   0  0  0  0  0  0  0  0  0  0  0  0
    0.5538   -4.1885   -1.1302 H   0  0  0  0  0  0  0  0  0  0  0  0
   -2.2218   -0.1735    0.4500 H   0  0  0  0  0  0  0  0  0  0  0  0
   -2.5789    4.0449   -0.4690 H   0  0  0  0  0  0  0  0  0  0  0  0
   -0.9770   -2.5630    2.1848 H   0  0  0  0  0  0  0  0  0  0  0  0
   -4.5843   -0.4825   -0.1472 H   0  0  0  0  0  0  0  0  0  0  0  0
   -4.9280    3.7019   -1.0574 H   0  0  0  0  0  0  0  0  0  0  0  0
   -3.6779   -2.7131    1.8205 H   0  0  0  0  0  0  0  0  0  0  0  0
   -3.9741   -4.2036   -0.4882 H   0  0  0  0  0  0  0  0  0  0  0  0
  1 29  1  0  0  0  0
  2 16  2  0  0  0  0
  3  7  1  0  0  0  0
  3 18  1  0  0  0  0
  4 21  1  0  0  0  0
  4 28  1  0  0  0  0
  5 11  1  0  0  0  0
  5 12  1  0  0  0  0
  5 42  1  0  0  0  0
  6 16  1  0  0  0  0
  6 19  1  0  0  0  0
  6 44  1  0  0  0  0
  7 15  2  0  0  0  0
  8  9  1  0  0  0  0
  8 10  1  0  0  0  0
  8 14  1  0  0  0  0
  8 30  1  0  0  0  0
  9 11  1  0  0  0  0
  9 13  1  0  0  0  0
  9 31  1  0  0  0  0
 10 12  1  0  0  0  0
 10 32  1  0  0  0  0
 10 33  1  0  0  0  0
 11 34  1  0  0  0  0
 11 35  1  0  0  0  0
 12 36  1  0  0  0  0
 12 37  1  0  0  0  0
 13 15  1  0  0  0  0
 13 38  1  0  0  0  0
 13 39  1  0  0  0  0
 14 16  1  0  0  0  0
 14 40  1  0  0  0  0
 14 41  1  0  0  0  0
 15 17  1  0  0  0  0
 17 18  2  0  0  0  0
 17 43  1  0  0  0  0
 18 20  1  0  0  0  0
 19 21  1  0  0  0  0
 19 45  1  0  0  0  0
 19 46  1  0  0  0  0
 20 22  2  0  0  0  0
 20 23  1  0  0  0  0
 21 24  2  0  0  0  0
 22 25  1  0  0  0  0
 22 47  1  0  0  0  0
 23 26  2  0  0  0  0
 23 48  1  0  0  0  0
 24 27  1  0  0  0  0
 24 49  1  0  0  0  0
 25 29  2  0  0  0  0
 25 50  1  0  0  0  0
 26 29  1  0  0  0  0
 26 51  1  0  0  0  0
 27 28  2  0  0  0  0
 27 52  1  0  0  0  0
 28 53  1  0  0  0  0
M  END
> <PUBCHEM_COMPOUND_CID>
26742923

> <PUBCHEM_CONFORMER_RMSD>
1.2

> <PUBCHEM_CONFORMER_DIVERSEORDER>
5
72
68
35
78
37
43
88
64
25
86
7
82
63
54
4
40
33
59
75
47
66
21
62
1
10
52
87
84
46
53
49
57
71
19
15
77
85
70
16
6
69
83
41
80
34
58
92
90
24
73
20
29
39
22
45
67
79
18
42
26
3
56
23
44
11
31
8
55
65
30
32
61
27
36
2
17
74
13
51
14
76
48
60
89
81
28
38
12
50
9
91

> <PUBCHEM_MMFF94_PARTIAL_CHARGES>
36
1 -0.19
11 0.27
12 0.27
13 0.18
14 0.06
15 0.11
16 0.57
17 -0.15
18 0.09
19 0.48
2 -0.57
20 0.05
21 -0.04
22 -0.15
23 -0.15
24 -0.15
25 -0.15
26 -0.15
27 -0.15
28 -0.01
29 0.19
3 -0.02
4 -0.28
42 0.36
43 0.15
44 0.37
47 0.15
48 0.15
49 0.15
5 -0.9
50 0.15
51 0.15
52 0.15
53 0.15
6 -0.73
7 -0.41

> <PUBCHEM_EFFECTIVE_ROTOR_COUNT>
9.2

> <PUBCHEM_PHARMACOPHORE_FEATURES>
10
1 2 acceptor
1 4 acceptor
1 5 cation
1 5 donor
1 6 donor
1 7 acceptor
5 3 7 15 17 18 rings
5 4 21 24 27 28 rings
6 20 22 23 25 26 29 rings
6 5 8 9 10 11 12 rings

> <PUBCHEM_HEAVY_ATOM_COUNT>
29

> <PUBCHEM_ATOM_DEF_STEREO_COUNT>
2

> <PUBCHEM_ATOM_UDEF_STEREO_COUNT>
0

> <PUBCHEM_BOND_DEF_STEREO_COUNT>
0

> <PUBCHEM_BOND_UDEF_STEREO_COUNT>
0

> <PUBCHEM_ISOTOPIC_ATOM_COUNT>
0

> <PUBCHEM_COMPONENT_COUNT>
1

> <PUBCHEM_CACTVS_TAUTO_COUNT>
2

> <PUBCHEM_CONFORMER_ID>
0198108B00000005

> <PUBCHEM_MMFF94_ENERGY>
38.4171

> <PUBCHEM_FEATURE_SELFOVERLAP>
50.747

> <PUBCHEM_SHAPE_FINGERPRINT>
10032420 55 18269539564301355516
10316853 100 18410292540930562585
10675989 125 17687741641134217533
10688039 33 17975700802806285938
108634 29 18343030986485107822
11135609 187 18338232644933355553
12156800 1 18193247866996199186
12293681 25 17558579957831126446
12645989 146 18055925543857675950
12788726 201 17900551378276893582
13122387 1 18266463096818270459
13402501 40 18340774827026415651
13617811 41 18187365407617652853
14617045 38 18340208501424235765
14725015 67 18122052371842648411
15110567 62 18267864982807413865
15927050 60 18340760478242332279
15968369 26 17975108986836149545
16067689 391 17484550865992848278
16993438 75 18335146431029915571
17627616 140 18264201418453463547
19930381 70 17978222765143038329
20764821 26 18121220041851274735
20775438 99 18129359575564838591
21304304 249 18266447712720053170
21360443 126 18335416910821724525
21796203 349 16898249363929020426
22393880 68 18054793875788233428
23516275 137 17060076817161146199
23559900 14 17617928137348135233
23576562 1 18115608070722624012
238 59 17903651678533601795
3052486 1 18263080075754263882
3298306 158 18337947892621537677
4058900 60 18120944909992887373
463206 1 18342172289004494373
508706 21 18339077223838426467
5171179 24 17985263233847070834
6376802 137 16985181229410427762

> <PUBCHEM_SHAPE_MULTIPOLES>
556.98
10.57
6.26
1.21
2.16
6.02
0.06
-5.71
3.47
-6.09
-0.9
0.58
0.08
2.13

> <PUBCHEM_SHAPE_SELFOVERLAP>
1197.184

> <PUBCHEM_SHAPE_VOLUME>
307

> <PUBCHEM_COORDINATE_TYPE>
2
5
10

$$$$
