38029393
  -OEChem-12032416253D

 66 68  0     1  0  0  0  0  0999 V2000
   -1.3687    2.5117    2.4475 O   0  0  0  0  0  0  0  0  0  0  0  0
    1.8014   -1.7461   -2.5092 O   0  0  0  0  0  0  0  0  0  0  0  0
    3.0613   -0.1494   -1.3916 N   0  0  0  0  0  0  0  0  0  0  0  0
   -0.9636    0.2277    2.5891 N   0  0  0  0  0  0  0  0  0  0  0  0
   -6.1641   -1.5523   -2.5737 N   0  0  0  0  0  0  0  0  0  0  0  0
    0.7430    1.7574   -1.2085 C   0  0  1  0  0  0  0  0  0  0  0  0
    2.1842    2.1114   -1.6529 C   0  0  1  0  0  0  0  0  0  0  0  0
    0.2313    2.7810   -0.1836 C   0  0  0  0  0  0  0  0  0  0  0  0
    1.1255    2.8487    1.0687 C   0  0  2  0  0  0  0  0  0  0  0  0
   -0.2189    1.6898   -2.3988 C   0  0  0  0  0  0  0  0  0  0  0  0
    2.5949    2.9292    0.7077 C   0  0  0  0  0  0  0  0  0  0  0  0
    3.0477    2.6086   -0.5174 C   0  0  0  0  0  0  0  0  0  0  0  0
    2.8653    0.9143   -2.3261 C   0  0  0  0  0  0  0  0  0  0  0  0
    0.8546    1.6661    2.0054 C   0  0  0  0  0  0  0  0  0  0  0  0
   -0.6837    3.0897   -2.7873 C   0  0  0  0  0  0  0  0  0  0  0  0
   -1.4103    0.7959   -2.0701 C   0  0  0  0  0  0  0  0  0  0  0  0
    3.5277    3.4309    1.7747 C   0  0  0  0  0  0  0  0  0  0  0  0
   -0.6092    1.5502    2.3660 C   0  0  0  0  0  0  0  0  0  0  0  0
    2.5054   -1.4174   -1.5581 C   0  0  0  0  0  0  0  0  0  0  0  0
   -2.3012   -0.1803    2.9522 C   0  0  0  0  0  0  0  0  0  0  0  0
    2.7819   -2.4057   -0.4839 C   0  0  0  0  0  0  0  0  0  0  0  0
   -3.1442   -0.4798    1.7464 C   0  0  0  0  0  0  0  0  0  0  0  0
    1.8829   -3.4444   -0.2423 C   0  0  0  0  0  0  0  0  0  0  0  0
    3.9413   -2.2943    0.2835 C   0  0  0  0  0  0  0  0  0  0  0  0
   -4.3193    0.2376    1.5214 C   0  0  0  0  0  0  0  0  0  0  0  0
   -2.7524   -1.4752    0.8514 C   0  0  0  0  0  0  0  0  0  0  0  0
    2.1433   -4.3719    0.7666 C   0  0  0  0  0  0  0  0  0  0  0  0
    4.2019   -3.2218    1.2923 C   0  0  0  0  0  0  0  0  0  0  0  0
    3.3027   -4.2605    1.5338 C   0  0  0  0  0  0  0  0  0  0  0  0
   -5.1023   -0.0406    0.4012 C   0  0  0  0  0  0  0  0  0  0  0  0
   -3.5355   -1.7533   -0.2688 C   0  0  0  0  0  0  0  0  0  0  0  0
   -4.7104   -1.0360   -0.4941 C   0  0  0  0  0  0  0  0  0  0  0  0
   -5.5126   -1.3209   -1.6416 C   0  0  0  0  0  0  0  0  0  0  0  0
    0.7538    0.7755   -0.7194 H   0  0  0  0  0  0  0  0  0  0  0  0
    2.1516    2.9238   -2.3898 H   0  0  0  0  0  0  0  0  0  0  0  0
   -0.8144    2.5944    0.0714 H   0  0  0  0  0  0  0  0  0  0  0  0
    0.2593    3.7919   -0.6125 H   0  0  0  0  0  0  0  0  0  0  0  0
    0.8529    3.7740    1.5956 H   0  0  0  0  0  0  0  0  0  0  0  0
    0.2784    1.2448   -3.2669 H   0  0  0  0  0  0  0  0  0  0  0  0
    4.1071    2.7308   -0.7345 H   0  0  0  0  0  0  0  0  0  0  0  0
    3.8610    1.2012   -2.6858 H   0  0  0  0  0  0  0  0  0  0  0  0
    2.3080    0.5648   -3.1993 H   0  0  0  0  0  0  0  0  0  0  0  0
    1.4012    1.7887    2.9484 H   0  0  0  0  0  0  0  0  0  0  0  0
    1.2097    0.7321    1.5527 H   0  0  0  0  0  0  0  0  0  0  0  0
    0.1475    3.7857   -2.9339 H   0  0  0  0  0  0  0  0  0  0  0  0
   -1.3950    3.5209   -2.0750 H   0  0  0  0  0  0  0  0  0  0  0  0
   -1.2165    3.0384   -3.7450 H   0  0  0  0  0  0  0  0  0  0  0  0
   -1.9978    1.1786   -1.2302 H   0  0  0  0  0  0  0  0  0  0  0  0
   -1.0792   -0.2179   -1.8210 H   0  0  0  0  0  0  0  0  0  0  0  0
   -2.0815    0.7191   -2.9327 H   0  0  0  0  0  0  0  0  0  0  0  0
    3.5496    2.7421    2.6244 H   0  0  0  0  0  0  0  0  0  0  0  0
    4.5549    3.5349    1.4089 H   0  0  0  0  0  0  0  0  0  0  0  0
    3.2041    4.4144    2.1305 H   0  0  0  0  0  0  0  0  0  0  0  0
    3.6270    0.0535   -0.5750 H   0  0  0  0  0  0  0  0  0  0  0  0
   -0.2629   -0.5016    2.4942 H   0  0  0  0  0  0  0  0  0  0  0  0
   -2.7544    0.6056    3.5671 H   0  0  0  0  0  0  0  0  0  0  0  0
   -2.2188   -1.0782    3.5748 H   0  0  0  0  0  0  0  0  0  0  0  0
    0.9713   -3.5448   -0.8256 H   0  0  0  0  0  0  0  0  0  0  0  0
    4.6836   -1.5216    0.1087 H   0  0  0  0  0  0  0  0  0  0  0  0
   -4.6364    1.0165    2.2095 H   0  0  0  0  0  0  0  0  0  0  0  0
   -1.8407   -2.0438    1.0156 H   0  0  0  0  0  0  0  0  0  0  0  0
    1.4428   -5.1801    0.9556 H   0  0  0  0  0  0  0  0  0  0  0  0
    5.1082   -3.1399    1.8852 H   0  0  0  0  0  0  0  0  0  0  0  0
    3.5062   -4.9834    2.3185 H   0  0  0  0  0  0  0  0  0  0  0  0
   -6.0152    0.5274    0.2390 H   0  0  0  0  0  0  0  0  0  0  0  0
   -3.2164   -2.5318   -0.9577 H   0  0  0  0  0  0  0  0  0  0  0  0
  1 18  2  0  0  0  0
  2 19  2  0  0  0  0
  3 13  1  0  0  0  0
  3 19  1  0  0  0  0
  3 54  1  0  0  0  0
  4 18  1  0  0  0  0
  4 20  1  0  0  0  0
  4 55  1  0  0  0  0
  5 33  3  0  0  0  0
  6  7  1  0  0  0  0
  6  8  1  0  0  0  0
  6 10  1  0  0  0  0
  6 34  1  0  0  0  0
  7 12  1  0  0  0  0
  7 13  1  0  0  0  0
  7 35  1  0  0  0  0
  8  9  1  0  0  0  0
  8 36  1  0  0  0  0
  8 37  1  0  0  0  0
  9 11  1  0  0  0  0
  9 14  1  0  0  0  0
  9 38  1  0  0  0  0
 10 15  1  0  0  0  0
 10 16  1  0  0  0  0
 10 39  1  0  0  0  0
 11 12  2  0  0  0  0
 11 17  1  0  0  0  0
 12 40  1  0  0  0  0
 13 41  1  0  0  0  0
 13 42  1  0  0  0  0
 14 18  1  0  0  0  0
 14 43  1  0  0  0  0
 14 44  1  0  0  0  0
 15 45  1  0  0  0  0
 15 46  1  0  0  0  0
 15 47  1  0  0  0  0
 16 48  1  0  0  0  0
 16 49  1  0  0  0  0
 16 50  1  0  0  0  0
 17 51  1  0  0  0  0
 17 52  1  0  0  0  0
 17 53  1  0  0  0  0
 19 21  1  0  0  0  0
 20 22  1  0  0  0  0
 20 56  1  0  0  0  0
 20 57  1  0  0  0  0
 21 23  2  0  0  0  0
 21 24  1  0  0  0  0
 22 25  2  0  0  0  0
 22 26  1  0  0  0  0
 23 27  1  0  0  0  0
 23 58  1  0  0  0  0
 24 28  2  0  0  0  0
 24 59  1  0  0  0  0
 25 30  1  0  0  0  0
 25 60  1  0  0  0  0
 26 31  2  0  0  0  0
 26 61  1  0  0  0  0
 27 29  2  0  0  0  0
 27 62  1  0  0  0  0
 28 29  1  0  0  0  0
 28 63  1  0  0  0  0
 29 64  1  0  0  0  0
 30 32  2  0  0  0  0
 30 65  1  0  0  0  0
 31 32  1  0  0  0  0
 31 66  1  0  0  0  0
 32 33  1  0  0  0  0
M  END
> <PUBCHEM_COMPOUND_CID>
38029393

> <PUBCHEM_CONFORMER_RMSD>
1

> <PUBCHEM_CONFORMER_DIVERSEORDER>
1
273
187
144
232
231
58
116
211
253
18
235
280
147
295
138
67
72
44
224
145
106
241
41
103
31
247
26
51
182
242
208
171
297
57
64
99
176
267
192
115
212
4
39
256
183
36
162
77
206
90
292
128
74
104
200
220
21
119
146
168
53
265
185
205
30
173
258
75
126
233
63
68
60
142
159
245
34
148
198
194
84
177
122
201
170
100
250
151
43
286
134
243
118
37
112
150
284
255
127
264
110
121
79
109
33
17
65
289
175
81
271
207
24
290
70
223
7
45
184
274
269
55
54
225
163
160
161
281
226
260
113
143
222
230
80
237
32
268
132
215
204
48
190
96
164
111
56
89
210
97
140
108
71
123
46
28
291
216
179
221
69
14
252
94
186
244
117
285
153
10
152
276
246
272
92
251
213
62
174
105
59
42
277
133
167
38
217
279
293
282
239
218
219
155
129
172
25
50
98
141
197
228
288
275
52
93
35
120
131
11
6
294
236
209
165
254
195
78
73
125
166
85
234
20
283
178
5
137
8
259
154
2
61
66
3
188
266
181
114
88
47
287
191
249
296
157
95
158
16
135
139
40
248
261
227
240
278
91
29
136
196
193
102
9
87
270
149
229
257
263
23
49
189
156
130
22
214
180
82
27
76
199
124
86
15
107
19
169
13
203
83
101
12
238
202
262

> <PUBCHEM_MMFF94_PARTIAL_CHARGES>
40
1 -0.57
11 -0.28
12 -0.29
13 0.3
14 0.06
17 0.14
18 0.57
19 0.54
2 -0.57
20 0.44
21 0.09
22 -0.14
23 -0.15
24 -0.15
25 -0.15
26 -0.15
27 -0.15
28 -0.15
29 -0.15
3 -0.73
30 -0.15
31 -0.15
32 0.07
33 0.48
4 -0.73
40 0.15
5 -0.56
54 0.37
55 0.37
58 0.15
59 0.15
60 0.15
61 0.15
62 0.15
63 0.15
64 0.15
65 0.15
66 0.15
7 0.14
9 0.14

> <PUBCHEM_EFFECTIVE_ROTOR_COUNT>
10.8

> <PUBCHEM_PHARMACOPHORE_FEATURES>
9
1 1 acceptor
1 2 acceptor
1 3 donor
1 4 donor
1 5 acceptor
3 10 15 16 hydrophobe
6 21 23 24 27 28 29 rings
6 22 25 26 30 31 32 rings
6 6 7 8 9 11 12 rings

> <PUBCHEM_HEAVY_ATOM_COUNT>
33

> <PUBCHEM_ATOM_DEF_STEREO_COUNT>
3

> <PUBCHEM_ATOM_UDEF_STEREO_COUNT>
0

> <PUBCHEM_BOND_DEF_STEREO_COUNT>
0

> <PUBCHEM_BOND_UDEF_STEREO_COUNT>
0

> <PUBCHEM_ISOTOPIC_ATOM_COUNT>
0

> <PUBCHEM_COMPONENT_COUNT>
1

> <PUBCHEM_CACTVS_TAUTO_COUNT>
4

> <PUBCHEM_CONFORMER_ID>
0244485100000001

> <PUBCHEM_MMFF94_ENERGY>
71.1706

> <PUBCHEM_FEATURE_SELFOVERLAP>
45.671

> <PUBCHEM_SHAPE_FINGERPRINT>
10032420 55 17913242920711691872
11285246 1 16952822639994099710
11552529 35 17473271977247098514
12156800 1 17245795209759213483
13383668 262 17551481746917561287
14114207 22 18194374871279205930
14251757 17 15864654794067744395
14674994 50 17468760689110731718
19026451 147 18060136574111593247
19315092 285 18201142348041729727
20775530 9 18117851988437545458
35225 105 17185348359689474510
4394409 98 17773862122762881079
469060 322 15837001977865970778
5081480 168 17894909582245933731
513532 50 17823678911035863703
550186 7 13342111481940175870

> <PUBCHEM_SHAPE_MULTIPOLES>
652.44
9.62
5.63
3.37
13.27
2.87
0.06
7.25
-1.94
-8.36
0.92
1.48
-1.65
-0.92

> <PUBCHEM_SHAPE_SELFOVERLAP>
1371.519

> <PUBCHEM_SHAPE_VOLUME>
362.9

> <PUBCHEM_COORDINATE_TYPE>
2
5
10

$$$$
