40780575
  -OEChem-12032416163D

 64 67  0     1  0  0  0  0  0999 V2000
   -2.3496   -2.0006    1.7938 O   0  0  0  0  0  0  0  0  0  0  0  0
    2.0268   -2.3058    0.5773 N   0  0  2  0  0  0  0  0  0  0  0  0
    4.7590    1.1076   -0.0187 N   0  0  0  0  0  0  0  0  0  0  0  0
   -1.1368   -0.2584    0.8630 N   0  0  0  0  0  0  0  0  0  0  0  0
   -7.1160    1.4321   -0.6863 N   0  0  0  0  0  0  0  0  0  0  0  0
    2.3001   -1.2663   -1.7916 C   0  0  2  0  0  0  0  0  0  0  0  0
    3.4279   -0.7914   -0.8471 C   0  0  2  0  0  0  0  0  0  0  0  0
    0.7566   -1.6548    0.1570 C   0  0  2  0  0  0  0  0  0  0  0  0
    0.9351   -0.9011   -1.1797 C   0  0  0  0  0  0  0  0  0  0  0  0
    3.1352   -1.3208    0.5749 C   0  0  0  0  0  0  0  0  0  0  0  0
    2.3792   -2.8041   -1.8451 C   0  0  0  0  0  0  0  0  0  0  0  0
    2.3466   -3.3638   -0.4119 C   0  0  0  0  0  0  0  0  0  0  0  0
    3.6225    0.7230   -0.8553 C   0  0  0  0  0  0  0  0  0  0  0  0
    0.1763   -0.7500    1.2464 C   0  0  0  0  0  0  0  0  0  0  0  0
    4.6768    2.5311    0.3374 C   0  0  0  0  0  0  0  0  0  0  0  0
    6.0251    0.8027   -0.6999 C   0  0  0  0  0  0  0  0  0  0  0  0
    5.8321    2.9386    1.2533 C   0  0  0  0  0  0  0  0  0  0  0  0
    7.2244    1.1537    0.1818 C   0  0  0  0  0  0  0  0  0  0  0  0
    7.1809    2.6126    0.6225 C   0  0  0  0  0  0  0  0  0  0  0  0
   -2.2967   -0.9398    1.1769 C   0  0  0  0  0  0  0  0  0  0  0  0
   -3.5558   -0.3195    0.6906 C   0  0  0  0  0  0  0  0  0  0  0  0
   -4.7531   -0.5482    1.3689 C   0  0  0  0  0  0  0  0  0  0  0  0
   -3.5412    0.4909   -0.4446 C   0  0  0  0  0  0  0  0  0  0  0  0
   -5.9357    0.0333    0.9118 C   0  0  0  0  0  0  0  0  0  0  0  0
   -4.7238    1.0723   -0.9018 C   0  0  0  0  0  0  0  0  0  0  0  0
   -5.9210    0.8435   -0.2236 C   0  0  0  0  0  0  0  0  0  0  0  0
   -8.3658    1.2016    0.0108 C   0  0  0  0  0  0  0  0  0  0  0  0
   -7.1092    2.2817   -1.8608 C   0  0  0  0  0  0  0  0  0  0  0  0
    2.4075   -0.8394   -2.7942 H   0  0  0  0  0  0  0  0  0  0  0  0
    4.3425   -1.2764   -1.2097 H   0  0  0  0  0  0  0  0  0  0  0  0
    0.0176   -2.4534   -0.0049 H   0  0  0  0  0  0  0  0  0  0  0  0
    0.8541    0.1838   -1.0570 H   0  0  0  0  0  0  0  0  0  0  0  0
    0.1352   -1.1970   -1.8705 H   0  0  0  0  0  0  0  0  0  0  0  0
    4.0389   -1.8003    0.9741 H   0  0  0  0  0  0  0  0  0  0  0  0
    2.9137   -0.5132    1.2813 H   0  0  0  0  0  0  0  0  0  0  0  0
    3.2994   -3.1229   -2.3487 H   0  0  0  0  0  0  0  0  0  0  0  0
    1.5376   -3.2021   -2.4248 H   0  0  0  0  0  0  0  0  0  0  0  0
    1.6099   -4.1739   -0.3444 H   0  0  0  0  0  0  0  0  0  0  0  0
    3.3113   -3.8243   -0.1636 H   0  0  0  0  0  0  0  0  0  0  0  0
    2.7118    1.1925   -0.4640 H   0  0  0  0  0  0  0  0  0  0  0  0
    3.7410    1.0929   -1.8823 H   0  0  0  0  0  0  0  0  0  0  0  0
    0.7986    0.1330    1.4232 H   0  0  0  0  0  0  0  0  0  0  0  0
    0.0871   -1.2962    2.1925 H   0  0  0  0  0  0  0  0  0  0  0  0
    3.7392    2.7296    0.8710 H   0  0  0  0  0  0  0  0  0  0  0  0
    4.6797    3.1593   -0.5633 H   0  0  0  0  0  0  0  0  0  0  0  0
    6.0994    1.3492   -1.6495 H   0  0  0  0  0  0  0  0  0  0  0  0
    6.1098   -0.2628   -0.9333 H   0  0  0  0  0  0  0  0  0  0  0  0
   -1.1680    0.6412    0.3960 H   0  0  0  0  0  0  0  0  0  0  0  0
    5.7416    2.4151    2.2136 H   0  0  0  0  0  0  0  0  0  0  0  0
    5.7739    4.0117    1.4676 H   0  0  0  0  0  0  0  0  0  0  0  0
    8.1548    0.9613   -0.3643 H   0  0  0  0  0  0  0  0  0  0  0  0
    7.2325    0.5045    1.0667 H   0  0  0  0  0  0  0  0  0  0  0  0
    7.3456    3.2623   -0.2458 H   0  0  0  0  0  0  0  0  0  0  0  0
    7.9884    2.8149    1.3346 H   0  0  0  0  0  0  0  0  0  0  0  0
   -4.7830   -1.1730    2.2577 H   0  0  0  0  0  0  0  0  0  0  0  0
   -2.6377    0.6680   -1.0207 H   0  0  0  0  0  0  0  0  0  0  0  0
   -6.8405   -0.1740    1.4745 H   0  0  0  0  0  0  0  0  0  0  0  0
   -4.6616    1.6884   -1.7933 H   0  0  0  0  0  0  0  0  0  0  0  0
   -9.2004    1.7227   -0.4713 H   0  0  0  0  0  0  0  0  0  0  0  0
   -8.3192    1.5739    1.0403 H   0  0  0  0  0  0  0  0  0  0  0  0
   -8.6256    0.1372    0.0163 H   0  0  0  0  0  0  0  0  0  0  0  0
   -8.1100    2.6646   -2.0893 H   0  0  0  0  0  0  0  0  0  0  0  0
   -6.7779    1.7291   -2.7471 H   0  0  0  0  0  0  0  0  0  0  0  0
   -6.4676    3.1574   -1.7124 H   0  0  0  0  0  0  0  0  0  0  0  0
  1 20  2  0  0  0  0
  2  8  1  0  0  0  0
  2 10  1  0  0  0  0
  2 12  1  0  0  0  0
  3 13  1  0  0  0  0
  3 15  1  0  0  0  0
  3 16  1  0  0  0  0
  4 14  1  0  0  0  0
  4 20  1  0  0  0  0
  4 48  1  0  0  0  0
  5 26  1  0  0  0  0
  5 27  1  0  0  0  0
  5 28  1  0  0  0  0
  6  7  1  0  0  0  0
  6  9  1  0  0  0  0
  6 11  1  0  0  0  0
  6 29  1  0  0  0  0
  7 10  1  0  0  0  0
  7 13  1  0  0  0  0
  7 30  1  0  0  0  0
  8  9  1  0  0  0  0
  8 14  1  0  0  0  0
  8 31  1  0  0  0  0
  9 32  1  0  0  0  0
  9 33  1  0  0  0  0
 10 34  1  0  0  0  0
 10 35  1  0  0  0  0
 11 12  1  0  0  0  0
 11 36  1  0  0  0  0
 11 37  1  0  0  0  0
 12 38  1  0  0  0  0
 12 39  1  0  0  0  0
 13 40  1  0  0  0  0
 13 41  1  0  0  0  0
 14 42  1  0  0  0  0
 14 43  1  0  0  0  0
 15 17  1  0  0  0  0
 15 44  1  0  0  0  0
 15 45  1  0  0  0  0
 16 18  1  0  0  0  0
 16 46  1  0  0  0  0
 16 47  1  0  0  0  0
 17 19  1  0  0  0  0
 17 49  1  0  0  0  0
 17 50  1  0  0  0  0
 18 19  1  0  0  0  0
 18 51  1  0  0  0  0
 18 52  1  0  0  0  0
 19 53  1  0  0  0  0
 19 54  1  0  0  0  0
 20 21  1  0  0  0  0
 21 22  2  0  0  0  0
 21 23  1  0  0  0  0
 22 24  1  0  0  0  0
 22 55  1  0  0  0  0
 23 25  2  0  0  0  0
 23 56  1  0  0  0  0
 24 26  2  0  0  0  0
 24 57  1  0  0  0  0
 25 26  1  0  0  0  0
 25 58  1  0  0  0  0
 27 59  1  0  0  0  0
 27 60  1  0  0  0  0
 27 61  1  0  0  0  0
 28 62  1  0  0  0  0
 28 63  1  0  0  0  0
 28 64  1  0  0  0  0
M  END
> <PUBCHEM_COMPOUND_CID>
40780575

> <PUBCHEM_CONFORMER_RMSD>
1

> <PUBCHEM_CONFORMER_DIVERSEORDER>
2
70
13
49
82
68
71
58
59
84
56
42
79
47
57
24
80
75
78
45
72
18
32
20
34
69
61
15
62
25
40
38
28
11
23
64
81
21
77
12
10
46
35
7
22
51
17
66
5
16
33
9
19
26
76
36
14
27
8
52
65
30
39
48
43
4
44
63
54
3
37
1
41
53
6
60
67
50
31
74
55
83
73
29

> <PUBCHEM_MMFF94_PARTIAL_CHARGES>
26
1 -0.57
10 0.27
12 0.27
13 0.27
14 0.3
15 0.27
16 0.27
2 -0.81
20 0.54
21 0.09
22 -0.15
23 -0.15
24 -0.15
25 -0.15
26 0.1
27 0.37
28 0.37
3 -0.81
4 -0.73
48 0.37
5 -0.84
55 0.15
56 0.15
57 0.15
58 0.15
8 0.27

> <PUBCHEM_EFFECTIVE_ROTOR_COUNT>
9.4

> <PUBCHEM_PHARMACOPHORE_FEATURES>
8
1 1 acceptor
1 2 cation
1 3 cation
1 4 donor
1 5 cation
6 21 22 23 24 25 26 rings
6 3 15 16 17 18 19 rings
8 2 6 7 8 9 10 11 12 rings

> <PUBCHEM_HEAVY_ATOM_COUNT>
28

> <PUBCHEM_ATOM_DEF_STEREO_COUNT>
3

> <PUBCHEM_ATOM_UDEF_STEREO_COUNT>
0

> <PUBCHEM_BOND_DEF_STEREO_COUNT>
0

> <PUBCHEM_BOND_UDEF_STEREO_COUNT>
0

> <PUBCHEM_ISOTOPIC_ATOM_COUNT>
0

> <PUBCHEM_COMPONENT_COUNT>
1

> <PUBCHEM_CACTVS_TAUTO_COUNT>
2

> <PUBCHEM_CONFORMER_ID>
026E431F00000002

> <PUBCHEM_MMFF94_ENERGY>
75.8299

> <PUBCHEM_FEATURE_SELFOVERLAP>
40.597

> <PUBCHEM_SHAPE_FINGERPRINT>
10006869 2 18410002222859107464
10280341 67 17024013867375368437
10835480 77 18410294696967338929
11135609 127 18340476769302242469
11409948 41 16916235356479088942
11823591 26 18060415850808301030
12838862 33 17917422173504978624
13103583 49 15430314806442520266
131258 43 11311770743630748514
13150687 139 17632589262291062862
13402501 40 18335702766850108840
13673619 4 10303817583254841370
13911987 19 17775288266094250355
14117953 113 18411706513064108052
14123256 34 9655582915313983448
14461889 52 17822303404894127995
14556957 393 16988575597345111449
14598715 104 18186793682713501757
14767858 380 16630530643459666856
14904525 67 18267587902026197249
15276724 80 18128542570544921233
15289351 153 18341048528724341568
15684393 108 17632285784334097287
16120349 189 18268429217177694052
17980427 23 17241051036477332846
18335252 114 18060421309775109340
19053607 189 17676780785757038367
20157964 124 18341334405061374510
20465049 17 11167942454911689484
20511986 3 18187641401772630739
20554085 129 17749109989073555258
20567600 254 18343024428212289352
20721686 146 18186803604256547068
20737093 207 13181922264225433236
21033648 29 17968098655200422578
21150785 3 17561362890316765077
21403212 168 18411978071229681642
21521239 73 16199884895072239750
21859007 373 17531522058190972887
21968339 14 18131631158466743848
23522609 53 16414660188963946523
23559900 14 17968958386872329927
25269216 80 18058434548441315127
2838139 119 18342453785904128940
34797466 226 18271529694002151951
4093350 32 18271527503136217053
44249763 50 18261113002397748167
465052 167 8430315740591287450
504579 68 16559031576070730233
5104073 3 17531536386607749323
5283384 27 18342175604988168200
5372103 7 18270961349306738288
57634706 306 17987508385737658624
6058803 2 16125590777438921875
6327066 14 18199750413934974060
636775 8 9727365653795841816
6695519 79 17898037705891681851
9980921 177 17968363556030175336
999808 66 8935008074588932113

> <PUBCHEM_SHAPE_MULTIPOLES>
550.43
22.22
3.26
1.6
19.01
0.43
-0.22
-22.77
-1.71
-5.19
-0.26
0.95
0.34
3.78

> <PUBCHEM_SHAPE_SELFOVERLAP>
1152.954

> <PUBCHEM_SHAPE_VOLUME>
308.2

> <PUBCHEM_COORDINATE_TYPE>
2
5
10

$$$$
